data_PCOD9322222
_publ_section_title
;
Structure prediction by ZEFSAII (Michael W. Deem and Ramdas Pophale) SiO2 
 PCOD9322222
Probable space group: C 2 2 21
;
_chemical_formula_sum "Si O2"
_cell_formula_units_Z 24
_cell_length_a 18.000000
_cell_length_b 15.000000
_cell_length_c 9.000000
_cell_angle_alpha 90.000000
_cell_angle_beta 90.000000
_cell_angle_gamma 90.000000
_cell_volume 2430.000000
_symmetry_space_group_name_H-M "C 2 2 21"
_symmetry_group_IT_number 20
_symmetry_cell_setting 'orthorhombic'
loop_
_space_group_symop_operation_xyz
x,y,z
-x,-y,1/2+z
x,-y,-z
-x,y,1/2-z
1/2+x,1/2+y,z
1/2-x,1/2-y,1/2+z
1/2+x,1/2-y,-z
1/2-x,1/2+y,1/2-z
loop_
_atom_site_type_symbol
_atom_site_label
_atom_site_fract_x
_atom_site_fract_y
_atom_site_fract_z
Si Si1 0.289149 0.976536 0.665632
Si Si2 0.550081 0.413071 0.105445
Si Si3 0.770459 0.193968 0.327470
Si Si4 0.553464 0.938611 0.115023
Si Si5 0.720257 0.633981 0.839807
Si Si6 0.060436 0.762885 0.879628
O O1 0.264583 0.879306 0.717727
O O2 0.259631 0.000000 0.500000
O O3 0.376325 0.999638 0.655581
O O4 0.259813 0.044844 0.787701
O O5 0.500000 0.426124 0.250000
O O6 0.634038 0.391078 0.152866
O O7 0.548217 0.500000 0.000000
O O8 0.529275 0.326346 0.008541
O O9 0.738520 0.288980 0.278219
O O10 0.754093 0.167660 0.498030
O O11 0.860479 0.199061 0.322235
O O12 0.500000 0.923953 0.250000
O O13 0.576003 0.838748 0.066228
O O14 0.509914 0.000000 0.000000
O O15 0.000000 0.763325 0.750000
#
# Coordination Sequence:
#
# PCOD9322222 Si02
#       6
#     8   8   8   8   8   8
#     4  11  23  41  65  94 128 171 210 268 327 385
#     4  11  25  43  66  95 132 172 219 269 327 393
#     4  11  23  40  66  93 133 168 218 268 321 396
#     4  10  23  42  64  90 128 168 214 265 324 384
#     4  11  23  42  62  98 128 171 217 271 326 385
#     4  10  22  44  66  94 133 170 211 273 325 381
#
# _framework density 9.8765429999999999
#
# number of rings (size 3 to 8) (size 9 to 14) (size 15 to 20)
#    0.000    1.333    1.667    4.000    7.000    5.333 
#    0.000    0.000    0.000    0.000    0.000    0.000 
#    0.000    0.000    0.000    0.000    0.000    0.000 
#
# Total GULP energy -133927.081526 kJ/mol
# GULP energy per Si atom -5580.295064 kJ/mol
# Density = 0.985406 g / cm^3
# Si number density = 9.876543 Si / 1000 Ang^3
#
#
#
# Elastic Constant Matrix: (Units=GPa)
#
#
# Indices 1 2 3 4 5 6 
#
# 1 40.4876 21.9732 38.8665 0.0000 0.0000 0.0000
# 2 21.9732 77.3939 -1.5563 0.0000 0.0000 0.0000
# 3 38.8665 -1.5563 67.8046 0.0000 0.0000 0.0000
# 4 0.0000 0.0000 0.0000 62.7747 0.0000 0.0000
# 5 0.0000 0.0000 0.0000 0.0000 40.4644 0.0000
# 6 0.0000 0.0000 0.0000 0.0000 0.0000 25.3648
#
#
#
# Elastic Compliance Matrix: (Units=1/GPa)
#
#
# Indices 1 2 3 4 5 6 
#
# 1 0.087334 -0.025814 -0.050653 0.000000 0.000000 0.000000
# 2 -0.025814 0.020557 0.015269 0.000000 0.000000 0.000000
# 3 -0.050653 0.015269 0.044134 0.000000 0.000000 0.000000
# 4 0.000000 0.000000 0.000000 0.015930 0.000000 0.000000
# 5 0.000000 0.000000 0.000000 0.000000 0.024713 0.000000
# 6 0.000000 0.000000 0.000000 0.000000 0.000000 0.039425
#
#
# Mechanical properties :
#
#
# Convention : Reuss Voigt Hill
#
# Bulk Modulus (GPa) = 33.75249 33.80588 33.77918
# Shear Modulus (GPa) = 13.72249 34.14761 23.93505
#
# Velocity S-wave (km/s) = 2.63858 4.16230 3.48474
# Velocity P-wave (km/s) = 5.13878 6.34437 5.77313
#
# Compressibility (1/GPa) = 0.02962744
#
# Stress axis : x y z
#
# Youngs Moduli (GPa) = 11.45032 48.64552 22.65830
#
# Poissons Ratio (x) = 1.25573 1.14772
# Poissons Ratio (y) = 0.29558 -0.34596
# Poissons Ratio (z) = 0.58000 -0.74275
#
# Static dielectric constant tensor:
#      x y z
#    x 1.612220 0.000000 0.000000 
#    y 0.000000 1.697820 0.000000 
#    z 0.000000 0.000000 1.576820 
# 
# From -- ./inp_files/9333.got.cif
#   From: 2010.05.17/outbox.ucp.g08.bks.cvg/sg20_5_cif.got.tgz:9333.got - 2010.06.11 15:13:06.
