data_PCOD9322540
_publ_section_title
;
Structure prediction by ZEFSAII (Michael W. Deem and Ramdas Pophale) SiO2 
 PCOD9322540
Probable space group: C 2 2 2
;
_chemical_formula_sum "Si O2"
_cell_formula_units_Z 52
_cell_length_a 18.206011
_cell_length_b 9.956653
_cell_length_c 13.970161
_cell_angle_alpha 90.000000
_cell_angle_beta 90.000000
_cell_angle_gamma 90.000000
_cell_volume 2532.384133
_symmetry_space_group_name_H-M "C 2 2 2"
_symmetry_group_IT_number 21
_symmetry_cell_setting 'orthorhombic'
loop_
_space_group_symop_operation_xyz
x,y,z
-x,-y,z
x,-y,-z
-x,y,-z
1/2+x,1/2+y,z
1/2-x,1/2-y,z
1/2+x,1/2-y,-z
1/2-x,1/2+y,-z
loop_
_atom_site_type_symbol
_atom_site_label
_atom_site_fract_x
_atom_site_fract_y
_atom_site_fract_z
Si Si1 0.595474 0.765357 0.792804
Si Si2 0.000000 0.500000 0.275581
Si Si3 0.698136 0.034370 0.111224
Si Si4 0.325100 0.170515 0.598348
Si Si5 0.665695 0.766270 0.199031
Si Si6 0.128631 0.997872 0.114324
Si Si7 0.636543 0.879866 0.387575
O O1 0.530375 0.874566 0.786041
O O2 0.658355 0.828763 0.861103
O O3 0.628808 0.767304 0.685490
O O4 0.581821 0.617261 0.833452
O O5 0.939055 0.561888 0.346369
O O6 0.784647 0.034386 0.136619
O O7 0.652109 0.918371 0.165833
O O8 0.693936 0.000000 0.000000
O O9 0.250000 0.250000 0.588995
O O10 0.365749 0.168877 0.496114
O O11 0.311336 0.011907 0.619204
O O12 0.750000 0.750000 0.166103
O O13 0.618531 0.648320 0.153889
O O14 0.661346 0.766723 0.313364
O O15 0.118669 0.000000 0.000000
#
# Coordination Sequence:
#
# PCOD9322540 Si02
#       7
#     8   4   8   8   8   8   8
#     4  11  21  37  60  89 125 166 214 257 296 380
#     4  10  22  41  65  84 122 176 223 246 299 368
#     4  10  18  33  58  87 121 159 204 259 319 382
#     4  10  20  34  60  91 122 155 201 260 317 363
#     4  10  19  33  55  86 121 159 195 256 327 372
#     4  10  21  35  59  92 126 161 200 268 338 370
#     4  10  21  38  58  88 123 164 206 257 304 381
#
# _framework density 20.534009000000001
#
# number of rings (size 3 to 8) (size 9 to 14) (size 15 to 20)
#    0.000    1.846    3.077    2.769    2.154    7.385 
#    0.000    1.154    0.000    0.923    0.000    6.462 
#    0.000    0.000    0.000    0.000    0.000    0.000 
#
# Total GULP energy -145088.438576 kJ/mol
# GULP energy per Si atom -5580.324561 kJ/mol
# Density = 2.048727 g / cm^3
# Si number density = 20.534009 Si / 1000 Ang^3
#
#
#
# Elastic Constant Matrix: (Units=GPa)
#
#
# Indices 1 2 3 4 5 6 
#
# 1 53.0343 20.0579 7.7300 0.0000 0.0000 0.0000
# 2 20.0579 115.9063 44.3205 0.0000 0.0000 0.0000
# 3 7.7300 44.3205 108.5228 0.0000 0.0000 0.0000
# 4 0.0000 0.0000 0.0000 30.3876 0.0000 0.0000
# 5 0.0000 0.0000 0.0000 0.0000 14.7025 0.0000
# 6 0.0000 0.0000 0.0000 0.0000 0.0000 29.5270
#
#
#
# Elastic Compliance Matrix: (Units=1/GPa)
#
#
# Indices 1 2 3 4 5 6 
#
# 1 0.020176 -0.003486 -0.000013 0.000000 0.000000 0.000000
# 2 -0.003486 0.010827 -0.004173 0.000000 0.000000 0.000000
# 3 -0.000013 -0.004173 0.010920 0.000000 0.000000 0.000000
# 4 0.000000 0.000000 0.000000 0.032908 0.000000 0.000000
# 5 0.000000 0.000000 0.000000 0.000000 0.068016 0.000000
# 6 0.000000 0.000000 0.000000 0.000000 0.000000 0.033867
#
#
# Mechanical properties :
#
#
# Convention : Reuss Voigt Hill
#
# Bulk Modulus (GPa) = 37.62664 46.85336 42.24000
# Shear Modulus (GPa) = 24.88563 28.61376 26.74970
#
# Velocity S-wave (km/s) = 3.48504 3.73699 3.61321
# Velocity P-wave (km/s) = 5.87860 6.44105 6.16624
#
# Compressibility (1/GPa) = 0.02657692
#
# Stress axis : x y z
#
# Youngs Moduli (GPa) = 49.56322 92.36344 91.57539
#
# Poissons Ratio (x) = 0.32202 0.00122
# Poissons Ratio (y) = 0.17280 0.38217
# Poissons Ratio (z) = 0.00066 0.38546
#
# Static dielectric constant tensor:
#      x y z
#    x 1.759700 0.000000 0.000000 
#    y 0.000000 1.760370 0.000000 
#    z 0.000000 0.000000 1.736050 
# 
# From -- ./inp_files/33214.got.cif
#   From: 2010.05.17/outbox.cif.g08.bks.cpg/sg21_17_cif.got.tgz:33214.got - 2010.06.03 23:14:55.
