data_PCOD9322457
_publ_section_title
;
Structure prediction by ZEFSAII (Michael W. Deem and Ramdas Pophale) SiO2 
 PCOD9322457
Probable space group: C 2 2 2
;
_chemical_formula_sum "Si O2"
_cell_formula_units_Z 40
_cell_length_a 21.007113
_cell_length_b 7.432400
_cell_length_c 11.543206
_cell_angle_alpha 90.000000
_cell_angle_beta 90.000000
_cell_angle_gamma 90.000000
_cell_volume 1802.278461
_symmetry_space_group_name_H-M "C 2 2 2"
_symmetry_group_IT_number 21
_symmetry_cell_setting 'orthorhombic'
loop_
_space_group_symop_operation_xyz
x,y,z
-x,-y,z
x,-y,-z
-x,y,-z
1/2+x,1/2+y,z
1/2-x,1/2-y,z
1/2+x,1/2-y,-z
1/2-x,1/2+y,-z
loop_
_atom_site_type_symbol
_atom_site_label
_atom_site_fract_x
_atom_site_fract_y
_atom_site_fract_z
Si Si1 0.330313 0.000000 0.500000
Si Si2 0.997792 0.279121 0.135992
Si Si3 0.879797 0.319128 0.292656
Si Si4 0.750000 0.750000 0.331906
Si Si5 0.750000 0.750000 0.814202
Si Si6 0.196288 0.500000 0.000000
Si Si7 0.633692 0.782821 0.182307
O O1 0.375110 0.858832 0.430044
O O2 0.282610 0.898714 0.587293
O O3 0.938965 0.236612 0.221817
O O4 0.000000 0.500000 0.135270
O O5 0.063964 0.201225 0.185252
O O6 0.000000 0.227328 0.000000
O O7 0.813383 0.227162 0.259677
O O8 0.874912 0.521168 0.240850
O O9 0.691587 0.691646 0.249175
O O10 0.762359 0.581801 0.898181
O O11 0.153980 0.337930 0.051656
#
# Coordination Sequence:
#
# PCOD9322457 Si02
#       7
#     4   8   8   4   4   4   8
#     4  10  20  36  53  74 103 138 182 226 258 296
#     4   9  15  27  47  74 108 135 161 210 271 322
#     4   9  18  30  48  73 102 138 176 216 262 308
#     4  10  20  34  52  76 104 136 180 222 260 306
#     4  10  18  30  48  78 106 136 176 210 264 318
#     4  10  18  30  51  80 111 136 166 212 262 324
#     4   9  17  29  47  76 106 134 167 209 265 318
#
# _framework density 22.194130000000001
#
# number of rings (size 3 to 8) (size 9 to 14) (size 15 to 20)
#    0.000    2.600    0.000    4.800    0.000    0.000 
#    0.000   12.500    0.000    0.000    0.000   72.100 
#    0.000    0.000    0.000    0.000    0.000    0.000 
#
# Total GULP energy -111457.828896 kJ/mol
# GULP energy per Si atom -5572.891445 kJ/mol
# Density = 2.214362 g / cm^3
# Si number density = 22.194130 Si / 1000 Ang^3
#
#
#
# Elastic Constant Matrix: (Units=GPa)
#
#
# Indices 1 2 3 4 5 6 
#
# 1 216.9006 22.0568 100.1487 0.0000 0.0000 0.0000
# 2 22.0568 50.0430 14.6959 0.0000 0.0000 0.0000
# 3 100.1487 14.6959 117.4669 0.0000 0.0000 0.0000
# 4 0.0000 0.0000 0.0000 22.2206 0.0000 0.0000
# 5 0.0000 0.0000 0.0000 0.0000 16.4221 0.0000
# 6 0.0000 0.0000 0.0000 0.0000 0.0000 11.9541
#
#
#
# Elastic Compliance Matrix: (Units=1/GPa)
#
#
# Indices 1 2 3 4 5 6 
#
# 1 0.007714 -0.001525 -0.006386 0.000000 0.000000 0.000000
# 2 -0.001525 0.021046 -0.001333 0.000000 0.000000 0.000000
# 3 -0.006386 -0.001333 0.014124 0.000000 0.000000 0.000000
# 4 0.000000 0.000000 0.000000 0.045003 0.000000 0.000000
# 5 0.000000 0.000000 0.000000 0.000000 0.060894 0.000000
# 6 0.000000 0.000000 0.000000 0.000000 0.000000 0.083653
#
#
# Mechanical properties :
#
#
# Convention : Reuss Voigt Hill
#
# Bulk Modulus (GPa) = 40.98855 73.13480 57.06168
# Shear Modulus (GPa) = 19.30095 26.61997 22.96046
#
# Velocity S-wave (km/s) = 2.95217 3.46701 3.21990
# Velocity P-wave (km/s) = 5.48896 7.00363 6.29204
#
# Compressibility (1/GPa) = 0.02439706
#
# Stress axis : x y z
#
# Youngs Moduli (GPa) = 129.63375 47.51422 70.79980
#
# Poissons Ratio (x) = 0.07244 0.45213
# Poissons Ratio (y) = 0.19765 0.09439
# Poissons Ratio (z) = 0.82784 0.06334
#
# Static dielectric constant tensor:
#      x y z
#    x 1.877800 0.000000 0.000000 
#    y 0.000000 1.918270 0.000000 
#    z 0.000000 0.000000 1.925060 
# 
# From -- ./inp_files/26714.got.cif
#   From: 2010.05.17/outbox.cif.g08.bks.cpg/sg21_14_cif.got.tgz:26714.got - 2010.06.03 23:14:55.
