data_PCOD9322954
_publ_section_title
;
Structure prediction by ZEFSAII (Michael W. Deem and Ramdas Pophale) SiO2 
 PCOD9322954
Probable space group: C 2 2 2
;
_chemical_formula_sum "Si O2"
_cell_formula_units_Z 56
_cell_length_a 7.337274
_cell_length_b 19.376799
_cell_length_c 16.379297
_cell_angle_alpha 90.000000
_cell_angle_beta 90.000000
_cell_angle_gamma 90.000000
_cell_volume 2328.691884
_symmetry_space_group_name_H-M "C 2 2 2"
_symmetry_group_IT_number 21
_symmetry_cell_setting 'orthorhombic'
loop_
_space_group_symop_operation_xyz
x,y,z
-x,-y,z
x,-y,-z
-x,y,-z
1/2+x,1/2+y,z
1/2-x,1/2-y,z
1/2+x,1/2-y,-z
1/2-x,1/2+y,-z
loop_
_atom_site_type_symbol
_atom_site_label
_atom_site_fract_x
_atom_site_fract_y
_atom_site_fract_z
Si Si1 0.909622 0.703933 0.425339
Si Si2 0.500000 0.000000 0.773268
Si Si3 0.148306 0.680208 0.837996
Si Si4 0.148624 0.646345 0.283387
Si Si5 0.000000 0.000000 0.846194
Si Si6 0.288768 0.053426 0.071895
Si Si7 0.189668 0.929784 0.544942
Si Si8 0.547130 0.611330 0.280452
O O1 0.750000 0.750000 0.387630
O O2 0.821123 0.634899 0.462886
O O3 0.000000 0.744273 0.500000
O O4 0.051793 0.681302 0.359207
O O5 0.429321 0.066282 0.723314
O O6 0.657426 0.017854 0.840286
O O7 0.250000 0.750000 0.861206
O O8 0.131588 0.628579 0.915661
O O9 0.288749 0.648006 0.769258
O O10 0.949055 0.681072 0.795886
O O11 0.365148 0.655282 0.298759
O O12 0.049489 0.057758 0.779747
O O13 0.923729 0.054753 0.913301
O O14 0.327061 0.000000 0.000000
O O15 0.000000 0.916542 0.500000
O O16 0.135511 0.927826 0.641581
O O17 0.258210 0.000000 0.500000
#
# Coordination Sequence:
#
# PCOD9322954 Si02
#       8
#     8   4   8   8   4   8   8   8
#     4  12  27  47  64  93 133 180 231 284 356 421
#     4  10  21  38  63 106 134 162 238 278 339 404
#     4  10  23  44  67 104 140 180 237 284 343 418
#     4  11  23  41  70  99 130 179 228 286 349 407
#     4  10  19  36  61  98 134 170 228 272 341 408
#     4  10  20  37  68  98 140 183 219 279 340 406
#     4  11  24  41  64  96 132 175 227 291 355 407
#     4  11  22  40  67  98 137 175 225 298 346 404
#
# _framework density 24.047837000000001
#
# number of rings (size 3 to 8) (size 9 to 14) (size 15 to 20)
#    0.000    1.286    2.857    3.000    0.000    4.286 
#    0.000    0.714    0.000   13.714    0.000    0.000 
#    0.000    0.000    0.000    0.000    0.000    0.000 
#
# Total GULP energy -155898.329638 kJ/mol
# GULP energy per Si atom -5567.797487 kJ/mol
# Density = 2.399310 g / cm^3
# Si number density = 24.047837 Si / 1000 Ang^3
#
#
#
# Elastic Constant Matrix: (Units=GPa)
#
#
# Indices 1 2 3 4 5 6 
#
# 1 45.8306 10.8689 28.3336 0.0000 0.0000 0.0000
# 2 10.8689 102.7877 43.1621 0.0000 0.0000 0.0000
# 3 28.3336 43.1621 115.0697 0.0000 0.0000 0.0000
# 4 0.0000 0.0000 0.0000 5.2961 0.0000 0.0000
# 5 0.0000 0.0000 0.0000 0.0000 14.6774 0.0000
# 6 0.0000 0.0000 0.0000 0.0000 0.0000 22.7890
#
#
#
# Elastic Compliance Matrix: (Units=1/GPa)
#
#
# Indices 1 2 3 4 5 6 
#
# 1 0.025738 -0.000072 -0.006311 0.000000 0.000000 0.000000
# 2 -0.000072 0.011548 -0.004314 0.000000 0.000000 0.000000
# 3 -0.006311 -0.004314 0.011862 0.000000 0.000000 0.000000
# 4 0.000000 0.000000 0.000000 0.188818 0.000000 0.000000
# 5 0.000000 0.000000 0.000000 0.000000 0.068132 0.000000
# 6 0.000000 0.000000 0.000000 0.000000 0.000000 0.043881
#
#
# Mechanical properties :
#
#
# Convention : Reuss Voigt Hill
#
# Bulk Modulus (GPa) = 36.02850 47.60193 41.81521
# Shear Modulus (GPa) = 13.13635 20.64072 16.88854
#
# Velocity S-wave (km/s) = 2.33975 2.93289 2.65295
# Velocity P-wave (km/s) = 4.72375 5.59524 5.17786
#
# Compressibility (1/GPa) = 0.02775581
#
# Stress axis : x y z
#
# Youngs Moduli (GPa) = 38.85334 86.59633 84.30030
#
# Poissons Ratio (x) = 0.00620 0.53198
# Poissons Ratio (y) = 0.00278 0.36366
# Poissons Ratio (z) = 0.24519 0.37357
#
# Static dielectric constant tensor:
#      x y z
#    x 2.905380 0.000000 0.000000 
#    y 0.000000 2.109960 0.000000 
#    z 0.000000 0.000000 1.945440 
# 
# From -- ./inp_files/30803.got.cif
#   From: 2010.05.17/outbox.cif.g08.bks.cpg/sg21_16_cif.got.tgz:30803.got - 2010.06.03 23:14:55.
