data_PCOD9322371
_publ_section_title
;
Structure prediction by ZEFSAII (Michael W. Deem and Ramdas Pophale) SiO2 
 PCOD9322371
Probable space group: C 2 2 2
;
_chemical_formula_sum "Si O2"
_cell_formula_units_Z 48
_cell_length_a 9.160066
_cell_length_b 32.231685
_cell_length_c 8.616979
_cell_angle_alpha 90.000000
_cell_angle_beta 90.000000
_cell_angle_gamma 90.000000
_cell_volume 2544.114466
_symmetry_space_group_name_H-M "C 2 2 2"
_symmetry_group_IT_number 21
_symmetry_cell_setting 'orthorhombic'
loop_
_space_group_symop_operation_xyz
x,y,z
-x,-y,z
x,-y,-z
-x,y,-z
1/2+x,1/2+y,z
1/2-x,1/2-y,z
1/2+x,1/2-y,-z
1/2-x,1/2+y,-z
loop_
_atom_site_type_symbol
_atom_site_label
_atom_site_fract_x
_atom_site_fract_y
_atom_site_fract_z
Si Si1 0.163026 0.707893 0.063919
Si Si2 0.833481 0.957300 0.935453
Si Si3 0.335118 0.370819 0.435268
Si Si4 0.664882 0.370819 0.935268
Si Si5 0.333481 0.457300 0.564547
Si Si6 0.336974 0.792107 0.436081
O O1 0.250000 0.750000 0.025917
O O2 0.161496 0.703194 0.250000
O O3 0.242731 0.668465 0.989390
O O4 0.000000 0.711071 0.000000
O O5 0.836488 0.958083 0.750000
O O6 0.770989 0.913879 0.996762
O O7 0.000000 0.956842 0.000000
O O8 0.766001 0.000000 0.000000
O O9 0.500000 0.366098 0.500000
O O10 0.341378 0.373638 0.250000
O O11 0.270989 0.413879 0.503238
O O12 0.242731 0.331535 0.489390
O O13 0.500000 0.366098 0.000000
O O14 0.266001 0.500000 0.500000
O O15 0.500000 0.456842 0.500000
O O16 0.500000 0.788929 0.500000
O O17 0.250000 0.750000 0.474083
#
# Coordination Sequence:
#
# PCOD9322371 Si02
#       6
#     8   8   8   8   8   8
#     4  11  24  41  61  85 113 146 185 229 279 334
#     4  10  17  28  47  75 110 146 186 230 277 326
#     4  11  21  35  56  83 115 150 189 233 281 331
#     4  11  21  35  56  83 115 150 189 233 281 331
#     4  10  17  28  47  75 110 146 186 230 277 326
#     4  11  24  41  61  85 113 146 185 229 279 334
#
# _framework density 18.867075
#
# number of rings (size 3 to 8) (size 9 to 14) (size 15 to 20)
#    0.000    1.333    0.000   11.000    0.000    5.333 
#    0.000    0.000    0.000    1.000    0.000    7.000 
#    0.000    0.000    0.000    0.000    0.000    0.000 
#
# Total GULP energy -134101.883068 kJ/mol
# GULP energy per Si atom -5587.578461 kJ/mol
# Density = 1.882413 g / cm^3
# Si number density = 18.867075 Si / 1000 Ang^3
#
#
#
# Elastic Constant Matrix: (Units=GPa)
#
#
# Indices 1 2 3 4 5 6 
#
# 1 77.4295 70.1286 45.7572 0.0000 0.0000 0.0000
# 2 70.1286 217.7509 108.3235 0.0000 0.0000 0.0000
# 3 45.7572 108.3235 188.4505 0.0000 0.0000 0.0000
# 4 0.0000 0.0000 0.0000 33.5246 0.0000 0.0000
# 5 0.0000 0.0000 0.0000 0.0000 22.7104 0.0000
# 6 0.0000 0.0000 0.0000 0.0000 0.0000 8.3215
#
#
#
# Elastic Compliance Matrix: (Units=1/GPa)
#
#
# Indices 1 2 3 4 5 6 
#
# 1 0.018530 -0.005223 -0.001497 0.000000 0.000000 0.000000
# 2 -0.005223 0.007904 -0.003275 0.000000 0.000000 0.000000
# 3 -0.001497 -0.003275 0.007552 0.000000 0.000000 0.000000
# 4 0.000000 0.000000 0.000000 0.029829 0.000000 0.000000
# 5 0.000000 0.000000 0.000000 0.000000 0.044033 0.000000
# 6 0.000000 0.000000 0.000000 0.000000 0.000000 0.120170
#
#
# Mechanical properties :
#
#
# Convention : Reuss Voigt Hill
#
# Bulk Modulus (GPa) = 71.44753 103.56107 87.50430
# Shear Modulus (GPa) = 19.78840 30.20609 24.99724
#
# Velocity S-wave (km/s) = 3.24208 4.00558 3.64388
# Velocity P-wave (km/s) = 7.20874 8.74082 8.01149
#
# Compressibility (1/GPa) = 0.01399628
#
# Stress axis : x y z
#
# Youngs Moduli (GPa) = 53.96576 126.52251 132.40863
#
# Poissons Ratio (x) = 0.66085 0.19821
# Poissons Ratio (y) = 0.28187 0.43363
# Poissons Ratio (z) = 0.08078 0.41435
#
# Static dielectric constant tensor:
#      x y z
#    x 1.646590 0.000000 0.000000 
#    y 0.000000 1.698420 0.000000 
#    z 0.000000 0.000000 1.627800 
# 
# From -- ./inp_files/11483.got.cif
#   From: 2010.05.17/outbox.cif.g08.bks.cpg/sg21_6_cif.got.tgz:11483.got - 2010.06.03 23:14:55.
