data_PCOD9322407
_publ_section_title
;
Structure prediction by ZEFSAII (Michael W. Deem and Ramdas Pophale) SiO2 
 PCOD9322407
Probable space group: C 2 2 2
;
_chemical_formula_sum "Si O2"
_cell_formula_units_Z 36
_cell_length_a 21.258743
_cell_length_b 11.658933
_cell_length_c 6.906441
_cell_angle_alpha 90.000000
_cell_angle_beta 90.000000
_cell_angle_gamma 90.000000
_cell_volume 1711.790825
_symmetry_space_group_name_H-M "C 2 2 2"
_symmetry_group_IT_number 21
_symmetry_cell_setting 'orthorhombic'
loop_
_space_group_symop_operation_xyz
x,y,z
-x,-y,z
x,-y,-z
-x,y,-z
1/2+x,1/2+y,z
1/2-x,1/2-y,z
1/2+x,1/2-y,-z
1/2-x,1/2+y,-z
loop_
_atom_site_type_symbol
_atom_site_label
_atom_site_fract_x
_atom_site_fract_y
_atom_site_fract_z
Si Si1 0.429016 0.246074 0.928605
Si Si2 0.887484 0.500000 0.000000
Si Si3 0.297110 0.092579 0.332746
Si Si4 0.571447 0.473279 0.232989
Si Si5 0.660244 0.672285 0.273562
O O1 0.425334 0.108767 0.913674
O O2 0.375800 0.277298 0.086697
O O3 0.500000 0.273395 0.000000
O O4 0.416970 0.336522 0.755312
O O5 0.843504 0.541650 0.173997
O O6 0.326461 0.214562 0.402501
O O7 0.229556 0.121387 0.238344
O O8 0.288220 0.000000 0.500000
O O9 0.500000 0.500000 0.285821
O O10 0.616636 0.565965 0.332015
O O11 0.577785 0.500000 0.000000
#
# Coordination Sequence:
#
# PCOD9322407 Si02
#       5
#     8   4   8   8   8
#     4  10  17  33  60  94 126 158 205 266 311 374
#     4  10  23  36  60  94 119 168 216 236 318 398
#     4  10  22  42  59  83 128 164 203 266 308 367
#     4   9  14  28  56  88 118 152 194 255 312 353
#     4   9  19  36  58  85 121 158 205 256 306 372
#
# _framework density 21.030605000000001
#
# number of rings (size 3 to 8) (size 9 to 14) (size 15 to 20)
#    0.000    2.444    4.444    0.333    4.667    0.000 
#    8.000    0.000    0.000   14.000    0.000    0.000 
#    0.000    0.000    0.000    0.000    0.000    0.000 
#
# Total GULP energy -100224.196619 kJ/mol
# GULP energy per Si atom -5568.010923 kJ/mol
# Density = 2.098274 g / cm^3
# Si number density = 21.030605 Si / 1000 Ang^3
#
#
#
# Elastic Constant Matrix: (Units=GPa)
#
#
# Indices 1 2 3 4 5 6 
#
# 1 117.1317 72.3918 15.2926 0.0000 0.0000 0.0000
# 2 72.3918 206.2054 23.5538 0.0000 0.0000 0.0000
# 3 15.2926 23.5538 39.6496 0.0000 0.0000 0.0000
# 4 0.0000 0.0000 0.0000 24.8741 0.0000 0.0000
# 5 0.0000 0.0000 0.0000 0.0000 7087.5030 0.0000
# 6 0.0000 0.0000 0.0000 0.0000 0.0000 50.5843
#
#
#
# Elastic Compliance Matrix: (Units=1/GPa)
#
#
# Indices 1 2 3 4 5 6 
#
# 1 0.011064 -0.003644 -0.002103 0.000000 0.000000 0.000000
# 2 -0.003644 0.006403 -0.002398 0.000000 0.000000 0.000000
# 3 -0.002103 -0.002398 0.027456 0.000000 0.000000 0.000000
# 4 0.000000 0.000000 0.000000 0.040202 0.000000 0.000000
# 5 0.000000 0.000000 0.000000 0.000000 0.000141 0.000000
# 6 0.000000 0.000000 0.000000 0.000000 0.000000 0.019769
#
#
# Mechanical properties :
#
#
# Convention : Reuss Voigt Hill
#
# Bulk Modulus (GPa) = 34.92369 65.05145 49.98757
# Shear Modulus (GPa) = 38.20589 1449.37551 743.79070
#
# Velocity S-wave (km/s) = 4.26688 26.28061 18.82653
# Velocity P-wave (km/s) = 6.39665 30.85276 22.28015
#
# Compressibility (1/GPa) = 0.02863386
#
# Stress axis : x y z
#
# Youngs Moduli (GPa) = 90.38261 156.18268 36.42131
#
# Poissons Ratio (x) = 0.56914 0.07658
# Poissons Ratio (y) = 0.32936 0.08734
# Poissons Ratio (z) = 0.19004 0.37454
#
# Static dielectric constant tensor:
#      x y z
#    x 1.718770 0.000000 0.000000 
#    y 0.000000 1.830570 0.000000 
#    z 0.000000 0.000000 1.774330 
# 
# From -- ./inp_files/17346.got.cif
#   From: 2010.05.17/outbox.cif.g08.bks.cpg/sg21_9_cif.got.tgz:17346.got - 2010.06.03 23:14:55.
