data_PCOD9322255
_publ_section_title
;
Structure prediction by ZEFSAII (Michael W. Deem and Ramdas Pophale) SiO2 
 PCOD9322255
Probable space group: C 2 2 21
;
_chemical_formula_sum "Si O2"
_cell_formula_units_Z 18
_cell_length_a 9.000000
_cell_length_b 21.000000
_cell_length_c 9.000000
_cell_angle_alpha 90.000000
_cell_angle_beta 90.000000
_cell_angle_gamma 90.000000
_cell_volume 1701.000000
_symmetry_space_group_name_H-M "C 2 2 21"
_symmetry_group_IT_number 20
_symmetry_cell_setting 'orthorhombic'
loop_
_space_group_symop_operation_xyz
x,y,z
-x,-y,1/2+z
x,-y,-z
-x,y,1/2-z
1/2+x,1/2+y,z
1/2-x,1/2-y,1/2+z
1/2+x,1/2-y,-z
1/2-x,1/2+y,1/2-z
loop_
_atom_site_type_symbol
_atom_site_label
_atom_site_fract_x
_atom_site_fract_y
_atom_site_fract_z
Si Si1 0.775996 0.509037 0.335375
Si Si2 0.634649 0.193090 0.496992
Si Si3 0.500000 0.888974 0.750000
Si Si4 0.500000 0.103502 0.750000
Si Si5 0.978763 0.828171 0.434319
Si Si6 0.000000 0.912683 0.750000
O O1 0.713660 0.500000 0.500000
O O2 0.644803 0.541132 0.240367
O O3 0.904195 0.562706 0.349338
O O4 0.859282 0.444873 0.277580
O O5 0.609969 0.155115 0.343362
O O6 0.538853 0.151443 0.615053
O O7 0.804994 0.190211 0.549639
O O8 0.576635 0.264845 0.468219
O O9 0.000000 0.846109 0.250000
O O10 0.007454 0.873465 0.587356
#
# Coordination Sequence:
#
# PCOD9322255 Si02
#       6
#     8   8   4   4   8   4
#     4  11  25  46  74 106 150 204 255 319 389 461
#     4  12  27  49  78 113 157 200 264 325 400 472
#     4  11  22  48  71 107 148 196 255 322 388 473
#     4  11  27  46  80 108 149 208 259 318 398 467
#     4  12  31  49  81 117 161 206 261 329 404 475
#     4  12  29  52  75 113 161 200 264 328 392 470
#
# _framework density 10.582011
#
# number of rings (size 3 to 8) (size 9 to 14) (size 15 to 20)
#    0.000    0.444    5.556    0.667   12.444    1.778 
#    0.000    0.000    0.000    0.000    0.000    0.000 
#    0.000    0.000    0.000    0.000    0.000    0.000 
#
# Total GULP energy -100394.564943 kJ/mol
# GULP energy per Si atom -5577.475830 kJ/mol
# Density = 1.055793 g / cm^3
# Si number density = 10.582011 Si / 1000 Ang^3
#
#
#
# Elastic Constant Matrix: (Units=GPa)
#
#
# Indices 1 2 3 4 5 6 
#
# 1 98.5441 11.8453 7.6789 0.0000 0.0000 0.0000
# 2 11.8453 69.5812 31.3081 0.0000 0.0000 0.0000
# 3 7.6789 31.3081 128.4792 0.0000 0.0000 0.0000
# 4 0.0000 0.0000 0.0000 40.1170 0.0000 0.0000
# 5 0.0000 0.0000 0.0000 0.0000 40.6969 0.0000
# 6 0.0000 0.0000 0.0000 0.0000 0.0000 40.3266
#
#
#
# Elastic Compliance Matrix: (Units=1/GPa)
#
#
# Indices 1 2 3 4 5 6 
#
# 1 0.010365 -0.001669 -0.000213 0.000000 0.000000 0.000000
# 2 -0.001669 0.016410 -0.003899 0.000000 0.000000 0.000000
# 3 -0.000213 -0.003899 0.008746 0.000000 0.000000 0.000000
# 4 0.000000 0.000000 0.000000 0.024927 0.000000 0.000000
# 5 0.000000 0.000000 0.000000 0.000000 0.024572 0.000000
# 6 0.000000 0.000000 0.000000 0.000000 0.000000 0.024798
#
#
# Mechanical properties :
#
#
# Convention : Reuss Voigt Hill
#
# Bulk Modulus (GPa) = 41.73637 44.25213 42.99425
# Shear Modulus (GPa) = 38.65006 40.61291 39.63148
#
# Velocity S-wave (km/s) = 4.27806 4.38535 4.33204
# Velocity P-wave (km/s) = 6.64572 6.82614 6.73654
#
# Compressibility (1/GPa) = 0.02395992
#
# Stress axis : x y z
#
# Youngs Moduli (GPa) = 96.47930 60.93776 114.33492
#
# Poissons Ratio (x) = 0.10169 0.02434
# Poissons Ratio (y) = 0.16100 0.44581
# Poissons Ratio (z) = 0.02054 0.23760
#
# Static dielectric constant tensor:
#      x y z
#    x 1.767480 0.000000 0.000000 
#    y 0.000000 1.763350 0.000000 
#    z 0.000000 0.000000 1.839230 
# 
# From -- ./inp_files/5963.got.cif
#   From: 2010.05.17/outbox.ucp.g08.bks.cvg/sg20_3_cif.got.tgz:5963.got - 2010.06.11 15:13:06.
