data_PCOD9322076
_publ_section_title
;
Structure prediction by ZEFSAII (Michael W. Deem and Ramdas Pophale) SiO2 
 PCOD9322076
Probable space group: C 2 2 21
;
_chemical_formula_sum "Si O2"
_cell_formula_units_Z 40
_cell_length_a 7.784913
_cell_length_b 24.278877
_cell_length_c 9.419724
_cell_angle_alpha 90.000000
_cell_angle_beta 90.000000
_cell_angle_gamma 90.000000
_cell_volume 1780.412097
_symmetry_space_group_name_H-M "C 2 2 21"
_symmetry_group_IT_number 20
_symmetry_cell_setting 'orthorhombic'
loop_
_space_group_symop_operation_xyz
x,y,z
-x,-y,1/2+z
x,-y,-z
-x,y,1/2-z
1/2+x,1/2+y,z
1/2-x,1/2-y,1/2+z
1/2+x,1/2-y,-z
1/2-x,1/2+y,1/2-z
loop_
_atom_site_type_symbol
_atom_site_label
_atom_site_fract_x
_atom_site_fract_y
_atom_site_fract_z
Si Si1 0.490764 0.691825 0.406815
Si Si2 0.684212 0.881494 0.516039
Si Si3 0.500000 0.934116 0.750000
Si Si4 0.702717 0.412908 0.266263
Si Si5 0.823458 0.500000 0.500000
Si Si6 0.650968 0.814066 0.069276
O O1 0.500000 0.668004 0.250000
O O2 0.353724 0.655950 0.493210
O O3 0.414010 0.753302 0.395031
O O4 0.680282 0.691824 0.472172
O O5 0.659191 0.902870 0.676362
O O6 0.707813 0.925308 0.386662
O O7 0.511024 0.846006 0.496329
O O8 0.430457 0.967078 0.616170
O O9 0.500000 0.409170 0.250000
O O10 0.731271 0.454821 0.398019
O O11 0.785893 0.353851 0.305024
#
# Coordination Sequence:
#
# PCOD9322076 Si02
#       6
#     8   8   4   8   4   8
#     4  12  26  43  75 112 155 201 251 302 374 458
#     4  12  25  48  77 107 154 199 247 312 373 452
#     4  12  26  48  78 108 150 194 252 316 386 444
#     4  12  27  50  77 108 153 202 253 319 381 443
#     4  12  28  48  76 112 144 194 260 318 384 452
#     4  12  25  48  71 112 153 200 248 303 374 447
#
# _framework density 22.466707
#
# number of rings (size 3 to 8) (size 9 to 14) (size 15 to 20)
#    0.000    0.000    6.000    4.200    0.000    1.600 
#    1.800    0.000    0.000    0.000    0.000    0.000 
#    0.000    0.000    0.000    0.000    0.000    0.000 
#
# Total GULP energy -111758.543239 kJ/mol
# GULP energy per Si atom -5587.927162 kJ/mol
# Density = 2.241557 g / cm^3
# Si number density = 22.466707 Si / 1000 Ang^3
#
#
#
# Elastic Constant Matrix: (Units=GPa)
#
#
# Indices 1 2 3 4 5 6 
#
# 1 170.6265 41.8915 67.6982 0.0000 0.0000 0.0000
# 2 41.8915 75.2009 49.2450 0.0000 0.0000 0.0000
# 3 67.6982 49.2450 155.8649 0.0000 0.0000 0.0000
# 4 0.0000 0.0000 0.0000 15.7255 0.0000 0.0000
# 5 0.0000 0.0000 0.0000 0.0000 48.3156 0.0000
# 6 0.0000 0.0000 0.0000 0.0000 0.0000 25.2030
#
#
#
# Elastic Compliance Matrix: (Units=1/GPa)
#
#
# Indices 1 2 3 4 5 6 
#
# 1 0.007453 -0.002562 -0.002428 0.000000 0.000000 0.000000
# 2 -0.002562 0.017647 -0.004463 0.000000 0.000000 0.000000
# 3 -0.002428 -0.004463 0.008880 0.000000 0.000000 0.000000
# 4 0.000000 0.000000 0.000000 0.063591 0.000000 0.000000
# 5 0.000000 0.000000 0.000000 0.000000 0.020697 0.000000
# 6 0.000000 0.000000 0.000000 0.000000 0.000000 0.039678
#
#
# Mechanical properties :
#
#
# Convention : Reuss Voigt Hill
#
# Bulk Modulus (GPa) = 66.33246 79.92908 73.13077
# Shear Modulus (GPa) = 27.49112 34.03934 30.76523
#
# Velocity S-wave (km/s) = 3.50185 3.89665 3.70451
# Velocity P-wave (km/s) = 6.77787 7.47657 7.13578
#
# Compressibility (1/GPa) = 0.01507558
#
# Stress axis : x y z
#
# Youngs Moduli (GPa) = 134.17471 56.66561 112.60935
#
# Poissons Ratio (x) = 0.14518 0.27338
# Poissons Ratio (y) = 0.34376 0.50256
# Poissons Ratio (z) = 0.32573 0.25289
#
# Static dielectric constant tensor:
#      x y z
#    x 1.848560 0.000000 0.000000 
#    y 0.000000 1.887870 0.000000 
#    z 0.000000 0.000000 1.862840 
# 
# From -- ./inp_files/6183.got.cif
#   From: 2010.05.17/outbox.cif.g08.bks.cpg/sg20_4_cif.got.tgz:6183.got - 2010.06.03 22:52:26.
