data_PCOD9322293
_publ_section_title
;
Structure prediction by ZEFSAII (Michael W. Deem and Ramdas Pophale) SiO2 
 PCOD9322293
Probable space group: C 2 2 2
;
_chemical_formula_sum "Si O2"
_cell_formula_units_Z 48
_cell_length_a 26.583768
_cell_length_b 11.736206
_cell_length_c 5.619124
_cell_angle_alpha 90.000000
_cell_angle_beta 90.000000
_cell_angle_gamma 90.000000
_cell_volume 1753.124980
_symmetry_space_group_name_H-M "C 2 2 2"
_symmetry_group_IT_number 21
_symmetry_cell_setting 'orthorhombic'
loop_
_space_group_symop_operation_xyz
x,y,z
-x,-y,z
x,-y,-z
-x,y,-z
1/2+x,1/2+y,z
1/2-x,1/2-y,z
1/2+x,1/2-y,-z
1/2-x,1/2+y,-z
loop_
_atom_site_type_symbol
_atom_site_label
_atom_site_fract_x
_atom_site_fract_y
_atom_site_fract_z
Si Si1 0.068267 0.172217 0.250000
Si Si2 0.551912 0.313468 0.250000
Si Si3 0.168920 0.699602 0.750000
Si Si4 0.804926 0.961672 0.250000
Si Si5 0.214775 0.362738 0.750000
Si Si6 0.441120 0.955717 0.250000
O O1 0.072352 0.125872 0.515998
O O2 0.109709 0.271449 0.250000
O O3 0.008560 0.196007 0.250000
O O4 0.072352 0.125872 0.984002
O O5 0.564934 0.180026 0.250000
O O6 0.195905 0.825189 0.750000
O O7 0.184091 0.643610 0.497882
O O8 0.184091 0.643610 0.002118
O O9 0.828620 0.000000 0.500000
O O10 0.752303 0.030113 0.250000
O O11 0.828620 0.000000 0.000000
O O12 0.250000 0.250000 0.750000
O O13 0.500000 0.000000 0.250000
O O14 0.420073 0.000000 0.500000
O O15 0.420073 0.000000 0.000000
#
# Coordination Sequence:
#
# PCOD9322293 Si02
#       6
#     8   8   8   8   8   8
#     4  10  20  35  58  86 126 157 219 265 308 379
#     4  10  19  35  57  85 115 176 209 255 327 380
#     4  12  24  41  66 104 130 173 227 276 319 395
#     4  12  23  40  68  97 125 170 223 262 337 407
#     4  12  23  41  68  96 130 170 216 272 339 397
#     4  10  16  25  46  75  97 145 210 246 303 378
#
# _framework density 27.379681000000001
#
# number of rings (size 3 to 8) (size 9 to 14) (size 15 to 20)
#    0.000    1.000    3.333    7.500    0.000    0.000 
#    0.000    0.000    0.000   38.000    0.000   14.000 
#    0.000    0.000    0.000    0.000    0.000   66.667 
#
# Total GULP energy -134203.210253 kJ/mol
# GULP energy per Si atom -5591.800427 kJ/mol
# Density = 2.731736 g / cm^3
# Si number density = 27.379681 Si / 1000 Ang^3
#
#
#
# Elastic Constant Matrix: (Units=GPa)
#
#
# Indices 1 2 3 4 5 6 
#
# 1 148.2775 40.5581 82.6100 0.0000 0.0000 0.0000
# 2 40.5581 164.5174 63.7534 0.0000 0.0000 0.0000
# 3 82.6100 63.7534 380.8497 0.0000 0.0000 0.0000
# 4 0.0000 0.0000 0.0000 -122.1733 0.0000 0.0000
# 5 0.0000 0.0000 0.0000 0.0000 -7.7703 0.0000
# 6 0.0000 0.0000 0.0000 0.0000 0.0000 28.8454
#
#
#
# Elastic Compliance Matrix: (Units=1/GPa)
#
#
# Indices 1 2 3 4 5 6 
#
# 1 0.007955 -0.001382 -0.001494 0.000000 0.000000 0.000000
# 2 -0.001382 0.006740 -0.000829 0.000000 0.000000 0.000000
# 3 -0.001494 -0.000829 0.003088 0.000000 0.000000 0.000000
# 4 0.000000 0.000000 0.000000 -0.008185 0.000000 0.000000
# 5 0.000000 0.000000 0.000000 0.000000 -0.128696 0.000000
# 6 0.000000 0.000000 0.000000 0.000000 0.000000 0.034668
#
#
# Mechanical properties :
#
#
# Convention : Reuss Voigt Hill
#
# Bulk Modulus (GPa) = 96.39540 118.60972 107.50256
# Shear Modulus (GPa) = -67.96881 13.56192 -27.20344
#
# Velocity S-wave (km/s) = -4.98783 2.22801 -3.15550
# Velocity P-wave (km/s) = 1.45330 7.07341 5.10613
#
# Compressibility (1/GPa) = 0.01037394
#
# Stress axis : x y z
#
# Youngs Moduli (GPa) = 125.71464 148.36457 323.78440
#
# Poissons Ratio (x) = 0.20504 0.48375
# Poissons Ratio (y) = 0.17374 0.26826
# Poissons Ratio (z) = 0.18783 0.12292
#
# Static dielectric constant tensor:
#      x y z
#    x 2.116640 0.000000 0.000000 
#    y 0.000000 2.051850 0.000000 
#    z 0.000000 0.000000 2.164480 
# 
# From -- ./inp_files/5944.got.cif
#   From: 2010.05.17/outbox.cif.g08.bks.cpg/sg21_3_cif.got.tgz:5944.got - 2010.06.03 23:14:55.
