data_PCOD9322408
_publ_section_title
;
Structure prediction by ZEFSAII (Michael W. Deem and Ramdas Pophale) SiO2 
 PCOD9322408
Probable space group: C 2 2 2
;
_chemical_formula_sum "Si O2"
_cell_formula_units_Z 38
_cell_length_a 28.308248
_cell_length_b 10.376132
_cell_length_c 5.971999
_cell_angle_alpha 90.000000
_cell_angle_beta 90.000000
_cell_angle_gamma 90.000000
_cell_volume 1754.155971
_symmetry_space_group_name_H-M "C 2 2 2"
_symmetry_group_IT_number 21
_symmetry_cell_setting 'orthorhombic'
loop_
_space_group_symop_operation_xyz
x,y,z
-x,-y,z
x,-y,-z
-x,y,-z
1/2+x,1/2+y,z
1/2-x,1/2-y,z
1/2+x,1/2-y,-z
1/2-x,1/2+y,-z
loop_
_atom_site_type_symbol
_atom_site_label
_atom_site_fract_x
_atom_site_fract_y
_atom_site_fract_z
Si Si1 0.711622 0.143553 0.838013
Si Si2 0.348821 0.710046 0.482650
Si Si3 0.225698 0.000000 0.500000
Si Si4 0.614097 0.856888 0.925896
Si Si5 0.422688 0.614262 0.817804
Si Si6 0.000000 0.000000 0.500000
O O1 0.750000 0.250000 0.904819
O O2 0.679123 0.188388 0.631407
O O3 0.743087 0.035663 0.717390
O O4 0.670750 0.135217 0.022465
O O5 0.307228 0.615227 0.405961
O O6 0.382872 0.790291 0.318705
O O7 0.379419 0.620092 0.646275
O O8 0.583346 0.752466 0.062937
O O9 0.597400 0.000000 0.000000
O O10 0.468191 0.586359 0.665836
O O11 0.418435 0.500000 0.000000
#
# Coordination Sequence:
#
# PCOD9322408 Si02
#       6
#     8   8   4   8   8   2
#     4   9  20  32  49  83 125 176 231 279 323 371
#     4  10  21  38  60  89 131 176 222 279 331 383
#     4  10  17  34  56  81 124 175 234 288 327 366
#     4  11  23  39  62  93 133 179 221 265 329 395
#     4  11  24  44  72 101 126 163 212 268 338 407
#     4  12  24  44  76 104 128 152 198 266 326 414
#
# _framework density 21.662839000000002
#
# number of rings (size 3 to 8) (size 9 to 14) (size 15 to 20)
#    0.000    1.684    0.000    4.737    0.000    6.737 
#    0.000    6.316    0.000   17.684    0.000    0.000 
#    0.000    0.000    0.000    0.000    0.000    0.000 
#
# Total GULP energy -105820.058663 kJ/mol
# GULP energy per Si atom -5569.476772 kJ/mol
# Density = 2.161353 g / cm^3
# Si number density = 21.662839 Si / 1000 Ang^3
#
#
#
# Elastic Constant Matrix: (Units=GPa)
#
#
# Indices 1 2 3 4 5 6 
#
# 1 91.6338 38.5453 36.6913 0.0000 0.0000 0.0000
# 2 38.5453 125.7669 59.4212 0.0000 0.0000 0.0000
# 3 36.6913 59.4212 83.1214 0.0000 0.0000 0.0000
# 4 0.0000 0.0000 0.0000 19.0691 0.0000 0.0000
# 5 0.0000 0.0000 0.0000 0.0000 41.8444 0.0000
# 6 0.0000 0.0000 0.0000 0.0000 0.0000 28.9980
#
#
#
# Elastic Compliance Matrix: (Units=1/GPa)
#
#
# Indices 1 2 3 4 5 6 
#
# 1 0.013584 -0.002009 -0.004560 0.000000 0.000000 0.000000
# 2 -0.002009 0.012304 -0.007909 0.000000 0.000000 0.000000
# 3 -0.004560 -0.007909 0.019697 0.000000 0.000000 0.000000
# 4 0.000000 0.000000 0.000000 0.052441 0.000000 0.000000
# 5 0.000000 0.000000 0.000000 0.000000 0.023898 0.000000
# 6 0.000000 0.000000 0.000000 0.000000 0.000000 0.034485
#
#
# Mechanical properties :
#
#
# Convention : Reuss Voigt Hill
#
# Bulk Modulus (GPa) = 60.13451 63.31533 61.72492
# Shear Modulus (GPa) = 26.19070 29.03991 27.61531
#
# Velocity S-wave (km/s) = 3.48086 3.66531 3.57428
# Velocity P-wave (km/s) = 6.63135 6.87050 6.75198
#
# Compressibility (1/GPa) = 0.01662939
#
# Stress axis : x y z
#
# Youngs Moduli (GPa) = 73.61644 81.27763 50.76816
#
# Poissons Ratio (x) = 0.16326 0.23152
# Poissons Ratio (y) = 0.14787 0.40152
# Poissons Ratio (z) = 0.33571 0.64281
#
# Static dielectric constant tensor:
#      x y z
#    x 1.840100 0.000000 0.000000 
#    y 0.000000 1.849480 0.000000 
#    z 0.000000 0.000000 1.954720 
# 
# From -- ./inp_files/7908.got.cif
#   From: 2010.05.17/outbox.cif.g08.bks.cpg/sg21_4_cif.got.tgz:7908.got - 2010.06.03 23:14:55.
