data_PCOD9322113
_publ_section_title
;
Structure prediction by ZEFSAII (Michael W. Deem and Ramdas Pophale) SiO2 
 PCOD9322113
Probable space group: C 2 2 21
;
_chemical_formula_sum "Si O2"
_cell_formula_units_Z 28
_cell_length_a 5.109369
_cell_length_b 14.879943
_cell_length_c 15.017243
_cell_angle_alpha 90.000000
_cell_angle_beta 90.000000
_cell_angle_gamma 90.000000
_cell_volume 1141.717728
_symmetry_space_group_name_H-M "C 2 2 21"
_symmetry_group_IT_number 20
_symmetry_cell_setting 'orthorhombic'
loop_
_space_group_symop_operation_xyz
x,y,z
-x,-y,1/2+z
x,-y,-z
-x,y,1/2-z
1/2+x,1/2+y,z
1/2-x,1/2-y,1/2+z
1/2+x,1/2-y,-z
1/2-x,1/2+y,1/2-z
loop_
_atom_site_type_symbol
_atom_site_label
_atom_site_fract_x
_atom_site_fract_y
_atom_site_fract_z
Si Si1 0.000000 0.489385 0.250000
Si Si2 0.722220 0.363358 0.862521
Si Si3 0.270805 0.895181 0.522182
Si Si4 0.304697 0.338153 0.168339
O O1 0.203062 0.556535 0.295881
O O2 0.094406 0.417891 0.176921
O O3 0.730045 0.265344 0.818374
O O4 0.435184 0.379434 0.899582
O O5 0.944157 0.366211 0.941022
O O6 0.142020 0.845243 0.436981
O O7 0.280617 0.000000 0.500000
O O8 0.500000 0.359237 0.250000
#
# Coordination Sequence:
#
# PCOD9322113 Si02
#       4
#     4   8   8   8
#     4  12  28  50  80 112 160 206 262 334 386 468
#     4  12  28  51  78 114 160 204 262 322 395 469
#     4  12  26  50  79 113 159 207 256 325 394 466
#     4  12  28  48  79 114 156 207 263 326 392 467
#
# _framework density 24.524453000000001
#
# number of rings (size 3 to 8) (size 9 to 14) (size 15 to 20)
#    0.000    0.000    4.286    4.286    8.000    0.000 
#    0.000    0.000    0.000    0.000    0.000    0.000 
#    0.000    0.000    0.000    0.000    0.000    0.000 
#
# Total GULP energy -78312.296858 kJ/mol
# GULP energy per Si atom -5593.735490 kJ/mol
# Density = 2.446863 g / cm^3
# Si number density = 24.524453 Si / 1000 Ang^3
#
#
#
# Elastic Constant Matrix: (Units=GPa)
#
#
# Indices 1 2 3 4 5 6 
#
# 1 64.8432 21.2952 17.9870 0.0000 0.0000 0.0000
# 2 21.2952 213.7487 23.6879 0.0000 0.0000 0.0000
# 3 17.9870 23.6879 76.7123 0.0000 0.0000 0.0000
# 4 0.0000 0.0000 0.0000 52.5496 0.0000 0.0000
# 5 0.0000 0.0000 0.0000 0.0000 53.1537 0.0000
# 6 0.0000 0.0000 0.0000 0.0000 0.0000 -24.5582
#
#
#
# Elastic Compliance Matrix: (Units=1/GPa)
#
#
# Indices 1 2 3 4 5 6 
#
# 1 0.016828 -0.001283 -0.003549 0.000000 0.000000 0.000000
# 2 -0.001283 0.004942 -0.001225 0.000000 0.000000 0.000000
# 3 -0.003549 -0.001225 0.014246 0.000000 0.000000 0.000000
# 4 0.000000 0.000000 0.000000 0.019030 0.000000 0.000000
# 5 0.000000 0.000000 0.000000 0.000000 0.018813 0.000000
# 6 0.000000 0.000000 0.000000 0.000000 0.000000 -0.040720
#
#
# Mechanical properties :
#
#
# Convention : Reuss Voigt Hill
#
# Bulk Modulus (GPa) = 41.84002 53.47160 47.65581
# Shear Modulus (GPa) = 93.94624 35.71797 64.83210
#
# Velocity S-wave (km/s) = 6.19599 3.82045 5.14714
# Velocity P-wave (km/s) = 8.26345 6.42743 7.40258
#
# Compressibility (1/GPa) = 0.02390056
#
# Stress axis : x y z
#
# Youngs Moduli (GPa) = 59.42545 202.34712 70.19373
#
# Poissons Ratio (x) = 0.25964 0.24915
# Poissons Ratio (y) = 0.07625 0.08600
# Poissons Ratio (z) = 0.21093 0.24791
#
# Static dielectric constant tensor:
#      x y z
#    x 1.972920 0.000000 0.000000 
#    y 0.000000 1.858800 0.000000 
#    z 0.000000 0.000000 2.287300 
# 
# From -- ./inp_files/20394.got.cif
#   From: 2010.05.17/outbox.cif.g08.bks.cpg/sg20_11_cif.got.tgz:20394.got - 2010.06.03 22:52:26.
