data_PCOD9322612
_publ_section_title
;
Structure prediction by ZEFSAII (Michael W. Deem and Ramdas Pophale) SiO2 
 PCOD9322612
Probable space group: C 2 2 2
;
_chemical_formula_sum "Si O2"
_cell_formula_units_Z 48
_cell_length_a 11.480164
_cell_length_b 16.223131
_cell_length_c 11.152687
_cell_angle_alpha 90.000000
_cell_angle_beta 90.000000
_cell_angle_gamma 90.000000
_cell_volume 2077.123318
_symmetry_space_group_name_H-M "C 2 2 2"
_symmetry_group_IT_number 21
_symmetry_cell_setting 'orthorhombic'
loop_
_space_group_symop_operation_xyz
x,y,z
-x,-y,z
x,-y,-z
-x,y,-z
1/2+x,1/2+y,z
1/2-x,1/2-y,z
1/2+x,1/2-y,-z
1/2-x,1/2+y,-z
loop_
_atom_site_type_symbol
_atom_site_label
_atom_site_fract_x
_atom_site_fract_y
_atom_site_fract_z
Si Si1 0.985496 0.908829 0.314382
Si Si2 0.302645 0.656008 0.170355
Si Si3 0.875467 0.684842 0.203231
Si Si4 0.126422 0.243968 0.451303
Si Si5 0.060125 0.419179 0.867027
Si Si6 0.847902 0.134519 0.904126
O O1 0.108115 0.865019 0.277682
O O2 0.909904 0.846107 0.396343
O O3 0.918002 0.921154 0.187548
O O4 0.000000 0.000000 0.365595
O O5 0.250000 0.750000 0.169337
O O6 0.196121 0.591203 0.153205
O O7 0.369265 0.638554 0.044510
O O8 0.842314 0.696213 0.339937
O O9 0.870951 0.772808 0.140791
O O10 0.789135 0.625503 0.129692
O O11 0.007067 0.658040 0.200469
O O12 0.250000 0.250000 0.523328
O O13 0.000000 0.272421 0.500000
O O14 0.000000 0.500000 0.814066
O O15 0.000000 0.412924 0.000000
#
# Coordination Sequence:
#
# PCOD9322612 Si02
#       6
#     8   8   8   8   8   8
#     4  11  26  41  63  98 137 176 212 279 344 403
#     4  12  22  36  60  93 133 179 232 266 299 390
#     4  10  18  39  62  85 120 173 211 257 336 381
#     4  11  24  45  76  97 122 168 229 292 349 414
#     4  11  23  33  54  89 131 178 214 260 315 383
#     4  10  18  36  61  86 125 177 215 254 310 388
#
# _framework density 23.108884
#
# number of rings (size 3 to 8) (size 9 to 14) (size 15 to 20)
#    0.000    1.167    6.667    2.500    2.333    3.667 
#    0.000    0.000    0.000    0.500    0.000    0.000 
#    0.000    0.000    0.000    0.000    0.000    0.000 
#
# Total GULP energy -133756.234066 kJ/mol
# GULP energy per Si atom -5573.176419 kJ/mol
# Density = 2.305629 g / cm^3
# Si number density = 23.108884 Si / 1000 Ang^3
#
#
#
# Elastic Constant Matrix: (Units=GPa)
#
#
# Indices 1 2 3 4 5 6 
#
# 1 165.8882 44.1608 31.4300 0.0000 0.0000 0.0000
# 2 44.1608 68.4453 16.5630 0.0000 0.0000 0.0000
# 3 31.4300 16.5630 45.5275 0.0000 0.0000 0.0000
# 4 0.0000 0.0000 0.0000 5.0418 0.0000 0.0000
# 5 0.0000 0.0000 0.0000 0.0000 31.1803 0.0000
# 6 0.0000 0.0000 0.0000 0.0000 0.0000 37.6077
#
#
#
# Elastic Compliance Matrix: (Units=1/GPa)
#
#
# Indices 1 2 3 4 5 6 
#
# 1 0.007872 -0.004127 -0.003933 0.000000 0.000000 0.000000
# 2 -0.004127 0.018185 -0.003766 0.000000 0.000000 0.000000
# 3 -0.003933 -0.003766 0.026050 0.000000 0.000000 0.000000
# 4 0.000000 0.000000 0.000000 0.198342 0.000000 0.000000
# 5 0.000000 0.000000 0.000000 0.000000 0.032071 0.000000
# 6 0.000000 0.000000 0.000000 0.000000 0.000000 0.026590
#
#
# Mechanical properties :
#
#
# Convention : Reuss Voigt Hill
#
# Bulk Modulus (GPa) = 35.14498 51.57428 43.35963
# Shear Modulus (GPa) = 14.60929 27.27979 20.94454
#
# Velocity S-wave (km/s) = 2.51707 3.43955 3.01382
# Velocity P-wave (km/s) = 4.86713 6.17579 5.56010
#
# Compressibility (1/GPa) = 0.02845356
#
# Stress axis : x y z
#
# Youngs Moduli (GPa) = 127.03199 54.99180 38.38765
#
# Poissons Ratio (x) = 0.22697 0.15098
# Poissons Ratio (y) = 0.52430 0.14458
# Poissons Ratio (z) = 0.49961 0.20711
#
# Static dielectric constant tensor:
#      x y z
#    x 1.974920 0.000000 0.000000 
#    y 0.000000 1.921330 0.000000 
#    z 0.000000 0.000000 1.917230 
# 
# From -- ./inp_files/24075.got.cif
#   From: 2010.05.17/outbox.cif.g08.bks.cpg/sg21_13_cif.got.tgz:24075.got - 2010.06.03 23:14:55.
