data_PCOD9322504
_publ_section_title
;
Structure prediction by ZEFSAII (Michael W. Deem and Ramdas Pophale) SiO2 
 PCOD9322504
Probable space group: C 2 2 2
;
_chemical_formula_sum "Si O2"
_cell_formula_units_Z 56
_cell_length_a 5.422108
_cell_length_b 14.722692
_cell_length_c 32.275738
_cell_angle_alpha 90.000000
_cell_angle_beta 90.000000
_cell_angle_gamma 90.000000
_cell_volume 2576.508455
_symmetry_space_group_name_H-M "C 2 2 2"
_symmetry_group_IT_number 21
_symmetry_cell_setting 'orthorhombic'
loop_
_space_group_symop_operation_xyz
x,y,z
-x,-y,z
x,-y,-z
-x,y,-z
1/2+x,1/2+y,z
1/2-x,1/2-y,z
1/2+x,1/2-y,-z
1/2-x,1/2+y,-z
loop_
_atom_site_type_symbol
_atom_site_label
_atom_site_fract_x
_atom_site_fract_y
_atom_site_fract_z
Si Si1 1.000000 0.891089 0.773603
Si Si2 1.000000 0.611246 0.547827
Si Si3 0.500000 0.149039 0.084077
Si Si4 0.500000 0.608605 0.406944
Si Si5 1.000000 0.144374 0.950620
Si Si6 0.500000 0.110822 0.179413
Si Si7 0.500000 0.308242 0.682854
O O1 0.251540 0.861493 0.796423
O O2 0.000000 0.861596 0.726048
O O3 0.748460 0.861493 0.796423
O O4 0.000000 0.000000 0.775209
O O5 0.751129 0.641164 0.571072
O O6 0.000000 0.500000 0.548056
O O7 0.000000 0.640089 0.500000
O O8 0.248871 0.641164 0.571072
O O9 0.750041 0.104496 0.067816
O O10 0.500000 0.250368 0.064580
O O11 0.500000 0.151112 0.133459
O O12 0.249959 0.104496 0.067816
O O13 0.500000 0.500000 0.411313
O O14 0.500000 0.632442 0.358698
O O15 0.000000 0.141042 0.000000
O O16 0.500000 0.000000 0.175886
O O17 0.750000 0.250000 0.681935
O O18 0.250000 0.250000 0.681935
#
# Coordination Sequence:
#
# PCOD9322504 Si02
#       7
#     8   8   8   8   8   8   8
#     4  10  22  43  63  82 111 155 193 231 286 358
#     4   9  17  31  56  91 120 146 196 256 292 326
#     4  10  18  32  51  80 103 138 179 222 272 319
#     4  10  20  36  61  86 115 160 200 236 290 358
#     4  10  19  33  53  76 109 149 184 223 270 321
#     4  10  21  38  60  82 110 144 184 231 282 337
#     4  12  25  42  59  88 119 152 192 247 297 332
#
# _framework density 21.734840999999999
#
# number of rings (size 3 to 8) (size 9 to 14) (size 15 to 20)
#    0.000    1.857    0.000    5.571    0.000    1.714 
#   15.429    5.714    0.000   13.286    0.000    0.000 
#    0.000    0.000    0.000    0.000    0.000    0.000 
#
# Total GULP energy -156605.737523 kJ/mol
# GULP energy per Si atom -5593.062054 kJ/mol
# Density = 2.168537 g / cm^3
# Si number density = 21.734841 Si / 1000 Ang^3
#
#
#
# Elastic Constant Matrix: (Units=GPa)
#
#
# Indices 1 2 3 4 5 6 
#
# 1 268.6733 26.4197 120.6240 0.0000 0.0000 0.0000
# 2 26.4197 57.8053 12.8451 0.0000 0.0000 0.0000
# 3 120.6240 12.8451 230.3881 0.0000 0.0000 0.0000
# 4 0.0000 0.0000 0.0000 29.9171 0.0000 0.0000
# 5 0.0000 0.0000 0.0000 0.0000 49.4917 0.0000
# 6 0.0000 0.0000 0.0000 0.0000 0.0000 -11.7348
#
#
#
# Elastic Compliance Matrix: (Units=1/GPa)
#
#
# Indices 1 2 3 4 5 6 
#
# 1 0.005032 -0.001736 -0.002538 0.000000 0.000000 0.000000
# 2 -0.001736 0.018115 -0.000101 0.000000 0.000000 0.000000
# 3 -0.002538 -0.000101 0.005675 0.000000 0.000000 0.000000
# 4 0.000000 0.000000 0.000000 0.033426 0.000000 0.000000
# 5 0.000000 0.000000 0.000000 0.000000 0.020205 0.000000
# 6 0.000000 0.000000 0.000000 0.000000 0.000000 -0.085217
#
#
# Mechanical properties :
#
#
# Convention : Reuss Voigt Hill
#
# Bulk Modulus (GPa) = 49.81952 97.40490 73.61221
# Shear Modulus (GPa) = 394.39538 39.99998 217.19768
#
# Velocity S-wave (km/s) = 13.48524 4.29460 10.00738
# Velocity P-wave (km/s) = 16.29233 8.33690 12.94110
#
# Compressibility (1/GPa) = 0.02007245
#
# Stress axis : x y z
#
# Youngs Moduli (GPa) = 198.72425 55.20186 176.21504
#
# Poissons Ratio (x) = 0.09583 0.44721
# Poissons Ratio (y) = 0.34498 0.01782
# Poissons Ratio (z) = 0.50433 0.00558
#
# Static dielectric constant tensor:
#      x y z
#    x 1.685120 0.000000 0.000000 
#    y 0.000000 1.770510 0.000000 
#    z 0.000000 0.000000 1.718440 
# 
# From -- ./inp_files/39495.got.cif
#   From: 2010.05.17/outbox.cif.g08.bks.cpg/sg21_20_cif.got.tgz:39495.got - 2010.06.03 23:14:55.
