data_PCOD9322731
_publ_section_title
;
Structure prediction by ZEFSAII (Michael W. Deem and Ramdas Pophale) SiO2 
 PCOD9322731
Probable space group: C 2 2 2
;
_chemical_formula_sum "Si O2"
_cell_formula_units_Z 56
_cell_length_a 5.312886
_cell_length_b 27.217266
_cell_length_c 19.827557
_cell_angle_alpha 90.000000
_cell_angle_beta 90.000000
_cell_angle_gamma 90.000000
_cell_volume 2867.108987
_symmetry_space_group_name_H-M "C 2 2 2"
_symmetry_group_IT_number 21
_symmetry_cell_setting 'orthorhombic'
loop_
_space_group_symop_operation_xyz
x,y,z
-x,-y,z
x,-y,-z
-x,y,-z
1/2+x,1/2+y,z
1/2-x,1/2-y,z
1/2+x,1/2-y,-z
1/2-x,1/2+y,-z
loop_
_atom_site_type_symbol
_atom_site_label
_atom_site_fract_x
_atom_site_fract_y
_atom_site_fract_z
Si Si1 0.992953 0.943100 0.765294
Si Si2 0.241246 0.693717 0.971110
Si Si3 0.499660 0.772283 0.421499
Si Si4 0.981148 0.280091 0.824458
Si Si5 0.015538 0.943450 0.399234
Si Si6 0.504429 0.113849 0.763482
Si Si7 0.983869 0.612842 0.399025
O O1 0.990202 0.943244 0.683020
O O2 0.735077 0.917457 0.787095
O O3 0.235587 0.911451 0.787027
O O4 0.000000 0.000000 0.786411
O O5 0.250000 0.750000 0.999983
O O6 0.162640 0.701861 0.893474
O O7 0.500000 0.672074 0.000000
O O8 0.000000 0.666412 0.000000
O O9 0.500000 0.755761 0.500000
O O10 0.250000 0.750000 0.388890
O O11 0.499960 0.830735 0.420127
O O12 0.750000 0.750000 0.389607
O O13 0.750000 0.250000 0.790515
O O14 0.032901 0.330088 0.785085
O O15 0.250000 0.250000 0.833790
O O16 0.273308 0.917882 0.420981
O O17 0.773994 0.912495 0.421538
O O18 0.000000 0.000000 0.420209
O O19 0.512962 0.112268 0.682344
#
# Coordination Sequence:
#
# PCOD9322731 Si02
#       7
#     8   8   8   8   8   8   8
#     4   9  17  31  49  69  96 129 166 206 241 281
#     4   9  16  28  45  62  83 120 163 194 221 261
#     4  10  21  36  53  71  92 125 171 216 248 278
#     4  11  21  32  46  69 105 139 160 192 241 289
#     4   9  17  30  50  74  97 124 158 196 245 302
#     4  10  20  31  47  74 102 131 164 196 244 304
#     4  10  19  32  51  72  97 129 163 202 246 295
#
# _framework density 19.531867999999999
#
# number of rings (size 3 to 8) (size 9 to 14) (size 15 to 20)
#    0.000    2.286    0.000    4.714    0.000    4.571 
#    0.000    0.000    0.000    2.571    0.000    0.000 
#    0.000    8.571    0.000    0.571    0.000    0.000 
#
# Total GULP energy -156029.655695 kJ/mol
# GULP energy per Si atom -5572.487703 kJ/mol
# Density = 1.948741 g / cm^3
# Si number density = 19.531868 Si / 1000 Ang^3
#
#
#
# Elastic Constant Matrix: (Units=GPa)
#
#
# Indices 1 2 3 4 5 6 
#
# 1 339.4021 190.7983 58.0944 0.0000 0.0000 0.0000
# 2 190.7983 225.2788 46.2011 0.0000 0.0000 0.0000
# 3 58.0944 46.2011 39.0963 0.0000 0.0000 0.0000
# 4 0.0000 0.0000 0.0000 -3.8202 0.0000 0.0000
# 5 0.0000 0.0000 0.0000 0.0000 17.0087 0.0000
# 6 0.0000 0.0000 0.0000 0.0000 0.0000 37.3360
#
#
#
# Elastic Compliance Matrix: (Units=1/GPa)
#
#
# Indices 1 2 3 4 5 6 
#
# 1 0.006036 -0.004320 -0.003865 0.000000 0.000000 0.000000
# 2 -0.004320 0.008950 -0.004158 0.000000 0.000000 0.000000
# 3 -0.003865 -0.004158 0.036234 0.000000 0.000000 0.000000
# 4 0.000000 0.000000 0.000000 -0.261769 0.000000 0.000000
# 5 0.000000 0.000000 0.000000 0.000000 0.058793 0.000000
# 6 0.000000 0.000000 0.000000 0.000000 0.000000 0.026784
#
#
# Mechanical properties :
#
#
# Convention : Reuss Voigt Hill
#
# Bulk Modulus (GPa) = 37.68491 132.66278 85.17385
# Shear Modulus (GPa) = -54.67988 30.68381 -11.99804
#
# Velocity S-wave (km/s) = -5.29679 3.96784 -2.48116
# Velocity P-wave (km/s) = 4.25112 9.43717 5.95769
#
# Compressibility (1/GPa) = 0.02653582
#
# Stress axis : x y z
#
# Youngs Moduli (GPa) = 165.66482 111.72831 27.59847
#
# Poissons Ratio (x) = 0.48264 0.10666
# Poissons Ratio (y) = 0.71564 0.11475
# Poissons Ratio (z) = 0.64024 0.46455
#
# Static dielectric constant tensor:
#      x y z
#    x 1.768840 0.000000 0.000000 
#    y 0.000000 1.636370 0.000000 
#    z 0.000000 0.000000 1.735540 
# 
# From -- ./inp_files/38347.got.cif
#   From: 2010.05.17/outbox.cif.g08.bks.cpg/sg21_20_cif.got.tgz:38347.got - 2010.06.03 23:14:55.
