data_PCOD9322560
_publ_section_title
;
Structure prediction by ZEFSAII (Michael W. Deem and Ramdas Pophale) SiO2 
 PCOD9322560
Probable space group: C 2 2 2
;
_chemical_formula_sum "Si O2"
_cell_formula_units_Z 56
_cell_length_a 24.951401
_cell_length_b 10.651445
_cell_length_c 12.031312
_cell_angle_alpha 90.000000
_cell_angle_beta 90.000000
_cell_angle_gamma 90.000000
_cell_volume 3197.543448
_symmetry_space_group_name_H-M "C 2 2 2"
_symmetry_group_IT_number 21
_symmetry_cell_setting 'orthorhombic'
loop_
_space_group_symop_operation_xyz
x,y,z
-x,-y,z
x,-y,-z
-x,y,-z
1/2+x,1/2+y,z
1/2-x,1/2-y,z
1/2+x,1/2-y,-z
1/2-x,1/2+y,-z
loop_
_atom_site_type_symbol
_atom_site_label
_atom_site_fract_x
_atom_site_fract_y
_atom_site_fract_z
Si Si1 0.709717 0.861696 0.930325
Si Si2 0.309352 0.809443 0.415346
Si Si3 0.563367 0.354166 0.019540
Si Si4 0.355229 0.786715 0.872180
Si Si5 0.192062 0.400352 0.341895
Si Si6 0.137540 0.192401 0.774700
Si Si7 0.711246 0.546501 0.193295
O O1 0.750000 0.750000 0.961767
O O2 0.674311 0.798932 0.833228
O O3 0.746818 0.971890 0.883912
O O4 0.670431 0.874622 0.034139
O O5 0.250000 0.750000 0.387283
O O6 0.313866 0.816542 0.548382
O O7 0.357239 0.734709 0.353596
O O8 0.313456 0.953824 0.375732
O O9 0.590588 0.265400 0.926565
O O10 0.579606 0.500000 0.000000
O O11 0.500000 0.346267 0.000000
O O12 0.586197 0.318623 0.142995
O O13 0.349089 0.856280 0.754365
O O14 0.318998 0.661964 0.861263
O O15 0.252102 0.398106 0.291263
O O16 0.167762 0.058721 0.776963
#
# Coordination Sequence:
#
# PCOD9322560 Si02
#       7
#     8   8   8   8   8   8   8
#     4   9  18  28  44  72 111 147 179 214 264 341
#     4  11  20  38  53  77 120 161 194 223 269 335
#     4  10  21  39  62  85 110 142 189 250 308 351
#     4  11  22  33  50  83 114 144 189 232 288 343
#     4  11  23  33  53  81 119 159 192 226 265 335
#     4  10  18  34  56  78 109 156 186 223 286 342
#     4  11  18  34  48  82 116 156 183 219 274 347
#
# _framework density 17.513445000000001
#
# number of rings (size 3 to 8) (size 9 to 14) (size 15 to 20)
#    0.000    1.571    4.286    2.571    0.000    4.000 
#    0.000    0.000    0.000    2.571    0.000    4.000 
#    0.000    0.000    0.000    0.000    0.000    0.000 
#
# Total GULP energy -156024.214692 kJ/mol
# GULP energy per Si atom -5572.293382 kJ/mol
# Density = 1.747358 g / cm^3
# Si number density = 17.513445 Si / 1000 Ang^3
#
#
#
# Elastic Constant Matrix: (Units=GPa)
#
#
# Indices 1 2 3 4 5 6 
#
# 1 65.0441 22.7099 43.3433 0.0000 0.0000 0.0000
# 2 22.7099 87.1814 39.7721 0.0000 0.0000 0.0000
# 3 43.3433 39.7721 132.0568 0.0000 0.0000 0.0000
# 4 0.0000 0.0000 0.0000 10.9973 0.0000 0.0000
# 5 0.0000 0.0000 0.0000 0.0000 19.8926 0.0000
# 6 0.0000 0.0000 0.0000 0.0000 0.0000 22.1702
#
#
#
# Elastic Compliance Matrix: (Units=1/GPa)
#
#
# Indices 1 2 3 4 5 6 
#
# 1 0.020170 -0.002590 -0.005840 0.000000 0.000000 0.000000
# 2 -0.002590 0.013630 -0.003255 0.000000 0.000000 0.000000
# 3 -0.005840 -0.003255 0.010470 0.000000 0.000000 0.000000
# 4 0.000000 0.000000 0.000000 0.090932 0.000000 0.000000
# 5 0.000000 0.000000 0.000000 0.000000 0.050270 0.000000
# 6 0.000000 0.000000 0.000000 0.000000 0.000000 0.045106
#
#
# Mechanical properties :
#
#
# Convention : Reuss Voigt Hill
#
# Bulk Modulus (GPa) = 47.84753 55.10365 51.47559
# Shear Modulus (GPa) = 19.16346 22.50916 20.83631
#
# Velocity S-wave (km/s) = 3.31148 3.58893 3.45299
# Velocity P-wave (km/s) = 6.48082 6.97895 6.73449
#
# Compressibility (1/GPa) = 0.02089972
#
# Stress axis : x y z
#
# Youngs Moduli (GPa) = 49.57831 73.36832 95.51423
#
# Poissons Ratio (x) = 0.19001 0.55782
# Poissons Ratio (y) = 0.12840 0.31089
# Poissons Ratio (z) = 0.28955 0.23881
#
# Static dielectric constant tensor:
#      x y z
#    x 1.621050 0.000000 0.000000 
#    y 0.000000 1.688870 0.000000 
#    z 0.000000 0.000000 1.680750 
# 
# From -- ./inp_files/27445.got.cif
#   From: 2010.05.17/outbox.cif.g08.bks.cpg/sg21_14_cif.got.tgz:27445.got - 2010.06.03 23:14:55.
