data_PCOD9322015
_publ_section_title
;
Structure prediction by ZEFSAII (Michael W. Deem and Ramdas Pophale) SiO2 
 PCOD9322015
Probable space group: C 2 2 21
;
_chemical_formula_sum "Si O2"
_cell_formula_units_Z 40
_cell_length_a 8.040298
_cell_length_b 13.498383
_cell_length_c 15.822739
_cell_angle_alpha 90.000000
_cell_angle_beta 90.000000
_cell_angle_gamma 90.000000
_cell_volume 1717.258032
_symmetry_space_group_name_H-M "C 2 2 21"
_symmetry_group_IT_number 20
_symmetry_cell_setting 'orthorhombic'
loop_
_space_group_symop_operation_xyz
x,y,z
-x,-y,1/2+z
x,-y,-z
-x,y,1/2-z
1/2+x,1/2+y,z
1/2-x,1/2-y,1/2+z
1/2+x,1/2-y,-z
1/2-x,1/2+y,1/2-z
loop_
_atom_site_type_symbol
_atom_site_label
_atom_site_fract_x
_atom_site_fract_y
_atom_site_fract_z
Si Si1 0.920054 0.390618 0.536547
Si Si2 0.397827 0.360015 0.164100
Si Si3 0.858502 0.179692 0.318112
Si Si4 0.951990 0.188515 0.010505
Si Si5 0.157460 0.470953 0.792300
O O1 0.950793 0.500000 0.500000
O O2 0.734517 0.352019 0.516912
O O3 0.921165 0.397318 0.638250
O O4 0.039910 0.307750 0.497529
O O5 0.500000 0.364163 0.250000
O O6 0.273484 0.266929 0.168528
O O7 0.511347 0.350613 0.080934
O O8 0.281002 0.456000 0.160013
O O9 0.764271 0.087157 0.276687
O O10 0.000000 0.208888 0.250000
O O11 0.945315 0.157229 0.407502
O O12 0.000000 0.524302 0.750000
#
# Coordination Sequence:
#
# PCOD9322015 Si02
#       5
#     8   8   8   8   8
#     4  12  25  49  78 108 156 197 254 315 380 459
#     4  12  27  48  75 111 150 200 259 317 382 456
#     4  12  24  44  75 105 149 195 250 314 381 454
#     4  12  25  47  75 110 150 202 247 315 385 450
#     4  12  26  48  74 107 151 201 256 319 381 455
#
# _framework density 23.292947000000002
#
# number of rings (size 3 to 8) (size 9 to 14) (size 15 to 20)
#    0.000    0.000    6.000    4.200    0.000    0.000 
#    0.000    1.000    0.000    0.000    0.000    0.000 
#    0.000    0.000    0.000    0.000    0.000    0.000 
#
# Total GULP energy -112035.054054 kJ/mol
# GULP energy per Si atom -5601.752703 kJ/mol
# Density = 2.323993 g / cm^3
# Si number density = 23.292947 Si / 1000 Ang^3
#
#
#
# Elastic Constant Matrix: (Units=GPa)
#
#
# Indices 1 2 3 4 5 6 
#
# 1 53.3043 24.0695 39.8522 0.0000 0.0000 0.0000
# 2 24.0695 117.5520 30.4552 0.0000 0.0000 0.0000
# 3 39.8522 30.4552 180.8137 0.0000 0.0000 0.0000
# 4 0.0000 0.0000 0.0000 32.2856 0.0000 0.0000
# 5 0.0000 0.0000 0.0000 0.0000 29.9857 0.0000
# 6 0.0000 0.0000 0.0000 0.0000 0.0000 35.6392
#
#
#
# Elastic Compliance Matrix: (Units=1/GPa)
#
#
# Indices 1 2 3 4 5 6 
#
# 1 0.023900 -0.003690 -0.004646 0.000000 0.000000 0.000000
# 2 -0.003690 0.009465 -0.000781 0.000000 0.000000 0.000000
# 3 -0.004646 -0.000781 0.006686 0.000000 0.000000 0.000000
# 4 0.000000 0.000000 0.000000 0.030974 0.000000 0.000000
# 5 0.000000 0.000000 0.000000 0.000000 0.033349 0.000000
# 6 0.000000 0.000000 0.000000 0.000000 0.000000 0.028059
#
#
# Mechanical properties :
#
#
# Convention : Reuss Voigt Hill
#
# Bulk Modulus (GPa) = 45.83611 60.04706 52.94159
# Shear Modulus (GPa) = 31.65779 36.73498 34.19639
#
# Velocity S-wave (km/s) = 3.69062 3.97556 3.83574
# Velocity P-wave (km/s) = 6.15481 6.84898 6.51115
#
# Compressibility (1/GPa) = 0.02181686
#
# Stress axis : x y z
#
# Youngs Moduli (GPa) = 41.84090 105.65542 149.56351
#
# Poissons Ratio (x) = 0.38986 0.69490
# Poissons Ratio (y) = 0.15439 0.11679
# Poissons Ratio (z) = 0.19440 0.08251
#
# Static dielectric constant tensor:
#      x y z
#    x 1.861210 0.000000 0.000000 
#    y 0.000000 1.863220 0.000000 
#    z 0.000000 0.000000 1.929640 
# 
# From -- ./inp_files/18542.got.cif
#   From: 2010.05.17/outbox.cif.g08.bks.cpg/sg20_10_cif.got.tgz:18542.got - 2010.06.03 22:52:26.
