data_PCOD9322579
_publ_section_title
;
Structure prediction by ZEFSAII (Michael W. Deem and Ramdas Pophale) SiO2 
 PCOD9322579
Probable space group: C 2 2 2
;
_chemical_formula_sum "Si O2"
_cell_formula_units_Z 58
_cell_length_a 17.690631
_cell_length_b 14.586002
_cell_length_c 10.810677
_cell_angle_alpha 90.000000
_cell_angle_beta 90.000000
_cell_angle_gamma 90.000000
_cell_volume 2789.539301
_symmetry_space_group_name_H-M "C 2 2 2"
_symmetry_group_IT_number 21
_symmetry_cell_setting 'orthorhombic'
loop_
_space_group_symop_operation_xyz
x,y,z
-x,-y,z
x,-y,-z
-x,y,-z
1/2+x,1/2+y,z
1/2-x,1/2-y,z
1/2+x,1/2-y,-z
1/2-x,1/2+y,-z
loop_
_atom_site_type_symbol
_atom_site_label
_atom_site_fract_x
_atom_site_fract_y
_atom_site_fract_z
Si Si1 0.781610 0.348450 0.214467
Si Si2 0.230080 0.989433 0.650251
Si Si3 0.403209 0.354658 0.361008
Si Si4 0.400306 0.894023 0.029377
Si Si5 0.034945 0.316473 0.199908
Si Si6 0.893542 0.561242 0.385277
Si Si7 0.000000 0.000000 0.500000
Si Si8 0.162620 0.275068 0.547067
O O1 0.750000 0.250000 0.175408
O O2 0.718339 0.412910 0.280674
O O3 0.821159 0.394227 0.098883
O O4 0.844163 0.318923 0.318504
O O5 0.175081 0.904679 0.684702
O O6 0.319750 0.979617 0.681793
O O7 0.225081 0.000000 0.500000
O O8 0.444182 0.279757 0.270103
O O9 0.453626 0.438055 0.404830
O O10 0.386324 0.306615 0.493977
O O11 0.459991 0.840149 0.119486
O O12 0.400418 0.837867 0.901627
O O13 0.420754 0.000000 0.000000
O O14 0.041743 0.398087 0.300207
O O15 0.917846 0.500000 0.500000
O O16 0.854712 0.647910 0.448859
O O17 0.250000 0.250000 0.538778
#
# Coordination Sequence:
#
# PCOD9322579 Si02
#       8
#     8   8   8   8   8   8   2   8
#     4  11  23  38  66  95 128 176 217 280 327 405
#     4  11  18  37  62  95 140 170 205 265 351 400
#     4  11  24  39  63 102 131 177 214 272 332 411
#     4  11  25  49  67  88 131 183 232 277 344 387
#     4  10  24  44  67  88 128 182 221 277 330 408
#     4  10  18  34  61  98 129 162 208 268 336 407
#     4  12  28  40  64 102 142 168 222 260 326 428
#     4  10  18  34  61  92 131 168 201 259 342 394
#
# _framework density 20.791965000000001
#
# number of rings (size 3 to 8) (size 9 to 14) (size 15 to 20)
#    0.000    1.379    4.828    2.483    1.931    0.000 
#    4.966    0.690    0.000    4.966    0.000    0.000 
#    0.000    0.000    0.000    0.000    0.000    0.000 
#
# Total GULP energy -161469.530402 kJ/mol
# GULP energy per Si atom -5567.914841 kJ/mol
# Density = 2.074464 g / cm^3
# Si number density = 20.791965 Si / 1000 Ang^3
#
#
#
# Elastic Constant Matrix: (Units=GPa)
#
#
# Indices 1 2 3 4 5 6 
#
# 1 33.4514 33.4132 14.9510 0.0000 0.0000 0.0000
# 2 33.4132 129.6465 39.4080 0.0000 0.0000 0.0000
# 3 14.9510 39.4080 84.0931 0.0000 0.0000 0.0000
# 4 0.0000 0.0000 0.0000 28.3649 0.0000 0.0000
# 5 0.0000 0.0000 0.0000 0.0000 33.4337 0.0000
# 6 0.0000 0.0000 0.0000 0.0000 0.0000 35.4774
#
#
#
# Elastic Compliance Matrix: (Units=1/GPa)
#
#
# Indices 1 2 3 4 5 6 
#
# 1 0.040781 -0.009686 -0.002711 0.000000 0.000000 0.000000
# 2 -0.009686 0.011295 -0.003571 0.000000 0.000000 0.000000
# 3 -0.002711 -0.003571 0.014047 0.000000 0.000000 0.000000
# 4 0.000000 0.000000 0.000000 0.035255 0.000000 0.000000
# 5 0.000000 0.000000 0.000000 0.000000 0.029910 0.000000
# 6 0.000000 0.000000 0.000000 0.000000 0.000000 0.028187
#
#
# Mechanical properties :
#
#
# Convention : Reuss Voigt Hill
#
# Bulk Modulus (GPa) = 29.25158 46.97059 38.11109
# Shear Modulus (GPa) = 24.65391 30.08312 27.36851
#
# Velocity S-wave (km/s) = 3.44720 3.80789 3.63202
# Velocity P-wave (km/s) = 5.47206 6.47867 5.99652
#
# Compressibility (1/GPa) = 0.03418619
#
# Stress axis : x y z
#
# Youngs Moduli (GPa) = 24.52116 88.53377 71.18906
#
# Poissons Ratio (x) = 0.85755 0.19302
# Poissons Ratio (y) = 0.23752 0.25422
# Poissons Ratio (z) = 0.06649 0.31616
#
# Static dielectric constant tensor:
#      x y z
#    x 1.868670 0.000000 0.000000 
#    y 0.000000 1.888610 0.000000 
#    z 0.000000 0.000000 1.774020 
# 
# From -- ./inp_files/17753.got.cif
#   From: 2010.05.17/outbox.cif.g08.bks.cpg/sg21_9_cif.got.tgz:17753.got - 2010.06.03 23:14:55.
