data_PCOD9322121
_publ_section_title
;
Structure prediction by ZEFSAII (Michael W. Deem and Ramdas Pophale) SiO2 
 PCOD9322121
Probable space group: C 2 2 21
;
_chemical_formula_sum "Si O2"
_cell_formula_units_Z 28
_cell_length_a 13.528946
_cell_length_b 8.136766
_cell_length_c 9.779763
_cell_angle_alpha 90.000000
_cell_angle_beta 90.000000
_cell_angle_gamma 90.000000
_cell_volume 1076.574578
_symmetry_space_group_name_H-M "C 2 2 21"
_symmetry_group_IT_number 20
_symmetry_cell_setting 'orthorhombic'
loop_
_space_group_symop_operation_xyz
x,y,z
-x,-y,1/2+z
x,-y,-z
-x,y,1/2-z
1/2+x,1/2+y,z
1/2-x,1/2-y,1/2+z
1/2+x,1/2-y,-z
1/2-x,1/2+y,1/2-z
loop_
_atom_site_type_symbol
_atom_site_label
_atom_site_fract_x
_atom_site_fract_y
_atom_site_fract_z
Si Si1 0.765413 0.326242 0.920619
Si Si2 0.500000 0.889955 0.250000
Si Si3 0.841112 0.655491 0.348947
Si Si4 0.975275 0.811670 0.027053
O O1 0.749205 0.332248 0.757955
O O2 0.751384 0.500000 0.000000
O O3 0.711757 0.183173 0.004219
O O4 0.880335 0.278478 0.913698
O O5 0.406691 0.001722 0.297534
O O6 0.513489 0.778818 0.382422
O O7 0.929084 0.788954 0.376662
O O8 0.957109 0.000000 0.000000
#
# Coordination Sequence:
#
# PCOD9322121 Si02
#       4
#     8   4   8   8
#     4  12  27  52  83 120 161 215 277 335 417 489
#     4  12  26  52  84 116 170 222 264 350 422 482
#     4  12  27  52  81 121 164 218 274 340 415 492
#     4  12  28  50  83 120 166 214 278 341 412 497
#
# _framework density 26.008419
#
# number of rings (size 3 to 8) (size 9 to 14) (size 15 to 20)
#    0.000    0.000    5.714    1.714    8.000    6.857 
#    0.000    0.000    0.000    0.000    0.000    0.000 
#    0.000    0.000    0.000    0.000    0.000    0.000 
#
# Total GULP energy -78248.892900 kJ/mol
# GULP energy per Si atom -5589.206636 kJ/mol
# Density = 2.594922 g / cm^3
# Si number density = 26.008419 Si / 1000 Ang^3
#
#
#
# Elastic Constant Matrix: (Units=GPa)
#
#
# Indices 1 2 3 4 5 6 
#
# 1 88.7504 25.4984 43.2022 0.0000 0.0000 0.0000
# 2 25.4984 179.8473 61.4529 0.0000 0.0000 0.0000
# 3 43.2022 61.4529 151.7380 0.0000 0.0000 0.0000
# 4 0.0000 0.0000 0.0000 97.2474 0.0000 0.0000
# 5 0.0000 0.0000 0.0000 0.0000 46.6321 0.0000
# 6 0.0000 0.0000 0.0000 0.0000 0.0000 29.2147
#
#
#
# Elastic Compliance Matrix: (Units=1/GPa)
#
#
# Indices 1 2 3 4 5 6 
#
# 1 0.013152 -0.000679 -0.003469 0.000000 0.000000 0.000000
# 2 -0.000679 0.006488 -0.002434 0.000000 0.000000 0.000000
# 3 -0.003469 -0.002434 0.008564 0.000000 0.000000 0.000000
# 4 0.000000 0.000000 0.000000 0.010283 0.000000 0.000000
# 5 0.000000 0.000000 0.000000 0.000000 0.021444 0.000000
# 6 0.000000 0.000000 0.000000 0.000000 0.000000 0.034229
#
#
# Mechanical properties :
#
#
# Convention : Reuss Voigt Hill
#
# Bulk Modulus (GPa) = 66.49786 75.62695 71.06241
# Shear Modulus (GPa) = 44.50804 53.96434 49.23619
#
# Velocity S-wave (km/s) = 4.14127 4.56003 4.35568
# Velocity P-wave (km/s) = 6.96348 7.54096 7.25797
#
# Compressibility (1/GPa) = 0.01503808
#
# Stress axis : x y z
#
# Youngs Moduli (GPa) = 76.03684 154.12177 116.76768
#
# Poissons Ratio (x) = 0.10467 0.40511
# Poissons Ratio (y) = 0.05164 0.28426
# Poissons Ratio (z) = 0.26380 0.37519
#
# Static dielectric constant tensor:
#      x y z
#    x 1.969430 0.000000 0.000000 
#    y 0.000000 1.986510 0.000000 
#    z 0.000000 0.000000 2.256780 
# 
# From -- ./inp_files/7772.got.cif
#   From: 2010.05.17/outbox.cif.g08.bks.cpg/sg20_4_cif.got.tgz:7772.got - 2010.06.03 22:52:26.
