data_PCOD9322662
_publ_section_title
;
Structure prediction by ZEFSAII (Michael W. Deem and Ramdas Pophale) SiO2 
 PCOD9322662
Probable space group: C 2 2 2
;
_chemical_formula_sum "Si O2"
_cell_formula_units_Z 38
_cell_length_a 8.638270
_cell_length_b 16.135578
_cell_length_c 12.391051
_cell_angle_alpha 90.000000
_cell_angle_beta 90.000000
_cell_angle_gamma 90.000000
_cell_volume 1727.107801
_symmetry_space_group_name_H-M "C 2 2 2"
_symmetry_group_IT_number 21
_symmetry_cell_setting 'orthorhombic'
loop_
_space_group_symop_operation_xyz
x,y,z
-x,-y,z
x,-y,-z
-x,y,-z
1/2+x,1/2+y,z
1/2-x,1/2-y,z
1/2+x,1/2-y,-z
1/2-x,1/2+y,-z
loop_
_atom_site_type_symbol
_atom_site_label
_atom_site_fract_x
_atom_site_fract_y
_atom_site_fract_z
Si Si1 0.000000 0.163419 0.000000
Si Si2 0.500000 0.500000 0.500000
Si Si3 0.721661 0.943977 0.096889
Si Si4 0.246666 0.488595 0.669214
Si Si5 0.028724 0.362354 0.378990
Si Si6 0.425078 0.783272 0.829935
O O1 0.135461 0.106270 0.044818
O O2 0.963903 0.226770 0.098234
O O3 0.382964 0.460304 0.588781
O O4 0.776906 0.993633 0.204032
O O5 0.590344 0.878463 0.132471
O O6 0.667038 0.000000 0.000000
O O7 0.110924 0.422035 0.657593
O O8 0.179238 0.577481 0.627422
O O9 0.000000 0.335287 0.500000
O O10 0.038674 0.287449 0.295663
O O11 0.250000 0.750000 0.843435
#
# Coordination Sequence:
#
# PCOD9322662 Si02
#       6
#     4   2   8   8   8   8
#     4  10  21  40  57  86 128 174 188 268 331 384
#     4  12  20  34  54  96 140 154 200 266 354 370
#     4  10  22  38  61  92 125 162 221 264 317 386
#     4  10  21  35  61  96 129 164 207 279 328 379
#     4  10  18  40  64  90 126 169 219 268 326 391
#     4   9  21  39  64  85 128 170 212 266 332 387
#
# _framework density 22.002099999999999
#
# number of rings (size 3 to 8) (size 9 to 14) (size 15 to 20)
#    0.000    2.105    2.105    0.947    5.895    0.000 
#    0.000    0.000   25.474    0.000    0.000    0.000 
#    0.000    0.000    0.000    0.000    0.000    0.000 
#
# Total GULP energy -106000.670805 kJ/mol
# GULP energy per Si atom -5578.982674 kJ/mol
# Density = 2.195202 g / cm^3
# Si number density = 22.002100 Si / 1000 Ang^3
#
#
#
# Elastic Constant Matrix: (Units=GPa)
#
#
# Indices 1 2 3 4 5 6 
#
# 1 64.1638 9.0372 42.6766 0.0000 0.0000 0.0000
# 2 9.0372 41.3442 53.5579 0.0000 0.0000 0.0000
# 3 42.6766 53.5579 209.6814 0.0000 0.0000 0.0000
# 4 0.0000 0.0000 0.0000 2.8912 0.0000 0.0000
# 5 0.0000 0.0000 0.0000 0.0000 38.1994 0.0000
# 6 0.0000 0.0000 0.0000 0.0000 0.0000 -31.1658
#
#
#
# Elastic Compliance Matrix: (Units=1/GPa)
#
#
# Indices 1 2 3 4 5 6 
#
# 1 0.018066 0.001217 -0.003988 0.000000 0.000000 0.000000
# 2 0.001217 0.036230 -0.009502 0.000000 0.000000 0.000000
# 3 -0.003988 -0.009502 0.008008 0.000000 0.000000 0.000000
# 4 0.000000 0.000000 0.000000 0.345882 0.000000 0.000000
# 5 0.000000 0.000000 0.000000 0.000000 0.026178 0.000000
# 6 0.000000 0.000000 0.000000 0.000000 0.000000 -0.032086
#
#
# Mechanical properties :
#
#
# Convention : Reuss Voigt Hill
#
# Bulk Modulus (GPa) = 26.48409 58.41475 42.44942
# Shear Modulus (GPa) = 11.37892 15.97946 13.67919
#
# Velocity S-wave (km/s) = 2.27661 2.69786 2.49614
# Velocity P-wave (km/s) = 4.35590 6.02593 5.25765
#
# Compressibility (1/GPa) = 0.03775852
#
# Stress axis : x y z
#
# Youngs Moduli (GPa) = 55.35225 27.60154 124.87890
#
# Poissons Ratio (x) = -0.03359 0.49800
# Poissons Ratio (y) = -0.06736 1.18656
# Poissons Ratio (z) = 0.22074 0.26226
#
# Static dielectric constant tensor:
#      x y z
#    x 1.829490 0.000000 0.000000 
#    y 0.000000 1.855200 0.000000 
#    z 0.000000 0.000000 1.823660 
# 
# From -- ./inp_files/22330.got.cif
#   From: 2010.05.17/outbox.cif.g08.bks.cpg/sg21_12_cif.got.tgz:22330.got - 2010.06.03 23:14:55.
