data_PCOD9322405
_publ_section_title
;
Structure prediction by ZEFSAII (Michael W. Deem and Ramdas Pophale) SiO2 
 PCOD9322405
Probable space group: C 2 2 2
;
_chemical_formula_sum "Si O2"
_cell_formula_units_Z 36
_cell_length_a 13.835443
_cell_length_b 16.357862
_cell_length_c 7.981690
_cell_angle_alpha 90.000000
_cell_angle_beta 90.000000
_cell_angle_gamma 90.000000
_cell_volume 1806.402251
_symmetry_space_group_name_H-M "C 2 2 2"
_symmetry_group_IT_number 21
_symmetry_cell_setting 'orthorhombic'
loop_
_space_group_symop_operation_xyz
x,y,z
-x,-y,z
x,-y,-z
-x,y,-z
1/2+x,1/2+y,z
1/2-x,1/2-y,z
1/2+x,1/2-y,-z
1/2-x,1/2+y,-z
loop_
_atom_site_type_symbol
_atom_site_label
_atom_site_fract_x
_atom_site_fract_y
_atom_site_fract_z
Si Si1 0.461666 0.255433 0.689794
Si Si2 0.955249 0.080773 0.691165
Si Si3 0.461682 0.916832 0.810748
Si Si4 0.269411 0.080075 0.382452
Si Si5 0.250000 0.750000 0.413409
O O1 0.500000 0.255555 0.500000
O O2 0.513146 0.333633 0.771813
O O3 0.491986 0.167156 0.751055
O O4 0.346776 0.267040 0.690491
O O5 0.840611 0.073048 0.679359
O O6 0.000000 0.082554 0.500000
O O7 0.000000 0.000000 0.771646
O O8 0.348267 0.915997 0.765801
O O9 0.500000 0.000000 0.725600
O O10 0.500000 0.920808 0.000000
O O11 0.272637 0.167463 0.480276
O O12 0.287791 0.000000 0.500000
#
# Coordination Sequence:
#
# PCOD9322405 Si02
#       5
#     8   8   8   8   4
#     4  11  20  36  61  91 126 157 206 259 308 368
#     4  10  17  33  57  99 132 147 194 271 309 362
#     4  11  26  43  57  86 129 172 211 257 314 378
#     4  12  20  33  64  93 124 164 207 254 318 363
#     4  12  20  32  58 100 118 152 214 256 306 364
#
# _framework density 19.929117000000002
#
# number of rings (size 3 to 8) (size 9 to 14) (size 15 to 20)
#    0.000    0.889    8.889    1.333    0.000    0.000 
#    0.000    3.333    0.000    0.667    0.000    0.000 
#    0.000    0.000    0.000    0.000    0.000    0.000 
#
# Total GULP energy -100335.689230 kJ/mol
# GULP energy per Si atom -5574.204957 kJ/mol
# Density = 1.988376 g / cm^3
# Si number density = 19.929117 Si / 1000 Ang^3
#
#
#
# Elastic Constant Matrix: (Units=GPa)
#
#
# Indices 1 2 3 4 5 6 
#
# 1 193.9614 37.3679 42.4535 0.0000 0.0000 0.0000
# 2 37.3679 205.7231 39.1337 0.0000 0.0000 0.0000
# 3 42.4535 39.1337 37.2477 0.0000 0.0000 0.0000
# 4 0.0000 0.0000 0.0000 37.5955 0.0000 0.0000
# 5 0.0000 0.0000 0.0000 0.0000 24.4011 0.0000
# 6 0.0000 0.0000 0.0000 0.0000 0.0000 37.1906
#
#
#
# Elastic Compliance Matrix: (Units=1/GPa)
#
#
# Indices 1 2 3 4 5 6 
#
# 1 0.006884 0.000303 -0.008165 0.000000 0.000000 0.000000
# 2 0.000303 0.006088 -0.006742 0.000000 0.000000 0.000000
# 3 -0.008165 -0.006742 0.043236 0.000000 0.000000 0.000000
# 4 0.000000 0.000000 0.000000 0.026599 0.000000 0.000000
# 5 0.000000 0.000000 0.000000 0.000000 0.040982 0.000000
# 6 0.000000 0.000000 0.000000 0.000000 0.000000 0.026888
#
#
# Mechanical properties :
#
#
# Convention : Reuss Voigt Hill
#
# Bulk Modulus (GPa) = 37.03470 74.98249 56.00860
# Shear Modulus (GPa) = 26.47110 41.03590 33.75350
#
# Velocity S-wave (km/s) = 3.64849 4.54265 4.11990
# Velocity P-wave (km/s) = 6.03093 8.07592 7.12715
#
# Compressibility (1/GPa) = 0.02700170
#
# Stress axis : x y z
#
# Youngs Moduli (GPa) = 145.25631 164.24811 23.12896
#
# Poissons Ratio (x) = -0.04970 0.18884
# Poissons Ratio (y) = -0.04396 0.15592
# Poissons Ratio (z) = 1.18595 1.10729
#
# Static dielectric constant tensor:
#      x y z
#    x 1.678010 0.000000 0.000000 
#    y 0.000000 1.736520 0.000000 
#    z 0.000000 0.000000 1.694780 
# 
# From -- ./inp_files/14385.got.cif
#   From: 2010.05.17/outbox.cif.g08.bks.cpg/sg21_8_cif.got.tgz:14385.got - 2010.06.03 23:14:55.
