data_PCOD9322364
_publ_section_title
;
Structure prediction by ZEFSAII (Michael W. Deem and Ramdas Pophale) SiO2 
 PCOD9322364
Probable space group: C 2 2 2
;
_chemical_formula_sum "Si O2"
_cell_formula_units_Z 64
_cell_length_a 15.906350
_cell_length_b 24.092580
_cell_length_c 10.066312
_cell_angle_alpha 90.000000
_cell_angle_beta 90.000000
_cell_angle_gamma 90.000000
_cell_volume 3857.662516
_symmetry_space_group_name_H-M "C 2 2 2"
_symmetry_group_IT_number 21
_symmetry_cell_setting 'orthorhombic'
loop_
_space_group_symop_operation_xyz
x,y,z
-x,-y,z
x,-y,-z
-x,y,-z
1/2+x,1/2+y,z
1/2-x,1/2-y,z
1/2+x,1/2-y,-z
1/2-x,1/2+y,-z
loop_
_atom_site_type_symbol
_atom_site_label
_atom_site_fract_x
_atom_site_fract_y
_atom_site_fract_z
Si Si1 0.087386 0.938592 0.058232
Si Si2 0.722745 0.185269 0.745153
Si Si3 0.775372 0.848106 0.980346
Si Si4 0.380563 0.659806 0.569328
Si Si5 0.554227 0.624169 0.698275
Si Si6 0.404032 0.792908 0.530373
Si Si7 0.078248 0.225097 0.904563
Si Si8 0.815496 0.698728 0.739128
O O1 0.074526 0.930429 0.216094
O O2 0.166116 0.901924 0.014612
O O3 0.000000 0.914585 0.000000
O O4 0.094871 0.000000 0.000000
O O5 0.750000 0.250000 0.753480
O O6 0.718542 0.158920 0.890657
O O7 0.797094 0.156988 0.657770
O O8 0.635992 0.183747 0.664787
O O9 0.840172 0.795837 0.985215
O O10 0.728672 0.844272 0.838737
O O11 0.459773 0.631322 0.643274
O O12 0.381588 0.632819 0.423206
O O13 0.398275 0.725469 0.542676
O O14 0.563684 0.675428 0.800179
O O15 0.500000 0.807063 0.500000
O O16 0.345696 0.813653 0.408729
O O17 0.104218 0.277982 0.819261
O O18 0.000000 0.232947 0.000000
O O19 0.750000 0.750000 0.727034
#
# Coordination Sequence:
#
# PCOD9322364 Si02
#       8
#     8   8   8   8   8   8   8   8
#     4  10  21  36  55  74 100 135 179 232 276 307
#     4  10  20  29  46  70 104 141 174 211 251 300
#     4  10  20  32  48  71  98 136 179 214 258 321
#     4  10  17  29  48  72 104 141 181 208 244 320
#     4  10  17  28  49  75 101 141 181 205 259 319
#     4  11  20  31  44  70 108 143 173 213 248 305
#     4  10  17  26  45  68 103 136 172 203 241 298
#     4  10  19  30  45  68 100 137 179 208 247 312
#
# _framework density 16.590357000000001
#
# number of rings (size 3 to 8) (size 9 to 14) (size 15 to 20)
#    0.000    1.875    2.500    5.250    3.500    3.000 
#    0.000    0.000    0.000   12.750    0.000    0.000 
#    0.000    5.500    0.000    0.000    0.000    0.000 
#
# Total GULP energy -178453.514312 kJ/mol
# GULP energy per Si atom -5576.672322 kJ/mol
# Density = 1.655260 g / cm^3
# Si number density = 16.590357 Si / 1000 Ang^3
#
#
#
# Elastic Constant Matrix: (Units=GPa)
#
#
# Indices 1 2 3 4 5 6 
#
# 1 58.4212 12.9247 38.4780 0.0000 0.0000 0.0000
# 2 12.9247 44.1670 27.0657 0.0000 0.0000 0.0000
# 3 38.4780 27.0657 109.3844 0.0000 0.0000 0.0000
# 4 0.0000 0.0000 0.0000 14.4383 0.0000 0.0000
# 5 0.0000 0.0000 0.0000 0.0000 29.7396 0.0000
# 6 0.0000 0.0000 0.0000 0.0000 0.0000 15.8160
#
#
#
# Elastic Compliance Matrix: (Units=1/GPa)
#
#
# Indices 1 2 3 4 5 6 
#
# 1 0.022433 -0.002038 -0.007387 0.000000 0.000000 0.000000
# 2 -0.002038 0.026873 -0.005933 0.000000 0.000000 0.000000
# 3 -0.007387 -0.005933 0.013209 0.000000 0.000000 0.000000
# 4 0.000000 0.000000 0.000000 0.069260 0.000000 0.000000
# 5 0.000000 0.000000 0.000000 0.000000 0.033625 0.000000
# 6 0.000000 0.000000 0.000000 0.000000 0.000000 0.063227
#
#
# Mechanical properties :
#
#
# Convention : Reuss Voigt Hill
#
# Bulk Modulus (GPa) = 31.44655 40.98994 36.21825
# Shear Modulus (GPa) = 18.52244 20.89905 19.71075
#
# Velocity S-wave (km/s) = 3.34497 3.55309 3.45060
# Velocity P-wave (km/s) = 5.82360 6.44929 6.14441
#
# Compressibility (1/GPa) = 0.03179999
#
# Stress axis : x y z
#
# Youngs Moduli (GPa) = 44.57659 37.21179 75.70849
#
# Poissons Ratio (x) = 0.07583 0.55927
# Poissons Ratio (y) = 0.09084 0.44914
# Poissons Ratio (z) = 0.32929 0.22076
#
# Static dielectric constant tensor:
#      x y z
#    x 1.597340 0.000000 0.000000 
#    y 0.000000 1.545050 0.000000 
#    z 0.000000 0.000000 1.638040 
# 
# From -- ./inp_files/16944.got.cif
#   From: 2010.05.17/outbox.cif.g08.bks.cpg/sg21_9_cif.got.tgz:16944.got - 2010.06.03 23:14:55.
