data_PCOD9322101
_publ_section_title
;
Structure prediction by ZEFSAII (Michael W. Deem and Ramdas Pophale) SiO2 
 PCOD9322101
Probable space group: C 2 2 21
;
_chemical_formula_sum "Si O2"
_cell_formula_units_Z 40
_cell_length_a 12.729794
_cell_length_b 16.372680
_cell_length_c 8.082905
_cell_angle_alpha 90.000000
_cell_angle_beta 90.000000
_cell_angle_gamma 90.000000
_cell_volume 1684.645879
_symmetry_space_group_name_H-M "C 2 2 21"
_symmetry_group_IT_number 20
_symmetry_cell_setting 'orthorhombic'
loop_
_space_group_symop_operation_xyz
x,y,z
-x,-y,1/2+z
x,-y,-z
-x,y,1/2-z
1/2+x,1/2+y,z
1/2-x,1/2-y,1/2+z
1/2+x,1/2-y,-z
1/2-x,1/2+y,1/2-z
loop_
_atom_site_type_symbol
_atom_site_label
_atom_site_fract_x
_atom_site_fract_y
_atom_site_fract_z
Si Si1 0.863916 0.339639 0.121108
Si Si2 0.214313 0.497005 0.808740
Si Si3 0.912619 0.073930 0.384892
Si Si4 0.816658 0.231791 0.430039
Si Si5 0.938763 0.639429 0.399125
O O1 0.812993 0.418167 0.214767
O O2 0.850913 0.265315 0.251099
O O3 0.796548 0.306799 0.964849
O O4 0.978864 0.363351 0.051772
O O5 0.303080 0.452285 0.701598
O O6 0.107429 0.444948 0.829272
O O7 0.252585 0.500000 0.000000
O O8 0.893635 0.158131 0.479592
O O9 0.000000 0.087999 0.250000
O O10 0.945432 0.000000 0.500000
O O11 0.838957 0.308701 0.545585
O O12 0.000000 0.680948 0.250000
#
# Coordination Sequence:
#
# PCOD9322101 Si02
#       5
#     8   8   8   8   8
#     4  12  26  49  75 115 154 204 261 325 405 469
#     4  12  27  47  75 112 153 199 258 327 396 471
#     4  12  26  49  74 102 147 201 260 318 387 468
#     4  12  26  48  73 107 154 198 260 325 383 485
#     4  12  28  45  77 113 153 204 259 326 401 471
#
# _framework density 23.743863999999999
#
# number of rings (size 3 to 8) (size 9 to 14) (size 15 to 20)
#    0.000    0.000    4.000    6.000    2.800    0.800 
#    7.200    0.000    0.000    0.000    0.000    0.000 
#    0.000    0.000    0.000    0.000    0.000    0.000 
#
# Total GULP energy -111843.622226 kJ/mol
# GULP energy per Si atom -5592.181111 kJ/mol
# Density = 2.368982 g / cm^3
# Si number density = 23.743864 Si / 1000 Ang^3
#
#
#
# Elastic Constant Matrix: (Units=GPa)
#
#
# Indices 1 2 3 4 5 6 
#
# 1 88.4723 29.1901 6.7663 0.0000 0.0000 0.0000
# 2 29.1901 108.5385 8.9834 0.0000 0.0000 0.0000
# 3 6.7663 8.9834 55.4591 0.0000 0.0000 0.0000
# 4 0.0000 0.0000 0.0000 37.6294 0.0000 0.0000
# 5 0.0000 0.0000 0.0000 0.0000 40.8685 0.0000
# 6 0.0000 0.0000 0.0000 0.0000 0.0000 28.9342
#
#
#
# Elastic Compliance Matrix: (Units=1/GPa)
#
#
# Indices 1 2 3 4 5 6 
#
# 1 0.012457 -0.003268 -0.000990 0.000000 0.000000 0.000000
# 2 -0.003268 0.010196 -0.001253 0.000000 0.000000 0.000000
# 3 -0.000990 -0.001253 0.018355 0.000000 0.000000 0.000000
# 4 0.000000 0.000000 0.000000 0.026575 0.000000 0.000000
# 5 0.000000 0.000000 0.000000 0.000000 0.024469 0.000000
# 6 0.000000 0.000000 0.000000 0.000000 0.000000 0.034561
#
#
# Mechanical properties :
#
#
# Convention : Reuss Voigt Hill
#
# Bulk Modulus (GPa) = 33.34985 38.03885 35.69435
# Shear Modulus (GPa) = 33.86827 35.32176 34.59502
#
# Velocity S-wave (km/s) = 3.78087 3.86115 3.82122
# Velocity P-wave (km/s) = 5.75640 5.99443 5.87662
#
# Compressibility (1/GPa) = 0.02998514
#
# Stress axis : x y z
#
# Youngs Moduli (GPa) = 80.27603 98.07814 54.48082
#
# Poissons Ratio (x) = 0.32054 0.05396
# Poissons Ratio (y) = 0.26236 0.06826
# Poissons Ratio (z) = 0.07951 0.12288
#
# Static dielectric constant tensor:
#      x y z
#    x 1.909910 0.000000 0.000000 
#    y 0.000000 1.895060 0.000000 
#    z 0.000000 0.000000 1.956410 
# 
# From -- ./inp_files/8126.got.cif
#   From: 2010.05.17/outbox.cif.g08.bks.cpg/sg20_5_cif.got.tgz:8126.got - 2010.06.03 22:52:26.
