data_PCOD9322534
_publ_section_title
;
Structure prediction by ZEFSAII (Michael W. Deem and Ramdas Pophale) SiO2 
 PCOD9322534
Probable space group: C 2 2 2
;
_chemical_formula_sum "Si O2"
_cell_formula_units_Z 56
_cell_length_a 21.086853
_cell_length_b 14.722484
_cell_length_c 8.526485
_cell_angle_alpha 90.000000
_cell_angle_beta 90.000000
_cell_angle_gamma 90.000000
_cell_volume 2647.054566
_symmetry_space_group_name_H-M "C 2 2 2"
_symmetry_group_IT_number 21
_symmetry_cell_setting 'orthorhombic'
loop_
_space_group_symop_operation_xyz
x,y,z
-x,-y,z
x,-y,-z
-x,y,-z
1/2+x,1/2+y,z
1/2-x,1/2-y,z
1/2+x,1/2-y,-z
1/2-x,1/2+y,-z
loop_
_atom_site_type_symbol
_atom_site_label
_atom_site_fract_x
_atom_site_fract_y
_atom_site_fract_z
Si Si1 0.572266 0.266951 0.452920
Si Si2 0.735715 0.142967 0.802677
Si Si3 0.392394 0.944266 0.158701
Si Si4 0.979889 0.722791 0.846654
Si Si5 0.756294 0.640315 0.840944
Si Si6 0.706687 0.656655 0.511967
Si Si7 0.593317 0.120729 0.678879
O O1 0.500000 0.291824 0.500000
O O2 0.567708 0.274097 0.266685
O O3 0.632831 0.320242 0.513753
O O4 0.587355 0.162122 0.504078
O O5 0.750000 0.250000 0.808424
O O6 0.769841 0.106105 0.645332
O O7 0.661659 0.134195 0.759214
O O8 0.753853 0.108193 0.977196
O O9 0.443116 0.868984 0.112888
O O10 0.326772 0.895108 0.200617
O O11 0.418232 0.015024 0.288332
O O12 0.381326 0.000000 0.000000
O O13 0.042835 0.687225 0.761159
O O14 0.000000 0.775436 0.000000
O O15 0.750000 0.750000 0.850497
O O16 0.716027 0.614825 0.685544
O O17 0.750000 0.750000 0.516997
#
# Coordination Sequence:
#
# PCOD9322534 Si02
#       7
#     8   8   8   8   8   8   8
#     4  10  22  38  54  84 114 156 202 244 281 358
#     4  10  18  33  56  76 104 148 192 242 294 327
#     4  12  22  35  54  79 119 158 202 242 281 344
#     4  11  21  34  52  73 114 161 196 226 278 338
#     4  10  21  35  55  80 104 149 200 240 296 338
#     4  10  18  35  58  75 110 147 192 244 300 328
#     4  11  21  35  53  75 114 158 195 234 283 335
#
# _framework density 21.15559
#
# number of rings (size 3 to 8) (size 9 to 14) (size 15 to 20)
#    0.000    1.429    5.714    2.143    0.000    1.714 
#    0.000    2.143    0.000    0.000    0.000    0.000 
#    0.000    2.286    0.857    0.286    0.000    0.000 
#
# Total GULP energy -155942.718732 kJ/mol
# GULP energy per Si atom -5569.382812 kJ/mol
# Density = 2.110744 g / cm^3
# Si number density = 21.155590 Si / 1000 Ang^3
#
#
#
# Elastic Constant Matrix: (Units=GPa)
#
#
# Indices 1 2 3 4 5 6 
#
# 1 116.5015 13.3100 20.3493 0.0000 0.0000 0.0000
# 2 13.3100 17.6760 1.2771 0.0000 0.0000 0.0000
# 3 20.3493 1.2771 140.5794 0.0000 0.0000 0.0000
# 4 0.0000 0.0000 0.0000 10.3843 0.0000 0.0000
# 5 0.0000 0.0000 0.0000 0.0000 -25.6724 0.0000
# 6 0.0000 0.0000 0.0000 0.0000 0.0000 16.8485
#
#
#
# Elastic Compliance Matrix: (Units=1/GPa)
#
#
# Indices 1 2 3 4 5 6 
#
# 1 0.009634 -0.007158 -0.001329 0.000000 0.000000 0.000000
# 2 -0.007158 0.061930 0.000474 0.000000 0.000000 0.000000
# 3 -0.001329 0.000474 0.007302 0.000000 0.000000 0.000000
# 4 0.000000 0.000000 0.000000 0.096300 0.000000 0.000000
# 5 0.000000 0.000000 0.000000 0.000000 -0.038952 0.000000
# 6 0.000000 0.000000 0.000000 0.000000 0.000000 0.059352
#
#
# Mechanical properties :
#
#
# Convention : Reuss Voigt Hill
#
# Bulk Modulus (GPa) = 15.91423 38.29220 27.10322
# Shear Modulus (GPa) = 21.50185 16.30010 18.90098
#
# Velocity S-wave (km/s) = 3.19151 2.77878 2.99227
# Velocity P-wave (km/s) = 4.59563 5.33245 4.97769
#
# Compressibility (1/GPa) = 0.06283685
#
# Stress axis : x y z
#
# Youngs Moduli (GPa) = 103.80346 16.14735 136.95708
#
# Poissons Ratio (x) = 0.11558 0.18208
# Poissons Ratio (y) = 0.74303 -0.06485
# Poissons Ratio (z) = 0.13800 -0.00765
#
# Static dielectric constant tensor:
#      x y z
#    x 1.773450 0.000000 0.000000 
#    y 0.000000 1.875200 0.000000 
#    z 0.000000 0.000000 1.954220 
# 
# From -- ./inp_files/17819.got.cif
#   From: 2010.05.17/outbox.cif.g08.bks.cpg/sg21_9_cif.got.tgz:17819.got - 2010.06.03 23:14:55.
