data_PCOD9322096
_publ_section_title
;
Structure prediction by ZEFSAII (Michael W. Deem and Ramdas Pophale) SiO2 
 PCOD9322096
Probable space group: C 2 2 21
;
_chemical_formula_sum "Si O2"
_cell_formula_units_Z 28
_cell_length_a 31.478581
_cell_length_b 5.126056
_cell_length_c 7.751997
_cell_angle_alpha 90.000000
_cell_angle_beta 90.000000
_cell_angle_gamma 90.000000
_cell_volume 1250.869748
_symmetry_space_group_name_H-M "C 2 2 21"
_symmetry_group_IT_number 20
_symmetry_cell_setting 'orthorhombic'
loop_
_space_group_symop_operation_xyz
x,y,z
-x,-y,1/2+z
x,-y,-z
-x,y,1/2-z
1/2+x,1/2+y,z
1/2-x,1/2-y,1/2+z
1/2+x,1/2-y,-z
1/2-x,1/2+y,1/2-z
loop_
_atom_site_type_symbol
_atom_site_label
_atom_site_fract_x
_atom_site_fract_y
_atom_site_fract_z
Si Si1 0.811296 0.669956 0.324735
Si Si2 0.903390 0.388482 0.808728
Si Si3 0.757201 0.500000 0.000000
Si Si4 0.547917 0.602523 0.195044
O O1 0.807279 0.500000 0.500000
O O2 0.860736 0.709656 0.286233
O O3 0.779030 0.900126 0.365698
O O4 0.791579 0.567995 0.147743
O O5 0.924102 0.636807 0.713180
O O6 0.934463 0.139508 0.808397
O O7 0.894616 0.500000 0.000000
O O8 0.500000 0.665846 0.250000
O O9 0.548822 0.500000 0.000000
#
# Coordination Sequence:
#
# PCOD9322096 Si02
#       4
#     8   8   4   8
#     4  12  26  46  71 106 146 189 248 303 371 431
#     4  12  27  47  75 110 148 194 244 304 364 440
#     4  12  26  46  72 102 142 194 246 306 366 442
#     4  12  26  49  76 109 147 193 241 301 370 440
#
# _framework density 22.384423999999999
#
# number of rings (size 3 to 8) (size 9 to 14) (size 15 to 20)
#    0.000    0.000    4.286    6.000    6.000    0.000 
#    5.143    0.000    0.000    0.000    0.000    0.000 
#    0.000    0.000    0.000    0.000    0.000    0.000 
#
# Total GULP energy -77988.887100 kJ/mol
# GULP energy per Si atom -5570.634793 kJ/mol
# Density = 2.233348 g / cm^3
# Si number density = 22.384424 Si / 1000 Ang^3
#
#
#
# Elastic Constant Matrix: (Units=GPa)
#
#
# Indices 1 2 3 4 5 6 
#
# 1 217.2881 104.2138 10.0298 0.0000 0.0000 0.0000
# 2 104.2138 131.2110 -21.9886 0.0000 0.0000 0.0000
# 3 10.0298 -21.9886 148.8245 0.0000 0.0000 0.0000
# 4 0.0000 0.0000 0.0000 267.4235 0.0000 0.0000
# 5 0.0000 0.0000 0.0000 0.0000 37.3164 0.0000
# 6 0.0000 0.0000 0.0000 0.0000 0.0000 571.7882
#
#
#
# Elastic Compliance Matrix: (Units=1/GPa)
#
#
# Indices 1 2 3 4 5 6 
#
# 1 0.007733 -0.006388 -0.001465 0.000000 0.000000 0.000000
# 2 -0.006388 0.013091 0.002365 0.000000 0.000000 0.000000
# 3 -0.001465 0.002365 0.007167 0.000000 0.000000 0.000000
# 4 0.000000 0.000000 0.000000 0.003739 0.000000 0.000000
# 5 0.000000 0.000000 0.000000 0.000000 0.026798 0.000000
# 6 0.000000 0.000000 0.000000 0.000000 0.000000 0.001749
#
#
# Mechanical properties :
#
#
# Convention : Reuss Voigt Hill
#
# Bulk Modulus (GPa) = 58.76883 75.75928 67.26405
# Shear Modulus (GPa) = 64.99740 202.31020 133.65380
#
# Velocity S-wave (km/s) = 5.39443 9.51715 7.73550
# Velocity P-wave (km/s) = 8.06915 12.43729 10.48326
#
# Compressibility (1/GPa) = 0.01701582
#
# Stress axis : x y z
#
# Youngs Moduli (GPa) = 129.30833 76.38805 139.51998
#
# Poissons Ratio (x) = 0.48795 0.20439
# Poissons Ratio (y) = 0.82599 -0.32992
# Poissons Ratio (z) = 0.18943 -0.18063
#
# Static dielectric constant tensor:
#      x y z
#    x 1.702930 0.000000 0.000000 
#    y 0.000000 1.857750 0.000000 
#    z 0.000000 0.000000 1.388480 
# 
# From -- ./inp_files/11221.got.cif
#   From: 2010.05.17/outbox.cif.g08.bks.cpg/sg20_6_cif.got.tgz:11221.got - 2010.06.03 22:52:26.
