data_PCOD9322195
_publ_section_title
;
Structure prediction by ZEFSAII (Michael W. Deem and Ramdas Pophale) SiO2 
 PCOD9322195
Probable space group: C 2 2 21
;
_chemical_formula_sum "Si O2"
_cell_formula_units_Z 32
_cell_length_a 24.000000
_cell_length_b 9.000000
_cell_length_c 15.000000
_cell_angle_alpha 90.000000
_cell_angle_beta 90.000000
_cell_angle_gamma 90.000000
_cell_volume 3240.000000
_symmetry_space_group_name_H-M "C 2 2 21"
_symmetry_group_IT_number 20
_symmetry_cell_setting 'orthorhombic'
loop_
_space_group_symop_operation_xyz
x,y,z
-x,-y,1/2+z
x,-y,-z
-x,y,1/2-z
1/2+x,1/2+y,z
1/2-x,1/2-y,1/2+z
1/2+x,1/2-y,-z
1/2-x,1/2+y,1/2-z
loop_
_atom_site_type_symbol
_atom_site_label
_atom_site_fract_x
_atom_site_fract_y
_atom_site_fract_z
Si Si1 0.677440 0.610212 0.204427
Si Si2 0.690707 0.728990 0.857080
Si Si3 0.003101 0.824284 0.356377
Si Si4 0.418824 0.841188 0.542087
Si Si5 0.377560 0.665287 0.956986
Si Si6 0.299332 0.148776 0.167478
Si Si7 0.576133 0.411232 0.918645
Si Si8 0.684169 0.806570 0.383175
O O1 0.683720 0.431035 0.192905
O O2 0.732870 0.669416 0.154978
O O3 0.619488 0.635645 0.155422
O O4 0.675079 0.694755 0.299118
O O5 0.638904 0.775315 0.918524
O O6 0.692776 0.841935 0.774089
O O7 0.750367 0.724046 0.907122
O O8 0.062632 0.821079 0.406824
O O9 0.000000 0.831229 0.250000
O O10 0.965577 0.681769 0.382928
O O11 0.970695 0.974193 0.387547
O O12 0.444320 0.737585 0.464335
O O13 0.409515 0.000000 0.500000
O O14 0.333201 0.722681 0.883104
O O15 0.372086 0.500000 0.000000
O O16 0.360668 0.769261 0.040878
O O17 0.317303 0.982632 0.138495
O O18 0.606191 0.500000 0.000000
#
# Coordination Sequence:
#
# PCOD9322195 Si02
#       8
#     8   8   8   8   8   8   8   8
#     4  10  20  40  67  94 133 179 228 275 333 412
#     4  10  20  41  63  94 137 182 226 270 339 413
#     4  11  25  48  73  93 125 180 234 282 336 401
#     4  11  24  41  66  99 133 169 222 282 337 393
#     4  12  25  41  67  97 135 178 230 278 343 416
#     4  10  23  39  62  99 141 177 220 273 346 406
#     4  10  21  41  67  95 120 173 232 273 321 396
#     4  10  24  38  62 100 138 179 219 284 348 399
#
# _framework density 9.8765429999999999
#
# number of rings (size 3 to 8) (size 9 to 14) (size 15 to 20)
#    0.000    1.500    2.500    3.000    5.250    2.500 
#    0.000    0.625    0.000    0.000    0.000    0.000 
#    0.000    0.000    0.000    0.000    0.000    0.000 
#
# Total GULP energy -178316.904742 kJ/mol
# GULP energy per Si atom -5572.403273 kJ/mol
# Density = 0.985406 g / cm^3
# Si number density = 9.876543 Si / 1000 Ang^3
#
#
#
# Elastic Constant Matrix: (Units=GPa)
#
#
# Indices 1 2 3 4 5 6 
#
# 1 128.1101 45.9234 69.2254 0.0000 0.0000 0.0000
# 2 45.9234 79.2056 36.8651 0.0000 0.0000 0.0000
# 3 69.2254 36.8651 99.0434 0.0000 0.0000 0.0000
# 4 0.0000 0.0000 0.0000 26.9421 0.0000 0.0000
# 5 0.0000 0.0000 0.0000 0.0000 40.7173 0.0000
# 6 0.0000 0.0000 0.0000 0.0000 0.0000 25.7911
#
#
#
# Elastic Compliance Matrix: (Units=1/GPa)
#
#
# Indices 1 2 3 4 5 6 
#
# 1 0.013602 -0.004187 -0.007948 0.000000 0.000000 0.000000
# 2 -0.004187 0.016560 -0.003237 0.000000 0.000000 0.000000
# 3 -0.007948 -0.003237 0.016857 0.000000 0.000000 0.000000
# 4 0.000000 0.000000 0.000000 0.037117 0.000000 0.000000
# 5 0.000000 0.000000 0.000000 0.000000 0.024560 0.000000
# 6 0.000000 0.000000 0.000000 0.000000 0.000000 0.038773
#
#
# Mechanical properties :
#
#
# Convention : Reuss Voigt Hill
#
# Bulk Modulus (GPa) = 61.45058 67.82077 64.63567
# Shear Modulus (GPa) = 27.22766 28.97978 28.10372
#
# Velocity S-wave (km/s) = 3.71671 3.83443 3.77603
# Velocity P-wave (km/s) = 7.04240 7.34933 7.19750
#
# Compressibility (1/GPa) = 0.01627324
#
# Stress axis : x y z
#
# Youngs Moduli (GPa) = 73.52110 60.38779 59.32261
#
# Poissons Ratio (x) = 0.25283 0.47151
# Poissons Ratio (y) = 0.30781 0.19205
# Poissons Ratio (z) = 0.58437 0.19550
#
# Static dielectric constant tensor:
#      x y z
#    x 1.720300 0.000000 0.000000 
#    y 0.000000 1.716990 0.000000 
#    z 0.000000 0.000000 1.781510 
# 
# From -- ./inp_files/22059.got.cif
#   From: 2010.05.17/outbox.ucp.g08.bks.cvg/sg20_12_cif.got.tgz:22059.got - 2010.06.11 15:13:06.
