data_PCOD9322289
_publ_section_title
;
Structure prediction by ZEFSAII (Michael W. Deem and Ramdas Pophale) SiO2 
 PCOD9322289
Probable space group: C 2 2 2
;
_chemical_formula_sum "Si O2"
_cell_formula_units_Z 40
_cell_length_a 26.691890
_cell_length_b 5.485323
_cell_length_c 15.762679
_cell_angle_alpha 90.000000
_cell_angle_beta 90.000000
_cell_angle_gamma 90.000000
_cell_volume 2307.871179
_symmetry_space_group_name_H-M "C 2 2 2"
_symmetry_group_IT_number 21
_symmetry_cell_setting 'orthorhombic'
loop_
_space_group_symop_operation_xyz
x,y,z
-x,-y,z
x,-y,-z
-x,y,-z
1/2+x,1/2+y,z
1/2-x,1/2-y,z
1/2+x,1/2-y,-z
1/2-x,1/2+y,-z
loop_
_atom_site_type_symbol
_atom_site_label
_atom_site_fract_x
_atom_site_fract_y
_atom_site_fract_z
Si Si1 0.559041 1.000000 0.103120
Si Si2 0.605478 0.500000 0.098040
Si Si3 0.300835 0.500000 0.333026
Si Si4 0.221688 1.000000 0.133281
Si Si5 0.688640 0.000000 0.400720
O O1 0.584617 0.248106 0.135802
O O2 0.500000 0.000000 0.120424
O O3 0.584617 0.751894 0.135802
O O4 0.565329 0.000000 0.000000
O O5 0.665314 0.500000 0.099763
O O6 0.588314 0.500000 0.000000
O O7 0.283999 0.500000 0.235565
O O8 0.328536 0.250064 0.356465
O O9 0.249168 0.500000 0.387095
O O10 0.328536 0.749936 0.356465
O O11 0.250000 0.750000 0.108684
O O12 0.250000 0.250000 0.108684
O O13 0.677423 0.000000 0.500000
#
# Coordination Sequence:
#
# PCOD9322289 Si02
#       5
#     8   8   8   8   8
#     4   9  17  33  54  72  89 105 133 193 255 292
#     4  10  21  33  48  71  89 114 160 193 225 272
#     4  10  16  27  37  56  78 111 151 184 210 260
#     4  12  21  33  45  58  92 133 162 191 209 252
#     4  10  16  25  41  58  76 101 153 201 217 247
#
# _framework density 17.331990000000001
#
# number of rings (size 3 to 8) (size 9 to 14) (size 15 to 20)
#    0.000    1.800    4.000    4.800    0.000    3.200 
#    0.000    0.000    0.000    0.000    0.000    0.000 
#    0.000    0.000    0.000    0.000    0.000  116.000 
#
# Total GULP energy -111459.295407 kJ/mol
# GULP energy per Si atom -5572.964770 kJ/mol
# Density = 1.729254 g / cm^3
# Si number density = 17.331990 Si / 1000 Ang^3
#
#
#
# Elastic Constant Matrix: (Units=GPa)
#
#
# Indices 1 2 3 4 5 6 
#
# 1 53.8722 58.9862 -10.3910 0.0000 0.0000 0.0000
# 2 58.9862 230.2446 11.6323 0.0000 0.0000 0.0000
# 3 -10.3910 11.6323 28.1368 0.0000 0.0000 0.0000
# 4 0.0000 0.0000 0.0000 -6.2549 0.0000 0.0000
# 5 0.0000 0.0000 0.0000 0.0000 -4.1587 0.0000
# 6 0.0000 0.0000 0.0000 0.0000 0.0000 24.2056
#
#
#
# Elastic Compliance Matrix: (Units=1/GPa)
#
#
# Indices 1 2 3 4 5 6 
#
# 1 0.030988 -0.008699 0.015040 0.000000 0.000000 0.000000
# 2 -0.008699 0.006878 -0.006056 0.000000 0.000000 0.000000
# 3 0.015040 -0.006056 0.043599 0.000000 0.000000 0.000000
# 4 0.000000 0.000000 0.000000 -0.159875 0.000000 0.000000
# 5 0.000000 0.000000 0.000000 0.000000 -0.240460 0.000000
# 6 0.000000 0.000000 0.000000 0.000000 0.000000 0.041313
#
#
# Mechanical properties :
#
#
# Convention : Reuss Voigt Hill
#
# Bulk Modulus (GPa) = 12.18988 48.07875 30.13432
# Shear Modulus (GPa) = -19.93745 19.56013 -0.18866
#
# Velocity S-wave (km/s) = -3.39533 3.36304 -0.33028
# Velocity P-wave (km/s) = 2.88488 6.54830 4.15678
#
# Compressibility (1/GPa) = 0.08203525
#
# Stress axis : x y z
#
# Youngs Moduli (GPa) = 32.27086 145.39877 22.93655
#
# Poissons Ratio (x) = 1.26476 -0.34497
# Poissons Ratio (y) = 0.28071 0.13890
# Poissons Ratio (z) = -0.48535 0.88050
#
# Static dielectric constant tensor:
#      x y z
#    x 1.539910 0.000000 0.000000 
#    y 0.000000 1.711120 0.000000 
#    z 0.000000 0.000000 1.597670 
# 
# From -- ./inp_files/33476.got.cif
#   From: 2010.05.17/outbox.cif.g08.bks.cpg/sg21_17_cif.got.tgz:33476.got - 2010.06.03 23:14:55.
