data_PCOD9322259
_publ_section_title
;
Structure prediction by ZEFSAII (Michael W. Deem and Ramdas Pophale) SiO2 
 PCOD9322259
Probable space group: C 2 2 21
;
_chemical_formula_sum "Si O2"
_cell_formula_units_Z 32
_cell_length_a 12.000000
_cell_length_b 9.000000
_cell_length_c 30.000000
_cell_angle_alpha 90.000000
_cell_angle_beta 90.000000
_cell_angle_gamma 90.000000
_cell_volume 3240.000000
_symmetry_space_group_name_H-M "C 2 2 21"
_symmetry_group_IT_number 20
_symmetry_cell_setting 'orthorhombic'
loop_
_space_group_symop_operation_xyz
x,y,z
-x,-y,1/2+z
x,-y,-z
-x,y,1/2-z
1/2+x,1/2+y,z
1/2-x,1/2-y,1/2+z
1/2+x,1/2-y,-z
1/2-x,1/2+y,1/2-z
loop_
_atom_site_type_symbol
_atom_site_label
_atom_site_fract_x
_atom_site_fract_y
_atom_site_fract_z
Si Si1 0.518205 0.570803 0.546421
Si Si2 0.908429 0.383976 0.381791
Si Si3 0.557021 0.920859 0.548181
Si Si4 0.739598 0.669126 0.836656
Si Si5 0.487930 0.312821 0.197668
Si Si6 0.442645 0.970375 0.202245
Si Si7 0.693428 0.570287 0.086609
Si Si8 0.837535 0.017705 0.132940
O O1 0.558711 0.500000 0.500000
O O2 0.516794 0.749877 0.545804
O O3 0.392893 0.514965 0.554978
O O4 0.595192 0.511277 0.587039
O O5 0.874812 0.218043 0.398198
O O6 0.786287 0.450548 0.371860
O O7 0.979675 0.480442 0.418160
O O8 0.982325 0.396662 0.336827
O O9 0.685652 0.905129 0.564480
O O10 0.553692 0.000000 0.500000
O O11 0.614409 0.705332 0.820729
O O12 0.820386 0.601479 0.799050
O O13 0.721373 0.539262 0.872592
O O14 0.807951 0.810688 0.855927
O O15 0.500000 0.351944 0.250000
O O16 0.413223 0.431850 0.170198
O O17 0.435156 0.147904 0.193408
O O18 0.500000 0.950758 0.250000
#
# Coordination Sequence:
#
# PCOD9322259 Si02
#       8
#     8   8   8   8   8   8   8   8
#     4  12  26  47  70 104 139 182 234 290 351 420
#     4  12  24  47  72 101 141 188 229 290 356 412
#     4  12  27  47  71 103 141 181 234 292 351 423
#     4  12  25  44  73 101 140 189 229 290 352 414
#     4  11  26  46  70 105 141 183 236 292 351 423
#     4  11  25  46  69 105 144 182 235 292 349 421
#     4  12  25  47  73 100 138 185 234 286 350 420
#     4  12  25  46  73 100 143 185 234 288 354 420
#
# _framework density 9.8765429999999999
#
# number of rings (size 3 to 8) (size 9 to 14) (size 15 to 20)
#    0.000    0.250    5.000    4.125    3.500    1.000 
#    2.250    0.000    0.000    0.000    0.000    0.000 
#    0.000    0.000    0.000    0.000    0.000    0.000 
#
# Total GULP energy -178931.371165 kJ/mol
# GULP energy per Si atom -5591.605349 kJ/mol
# Density = 0.985406 g / cm^3
# Si number density = 9.876543 Si / 1000 Ang^3
#
#
#
# Elastic Constant Matrix: (Units=GPa)
#
#
# Indices 1 2 3 4 5 6 
#
# 1 113.2389 49.3184 35.6505 0.0000 0.0000 0.0000
# 2 49.3184 168.1956 60.9112 0.0000 0.0000 0.0000
# 3 35.6505 60.9112 129.3896 0.0000 0.0000 0.0000
# 4 0.0000 0.0000 0.0000 31.7123 0.0000 0.0000
# 5 0.0000 0.0000 0.0000 0.0000 35.4240 0.0000
# 6 0.0000 0.0000 0.0000 0.0000 0.0000 36.6666
#
#
#
# Elastic Compliance Matrix: (Units=1/GPa)
#
#
# Indices 1 2 3 4 5 6 
#
# 1 0.010435 -0.002433 -0.001730 0.000000 0.000000 0.000000
# 2 -0.002433 0.007735 -0.002971 0.000000 0.000000 0.000000
# 3 -0.001730 -0.002971 0.009604 0.000000 0.000000 0.000000
# 4 0.000000 0.000000 0.000000 0.031534 0.000000 0.000000
# 5 0.000000 0.000000 0.000000 0.000000 0.028229 0.000000
# 6 0.000000 0.000000 0.000000 0.000000 0.000000 0.027273
#
#
# Mechanical properties :
#
#
# Convention : Reuss Voigt Hill
#
# Bulk Modulus (GPa) = 74.04080 78.06494 76.05287
# Shear Modulus (GPa) = 37.43097 38.42351 37.92724
#
# Velocity S-wave (km/s) = 4.35782 4.41522 4.38661
# Velocity P-wave (km/s) = 7.93002 8.09928 8.01510
#
# Compressibility (1/GPa) = 0.01350607
#
# Stress axis : x y z
#
# Youngs Moduli (GPa) = 95.82899 129.28513 104.12687
#
# Poissons Ratio (x) = 0.31461 0.18010
# Poissons Ratio (y) = 0.23320 0.30934
# Poissons Ratio (z) = 0.16575 0.38407
#
# Static dielectric constant tensor:
#      x y z
#    x 1.688380 0.000000 0.000000 
#    y 0.000000 1.714910 0.000000 
#    z 0.000000 0.000000 1.703840 
# 
# From -- ./inp_files/31199.got.cif
#   From: 2010.05.17/outbox.ucp.g08.bks.cvg/sg20_16_cif.got.tgz:31199.got - 2010.06.11 15:13:06.
