data_PCOD9322327
_publ_section_title
;
Structure prediction by ZEFSAII (Michael W. Deem and Ramdas Pophale) SiO2 
 PCOD9322327
Probable space group: C 2 2 2
;
_chemical_formula_sum "Si O2"
_cell_formula_units_Z 42
_cell_length_a 13.495757
_cell_length_b 30.069420
_cell_length_c 5.335744
_cell_angle_alpha 90.000000
_cell_angle_beta 90.000000
_cell_angle_gamma 90.000000
_cell_volume 2165.296061
_symmetry_space_group_name_H-M "C 2 2 2"
_symmetry_group_IT_number 21
_symmetry_cell_setting 'orthorhombic'
loop_
_space_group_symop_operation_xyz
x,y,z
-x,-y,z
x,-y,-z
-x,y,-z
1/2+x,1/2+y,z
1/2-x,1/2-y,z
1/2+x,1/2-y,-z
1/2-x,1/2+y,-z
loop_
_atom_site_type_symbol
_atom_site_label
_atom_site_fract_x
_atom_site_fract_y
_atom_site_fract_z
Si Si1 0.161259 0.212536 0.386715
Si Si2 0.628781 0.252083 0.122637
Si Si3 0.208937 0.626991 0.665114
Si Si4 0.595736 0.850426 0.842210
Si Si5 0.000000 0.500000 0.000000
Si Si6 0.806740 0.526774 0.243625
O O1 0.250000 0.250000 0.396142
O O2 0.101993 0.226591 0.141119
O O3 0.208809 0.163870 0.391016
O O4 0.103856 0.218209 0.642288
O O5 0.750000 0.250000 0.110137
O O6 0.589195 0.202851 0.176797
O O7 0.128166 0.631686 0.433596
O O8 0.234424 0.575388 0.697974
O O9 0.177218 0.640482 0.946543
O O10 0.500000 0.867040 0.000000
O O11 0.924270 0.528896 0.167530
O O12 0.798246 0.500000 0.500000
O O13 0.765089 0.500000 0.000000
#
# Coordination Sequence:
#
# PCOD9322327 Si02
#       6
#     8   8   8   8   2   8
#     4  10  16  30  51  66  85 114 154 190 231 290
#     4  10  16  32  47  60  92 121 143 187 233 287
#     4  12  21  34  50  68  87 121 161 208 240 280
#     4  12  23  30  44  73  95 116 155 204 240 271
#     4   8  22  36  46  52  82 124 150 192 248 280
#     4  10  22  36  48  60  83 118 160 198 251 280
#
# _framework density 19.396884
#
# number of rings (size 3 to 8) (size 9 to 14) (size 15 to 20)
#    0.571    0.762    7.619    2.000    1.333    1.524 
#    0.000    0.000    0.000    0.000    0.000    0.000 
#    0.000    0.000    0.000    0.000    0.000   14.286 
#
# Total GULP energy -116908.888613 kJ/mol
# GULP energy per Si atom -5567.089934 kJ/mol
# Density = 1.935274 g / cm^3
# Si number density = 19.396884 Si / 1000 Ang^3
#
#
#
# Elastic Constant Matrix: (Units=GPa)
#
#
# Indices 1 2 3 4 5 6 
#
# 1 24.8507 13.9069 6.4087 0.0000 0.0000 0.0000
# 2 13.9069 160.6375 57.4626 0.0000 0.0000 0.0000
# 3 6.4087 57.4626 136.4501 0.0000 0.0000 0.0000
# 4 0.0000 0.0000 0.0000 5.3357 0.0000 0.0000
# 5 0.0000 0.0000 0.0000 0.0000 15.5633 0.0000
# 6 0.0000 0.0000 0.0000 0.0000 0.0000 5.4466
#
#
#
# Elastic Compliance Matrix: (Units=1/GPa)
#
#
# Indices 1 2 3 4 5 6 
#
# 1 0.042321 -0.003477 -0.000524 0.000000 0.000000 0.000000
# 2 -0.003477 0.007615 -0.003044 0.000000 0.000000 0.000000
# 3 -0.000524 -0.003044 0.008635 0.000000 0.000000 0.000000
# 4 0.000000 0.000000 0.000000 0.187418 0.000000 0.000000
# 5 0.000000 0.000000 0.000000 0.000000 0.064254 0.000000
# 6 0.000000 0.000000 0.000000 0.000000 0.000000 0.183600
#
#
# Mechanical properties :
#
#
# Convention : Reuss Voigt Hill
#
# Bulk Modulus (GPa) = 22.48031 53.05496 37.76763
# Shear Modulus (GPa) = 9.56466 21.54644 15.55555
#
# Velocity S-wave (km/s) = 2.22300 3.33651 2.83496
# Velocity P-wave (km/s) = 4.26659 6.50037 5.49812
#
# Compressibility (1/GPa) = 0.04448338
#
# Stress axis : x y z
#
# Youngs Moduli (GPa) = 23.62897 131.32153 115.80779
#
# Poissons Ratio (x) = 0.45654 0.06064
# Poissons Ratio (y) = 0.08215 0.35247
# Poissons Ratio (z) = 0.01237 0.39968
#
# Static dielectric constant tensor:
#      x y z
#    x 1.764360 0.000000 0.000000 
#    y 0.000000 1.688870 0.000000 
#    z 0.000000 0.000000 1.681830 
# 
# From -- ./inp_files/5915.got.cif
#   From: 2010.05.17/outbox.cif.g08.bks.cpg/sg21_3_cif.got.tgz:5915.got - 2010.06.03 23:14:55.
