data_PCOD9322224
_publ_section_title
;
Structure prediction by ZEFSAII (Michael W. Deem and Ramdas Pophale) SiO2 
 PCOD9322224
Probable space group: C 2 2 21
;
_chemical_formula_sum "Si O2"
_cell_formula_units_Z 28
_cell_length_a 12.000000
_cell_length_b 15.000000
_cell_length_c 15.000000
_cell_angle_alpha 90.000000
_cell_angle_beta 90.000000
_cell_angle_gamma 90.000000
_cell_volume 2700.000000
_symmetry_space_group_name_H-M "C 2 2 21"
_symmetry_group_IT_number 20
_symmetry_cell_setting 'orthorhombic'
loop_
_space_group_symop_operation_xyz
x,y,z
-x,-y,1/2+z
x,-y,-z
-x,y,1/2-z
1/2+x,1/2+y,z
1/2-x,1/2-y,1/2+z
1/2+x,1/2-y,-z
1/2-x,1/2+y,1/2-z
loop_
_atom_site_type_symbol
_atom_site_label
_atom_site_fract_x
_atom_site_fract_y
_atom_site_fract_z
Si Si1 0.474304 0.160435 0.512623
Si Si2 0.340476 0.816277 0.309770
Si Si3 0.129862 0.871662 0.727807
Si Si4 0.230540 0.967708 0.185577
Si Si5 0.000000 0.879061 0.250000
Si Si6 0.856803 0.500000 0.000000
Si Si7 0.253024 0.409879 0.959158
Si Si8 0.118984 0.198761 0.586181
O O1 0.436950 0.162039 0.617260
O O2 0.355394 0.154672 0.460279
O O3 0.549719 0.243813 0.483964
O O4 0.556899 0.080859 0.484478
O O5 0.364009 0.734594 0.243220
O O6 0.304077 0.904714 0.253325
O O7 0.238847 0.777003 0.370781
O O8 0.178389 0.901797 0.631844
O O9 0.000000 0.893991 0.750000
O O10 0.213329 0.928288 0.790435
O O11 0.105668 0.930727 0.206907
O O12 0.281926 0.969753 0.085720
O O13 0.955831 0.819280 0.170480
O O14 0.201523 0.500000 0.000000
O O15 0.344929 0.389435 0.034192
#
# Coordination Sequence:
#
# PCOD9322224 Si02
#       8
#     8   8   8   8   4   4   8   8
#     4  11  24  46  68 107 142 194 243 302 375 444
#     4  10  25  46  71 104 153 188 244 314 379 448
#     4  12  25  44  72 108 135 193 250 296 380 444
#     4  11  26  46  70 105 151 188 254 309 376 447
#     4  10  22  46  66 102 140 194 230 320 372 420
#     4  12  28  44  72 102 148 196 256 300 372 464
#     4  11  24  44  69  99 145 188 239 297 368 444
#     4  10  23  41  71  97 139 185 238 289 365 432
#
# _framework density 10.370369999999999
#
# number of rings (size 3 to 8) (size 9 to 14) (size 15 to 20)
#    0.000    1.143    1.429    4.286    8.000    3.429 
#    0.000    0.000    0.000    0.000    0.000    0.000 
#    0.000    0.000    0.000    0.000    0.000    0.000 
#
# Total GULP energy -155905.820952 kJ/mol
# GULP energy per Si atom -5568.065034 kJ/mol
# Density = 1.034677 g / cm^3
# Si number density = 10.370370 Si / 1000 Ang^3
#
#
#
# Elastic Constant Matrix: (Units=GPa)
#
#
# Indices 1 2 3 4 5 6 
#
# 1 95.0078 21.4166 52.1186 0.0000 0.0000 0.0000
# 2 21.4166 66.8474 7.7233 0.0000 0.0000 0.0000
# 3 52.1186 7.7233 110.8299 0.0000 0.0000 0.0000
# 4 0.0000 0.0000 0.0000 26.4206 0.0000 0.0000
# 5 0.0000 0.0000 0.0000 0.0000 44.9222 0.0000
# 6 0.0000 0.0000 0.0000 0.0000 0.0000 -13.3892
#
#
#
# Elastic Compliance Matrix: (Units=1/GPa)
#
#
# Indices 1 2 3 4 5 6 
#
# 1 0.015214 -0.004081 -0.006870 0.000000 0.000000 0.000000
# 2 -0.004081 0.016175 0.000792 0.000000 0.000000 0.000000
# 3 -0.006870 0.000792 0.012198 0.000000 0.000000 0.000000
# 4 0.000000 0.000000 0.000000 0.037849 0.000000 0.000000
# 5 0.000000 0.000000 0.000000 0.000000 0.022261 0.000000
# 6 0.000000 0.000000 0.000000 0.000000 0.000000 -0.074687
#
#
# Mechanical properties :
#
#
# Convention : Reuss Voigt Hill
#
# Bulk Modulus (GPa) = 42.97421 48.35581 45.66501
# Shear Modulus (GPa) = 87.58789 24.35248 55.97019
#
# Velocity S-wave (km/s) = 6.50550 3.43029 5.20040
# Velocity P-wave (km/s) = 8.78598 6.24933 7.62390
#
# Compressibility (1/GPa) = 0.02326977
#
# Stress axis : x y z
#
# Youngs Moduli (GPa) = 65.72861 61.82266 81.97784
#
# Poissons Ratio (x) = 0.25227 0.56320
# Poissons Ratio (y) = 0.26821 -0.06490
# Poissons Ratio (z) = 0.45157 -0.04895
#
# Static dielectric constant tensor:
#      x y z
#    x 1.738610 0.000000 0.000000 
#    y 0.000000 1.825020 0.000000 
#    z 0.000000 0.000000 1.791640 
# 
# From -- ./inp_files/20085.got.cif
#   From: 2010.05.17/outbox.ucp.g08.bks.cvg/sg20_11_cif.got.tgz:20085.got - 2010.06.11 15:13:06.
