data_PCOD9322948
_publ_section_title
;
Structure prediction by ZEFSAII (Michael W. Deem and Ramdas Pophale) SiO2 
 PCOD9322948
Probable space group: C 2 2 2
;
_chemical_formula_sum "Si O2"
_cell_formula_units_Z 64
_cell_length_a 14.234009
_cell_length_b 18.037638
_cell_length_c 12.002039
_cell_angle_alpha 90.000000
_cell_angle_beta 90.000000
_cell_angle_gamma 90.000000
_cell_volume 3081.498329
_symmetry_space_group_name_H-M "C 2 2 2"
_symmetry_group_IT_number 21
_symmetry_cell_setting 'orthorhombic'
loop_
_space_group_symop_operation_xyz
x,y,z
-x,-y,z
x,-y,-z
-x,y,-z
1/2+x,1/2+y,z
1/2-x,1/2-y,z
1/2+x,1/2-y,-z
1/2-x,1/2+y,-z
loop_
_atom_site_type_symbol
_atom_site_label
_atom_site_fract_x
_atom_site_fract_y
_atom_site_fract_z
Si Si1 0.683796 0.822090 0.837270
Si Si2 0.014780 0.177986 0.372607
Si Si3 0.866628 0.047343 0.393583
Si Si4 0.978840 0.315429 0.796482
Si Si5 0.104738 0.414801 0.376299
Si Si6 0.156761 0.585882 0.388585
Si Si7 0.808745 0.904467 0.279668
Si Si8 0.781738 0.664881 0.075031
O O1 0.750000 0.750000 0.818900
O O2 0.574305 0.807600 0.865624
O O3 0.673336 0.867517 0.723040
O O4 0.719965 0.863430 0.947811
O O5 0.014697 0.243809 0.283628
O O6 0.115565 0.141695 0.348971
O O7 0.000000 0.203283 0.500000
O O8 0.936184 0.113117 0.358762
O O9 0.764541 0.076084 0.429948
O O10 0.901808 0.000000 0.500000
O O11 0.842811 0.988982 0.295600
O O12 0.972647 0.382825 0.706926
O O13 0.886337 0.329517 0.871099
O O14 0.113354 0.503819 0.371847
O O15 0.101973 0.385601 0.502744
O O16 0.206286 0.390496 0.330666
O O17 0.791014 0.878882 0.153451
O O18 0.750000 0.750000 0.070149
#
# Coordination Sequence:
#
# PCOD9322948 Si02
#       8
#     8   8   8   8   8   8   8   8
#     4  11  25  41  65  92 124 174 233 289 336 398
#     4  12  22  31  57  99 141 170 206 271 332 425
#     4  11  19  36  58  92 139 176 216 258 341 412
#     4  11  24  40  61  97 129 169 220 282 338 411
#     4   9  20  38  64  88 130 166 209 265 342 413
#     4  10  19  41  62  89 129 180 211 272 343 406
#     4  10  19  36  60  91 125 174 215 260 330 406
#     4  10  21  44  65  88 125 178 228 280 338 389
#
# _framework density 20.769117000000001
#
# number of rings (size 3 to 8) (size 9 to 14) (size 15 to 20)
#    0.000    1.500    5.000    1.500    1.750    0.500 
#    0.000    6.875    0.000    4.500    0.000    3.500 
#    0.000    0.000    0.000    0.000    0.000    0.000 
#
# Total GULP energy -178396.666178 kJ/mol
# GULP energy per Si atom -5574.895818 kJ/mol
# Density = 2.072185 g / cm^3
# Si number density = 20.769117 Si / 1000 Ang^3
#
#
#
# Elastic Constant Matrix: (Units=GPa)
#
#
# Indices 1 2 3 4 5 6 
#
# 1 108.4864 23.0857 20.3249 0.0000 0.0000 0.0000
# 2 23.0857 58.3819 40.6508 0.0000 0.0000 0.0000
# 3 20.3249 40.6508 138.8029 0.0000 0.0000 0.0000
# 4 0.0000 0.0000 0.0000 21.1952 0.0000 0.0000
# 5 0.0000 0.0000 0.0000 0.0000 24.6535 0.0000
# 6 0.0000 0.0000 0.0000 0.0000 0.0000 30.0458
#
#
#
# Elastic Compliance Matrix: (Units=1/GPa)
#
#
# Indices 1 2 3 4 5 6 
#
# 1 0.010081 -0.003716 -0.000388 0.000000 0.000000 0.000000
# 2 -0.003716 0.022886 -0.006158 0.000000 0.000000 0.000000
# 3 -0.000388 -0.006158 0.009065 0.000000 0.000000 0.000000
# 4 0.000000 0.000000 0.000000 0.047180 0.000000 0.000000
# 5 0.000000 0.000000 0.000000 0.000000 0.040562 0.000000
# 6 0.000000 0.000000 0.000000 0.000000 0.000000 0.033283
#
#
# Mechanical properties :
#
#
# Convention : Reuss Voigt Hill
#
# Bulk Modulus (GPa) = 46.49623 52.64378 49.57001
# Shear Modulus (GPa) = 26.21209 29.95289 28.08249
#
# Velocity S-wave (km/s) = 3.55642 3.80173 3.68112
# Velocity P-wave (km/s) = 6.26897 6.68379 6.47970
#
# Compressibility (1/GPa) = 0.02150712
#
# Stress axis : x y z
#
# Youngs Moduli (GPa) = 99.19418 43.69443 110.31633
#
# Poissons Ratio (x) = 0.16238 0.04278
# Poissons Ratio (y) = 0.36864 0.67937
# Poissons Ratio (z) = 0.03847 0.26909
#
# Static dielectric constant tensor:
#      x y z
#    x 1.793030 0.000000 0.000000 
#    y 0.000000 1.786460 0.000000 
#    z 0.000000 0.000000 1.874740 
# 
# From -- ./inp_files/25467.got.cif
#   From: 2010.05.17/outbox.cif.g08.bks.cpg/sg21_13_cif.got.tgz:25467.got - 2010.06.03 23:14:55.
