data_PCOD9322175
_publ_section_title
;
Structure prediction by ZEFSAII (Michael W. Deem and Ramdas Pophale) SiO2 
 PCOD9322175
Probable space group: C 2 2 21
;
_chemical_formula_sum "Si O2"
_cell_formula_units_Z 32
_cell_length_a 21.000000
_cell_length_b 9.000000
_cell_length_c 18.000000
_cell_angle_alpha 90.000000
_cell_angle_beta 90.000000
_cell_angle_gamma 90.000000
_cell_volume 3402.000000
_symmetry_space_group_name_H-M "C 2 2 21"
_symmetry_group_IT_number 20
_symmetry_cell_setting 'orthorhombic'
loop_
_space_group_symop_operation_xyz
x,y,z
-x,-y,1/2+z
x,-y,-z
-x,y,1/2-z
1/2+x,1/2+y,z
1/2-x,1/2-y,1/2+z
1/2+x,1/2-y,-z
1/2-x,1/2+y,1/2-z
loop_
_atom_site_type_symbol
_atom_site_label
_atom_site_fract_x
_atom_site_fract_y
_atom_site_fract_z
Si Si1 0.524129 0.964238 0.333058
Si Si2 0.669193 0.928756 0.326345
Si Si3 0.298634 0.730703 0.648749
Si Si4 0.672233 0.280597 0.323811
Si Si5 0.916061 0.631448 0.553253
Si Si6 0.079312 0.121697 0.940549
Si Si7 0.471866 0.675577 0.831032
Si Si8 0.302637 0.917876 0.349366
O O1 0.500000 0.928121 0.250000
O O2 0.595058 0.898830 0.345373
O O3 0.472314 0.910568 0.391390
O O4 0.524229 0.144332 0.338492
O O5 0.728021 0.838648 0.362847
O O6 0.677838 0.904626 0.237506
O O7 0.675367 0.105162 0.341347
O O8 0.315915 0.707860 0.735376
O O9 0.356866 0.659428 0.604145
O O10 0.301907 0.906621 0.633939
O O11 0.603380 0.351811 0.339715
O O12 0.731950 0.358487 0.361412
O O13 0.893996 0.500000 0.500000
O O14 0.941483 0.745754 0.493872
O O15 0.854574 0.669753 0.602446
O O16 0.019454 0.094783 0.887304
O O17 0.095835 0.000000 0.000000
O O18 0.500000 0.640671 0.750000
#
# Coordination Sequence:
#
# PCOD9322175 Si02
#       8
#     8   8   8   8   8   8   8   8
#     4  10  18  36  64  92 116 155 209 256 290 354
#     4   9  19  34  60  90 119 147 198 254 295 338
#     4  10  19  38  58  87 119 154 194 247 299 353
#     4   9  19  34  64  89 113 150 203 249 288 348
#     4  12  22  39  63  87 119 160 203 245 306 364
#     4  12  26  41  59  89 126 164 198 251 314 369
#     4  10  18  38  65  88 116 161 206 245 299 364
#     4  10  19  36  59  88 116 155 199 244 294 360
#
# _framework density 9.4062319999999993
#
# number of rings (size 3 to 8) (size 9 to 14) (size 15 to 20)
#    0.000    1.750    5.000    0.000    1.750    0.000 
#    2.250    3.125    0.000    0.000    0.000    0.000 
#    0.000    0.000    0.000    0.000    0.000    0.000 
#
# Total GULP energy -178311.264704 kJ/mol
# GULP energy per Si atom -5572.227022 kJ/mol
# Density = 0.938482 g / cm^3
# Si number density = 9.406232 Si / 1000 Ang^3
#
#
#
# Elastic Constant Matrix: (Units=GPa)
#
#
# Indices 1 2 3 4 5 6 
#
# 1 176.7674 5.6828 46.7909 0.0000 0.0000 0.0000
# 2 5.6828 -6.2245 19.1541 0.0000 0.0000 0.0000
# 3 46.7909 19.1541 49.9424 0.0000 0.0000 0.0000
# 4 0.0000 0.0000 0.0000 9.0623 0.0000 0.0000
# 5 0.0000 0.0000 0.0000 0.0000 27.8877 0.0000
# 6 0.0000 0.0000 0.0000 0.0000 0.0000 29.9566
#
#
#
# Elastic Compliance Matrix: (Units=1/GPa)
#
#
# Indices 1 2 3 4 5 6 
#
# 1 0.006944 -0.006275 -0.004099 0.000000 0.000000 0.000000
# 2 -0.006275 -0.068019 0.031966 0.000000 0.000000 0.000000
# 3 -0.004099 0.031966 0.011604 0.000000 0.000000 0.000000
# 4 0.000000 0.000000 0.000000 0.110348 0.000000 0.000000
# 5 0.000000 0.000000 0.000000 0.000000 0.035858 0.000000
# 6 0.000000 0.000000 0.000000 0.000000 0.000000 0.033382
#
#
# Mechanical properties :
#
#
# Convention : Reuss Voigt Hill
#
# Bulk Modulus (GPa) = -159.03752 40.41566 -59.31093
# Shear Modulus (GPa) = 58.93683 23.30515 41.12099
#
# Velocity S-wave (km/s) = 5.60327 3.52350 4.68037
# Velocity P-wave (km/s) = 6.54674 6.17118 1.54536
#
# Compressibility (1/GPa) = -0.00628782
#
# Stress axis : x y z
#
# Youngs Moduli (GPa) = 144.00988 -14.70170 86.17665
#
# Poissons Ratio (x) = -0.09225 0.35326
# Poissons Ratio (y) = 0.90362 -2.75470
# Poissons Ratio (z) = 0.59034 0.46995
#
# Static dielectric constant tensor:
#      x y z
#    x 1.637700 0.000000 0.000000 
#    y 0.000000 1.649660 0.000000 
#    z 0.000000 0.000000 1.624060 
# 
# From -- ./inp_files/25503.got.cif
#   From: 2010.05.17/outbox.ucp.g08.bks.cvg/sg20_13_cif.got.tgz:25503.got - 2010.06.11 15:13:06.
