data_PCOD9322465
_publ_section_title
;
Structure prediction by ZEFSAII (Michael W. Deem and Ramdas Pophale) SiO2 
 PCOD9322465
Probable space group: C 2 2 2
;
_chemical_formula_sum "Si O2"
_cell_formula_units_Z 48
_cell_length_a 11.348471
_cell_length_b 11.925444
_cell_length_c 16.477923
_cell_angle_alpha 90.000000
_cell_angle_beta 90.000000
_cell_angle_gamma 90.000000
_cell_volume 2230.048861
_symmetry_space_group_name_H-M "C 2 2 2"
_symmetry_group_IT_number 21
_symmetry_cell_setting 'orthorhombic'
loop_
_space_group_symop_operation_xyz
x,y,z
-x,-y,z
x,-y,-z
-x,y,-z
1/2+x,1/2+y,z
1/2-x,1/2-y,z
1/2+x,1/2-y,-z
1/2-x,1/2+y,-z
loop_
_atom_site_type_symbol
_atom_site_label
_atom_site_fract_x
_atom_site_fract_y
_atom_site_fract_z
Si Si1 0.975714 0.134884 0.090299
Si Si2 0.835825 0.147912 0.774970
Si Si3 0.727481 0.619887 0.544965
Si Si4 0.969135 0.849982 0.664763
Si Si5 0.077877 0.389747 0.687736
Si Si6 0.775504 0.095807 0.196317
O O1 0.839865 0.144423 0.117593
O O2 0.066844 0.181576 0.157285
O O3 0.000000 0.000000 0.092513
O O4 0.000000 0.176278 0.000000
O O5 0.750000 0.250000 0.757493
O O6 0.908240 0.101568 0.696469
O O7 0.769546 0.038935 0.808527
O O8 0.740952 0.500000 0.500000
O O9 0.750000 0.750000 0.511502
O O10 0.595259 0.621716 0.581788
O O11 0.822314 0.609280 0.618115
O O12 0.998073 0.718148 0.666790
O O13 0.870264 0.872524 0.733481
O O14 0.148703 0.369037 0.771365
O O15 0.000000 0.500000 0.689710
#
# Coordination Sequence:
#
# PCOD9322465 Si02
#       6
#     8   8   8   8   8   8
#     4   8  15  29  48  71 102 142 182 219 270 329
#     4  10  18  30  51  79 106 134 179 231 274 320
#     4   9  19  37  59  82 112 148 187 230 285 347
#     4   9  18  34  54  77 105 138 179 224 273 332
#     4  10  19  33  55  81 107 139 181 227 279 334
#     4   9  17  31  52  74 103 139 179 225 266 322
#
# _framework density 21.524193
#
# number of rings (size 3 to 8) (size 9 to 14) (size 15 to 20)
#    0.000    2.833    0.000    4.000    0.000    0.333 
#    0.000   11.667    0.000   22.000    0.000   12.833 
#    0.000    1.333    0.000    0.000    0.000    0.000 
#
# Total GULP energy -133667.905135 kJ/mol
# GULP energy per Si atom -5569.496047 kJ/mol
# Density = 2.147520 g / cm^3
# Si number density = 21.524193 Si / 1000 Ang^3
#
#
#
# Elastic Constant Matrix: (Units=GPa)
#
#
# Indices 1 2 3 4 5 6 
#
# 1 65.3191 38.7719 14.5760 0.0000 0.0000 0.0000
# 2 38.7719 122.0541 27.3468 0.0000 0.0000 0.0000
# 3 14.5760 27.3468 49.7140 0.0000 0.0000 0.0000
# 4 0.0000 0.0000 0.0000 15.8211 0.0000 0.0000
# 5 0.0000 0.0000 0.0000 0.0000 17.2184 0.0000
# 6 0.0000 0.0000 0.0000 0.0000 0.0000 35.6218
#
#
#
# Elastic Compliance Matrix: (Units=1/GPa)
#
#
# Indices 1 2 3 4 5 6 
#
# 1 0.019154 -0.005505 -0.002588 0.000000 0.000000 0.000000
# 2 -0.005505 0.010927 -0.004397 0.000000 0.000000 0.000000
# 3 -0.002588 -0.004397 0.023292 0.000000 0.000000 0.000000
# 4 0.000000 0.000000 0.000000 0.063207 0.000000 0.000000
# 5 0.000000 0.000000 0.000000 0.000000 0.058077 0.000000
# 6 0.000000 0.000000 0.000000 0.000000 0.000000 0.028073
#
#
# Mechanical properties :
#
#
# Convention : Reuss Voigt Hill
#
# Bulk Modulus (GPa) = 35.21767 44.27520 39.74644
# Shear Modulus (GPa) = 21.08155 24.15844 22.61999
#
# Velocity S-wave (km/s) = 3.13299 3.35384 3.24529
# Velocity P-wave (km/s) = 5.43000 5.96760 5.70514
#
# Compressibility (1/GPa) = 0.02839484
#
# Stress axis : x y z
#
# Youngs Moduli (GPa) = 52.20709 91.51774 42.93252
#
# Poissons Ratio (x) = 0.50379 0.11111
# Poissons Ratio (y) = 0.28739 0.18876
# Poissons Ratio (z) = 0.13511 0.40237
#
# Static dielectric constant tensor:
#      x y z
#    x 1.808970 0.000000 0.000000 
#    y 0.000000 1.859740 0.000000 
#    z 0.000000 0.000000 1.824780 
# 
# From -- ./inp_files/36164.got.cif
#   From: 2010.05.17/outbox.cif.g08.bks.cpg/sg21_19_cif.got.tgz:36164.got - 2010.06.03 23:14:55.
