data_PCOD9322437
_publ_section_title
;
Structure prediction by ZEFSAII (Michael W. Deem and Ramdas Pophale) SiO2 
 PCOD9322437
Probable space group: C 2 2 2
;
_chemical_formula_sum "Si O2"
_cell_formula_units_Z 52
_cell_length_a 8.340310
_cell_length_b 16.903373
_cell_length_c 19.197789
_cell_angle_alpha 90.000000
_cell_angle_beta 90.000000
_cell_angle_gamma 90.000000
_cell_volume 2706.492215
_symmetry_space_group_name_H-M "C 2 2 2"
_symmetry_group_IT_number 21
_symmetry_cell_setting 'orthorhombic'
loop_
_space_group_symop_operation_xyz
x,y,z
-x,-y,z
x,-y,-z
-x,y,-z
1/2+x,1/2+y,z
1/2-x,1/2-y,z
1/2+x,1/2-y,-z
1/2-x,1/2+y,-z
loop_
_atom_site_type_symbol
_atom_site_label
_atom_site_fract_x
_atom_site_fract_y
_atom_site_fract_z
Si Si1 0.500000 0.403586 0.264100
Si Si2 1.000000 0.133737 0.895598
Si Si3 0.242805 0.584905 0.000000
Si Si4 0.500000 0.775017 0.000000
Si Si5 0.681526 0.903569 0.350413
Si Si6 0.312800 0.403542 0.500000
Si Si7 0.181526 0.403569 0.649587
O O1 0.500000 0.500000 0.260585
O O2 0.500000 0.369529 0.186481
O O3 0.335164 0.379936 0.303633
O O4 0.664836 0.379936 0.303633
O O5 1.000000 0.219675 0.932170
O O6 0.849889 0.090304 0.930761
O O7 0.150110 0.090304 0.930761
O O8 0.145645 0.665061 0.000000
O O9 0.162592 0.500000 0.000000
O O10 0.723394 0.878947 0.429523
O O11 0.500000 0.877696 0.330756
O O12 0.679802 0.000000 0.349087
O O13 0.313632 0.500000 0.500000
O O14 0.500000 0.379234 0.500000
O O15 0.223394 0.378947 0.570478
#
# Coordination Sequence:
#
# PCOD9322437 Si02
#       7
#     8   8   8   4   8   8   8
#     4  10  18  29  44  65 100 143 188 232 280 334
#     4  10  19  35  55  78 112 156 183 218 282 347
#     4  10  19  36  61  86 108 138 188 232 271 330
#     4  10  21  38  61  88 114 140 184 230 281 332
#     4   9  16  25  38  59  90 133 185 240 287 332
#     4   9  13  21  37  56  83 129 186 236 287 334
#     4   9  16  25  38  59  90 133 185 240 287 332
#
# _framework density 19.213059999999999
#
# number of rings (size 3 to 8) (size 9 to 14) (size 15 to 20)
#    0.000    2.615    1.538    4.385    0.000    1.846 
#    2.769    0.000    0.000    0.000    0.000    0.000 
#    0.000    0.000    0.000   22.154    0.000   24.000 
#
# Total GULP energy -144816.524994 kJ/mol
# GULP energy per Si atom -5569.866346 kJ/mol
# Density = 1.916933 g / cm^3
# Si number density = 19.213060 Si / 1000 Ang^3
#
#
#
# Elastic Constant Matrix: (Units=GPa)
#
#
# Indices 1 2 3 4 5 6 
#
# 1 177.8156 32.7970 91.3492 0.0000 0.0000 0.0000
# 2 32.7970 70.2485 25.8813 0.0000 0.0000 0.0000
# 3 91.3492 25.8813 180.2001 0.0000 0.0000 0.0000
# 4 0.0000 0.0000 0.0000 -29.4106 0.0000 0.0000
# 5 0.0000 0.0000 0.0000 0.0000 75.5249 0.0000
# 6 0.0000 0.0000 0.0000 0.0000 0.0000 34.6078
#
#
#
# Elastic Compliance Matrix: (Units=1/GPa)
#
#
# Indices 1 2 3 4 5 6 
#
# 1 0.007956 -0.002353 -0.003695 0.000000 0.000000 0.000000
# 2 -0.002353 0.015726 -0.001066 0.000000 0.000000 0.000000
# 3 -0.003695 -0.001066 0.007576 0.000000 0.000000 0.000000
# 4 0.000000 0.000000 0.000000 -0.034001 0.000000 0.000000
# 5 0.000000 0.000000 0.000000 0.000000 0.013241 0.000000
# 6 0.000000 0.000000 0.000000 0.000000 0.000000 0.028895
#
#
# Mechanical properties :
#
#
# Convention : Reuss Voigt Hill
#
# Bulk Modulus (GPa) = 58.72018 80.92435 69.82226
# Shear Modulus (GPa) = 84.31974 34.69352 59.50663
#
# Velocity S-wave (km/s) = 6.63189 4.25399 5.57128
# Velocity P-wave (km/s) = 9.44836 8.14491 8.82075
#
# Compressibility (1/GPa) = 0.01702992
#
# Stress axis : x y z
#
# Youngs Moduli (GPa) = 125.68824 63.58710 132.00038
#
# Poissons Ratio (x) = 0.14963 0.48778
# Poissons Ratio (y) = 0.29575 0.14070
# Poissons Ratio (z) = 0.46445 0.06778
#
# Static dielectric constant tensor:
#      x y z
#    x 1.767790 0.000000 0.000000 
#    y 0.000000 1.660960 0.000000 
#    z 0.000000 0.000000 1.625800 
# 
# From -- ./inp_files/35792.got.cif
#   From: 2010.05.17/outbox.cif.g08.bks.cpg/sg21_18_cif.got.tgz:35792.got - 2010.06.03 23:14:55.
