data_PCOD9322318
_publ_section_title
;
Structure prediction by ZEFSAII (Michael W. Deem and Ramdas Pophale) SiO2 
 PCOD9322318
Probable space group: C 2 2 2
;
_chemical_formula_sum "Si O2"
_cell_formula_units_Z 48
_cell_length_a 20.916648
_cell_length_b 18.513333
_cell_length_c 5.343301
_cell_angle_alpha 90.000000
_cell_angle_beta 90.000000
_cell_angle_gamma 90.000000
_cell_volume 2069.123153
_symmetry_space_group_name_H-M "C 2 2 2"
_symmetry_group_IT_number 21
_symmetry_cell_setting 'orthorhombic'
loop_
_space_group_symop_operation_xyz
x,y,z
-x,-y,z
x,-y,-z
-x,y,-z
1/2+x,1/2+y,z
1/2-x,1/2-y,z
1/2+x,1/2-y,-z
1/2-x,1/2+y,-z
loop_
_atom_site_type_symbol
_atom_site_label
_atom_site_fract_x
_atom_site_fract_y
_atom_site_fract_z
Si Si1 0.243308 0.836186 0.062122
Si Si2 0.461087 0.187887 0.759162
Si Si3 0.909103 0.840832 0.910082
Si Si4 0.925678 0.469014 0.253071
Si Si5 0.090933 0.080985 0.416254
Si Si6 0.246771 0.916473 0.562316
O O1 0.250000 0.750000 0.032084
O O2 0.167084 0.848198 0.075902
O O3 0.267296 0.866792 0.327618
O O4 0.269586 0.881098 0.824175
O O5 0.500000 0.203721 0.500000
O O6 0.427056 0.257150 0.879979
O O7 0.420969 0.116403 0.708609
O O8 0.500000 0.160035 0.000000
O O9 0.931963 0.872655 0.649178
O O10 0.932028 0.885088 0.153660
O O11 0.895178 0.500000 0.500000
O O12 0.000000 0.500000 0.252978
O O13 0.896893 0.500000 0.000000
O O14 0.168674 0.085504 0.414444
O O15 0.074623 0.000000 0.500000
O O16 0.260095 0.000000 0.500000
#
# Coordination Sequence:
#
# PCOD9322318 Si02
#       6
#     8   8   8   8   8   8
#     4  10  19  33  53  77 109 141 170 217 274 324
#     4  12  21  33  53  76 106 136 168 226 265 306
#     4  10  21  33  51  82 105 132 177 218 268 320
#     4  10  16  30  49  73  93 124 177 213 244 288
#     4   9  17  33  54  75 103 131 173 222 254 307
#     4   9  17  30  52  80  99 133 182 223 254 299
#
# _framework density 23.198232999999998
#
# number of rings (size 3 to 8) (size 9 to 14) (size 15 to 20)
#    0.000    2.000    3.333    2.500    0.000    4.000 
#    0.000    0.000    0.000   10.500    0.000    0.000 
#    0.000    0.000    0.000    0.000    0.000    0.000 
#
# Total GULP energy -133923.129118 kJ/mol
# GULP energy per Si atom -5580.130380 kJ/mol
# Density = 2.314543 g / cm^3
# Si number density = 23.198233 Si / 1000 Ang^3
#
#
#
# Elastic Constant Matrix: (Units=GPa)
#
#
# Indices 1 2 3 4 5 6 
#
# 1 57.9209 -14.5621 12.9407 0.0000 0.0000 0.0000
# 2 -14.5621 167.7371 67.7493 0.0000 0.0000 0.0000
# 3 12.9407 67.7493 215.5206 0.0000 0.0000 0.0000
# 4 0.0000 0.0000 0.0000 53.2046 0.0000 0.0000
# 5 0.0000 0.0000 0.0000 0.0000 4.0094 0.0000
# 6 0.0000 0.0000 0.0000 0.0000 0.0000 -400.8352
#
#
#
# Elastic Compliance Matrix: (Units=1/GPa)
#
#
# Indices 1 2 3 4 5 6 
#
# 1 0.018257 0.002323 -0.001826 0.000000 0.000000 0.000000
# 2 0.002323 0.007124 -0.002379 0.000000 0.000000 0.000000
# 3 -0.001826 -0.002379 0.005497 0.000000 0.000000 0.000000
# 4 0.000000 0.000000 0.000000 0.018795 0.000000 0.000000
# 5 0.000000 0.000000 0.000000 0.000000 0.249417 0.000000
# 6 0.000000 0.000000 0.000000 0.000000 0.000000 -0.002495
#
#
# Mechanical properties :
#
#
# Convention : Reuss Voigt Hill
#
# Bulk Modulus (GPa) = 36.88242 63.71496 50.29869
# Shear Modulus (GPa) = 16.16035 -43.72086 -13.78025
#
# Velocity S-wave (km/s) = 2.64222 -4.34598 -2.43990
# Velocity P-wave (km/s) = 5.02412 1.53025 3.71372
#
# Compressibility (1/GPa) = 0.02711319
#
# Stress axis : x y z
#
# Youngs Moduli (GPa) = 54.77380 140.36619 181.90338
#
# Poissons Ratio (x) = -0.32602 0.33222
# Poissons Ratio (y) = -0.12722 0.43274
# Poissons Ratio (z) = 0.10004 0.33393
#
# Static dielectric constant tensor:
#      x y z
#    x 1.943780 0.000000 0.000000 
#    y 0.000000 2.204170 0.000000 
#    z 0.000000 0.000000 1.949270 
# 
# From -- ./inp_files/7332.got.cif
#   From: 2010.05.17/outbox.cif.g08.bks.cpg/sg21_4_cif.got.tgz:7332.got - 2010.06.03 23:14:55.
