data_PCOD9322047
_publ_section_title
;
Structure prediction by ZEFSAII (Michael W. Deem and Ramdas Pophale) SiO2 
 PCOD9322047
Probable space group: C 2 2 21
;
_chemical_formula_sum "Si O2"
_cell_formula_units_Z 20
_cell_length_a 10.784879
_cell_length_b 14.150002
_cell_length_c 5.045662
_cell_angle_alpha 90.000000
_cell_angle_beta 90.000000
_cell_angle_gamma 90.000000
_cell_volume 769.998595
_symmetry_space_group_name_H-M "C 2 2 21"
_symmetry_group_IT_number 20
_symmetry_cell_setting 'orthorhombic'
loop_
_space_group_symop_operation_xyz
x,y,z
-x,-y,1/2+z
x,-y,-z
-x,y,1/2-z
1/2+x,1/2+y,z
1/2-x,1/2-y,1/2+z
1/2+x,1/2-y,-z
1/2-x,1/2+y,1/2-z
loop_
_atom_site_type_symbol
_atom_site_label
_atom_site_fract_x
_atom_site_fract_y
_atom_site_fract_z
Si Si1 0.203263 0.000000 0.500000
Si Si2 0.000000 0.125988 0.250000
Si Si3 0.500000 0.242562 0.250000
Si Si4 0.378493 0.104294 0.899179
O O1 0.276012 0.077348 0.680204
O O2 0.116911 0.059770 0.306233
O O3 0.970199 0.188105 0.507324
O O4 0.616080 0.176665 0.351709
O O5 0.500000 0.138870 0.750000
O O6 0.409182 0.000000 0.000000
#
# Coordination Sequence:
#
# PCOD9322047 Si02
#       4
#     4   4   4   8
#     4  12  30  58  90 116 182 240 282 344 460 528
#     4  12  31  57  84 130 176 232 284 359 437 534
#     4  12  27  57  84 130 172 210 308 357 421 504
#     4  12  24  54  88 124 166 226 284 352 431 511
#
# _framework density 25.974074999999999
#
# number of rings (size 3 to 8) (size 9 to 14) (size 15 to 20)
#    0.000    0.000    6.000    1.200    8.400    0.000 
#   14.400    0.000    0.000    0.000    0.000    0.000 
#    0.000    0.000    0.000    0.000    0.000    0.000 
#
# Total GULP energy -55904.617983 kJ/mol
# GULP energy per Si atom -5590.461798 kJ/mol
# Density = 2.591496 g / cm^3
# Si number density = 25.974075 Si / 1000 Ang^3
#
#
#
# Elastic Constant Matrix: (Units=GPa)
#
#
# Indices 1 2 3 4 5 6 
#
# 1 129.9037 68.1537 86.3527 0.0000 0.0000 0.0000
# 2 68.1537 155.5869 106.3341 0.0000 0.0000 0.0000
# 3 86.3527 106.3341 216.5758 0.0000 0.0000 0.0000
# 4 0.0000 0.0000 0.0000 68.4738 0.0000 0.0000
# 5 0.0000 0.0000 0.0000 0.0000 52.9947 0.0000
# 6 0.0000 0.0000 0.0000 0.0000 0.0000 -6.5220
#
#
#
# Elastic Compliance Matrix: (Units=1/GPa)
#
#
# Indices 1 2 3 4 5 6 
#
# 1 0.011229 -0.002798 -0.003104 0.000000 0.000000 0.000000
# 2 -0.002798 0.010370 -0.003976 0.000000 0.000000 0.000000
# 3 -0.003104 -0.003976 0.007807 0.000000 0.000000 0.000000
# 4 0.000000 0.000000 0.000000 0.014604 0.000000 0.000000
# 5 0.000000 0.000000 0.000000 0.000000 0.018870 0.000000
# 6 0.000000 0.000000 0.000000 0.000000 0.000000 -0.153328
#
#
# Mechanical properties :
#
#
# Convention : Reuss Voigt Hill
#
# Bulk Modulus (GPa) = 103.61160 113.74972 108.68066
# Shear Modulus (GPa) = -74.09970 39.07103 -17.51433
#
# Velocity S-wave (km/s) = -5.34699 3.88265 -2.59955
# Velocity P-wave (km/s) = 1.36259 7.99929 5.73782
#
# Compressibility (1/GPa) = 0.00965143
#
# Stress axis : x y z
#
# Youngs Moduli (GPa) = 89.05626 96.43063 128.09123
#
# Poissons Ratio (x) = 0.26978 0.39754
# Poissons Ratio (y) = 0.24915 0.50930
# Poissons Ratio (z) = 0.27639 0.38341
#
# Static dielectric constant tensor:
#      x y z
#    x 2.107800 0.000000 0.000000 
#    y 0.000000 1.956780 0.000000 
#    z 0.000000 0.000000 2.547790 
# 
# From -- ./inp_files/812.got.cif
#   From: 2010.05.17/outbox.cif.g08.bks.cpg/sg20_1_cif.got.tgz:812.got - 2010.06.03 22:52:26.
