data_PCOD9322646
_publ_section_title
;
Structure prediction by ZEFSAII (Michael W. Deem and Ramdas Pophale) SiO2 
 PCOD9322646
Probable space group: C 2 2 2
;
_chemical_formula_sum "Si O2"
_cell_formula_units_Z 48
_cell_length_a 8.531951
_cell_length_b 18.046965
_cell_length_c 15.245945
_cell_angle_alpha 90.000000
_cell_angle_beta 90.000000
_cell_angle_gamma 90.000000
_cell_volume 2347.506899
_symmetry_space_group_name_H-M "C 2 2 2"
_symmetry_group_IT_number 21
_symmetry_cell_setting 'orthorhombic'
loop_
_space_group_symop_operation_xyz
x,y,z
-x,-y,z
x,-y,-z
-x,y,-z
1/2+x,1/2+y,z
1/2-x,1/2-y,z
1/2+x,1/2-y,-z
1/2-x,1/2+y,-z
loop_
_atom_site_type_symbol
_atom_site_label
_atom_site_fract_x
_atom_site_fract_y
_atom_site_fract_z
Si Si1 0.095302 0.430454 0.712863
Si Si2 0.099250 0.704684 0.413772
Si Si3 0.557485 0.849742 0.133613
Si Si4 0.751173 0.339645 0.024805
Si Si5 0.075386 0.781701 0.745856
Si Si6 0.919069 0.921680 0.824320
O O1 0.131696 0.371102 0.637838
O O2 0.256588 0.436498 0.769404
O O3 0.000000 0.500000 0.675378
O O4 0.964386 0.398814 0.780884
O O5 0.250000 0.750000 0.442529
O O6 0.000000 0.690398 0.500000
O O7 0.018447 0.755712 0.339419
O O8 0.409496 0.865789 0.072991
O O9 0.529587 0.766536 0.168506
O O10 0.715511 0.858203 0.077360
O O11 0.750000 0.250000 0.028813
O O12 0.621228 0.379746 0.083700
O O13 0.250000 0.750000 0.731357
O O14 0.029393 0.865676 0.768168
O O15 0.000000 0.000000 0.840130
#
# Coordination Sequence:
#
# PCOD9322646 Si02
#       6
#     8   8   8   8   8   8
#     4  10  23  44  71  94 138 189 228 277 356 438
#     4  11  23  44  75 108 135 173 229 292 345 426
#     4   9  20  35  67  89 119 178 239 276 335 409
#     4  10  18  38  64  90 127 171 233 297 341 397
#     4  11  22  40  69  96 135 179 231 281 349 420
#     4  11  24  41  68 101 140 178 235 297 356 410
#
# _framework density 20.447225
#
# number of rings (size 3 to 8) (size 9 to 14) (size 15 to 20)
#    0.000    1.667    3.333    1.000    4.667    0.333 
#    0.000    6.667    7.333    0.500    0.000    0.000 
#    0.000    0.000    0.000    0.000    0.000    0.000 
#
# Total GULP energy -133801.780330 kJ/mol
# GULP energy per Si atom -5575.074180 kJ/mol
# Density = 2.040069 g / cm^3
# Si number density = 20.447225 Si / 1000 Ang^3
#
#
#
# Elastic Constant Matrix: (Units=GPa)
#
#
# Indices 1 2 3 4 5 6 
#
# 1 82.7516 34.1434 25.9319 0.0000 0.0000 0.0000
# 2 34.1434 106.6433 24.2701 0.0000 0.0000 0.0000
# 3 25.9319 24.2701 78.2021 0.0000 0.0000 0.0000
# 4 0.0000 0.0000 0.0000 41.8278 0.0000 0.0000
# 5 0.0000 0.0000 0.0000 0.0000 29.6958 0.0000
# 6 0.0000 0.0000 0.0000 0.0000 0.0000 23.7972
#
#
#
# Elastic Compliance Matrix: (Units=1/GPa)
#
#
# Indices 1 2 3 4 5 6 
#
# 1 0.014863 -0.003913 -0.003714 0.000000 0.000000 0.000000
# 2 -0.003913 0.011120 -0.002153 0.000000 0.000000 0.000000
# 3 -0.003714 -0.002153 0.014687 0.000000 0.000000 0.000000
# 4 0.000000 0.000000 0.000000 0.023908 0.000000 0.000000
# 5 0.000000 0.000000 0.000000 0.000000 0.033675 0.000000
# 6 0.000000 0.000000 0.000000 0.000000 0.000000 0.042022
#
#
# Mechanical properties :
#
#
# Convention : Reuss Voigt Hill
#
# Bulk Modulus (GPa) = 47.37411 48.47642 47.92526
# Shear Modulus (GPa) = 29.96307 31.28094 30.62201
#
# Velocity S-wave (km/s) = 3.83219 3.91556 3.87410
# Velocity P-wave (km/s) = 6.54218 6.64843 6.59552
#
# Compressibility (1/GPa) = 0.02110858
#
# Stress axis : x y z
#
# Youngs Moduli (GPa) = 67.28176 89.92776 68.08602
#
# Poissons Ratio (x) = 0.35191 0.25288
# Poissons Ratio (y) = 0.26329 0.14662
# Poissons Ratio (z) = 0.24989 0.19366
#
# Static dielectric constant tensor:
#      x y z
#    x -2.661360 0.000000 0.000000 
#    y 0.000000 1.774870 0.000000 
#    z 0.000000 0.000000 1.734980 
# 
# From -- ./inp_files/30475.got.cif
#   From: 2010.05.17/outbox.cif.g08.bks.cpg/sg21_16_cif.got.tgz:30475.got - 2010.06.03 23:14:55.
