data_PCOD9322526
_publ_section_title
;
Structure prediction by ZEFSAII (Michael W. Deem and Ramdas Pophale) SiO2 
 PCOD9322526
Probable space group: C 2 2 2
;
_chemical_formula_sum "Si O2"
_cell_formula_units_Z 46
_cell_length_a 13.896349
_cell_length_b 21.385679
_cell_length_c 6.156462
_cell_angle_alpha 90.000000
_cell_angle_beta 90.000000
_cell_angle_gamma 90.000000
_cell_volume 1829.594978
_symmetry_space_group_name_H-M "C 2 2 2"
_symmetry_group_IT_number 21
_symmetry_cell_setting 'orthorhombic'
loop_
_space_group_symop_operation_xyz
x,y,z
-x,-y,z
x,-y,-z
-x,y,-z
1/2+x,1/2+y,z
1/2-x,1/2-y,z
1/2+x,1/2-y,-z
1/2-x,1/2+y,-z
loop_
_atom_site_type_symbol
_atom_site_label
_atom_site_fract_x
_atom_site_fract_y
_atom_site_fract_z
Si Si1 0.030737 0.315782 0.249772
Si Si2 0.899963 0.186604 0.766354
Si Si3 0.223844 0.857427 0.164274
Si Si4 0.638828 0.431550 0.548097
Si Si5 0.000000 0.500000 0.000000
Si Si6 0.833039 0.581190 0.184920
Si Si7 0.750000 0.250000 0.441813
O O1 0.021464 0.240696 0.233011
O O2 0.135820 0.348590 0.250862
O O3 0.000000 0.332681 0.500000
O O4 0.000000 0.336579 0.000000
O O5 0.922875 0.115832 0.696481
O O6 0.828339 0.216243 0.587905
O O7 0.840313 0.178324 0.986966
O O8 0.156887 0.894227 0.328310
O O9 0.287563 0.805273 0.285208
O O10 0.288972 0.909753 0.053127
O O11 0.602333 0.500000 0.500000
O O12 0.744503 0.438706 0.663597
O O13 0.072068 0.539256 0.842921
#
# Coordination Sequence:
#
# PCOD9322526 Si02
#       7
#     8   8   8   8   2   8   4
#     4  12  28  43  66  97 137 183 229 277 342 422
#     4  10  22  38  60  95 119 165 216 287 347 392
#     4  10  20  37  64  87 128 158 223 279 331 392
#     4  10  22  39  67  94 123 166 229 285 344 411
#     4  12  24  40  58  88 150 188 228 270 322 420
#     4  11  24  40  59  94 132 190 226 269 328 403
#     4  10  18  32  62  88 120 156 210 276 338 380
#
# _framework density 25.142177
#
# number of rings (size 3 to 8) (size 9 to 14) (size 15 to 20)
#    0.000    1.391    0.870    5.739    9.739    3.478 
#    0.000    0.870    0.000    0.522    0.000    0.000 
#    0.000    0.000    0.000    0.000    0.000    0.000 
#
# Total GULP energy -128389.589947 kJ/mol
# GULP energy per Si atom -5582.156085 kJ/mol
# Density = 2.508495 g / cm^3
# Si number density = 25.142177 Si / 1000 Ang^3
#
#
#
# Elastic Constant Matrix: (Units=GPa)
#
#
# Indices 1 2 3 4 5 6 
#
# 1 95.4606 24.2181 40.7922 0.0000 0.0000 0.0000
# 2 24.2181 128.8491 28.6933 0.0000 0.0000 0.0000
# 3 40.7922 28.6933 149.1371 0.0000 0.0000 0.0000
# 4 0.0000 0.0000 0.0000 39.5322 0.0000 0.0000
# 5 0.0000 0.0000 0.0000 0.0000 18.1793 0.0000
# 6 0.0000 0.0000 0.0000 0.0000 0.0000 39.8263
#
#
#
# Elastic Compliance Matrix: (Units=1/GPa)
#
#
# Indices 1 2 3 4 5 6 
#
# 1 0.012176 -0.001616 -0.003019 0.000000 0.000000 0.000000
# 2 -0.001616 0.008323 -0.001159 0.000000 0.000000 0.000000
# 3 -0.003019 -0.001159 0.007754 0.000000 0.000000 0.000000
# 4 0.000000 0.000000 0.000000 0.025296 0.000000 0.000000
# 5 0.000000 0.000000 0.000000 0.000000 0.055007 0.000000
# 6 0.000000 0.000000 0.000000 0.000000 0.000000 0.025109
#
#
# Mechanical properties :
#
#
# Convention : Reuss Voigt Hill
#
# Bulk Modulus (GPa) = 60.01216 62.31712 61.16464
# Shear Modulus (GPa) = 33.15448 38.15712 35.65580
#
# Velocity S-wave (km/s) = 3.63530 3.89993 3.76994
# Velocity P-wave (km/s) = 6.44527 6.71707 6.58257
#
# Compressibility (1/GPa) = 0.01666329
#
# Stress axis : x y z
#
# Youngs Moduli (GPa) = 82.13027 120.14997 128.96330
#
# Poissons Ratio (x) = 0.19418 0.38939
# Poissons Ratio (y) = 0.13273 0.14950
# Poissons Ratio (z) = 0.24798 0.13928
#
# Static dielectric constant tensor:
#      x y z
#    x 2.024200 0.000000 0.000000 
#    y 0.000000 2.021530 0.000000 
#    z 0.000000 0.000000 2.057550 
# 
# From -- ./inp_files/5208.got.cif
#   From: 2010.05.17/outbox.cif.g08.bks.cpg/sg21_3_cif.got.tgz:5208.got - 2010.06.03 23:14:55.
