data_PCOD9322966
_publ_section_title
;
Structure prediction by ZEFSAII (Michael W. Deem and Ramdas Pophale) SiO2 
 PCOD9322966
Probable space group: C 2 2 2
;
_chemical_formula_sum "Si O2"
_cell_formula_units_Z 40
_cell_length_a 15.676187
_cell_length_b 14.667109
_cell_length_c 7.684920
_cell_angle_alpha 90.000000
_cell_angle_beta 90.000000
_cell_angle_gamma 90.000000
_cell_volume 1766.950185
_symmetry_space_group_name_H-M "C 2 2 2"
_symmetry_group_IT_number 21
_symmetry_cell_setting 'orthorhombic'
loop_
_space_group_symop_operation_xyz
x,y,z
-x,-y,z
x,-y,-z
-x,y,-z
1/2+x,1/2+y,z
1/2-x,1/2-y,z
1/2+x,1/2-y,-z
1/2-x,1/2+y,-z
loop_
_atom_site_type_symbol
_atom_site_label
_atom_site_fract_x
_atom_site_fract_y
_atom_site_fract_z
Si Si1 0.662033 0.709269 0.720276
Si Si2 0.724207 0.486720 0.200328
Si Si3 0.821752 0.183856 0.687144
Si Si4 0.909272 0.470917 0.704349
Si Si5 0.480153 0.227061 0.293260
O O1 0.750000 0.750000 0.794904
O O2 0.670768 0.600953 0.744253
O O3 0.667386 0.718431 0.510874
O O4 0.575053 0.757968 0.784115
O O5 0.705703 0.579263 0.305559
O O6 0.827024 0.479513 0.218578
O O7 0.704342 0.500000 0.000000
O O8 0.750000 0.250000 0.768124
O O9 0.916052 0.193756 0.765654
O O10 0.907962 0.500000 0.500000
O O11 0.920672 0.362614 0.728185
O O12 0.000000 0.500000 0.779735
O O13 0.500000 0.228791 0.500000
#
# Coordination Sequence:
#
# PCOD9322966 Si02
#       5
#     8   8   8   8   8
#     4  10  22  40  65  96 127 161 215 276 323 379
#     4  12  26  41  61  91 135 182 213 252 320 396
#     4  10  20  39  67  92 126 160 218 274 323 373
#     4  11  20  36  70  98 125 155 217 278 324 376
#     4  10  19  36  65 102 119 156 210 277 330 368
#
# _framework density 22.637875999999999
#
# number of rings (size 3 to 8) (size 9 to 14) (size 15 to 20)
#    0.000    1.400    4.000    3.000    2.800    2.000 
#    0.000    5.000    0.000    0.000    0.000    0.000 
#    0.000    0.000    0.000    0.000    0.000    0.000 
#
# Total GULP energy -111484.168206 kJ/mol
# GULP energy per Si atom -5574.208410 kJ/mol
# Density = 2.258635 g / cm^3
# Si number density = 22.637876 Si / 1000 Ang^3
#
#
#
# Elastic Constant Matrix: (Units=GPa)
#
#
# Indices 1 2 3 4 5 6 
#
# 1 104.0722 18.2860 2.9602 0.0000 0.0000 0.0000
# 2 18.2860 81.8330 -19.0591 0.0000 0.0000 0.0000
# 3 2.9602 -19.0591 28.3186 0.0000 0.0000 0.0000
# 4 0.0000 0.0000 0.0000 -23.0425 0.0000 0.0000
# 5 0.0000 0.0000 0.0000 0.0000 -28.7751 0.0000
# 6 0.0000 0.0000 0.0000 0.0000 0.0000 84.1746
#
#
#
# Elastic Compliance Matrix: (Units=1/GPa)
#
#
# Indices 1 2 3 4 5 6 
#
# 1 0.010225 -0.003005 -0.003091 0.000000 0.000000 0.000000
# 2 -0.003005 0.015374 0.010661 0.000000 0.000000 0.000000
# 3 -0.003091 0.010661 0.042811 0.000000 0.000000 0.000000
# 4 0.000000 0.000000 0.000000 -0.043398 0.000000 0.000000
# 5 0.000000 0.000000 0.000000 0.000000 -0.034752 0.000000
# 6 0.000000 0.000000 0.000000 0.000000 0.000000 0.011880
#
#
# Mechanical properties :
#
#
# Convention : Reuss Voigt Hill
#
# Bulk Modulus (GPa) = 12.89625 24.28866 18.59246
# Shear Modulus (GPa) = 265.17710 20.60718 142.89214
#
# Velocity S-wave (km/s) = 10.83480 3.02038 7.95348
# Velocity P-wave (km/s) = 12.73708 4.78708 9.62157
#
# Compressibility (1/GPa) = 0.07754190
#
# Stress axis : x y z
#
# Youngs Moduli (GPa) = 97.80374 65.04277 23.35846
#
# Poissons Ratio (x) = 0.19543 0.07220
# Poissons Ratio (y) = 0.29386 -0.24904
# Poissons Ratio (z) = 0.30231 -0.69345
#
# Static dielectric constant tensor:
#      x y z
#    x 1.923870 0.000000 0.000000 
#    y 0.000000 2.006890 0.000000 
#    z 0.000000 0.000000 1.751030 
# 
# From -- ./inp_files/14517.got.cif
#   From: 2010.05.17/outbox.cif.g08.bks.cpg/sg21_8_cif.got.tgz:14517.got - 2010.06.03 23:14:55.
