data_PCOD9322172
_publ_section_title
;
Structure prediction by ZEFSAII (Michael W. Deem and Ramdas Pophale) SiO2 
 PCOD9322172
Probable space group: C 2 2 21
;
_chemical_formula_sum "Si O2"
_cell_formula_units_Z 32
_cell_length_a 21.000000
_cell_length_b 18.000000
_cell_length_c 9.000000
_cell_angle_alpha 90.000000
_cell_angle_beta 90.000000
_cell_angle_gamma 90.000000
_cell_volume 3402.000000
_symmetry_space_group_name_H-M "C 2 2 21"
_symmetry_group_IT_number 20
_symmetry_cell_setting 'orthorhombic'
loop_
_space_group_symop_operation_xyz
x,y,z
-x,-y,1/2+z
x,-y,-z
-x,y,1/2-z
1/2+x,1/2+y,z
1/2-x,1/2-y,1/2+z
1/2+x,1/2-y,-z
1/2-x,1/2+y,1/2-z
loop_
_atom_site_type_symbol
_atom_site_label
_atom_site_fract_x
_atom_site_fract_y
_atom_site_fract_z
Si Si1 0.761444 0.341496 0.676300
Si Si2 0.054152 0.810172 0.520612
Si Si3 0.156168 0.792033 0.269296
Si Si4 0.854097 0.267097 0.223434
Si Si5 0.929549 0.048684 0.238530
Si Si6 0.091780 0.171332 0.019514
Si Si7 0.724042 0.889065 0.149796
Si Si8 0.294322 0.515314 0.322193
O O1 0.820311 0.291856 0.735295
O O2 0.704072 0.280833 0.651202
O O3 0.783048 0.386238 0.528549
O O4 0.730385 0.400863 0.789566
O O5 0.096986 0.801251 0.377367
O O6 0.082514 0.747707 0.629872
O O7 0.066156 0.889509 0.606322
O O8 0.979871 0.801775 0.488774
O O9 0.217239 0.832630 0.332180
O O10 0.134609 0.835527 0.123091
O O11 0.870221 0.228743 0.378990
O O12 0.832753 0.349832 0.259714
O O13 0.919217 0.096693 0.387895
O O14 0.863430 0.004540 0.239435
O O15 0.000000 0.011752 0.250000
O O16 0.745644 0.962797 0.233293
O O17 0.297077 0.500000 0.500000
#
# Coordination Sequence:
#
# PCOD9322172 Si02
#       8
#     8   8   8   8   8   8   8   8
#     4  11  22  38  55  78 117 155 181 244 294 334
#     4  10  19  33  60  84 114 146 182 234 280 345
#     4  11  21  34  57  87 115 141 189 241 294 334
#     4  10  19  36  58  82 109 149 189 228 300 334
#     4   9  19  39  58  77 118 160 188 226 279 337
#     4  10  18  34  58  85 114 145 186 229 284 341
#     4  11  23  35  57  81 114 153 192 242 281 340
#     4  12  24  37  57  83 111 156 203 234 278 339
#
# _framework density 9.4062319999999993
#
# number of rings (size 3 to 8) (size 9 to 14) (size 15 to 20)
#    0.000    1.500    5.000    2.625    1.750    0.000 
#    0.000    5.000    0.000    0.000    0.000    5.250 
#    0.000    0.000    0.000    0.000    0.000    0.000 
#
# Total GULP energy -178456.388790 kJ/mol
# GULP energy per Si atom -5576.762150 kJ/mol
# Density = 0.938482 g / cm^3
# Si number density = 9.406232 Si / 1000 Ang^3
#
#
#
# Elastic Constant Matrix: (Units=GPa)
#
#
# Indices 1 2 3 4 5 6 
#
# 1 -1.0938 -12.9437 -38.0606 0.0000 0.0000 0.0000
# 2 -12.9437 41.6138 -9.6463 0.0000 0.0000 0.0000
# 3 -38.0606 -9.6463 36.9220 0.0000 0.0000 0.0000
# 4 0.0000 0.0000 0.0000 2.2706 0.0000 0.0000
# 5 0.0000 0.0000 0.0000 0.0000 -14.4896 0.0000
# 6 0.0000 0.0000 0.0000 0.0000 0.0000 -1.1422
#
#
#
# Elastic Compliance Matrix: (Units=1/GPa)
#
#
# Indices 1 2 3 4 5 6 
#
# 1 -0.018612 -0.010897 -0.022033 0.000000 0.000000 0.000000
# 2 -0.010897 0.019200 -0.006216 0.000000 0.000000 0.000000
# 3 -0.022033 -0.006216 0.002747 0.000000 0.000000 0.000000
# 4 0.000000 0.000000 0.000000 0.440421 0.000000 0.000000
# 5 0.000000 0.000000 0.000000 0.000000 -0.069015 0.000000
# 6 0.000000 0.000000 0.000000 0.000000 0.000000 -0.875498
#
#
# Mechanical properties :
#
#
# Convention : Reuss Voigt Hill
#
# Bulk Modulus (GPa) = -13.34088 -4.87326 -9.10707
# Shear Modulus (GPa) = -11.17445 6.53392 -2.32026
#
# Velocity S-wave (km/s) = -2.43984 1.86567 -1.11177
# Velocity P-wave (km/s) = 3.87866 1.43000 2.54942
#
# Compressibility (1/GPa) = -0.07495758
#
# Stress axis : x y z
#
# Youngs Moduli (GPa) = -53.72777 52.08302 363.99133
#
# Poissons Ratio (x) = 0.56753 8.01990
# Poissons Ratio (y) = -0.58545 2.26273
# Poissons Ratio (z) = -1.18380 0.32377
#
# Static dielectric constant tensor:
#      x y z
#    x 1.657230 0.000000 0.000000 
#    y 0.000000 1.683180 0.000000 
#    z 0.000000 0.000000 1.964300 
# 
# From -- ./inp_files/10339.got.cif
#   From: 2010.05.17/outbox.ucp.g08.bks.cvg/sg20_6_cif.got.tgz:10339.got - 2010.06.11 15:13:06.
