data_PCOD9322191
_publ_section_title
;
Structure prediction by ZEFSAII (Michael W. Deem and Ramdas Pophale) SiO2 
 PCOD9322191
Probable space group: C 2 2 21
;
_chemical_formula_sum "Si O2"
_cell_formula_units_Z 24
_cell_length_a 15.000000
_cell_length_b 9.000000
_cell_length_c 18.000000
_cell_angle_alpha 90.000000
_cell_angle_beta 90.000000
_cell_angle_gamma 90.000000
_cell_volume 2430.000000
_symmetry_space_group_name_H-M "C 2 2 21"
_symmetry_group_IT_number 20
_symmetry_cell_setting 'orthorhombic'
loop_
_space_group_symop_operation_xyz
x,y,z
-x,-y,1/2+z
x,-y,-z
-x,y,1/2-z
1/2+x,1/2+y,z
1/2-x,1/2-y,1/2+z
1/2+x,1/2-y,-z
1/2-x,1/2+y,1/2-z
loop_
_atom_site_type_symbol
_atom_site_label
_atom_site_fract_x
_atom_site_fract_y
_atom_site_fract_z
Si Si1 0.918380 0.389441 0.570586
Si Si2 0.315115 0.589125 0.575829
Si Si3 0.236662 0.970124 0.410834
Si Si4 0.936335 0.484033 0.820092
Si Si5 0.257074 0.665714 0.325369
Si Si6 0.835323 0.766324 0.836137
O O1 0.924442 0.500000 0.500000
O O2 0.890496 0.215859 0.561454
O O3 0.832873 0.460955 0.612957
O O4 0.010511 0.407077 0.613238
O O5 0.297855 0.500000 0.500000
O O6 0.322445 0.458992 0.638286
O O7 0.231012 0.683221 0.606024
O O8 0.162077 0.066135 0.367663
O O9 0.228204 0.000000 0.500000
O O10 0.240620 0.800318 0.383733
O O11 0.838598 0.412314 0.810894
O O12 0.920993 0.660051 0.834053
O O13 0.000000 0.463217 0.750000
O O14 0.295186 0.725954 0.247284
#
# Coordination Sequence:
#
# PCOD9322191 Si02
#       6
#     8   8   8   8   8   8
#     4  10  21  38  60  88 124 159 199 252 316 373
#     4  10  20  37  64  91 118 162 209 252 305 375
#     4  10  20  38  61  86 117 157 202 249 300 369
#     4  11  23  38  59  85 119 156 198 257 314 364
#     4  11  21  38  64  89 118 158 210 258 301 371
#     4  10  21  37  61  87 115 160 208 248 298 370
#
# _framework density 9.8765429999999999
#
# number of rings (size 3 to 8) (size 9 to 14) (size 15 to 20)
#    0.000    1.667    0.000    8.000    0.000    4.000 
#    0.000    6.667    0.000    0.000    0.000    0.000 
#    0.000    0.000    0.000    0.000    0.000    0.000 
#
# Total GULP energy -133824.391627 kJ/mol
# GULP energy per Si atom -5576.016318 kJ/mol
# Density = 0.985406 g / cm^3
# Si number density = 9.876543 Si / 1000 Ang^3
#
#
#
# Elastic Constant Matrix: (Units=GPa)
#
#
# Indices 1 2 3 4 5 6 
#
# 1 42.7303 21.6042 29.9989 0.0000 0.0000 0.0000
# 2 21.6042 141.9489 44.7333 0.0000 0.0000 0.0000
# 3 29.9989 44.7333 112.2480 0.0000 0.0000 0.0000
# 4 0.0000 0.0000 0.0000 44.0510 0.0000 0.0000
# 5 0.0000 0.0000 0.0000 0.0000 13.6209 0.0000
# 6 0.0000 0.0000 0.0000 0.0000 0.0000 35.9603
#
#
#
# Elastic Compliance Matrix: (Units=1/GPa)
#
#
# Indices 1 2 3 4 5 6 
#
# 1 0.029444 -0.002289 -0.006957 0.000000 0.000000 0.000000
# 2 -0.002289 0.008235 -0.002670 0.000000 0.000000 0.000000
# 3 -0.006957 -0.002670 0.011832 0.000000 0.000000 0.000000
# 4 0.000000 0.000000 0.000000 0.022701 0.000000 0.000000
# 5 0.000000 0.000000 0.000000 0.000000 0.073417 0.000000
# 6 0.000000 0.000000 0.000000 0.000000 0.000000 0.027808
#
#
# Mechanical properties :
#
#
# Convention : Reuss Voigt Hill
#
# Bulk Modulus (GPa) = 38.94205 54.40000 46.67102
# Shear Modulus (GPa) = 24.29217 32.09917 28.19567
#
# Velocity S-wave (km/s) = 3.51064 4.03553 3.78220
# Velocity P-wave (km/s) = 6.01581 7.02238 6.53849
#
# Compressibility (1/GPa) = 0.02567918
#
# Stress axis : x y z
#
# Youngs Moduli (GPa) = 33.96290 121.43966 84.51573
#
# Poissons Ratio (x) = 0.27797 0.58796
# Poissons Ratio (y) = 0.07774 0.22565
# Poissons Ratio (z) = 0.23627 0.32423
#
# Static dielectric constant tensor:
#      x y z
#    x 1.693100 0.000000 0.000000 
#    y 0.000000 1.739280 0.000000 
#    z 0.000000 0.000000 1.742450 
# 
# From -- ./inp_files/24785.got.cif
#   From: 2010.05.17/outbox.ucp.g08.bks.cvg/sg20_13_cif.got.tgz:24785.got - 2010.06.11 15:13:06.
