data_PCOD9322475
_publ_section_title
;
Structure prediction by ZEFSAII (Michael W. Deem and Ramdas Pophale) SiO2 
 PCOD9322475
Probable space group: C 2 2 2
;
_chemical_formula_sum "Si O2"
_cell_formula_units_Z 46
_cell_length_a 10.602862
_cell_length_b 18.367488
_cell_length_c 12.820134
_cell_angle_alpha 90.000000
_cell_angle_beta 90.000000
_cell_angle_gamma 90.000000
_cell_volume 2496.694694
_symmetry_space_group_name_H-M "C 2 2 2"
_symmetry_group_IT_number 21
_symmetry_cell_setting 'orthorhombic'
loop_
_space_group_symop_operation_xyz
x,y,z
-x,-y,z
x,-y,-z
-x,y,-z
1/2+x,1/2+y,z
1/2-x,1/2-y,z
1/2+x,1/2-y,-z
1/2-x,1/2+y,-z
loop_
_atom_site_type_symbol
_atom_site_label
_atom_site_fract_x
_atom_site_fract_y
_atom_site_fract_z
Si Si1 0.000000 0.000000 0.500000
Si Si2 0.371877 0.843794 0.455100
Si Si3 0.331529 0.576211 0.327547
Si Si4 0.863590 0.960153 0.899334
Si Si5 0.026240 0.774316 0.295947
Si Si6 0.250000 0.750000 0.628615
Si Si7 0.881603 0.215105 0.072215
O O1 0.095858 0.963039 0.419697
O O2 0.500000 0.877533 0.500000
O O3 0.296935 0.893338 0.375353
O O4 0.415723 0.772387 0.390344
O O5 0.285464 0.816578 0.550904
O O6 0.309883 0.534668 0.218311
O O7 0.424949 0.643797 0.305069
O O8 0.871281 0.873341 0.921956
O O9 0.000000 0.000000 0.891385
O O10 0.801668 0.000000 0.000000
O O11 0.084133 0.751325 0.185401
O O12 0.875445 0.767459 0.305693
O O13 0.750000 0.250000 0.036902
O O14 0.000000 0.231852 0.000000
#
# Coordination Sequence:
#
# PCOD9322475 Si02
#       7
#     2   8   8   8   8   4   8
#     4  12  24  28  52  88 108 156 192 250 296 352
#     4  10  19  34  57  87 119 159 190 246 321 379
#     4  11  20  35  54  85 120 151 211 253 301 370
#     4  10  19  39  62  91 118 172 216 262 311 387
#     4  10  20  34  57  85 121 157 193 252 309 369
#     4  10  18  30  54  88 126 160 194 232 316 396
#     4  11  23  38  64  94 126 159 213 277 328 378
#
# _framework density 18.42436
#
# number of rings (size 3 to 8) (size 9 to 14) (size 15 to 20)
#    0.000    1.565    4.348    3.130    2.435    0.000 
#    0.000    0.435    0.000    0.522    9.043    0.000 
#    0.000    0.000    0.000    0.000    0.000    0.000 
#
# Total GULP energy -128162.949131 kJ/mol
# GULP energy per Si atom -5572.302136 kJ/mol
# Density = 1.838243 g / cm^3
# Si number density = 18.424360 Si / 1000 Ang^3
#
#
#
# Elastic Constant Matrix: (Units=GPa)
#
#
# Indices 1 2 3 4 5 6 
#
# 1 106.7981 31.9687 36.8314 0.0000 0.0000 0.0000
# 2 31.9687 48.4520 30.8487 0.0000 0.0000 0.0000
# 3 36.8314 30.8487 109.1805 0.0000 0.0000 0.0000
# 4 0.0000 0.0000 0.0000 20.0127 0.0000 0.0000
# 5 0.0000 0.0000 0.0000 0.0000 20.6456 0.0000
# 6 0.0000 0.0000 0.0000 0.0000 0.0000 27.4630
#
#
#
# Elastic Compliance Matrix: (Units=1/GPa)
#
#
# Indices 1 2 3 4 5 6 
#
# 1 0.012096 -0.006564 -0.002226 0.000000 0.000000 0.000000
# 2 -0.006564 0.028728 -0.005903 0.000000 0.000000 0.000000
# 3 -0.002226 -0.005903 0.011578 0.000000 0.000000 0.000000
# 4 0.000000 0.000000 0.000000 0.049968 0.000000 0.000000
# 5 0.000000 0.000000 0.000000 0.000000 0.048436 0.000000
# 6 0.000000 0.000000 0.000000 0.000000 0.000000 0.036413
#
#
# Mechanical properties :
#
#
# Convention : Reuss Voigt Hill
#
# Bulk Modulus (GPa) = 43.44635 51.52534 47.48584
# Shear Modulus (GPa) = 22.29397 24.60973 23.45185
#
# Velocity S-wave (km/s) = 3.48232 3.65871 3.57160
# Velocity P-wave (km/s) = 6.30879 6.77309 6.54506
#
# Compressibility (1/GPa) = 0.02301689
#
# Stress axis : x y z
#
# Youngs Moduli (GPa) = 82.67294 34.80941 86.37166
#
# Poissons Ratio (x) = 0.22848 0.19226
# Poissons Ratio (y) = 0.54263 0.50983
# Poissons Ratio (z) = 0.18402 0.20547
#
# Static dielectric constant tensor:
#      x y z
#    x 1.610670 0.000000 0.000000 
#    y 0.000000 1.666050 0.000000 
#    z 0.000000 0.000000 1.673200 
# 
# From -- ./inp_files/24103.got.cif
#   From: 2010.05.17/outbox.cif.g08.bks.cpg/sg21_13_cif.got.tgz:24103.got - 2010.06.03 23:14:55.
