data_PCOD9322303
_publ_section_title
;
Structure prediction by ZEFSAII (Michael W. Deem and Ramdas Pophale) SiO2 
 PCOD9322303
Probable space group: C 2 2 2
;
_chemical_formula_sum "Si O2"
_cell_formula_units_Z 36
_cell_length_a 23.940040
_cell_length_b 8.119804
_cell_length_c 9.634864
_cell_angle_alpha 90.000000
_cell_angle_beta 90.000000
_cell_angle_gamma 90.000000
_cell_volume 1872.906111
_symmetry_space_group_name_H-M "C 2 2 2"
_symmetry_group_IT_number 21
_symmetry_cell_setting 'orthorhombic'
loop_
_space_group_symop_operation_xyz
x,y,z
-x,-y,z
x,-y,-z
-x,y,-z
1/2+x,1/2+y,z
1/2-x,1/2-y,z
1/2+x,1/2-y,-z
1/2-x,1/2+y,-z
loop_
_atom_site_type_symbol
_atom_site_label
_atom_site_fract_x
_atom_site_fract_y
_atom_site_fract_z
Si Si1 0.750000 0.750000 0.542111
Si Si2 0.436727 0.304506 0.520737
Si Si3 0.651497 0.749401 0.735337
Si Si4 0.156919 0.637223 0.668650
Si Si5 0.686027 0.196160 0.969459
O O1 0.703518 0.670795 0.647199
O O2 0.790362 0.660107 0.432446
O O3 0.435544 0.500000 0.500000
O O4 0.500000 0.246050 0.500000
O O5 0.408352 0.289354 0.671261
O O6 0.395990 0.206089 0.415997
O O7 0.656309 0.944980 0.705815
O O8 0.657673 0.717955 0.897983
O O9 0.162311 0.728618 0.816258
O O10 0.750000 0.250000 0.969314
O O11 0.682947 0.000000 0.000000
#
# Coordination Sequence:
#
# PCOD9322303 Si02
#       5
#     4   8   8   8   8
#     4  10  16  28  52  76 110 136 174 212 264 306
#     4  10  22  39  58  79 105 140 185 232 275 318
#     4  10  21  35  55  80 110 144 181 221 267 323
#     4  10  21  35  55  80 110 144 181 221 267 323
#     4  10  20  36  53  80 115 147 178 214 266 325
#
# _framework density 19.221468000000002
#
# number of rings (size 3 to 8) (size 9 to 14) (size 15 to 20)
#    0.000    2.000    2.222    2.667    0.000   10.667 
#    0.000    1.111    0.000    6.667    0.000    0.000 
#    0.000    0.000    0.000    0.000    0.000    0.000 
#
# Total GULP energy -100312.481528 kJ/mol
# GULP energy per Si atom -5572.915640 kJ/mol
# Density = 1.917772 g / cm^3
# Si number density = 19.221468 Si / 1000 Ang^3
#
#
#
# Elastic Constant Matrix: (Units=GPa)
#
#
# Indices 1 2 3 4 5 6 
#
# 1 144.9559 20.9985 65.9706 0.0000 0.0000 0.0000
# 2 20.9985 14.0829 19.6053 0.0000 0.0000 0.0000
# 3 65.9706 19.6053 173.8936 0.0000 0.0000 0.0000
# 4 0.0000 0.0000 0.0000 14.9410 0.0000 0.0000
# 5 0.0000 0.0000 0.0000 0.0000 13.1150 0.0000
# 6 0.0000 0.0000 0.0000 0.0000 0.0000 10.9704
#
#
#
# Elastic Compliance Matrix: (Units=1/GPa)
#
#
# Indices 1 2 3 4 5 6 
#
# 1 0.009575 -0.010936 -0.002399 0.000000 0.000000 0.000000
# 2 -0.010936 0.096719 -0.006755 0.000000 0.000000 0.000000
# 3 -0.002399 -0.006755 0.007423 0.000000 0.000000 0.000000
# 4 0.000000 0.000000 0.000000 0.066930 0.000000 0.000000
# 5 0.000000 0.000000 0.000000 0.000000 0.076249 0.000000
# 6 0.000000 0.000000 0.000000 0.000000 0.000000 0.091154
#
#
# Mechanical properties :
#
#
# Convention : Reuss Voigt Hill
#
# Bulk Modulus (GPa) = 13.59912 60.67569 37.13740
# Shear Modulus (GPa) = 12.11406 22.89583 17.50494
#
# Velocity S-wave (km/s) = 2.51317 3.45506 3.02105
# Velocity P-wave (km/s) = 3.93849 6.89578 5.61531
#
# Compressibility (1/GPa) = 0.07353418
#
# Stress axis : x y z
#
# Youngs Moduli (GPa) = 104.43945 10.33919 134.72423
#
# Poissons Ratio (x) = 0.11307 0.32327
# Poissons Ratio (y) = 1.14219 0.91013
# Poissons Ratio (z) = 0.25060 0.06985
#
# Static dielectric constant tensor:
#      x y z
#    x 1.654610 0.000000 0.000000 
#    y 0.000000 1.791650 0.000000 
#    z 0.000000 0.000000 1.727310 
# 
# From -- ./inp_files/18905.got.cif
#   From: 2010.05.17/outbox.cif.g08.bks.cpg/sg21_10_cif.got.tgz:18905.got - 2010.06.03 23:14:55.
