data_PCOD9322333
_publ_section_title
;
Structure prediction by ZEFSAII (Michael W. Deem and Ramdas Pophale) SiO2 
 PCOD9322333
Probable space group: C 2 2 2
;
_chemical_formula_sum "Si O2"
_cell_formula_units_Z 44
_cell_length_a 26.682959
_cell_length_b 5.720964
_cell_length_c 14.900756
_cell_angle_alpha 90.000000
_cell_angle_beta 90.000000
_cell_angle_gamma 90.000000
_cell_volume 2274.633898
_symmetry_space_group_name_H-M "C 2 2 2"
_symmetry_group_IT_number 21
_symmetry_cell_setting 'orthorhombic'
loop_
_space_group_symop_operation_xyz
x,y,z
-x,-y,z
x,-y,-z
-x,y,-z
1/2+x,1/2+y,z
1/2-x,1/2-y,z
1/2+x,1/2-y,-z
1/2-x,1/2+y,-z
loop_
_atom_site_type_symbol
_atom_site_label
_atom_site_fract_x
_atom_site_fract_y
_atom_site_fract_z
Si Si1 0.670656 0.460070 0.188210
Si Si2 0.221849 0.000000 0.000000
Si Si3 0.919490 0.823332 0.580476
Si Si4 0.750000 0.250000 0.694018
Si Si5 0.500000 0.000000 0.664182
Si Si6 0.914898 0.198265 0.731312
Si Si7 0.335381 0.931953 0.340843
O O1 0.690528 0.431807 0.088425
O O2 0.710479 0.617837 0.242671
O O3 0.617219 0.595020 0.186749
O O4 0.668383 0.226991 0.250285
O O5 0.250000 0.250000 0.021059
O O6 0.961638 0.631294 0.597769
O O7 0.863138 0.718126 0.582195
O O8 0.928493 0.000000 0.500000
O O9 0.923322 0.975451 0.669800
O O10 0.782578 0.442973 0.640935
O O11 0.533163 0.164103 0.729241
O O12 0.875779 0.368021 0.681014
#
# Coordination Sequence:
#
# PCOD9322333 Si02
#       7
#     8   4   8   4   4   8   8
#     4  10  20  35  54  87 120 156 197 245 304 363
#     4  12  24  36  60  98 133 159 200 260 322 374
#     4  10  21  36  55  87 119 147 193 255 314 364
#     4  10  16  32  54  80 108 154 204 236 290 358
#     4  10  20  35  56  84 117 154 200 246 313 372
#     4   9  20  35  54  83 112 157 195 242 299 366
#     4   9  19  33  54  82 110 157 198 242 296 362
#
# _framework density 19.343771
#
# number of rings (size 3 to 8) (size 9 to 14) (size 15 to 20)
#    0.000    2.182    0.909    2.182    2.545    5.091 
#    0.000    0.000    0.000    0.000  170.182   36.909 
#    0.000    0.000    0.000    0.000    0.000    0.000 
#
# Total GULP energy -122533.418108 kJ/mol
# GULP energy per Si atom -5569.700823 kJ/mol
# Density = 1.929974 g / cm^3
# Si number density = 19.343771 Si / 1000 Ang^3
#
#
#
# Elastic Constant Matrix: (Units=GPa)
#
#
# Indices 1 2 3 4 5 6 
#
# 1 127.1282 52.6342 40.7221 0.0000 0.0000 0.0000
# 2 52.6342 88.8322 24.7703 0.0000 0.0000 0.0000
# 3 40.7221 24.7703 41.4158 0.0000 0.0000 0.0000
# 4 0.0000 0.0000 0.0000 17.8335 0.0000 0.0000
# 5 0.0000 0.0000 0.0000 0.0000 17.6563 0.0000
# 6 0.0000 0.0000 0.0000 0.0000 0.0000 48.9814
#
#
#
# Elastic Compliance Matrix: (Units=1/GPa)
#
#
# Indices 1 2 3 4 5 6 
#
# 1 0.013109 -0.005008 -0.009894 0.000000 0.000000 0.000000
# 2 -0.005008 0.015424 -0.004300 0.000000 0.000000 0.000000
# 3 -0.009894 -0.004300 0.036446 0.000000 0.000000 0.000000
# 4 0.000000 0.000000 0.000000 0.056074 0.000000 0.000000
# 5 0.000000 0.000000 0.000000 0.000000 0.056637 0.000000
# 6 0.000000 0.000000 0.000000 0.000000 0.000000 0.020416
#
#
# Mechanical properties :
#
#
# Convention : Reuss Voigt Hill
#
# Bulk Modulus (GPa) = 37.63210 54.84771 46.23991
# Shear Modulus (GPa) = 20.37756 26.17757 23.27756
#
# Velocity S-wave (km/s) = 3.24920 3.68269 3.47271
# Velocity P-wave (km/s) = 5.79422 6.81899 6.32739
#
# Compressibility (1/GPa) = 0.02657306
#
# Stress axis : x y z
#
# Youngs Moduli (GPa) = 76.28413 64.83482 27.43822
#
# Poissons Ratio (x) = 0.32471 0.27147
# Poissons Ratio (y) = 0.38206 0.11799
# Poissons Ratio (z) = 0.75475 0.27881
#
# Static dielectric constant tensor:
#      x y z
#    x 1.751770 0.000000 0.000000 
#    y 0.000000 1.832820 0.000000 
#    z 0.000000 0.000000 1.646080 
# 
# From -- ./inp_files/33759.got.cif
#   From: 2010.05.17/outbox.cif.g08.bks.cpg/sg21_17_cif.got.tgz:33759.got - 2010.06.03 23:14:55.
