data_PCOD9322777
_publ_section_title
;
Structure prediction by ZEFSAII (Michael W. Deem and Ramdas Pophale) SiO2 
 PCOD9322777
Probable space group: C 2 2 2
;
_chemical_formula_sum "Si O2"
_cell_formula_units_Z 56
_cell_length_a 8.929067
_cell_length_b 20.850492
_cell_length_c 16.240756
_cell_angle_alpha 90.000000
_cell_angle_beta 90.000000
_cell_angle_gamma 90.000000
_cell_volume 3023.629895
_symmetry_space_group_name_H-M "C 2 2 2"
_symmetry_group_IT_number 21
_symmetry_cell_setting 'orthorhombic'
loop_
_space_group_symop_operation_xyz
x,y,z
-x,-y,z
x,-y,-z
-x,y,-z
1/2+x,1/2+y,z
1/2-x,1/2-y,z
1/2+x,1/2-y,-z
1/2-x,1/2+y,-z
loop_
_atom_site_type_symbol
_atom_site_label
_atom_site_fract_x
_atom_site_fract_y
_atom_site_fract_z
Si Si1 0.508374 0.068526 0.865207
Si Si2 0.902689 0.667495 0.254061
Si Si3 0.939520 0.820070 0.238010
Si Si4 0.386842 0.699726 0.067601
Si Si5 0.248417 0.069843 0.000953
Si Si6 0.073438 0.328680 0.583948
Si Si7 0.919200 0.827513 0.586331
O O1 0.493049 0.130117 0.809334
O O2 0.664696 0.075786 0.913175
O O3 0.500000 0.000000 0.819790
O O4 0.378987 0.064956 0.932638
O O5 0.920939 0.743368 0.246421
O O6 0.729080 0.652408 0.236330
O O7 0.965017 0.649779 0.343140
O O8 0.034993 0.823526 0.153203
O O9 0.010654 0.844524 0.324264
O O10 0.250000 0.750000 0.082386
O O11 0.500000 0.731220 0.000000
O O12 0.335366 0.634685 0.021633
O O13 0.170376 0.000000 0.000000
O O14 0.075779 0.250537 0.584408
O O15 0.246281 0.348428 0.588658
O O16 0.000000 0.350449 0.500000
O O17 0.000000 0.847850 0.500000
#
# Coordination Sequence:
#
# PCOD9322777 Si02
#       7
#     8   8   8   8   8   8   8
#     4   9  18  34  58  79  99 141 188 238 278 326
#     4  10  19  33  53  74 114 140 187 228 274 335
#     4  10  22  33  51  81 114 152 178 229 289 337
#     4  12  27  37  55  82 116 153 193 237 298 348
#     4   9  20  38  58  78 106 145 193 238 288 337
#     4   9  17  28  49  75 106 147 182 219 272 330
#     4   9  17  30  48  75 114 145 182 220 272 341
#
# _framework density 18.520785
#
# number of rings (size 3 to 8) (size 9 to 14) (size 15 to 20)
#    0.000    2.286    0.000    3.429   12.000    3.714 
#    0.000    0.000    0.000    0.429    0.000    0.000 
#    0.000    0.000    0.000    0.000    0.000    0.000 
#
# Total GULP energy -155884.756134 kJ/mol
# GULP energy per Si atom -5567.312719 kJ/mol
# Density = 1.847863 g / cm^3
# Si number density = 18.520785 Si / 1000 Ang^3
#
#
#
# Elastic Constant Matrix: (Units=GPa)
#
#
# Indices 1 2 3 4 5 6 
#
# 1 104.1755 27.5572 51.8726 0.0000 0.0000 0.0000
# 2 27.5572 40.1663 25.5183 0.0000 0.0000 0.0000
# 3 51.8726 25.5183 122.4234 0.0000 0.0000 0.0000
# 4 0.0000 0.0000 0.0000 2.1806 0.0000 0.0000
# 5 0.0000 0.0000 0.0000 0.0000 27.0751 0.0000
# 6 0.0000 0.0000 0.0000 0.0000 0.0000 15.6508
#
#
#
# Elastic Compliance Matrix: (Units=1/GPa)
#
#
# Indices 1 2 3 4 5 6 
#
# 1 0.013486 -0.006480 -0.004364 0.000000 0.000000 0.000000
# 2 -0.006480 0.031811 -0.003885 0.000000 0.000000 0.000000
# 3 -0.004364 -0.003885 0.010827 0.000000 0.000000 0.000000
# 4 0.000000 0.000000 0.000000 0.458591 0.000000 0.000000
# 5 0.000000 0.000000 0.000000 0.000000 0.036934 0.000000
# 6 0.000000 0.000000 0.000000 0.000000 0.000000 0.063894
#
#
# Mechanical properties :
#
#
# Convention : Reuss Voigt Hill
#
# Bulk Modulus (GPa) = 37.50044 52.96238 45.23141
# Shear Modulus (GPa) = 7.64654 19.76910 13.70782
#
# Velocity S-wave (km/s) = 2.03411 3.27065 2.72349
# Velocity P-wave (km/s) = 5.08021 6.55143 5.86215
#
# Compressibility (1/GPa) = 0.02666635
#
# Stress axis : x y z
#
# Youngs Moduli (GPa) = 74.15008 31.43603 92.36140
#
# Poissons Ratio (x) = 0.20372 0.40302
# Poissons Ratio (y) = 0.48052 0.35881
# Poissons Ratio (z) = 0.32355 0.12212
#
# Static dielectric constant tensor:
#      x y z
#    x 1.687690 0.000000 0.000000 
#    y 0.000000 1.655680 0.000000 
#    z 0.000000 0.000000 1.668100 
# 
# From -- ./inp_files/30782.got.cif
#   From: 2010.05.17/outbox.cif.g08.bks.cpg/sg21_16_cif.got.tgz:30782.got - 2010.06.03 23:14:55.
