data_PCOD9322385
_publ_section_title
;
Structure prediction by ZEFSAII (Michael W. Deem and Ramdas Pophale) SiO2 
 PCOD9322385
Probable space group: C 2 2 2
;
_chemical_formula_sum "Si O2"
_cell_formula_units_Z 40
_cell_length_a 18.707847
_cell_length_b 11.591278
_cell_length_c 8.971429
_cell_angle_alpha 90.000000
_cell_angle_beta 90.000000
_cell_angle_gamma 90.000000
_cell_volume 1945.435138
_symmetry_space_group_name_H-M "C 2 2 2"
_symmetry_group_IT_number 21
_symmetry_cell_setting 'orthorhombic'
loop_
_space_group_symop_operation_xyz
x,y,z
-x,-y,z
x,-y,-z
-x,y,-z
1/2+x,1/2+y,z
1/2-x,1/2-y,z
1/2+x,1/2-y,-z
1/2-x,1/2+y,-z
loop_
_atom_site_type_symbol
_atom_site_label
_atom_site_fract_x
_atom_site_fract_y
_atom_site_fract_z
Si Si1 0.133660 0.867140 0.961914
Si Si2 0.859967 0.365576 0.540120
Si Si3 0.538436 0.811500 0.202567
Si Si4 0.867485 0.309397 0.211372
Si Si5 0.750000 0.250000 0.756057
Si Si6 0.880463 0.500000 0.000000
O O1 0.066313 0.804900 0.878631
O O2 0.199016 0.830078 0.855704
O O3 0.148367 0.803144 0.117435
O O4 0.123833 0.000000 0.000000
O O5 0.866664 0.500000 0.500000
O O6 0.929386 0.323672 0.631887
O O7 0.846453 0.305322 0.382210
O O8 0.797137 0.333357 0.653215
O O9 0.453835 0.823441 0.207918
O O10 0.573411 0.913804 0.103469
O O11 0.838545 0.417898 0.114959
#
# Coordination Sequence:
#
# PCOD9322385 Si02
#       6
#     8   8   8   8   4   4
#     4  10  23  43  64  85 121 166 213 262 302 358
#     4  11  23  39  62  89 128 164 201 257 318 368
#     4  10  20  36  59  97 127 155 197 251 308 386
#     4  11  21  34  63  94 124 160 199 245 323 372
#     4  10  26  44  58  88 120 162 228 262 290 364
#     4  10  17  30  54  90 128 152 188 240 293 370
#
# _framework density 20.560953999999999
#
# number of rings (size 3 to 8) (size 9 to 14) (size 15 to 20)
#    0.000    1.600    2.000    4.200    0.000    6.400 
#    3.600    3.000    0.000    4.800    0.000    0.000 
#    0.000    0.000    0.000    0.000    0.000    0.000 
#
# Total GULP energy -111799.452455 kJ/mol
# GULP energy per Si atom -5589.972623 kJ/mol
# Density = 2.051416 g / cm^3
# Si number density = 20.560954 Si / 1000 Ang^3
#
#
#
# Elastic Constant Matrix: (Units=GPa)
#
#
# Indices 1 2 3 4 5 6 
#
# 1 39.8806 8.9684 20.1434 0.0000 0.0000 0.0000
# 2 8.9684 150.6551 53.1765 0.0000 0.0000 0.0000
# 3 20.1434 53.1765 165.3108 0.0000 0.0000 0.0000
# 4 0.0000 0.0000 0.0000 28.0755 0.0000 0.0000
# 5 0.0000 0.0000 0.0000 0.0000 12.6424 0.0000
# 6 0.0000 0.0000 0.0000 0.0000 0.0000 7.8990
#
#
#
# Elastic Compliance Matrix: (Units=1/GPa)
#
#
# Indices 1 2 3 4 5 6 
#
# 1 0.026752 -0.000499 -0.003099 0.000000 0.000000 0.000000
# 2 -0.000499 0.007497 -0.002351 0.000000 0.000000 0.000000
# 3 -0.003099 -0.002351 0.007183 0.000000 0.000000 0.000000
# 4 0.000000 0.000000 0.000000 0.035618 0.000000 0.000000
# 5 0.000000 0.000000 0.000000 0.000000 0.079099 0.000000
# 6 0.000000 0.000000 0.000000 0.000000 0.000000 0.126599
#
#
# Mechanical properties :
#
#
# Convention : Reuss Voigt Hill
#
# Bulk Modulus (GPa) = 33.85826 57.82480 45.84153
# Shear Modulus (GPa) = 16.42081 27.96059 22.19070
#
# Velocity S-wave (km/s) = 2.82909 3.69167 3.28878
# Velocity P-wave (km/s) = 5.21293 6.80851 6.06344
#
# Compressibility (1/GPa) = 0.02953489
#
# Stress axis : x y z
#
# Youngs Moduli (GPa) = 37.37974 133.38407 139.21539
#
# Poissons Ratio (x) = 0.06650 0.43149
# Poissons Ratio (y) = 0.01864 0.32728
# Poissons Ratio (z) = 0.11586 0.31357
#
# Static dielectric constant tensor:
#      x y z
#    x 1.803430 0.000000 0.000000 
#    y 0.000000 1.724940 0.000000 
#    z 0.000000 0.000000 1.746070 
# 
# From -- ./inp_files/17472.got.cif
#   From: 2010.05.17/outbox.cif.g08.bks.cpg/sg21_9_cif.got.tgz:17472.got - 2010.06.03 23:14:55.
