data_PCOD9322575
_publ_section_title
;
Structure prediction by ZEFSAII (Michael W. Deem and Ramdas Pophale) SiO2 
 PCOD9322575
Probable space group: C 2 2 2
;
_chemical_formula_sum "Si O2"
_cell_formula_units_Z 64
_cell_length_a 17.526881
_cell_length_b 9.066200
_cell_length_c 19.968020
_cell_angle_alpha 90.000000
_cell_angle_beta 90.000000
_cell_angle_gamma 90.000000
_cell_volume 3172.962478
_symmetry_space_group_name_H-M "C 2 2 2"
_symmetry_group_IT_number 21
_symmetry_cell_setting 'orthorhombic'
loop_
_space_group_symop_operation_xyz
x,y,z
-x,-y,z
x,-y,-z
-x,y,-z
1/2+x,1/2+y,z
1/2-x,1/2-y,z
1/2+x,1/2-y,-z
1/2-x,1/2+y,-z
loop_
_atom_site_type_symbol
_atom_site_label
_atom_site_fract_x
_atom_site_fract_y
_atom_site_fract_z
Si Si1 0.434087 0.208275 0.796444
Si Si2 0.289792 0.909665 0.661859
Si Si3 0.681685 0.327905 0.867226
Si Si4 0.772460 0.420365 0.204242
Si Si5 0.098633 0.280960 0.256247
Si Si6 0.208131 0.907119 0.436501
Si Si7 0.986651 0.173057 0.926791
Si Si8 0.084688 0.042674 0.681077
O O1 0.364989 0.092788 0.803903
O O2 0.518419 0.165137 0.771139
O O3 0.455535 0.269970 0.869909
O O4 0.413923 0.332898 0.739908
O O5 0.250000 0.750000 0.661850
O O6 0.376166 0.878368 0.681495
O O7 0.259819 0.013911 0.721665
O O8 0.274752 0.990392 0.593734
O O9 0.750000 0.250000 0.906540
O O10 0.717258 0.484428 0.844307
O O11 0.663705 0.227427 0.801178
O O12 0.601358 0.320016 0.903941
O O13 0.750000 0.250000 0.199850
O O14 0.099096 0.111632 0.280530
O O15 0.250000 0.750000 0.448831
O O16 0.142105 0.910447 0.378635
O O17 0.178638 0.000000 0.500000
O O18 0.000000 0.000000 0.931093
O O19 0.000000 0.241304 0.000000
O O20 0.000000 0.000000 0.653605
#
# Coordination Sequence:
#
# PCOD9322575 Si02
#       8
#     8   8   8   8   8   8   8   8
#     4  10  21  35  60  97 129 161 213 272 331 387
#     4  12  20  36  61  92 128 160 208 265 324 391
#     4  11  20  38  61  92 123 166 213 267 328 393
#     4  12  21  33  59  95 125 156 206 275 322 377
#     4  10  18  34  60  89 125 161 201 254 331 391
#     4  12  26  42  64  93 127 171 220 277 340 406
#     4  10  21  40  63  88 130 180 223 263 327 413
#     4  10  20  37  63  94 125 168 213 269 321 402
#
# _framework density 20.170425000000002
#
# number of rings (size 3 to 8) (size 9 to 14) (size 15 to 20)
#    0.000    1.125    3.750    5.625    0.000    0.750 
#    0.000    3.125    0.000    0.750    0.000    0.000 
#    0.000    0.000    0.000    0.000    0.000    0.000 
#
# Total GULP energy -178275.257261 kJ/mol
# GULP energy per Si atom -5571.101789 kJ/mol
# Density = 2.012452 g / cm^3
# Si number density = 20.170425 Si / 1000 Ang^3
#
#
#
# Elastic Constant Matrix: (Units=GPa)
#
#
# Indices 1 2 3 4 5 6 
#
# 1 125.4103 33.6880 40.4248 0.0000 0.0000 0.0000
# 2 33.6880 102.3549 36.9108 0.0000 0.0000 0.0000
# 3 40.4248 36.9108 109.8704 0.0000 0.0000 0.0000
# 4 0.0000 0.0000 0.0000 18.5615 0.0000 0.0000
# 5 0.0000 0.0000 0.0000 0.0000 42.4879 0.0000
# 6 0.0000 0.0000 0.0000 0.0000 0.0000 33.3697
#
#
#
# Elastic Compliance Matrix: (Units=1/GPa)
#
#
# Indices 1 2 3 4 5 6 
#
# 1 0.009430 -0.002108 -0.002762 0.000000 0.000000 0.000000
# 2 -0.002108 0.011588 -0.003117 0.000000 0.000000 0.000000
# 3 -0.002762 -0.003117 0.011165 0.000000 0.000000 0.000000
# 4 0.000000 0.000000 0.000000 0.053875 0.000000 0.000000
# 5 0.000000 0.000000 0.000000 0.000000 0.023536 0.000000
# 6 0.000000 0.000000 0.000000 0.000000 0.000000 0.029967
#
#
# Mechanical properties :
#
#
# Convention : Reuss Voigt Hill
#
# Bulk Modulus (GPa) = 61.69241 62.18698 61.93969
# Shear Modulus (GPa) = 31.06782 33.99128 32.52955
#
# Velocity S-wave (km/s) = 3.92888 4.10958 4.02024
# Velocity P-wave (km/s) = 7.15775 7.30862 7.23358
#
# Compressibility (1/GPa) = 0.01620945
#
# Stress axis : x y z
#
# Youngs Moduli (GPa) = 106.04219 86.29714 89.56601
#
# Poissons Ratio (x) = 0.18191 0.24734
# Poissons Ratio (y) = 0.22353 0.27921
# Poissons Ratio (z) = 0.29284 0.26902
#
# Static dielectric constant tensor:
#      x y z
#    x 1.830510 0.000000 0.000000 
#    y 0.000000 1.763380 0.000000 
#    z 0.000000 0.000000 1.735430 
# 
# From -- ./inp_files/37710.got.cif
#   From: 2010.05.17/outbox.cif.g08.bks.cpg/sg21_19_cif.got.tgz:37710.got - 2010.06.03 23:14:55.
