data_PCOD9322885
_publ_section_title
;
Structure prediction by ZEFSAII (Michael W. Deem and Ramdas Pophale) SiO2 
 PCOD9322885
Probable space group: C 2 2 2
;
_chemical_formula_sum "Si O2"
_cell_formula_units_Z 44
_cell_length_a 7.202956
_cell_length_b 14.668193
_cell_length_c 17.197193
_cell_angle_alpha 90.000000
_cell_angle_beta 90.000000
_cell_angle_gamma 90.000000
_cell_volume 1816.958227
_symmetry_space_group_name_H-M "C 2 2 2"
_symmetry_group_IT_number 21
_symmetry_cell_setting 'orthorhombic'
loop_
_space_group_symop_operation_xyz
x,y,z
-x,-y,z
x,-y,-z
-x,y,-z
1/2+x,1/2+y,z
1/2-x,1/2-y,z
1/2+x,1/2-y,-z
1/2-x,1/2+y,-z
loop_
_atom_site_type_symbol
_atom_site_label
_atom_site_fract_x
_atom_site_fract_y
_atom_site_fract_z
Si Si1 0.712002 0.853574 0.286813
Si Si2 0.250000 0.750000 0.022136
Si Si3 0.273650 0.003564 0.588622
Si Si4 0.273160 0.857326 0.290608
Si Si5 0.228557 0.088661 0.875302
Si Si6 0.323277 0.107938 0.111988
O O1 0.750000 0.750000 0.310995
O O2 0.492774 0.873518 0.286005
O O3 0.760508 0.862029 0.195174
O O4 0.786707 0.924583 0.350600
O O5 0.148331 0.822218 0.080513
O O6 0.319107 0.823803 0.959772
O O7 0.213682 0.097315 0.629458
O O8 0.500000 0.000000 0.585280
O O9 0.209855 0.000000 0.500000
O O10 0.250000 0.750000 0.285880
O O11 0.181047 0.904191 0.215649
O O12 0.454309 0.098272 0.877614
O O13 0.213912 0.985929 0.906562
#
# Coordination Sequence:
#
# PCOD9322885 Si02
#       6
#     8   4   8   8   8   8
#     4  10  19  35  58  82 110 143 182 224 272 323
#     4  12  20  30  52  78 102 130 176 238 266 308
#     4   9  18  34  59  86 110 141 184 225 263 323
#     4  10  19  35  58  82 110 143 182 224 272 323
#     4  10  20  35  54  76 102 140 185 225 265 320
#     4  10  20  35  54  76 102 140 185 225 265 320
#
# _framework density 24.216298999999999
#
# number of rings (size 3 to 8) (size 9 to 14) (size 15 to 20)
#    0.000    2.000    3.636    1.091    0.000    2.182 
#    0.000    0.909    0.000   14.182    0.000    0.000 
#    0.000    0.000    0.000    0.000    0.000    0.000 
#
# Total GULP energy -122774.848168 kJ/mol
# GULP energy per Si atom -5580.674917 kJ/mol
# Density = 2.416118 g / cm^3
# Si number density = 24.216299 Si / 1000 Ang^3
#
#
#
# Elastic Constant Matrix: (Units=GPa)
#
#
# Indices 1 2 3 4 5 6 
#
# 1 83.1653 -17.0248 4.1981 0.0000 0.0000 0.0000
# 2 -17.0248 161.8593 74.4521 0.0000 0.0000 0.0000
# 3 4.1981 74.4521 209.4609 0.0000 0.0000 0.0000
# 4 0.0000 0.0000 0.0000 41.9186 0.0000 0.0000
# 5 0.0000 0.0000 0.0000 0.0000 5.2524 0.0000
# 6 0.0000 0.0000 0.0000 0.0000 0.0000 17.7140
#
#
#
# Elastic Compliance Matrix: (Units=1/GPa)
#
#
# Indices 1 2 3 4 5 6 
#
# 1 0.012415 0.001698 -0.000852 0.000000 0.000000 0.000000
# 2 0.001698 0.007618 -0.002742 0.000000 0.000000 0.000000
# 3 -0.000852 -0.002742 0.005766 0.000000 0.000000 0.000000
# 4 0.000000 0.000000 0.000000 0.023856 0.000000 0.000000
# 5 0.000000 0.000000 0.000000 0.000000 0.190389 0.000000
# 6 0.000000 0.000000 0.000000 0.000000 0.000000 0.056452
#
#
# Mechanical properties :
#
#
# Convention : Reuss Voigt Hill
#
# Bulk Modulus (GPa) = 45.44191 64.19290 54.81740
# Shear Modulus (GPa) = 16.25361 39.16768 27.71065
#
# Velocity S-wave (km/s) = 2.59353 4.02607 3.38642
# Velocity P-wave (km/s) = 5.27013 6.94104 6.16248
#
# Compressibility (1/GPa) = 0.02200612
#
# Stress axis : x y z
#
# Youngs Moduli (GPa) = 80.54871 131.26854 173.43621
#
# Poissons Ratio (x) = -0.22288 0.14782
# Poissons Ratio (y) = -0.13676 0.47553
# Poissons Ratio (z) = 0.06865 0.35991
#
# Static dielectric constant tensor:
#      x y z
#    x 2.066490 0.000000 0.000000 
#    y 0.000000 1.928830 0.000000 
#    z 0.000000 0.000000 1.896250 
# 
# From -- ./inp_files/35594.got.cif
#   From: 2010.05.17/outbox.cif.g08.bks.cpg/sg21_18_cif.got.tgz:35594.got - 2010.06.03 23:14:55.
