data_PCOD9322693
_publ_section_title
;
Structure prediction by ZEFSAII (Michael W. Deem and Ramdas Pophale) SiO2 
 PCOD9322693
Probable space group: C 2 2 2
;
_chemical_formula_sum "Si O2"
_cell_formula_units_Z 36
_cell_length_a 5.184364
_cell_length_b 23.441124
_cell_length_c 16.716842
_cell_angle_alpha 90.000000
_cell_angle_beta 90.000000
_cell_angle_gamma 90.000000
_cell_volume 2031.552997
_symmetry_space_group_name_H-M "C 2 2 2"
_symmetry_group_IT_number 21
_symmetry_cell_setting 'orthorhombic'
loop_
_space_group_symop_operation_xyz
x,y,z
-x,-y,z
x,-y,-z
-x,y,-z
1/2+x,1/2+y,z
1/2-x,1/2-y,z
1/2+x,1/2-y,-z
1/2-x,1/2+y,-z
loop_
_atom_site_type_symbol
_atom_site_label
_atom_site_fract_x
_atom_site_fract_y
_atom_site_fract_z
Si Si1 0.412852 0.882127 0.864098
Si Si2 0.500000 0.789060 0.000000
Si Si3 0.515284 0.069244 0.305948
Si Si4 0.414510 0.560037 0.091935
Si Si5 0.515565 0.568545 0.409649
O O1 0.471078 0.827934 0.920200
O O2 0.486297 0.890980 0.771724
O O3 0.612046 0.928598 0.902187
O O4 0.107324 0.894102 0.869698
O O5 0.750000 0.750000 0.992267
O O6 0.779283 0.082869 0.351619
O O7 0.282778 0.081442 0.366500
O O8 0.500000 0.000000 0.286277
O O9 0.500000 0.500000 0.129146
O O10 0.500000 0.560024 0.000000
O O11 0.500000 0.500000 0.416464
O O12 0.500000 0.591782 0.500000
#
# Coordination Sequence:
#
# PCOD9322693 Si02
#       5
#     8   4   8   8   8
#     4  12  22  38  54  77 106 139 184 231 267 314
#     4  12  26  44  59  72  97 140 192 238 282 324
#     4  10  19  30  49  78 109 139 172 212 254 307
#     4  11  20  32  51  77 107 139 169 204 261 328
#     4   9  17  30  47  71 109 151 177 195 235 303
#
# _framework density 17.720431999999999
#
# number of rings (size 3 to 8) (size 9 to 14) (size 15 to 20)
#    0.000    1.333    2.222    5.333    0.000    6.222 
#    0.000    0.000    0.000    0.000    0.000    0.000 
#    0.000   17.778    0.000    0.000    0.000    0.000 
#
# Total GULP energy -100318.253616 kJ/mol
# GULP energy per Si atom -5573.236312 kJ/mol
# Density = 1.768010 g / cm^3
# Si number density = 17.720432 Si / 1000 Ang^3
#
#
#
# Elastic Constant Matrix: (Units=GPa)
#
#
# Indices 1 2 3 4 5 6 
#
# 1 61.6959 11.6337 1.9917 0.0000 0.0000 0.0000
# 2 11.6337 59.3793 24.9946 0.0000 0.0000 0.0000
# 3 1.9917 24.9946 112.5101 0.0000 0.0000 0.0000
# 4 0.0000 0.0000 0.0000 0.6132 0.0000 0.0000
# 5 0.0000 0.0000 0.0000 0.0000 -20.1776 0.0000
# 6 0.0000 0.0000 0.0000 0.0000 0.0000 20.5662
#
#
#
# Elastic Compliance Matrix: (Units=1/GPa)
#
#
# Indices 1 2 3 4 5 6 
#
# 1 0.016854 -0.003504 0.000480 0.000000 0.000000 0.000000
# 2 -0.003504 0.019307 -0.004227 0.000000 0.000000 0.000000
# 3 0.000480 -0.004227 0.009819 0.000000 0.000000 0.000000
# 4 0.000000 0.000000 0.000000 1.630852 0.000000 0.000000
# 5 0.000000 0.000000 0.000000 0.000000 -0.049560 0.000000
# 6 0.000000 0.000000 0.000000 0.000000 0.000000 0.048623
#
#
# Mechanical properties :
#
#
# Convention : Reuss Voigt Hill
#
# Bulk Modulus (GPa) = 31.76915 34.53612 33.15264
# Shear Modulus (GPa) = 2.93964 13.19806 8.06885
#
# Velocity S-wave (km/s) = 1.28938 2.73205 2.13619
# Velocity P-wave (km/s) = 4.49261 5.42991 4.98334
#
# Compressibility (1/GPa) = 0.03147707
#
# Stress axis : x y z
#
# Youngs Moduli (GPa) = 59.33382 51.79543 101.84704
#
# Poissons Ratio (x) = 0.18150 -0.04890
# Poissons Ratio (y) = 0.20791 0.43051
# Poissons Ratio (z) = -0.02849 0.21894
#
# Static dielectric constant tensor:
#      x y z
#    x 1.629950 0.000000 0.000000 
#    y 0.000000 1.621760 0.000000 
#    z 0.000000 0.000000 1.642960 
# 
# From -- ./inp_files/28925.got.cif
#   From: 2010.05.17/outbox.cif.g08.bks.cpg/sg21_15_cif.got.tgz:28925.got - 2010.06.03 23:14:55.
