data_PCOD9322248
_publ_section_title
;
Structure prediction by ZEFSAII (Michael W. Deem and Ramdas Pophale) SiO2 
 PCOD9322248
Probable space group: C 2 2 21
;
_chemical_formula_sum "Si O2"
_cell_formula_units_Z 20
_cell_length_a 24.000000
_cell_length_b 9.000000
_cell_length_c 9.000000
_cell_angle_alpha 90.000000
_cell_angle_beta 90.000000
_cell_angle_gamma 90.000000
_cell_volume 1944.000000
_symmetry_space_group_name_H-M "C 2 2 21"
_symmetry_group_IT_number 20
_symmetry_cell_setting 'orthorhombic'
loop_
_space_group_symop_operation_xyz
x,y,z
-x,-y,1/2+z
x,-y,-z
-x,y,1/2-z
1/2+x,1/2+y,z
1/2-x,1/2-y,1/2+z
1/2+x,1/2-y,-z
1/2-x,1/2+y,1/2-z
loop_
_atom_site_type_symbol
_atom_site_label
_atom_site_fract_x
_atom_site_fract_y
_atom_site_fract_z
Si Si1 0.688980 0.199070 0.740961
Si Si2 0.507341 0.163846 0.071948
Si Si3 0.885304 0.675045 0.028227
Si Si4 0.878528 0.823177 0.517067
Si Si5 0.807349 0.653999 0.291104
O O1 0.668173 0.211610 0.571939
O O2 0.747643 0.282715 0.758924
O O3 0.694501 0.025613 0.788020
O O4 0.635479 0.275716 0.816491
O O5 0.500000 0.147438 0.250000
O O6 0.561749 0.260431 0.033363
O O7 0.448458 0.233797 0.013972
O O8 0.515788 0.000000 0.000000
O O9 0.893683 0.500000 0.000000
O O10 0.860133 0.698667 0.189863
O O11 0.826491 0.735875 0.440524
O O12 0.874900 0.000000 0.500000
#
# Coordination Sequence:
#
# PCOD9322248 Si02
#       5
#     8   8   8   8   8
#     4  11  23  40  68  98 128 172 216 271 331 398
#     4  11  23  44  72  96 123 168 219 275 333 398
#     4   9  21  39  64  93 124 160 211 270 329 390
#     4  12  26  43  62  95 136 177 218 266 322 391
#     4  11  21  42  66  96 131 169 215 270 331 389
#
# _framework density 10.288066000000001
#
# number of rings (size 3 to 8) (size 9 to 14) (size 15 to 20)
#    0.000    1.200    2.000    4.200    5.600    1.600 
#    3.600    3.000    0.000    0.000    0.000    0.000 
#    0.000    0.000    0.000    0.000    0.000    0.000 
#
# Total GULP energy -111443.213130 kJ/mol
# GULP energy per Si atom -5572.160656 kJ/mol
# Density = 1.026465 g / cm^3
# Si number density = 10.288066 Si / 1000 Ang^3
#
#
#
# Elastic Constant Matrix: (Units=GPa)
#
#
# Indices 1 2 3 4 5 6 
#
# 1 165.3503 51.8848 16.8372 0.0000 0.0000 0.0000
# 2 51.8848 103.8601 10.1411 0.0000 0.0000 0.0000
# 3 16.8372 10.1411 14.5217 0.0000 0.0000 0.0000
# 4 0.0000 0.0000 0.0000 12.8698 0.0000 0.0000
# 5 0.0000 0.0000 0.0000 0.0000 28.6018 0.0000
# 6 0.0000 0.0000 0.0000 0.0000 0.0000 102.6122
#
#
#
# Elastic Compliance Matrix: (Units=1/GPa)
#
#
# Indices 1 2 3 4 5 6 
#
# 1 0.007740 -0.003209 -0.006733 0.000000 0.000000 0.000000
# 2 -0.003209 0.011664 -0.004424 0.000000 0.000000 0.000000
# 3 -0.006733 -0.004424 0.079759 0.000000 0.000000 0.000000
# 4 0.000000 0.000000 0.000000 0.077701 0.000000 0.000000
# 5 0.000000 0.000000 0.000000 0.000000 0.034963 0.000000
# 6 0.000000 0.000000 0.000000 0.000000 0.000000 0.009745
#
#
# Mechanical properties :
#
#
# Convention : Reuss Voigt Hill
#
# Bulk Modulus (GPa) = 14.19860 49.05093 31.62476
# Shear Modulus (GPa) = 18.26263 42.47470 30.36866
#
# Velocity S-wave (km/s) = 2.98243 4.54835 3.84593
# Velocity P-wave (km/s) = 4.33306 7.17453 5.92660
#
# Compressibility (1/GPa) = 0.07042948
#
# Stress axis : x y z
#
# Youngs Moduli (GPa) = 129.19080 85.73673 12.53773
#
# Poissons Ratio (x) = 0.27516 0.08442
# Poissons Ratio (y) = 0.41463 0.05547
# Poissons Ratio (z) = 0.86990 0.37930
#
# Static dielectric constant tensor:
#      x y z
#    x 1.686300 0.000000 0.000000 
#    y 0.000000 1.674570 0.000000 
#    z 0.000000 0.000000 1.769490 
# 
# From -- ./inp_files/6085.got.cif
#   From: 2010.05.17/outbox.ucp.g08.bks.cvg/sg20_4_cif.got.tgz:6085.got - 2010.06.11 15:13:06.
