data_PCOD9322245
_publ_section_title
;
Structure prediction by ZEFSAII (Michael W. Deem and Ramdas Pophale) SiO2 
 PCOD9322245
Probable space group: C 2 2 21
;
_chemical_formula_sum "Si O2"
_cell_formula_units_Z 32
_cell_length_a 12.000000
_cell_length_b 15.000000
_cell_length_c 18.000000
_cell_angle_alpha 90.000000
_cell_angle_beta 90.000000
_cell_angle_gamma 90.000000
_cell_volume 3240.000000
_symmetry_space_group_name_H-M "C 2 2 21"
_symmetry_group_IT_number 20
_symmetry_cell_setting 'orthorhombic'
loop_
_space_group_symop_operation_xyz
x,y,z
-x,-y,1/2+z
x,-y,-z
-x,y,1/2-z
1/2+x,1/2+y,z
1/2-x,1/2-y,1/2+z
1/2+x,1/2-y,-z
1/2-x,1/2+y,1/2-z
loop_
_atom_site_type_symbol
_atom_site_label
_atom_site_fract_x
_atom_site_fract_y
_atom_site_fract_z
Si Si1 0.793193 0.208645 0.364370
Si Si2 0.240926 0.267980 0.808217
Si Si3 0.962664 0.743417 0.903734
Si Si4 0.789479 0.015603 0.418208
Si Si5 0.539555 0.961291 0.419576
Si Si6 0.066673 0.895180 0.174261
Si Si7 0.587592 0.716435 0.572949
Si Si8 0.535343 0.128332 0.164791
O O1 0.762839 0.212732 0.278050
O O2 0.758644 0.117004 0.403846
O O3 0.717678 0.282668 0.405378
O O4 0.925115 0.212665 0.374059
O O5 0.356187 0.255263 0.851010
O O6 0.160739 0.181464 0.815467
O O7 0.165073 0.347123 0.841303
O O8 0.994464 0.639610 0.909857
O O9 0.931969 0.777944 0.985648
O O10 0.838525 0.000000 0.500000
O O11 0.674011 0.961835 0.416070
O O12 0.871050 0.981924 0.354772
O O13 0.507945 0.000000 0.500000
O O14 0.492585 0.028393 0.358380
O O15 0.000000 0.906286 0.250000
O O16 0.980458 0.862458 0.111590
O O17 0.533217 0.804288 0.612129
O O18 0.500000 0.145794 0.250000
#
# Coordination Sequence:
#
# PCOD9322245 Si02
#       8
#     8   8   8   8   8   8   8   8
#     4  12  24  44  63  97 138 167 219 277 332 395
#     4  11  23  43  62  96 128 175 216 266 336 398
#     4  12  26  38  68  97 135 169 210 283 335 380
#     4  11  22  41  68  95 128 172 224 273 322 390
#     4  11  21  40  61  99 126 162 218 270 327 385
#     4  11  22  41  68  93 126 174 228 262 316 404
#     4  11  21  40  65  96 123 170 221 263 322 390
#     4  11  20  39  67  87 122 170 223 261 317 397
#
# _framework density 9.8765429999999999
#
# number of rings (size 3 to 8) (size 9 to 14) (size 15 to 20)
#    0.000    0.750    6.250    2.625    3.500    2.000 
#    2.250    1.250    0.000    1.500    0.000    0.000 
#    0.000    0.000    0.000    0.000    0.000    0.000 
#
# Total GULP energy -178781.873139 kJ/mol
# GULP energy per Si atom -5586.933536 kJ/mol
# Density = 0.985406 g / cm^3
# Si number density = 9.876543 Si / 1000 Ang^3
#
#
#
# Elastic Constant Matrix: (Units=GPa)
#
#
# Indices 1 2 3 4 5 6 
#
# 1 96.6528 -1.1552 47.9002 0.0000 0.0000 0.0000
# 2 -1.1552 22.6756 -1.8784 0.0000 0.0000 0.0000
# 3 47.9002 -1.8784 70.6986 0.0000 0.0000 0.0000
# 4 0.0000 0.0000 0.0000 20.4330 0.0000 0.0000
# 5 0.0000 0.0000 0.0000 0.0000 21.2272 0.0000
# 6 0.0000 0.0000 0.0000 0.0000 0.0000 105.0001
#
#
#
# Elastic Compliance Matrix: (Units=1/GPa)
#
#
# Indices 1 2 3 4 5 6 
#
# 1 0.015577 -0.000081 -0.010556 0.000000 0.000000 0.000000
# 2 -0.000081 0.044198 0.001229 0.000000 0.000000 0.000000
# 3 -0.010556 0.001229 0.021329 0.000000 0.000000 0.000000
# 4 0.000000 0.000000 0.000000 0.048940 0.000000 0.000000
# 5 0.000000 0.000000 0.000000 0.000000 0.047109 0.000000
# 6 0.000000 0.000000 0.000000 0.000000 0.000000 0.009524
#
#
# Mechanical properties :
#
#
# Convention : Reuss Voigt Hill
#
# Bulk Modulus (GPa) = 16.05431 31.08445 23.56938
# Shear Modulus (GPa) = 22.09895 39.00941 30.55418
#
# Velocity S-wave (km/s) = 3.34841 4.44875 3.93721
# Velocity P-wave (km/s) = 4.80565 6.49301 5.71198
#
# Compressibility (1/GPa) = 0.06228855
#
# Stress axis : x y z
#
# Youngs Moduli (GPa) = 64.19857 22.62551 46.88446
#
# Poissons Ratio (x) = 0.00183 0.49490
# Poissons Ratio (y) = 0.00519 -0.05763
# Poissons Ratio (z) = 0.67766 -0.02781
#
# Static dielectric constant tensor:
#      x y z
#    x 1.682710 0.000000 0.000000 
#    y 0.000000 1.718190 0.000000 
#    z 0.000000 0.000000 1.668560 
# 
# From -- ./inp_files/24449.got.cif
#   From: 2010.05.17/outbox.ucp.g08.bks.cvg/sg20_13_cif.got.tgz:24449.got - 2010.06.11 15:13:06.
