data_PCOD9322075
_publ_section_title
;
Structure prediction by ZEFSAII (Michael W. Deem and Ramdas Pophale) SiO2 
 PCOD9322075
Probable space group: C 2 2 21
;
_chemical_formula_sum "Si O2"
_cell_formula_units_Z 28
_cell_length_a 7.230451
_cell_length_b 12.552132
_cell_length_c 12.469660
_cell_angle_alpha 90.000000
_cell_angle_beta 90.000000
_cell_angle_gamma 90.000000
_cell_volume 1131.716107
_symmetry_space_group_name_H-M "C 2 2 21"
_symmetry_group_IT_number 20
_symmetry_cell_setting 'orthorhombic'
loop_
_space_group_symop_operation_xyz
x,y,z
-x,-y,1/2+z
x,-y,-z
-x,y,1/2-z
1/2+x,1/2+y,z
1/2-x,1/2-y,1/2+z
1/2+x,1/2-y,-z
1/2-x,1/2+y,1/2-z
loop_
_atom_site_type_symbol
_atom_site_label
_atom_site_fract_x
_atom_site_fract_y
_atom_site_fract_z
Si Si1 0.000000 0.132851 0.750000
Si Si2 0.269305 0.466264 0.876572
Si Si3 0.460479 0.184474 0.095281
Si Si4 0.036212 0.236906 0.136368
O O1 0.946456 0.212904 0.653559
O O2 0.840258 0.057748 0.797620
O O3 0.063245 0.420773 0.865180
O O4 0.403571 0.365289 0.862800
O O5 0.293121 0.500000 0.000000
O O6 0.753561 0.195883 0.375381
O O7 0.491821 0.194493 0.968448
O O8 0.000000 0.292067 0.250000
#
# Coordination Sequence:
#
# PCOD9322075 Si02
#       4
#     4   8   8   8
#     4  12  26  50  82 110 166 208 276 346 392 500
#     4  12  26  50  76 122 160 211 280 335 410 505
#     4  12  27  51  81 118 167 220 271 343 422 492
#     4  12  25  47  81 117 167 213 272 341 413 498
#
# _framework density 24.741188999999999
#
# number of rings (size 3 to 8) (size 9 to 14) (size 15 to 20)
#    0.000    0.000    7.143    1.714    0.000    1.143 
#    0.000    5.714    0.000    0.000    0.000    0.000 
#    0.000    0.000    0.000    0.000    0.000    0.000 
#
# Total GULP energy -78521.970355 kJ/mol
# GULP energy per Si atom -5608.712168 kJ/mol
# Density = 2.468488 g / cm^3
# Si number density = 24.741189 Si / 1000 Ang^3
#
#
#
# Elastic Constant Matrix: (Units=GPa)
#
#
# Indices 1 2 3 4 5 6 
#
# 1 147.7036 18.1898 63.8299 0.0000 0.0000 0.0000
# 2 18.1898 83.4162 42.9413 0.0000 0.0000 0.0000
# 3 63.8299 42.9413 222.3135 0.0000 0.0000 0.0000
# 4 0.0000 0.0000 0.0000 27.2449 0.0000 0.0000
# 5 0.0000 0.0000 0.0000 0.0000 31.2076 0.0000
# 6 0.0000 0.0000 0.0000 0.0000 0.0000 -9.7418
#
#
#
# Elastic Compliance Matrix: (Units=1/GPa)
#
#
# Indices 1 2 3 4 5 6 
#
# 1 0.007757 -0.000605 -0.002110 0.000000 0.000000 0.000000
# 2 -0.000605 0.013359 -0.002407 0.000000 0.000000 0.000000
# 3 -0.002110 -0.002407 0.005569 0.000000 0.000000 0.000000
# 4 0.000000 0.000000 0.000000 0.036704 0.000000 0.000000
# 5 0.000000 0.000000 0.000000 0.000000 0.032043 0.000000
# 6 0.000000 0.000000 0.000000 0.000000 0.000000 -0.102651
#
#
# Mechanical properties :
#
#
# Convention : Reuss Voigt Hill
#
# Bulk Modulus (GPa) = 60.82492 78.15059 69.48776
# Shear Modulus (GPa) = 587.83250 31.64029 309.73640
#
# Velocity S-wave (km/s) = 15.43076 3.57998 11.20100
# Velocity P-wave (km/s) = 18.49637 6.98170 13.97963
#
# Compressibility (1/GPa) = 0.01644063
#
# Stress axis : x y z
#
# Youngs Moduli (GPa) = 128.91969 74.85636 179.56929
#
# Poissons Ratio (x) = 0.04530 0.37893
# Poissons Ratio (y) = 0.07802 0.43215
# Poissons Ratio (z) = 0.27205 0.18015
#
# Static dielectric constant tensor:
#      x y z
#    x 1.959470 0.000000 0.000000 
#    y 0.000000 1.921170 0.000000 
#    z 0.000000 0.000000 1.975980 
# 
# From -- ./inp_files/12393.got.cif
#   From: 2010.05.17/outbox.cif.g08.bks.cpg/sg20_7_cif.got.tgz:12393.got - 2010.06.03 22:52:26.
