data_PCOD9322589
_publ_section_title
;
Structure prediction by ZEFSAII (Michael W. Deem and Ramdas Pophale) SiO2 
 PCOD9322589
Probable space group: C 2 2 2
;
_chemical_formula_sum "Si O2"
_cell_formula_units_Z 30
_cell_length_a 8.931807
_cell_length_b 21.574273
_cell_length_c 7.816020
_cell_angle_alpha 90.000000
_cell_angle_beta 90.000000
_cell_angle_gamma 90.000000
_cell_volume 1506.125502
_symmetry_space_group_name_H-M "C 2 2 2"
_symmetry_group_IT_number 21
_symmetry_cell_setting 'orthorhombic'
loop_
_space_group_symop_operation_xyz
x,y,z
-x,-y,z
x,-y,-z
-x,y,-z
1/2+x,1/2+y,z
1/2-x,1/2-y,z
1/2+x,1/2-y,-z
1/2-x,1/2+y,-z
loop_
_atom_site_type_symbol
_atom_site_label
_atom_site_fract_x
_atom_site_fract_y
_atom_site_fract_z
Si Si1 0.251333 0.409240 0.059024
Si Si2 0.361522 0.882543 0.319685
Si Si3 0.500000 0.500000 0.000000
Si Si4 0.000000 0.500000 0.500000
Si Si5 0.689621 0.180484 0.656054
Si Si6 0.500000 0.000000 0.000000
O O1 0.264014 0.351520 0.181179
O O2 0.108286 0.452854 0.098651
O O3 0.222317 0.389370 0.861633
O O4 0.389986 0.453774 0.095310
O O5 0.271144 0.851784 0.475647
O O6 0.512401 0.838617 0.311864
O O7 0.403707 0.951328 0.387842
O O8 0.750000 0.250000 0.648056
#
# Coordination Sequence:
#
# PCOD9322589 Si02
#       6
#     8   8   2   2   8   2
#     4  11  21  43  62  96 123 168 198 267 312 377
#     4  10  21  38  68  93 115 169 204 263 307 376
#     4  10  28  38  60 102 136 148 212 260 334 354
#     4   8  18  32  66 108 104 142 226 252 302 378
#     4  10  22  40  62  93 121 159 221 254 300 371
#     4  10  18  34  76  84 116 152 214 252 310 376
#
# _framework density 19.918658000000001
#
# number of rings (size 3 to 8) (size 9 to 14) (size 15 to 20)
#    0.000    2.133    2.667    0.800   11.200    1.067 
#   14.400    1.333    0.000    0.000    0.000    0.000 
#    0.000    0.000    0.000    0.000    0.000    0.000 
#
# Total GULP energy -83504.876040 kJ/mol
# GULP energy per Si atom -5566.991736 kJ/mol
# Density = 1.987332 g / cm^3
# Si number density = 19.918658 Si / 1000 Ang^3
#
#
#
# Elastic Constant Matrix: (Units=GPa)
#
#
# Indices 1 2 3 4 5 6 
#
# 1 64.4916 40.8894 21.8879 0.0000 0.0000 0.0000
# 2 40.8894 196.4139 96.0176 0.0000 0.0000 0.0000
# 3 21.8879 96.0176 175.4067 0.0000 0.0000 0.0000
# 4 0.0000 0.0000 0.0000 -13.3032 0.0000 0.0000
# 5 0.0000 0.0000 0.0000 0.0000 -6.4742 0.0000
# 6 0.0000 0.0000 0.0000 0.0000 0.0000 15.0556
#
#
#
# Elastic Compliance Matrix: (Units=1/GPa)
#
#
# Indices 1 2 3 4 5 6 
#
# 1 0.017873 -0.003592 -0.000264 0.000000 0.000000 0.000000
# 2 -0.003592 0.007673 -0.003752 0.000000 0.000000 0.000000
# 3 -0.000264 -0.003752 0.007788 0.000000 0.000000 0.000000
# 4 0.000000 0.000000 0.000000 -0.075170 0.000000 0.000000
# 5 0.000000 0.000000 0.000000 0.000000 -0.154458 0.000000
# 6 0.000000 0.000000 0.000000 0.000000 0.000000 0.066420
#
#
# Mechanical properties :
#
#
# Convention : Reuss Voigt Hill
#
# Bulk Modulus (GPa) = 55.19365 83.76687 69.48026
# Shear Modulus (GPa) = -46.03255 17.55679 -14.23788
#
# Velocity S-wave (km/s) = -4.81253 2.97210 -2.67648
# Velocity P-wave (km/s) = 1.76377 7.34327 5.04047
#
# Compressibility (1/GPa) = 0.01811803
#
# Stress axis : x y z
#
# Youngs Moduli (GPa) = 55.95119 130.32297 128.40373
#
# Poissons Ratio (x) = 0.46807 0.03392
# Poissons Ratio (y) = 0.20095 0.48179
# Poissons Ratio (z) = 0.01478 0.48899
#
# Static dielectric constant tensor:
#      x y z
#    x 3.197730 0.000000 0.000000 
#    y 0.000000 1.695520 0.000000 
#    z 0.000000 0.000000 1.787970 
# 
# From -- ./inp_files/10376.got.cif
#   From: 2010.05.17/outbox.cif.g08.bks.cpg/sg21_6_cif.got.tgz:10376.got - 2010.06.03 23:14:55.
