data_PCOD9322643
_publ_section_title
;
Structure prediction by ZEFSAII (Michael W. Deem and Ramdas Pophale) SiO2 
 PCOD9322643
Probable space group: C 2 2 2
;
_chemical_formula_sum "Si O2"
_cell_formula_units_Z 64
_cell_length_a 16.129935
_cell_length_b 19.388084
_cell_length_c 11.572446
_cell_angle_alpha 90.000000
_cell_angle_beta 90.000000
_cell_angle_gamma 90.000000
_cell_volume 3619.034080
_symmetry_space_group_name_H-M "C 2 2 2"
_symmetry_group_IT_number 21
_symmetry_cell_setting 'orthorhombic'
loop_
_space_group_symop_operation_xyz
x,y,z
-x,-y,z
x,-y,-z
-x,y,-z
1/2+x,1/2+y,z
1/2-x,1/2-y,z
1/2+x,1/2-y,-z
1/2-x,1/2+y,-z
loop_
_atom_site_type_symbol
_atom_site_label
_atom_site_fract_x
_atom_site_fract_y
_atom_site_fract_z
Si Si1 0.247701 0.897025 0.933724
Si Si2 0.241700 0.670431 0.585178
Si Si3 0.619327 0.181572 0.795246
Si Si4 0.024550 0.080570 0.629660
Si Si5 0.387886 0.656295 0.767262
Si Si6 0.213481 0.938258 0.407478
Si Si7 0.207932 0.546094 0.161979
Si Si8 0.520201 0.076921 0.136596
O O1 0.313167 0.838560 0.894036
O O2 0.161067 0.882086 0.870202
O O3 0.289545 0.967532 0.885023
O O4 0.238252 0.909997 0.069942
O O5 0.250000 0.750000 0.550835
O O6 0.165925 0.664700 0.674849
O O7 0.323546 0.651558 0.659638
O O8 0.238584 0.620981 0.476532
O O9 0.602470 0.263112 0.797249
O O10 0.537741 0.135313 0.808944
O O11 0.123127 0.086225 0.633816
O O12 0.000000 0.103526 0.500000
O O13 0.972512 0.122069 0.724477
O O14 0.000000 0.000000 0.640117
O O15 0.261245 0.958523 0.292177
O O16 0.202015 0.000000 0.500000
O O17 0.118142 0.581344 0.154523
O O18 0.500000 0.000000 0.180840
O O19 0.500000 0.078164 0.000000
#
# Coordination Sequence:
#
# PCOD9322643 Si02
#       8
#     8   8   8   8   8   8   8   8
#     4  10  18  38  60  89 118 155 202 253 300 368
#     4   9  19  36  56  81 111 154 195 238 292 361
#     4  10  19  36  62  85 115 160 206 246 301 367
#     4  11  19  36  60  91 110 154 207 252 296 361
#     4  10  20  36  63  88 114 156 211 251 297 371
#     4  12  22  37  60  87 120 154 197 250 303 364
#     4  11  22  35  62  93 120 155 202 254 309 356
#     4  11  19  37  61  88 117 154 204 248 292 361
#
# _framework density 17.684277999999999
#
# number of rings (size 3 to 8) (size 9 to 14) (size 15 to 20)
#    0.000    1.500    5.000    4.125    0.000    0.000 
#    2.250    3.750    0.000    2.250    0.000    0.000 
#    0.000    0.000    0.000    0.000    0.000    0.000 
#
# Total GULP energy -178510.382683 kJ/mol
# GULP energy per Si atom -5578.449459 kJ/mol
# Density = 1.764403 g / cm^3
# Si number density = 17.684278 Si / 1000 Ang^3
#
#
#
# Elastic Constant Matrix: (Units=GPa)
#
#
# Indices 1 2 3 4 5 6 
#
# 1 95.5371 34.0694 37.2736 0.0000 0.0000 0.0000
# 2 34.0694 78.8104 45.9415 0.0000 0.0000 0.0000
# 3 37.2736 45.9415 83.6547 0.0000 0.0000 0.0000
# 4 0.0000 0.0000 0.0000 18.6441 0.0000 0.0000
# 5 0.0000 0.0000 0.0000 0.0000 17.9203 0.0000
# 6 0.0000 0.0000 0.0000 0.0000 0.0000 26.3532
#
#
#
# Elastic Compliance Matrix: (Units=1/GPa)
#
#
# Indices 1 2 3 4 5 6 
#
# 1 0.013249 -0.003363 -0.004057 0.000000 0.000000 0.000000
# 2 -0.003363 0.019517 -0.009220 0.000000 0.000000 0.000000
# 3 -0.004057 -0.009220 0.018825 0.000000 0.000000 0.000000
# 4 0.000000 0.000000 0.000000 0.053636 0.000000 0.000000
# 5 0.000000 0.000000 0.000000 0.000000 0.055803 0.000000
# 6 0.000000 0.000000 0.000000 0.000000 0.000000 0.037946
#
#
# Mechanical properties :
#
#
# Convention : Reuss Voigt Hill
#
# Bulk Modulus (GPa) = 54.60847 54.73015 54.66931
# Shear Modulus (GPa) = 20.97677 21.96469 21.47073
#
# Velocity S-wave (km/s) = 3.44784 3.52809 3.48819
# Velocity P-wave (km/s) = 6.84082 6.90016 6.87055
#
# Compressibility (1/GPa) = 0.01831218
#
# Stress axis : x y z
#
# Youngs Moduli (GPa) = 75.47757 51.23704 53.12133
#
# Poissons Ratio (x) = 0.17230 0.21549
# Poissons Ratio (y) = 0.25381 0.48978
# Poissons Ratio (z) = 0.30618 0.47241
#
# Static dielectric constant tensor:
#      x y z
#    x 1.611780 0.000000 0.000000 
#    y 0.000000 1.612350 0.000000 
#    z 0.000000 0.000000 1.601060 
# 
# From -- ./inp_files/25507.got.cif
#   From: 2010.05.17/outbox.cif.g08.bks.cpg/sg21_13_cif.got.tgz:25507.got - 2010.06.03 23:14:55.
