data_PCOD9322375
_publ_section_title
;
Structure prediction by ZEFSAII (Michael W. Deem and Ramdas Pophale) SiO2 
 PCOD9322375
Probable space group: C 2 2 2
;
_chemical_formula_sum "Si O2"
_cell_formula_units_Z 42
_cell_length_a 25.035674
_cell_length_b 7.373739
_cell_length_c 12.994390
_cell_angle_alpha 90.000000
_cell_angle_beta 90.000000
_cell_angle_gamma 90.000000
_cell_volume 2398.849192
_symmetry_space_group_name_H-M "C 2 2 2"
_symmetry_group_IT_number 21
_symmetry_cell_setting 'orthorhombic'
loop_
_space_group_symop_operation_xyz
x,y,z
-x,-y,z
x,-y,-z
-x,y,-z
1/2+x,1/2+y,z
1/2-x,1/2-y,z
1/2+x,1/2-y,-z
1/2-x,1/2+y,-z
loop_
_atom_site_type_symbol
_atom_site_label
_atom_site_fract_x
_atom_site_fract_y
_atom_site_fract_z
Si Si1 0.453012 0.249011 0.291659
Si Si2 0.706357 0.608207 0.399799
Si Si3 0.939447 0.358846 0.191020
Si Si4 0.599657 0.784176 0.494586
Si Si5 0.121071 0.912582 0.290003
Si Si6 0.000000 0.500000 0.000000
O O1 0.513074 0.250812 0.249804
O O2 0.448487 0.252999 0.415311
O O3 0.414594 0.413232 0.259389
O O4 0.433543 0.053856 0.247141
O O5 0.727641 0.500000 0.500000
O O6 0.750000 0.750000 0.362928
O O7 0.653559 0.713220 0.439709
O O8 0.681159 0.473726 0.315876
O O9 0.887034 0.240625 0.204845
O O10 0.961972 0.389038 0.077085
O O11 0.599538 0.679684 0.602955
O O12 0.602761 0.000000 0.500000
#
# Coordination Sequence:
#
# PCOD9322375 Si02
#       6
#     8   8   8   8   8   2
#     4   9  18  30  46  69  99 138 175 215 242 312
#     4   9  18  30  46  70 101 146 184 216 252 300
#     4  10  19  35  50  69 100 136 177 219 274 310
#     4  10  17  29  46  69 102 142 177 213 246 298
#     4  10  19  31  49  70 103 142 178 213 258 304
#     4   8  20  36  54  74  96 138 180 228 270 326
#
# _framework density 17.508395
#
# number of rings (size 3 to 8) (size 9 to 14) (size 15 to 20)
#    0.000    2.667    1.905    2.857    0.000    0.762 
#    0.000   13.333    0.000    0.000    0.000    0.000 
#    0.000    0.000  414.476   68.571    0.000    0.000 
#
# Total GULP energy -116938.248459 kJ/mol
# GULP energy per Si atom -5568.488022 kJ/mol
# Density = 1.746854 g / cm^3
# Si number density = 17.508395 Si / 1000 Ang^3
#
#
#
# Elastic Constant Matrix: (Units=GPa)
#
#
# Indices 1 2 3 4 5 6 
#
# 1 52.2515 28.9305 36.3783 0.0000 0.0000 0.0000
# 2 28.9305 77.7185 17.6884 0.0000 0.0000 0.0000
# 3 36.3783 17.6884 79.2502 0.0000 0.0000 0.0000
# 4 0.0000 0.0000 0.0000 15.7149 0.0000 0.0000
# 5 0.0000 0.0000 0.0000 0.0000 9.3658 0.0000
# 6 0.0000 0.0000 0.0000 0.0000 0.0000 40.7546
#
#
#
# Elastic Compliance Matrix: (Units=1/GPa)
#
#
# Indices 1 2 3 4 5 6 
#
# 1 0.033691 -0.009504 -0.013344 0.000000 0.000000 0.000000
# 2 -0.009504 0.016237 0.000739 0.000000 0.000000 0.000000
# 3 -0.013344 0.000739 0.018579 0.000000 0.000000 0.000000
# 4 0.000000 0.000000 0.000000 0.063634 0.000000 0.000000
# 5 0.000000 0.000000 0.000000 0.000000 0.106771 0.000000
# 6 0.000000 0.000000 0.000000 0.000000 0.000000 0.024537
#
#
# Mechanical properties :
#
#
# Convention : Reuss Voigt Hill
#
# Bulk Modulus (GPa) = 41.17350 41.69053 41.43201
# Shear Modulus (GPa) = 15.83470 21.58194 18.70832
#
# Velocity S-wave (km/s) = 3.01060 3.51474 3.27239
# Velocity P-wave (km/s) = 5.97096 6.35095 6.16389
#
# Compressibility (1/GPa) = 0.02428747
#
# Stress axis : x y z
#
# Youngs Moduli (GPa) = 29.68180 61.58866 53.82543
#
# Poissons Ratio (x) = 0.58536 0.71823
# Poissons Ratio (y) = 0.28210 -0.03976
# Poissons Ratio (z) = 0.39607 -0.04550
#
# Static dielectric constant tensor:
#      x y z
#    x 1.606010 0.000000 0.000000 
#    y 0.000000 1.655410 0.000000 
#    z 0.000000 0.000000 1.605230 
# 
# From -- ./inp_files/27264.got.cif
#   From: 2010.05.17/outbox.cif.g08.bks.cpg/sg21_14_cif.got.tgz:27264.got - 2010.06.03 23:14:55.
