data_PCOD9322109
_publ_section_title
;
Structure prediction by ZEFSAII (Michael W. Deem and Ramdas Pophale) SiO2 
 PCOD9322109
Probable space group: C 2 2 21
;
_chemical_formula_sum "Si O2"
_cell_formula_units_Z 28
_cell_length_a 6.023394
_cell_length_b 16.947090
_cell_length_c 10.678826
_cell_angle_alpha 90.000000
_cell_angle_beta 90.000000
_cell_angle_gamma 90.000000
_cell_volume 1090.083882
_symmetry_space_group_name_H-M "C 2 2 21"
_symmetry_group_IT_number 20
_symmetry_cell_setting 'orthorhombic'
loop_
_space_group_symop_operation_xyz
x,y,z
-x,-y,1/2+z
x,-y,-z
-x,y,1/2-z
1/2+x,1/2+y,z
1/2-x,1/2-y,1/2+z
1/2+x,1/2-y,-z
1/2-x,1/2+y,1/2-z
loop_
_atom_site_type_symbol
_atom_site_label
_atom_site_fract_x
_atom_site_fract_y
_atom_site_fract_z
Si Si1 0.355780 0.944686 0.369647
Si Si2 0.500000 0.444701 0.750000
Si Si3 0.796862 0.632760 0.038357
Si Si4 0.573106 0.701407 0.620979
O O1 0.500000 0.967892 0.250000
O O2 0.506991 0.925449 0.493711
O O3 0.274804 0.855166 0.347039
O O4 0.143208 0.002716 0.349446
O O5 0.326575 0.393787 0.666230
O O6 0.881618 0.722936 0.037924
O O7 0.602654 0.640543 0.936609
O O8 0.500000 0.738975 0.750000
#
# Coordination Sequence:
#
# PCOD9322109 Si02
#       4
#     8   4   8   8
#     4  12  26  53  80 117 169 222 280 363 426 506
#     4  12  32  52  84 132 176 230 290 346 460 508
#     4  12  29  50  87 122 171 227 290 358 428 517
#     4  12  26  49  80 122 159 219 292 353 429 508
#
# _framework density 25.686095999999999
#
# number of rings (size 3 to 8) (size 9 to 14) (size 15 to 20)
#    0.000    0.000    7.143    0.000    6.000   10.286 
#    0.000    0.000    0.000    0.000    0.000    0.000 
#    0.000    0.000    0.000    0.000    0.000    0.000 
#
# Total GULP energy -78181.415149 kJ/mol
# GULP energy per Si atom -5584.386796 kJ/mol
# Density = 2.562763 g / cm^3
# Si number density = 25.686096 Si / 1000 Ang^3
#
#
#
# Elastic Constant Matrix: (Units=GPa)
#
#
# Indices 1 2 3 4 5 6 
#
# 1 101.8551 40.6786 33.3565 0.0000 0.0000 0.0000
# 2 40.6786 98.4410 -10.7868 0.0000 0.0000 0.0000
# 3 33.3565 -10.7868 95.3303 0.0000 0.0000 0.0000
# 4 0.0000 0.0000 0.0000 25.0457 0.0000 0.0000
# 5 0.0000 0.0000 0.0000 0.0000 69.2287 0.0000
# 6 0.0000 0.0000 0.0000 0.0000 0.0000 33.2351
#
#
#
# Elastic Compliance Matrix: (Units=1/GPa)
#
#
# Indices 1 2 3 4 5 6 
#
# 1 0.014315 -0.006545 -0.005749 0.000000 0.000000 0.000000
# 2 -0.006545 0.013279 0.003793 0.000000 0.000000 0.000000
# 3 -0.005749 0.003793 0.012931 0.000000 0.000000 0.000000
# 4 0.000000 0.000000 0.000000 0.039927 0.000000 0.000000
# 5 0.000000 0.000000 0.000000 0.000000 0.014445 0.000000
# 6 0.000000 0.000000 0.000000 0.000000 0.000000 0.030089
#
#
# Mechanical properties :
#
#
# Convention : Reuss Voigt Hill
#
# Bulk Modulus (GPa) = 42.51657 46.90257 44.70957
# Shear Modulus (GPa) = 33.37142 40.99376 37.18259
#
# Velocity S-wave (km/s) = 3.60835 3.99927 3.80883
# Velocity P-wave (km/s) = 5.82654 6.29485 6.06522
#
# Compressibility (1/GPa) = 0.02352024
#
# Stress axis : x y z
#
# Youngs Moduli (GPa) = 69.85786 75.30884 77.33507
#
# Poissons Ratio (x) = 0.49292 0.44463
# Poissons Ratio (y) = 0.45724 -0.29331
# Poissons Ratio (z) = 0.40164 -0.28563
#
# Static dielectric constant tensor:
#      x y z
#    x 2.218800 0.000000 0.000000 
#    y 0.000000 1.869890 0.000000 
#    z 0.000000 0.000000 2.069740 
# 
# From -- ./inp_files/11788.got.cif
#   From: 2010.05.17/outbox.cif.g08.bks.cpg/sg20_6_cif.got.tgz:11788.got - 2010.06.03 22:52:26.
