data_PCOD9322301
_publ_section_title
;
Structure prediction by ZEFSAII (Michael W. Deem and Ramdas Pophale) SiO2 
 PCOD9322301
Probable space group: C 2 2 2
;
_chemical_formula_sum "Si O2"
_cell_formula_units_Z 64
_cell_length_a 23.801688
_cell_length_b 19.862176
_cell_length_c 9.350030
_cell_angle_alpha 90.000000
_cell_angle_beta 90.000000
_cell_angle_gamma 90.000000
_cell_volume 4420.257689
_symmetry_space_group_name_H-M "C 2 2 2"
_symmetry_group_IT_number 21
_symmetry_cell_setting 'orthorhombic'
loop_
_space_group_symop_operation_xyz
x,y,z
-x,-y,z
x,-y,-z
-x,y,-z
1/2+x,1/2+y,z
1/2-x,1/2-y,z
1/2+x,1/2-y,-z
1/2-x,1/2+y,-z
loop_
_atom_site_type_symbol
_atom_site_label
_atom_site_fract_x
_atom_site_fract_y
_atom_site_fract_z
Si Si1 0.127690 0.599628 0.272325
Si Si2 0.782487 0.854032 0.350392
Si Si3 0.760710 0.564894 0.595893
Si Si4 0.661859 0.786449 0.300394
Si Si5 0.438451 0.841946 0.511264
Si Si6 0.358418 0.108663 0.065836
Si Si7 0.242662 0.030362 0.144822
Si Si8 0.059976 0.464835 0.269708
O O1 0.184759 0.607288 0.361825
O O2 0.082613 0.645874 0.350704
O O3 0.104968 0.523883 0.294707
O O4 0.136689 0.611883 0.104701
O O5 0.783688 0.892475 0.503104
O O6 0.718411 0.826125 0.346512
O O7 0.822508 0.791532 0.317824
O O8 0.788102 0.908949 0.225250
O O9 0.777194 0.500000 0.500000
O O10 0.743189 0.530950 0.743930
O O11 0.608755 0.803245 0.399241
O O12 0.650054 0.819346 0.144300
O O13 0.500000 0.810791 0.500000
O O14 0.443872 0.913386 0.597127
O O15 0.304985 0.060997 0.108261
O O16 0.414203 0.075940 0.135627
O O17 0.218731 0.000000 0.000000
O O18 0.000000 0.500000 0.244010
#
# Coordination Sequence:
#
# PCOD9322301 Si02
#       8
#     8   8   8   8   8   8   8   8
#     4  12  19  28  42  63  94 119 160 198 233 263
#     4   9  18  31  50  63  85 126 155 188 226 284
#     4  10  17  27  46  67  86 115 150 187 235 273
#     4   9  19  35  46  59  88 125 167 184 226 280
#     4  11  21  32  45  64  88 126 164 206 226 257
#     4  10  20  30  43  61  92 132 155 193 231 269
#     4  10  16  28  46  70  93 111 145 188 243 282
#     4  11  20  30  41  61  93 125 165 199 231 252
#
# _framework density 14.478793
#
# number of rings (size 3 to 8) (size 9 to 14) (size 15 to 20)
#    0.000    1.750    5.000    1.500    0.000    1.000 
#    0.000    1.250    2.750    0.000    0.000    0.000 
#    0.000    4.500    0.000    1.500    0.000    0.000 
#
# Total GULP energy -178210.837763 kJ/mol
# GULP energy per Si atom -5569.088680 kJ/mol
# Density = 1.444584 g / cm^3
# Si number density = 14.478793 Si / 1000 Ang^3
#
#
#
# Elastic Constant Matrix: (Units=GPa)
#
#
# Indices 1 2 3 4 5 6 
#
# 1 50.4172 34.3606 25.4832 0.0000 0.0000 0.0000
# 2 34.3606 69.5776 37.4109 0.0000 0.0000 0.0000
# 3 25.4832 37.4109 100.7571 0.0000 0.0000 0.0000
# 4 0.0000 0.0000 0.0000 7.9415 0.0000 0.0000
# 5 0.0000 0.0000 0.0000 0.0000 7.3634 0.0000
# 6 0.0000 0.0000 0.0000 0.0000 0.0000 23.2915
#
#
#
# Elastic Compliance Matrix: (Units=1/GPa)
#
#
# Indices 1 2 3 4 5 6 
#
# 1 0.030451 -0.013615 -0.002646 0.000000 0.000000 0.000000
# 2 -0.013615 0.024045 -0.005484 0.000000 0.000000 0.000000
# 3 -0.002646 -0.005484 0.012630 0.000000 0.000000 0.000000
# 4 0.000000 0.000000 0.000000 0.125921 0.000000 0.000000
# 5 0.000000 0.000000 0.000000 0.000000 0.135807 0.000000
# 6 0.000000 0.000000 0.000000 0.000000 0.000000 0.042934
#
#
# Mechanical properties :
#
#
# Convention : Reuss Voigt Hill
#
# Bulk Modulus (GPa) = 42.31032 46.14016 44.22524
# Shear Modulus (GPa) = 11.81589 15.95243 13.88416
#
# Velocity S-wave (km/s) = 2.85981 3.32291 3.10002
# Velocity P-wave (km/s) = 6.33959 6.83073 6.58974
#
# Compressibility (1/GPa) = 0.02363489
#
# Stress axis : x y z
#
# Youngs Moduli (GPa) = 32.83938 41.58830 79.17349
#
# Poissons Ratio (x) = 0.56624 0.20952
# Poissons Ratio (y) = 0.44712 0.43422
# Poissons Ratio (z) = 0.08690 0.22809
#
# Static dielectric constant tensor:
#      x y z
#    x 1.481510 0.000000 0.000000 
#    y 0.000000 1.482240 0.000000 
#    z 0.000000 0.000000 1.509200 
# 
# From -- ./inp_files/16908.got.cif
#   From: 2010.05.17/outbox.cif.g08.bks.cpg/sg21_9_cif.got.tgz:16908.got - 2010.06.03 23:14:55.
