data_PCOD9322363
_publ_section_title
;
Structure prediction by ZEFSAII (Michael W. Deem and Ramdas Pophale) SiO2 
 PCOD9322363
Probable space group: C 2 2 2
;
_chemical_formula_sum "Si O2"
_cell_formula_units_Z 48
_cell_length_a 7.053692
_cell_length_b 31.425796
_cell_length_c 8.271578
_cell_angle_alpha 90.000000
_cell_angle_beta 90.000000
_cell_angle_gamma 90.000000
_cell_volume 1833.543208
_symmetry_space_group_name_H-M "C 2 2 2"
_symmetry_group_IT_number 21
_symmetry_cell_setting 'orthorhombic'
loop_
_space_group_symop_operation_xyz
x,y,z
-x,-y,z
x,-y,-z
-x,y,-z
1/2+x,1/2+y,z
1/2-x,1/2-y,z
1/2+x,1/2-y,-z
1/2-x,1/2+y,-z
loop_
_atom_site_type_symbol
_atom_site_label
_atom_site_fract_x
_atom_site_fract_y
_atom_site_fract_z
Si Si1 0.494733 0.784485 0.694983
Si Si2 0.324114 0.396133 0.303121
Si Si3 0.066551 0.630611 0.184243
Si Si4 0.772724 0.487040 0.824170
Si Si5 0.803030 0.558327 0.603309
Si Si6 0.946570 0.807653 0.308137
O O1 0.500000 0.785486 0.500000
O O2 0.626618 0.821578 0.770243
O O3 0.273464 0.795029 0.728646
O O4 0.542593 0.736419 0.748748
O O5 0.117198 0.374766 0.296295
O O6 0.294241 0.438653 0.198006
O O7 0.321103 0.414091 0.483345
O O8 0.460148 0.357180 0.251520
O O9 0.176268 0.588573 0.238845
O O10 0.000000 0.628596 0.000000
O O11 0.710982 0.515791 0.673229
O O12 0.000000 0.500000 0.821041
O O13 0.707907 0.500000 0.000000
O O14 0.000000 0.550373 0.500000
O O15 0.000000 0.810487 0.500000
#
# Coordination Sequence:
#
# PCOD9322363 Si02
#       6
#     8   8   8   8   8   8
#     4   9  17  32  55  80 105 138 180 229 271 316
#     4  10  19  29  48  72 103 146 178 218 271 329
#     4  10  17  26  44  75 110 138 170 217 277 324
#     4  11  19  28  45  75 112 141 172 218 283 334
#     4  10  18  27  44  72 107 136 168 217 271 319
#     4   9  18  33  54  78 107 141 181 223 270 322
#
# _framework density 26.178820000000002
#
# number of rings (size 3 to 8) (size 9 to 14) (size 15 to 20)
#    0.000    2.167    3.333    4.000    0.000    0.000 
#    0.000    0.000    0.000   38.000    0.000    1.167 
#    0.000    0.000    0.000    0.000    0.000    0.000 
#
# Total GULP energy -133788.077923 kJ/mol
# GULP energy per Si atom -5574.503247 kJ/mol
# Density = 2.611924 g / cm^3
# Si number density = 26.178820 Si / 1000 Ang^3
#
#
#
# Elastic Constant Matrix: (Units=GPa)
#
#
# Indices 1 2 3 4 5 6 
#
# 1 80.2705 35.0493 -6.5404 0.0000 0.0000 0.0000
# 2 35.0493 301.2609 71.4295 0.0000 0.0000 0.0000
# 3 -6.5404 71.4295 106.7332 0.0000 0.0000 0.0000
# 4 0.0000 0.0000 0.0000 11.1698 0.0000 0.0000
# 5 0.0000 0.0000 0.0000 0.0000 -23.2234 0.0000
# 6 0.0000 0.0000 0.0000 0.0000 0.0000 46.1654
#
#
#
# Elastic Compliance Matrix: (Units=1/GPa)
#
#
# Indices 1 2 3 4 5 6 
#
# 1 0.013562 -0.002110 0.002243 0.000000 0.000000 0.000000
# 2 -0.002110 0.004274 -0.002989 0.000000 0.000000 0.000000
# 3 0.002243 -0.002989 0.011507 0.000000 0.000000 0.000000
# 4 0.000000 0.000000 0.000000 0.089527 0.000000 0.000000
# 5 0.000000 0.000000 0.000000 0.000000 -0.043060 0.000000
# 6 0.000000 0.000000 0.000000 0.000000 0.000000 0.021661
#
#
# Mechanical properties :
#
#
# Convention : Reuss Voigt Hill
#
# Bulk Modulus (GPa) = 42.31838 76.46014 59.38926
# Shear Modulus (GPa) = 45.02097 32.71078 38.86587
#
# Velocity S-wave (km/s) = 4.15148 3.53868 3.85727
# Velocity P-wave (km/s) = 6.25939 6.77987 6.52482
#
# Compressibility (1/GPa) = 0.02363040
#
# Stress axis : x y z
#
# Youngs Moduli (GPa) = 73.73678 233.99562 86.90256
#
# Poissons Ratio (x) = 0.49363 -0.19491
# Poissons Ratio (y) = 0.15555 0.25978
# Poissons Ratio (z) = -0.16538 0.69948
#
# Static dielectric constant tensor:
#      x y z
#    x 2.220310 0.000000 0.000000 
#    y 0.000000 2.209070 0.000000 
#    z 0.000000 0.000000 2.010570 
# 
# From -- ./inp_files/13438.got.cif
#   From: 2010.05.17/outbox.cif.g08.bks.cpg/sg21_7_cif.got.tgz:13438.got - 2010.06.03 23:14:55.
