data_PCOD9322088
_publ_section_title
;
Structure prediction by ZEFSAII (Michael W. Deem and Ramdas Pophale) SiO2 
 PCOD9322088
Probable space group: C 2 2 21
;
_chemical_formula_sum "Si O2"
_cell_formula_units_Z 40
_cell_length_a 17.692582
_cell_length_b 5.573391
_cell_length_c 16.198508
_cell_angle_alpha 90.000000
_cell_angle_beta 90.000000
_cell_angle_gamma 90.000000
_cell_volume 1597.297249
_symmetry_space_group_name_H-M "C 2 2 21"
_symmetry_group_IT_number 20
_symmetry_cell_setting 'orthorhombic'
loop_
_space_group_symop_operation_xyz
x,y,z
-x,-y,1/2+z
x,-y,-z
-x,y,1/2-z
1/2+x,1/2+y,z
1/2-x,1/2-y,1/2+z
1/2+x,1/2-y,-z
1/2-x,1/2+y,1/2-z
loop_
_atom_site_type_symbol
_atom_site_label
_atom_site_fract_x
_atom_site_fract_y
_atom_site_fract_z
Si Si1 0.278115 0.756620 0.838216
Si Si2 0.500000 0.896021 0.250000
Si Si3 0.974144 0.000000 0.500000
Si Si4 0.614496 0.000000 0.000000
Si Si5 0.646224 0.025425 0.176557
Si Si6 0.094912 0.113582 0.383470
Si Si7 0.166093 0.500000 0.500000
O O1 0.315104 0.844495 0.753218
O O2 0.189674 0.728136 0.820680
O O3 0.328750 0.523230 0.859903
O O4 0.287312 0.909113 0.921284
O O5 0.557450 0.747227 0.306517
O O6 0.557151 0.038161 0.191478
O O7 0.930718 0.251171 0.480316
O O8 0.027968 0.952395 0.420962
O O9 0.660495 0.915624 0.919196
O O10 0.115469 0.296912 0.456810
#
# Coordination Sequence:
#
# PCOD9322088 Si02
#       7
#     8   4   4   4   8   8   4
#     4  12  29  51  78 118 158 218 276 346 419 511
#     4  12  26  50  76 116 156 212 266 346 410 498
#     4  12  26  48  78 120 166 208 282 332 428 486
#     4  12  31  51  80 125 165 220 274 362 405 507
#     4  12  30  50  81 115 163 211 281 340 423 494
#     4  12  26  47  81 116 161 217 268 344 422 502
#     4  12  25  51  84 111 163 218 284 332 427 505
#
# _framework density 25.042300999999998
#
# number of rings (size 3 to 8) (size 9 to 14) (size 15 to 20)
#    0.000    0.000    6.000    1.800    8.400    2.400 
#    0.000    0.000    0.000    0.000    0.000    0.000 
#    0.000    0.000    0.000    0.000    0.000    0.000 
#
# Total GULP energy -111717.528821 kJ/mol
# GULP energy per Si atom -5585.876441 kJ/mol
# Density = 2.498530 g / cm^3
# Si number density = 25.042301 Si / 1000 Ang^3
#
#
#
# Elastic Constant Matrix: (Units=GPa)
#
#
# Indices 1 2 3 4 5 6 
#
# 1 108.3401 21.9829 46.8790 0.0000 0.0000 0.0000
# 2 21.9829 69.0175 41.2256 0.0000 0.0000 0.0000
# 3 46.8790 41.2256 198.2598 0.0000 0.0000 0.0000
# 4 0.0000 0.0000 0.0000 52.2890 0.0000 0.0000
# 5 0.0000 0.0000 0.0000 0.0000 -8.1573 0.0000
# 6 0.0000 0.0000 0.0000 0.0000 0.0000 739.7383
#
#
#
# Elastic Compliance Matrix: (Units=1/GPa)
#
#
# Indices 1 2 3 4 5 6 
#
# 1 0.010551 -0.002136 -0.002051 0.000000 0.000000 0.000000
# 2 -0.002136 0.016976 -0.003025 0.000000 0.000000 0.000000
# 3 -0.002051 -0.003025 0.006158 0.000000 0.000000 0.000000
# 4 0.000000 0.000000 0.000000 0.019124 0.000000 0.000000
# 5 0.000000 0.000000 0.000000 0.000000 -0.122590 0.000000
# 6 0.000000 0.000000 0.000000 0.000000 0.000000 0.001352
#
#
# Mechanical properties :
#
#
# Convention : Reuss Voigt Hill
#
# Bulk Modulus (GPa) = 51.91530 66.19917 59.05724
# Shear Modulus (GPa) = -105.07370 174.47601 34.70116
#
# Velocity S-wave (km/s) = -6.48456 8.35606 3.72654
# Velocity P-wave (km/s) = 5.94054 10.93575 6.49233
#
# Compressibility (1/GPa) = 0.01926214
#
# Stress axis : x y z
#
# Youngs Moduli (GPa) = 94.77894 58.90598 162.39600
#
# Poissons Ratio (x) = 0.12580 0.33302
# Poissons Ratio (y) = 0.20242 0.49125
# Poissons Ratio (z) = 0.19436 0.17819
#
# Static dielectric constant tensor:
#      x y z
#    x 2.040800 0.000000 0.000000 
#    y 0.000000 2.089620 0.000000 
#    z 0.000000 0.000000 1.926590 
# 
# From -- ./inp_files/22681.got.cif
#   From: 2010.05.17/outbox.cif.g08.bks.cpg/sg20_12_cif.got.tgz:22681.got - 2010.06.03 22:52:26.
