data_PCOD9322707
_publ_section_title
;
Structure prediction by ZEFSAII (Michael W. Deem and Ramdas Pophale) SiO2 
 PCOD9322707
Probable space group: C 2 2 2
;
_chemical_formula_sum "Si O2"
_cell_formula_units_Z 40
_cell_length_a 18.899477
_cell_length_b 14.273112
_cell_length_c 7.758902
_cell_angle_alpha 90.000000
_cell_angle_beta 90.000000
_cell_angle_gamma 90.000000
_cell_volume 2092.997581
_symmetry_space_group_name_H-M "C 2 2 2"
_symmetry_group_IT_number 21
_symmetry_cell_setting 'orthorhombic'
loop_
_space_group_symop_operation_xyz
x,y,z
-x,-y,z
x,-y,-z
-x,y,-z
1/2+x,1/2+y,z
1/2-x,1/2-y,z
1/2+x,1/2-y,-z
1/2-x,1/2+y,-z
loop_
_atom_site_type_symbol
_atom_site_label
_atom_site_fract_x
_atom_site_fract_y
_atom_site_fract_z
Si Si1 0.435984 0.282604 0.897777
Si Si2 0.835622 0.087435 0.879965
Si Si3 0.250536 0.607718 0.555197
Si Si4 0.632928 0.752962 0.543035
Si Si5 0.040738 0.881435 0.666815
O O1 0.401971 0.234121 0.730297
O O2 0.482867 0.365306 0.812587
O O3 0.500000 0.230130 0.000000
O O4 0.374447 0.328589 0.015173
O O5 0.771639 0.117629 0.756741
O O6 0.896263 0.057364 0.742303
O O7 0.818009 0.000000 0.000000
O O8 0.251606 0.500000 0.500000
O O9 0.309890 0.667567 0.451508
O O10 0.176306 0.657171 0.517075
O O11 0.577356 0.715700 0.400257
O O12 0.000000 0.912079 0.500000
#
# Coordination Sequence:
#
# PCOD9322707 Si02
#       5
#     8   8   8   8   8
#     4   9  17  31  52  78 103 132 171 220 269 312
#     4  10  19  31  47  76 112 140 176 224 264 313
#     4  10  20  35  53  76 108 147 182 214 259 322
#     4   9  18  35  55  76 105 142 178 217 269 323
#     4   8  16  31  50  71  99 138 174 208 265 327
#
# _framework density 19.111346000000001
#
# number of rings (size 3 to 8) (size 9 to 14) (size 15 to 20)
#    0.000    2.800    0.000    1.200    0.000    3.600 
#    0.000   29.000    0.000    5.400    0.000    9.800 
#    0.000    0.000    0.000    0.000    0.000    0.000 
#
# Total GULP energy -111364.751989 kJ/mol
# GULP energy per Si atom -5568.237599 kJ/mol
# Density = 1.906785 g / cm^3
# Si number density = 19.111346 Si / 1000 Ang^3
#
#
#
# Elastic Constant Matrix: (Units=GPa)
#
#
# Indices 1 2 3 4 5 6 
#
# 1 78.1398 35.2752 55.2891 0.0000 0.0000 0.0000
# 2 35.2752 66.2039 25.5053 0.0000 0.0000 0.0000
# 3 55.2891 25.5053 136.7218 0.0000 0.0000 0.0000
# 4 0.0000 0.0000 0.0000 14.1854 0.0000 0.0000
# 5 0.0000 0.0000 0.0000 0.0000 37.6068 0.0000
# 6 0.0000 0.0000 0.0000 0.0000 0.0000 1.8959
#
#
#
# Elastic Compliance Matrix: (Units=1/GPa)
#
#
# Indices 1 2 3 4 5 6 
#
# 1 0.021910 -0.008900 -0.007200 0.000000 0.000000 0.000000
# 2 -0.008900 0.019890 -0.000111 0.000000 0.000000 0.000000
# 3 -0.007200 -0.000111 0.010246 0.000000 0.000000 0.000000
# 4 0.000000 0.000000 0.000000 0.070495 0.000000 0.000000
# 5 0.000000 0.000000 0.000000 0.000000 0.026591 0.000000
# 6 0.000000 0.000000 0.000000 0.000000 0.000000 0.527451
#
#
# Mechanical properties :
#
#
# Convention : Reuss Voigt Hill
#
# Bulk Modulus (GPa) = 50.95934 57.02274 53.99104
# Shear Modulus (GPa) = 6.98766 21.73734 14.36250
#
# Velocity S-wave (km/s) = 1.91422 3.37620 2.74436
# Velocity P-wave (km/s) = 5.62210 6.71567 6.19307
#
# Compressibility (1/GPa) = 0.01962349
#
# Stress axis : x y z
#
# Youngs Moduli (GPa) = 45.64150 50.27632 97.59521
#
# Poissons Ratio (x) = 0.44748 0.70267
# Poissons Ratio (y) = 0.40623 0.01085
# Poissons Ratio (z) = 0.32861 0.00559
#
# Static dielectric constant tensor:
#      x y z
#    x 1.715170 0.000000 0.000000 
#    y 0.000000 1.650670 0.000000 
#    z 0.000000 0.000000 1.885260 
# 
# From -- ./inp_files/16517.got.cif
#   From: 2010.05.17/outbox.cif.g08.bks.cpg/sg21_9_cif.got.tgz:16517.got - 2010.06.03 23:14:55.
