data_PCOD9322302
_publ_section_title
;
Structure prediction by ZEFSAII (Michael W. Deem and Ramdas Pophale) SiO2 
 PCOD9322302
Probable space group: C 2 2 2
;
_chemical_formula_sum "Si O2"
_cell_formula_units_Z 34
_cell_length_a 20.848575
_cell_length_b 14.404674
_cell_length_c 5.427698
_cell_angle_alpha 90.000000
_cell_angle_beta 90.000000
_cell_angle_gamma 90.000000
_cell_volume 1630.029580
_symmetry_space_group_name_H-M "C 2 2 2"
_symmetry_group_IT_number 21
_symmetry_cell_setting 'orthorhombic'
loop_
_space_group_symop_operation_xyz
x,y,z
-x,-y,z
x,-y,-z
-x,y,-z
1/2+x,1/2+y,z
1/2-x,1/2-y,z
1/2+x,1/2-y,-z
1/2-x,1/2+y,-z
loop_
_atom_site_type_symbol
_atom_site_label
_atom_site_fract_x
_atom_site_fract_y
_atom_site_fract_z
Si Si1 0.000000 0.500000 0.500000
Si Si2 0.209840 0.849442 0.120696
Si Si3 0.238018 0.362178 0.385367
Si Si4 0.929441 0.771902 0.918780
Si Si5 0.590798 0.843977 0.411516
O O1 0.046163 0.431495 0.356568
O O2 0.250000 0.750000 0.132277
O O3 0.224585 0.897287 0.378111
O O4 0.133368 0.835555 0.109998
O O5 0.237383 0.896567 0.876721
O O6 0.250000 0.250000 0.372049
O O7 0.163621 0.375589 0.441633
O O8 0.931102 0.711239 0.662137
O O9 0.911203 0.714654 0.162969
O O10 0.000000 0.809718 0.000000
#
# Coordination Sequence:
#
# PCOD9322302 Si02
#       5
#     2   8   8   8   8
#     4  12  28  38  44  70 112 158 166 196 232 310
#     4  10  16  28  50  70  86 108 165 212 264 280
#     4  10  16  30  51  70  78 114 171 220 243 277
#     4  12  20  32  48  70  94 128 165 211 249 303
#     4  12  22  34  48  63  96 135 181 195 236 286
#
# _framework density 20.858516999999999
#
# number of rings (size 3 to 8) (size 9 to 14) (size 15 to 20)
#    0.000    0.941   11.765    0.000    0.000    1.882 
#    0.000    0.000    0.000    0.000    0.000    0.000 
#    0.000    0.000    0.000    6.353    0.941    0.000 
#
# Total GULP energy -94729.715855 kJ/mol
# GULP energy per Si atom -5572.336227 kJ/mol
# Density = 2.081104 g / cm^3
# Si number density = 20.858517 Si / 1000 Ang^3
#
#
#
# Elastic Constant Matrix: (Units=GPa)
#
#
# Indices 1 2 3 4 5 6 
#
# 1 171.0009 17.1011 20.0269 0.0000 0.0000 0.0000
# 2 17.1011 25.2510 16.9250 0.0000 0.0000 0.0000
# 3 20.0269 16.9250 187.9006 0.0000 0.0000 0.0000
# 4 0.0000 0.0000 0.0000 0.6292 0.0000 0.0000
# 5 0.0000 0.0000 0.0000 0.0000 37.7557 0.0000
# 6 0.0000 0.0000 0.0000 0.0000 0.0000 -14.5235
#
#
#
# Elastic Compliance Matrix: (Units=1/GPa)
#
#
# Indices 1 2 3 4 5 6 
#
# 1 0.006289 -0.004055 -0.000305 0.000000 0.000000 0.000000
# 2 -0.004055 0.044761 -0.003600 0.000000 0.000000 0.000000
# 3 -0.000305 -0.003600 0.005679 0.000000 0.000000 0.000000
# 4 0.000000 0.000000 0.000000 1.589433 0.000000 0.000000
# 5 0.000000 0.000000 0.000000 0.000000 0.026486 0.000000
# 6 0.000000 0.000000 0.000000 0.000000 0.000000 -0.068854
#
#
# Mechanical properties :
#
#
# Convention : Reuss Voigt Hill
#
# Bulk Modulus (GPa) = 24.50381 54.69539 39.59960
# Shear Modulus (GPa) = 3.06126 26.77890 14.92008
#
# Velocity S-wave (km/s) = 1.21277 3.58695 2.67741
# Velocity P-wave (km/s) = 3.70597 6.59045 5.34641
#
# Compressibility (1/GPa) = 0.04080997
#
# Stress axis : x y z
#
# Youngs Moduli (GPa) = 159.00381 22.34079 176.09618
#
# Poissons Ratio (x) = 0.09059 0.05372
# Poissons Ratio (y) = 0.64473 0.63389
# Poissons Ratio (z) = 0.04851 0.08042
#
# Static dielectric constant tensor:
#      x y z
#    x 1.759220 0.000000 0.000000 
#    y 0.000000 1.755360 0.000000 
#    z 0.000000 0.000000 1.805860 
# 
# From -- ./inp_files/3690.got.cif
#   From: 2010.05.17/outbox.cif.g08.bks.cpg/sg21_2_cif.got.tgz:3690.got - 2010.06.03 23:14:55.
