data_PCOD9322723
_publ_section_title
;
Structure prediction by ZEFSAII (Michael W. Deem and Ramdas Pophale) SiO2 
 PCOD9322723
Probable space group: C 2 2 2
;
_chemical_formula_sum "Si O2"
_cell_formula_units_Z 48
_cell_length_a 16.539925
_cell_length_b 32.349172
_cell_length_c 5.325743
_cell_angle_alpha 90.000000
_cell_angle_beta 90.000000
_cell_angle_gamma 90.000000
_cell_volume 2849.554123
_symmetry_space_group_name_H-M "C 2 2 2"
_symmetry_group_IT_number 21
_symmetry_cell_setting 'orthorhombic'
loop_
_space_group_symop_operation_xyz
x,y,z
-x,-y,z
x,-y,-z
-x,y,-z
1/2+x,1/2+y,z
1/2-x,1/2-y,z
1/2+x,1/2-y,-z
1/2-x,1/2+y,-z
loop_
_atom_site_type_symbol
_atom_site_label
_atom_site_fract_x
_atom_site_fract_y
_atom_site_fract_z
Si Si1 0.402294 0.902837 0.501940
Si Si2 0.700901 0.823258 0.670092
Si Si3 0.714597 0.296210 0.841319
Si Si4 0.042245 0.277458 0.750553
Si Si5 0.026586 0.186234 0.245144
Si Si6 0.402365 0.952932 0.007855
O O1 0.500000 0.895224 0.500000
O O2 0.352483 0.862759 0.412553
O O3 0.383149 0.934894 0.280016
O O4 0.380152 0.922936 0.773000
O O5 0.747789 0.811307 0.419872
O O6 0.635021 0.788314 0.737509
O O7 0.757688 0.823559 0.917533
O O8 0.750000 0.250000 0.880064
O O9 0.618602 0.299121 0.791030
O O10 0.000000 0.293764 0.500000
O O11 0.027099 0.228423 0.751650
O O12 0.000000 0.294886 0.000000
O O13 0.000000 0.164539 0.500000
O O14 0.000000 0.161757 0.000000
O O15 0.500000 0.954791 0.000000
O O16 0.371635 0.000000 0.000000
#
# Coordination Sequence:
#
# PCOD9322723 Si02
#       6
#     8   8   8   8   8   8
#     4  10  20  32  49  72  99 133 167 203 251 295
#     4  12  23  35  49  71  99 125 163 214 265 301
#     4  12  23  35  50  69  92 124 165 214 265 305
#     4  10  19  32  47  62  84 118 156 202 250 290
#     4  10  19  34  50  65  83 113 160 207 248 295
#     4   9  17  31  50  72  97 127 167 206 234 279
#
# _framework density 16.844740999999999
#
# number of rings (size 3 to 8) (size 9 to 14) (size 15 to 20)
#    0.000    1.500    0.000    8.500    0.000    4.000 
#    0.000    0.000    0.000    0.000    0.000    0.000 
#    0.000    0.000    0.000    0.000    0.000  175.000 
#
# Total GULP energy -133790.242658 kJ/mol
# GULP energy per Si atom -5574.593444 kJ/mol
# Density = 1.680640 g / cm^3
# Si number density = 16.844741 Si / 1000 Ang^3
#
#
#
# Elastic Constant Matrix: (Units=GPa)
#
#
# Indices 1 2 3 4 5 6 
#
# 1 64.7460 17.0743 37.0097 0.0000 0.0000 0.0000
# 2 17.0743 37.8952 19.0333 0.0000 0.0000 0.0000
# 3 37.0097 19.0333 165.2404 0.0000 0.0000 0.0000
# 4 0.0000 0.0000 0.0000 14.7386 0.0000 0.0000
# 5 0.0000 0.0000 0.0000 0.0000 29.4433 0.0000
# 6 0.0000 0.0000 0.0000 0.0000 0.0000 8.9655
#
#
#
# Elastic Compliance Matrix: (Units=1/GPa)
#
#
# Indices 1 2 3 4 5 6 
#
# 1 0.019283 -0.006919 -0.003522 0.000000 0.000000 0.000000
# 2 -0.006919 0.030492 -0.001962 0.000000 0.000000 0.000000
# 3 -0.003522 -0.001962 0.007067 0.000000 0.000000 0.000000
# 4 0.000000 0.000000 0.000000 0.067849 0.000000 0.000000
# 5 0.000000 0.000000 0.000000 0.000000 0.033964 0.000000
# 6 0.000000 0.000000 0.000000 0.000000 0.000000 0.111539
#
#
# Mechanical properties :
#
#
# Convention : Reuss Voigt Hill
#
# Bulk Modulus (GPa) = 31.21678 46.01292 38.61485
# Shear Modulus (GPa) = 16.35709 23.61376 19.98542
#
# Velocity S-wave (km/s) = 3.11955 3.74819 3.44822
# Velocity P-wave (km/s) = 5.61674 6.79022 6.23116
#
# Compressibility (1/GPa) = 0.03203405
#
# Stress axis : x y z
#
# Youngs Moduli (GPa) = 51.85964 32.79562 141.50987
#
# Poissons Ratio (x) = 0.22692 0.49838
# Poissons Ratio (y) = 0.35883 0.27771
# Poissons Ratio (z) = 0.18264 0.06436
#
# Static dielectric constant tensor:
#      x y z
#    x 1.579450 0.000000 0.000000 
#    y 0.000000 1.580040 0.000000 
#    z 0.000000 0.000000 1.641530 
# 
# From -- ./inp_files/4265.got.cif
#   From: 2010.05.17/outbox.cif.g08.bks.cpg/sg21_3_cif.got.tgz:4265.got - 2010.06.03 23:14:55.
