data_PCOD9322071
_publ_section_title
;
Structure prediction by ZEFSAII (Michael W. Deem and Ramdas Pophale) SiO2 
 PCOD9322071
Probable space group: C 2 2 21
;
_chemical_formula_sum "Si O2"
_cell_formula_units_Z 36
_cell_length_a 21.995071
_cell_length_b 5.688382
_cell_length_c 11.756874
_cell_angle_alpha 90.000000
_cell_angle_beta 90.000000
_cell_angle_gamma 90.000000
_cell_volume 1470.977350
_symmetry_space_group_name_H-M "C 2 2 21"
_symmetry_group_IT_number 20
_symmetry_cell_setting 'orthorhombic'
loop_
_space_group_symop_operation_xyz
x,y,z
-x,-y,1/2+z
x,-y,-z
-x,y,1/2-z
1/2+x,1/2+y,z
1/2-x,1/2-y,1/2+z
1/2+x,1/2-y,-z
1/2-x,1/2+y,1/2-z
loop_
_atom_site_type_symbol
_atom_site_label
_atom_site_fract_x
_atom_site_fract_y
_atom_site_fract_z
Si Si1 0.668267 0.339023 0.227888
Si Si2 0.708795 0.053885 0.617783
Si Si3 0.424347 0.751518 0.561900
Si Si4 0.500000 0.000319 0.250000
Si Si5 0.091947 0.849620 0.614534
O O1 0.738449 0.404605 0.209772
O O2 0.644426 0.254123 0.107249
O O3 0.618031 0.521821 0.272108
O O4 0.668477 0.145261 0.324591
O O5 0.657223 0.237790 0.580817
O O6 0.741316 0.000000 0.500000
O O7 0.436252 0.500000 0.500000
O O8 0.464298 0.815663 0.671277
O O9 0.431571 0.000000 0.500000
O O10 0.458398 0.832604 0.166218
O O11 0.073033 0.000000 0.500000
#
# Coordination Sequence:
#
# PCOD9322071 Si02
#       5
#     8   8   8   4   8
#     4  12  26  47  82 118 166 215 271 354 423 521
#     4  12  25  46  79 121 159 212 276 345 432 510
#     4  12  30  54  83 121 164 222 283 351 427 504
#     4  12  30  54  82 122 172 224 294 362 428 514
#     4  12  27  51  81 118 168 226 283 348 433 511
#
# _framework density 24.473524999999999
#
# number of rings (size 3 to 8) (size 9 to 14) (size 15 to 20)
#    0.000    0.000    6.667    2.000    0.000   11.556 
#    0.000    0.000    0.000    0.000    0.000    0.000 
#    0.000    0.000    0.000    0.000    0.000    0.000 
#
# Total GULP energy -100249.529349 kJ/mol
# GULP energy per Si atom -5569.418297 kJ/mol
# Density = 2.441782 g / cm^3
# Si number density = 24.473525 Si / 1000 Ang^3
#
#
#
# Elastic Constant Matrix: (Units=GPa)
#
#
# Indices 1 2 3 4 5 6 
#
# 1 106.5437 47.4480 36.5419 0.0000 0.0000 0.0000
# 2 47.4480 120.0497 55.2506 0.0000 0.0000 0.0000
# 3 36.5419 55.2506 105.2674 0.0000 0.0000 0.0000
# 4 0.0000 0.0000 0.0000 50.4152 0.0000 0.0000
# 5 0.0000 0.0000 0.0000 0.0000-3895.1118 0.0000
# 6 0.0000 0.0000 0.0000 0.0000 0.0000 31.9879
#
#
#
# Elastic Compliance Matrix: (Units=1/GPa)
#
#
# Indices 1 2 3 4 5 6 
#
# 1 0.011753 -0.003649 -0.002165 0.000000 0.000000 0.000000
# 2 -0.003649 0.012116 -0.005092 0.000000 0.000000 0.000000
# 3 -0.002165 -0.005092 0.012924 0.000000 0.000000 0.000000
# 4 0.000000 0.000000 0.000000 0.019835 0.000000 0.000000
# 5 0.000000 0.000000 0.000000 0.000000 -0.000257 0.000000
# 6 0.000000 0.000000 0.000000 0.000000 0.000000 0.031262
#
#
# Mechanical properties :
#
#
# Convention : Reuss Voigt Hill
#
# Bulk Modulus (GPa) = 66.75284 67.81573 67.28429
# Shear Modulus (GPa) = 43.69131 -749.70038 -353.00453
#
# Velocity S-wave (km/s) = 4.22980 -17.52131 -12.02300
# Velocity P-wave (km/s) = 7.15470 19.53352 12.85240
#
# Compressibility (1/GPa) = 0.01498064
#
# Stress axis : x y z
#
# Youngs Moduli (GPa) = 85.08215 82.53688 77.37638
#
# Poissons Ratio (x) = 0.30118 0.16750
# Poissons Ratio (y) = 0.31047 0.39403
# Poissons Ratio (z) = 0.18418 0.42031
#
# Static dielectric constant tensor:
#      x y z
#    x 1.907150 0.000000 0.000000 
#    y 0.000000 117.990630 0.000000 
#    z 0.000000 0.000000 4.790260 
# 
# From -- ./inp_files/16534.got.cif
#   From: 2010.05.17/outbox.cif.g08.bks.cpg/sg20_9_cif.got.tgz:16534.got - 2010.06.03 22:52:26.
