data_PCOD9322298
_publ_section_title
;
Structure prediction by ZEFSAII (Michael W. Deem and Ramdas Pophale) SiO2 
 PCOD9322298
Probable space group: C 2 2 2
;
_chemical_formula_sum "Si O2"
_cell_formula_units_Z 28
_cell_length_a 20.256462
_cell_length_b 7.935177
_cell_length_c 7.770320
_cell_angle_alpha 90.000000
_cell_angle_beta 90.000000
_cell_angle_gamma 90.000000
_cell_volume 1248.990447
_symmetry_space_group_name_H-M "C 2 2 2"
_symmetry_group_IT_number 21
_symmetry_cell_setting 'orthorhombic'
loop_
_space_group_symop_operation_xyz
x,y,z
-x,-y,z
x,-y,-z
-x,y,-z
1/2+x,1/2+y,z
1/2-x,1/2-y,z
1/2+x,1/2-y,-z
1/2-x,1/2+y,-z
loop_
_atom_site_type_symbol
_atom_site_label
_atom_site_fract_x
_atom_site_fract_y
_atom_site_fract_z
Si Si1 0.106848 0.250283 0.608969
Si Si2 0.714236 0.000000 0.500000
Si Si3 0.385108 0.607342 0.777055
Si Si4 0.500000 0.500000 0.000000
Si Si5 0.750000 0.750000 0.218357
Si Si6 0.500000 0.000000 0.500000
O O1 0.170532 0.367138 0.603125
O O2 0.102986 0.182524 0.412343
O O3 0.045301 0.378117 0.618034
O O4 0.117556 0.095026 0.737539
O O5 0.751694 0.094217 0.649147
O O6 0.451279 0.616331 0.888322
O O7 0.322228 0.708530 0.862315
#
# Coordination Sequence:
#
# PCOD9322298 Si02
#       6
#     8   4   8   2   4   2
#     4   9  18  33  57  87 114 149 193 245 295 347
#     4   9  16  29  58  91 114 137 188 250 298 345
#     4  10  21  37  58  82 116 155 199 244 294 347
#     4  12  24  38  56  82 120 164 200 238 288 346
#     4  10  18  34  58  90 118 150 192 244 298 354
#     4  10  16  26  52  86 120 148 184 228 292 356
#
# _framework density 22.418105000000001
#
# number of rings (size 3 to 8) (size 9 to 14) (size 15 to 20)
#    0.000    2.286    0.000    5.143    0.000    2.286 
#    0.000    2.857    0.000   53.143    0.000    0.000 
#    0.000    0.000    0.000    0.000    0.000    0.000 
#
# Total GULP energy -77937.261322 kJ/mol
# GULP energy per Si atom -5566.947237 kJ/mol
# Density = 2.236708 g / cm^3
# Si number density = 22.418105 Si / 1000 Ang^3
#
#
#
# Elastic Constant Matrix: (Units=GPa)
#
#
# Indices 1 2 3 4 5 6 
#
# 1 147.5222 37.5006 28.5678 0.0000 0.0000 0.0000
# 2 37.5006 99.6694 10.5606 0.0000 0.0000 0.0000
# 3 28.5678 10.5606 42.2901 0.0000 0.0000 0.0000
# 4 0.0000 0.0000 0.0000 2.6758 0.0000 0.0000
# 5 0.0000 0.0000 0.0000 0.0000 17.2815 0.0000
# 6 0.0000 0.0000 0.0000 0.0000 0.0000 36.9105
#
#
#
# Elastic Compliance Matrix: (Units=1/GPa)
#
#
# Indices 1 2 3 4 5 6 
#
# 1 0.008423 -0.002636 -0.005032 0.000000 0.000000 0.000000
# 2 -0.002636 0.011131 -0.000999 0.000000 0.000000 0.000000
# 3 -0.005032 -0.000999 0.027295 0.000000 0.000000 0.000000
# 4 0.000000 0.000000 0.000000 0.373719 0.000000 0.000000
# 5 0.000000 0.000000 0.000000 0.000000 0.057865 0.000000
# 6 0.000000 0.000000 0.000000 0.000000 0.000000 0.027093
#
#
# Mechanical properties :
#
#
# Convention : Reuss Voigt Hill
#
# Bulk Modulus (GPa) = 33.88067 49.19330 41.53698
# Shear Modulus (GPa) = 9.38619 25.56373 17.47496
#
# Velocity S-wave (km/s) = 2.04841 3.38052 2.79499
# Velocity P-wave (km/s) = 4.55418 6.10151 5.38372
#
# Compressibility (1/GPa) = 0.02951536
#
# Stress axis : x y z
#
# Youngs Moduli (GPa) = 118.72061 89.84061 36.63716
#
# Poissons Ratio (x) = 0.23683 0.18435
# Poissons Ratio (y) = 0.31295 0.03659
# Poissons Ratio (z) = 0.59737 0.08974
#
# Static dielectric constant tensor:
#      x y z
#    x 1.972980 0.000000 0.000000 
#    y 0.000000 1.997340 0.000000 
#    z 0.000000 0.000000 1.851490 
# 
# From -- ./inp_files/10358.got.cif
#   From: 2010.05.17/outbox.cif.g08.bks.cpg/sg21_6_cif.got.tgz:10358.got - 2010.06.03 23:14:55.
