data_PCOD9322120
_publ_section_title
;
Structure prediction by ZEFSAII (Michael W. Deem and Ramdas Pophale) SiO2 
 PCOD9322120
Probable space group: C 2 2 21
;
_chemical_formula_sum "Si O2"
_cell_formula_units_Z 32
_cell_length_a 18.862721
_cell_length_b 11.991275
_cell_length_c 4.753290
_cell_angle_alpha 90.000000
_cell_angle_beta 90.000000
_cell_angle_gamma 90.000000
_cell_volume 1075.137514
_symmetry_space_group_name_H-M "C 2 2 21"
_symmetry_group_IT_number 20
_symmetry_cell_setting 'orthorhombic'
loop_
_space_group_symop_operation_xyz
x,y,z
-x,-y,1/2+z
x,-y,-z
-x,y,1/2-z
1/2+x,1/2+y,z
1/2-x,1/2-y,1/2+z
1/2+x,1/2-y,-z
1/2-x,1/2+y,1/2-z
loop_
_atom_site_type_symbol
_atom_site_label
_atom_site_fract_x
_atom_site_fract_y
_atom_site_fract_z
Si Si1 0.000000 0.289655 0.250000
Si Si2 0.319141 0.500000 0.000000
Si Si3 0.228823 0.315975 0.699603
Si Si4 0.910577 0.421477 0.777206
Si Si5 0.071333 0.123184 0.896272
O O1 0.970347 0.369585 0.995503
O O2 0.934351 0.209849 0.341663
O O3 0.271879 0.575119 0.205858
O O4 0.366731 0.412934 0.181657
O O5 0.237785 0.285776 0.376077
O O6 0.146713 0.327233 0.783914
O O7 0.918707 0.500000 0.500000
O O8 0.870422 0.500000 0.000000
O O9 0.000000 0.164950 0.750000
O O10 0.052355 0.000000 0.000000
#
# Coordination Sequence:
#
# PCOD9322120 Si02
#       5
#     4   4   8   8   8
#     4  12  32  56 100 136 194 266 320 400 490 582
#     4  12  30  52  90 128 192 236 320 404 476 570
#     4  12  31  56  92 133 180 253 308 392 484 575
#     4  12  31  63  91 137 191 253 327 396 480 574
#     4  12  26  52  83 143 187 242 308 394 485 576
#
# _framework density 29.763638
#
# number of rings (size 3 to 8) (size 9 to 14) (size 15 to 20)
#    0.000    0.000    3.750    1.500   14.000    1.000 
#    0.000    2.500    0.000    0.000    0.000    0.000 
#    0.000    0.000    0.000    0.000    0.000    0.000 
#
# Total GULP energy -89517.360844 kJ/mol
# GULP energy per Si atom -5594.835053 kJ/mol
# Density = 2.969589 g / cm^3
# Si number density = 29.763638 Si / 1000 Ang^3
#
#
#
# Elastic Constant Matrix: (Units=GPa)
#
#
# Indices 1 2 3 4 5 6 
#
# 1 137.0920 59.1370 70.6624 0.0000 0.0000 0.0000
# 2 59.1370 145.6375 69.0467 0.0000 0.0000 0.0000
# 3 70.6624 69.0467 196.4317 0.0000 0.0000 0.0000
# 4 0.0000 0.0000 0.0000 67.2256 0.0000 0.0000
# 5 0.0000 0.0000 0.0000 0.0000 66.4692 0.0000
# 6 0.0000 0.0000 0.0000 0.0000 0.0000 20.9823
#
#
#
# Elastic Compliance Matrix: (Units=1/GPa)
#
#
# Indices 1 2 3 4 5 6 
#
# 1 0.009806 -0.002771 -0.002553 0.000000 0.000000 0.000000
# 2 -0.002771 0.009023 -0.002175 0.000000 0.000000 0.000000
# 3 -0.002553 -0.002175 0.006774 0.000000 0.000000 0.000000
# 4 0.000000 0.000000 0.000000 0.014875 0.000000 0.000000
# 5 0.000000 0.000000 0.000000 0.000000 0.015045 0.000000
# 6 0.000000 0.000000 0.000000 0.000000 0.000000 0.047659
#
#
# Mechanical properties :
#
#
# Convention : Reuss Voigt Hill
#
# Bulk Modulus (GPa) = 94.30518 97.42816 95.86667
# Shear Modulus (GPa) = 41.07980 49.62309 45.35144
#
# Velocity S-wave (km/s) = 3.71914 4.08761 3.90772
# Velocity P-wave (km/s) = 7.08492 7.42180 7.25532
#
# Compressibility (1/GPa) = 0.01060387
#
# Stress axis : x y z
#
# Youngs Moduli (GPa) = 101.97960 110.83287 147.62882
#
# Poissons Ratio (x) = 0.30714 0.37695
# Poissons Ratio (y) = 0.28260 0.32104
# Poissons Ratio (z) = 0.26039 0.24102
#
# Static dielectric constant tensor:
#      x y z
#    x 2.416760 0.000000 0.000000 
#    y 0.000000 2.426490 0.000000 
#    z 0.000000 0.000000 2.644850 
# 
# From -- ./inp_files/2985.got.cif
#   From: 2010.05.17/outbox.cif.g08.bks.cpg/sg20_2_cif.got.tgz:2985.got - 2010.06.03 22:52:26.
