data_PCOD9322525
_publ_section_title
;
Structure prediction by ZEFSAII (Michael W. Deem and Ramdas Pophale) SiO2 
 PCOD9322525
Probable space group: C 2 2 2
;
_chemical_formula_sum "Si O2"
_cell_formula_units_Z 30
_cell_length_a 10.723191
_cell_length_b 14.510553
_cell_length_c 9.335147
_cell_angle_alpha 90.000000
_cell_angle_beta 90.000000
_cell_angle_gamma 90.000000
_cell_volume 1452.543565
_symmetry_space_group_name_H-M "C 2 2 2"
_symmetry_group_IT_number 21
_symmetry_cell_setting 'orthorhombic'
loop_
_space_group_symop_operation_xyz
x,y,z
-x,-y,z
x,-y,-z
-x,y,-z
1/2+x,1/2+y,z
1/2-x,1/2-y,z
1/2+x,1/2-y,-z
1/2-x,1/2+y,-z
loop_
_atom_site_type_symbol
_atom_site_label
_atom_site_fract_x
_atom_site_fract_y
_atom_site_fract_z
Si Si1 0.143217 0.885105 0.767215
Si Si2 0.907398 0.677049 0.294561
Si Si3 0.825125 0.339808 0.376091
Si Si4 0.338468 0.500000 0.500000
Si Si5 0.000000 0.000000 0.000000
O O1 0.098393 0.779778 0.766659
O O2 0.294104 0.881657 0.770105
O O3 0.100780 0.932148 0.617015
O O4 0.085295 0.938606 0.897923
O O5 0.868919 0.684969 0.462150
O O6 0.048270 0.641052 0.289310
O O7 0.750000 0.250000 0.321777
O O8 0.742155 0.430309 0.400247
#
# Coordination Sequence:
#
# PCOD9322525 Si02
#       5
#     8   8   8   4   2
#     4  10  22  41  59  94 119 171 200 275 304 382
#     4   9  19  39  61  84 137 157 205 254 327 373
#     4  10  18  32  61 106 125 158 198 263 328 388
#     4  10  20  38  66  96 128 153 209 256 328 364
#     4  12  28  38  60  86 128 168 244 248 322 374
#
# _framework density 20.653426
#
# number of rings (size 3 to 8) (size 9 to 14) (size 15 to 20)
#    0.000    2.133    5.333    0.000    3.733    9.067 
#    0.000    5.333    0.000    1.600    0.000    0.000 
#    0.000    0.000    0.000    0.000    0.000    0.000 
#
# Total GULP energy -83701.383252 kJ/mol
# GULP energy per Si atom -5580.092217 kJ/mol
# Density = 2.060642 g / cm^3
# Si number density = 20.653426 Si / 1000 Ang^3
#
#
#
# Elastic Constant Matrix: (Units=GPa)
#
#
# Indices 1 2 3 4 5 6 
#
# 1 114.7133 27.9692 40.0196 0.0000 0.0000 0.0000
# 2 27.9692 98.5854 38.2218 0.0000 0.0000 0.0000
# 3 40.0196 38.2218 82.1836 0.0000 0.0000 0.0000
# 4 0.0000 0.0000 0.0000 25.3976 0.0000 0.0000
# 5 0.0000 0.0000 0.0000 0.0000 13.5094 0.0000
# 6 0.0000 0.0000 0.0000 0.0000 0.0000 20.3821
#
#
#
# Elastic Compliance Matrix: (Units=1/GPa)
#
#
# Indices 1 2 3 4 5 6 
#
# 1 0.010622 -0.001230 -0.004600 0.000000 0.000000 0.000000
# 2 -0.001230 0.012517 -0.005223 0.000000 0.000000 0.000000
# 3 -0.004600 -0.005223 0.016837 0.000000 0.000000 0.000000
# 4 0.000000 0.000000 0.000000 0.039374 0.000000 0.000000
# 5 0.000000 0.000000 0.000000 0.000000 0.074023 0.000000
# 6 0.000000 0.000000 0.000000 0.000000 0.000000 0.049063
#
#
# Mechanical properties :
#
#
# Convention : Reuss Voigt Hill
#
# Bulk Modulus (GPa) = 55.95837 56.43372 56.19604
# Shear Modulus (GPa) = 21.69213 24.47594 23.08404
#
# Velocity S-wave (km/s) = 3.24434 3.44623 3.34681
# Velocity P-wave (km/s) = 6.41772 6.57410 6.49638
#
# Compressibility (1/GPa) = 0.01787043
#
# Stress axis : x y z
#
# Youngs Moduli (GPa) = 94.14224 79.88989 59.39305
#
# Poissons Ratio (x) = 0.09826 0.27324
# Poissons Ratio (y) = 0.11579 0.31018
# Poissons Ratio (z) = 0.43310 0.41723
#
# Static dielectric constant tensor:
#      x y z
#    x 1.866600 0.000000 0.000000 
#    y 0.000000 1.747630 0.000000 
#    z 0.000000 0.000000 1.697960 
# 
# From -- ./inp_files/12196.got.cif
#   From: 2010.05.17/outbox.cif.g08.bks.cpg/sg21_7_cif.got.tgz:12196.got - 2010.06.03 23:14:55.
