data_PCOD9322794
_publ_section_title
;
Structure prediction by ZEFSAII (Michael W. Deem and Ramdas Pophale) SiO2 
 PCOD9322794
Probable space group: C 2 2 2
;
_chemical_formula_sum "Si O2"
_cell_formula_units_Z 40
_cell_length_a 12.504479
_cell_length_b 13.136282
_cell_length_c 12.102932
_cell_angle_alpha 90.000000
_cell_angle_beta 90.000000
_cell_angle_gamma 90.000000
_cell_volume 1988.056202
_symmetry_space_group_name_H-M "C 2 2 2"
_symmetry_group_IT_number 21
_symmetry_cell_setting 'orthorhombic'
loop_
_space_group_symop_operation_xyz
x,y,z
-x,-y,z
x,-y,-z
-x,y,-z
1/2+x,1/2+y,z
1/2-x,1/2-y,z
1/2+x,1/2-y,-z
1/2-x,1/2+y,-z
loop_
_atom_site_type_symbol
_atom_site_label
_atom_site_fract_x
_atom_site_fract_y
_atom_site_fract_z
Si Si1 0.628135 0.976733 0.126293
Si Si2 0.790436 0.367317 0.536533
Si Si3 0.322025 0.851924 0.283800
Si Si4 0.568298 0.807100 0.270146
Si Si5 0.064823 0.900578 0.612548
O O1 0.632722 0.860422 0.170388
O O2 0.500000 0.000000 0.138130
O O3 0.696833 0.052738 0.202992
O O4 0.655631 0.000000 0.000000
O O5 0.750000 0.250000 0.535522
O O6 0.819501 0.388585 0.410752
O O7 0.888089 0.367281 0.621669
O O8 0.685758 0.424572 0.579260
O O9 0.250000 0.750000 0.272078
O O10 0.442774 0.820735 0.257295
O O11 0.577570 0.688277 0.298346
O O12 0.000000 0.865219 0.500000
O O13 0.000000 0.000000 0.649538
#
# Coordination Sequence:
#
# PCOD9322794 Si02
#       5
#     8   8   8   8   8
#     4   9  20  37  55  77 105 146 198 250 304 349
#     4   9  18  32  51  82 119 150 186 231 291 357
#     4  10  19  33  57  84 113 150 193 242 297 361
#     4  10  19  34  55  79 114 152 191 244 296 357
#     4  10  20  33  51  81 123 162 192 231 292 365
#
# _framework density 20.120153999999999
#
# number of rings (size 3 to 8) (size 9 to 14) (size 15 to 20)
#    0.000    2.400    0.000    4.200    0.000    5.600 
#    0.000    8.000    0.000    0.000    0.000    9.800 
#    0.000    4.800    0.000    0.000    0.000    0.000 
#
# Total GULP energy -111475.360325 kJ/mol
# GULP energy per Si atom -5573.768016 kJ/mol
# Density = 2.007436 g / cm^3
# Si number density = 20.120154 Si / 1000 Ang^3
#
#
#
# Elastic Constant Matrix: (Units=GPa)
#
#
# Indices 1 2 3 4 5 6 
#
# 1 57.3666 27.1907 9.8646 0.0000 0.0000 0.0000
# 2 27.1907 136.9322 56.9787 0.0000 0.0000 0.0000
# 3 9.8646 56.9787 109.6166 0.0000 0.0000 0.0000
# 4 0.0000 0.0000 0.0000 21.4154 0.0000 0.0000
# 5 0.0000 0.0000 0.0000 0.0000 15.5730 0.0000
# 6 0.0000 0.0000 0.0000 0.0000 0.0000 25.3039
#
#
#
# Elastic Compliance Matrix: (Units=1/GPa)
#
#
# Indices 1 2 3 4 5 6 
#
# 1 0.019252 -0.003958 0.000325 0.000000 0.000000 0.000000
# 2 -0.003958 0.010132 -0.004910 0.000000 0.000000 0.000000
# 3 0.000325 -0.004910 0.011646 0.000000 0.000000 0.000000
# 4 0.000000 0.000000 0.000000 0.046695 0.000000 0.000000
# 5 0.000000 0.000000 0.000000 0.000000 0.064214 0.000000
# 6 0.000000 0.000000 0.000000 0.000000 0.000000 0.039520
#
#
# Mechanical properties :
#
#
# Convention : Reuss Voigt Hill
#
# Bulk Modulus (GPa) = 41.76640 54.66481 48.21560
# Shear Modulus (GPa) = 23.09185 26.45057 24.77121
#
# Velocity S-wave (km/s) = 3.39144 3.62972 3.51260
# Velocity P-wave (km/s) = 6.01161 6.69288 6.36137
#
# Compressibility (1/GPa) = 0.02394269
#
# Stress axis : x y z
#
# Youngs Moduli (GPa) = 51.94281 98.69583 85.86680
#
# Poissons Ratio (x) = 0.39064 -0.02790
# Poissons Ratio (y) = 0.20559 0.42165
# Poissons Ratio (z) = -0.01688 0.48465
#
# Static dielectric constant tensor:
#      x y z
#    x 1.713310 0.000000 0.000000 
#    y 0.000000 1.865910 0.000000 
#    z 0.000000 0.000000 1.729250 
# 
# From -- ./inp_files/23787.got.cif
#   From: 2010.05.17/outbox.cif.g08.bks.cpg/sg21_12_cif.got.tgz:23787.got - 2010.06.03 23:14:55.
