data_PCOD9322418
_publ_section_title
;
Structure prediction by ZEFSAII (Michael W. Deem and Ramdas Pophale) SiO2 
 PCOD9322418
Probable space group: C 2 2 2
;
_chemical_formula_sum "Si O2"
_cell_formula_units_Z 56
_cell_length_a 11.200788
_cell_length_b 19.936990
_cell_length_c 11.279844
_cell_angle_alpha 90.000000
_cell_angle_beta 90.000000
_cell_angle_gamma 90.000000
_cell_volume 2518.901945
_symmetry_space_group_name_H-M "C 2 2 2"
_symmetry_group_IT_number 21
_symmetry_cell_setting 'orthorhombic'
loop_
_space_group_symop_operation_xyz
x,y,z
-x,-y,z
x,-y,-z
-x,y,-z
1/2+x,1/2+y,z
1/2-x,1/2-y,z
1/2+x,1/2-y,-z
1/2-x,1/2+y,-z
loop_
_atom_site_type_symbol
_atom_site_label
_atom_site_fract_x
_atom_site_fract_y
_atom_site_fract_z
Si Si1 0.392247 0.135649 0.297394
Si Si2 0.199249 0.817352 0.897826
Si Si3 0.568035 0.283832 0.662754
Si Si4 0.337034 0.433334 0.926031
Si Si5 0.186919 0.092386 0.435902
Si Si6 0.943811 0.573691 0.880404
Si Si7 0.935410 0.910518 0.669856
O O1 0.301657 0.148827 0.185433
O O2 0.424304 0.205657 0.361231
O O3 0.317098 0.084586 0.379964
O O4 0.512302 0.109903 0.237265
O O5 0.250000 0.750000 0.957432
O O6 0.105826 0.792429 0.799835
O O7 0.146000 0.869871 0.988447
O O8 0.662530 0.327495 0.586504
O O9 0.450423 0.329311 0.653276
O O10 0.196595 0.432133 0.894761
O O11 0.405481 0.428657 0.802697
O O12 0.363184 0.500000 0.000000
O O13 0.161722 0.071009 0.570112
O O14 0.070277 0.065142 0.363729
O O15 0.000000 0.500000 0.874420
O O16 0.000000 0.605982 0.000000
#
# Coordination Sequence:
#
# PCOD9322418 Si02
#       7
#     8   8   8   8   8   8   8
#     4  10  17  35  66  91 117 171 217 256 327 389
#     4   9  18  33  57  87 123 158 202 262 324 385
#     4   8  17  35  60  91 125 167 208 257 321 387
#     4  12  23  39  60  91 130 167 216 266 340 400
#     4   8  17  39  63  88 127 168 210 256 321 380
#     4  11  21  39  61  85 115 166 209 268 330 395
#     4   9  20  37  61  91 129 167 206 263 316 383
#
# _framework density 22.231907
#
# number of rings (size 3 to 8) (size 9 to 14) (size 15 to 20)
#    0.857    1.571    2.857    1.286    0.000    1.714 
#    0.000    7.857    3.143    8.571   11.143    0.000 
#    0.000    0.000    0.000    0.000    0.000    0.000 
#
# Total GULP energy -156161.487857 kJ/mol
# GULP energy per Si atom -5577.195995 kJ/mol
# Density = 2.218131 g / cm^3
# Si number density = 22.231907 Si / 1000 Ang^3
#
#
#
# Elastic Constant Matrix: (Units=GPa)
#
#
# Indices 1 2 3 4 5 6 
#
# 1 76.0965 12.8055 31.5071 0.0000 0.0000 0.0000
# 2 12.8055 66.4016 39.4469 0.0000 0.0000 0.0000
# 3 31.5071 39.4469 120.1868 0.0000 0.0000 0.0000
# 4 0.0000 0.0000 0.0000 28.5431 0.0000 0.0000
# 5 0.0000 0.0000 0.0000 0.0000 35.1211 0.0000
# 6 0.0000 0.0000 0.0000 0.0000 0.0000 14.0416
#
#
#
# Elastic Compliance Matrix: (Units=1/GPa)
#
#
# Indices 1 2 3 4 5 6 
#
# 1 0.014766 -0.000681 -0.003647 0.000000 0.000000 0.000000
# 2 -0.000681 0.018739 -0.005972 0.000000 0.000000 0.000000
# 3 -0.003647 -0.005972 0.011237 0.000000 0.000000 0.000000
# 4 0.000000 0.000000 0.000000 0.035035 0.000000 0.000000
# 5 0.000000 0.000000 0.000000 0.000000 0.028473 0.000000
# 6 0.000000 0.000000 0.000000 0.000000 0.000000 0.071217
#
#
# Mechanical properties :
#
#
# Convention : Reuss Voigt Hill
#
# Bulk Modulus (GPa) = 41.42295 47.80043 44.61169
# Shear Modulus (GPa) = 24.02537 27.46953 25.74745
#
# Velocity S-wave (km/s) = 3.29092 3.51891 3.40682
# Velocity P-wave (km/s) = 5.75438 6.16910 5.96534
#
# Compressibility (1/GPa) = 0.02414121
#
# Stress axis : x y z
#
# Youngs Moduli (GPa) = 67.72323 53.36513 88.99478
#
# Poissons Ratio (x) = 0.03633 0.32461
# Poissons Ratio (y) = 0.04610 0.53146
# Poissons Ratio (z) = 0.24702 0.31869
#
# Static dielectric constant tensor:
#      x y z
#    x 1.819920 0.000000 0.000000 
#    y 0.000000 1.893380 0.000000 
#    z 0.000000 0.000000 1.828680 
# 
# From -- ./inp_files/24227.got.cif
#   From: 2010.05.17/outbox.cif.g08.bks.cpg/sg21_13_cif.got.tgz:24227.got - 2010.06.03 23:14:55.
