data_PCOD9322536
_publ_section_title
;
Structure prediction by ZEFSAII (Michael W. Deem and Ramdas Pophale) SiO2 
 PCOD9322536
Probable space group: C 2 2 2
;
_chemical_formula_sum "Si O2"
_cell_formula_units_Z 48
_cell_length_a 14.729473
_cell_length_b 8.599110
_cell_length_c 19.886582
_cell_angle_alpha 90.000000
_cell_angle_beta 90.000000
_cell_angle_gamma 90.000000
_cell_volume 2518.841607
_symmetry_space_group_name_H-M "C 2 2 2"
_symmetry_group_IT_number 21
_symmetry_cell_setting 'orthorhombic'
loop_
_space_group_symop_operation_xyz
x,y,z
-x,-y,z
x,-y,-z
-x,y,-z
1/2+x,1/2+y,z
1/2-x,1/2-y,z
1/2+x,1/2-y,-z
1/2-x,1/2+y,-z
loop_
_atom_site_type_symbol
_atom_site_label
_atom_site_fract_x
_atom_site_fract_y
_atom_site_fract_z
Si Si1 0.999995 0.814619 0.740739
Si Si2 0.353379 0.686172 0.500007
Si Si3 0.351634 0.187087 0.000004
Si Si4 0.499997 0.811666 0.109130
Si Si5 0.647696 0.185909 0.640991
Si Si6 0.647696 0.814093 0.640978
O O1 0.999986 0.763393 0.818018
O O2 0.086651 0.745415 0.701857
O O3 0.913346 0.745430 0.701843
O O4 0.000000 0.000000 0.735022
O O5 0.354557 0.500000 0.500000
O O6 0.250000 0.750000 0.500009
O O7 0.391200 0.749709 0.570155
O O8 0.391200 0.749734 0.429862
O O9 0.250000 0.250000 0.000003
O O10 0.411680 0.233114 0.064967
O O11 0.411683 0.233116 0.935042
O O12 0.348129 0.000000 0.000000
O O13 0.500000 0.000000 0.115270
O O14 0.750000 0.250000 0.647950
O O15 0.649413 0.000002 0.638449
O O16 0.750000 0.750000 0.647931
#
# Coordination Sequence:
#
# PCOD9322536 Si02
#       6
#     8   8   8   8   8   8
#     4  12  25  40  58  86 119 156 196 240 291 348
#     4  10  18  33  56  83 113 148 192 245 295 347
#     4   9  19  37  64  90 116 149 189 229 277 334
#     4   9  20  40  59  83 119 156 187 229 282 340
#     4  11  22  39  60  84 114 153 197 245 296 350
#     4  11  22  39  60  84 114 153 197 245 296 350
#
# _framework density 19.056377999999999
#
# number of rings (size 3 to 8) (size 9 to 14) (size 15 to 20)
#    0.000    1.667    0.000    9.000    0.000    3.333 
#    0.000    8.333    0.000    0.000    0.000    0.000 
#    0.000    0.000    0.000    0.000    0.000    0.000 
#
# Total GULP energy -134117.332726 kJ/mol
# GULP energy per Si atom -5588.222197 kJ/mol
# Density = 1.901300 g / cm^3
# Si number density = 19.056378 Si / 1000 Ang^3
#
#
#
# Elastic Constant Matrix: (Units=GPa)
#
#
# Indices 1 2 3 4 5 6 
#
# 1 149.0293 54.1509 89.1632 0.0000 0.0000 0.0000
# 2 54.1509 170.6110 81.1831 0.0000 0.0000 0.0000
# 3 89.1632 81.1831 198.7699 0.0000 0.0000 0.0000
# 4 0.0000 0.0000 0.0000 35.1441 0.0000 0.0000
# 5 0.0000 0.0000 0.0000 0.0000 18.9308 0.0000
# 6 0.0000 0.0000 0.0000 0.0000 0.0000 30.5217
#
#
#
# Elastic Compliance Matrix: (Units=1/GPa)
#
#
# Indices 1 2 3 4 5 6 
#
# 1 0.009368 -0.001209 -0.003709 0.000000 0.000000 0.000000
# 2 -0.001209 0.007431 -0.002493 0.000000 0.000000 0.000000
# 3 -0.003709 -0.002493 0.007713 0.000000 0.000000 0.000000
# 4 0.000000 0.000000 0.000000 0.028454 0.000000 0.000000
# 5 0.000000 0.000000 0.000000 0.000000 0.052824 0.000000
# 6 0.000000 0.000000 0.000000 0.000000 0.000000 0.032764
#
#
# Mechanical properties :
#
#
# Convention : Reuss Voigt Hill
#
# Bulk Modulus (GPa) = 103.18286 107.48942 105.33614
# Shear Modulus (GPa) = 31.92754 36.51353 34.22054
#
# Velocity S-wave (km/s) = 4.09764 4.38205 4.24223
# Velocity P-wave (km/s) = 8.75506 9.06265 8.91019
#
# Compressibility (1/GPa) = 0.00969153
#
# Stress axis : x y z
#
# Youngs Moduli (GPa) = 106.74484 134.56913 129.65590
#
# Poissons Ratio (x) = 0.16265 0.48085
# Poissons Ratio (y) = 0.12902 0.32322
# Poissons Ratio (z) = 0.39588 0.33547
#
# Static dielectric constant tensor:
#      x y z
#    x 1.652990 0.000000 0.000000 
#    y 0.000000 1.634230 0.000000 
#    z 0.000000 0.000000 1.653730 
# 
# From -- ./inp_files/36643.got.cif
#   From: 2010.05.17/outbox.cif.g08.bks.cpg/sg21_19_cif.got.tgz:36643.got - 2010.06.03 23:14:55.
