data_PCOD9322613
_publ_section_title
;
Structure prediction by ZEFSAII (Michael W. Deem and Ramdas Pophale) SiO2 
 PCOD9322613
Probable space group: C 2 2 2
;
_chemical_formula_sum "Si O2"
_cell_formula_units_Z 46
_cell_length_a 15.473209
_cell_length_b 18.309418
_cell_length_c 8.937163
_cell_angle_alpha 90.000000
_cell_angle_beta 90.000000
_cell_angle_gamma 90.000000
_cell_volume 2531.946998
_symmetry_space_group_name_H-M "C 2 2 2"
_symmetry_group_IT_number 21
_symmetry_cell_setting 'orthorhombic'
loop_
_space_group_symop_operation_xyz
x,y,z
-x,-y,z
x,-y,-z
-x,y,-z
1/2+x,1/2+y,z
1/2-x,1/2-y,z
1/2+x,1/2-y,-z
1/2-x,1/2+y,-z
loop_
_atom_site_type_symbol
_atom_site_label
_atom_site_fract_x
_atom_site_fract_y
_atom_site_fract_z
Si Si1 0.000000 0.000000 0.500000
Si Si2 0.156549 0.741642 0.133824
Si Si3 0.909853 0.623953 0.091459
Si Si4 0.790331 0.500000 0.000000
Si Si5 0.040553 0.099778 0.243084
Si Si6 0.633271 0.405900 0.062462
Si Si7 0.986162 0.732993 0.323748
O O1 0.054078 0.946936 0.608170
O O2 0.250000 0.750000 0.206257
O O3 0.143003 0.818975 0.054529
O O4 0.080736 0.729962 0.250261
O O5 0.146100 0.679055 0.010968
O O6 0.932633 0.668361 0.242437
O O7 0.853355 0.550456 0.100282
O O8 0.000000 0.611126 0.000000
O O9 0.723496 0.446890 0.087754
O O10 0.942295 0.084981 0.184979
O O11 0.049160 0.186034 0.279753
O O12 0.098093 0.074606 0.102838
O O13 0.000000 0.726091 0.500000
#
# Coordination Sequence:
#
# PCOD9322613 Si02
#       7
#     2   8   8   4   8   8   8
#     4  12  20  30  52  80 128 162 176 224 304 398
#     4  10  18  36  61  87 112 146 204 259 296 350
#     4  10  21  37  61  86 114 151 206 259 300 352
#     4  12  21  33  58  90 116 146 198 261 301 344
#     4  10  20  35  56  86 121 157 193 237 309 377
#     4  10  20  35  58  85 116 152 195 251 302 359
#     4  10  20  38  62  86 118 162 204 244 308 379
#
# _framework density 18.167836000000001
#
# number of rings (size 3 to 8) (size 9 to 14) (size 15 to 20)
#    0.000    1.739    4.348    1.304    0.000    1.391 
#    0.000    2.609    3.826    8.348    0.000    0.000 
#    0.000    0.000    0.000    0.000    0.000    0.000 
#
# Total GULP energy -128161.569110 kJ/mol
# GULP energy per Si atom -5572.242135 kJ/mol
# Density = 1.812649 g / cm^3
# Si number density = 18.167836 Si / 1000 Ang^3
#
#
#
# Elastic Constant Matrix: (Units=GPa)
#
#
# Indices 1 2 3 4 5 6 
#
# 1 86.5157 47.3437 26.3836 0.0000 0.0000 0.0000
# 2 47.3437 106.2924 47.6262 0.0000 0.0000 0.0000
# 3 26.3836 47.6262 106.6745 0.0000 0.0000 0.0000
# 4 0.0000 0.0000 0.0000 26.9114 0.0000 0.0000
# 5 0.0000 0.0000 0.0000 0.0000 5.9928 0.0000
# 6 0.0000 0.0000 0.0000 0.0000 0.0000 42.7698
#
#
#
# Elastic Compliance Matrix: (Units=1/GPa)
#
#
# Indices 1 2 3 4 5 6 
#
# 1 0.015357 -0.006423 -0.000931 0.000000 0.000000 0.000000
# 2 -0.006423 0.014447 -0.004862 0.000000 0.000000 0.000000
# 3 -0.000931 -0.004862 0.011775 0.000000 0.000000 0.000000
# 4 0.000000 0.000000 0.000000 0.037159 0.000000 0.000000
# 5 0.000000 0.000000 0.000000 0.000000 0.166866 0.000000
# 6 0.000000 0.000000 0.000000 0.000000 0.000000 0.023381
#
#
# Mechanical properties :
#
#
# Convention : Reuss Voigt Hill
#
# Bulk Modulus (GPa) = 58.31300 60.24330 59.27815
# Shear Modulus (GPa) = 16.71497 27.01009 21.86253
#
# Velocity S-wave (km/s) = 3.03649 3.85996 3.47272
# Velocity P-wave (km/s) = 6.66785 7.28677 6.98417
#
# Compressibility (1/GPa) = 0.01714884
#
# Stress axis : x y z
#
# Youngs Moduli (GPa) = 65.11505 69.21681 84.92616
#
# Poissons Ratio (x) = 0.44461 0.07902
# Poissons Ratio (y) = 0.41826 0.41287
# Poissons Ratio (z) = 0.06059 0.33650
#
# Static dielectric constant tensor:
#      x y z
#    x 1.654600 0.000000 0.000000 
#    y 0.000000 1.696460 0.000000 
#    z 0.000000 0.000000 1.591930 
# 
# From -- ./inp_files/16606.got.cif
#   From: 2010.05.17/outbox.cif.g08.bks.cpg/sg21_9_cif.got.tgz:16606.got - 2010.06.03 23:14:55.
