data_PCOD9322163
_publ_section_title
;
Structure prediction by ZEFSAII (Michael W. Deem and Ramdas Pophale) SiO2 
 PCOD9322163
Probable space group: C 2 2 21
;
_chemical_formula_sum "Si O2"
_cell_formula_units_Z 40
_cell_length_a 7.864410
_cell_length_b 7.037634
_cell_length_c 24.698252
_cell_angle_alpha 90.000000
_cell_angle_beta 90.000000
_cell_angle_gamma 90.000000
_cell_volume 1366.970182
_symmetry_space_group_name_H-M "C 2 2 21"
_symmetry_group_IT_number 20
_symmetry_cell_setting 'orthorhombic'
loop_
_space_group_symop_operation_xyz
x,y,z
-x,-y,1/2+z
x,-y,-z
-x,y,1/2-z
1/2+x,1/2+y,z
1/2-x,1/2-y,1/2+z
1/2+x,1/2-y,-z
1/2-x,1/2+y,1/2-z
loop_
_atom_site_type_symbol
_atom_site_label
_atom_site_fract_x
_atom_site_fract_y
_atom_site_fract_z
Si Si1 0.135004 0.709346 0.188007
Si Si2 0.300789 0.279939 0.985733
Si Si3 0.349811 0.359250 0.713860
Si Si4 0.463025 0.762173 0.913835
Si Si5 0.025614 0.183990 0.384181
O O1 0.187430 0.628821 0.246935
O O2 0.998715 0.634331 0.143728
O O3 0.308410 0.713845 0.153106
O O4 0.095446 0.926479 0.201893
O O5 0.125645 0.276785 0.953514
O O6 0.440456 0.213378 0.941143
O O7 0.334365 0.500000 0.000000
O O8 0.312230 0.181763 0.044685
O O9 0.500000 0.269803 0.750000
O O10 0.363652 0.266723 0.654138
O O11 0.464282 0.539701 0.898174
#
# Coordination Sequence:
#
# PCOD9322163 Si02
#       5
#     8   8   8   8   8
#     4   9  17  32  56  81 109 147 186 229 281 331
#     4   9  17  32  53  77 107 143 183 230 282 336
#     4   9  17  32  53  77 107 143 183 230 282 336
#     4   9  17  32  56  81 109 147 186 229 281 331
#     4   8  16  32  54  76 106 146 184 228 282 332
#
# _framework density 29.261794999999999
#
# number of rings (size 3 to 8) (size 9 to 14) (size 15 to 20)
#    0.000    3.200    0.000    0.000    0.000    0.000 
#    0.000   18.000    0.000   43.200    0.000    0.000 
#    0.000    0.000    0.000    0.000    0.000    0.000 
#
# Total GULP energy -111826.076960 kJ/mol
# GULP energy per Si atom -5591.303848 kJ/mol
# Density = 2.919519 g / cm^3
# Si number density = 29.261795 Si / 1000 Ang^3
#
#
#
# Elastic Constant Matrix: (Units=GPa)
#
#
# Indices 1 2 3 4 5 6 
#
# 1 99.7936 3.9994 18.9093 0.0000 0.0000 0.0000
# 2 3.9994 80.5515 54.0717 0.0000 0.0000 0.0000
# 3 18.9093 54.0717 229.0203 0.0000 0.0000 0.0000
# 4 0.0000 0.0000 0.0000 26.8547 0.0000 0.0000
# 5 0.0000 0.0000 0.0000 0.0000 62.0767 0.0000
# 6 0.0000 0.0000 0.0000 0.0000 0.0000 24.5823
#
#
#
# Elastic Compliance Matrix: (Units=1/GPa)
#
#
# Indices 1 2 3 4 5 6 
#
# 1 0.010180 0.000070 -0.000857 0.000000 0.000000 0.000000
# 2 0.000070 0.014753 -0.003489 0.000000 0.000000 0.000000
# 3 -0.000857 -0.003489 0.005261 0.000000 0.000000 0.000000
# 4 0.000000 0.000000 0.000000 0.037237 0.000000 0.000000
# 5 0.000000 0.000000 0.000000 0.000000 0.016109 0.000000
# 6 0.000000 0.000000 0.000000 0.000000 0.000000 0.040680
#
#
# Mechanical properties :
#
#
# Convention : Reuss Voigt Hill
#
# Bulk Modulus (GPa) = 46.20666 62.59183 54.39924
# Shear Modulus (GPa) = 35.71769 44.86173 40.28971
#
# Velocity S-wave (km/s) = 3.49754 3.91975 3.71465
# Velocity P-wave (km/s) = 5.66881 6.47477 6.08515
#
# Compressibility (1/GPa) = 0.02164190
#
# Stress axis : x y z
#
# Youngs Moduli (GPa) = 98.22912 67.78299 190.08052
#
# Poissons Ratio (x) = -0.00473 0.16291
# Poissons Ratio (y) = -0.00686 0.66318
# Poissons Ratio (z) = 0.08419 0.23649
#
# Static dielectric constant tensor:
#      x y z
#    x 2.403260 0.000000 0.000000 
#    y 0.000000 2.209020 0.000000 
#    z 0.000000 0.000000 2.345270 
# 
# From -- ./inp_files/28587.got.cif
#   From: 2010.05.17/outbox.cif.g08.bks.cpg/sg20_15_cif.got.tgz:28587.got - 2010.06.03 22:52:26.
