data_PCOD9322638
_publ_section_title
;
Structure prediction by ZEFSAII (Michael W. Deem and Ramdas Pophale) SiO2 
 PCOD9322638
Probable space group: C 2 2 2
;
_chemical_formula_sum "Si O2"
_cell_formula_units_Z 46
_cell_length_a 23.854638
_cell_length_b 8.850825
_cell_length_c 12.226447
_cell_angle_alpha 90.000000
_cell_angle_beta 90.000000
_cell_angle_gamma 90.000000
_cell_volume 2581.409202
_symmetry_space_group_name_H-M "C 2 2 2"
_symmetry_group_IT_number 21
_symmetry_cell_setting 'orthorhombic'
loop_
_space_group_symop_operation_xyz
x,y,z
-x,-y,z
x,-y,-z
-x,y,-z
1/2+x,1/2+y,z
1/2-x,1/2-y,z
1/2+x,1/2-y,-z
1/2-x,1/2+y,-z
loop_
_atom_site_type_symbol
_atom_site_label
_atom_site_fract_x
_atom_site_fract_y
_atom_site_fract_z
Si Si1 0.314986 0.729035 0.546407
Si Si2 0.610364 0.000000 0.500000
Si Si3 0.093368 0.960048 0.120303
Si Si4 0.500000 0.000000 0.000000
Si Si5 0.034661 0.743147 0.391846
Si Si6 0.484966 0.257609 0.160129
Si Si7 0.140503 0.930895 0.341977
O O1 0.250000 0.750000 0.571811
O O2 0.322179 0.678018 0.418887
O O3 0.342908 0.596601 0.617442
O O4 0.349947 0.881102 0.560725
O O5 0.571775 0.903920 0.581320
O O6 0.061139 0.111629 0.158370
O O7 0.043689 0.833553 0.116523
O O8 0.139474 0.917762 0.210993
O O9 0.114894 0.000000 0.000000
O O10 0.469783 0.115475 0.084027
O O11 0.997577 0.716777 0.285270
O O12 0.076924 0.881992 0.371074
O O13 0.000000 0.774397 0.500000
#
# Coordination Sequence:
#
# PCOD9322638 Si02
#       7
#     8   4   8   2   8   8   8
#     4  10  20  38  58  81 107 135 180 238 286 339
#     4  10  21  34  46  80 116 138 179 216 294 326
#     4  10  18  38  52  72 105 147 199 227 237 305
#     4  12  20  30  46  72 100 150 208 210 256 290
#     4  10  22  35  48  78 121 154 175 225 266 329
#     4  10  21  32  50  72 108 158 195 214 252 309
#     4   9  21  35  58  83 100 147 195 209 271 341
#
# _framework density 17.819724000000001
#
# number of rings (size 3 to 8) (size 9 to 14) (size 15 to 20)
#    0.000    2.087    1.739    1.826    9.739    0.000 
#    3.130    0.000    0.000    1.043    0.000    0.000 
#    0.000    0.000    0.000    0.000    0.000    0.000 
#
# Total GULP energy -128261.525810 kJ/mol
# GULP energy per Si atom -5576.588079 kJ/mol
# Density = 1.777917 g / cm^3
# Si number density = 17.819724 Si / 1000 Ang^3
#
#
#
# Elastic Constant Matrix: (Units=GPa)
#
#
# Indices 1 2 3 4 5 6 
#
# 1 49.9103 27.8724 35.2898 0.0000 0.0000 0.0000
# 2 27.8724 85.4605 25.2086 0.0000 0.0000 0.0000
# 3 35.2898 25.2086 127.0222 0.0000 0.0000 0.0000
# 4 0.0000 0.0000 0.0000 20.7995 0.0000 0.0000
# 5 0.0000 0.0000 0.0000 0.0000 18.3863 0.0000
# 6 0.0000 0.0000 0.0000 0.0000 0.0000 6.9189
#
#
#
# Elastic Compliance Matrix: (Units=1/GPa)
#
#
# Indices 1 2 3 4 5 6 
#
# 1 0.028824 -0.007476 -0.006524 0.000000 0.000000 0.000000
# 2 -0.007476 0.014368 -0.000774 0.000000 0.000000 0.000000
# 3 -0.006524 -0.000774 0.009839 0.000000 0.000000 0.000000
# 4 0.000000 0.000000 0.000000 0.048078 0.000000 0.000000
# 5 0.000000 0.000000 0.000000 0.000000 0.054388 0.000000
# 6 0.000000 0.000000 0.000000 0.000000 0.000000 0.144532
#
#
# Mechanical properties :
#
#
# Convention : Reuss Voigt Hill
#
# Bulk Modulus (GPa) = 42.58726 48.79276 45.69001
# Shear Modulus (GPa) = 14.81891 20.82241 17.82066
#
# Velocity S-wave (km/s) = 2.88688 3.42205 3.16579
# Velocity P-wave (km/s) = 5.92139 6.56160 6.24970
#
# Compressibility (1/GPa) = 0.02348120
#
# Stress axis : x y z
#
# Youngs Moduli (GPa) = 34.69302 69.59869 101.63703
#
# Poissons Ratio (x) = 0.52034 0.66311
# Poissons Ratio (y) = 0.25938 0.07870
# Poissons Ratio (z) = 0.22635 0.05389
#
# Static dielectric constant tensor:
#      x y z
#    x 1.584880 0.000000 0.000000 
#    y 0.000000 1.635490 0.000000 
#    z 0.000000 0.000000 1.652820 
# 
# From -- ./inp_files/27369.got.cif
#   From: 2010.05.17/outbox.cif.g08.bks.cpg/sg21_14_cif.got.tgz:27369.got - 2010.06.03 23:14:55.
