data_PCOD9322832
_publ_section_title
;
Structure prediction by ZEFSAII (Michael W. Deem and Ramdas Pophale) SiO2 
 PCOD9322832
Probable space group: C 2 2 2
;
_chemical_formula_sum "Si O2"
_cell_formula_units_Z 36
_cell_length_a 8.667419
_cell_length_b 22.993917
_cell_length_c 8.883418
_cell_angle_alpha 90.000000
_cell_angle_beta 90.000000
_cell_angle_gamma 90.000000
_cell_volume 1770.446669
_symmetry_space_group_name_H-M "C 2 2 2"
_symmetry_group_IT_number 21
_symmetry_cell_setting 'orthorhombic'
loop_
_space_group_symop_operation_xyz
x,y,z
-x,-y,z
x,-y,-z
-x,y,-z
1/2+x,1/2+y,z
1/2-x,1/2-y,z
1/2+x,1/2-y,-z
1/2-x,1/2+y,-z
loop_
_atom_site_type_symbol
_atom_site_label
_atom_site_fract_x
_atom_site_fract_y
_atom_site_fract_z
Si Si1 0.110618 0.706187 0.362971
Si Si2 0.250849 0.500000 0.500000
Si Si3 0.668713 0.370911 0.547501
Si Si4 0.000000 0.600654 0.000000
Si Si5 0.500000 0.000000 0.755170
Si Si6 0.181434 0.313292 0.159609
O O1 0.250000 0.750000 0.327964
O O2 0.199133 0.650421 0.431358
O O3 0.000000 0.726600 0.500000
O O4 0.989446 0.695675 0.230858
O O5 0.335223 0.559624 0.539768
O O6 0.143868 0.491857 0.645638
O O7 0.500000 0.350217 0.500000
O O8 0.717630 0.343522 0.708334
O O9 0.005232 0.557208 0.858456
O O10 0.149525 0.641954 0.975643
O O11 0.250000 0.250000 0.121636
#
# Coordination Sequence:
#
# PCOD9322832 Si02
#       6
#     8   4   8   4   4   8
#     4  10  19  34  57  88 125 167 215 272 332 388
#     4  11  21  38  66 100 122 166 224 296 338 402
#     4  11  21  36  60  98 135 167 218 287 351 401
#     4  11  22  42  62  96 132 181 220 282 336 417
#     4  10  22  40  70  96 128 170 238 284 344 414
#     4  11  23  39  62  94 134 180 230 271 337 419
#
# _framework density 20.333852
#
# number of rings (size 3 to 8) (size 9 to 14) (size 15 to 20)
#    0.000    1.333    2.222    6.333    6.222    0.889 
#    0.000    2.222    0.000    0.000    0.000    0.000 
#    0.000    0.000    0.000    0.000    0.000    0.000 
#
# Total GULP energy -100442.368198 kJ/mol
# GULP energy per Si atom -5580.131567 kJ/mol
# Density = 2.028757 g / cm^3
# Si number density = 20.333852 Si / 1000 Ang^3
#
#
#
# Elastic Constant Matrix: (Units=GPa)
#
#
# Indices 1 2 3 4 5 6 
#
# 1 110.7573 38.7234 24.4301 0.0000 0.0000 0.0000
# 2 38.7234 167.5491 34.2613 0.0000 0.0000 0.0000
# 3 24.4301 34.2613 75.8669 0.0000 0.0000 0.0000
# 4 0.0000 0.0000 0.0000 16.6094 0.0000 0.0000
# 5 0.0000 0.0000 0.0000 0.0000 14.9243 0.0000
# 6 0.0000 0.0000 0.0000 0.0000 0.0000 36.5902
#
#
#
# Elastic Compliance Matrix: (Units=1/GPa)
#
#
# Indices 1 2 3 4 5 6 
#
# 1 0.010220 -0.001861 -0.002451 0.000000 0.000000 0.000000
# 2 -0.001861 0.006914 -0.002523 0.000000 0.000000 0.000000
# 3 -0.002451 -0.002523 0.015110 0.000000 0.000000 0.000000
# 4 0.000000 0.000000 0.000000 0.060207 0.000000 0.000000
# 5 0.000000 0.000000 0.000000 0.000000 0.067005 0.000000
# 6 0.000000 0.000000 0.000000 0.000000 0.000000 0.027330
#
#
# Mechanical properties :
#
#
# Convention : Reuss Voigt Hill
#
# Bulk Modulus (GPa) = 53.83747 61.00033 57.41890
# Shear Modulus (GPa) = 24.19590 30.74199 27.46894
#
# Velocity S-wave (km/s) = 3.45328 3.89249 3.67944
# Velocity P-wave (km/s) = 6.51417 7.08988 6.80812
#
# Compressibility (1/GPa) = 0.01857442
#
# Stress axis : x y z
#
# Youngs Moduli (GPa) = 97.84842 144.62431 66.18300
#
# Poissons Ratio (x) = 0.26913 0.16219
# Poissons Ratio (y) = 0.18208 0.16700
# Poissons Ratio (z) = 0.23978 0.36493
#
# Static dielectric constant tensor:
#      x y z
#    x 1.719650 0.000000 0.000000 
#    y 0.000000 1.776370 0.000000 
#    z 0.000000 0.000000 1.744780 
# 
# From -- ./inp_files/10648.got.cif
#   From: 2010.05.17/outbox.cif.g08.bks.cpg/sg21_6_cif.got.tgz:10648.got - 2010.06.03 23:14:55.
