data_PCOD9322151
_publ_section_title
;
Structure prediction by ZEFSAII (Michael W. Deem and Ramdas Pophale) SiO2 
 PCOD9322151
Probable space group: C 2 2 21
;
_chemical_formula_sum "Si O2"
_cell_formula_units_Z 20
_cell_length_a 8.891788
_cell_length_b 16.116412
_cell_length_c 4.982300
_cell_angle_alpha 90.000000
_cell_angle_beta 90.000000
_cell_angle_gamma 90.000000
_cell_volume 713.982118
_symmetry_space_group_name_H-M "C 2 2 21"
_symmetry_group_IT_number 20
_symmetry_cell_setting 'orthorhombic'
loop_
_space_group_symop_operation_xyz
x,y,z
-x,-y,1/2+z
x,-y,-z
-x,y,1/2-z
1/2+x,1/2+y,z
1/2-x,1/2-y,1/2+z
1/2+x,1/2-y,-z
1/2-x,1/2+y,1/2-z
loop_
_atom_site_type_symbol
_atom_site_label
_atom_site_fract_x
_atom_site_fract_y
_atom_site_fract_z
Si Si1 0.900935 0.000000 0.000000
Si Si2 0.723828 0.857686 0.882937
Si Si3 0.000000 0.736209 0.750000
Si Si4 0.392342 0.000000 0.000000
O O1 0.799511 0.923284 0.087191
O O2 0.000000 0.973677 0.750000
O O3 0.690556 0.919372 0.631530
O O4 0.856537 0.791292 0.839010
O O5 0.577702 0.815416 0.010006
O O6 0.500000 0.023750 0.750000
#
# Coordination Sequence:
#
# PCOD9322151 Si02
#       4
#     4   8   4   4
#     4  12  28  56  98 134 186 264 324 388 470 610
#     4  12  32  60 100 140 201 252 329 397 494 576
#     4  12  34  58 102 146 198 250 322 418 494 554
#     4  12  32  60 104 138 190 266 330 392 472 612
#
# _framework density 28.011901000000002
#
# number of rings (size 3 to 8) (size 9 to 14) (size 15 to 20)
#    0.000    0.000    2.000    2.400   19.600    0.000 
#    0.000    0.000    0.000    0.000    0.000    0.000 
#    0.000    0.000    0.000    0.000    0.000    0.000 
#
# Total GULP energy -56056.107576 kJ/mol
# GULP energy per Si atom -5605.610758 kJ/mol
# Density = 2.794814 g / cm^3
# Si number density = 28.011901 Si / 1000 Ang^3
#
#
#
# Elastic Constant Matrix: (Units=GPa)
#
#
# Indices 1 2 3 4 5 6 
#
# 1 255.4712 126.0911 125.4333 0.0000 0.0000 0.0000
# 2 126.0911 197.3783 106.1487 0.0000 0.0000 0.0000
# 3 125.4333 106.1487 187.3191 0.0000 0.0000 0.0000
# 4 0.0000 0.0000 0.0000 53.4161 0.0000 0.0000
# 5 0.0000 0.0000 0.0000 0.0000 50.9998 0.0000
# 6 0.0000 0.0000 0.0000 0.0000 0.0000 103.4597
#
#
#
# Elastic Compliance Matrix: (Units=1/GPa)
#
#
# Indices 1 2 3 4 5 6 
#
# 1 0.006692 -0.002683 -0.002961 0.000000 0.000000 0.000000
# 2 -0.002683 0.008363 -0.002942 0.000000 0.000000 0.000000
# 3 -0.002961 -0.002942 0.008989 0.000000 0.000000 0.000000
# 4 0.000000 0.000000 0.000000 0.018721 0.000000 0.000000
# 5 0.000000 0.000000 0.000000 0.000000 0.019608 0.000000
# 6 0.000000 0.000000 0.000000 0.000000 0.000000 0.009666
#
#
# Mechanical properties :
#
#
# Convention : Reuss Voigt Hill
#
# Bulk Modulus (GPa) = 145.53764 150.61274 148.07519
# Shear Modulus (GPa) = 54.64413 60.40815 57.52614
#
# Velocity S-wave (km/s) = 4.42152 4.64887 4.53662
# Velocity P-wave (km/s) = 8.83939 9.09396 8.96758
#
# Compressibility (1/GPa) = 0.00687107
#
# Stress axis : x y z
#
# Youngs Moduli (GPa) = 149.42507 119.57865 111.25104
#
# Poissons Ratio (x) = 0.32081 0.32942
# Poissons Ratio (y) = 0.40088 0.32735
# Poissons Ratio (z) = 0.44246 0.35185
#
# Static dielectric constant tensor:
#      x y z
#    x 2.256540 0.000000 0.000000 
#    y 0.000000 2.254630 0.000000 
#    z 0.000000 0.000000 2.284320 
# 
# From -- ./inp_files/280.got.cif
#   From: 2010.05.17/outbox.cif.g08.bks.cpg/sg20_1_cif.got.tgz:280.got - 2010.06.03 22:52:26.
