data_PCOD9322950
_publ_section_title
;
Structure prediction by ZEFSAII (Michael W. Deem and Ramdas Pophale) SiO2 
 PCOD9322950
Probable space group: C 2 2 2
;
_chemical_formula_sum "Si O2"
_cell_formula_units_Z 58
_cell_length_a 8.128649
_cell_length_b 30.676650
_cell_length_c 11.823174
_cell_angle_alpha 90.000000
_cell_angle_beta 90.000000
_cell_angle_gamma 90.000000
_cell_volume 2948.223362
_symmetry_space_group_name_H-M "C 2 2 2"
_symmetry_group_IT_number 21
_symmetry_cell_setting 'orthorhombic'
loop_
_space_group_symop_operation_xyz
x,y,z
-x,-y,z
x,-y,-z
-x,y,-z
1/2+x,1/2+y,z
1/2-x,1/2-y,z
1/2+x,1/2-y,-z
1/2-x,1/2+y,-z
loop_
_atom_site_type_symbol
_atom_site_label
_atom_site_fract_x
_atom_site_fract_y
_atom_site_fract_z
Si Si1 0.770154 0.075461 0.056021
Si Si2 0.000000 0.000000 0.000000
Si Si3 0.069472 0.602442 0.850104
Si Si4 0.921618 0.819940 0.380920
Si Si5 0.442682 0.200549 0.885646
Si Si6 0.564819 0.232630 0.345591
Si Si7 0.077730 0.834339 0.125570
Si Si8 0.937088 0.360942 0.613409
O O1 0.590108 0.075245 0.112119
O O2 0.868714 0.115187 0.111361
O O3 0.724585 0.087042 0.924351
O O4 0.877381 0.032340 0.065632
O O5 0.072038 0.605320 0.715986
O O6 0.033806 0.653523 0.880273
O O7 0.738554 0.837690 0.384664
O O8 0.000000 0.837629 0.500000
O O9 0.939737 0.767778 0.394533
O O10 0.994064 0.829600 0.252038
O O11 0.490339 0.230946 0.784164
O O12 0.249846 0.191727 0.873222
O O13 0.500000 0.221593 0.000000
O O14 0.750000 0.250000 0.359847
O O15 0.558069 0.181445 0.376108
O O16 0.000000 0.824407 0.000000
O O17 0.000000 0.383083 0.500000
#
# Coordination Sequence:
#
# PCOD9322950 Si02
#       8
#     8   2   8   8   8   8   8   8
#     4  10  20  38  63  98 130 154 190 244 305 382
#     4  12  24  34  68 112 134 150 184 240 330 382
#     4   9  19  38  63  86 125 172 204 249 299 367
#     4  12  26  40  59  89 124 169 217 281 336 366
#     4  10  19  36  61  81 115 169 220 255 316 376
#     4  11  22  40  55  81 124 165 219 285 330 366
#     4  11  21  38  64  88 124 161 205 260 315 373
#     4  11  24  39  61  86 117 168 233 266 315 375
#
# _framework density 19.672865000000002
#
# number of rings (size 3 to 8) (size 9 to 14) (size 15 to 20)
#    0.000    1.379    4.828    2.483    5.793    1.655 
#    0.000    0.000    0.000    0.000    0.000    5.310 
#    0.000    0.000    0.000    0.000    0.000    0.000 
#
# Total GULP energy -161570.288576 kJ/mol
# GULP energy per Si atom -5571.389261 kJ/mol
# Density = 1.962809 g / cm^3
# Si number density = 19.672865 Si / 1000 Ang^3
#
#
#
# Elastic Constant Matrix: (Units=GPa)
#
#
# Indices 1 2 3 4 5 6 
#
# 1 78.6595 24.9979 41.3782 0.0000 0.0000 0.0000
# 2 24.9979 66.4329 17.0520 0.0000 0.0000 0.0000
# 3 41.3782 17.0520 171.5932 0.0000 0.0000 0.0000
# 4 0.0000 0.0000 0.0000 8.3657 0.0000 0.0000
# 5 0.0000 0.0000 0.0000 0.0000 30.1358 0.0000
# 6 0.0000 0.0000 0.0000 0.0000 0.0000 25.2009
#
#
#
# Elastic Compliance Matrix: (Units=1/GPa)
#
#
# Indices 1 2 3 4 5 6 
#
# 1 0.016144 -0.005208 -0.003375 0.000000 0.000000 0.000000
# 2 -0.005208 0.017127 -0.000446 0.000000 0.000000 0.000000
# 3 -0.003375 -0.000446 0.006686 0.000000 0.000000 0.000000
# 4 0.000000 0.000000 0.000000 0.119536 0.000000 0.000000
# 5 0.000000 0.000000 0.000000 0.000000 0.033183 0.000000
# 6 0.000000 0.000000 0.000000 0.000000 0.000000 0.039681
#
#
# Mechanical properties :
#
#
# Convention : Reuss Voigt Hill
#
# Bulk Modulus (GPa) = 45.66750 53.72688 49.69719
# Shear Modulus (GPa) = 19.40119 28.29095 23.84607
#
# Velocity S-wave (km/s) = 3.14377 3.79630 3.48534
# Velocity P-wave (km/s) = 6.03669 6.82534 6.44309
#
# Compressibility (1/GPa) = 0.02189741
#
# Stress axis : x y z
#
# Youngs Moduli (GPa) = 61.94318 58.38697 149.56616
#
# Poissons Ratio (x) = 0.30410 0.50484
# Poissons Ratio (y) = 0.32262 0.06671
# Poissons Ratio (z) = 0.20908 0.02604
#
# Static dielectric constant tensor:
#      x y z
#    x 1.731470 0.000000 0.000000 
#    y 0.000000 1.683330 0.000000 
#    z 0.000000 0.000000 1.915270 
# 
# From -- ./inp_files/23106.got.cif
#   From: 2010.05.17/outbox.cif.g08.bks.cpg/sg21_12_cif.got.tgz:23106.got - 2010.06.03 23:14:55.
