data_PCOD9322728
_publ_section_title
;
Structure prediction by ZEFSAII (Michael W. Deem and Ramdas Pophale) SiO2 
 PCOD9322728
Probable space group: C 2 2 2
;
_chemical_formula_sum "Si O2"
_cell_formula_units_Z 48
_cell_length_a 19.637777
_cell_length_b 19.724130
_cell_length_c 7.477199
_cell_angle_alpha 90.000000
_cell_angle_beta 90.000000
_cell_angle_gamma 90.000000
_cell_volume 2896.203803
_symmetry_space_group_name_H-M "C 2 2 2"
_symmetry_group_IT_number 21
_symmetry_cell_setting 'orthorhombic'
loop_
_space_group_symop_operation_xyz
x,y,z
-x,-y,z
x,-y,-z
-x,y,-z
1/2+x,1/2+y,z
1/2-x,1/2-y,z
1/2+x,1/2-y,-z
1/2-x,1/2+y,-z
loop_
_atom_site_type_symbol
_atom_site_label
_atom_site_fract_x
_atom_site_fract_y
_atom_site_fract_z
Si Si1 0.643041 0.923011 0.500000
Si Si2 0.920816 0.281149 0.500001
Si Si3 0.823640 0.784025 0.788331
Si Si4 0.260705 0.423407 0.210822
Si Si5 0.823640 0.215976 0.788333
Si Si6 0.239296 0.076593 0.789179
O O1 0.590178 0.862193 0.500000
O O2 0.693357 0.915314 0.329820
O O3 0.693356 0.915314 0.670182
O O4 0.615846 0.000000 0.500000
O O5 0.881080 0.250398 0.329982
O O6 0.881080 0.250399 0.670020
O O7 0.000000 0.264170 0.500000
O O8 0.750000 0.750000 0.749754
O O9 0.812990 0.863512 0.745622
O O10 0.836528 0.776171 0.999999
O O11 0.312991 0.363512 0.254378
O O12 0.286363 0.500000 0.242097
O O13 0.244320 0.416494 0.000001
O O14 0.750000 0.250000 0.749756
#
# Coordination Sequence:
#
# PCOD9322728 Si02
#       6
#     8   8   8   8   8   8
#     4  10  19  32  50  73 104 138 171 205 247 306
#     4  12  24  35  50  75 110 145 173 208 255 307
#     4  10  19  34  57  79 100 133 176 220 259 299
#     4   9  17  30  53  82 104 125 163 216 265 303
#     4  10  19  34  57  79 100 133 176 220 259 299
#     4   9  17  30  53  82 104 125 163 216 265 303
#
# _framework density 16.573419999999999
#
# number of rings (size 3 to 8) (size 9 to 14) (size 15 to 20)
#    0.000    2.000    3.333    1.500    0.000    1.000 
#    0.000    0.000    0.000    2.000    0.000   11.667 
#    0.000    0.000    0.000    0.000    0.000    0.000 
#
# Total GULP energy -133869.590786 kJ/mol
# GULP energy per Si atom -5577.899616 kJ/mol
# Density = 1.653570 g / cm^3
# Si number density = 16.573420 Si / 1000 Ang^3
#
#
#
# Elastic Constant Matrix: (Units=GPa)
#
#
# Indices 1 2 3 4 5 6 
#
# 1 102.6243 54.6061 50.0698 0.0000 0.0000 0.0000
# 2 54.6061 122.5896 41.7360 0.0000 0.0000 0.0000
# 3 50.0698 41.7360 66.1566 0.0000 0.0000 0.0000
# 4 0.0000 0.0000 0.0000 23.7959 0.0000 0.0000
# 5 0.0000 0.0000 0.0000 0.0000 3.6560 0.0000
# 6 0.0000 0.0000 0.0000 0.0000 0.0000 17.5670
#
#
#
# Elastic Compliance Matrix: (Units=1/GPa)
#
#
# Indices 1 2 3 4 5 6 
#
# 1 0.016885 -0.004038 -0.010232 0.000000 0.000000 0.000000
# 2 -0.004038 0.011354 -0.004107 0.000000 0.000000 0.000000
# 3 -0.010232 -0.004107 0.025450 0.000000 0.000000 0.000000
# 4 0.000000 0.000000 0.000000 0.042024 0.000000 0.000000
# 5 0.000000 0.000000 0.000000 0.000000 0.273521 0.000000
# 6 0.000000 0.000000 0.000000 0.000000 0.000000 0.056925
#
#
# Mechanical properties :
#
#
# Convention : Reuss Voigt Hill
#
# Bulk Modulus (GPa) = 59.04486 64.91048 61.97767
# Shear Modulus (GPa) = 10.67104 18.66770 14.66937
#
# Velocity S-wave (km/s) = 2.54020 3.35977 2.97831
# Velocity P-wave (km/s) = 6.65636 7.36894 7.02169
#
# Compressibility (1/GPa) = 0.01693627
#
# Stress axis : x y z
#
# Youngs Moduli (GPa) = 59.22508 88.07394 39.29207
#
# Poissons Ratio (x) = 0.35561 0.40203
# Poissons Ratio (y) = 0.23913 0.16137
# Poissons Ratio (z) = 0.60598 0.36172
#
# Static dielectric constant tensor:
#      x y z
#    x 1.491870 0.000000 0.000000 
#    y 0.000000 1.610770 0.000000 
#    z 0.000000 0.000000 1.578520 
# 
# From -- ./inp_files/16719.got.cif
#   From: 2010.05.17/outbox.cif.g08.bks.cpg/sg21_9_cif.got.tgz:16719.got - 2010.06.03 23:14:55.
