data_PCOD9322934
_publ_section_title
;
Structure prediction by ZEFSAII (Michael W. Deem and Ramdas Pophale) SiO2 
 PCOD9322934
Probable space group: C 2 2 2
;
_chemical_formula_sum "Si O2"
_cell_formula_units_Z 52
_cell_length_a 25.959423
_cell_length_b 18.109467
_cell_length_c 5.373905
_cell_angle_alpha 90.000000
_cell_angle_beta 90.000000
_cell_angle_gamma 90.000000
_cell_volume 2526.333542
_symmetry_space_group_name_H-M "C 2 2 2"
_symmetry_group_IT_number 21
_symmetry_cell_setting 'orthorhombic'
loop_
_space_group_symop_operation_xyz
x,y,z
-x,-y,z
x,-y,-z
-x,y,-z
1/2+x,1/2+y,z
1/2-x,1/2-y,z
1/2+x,1/2-y,-z
1/2-x,1/2+y,-z
loop_
_atom_site_type_symbol
_atom_site_label
_atom_site_fract_x
_atom_site_fract_y
_atom_site_fract_z
Si Si1 0.351446 0.500000 0.500000
Si Si2 0.130669 0.500000 0.500000
Si Si3 0.801482 0.242303 0.496911
Si Si4 0.197182 0.500000 0.000000
Si Si5 0.715522 0.608126 0.843082
Si Si6 0.606663 0.162696 0.470091
Si Si7 0.061027 0.264260 0.028948
Si Si8 0.624551 0.364370 0.777476
O O1 0.312268 0.450018 0.659477
O O2 0.386896 0.557993 0.648457
O O3 0.164263 0.488513 0.249675
O O4 0.099460 0.575081 0.456805
O O5 0.750000 0.250000 0.665676
O O6 0.778516 0.187539 0.286261
O O7 0.831659 0.318938 0.464243
O O8 0.850069 0.193349 0.586079
O O9 0.233653 0.570551 0.050200
O O10 0.673157 0.618360 0.052283
O O11 0.580632 0.191066 0.726751
O O12 0.584919 0.202431 0.223557
O O13 0.081470 0.180662 0.074959
O O14 0.000000 0.266176 0.000000
#
# Coordination Sequence:
#
# PCOD9322934 Si02
#       8
#     4   4   8   4   8   8   8   8
#     4  10  19  36  58  89 131 177 214 272 320 390
#     4  12  27  44  65  96 143 177 223 286 353 400
#     4  10  22  35  56  89 134 176 222 266 322 395
#     4  12  24  36  62  94 138 192 226 258 324 416
#     4  11  20  34  56  87 129 178 227 253 313 387
#     4  11  24  46  66 100 134 173 225 290 348 412
#     4  11  24  47  75  99 126 174 230 292 356 406
#     4  10  21  37  61  93 129 175 222 275 323 401
#
# _framework density 20.583188
#
# number of rings (size 3 to 8) (size 9 to 14) (size 15 to 20)
#    0.000    1.231    3.077    2.769    4.308    0.615 
#    0.000    2.308    0.000    2.769    0.000    0.000 
#    0.000    0.000    0.000    0.000    0.000    0.000 
#
# Total GULP energy -145008.107620 kJ/mol
# GULP energy per Si atom -5577.234908 kJ/mol
# Density = 2.053634 g / cm^3
# Si number density = 20.583188 Si / 1000 Ang^3
#
#
#
# Elastic Constant Matrix: (Units=GPa)
#
#
# Indices 1 2 3 4 5 6 
#
# 1 93.5337 19.7109 29.0978 0.0000 0.0000 0.0000
# 2 19.7109 126.4086 34.4944 0.0000 0.0000 0.0000
# 3 29.0978 34.4944 114.6336 0.0000 0.0000 0.0000
# 4 0.0000 0.0000 0.0000 27.0121 0.0000 0.0000
# 5 0.0000 0.0000 0.0000 0.0000 20.7240 0.0000
# 6 0.0000 0.0000 0.0000 0.0000 0.0000 16.3149
#
#
#
# Elastic Compliance Matrix: (Units=1/GPa)
#
#
# Indices 1 2 3 4 5 6 
#
# 1 0.011749 -0.001109 -0.002648 0.000000 0.000000 0.000000
# 2 -0.001109 0.008723 -0.002343 0.000000 0.000000 0.000000
# 3 -0.002648 -0.002343 0.010101 0.000000 0.000000 0.000000
# 4 0.000000 0.000000 0.000000 0.037020 0.000000 0.000000
# 5 0.000000 0.000000 0.000000 0.000000 0.048253 0.000000
# 6 0.000000 0.000000 0.000000 0.000000 0.000000 0.061294
#
#
# Mechanical properties :
#
#
# Convention : Reuss Voigt Hill
#
# Bulk Modulus (GPa) = 54.43396 55.68690 55.06043
# Shear Modulus (GPa) = 25.57982 29.56171 27.57077
#
# Velocity S-wave (km/s) = 3.52909 3.79384 3.66386
# Velocity P-wave (km/s) = 6.56576 6.80473 6.68631
#
# Compressibility (1/GPa) = 0.01837089
#
# Stress axis : x y z
#
# Youngs Moduli (GPa) = 85.11334 114.63577 99.00147
#
# Poissons Ratio (x) = 0.12717 0.26221
# Poissons Ratio (y) = 0.09442 0.23199
# Poissons Ratio (z) = 0.22542 0.26863
#
# Static dielectric constant tensor:
#      x y z
#    x 1.804390 0.000000 0.000000 
#    y 0.000000 1.890370 0.000000 
#    z 0.000000 0.000000 1.826820 
# 
# From -- ./inp_files/7457.got.cif
#   From: 2010.05.17/outbox.cif.g08.bks.cpg/sg21_4_cif.got.tgz:7457.got - 2010.06.03 23:14:55.
