data_PCOD9322582
_publ_section_title
;
Structure prediction by ZEFSAII (Michael W. Deem and Ramdas Pophale) SiO2 
 PCOD9322582
Probable space group: C 2 2 2
;
_chemical_formula_sum "Si O2"
_cell_formula_units_Z 28
_cell_length_a 15.055337
_cell_length_b 10.435177
_cell_length_c 7.997937
_cell_angle_alpha 90.000000
_cell_angle_beta 90.000000
_cell_angle_gamma 90.000000
_cell_volume 1256.516743
_symmetry_space_group_name_H-M "C 2 2 2"
_symmetry_group_IT_number 21
_symmetry_cell_setting 'orthorhombic'
loop_
_space_group_symop_operation_xyz
x,y,z
-x,-y,z
x,-y,-z
-x,y,-z
1/2+x,1/2+y,z
1/2-x,1/2-y,z
1/2+x,1/2-y,-z
1/2-x,1/2+y,-z
loop_
_atom_site_type_symbol
_atom_site_label
_atom_site_fract_x
_atom_site_fract_y
_atom_site_fract_z
Si Si1 0.250000 0.750000 0.384896
Si Si2 0.222329 0.506494 0.803820
Si Si3 0.389005 0.615863 0.624915
Si Si4 0.045130 0.626982 0.682558
O O1 0.215967 0.634256 0.272811
O O2 0.329383 0.699284 0.498189
O O3 0.319939 0.560084 0.760180
O O4 0.148094 0.590714 0.710775
O O5 0.206815 0.500000 0.000000
O O6 0.415694 0.500000 0.500000
O O7 0.456138 0.717644 0.712983
O O8 0.000000 0.500000 0.769894
O O9 0.000000 0.624054 0.500000
#
# Coordination Sequence:
#
# PCOD9322582 Si02
#       4
#     4   8   8   8
#     4  10  18  34  64  96 122 174 236 286 342 390
#     4  11  24  39  67 102 139 181 236 307 348 405
#     4  10  21  40  68 101 130 182 248 289 337 425
#     4  11  22  38  67  97 141 179 224 287 353 433
#
# _framework density 22.283826999999999
#
# number of rings (size 3 to 8) (size 9 to 14) (size 15 to 20)
#    0.000    1.429    2.857    3.429    8.000    1.143 
#    0.000    0.000    0.000    0.000    0.000    0.000 
#    0.000    0.000    0.000    0.000    0.000    0.000 
#
# Total GULP energy -77947.415142 kJ/mol
# GULP energy per Si atom -5567.672510 kJ/mol
# Density = 2.223311 g / cm^3
# Si number density = 22.283827 Si / 1000 Ang^3
#
#
#
# Elastic Constant Matrix: (Units=GPa)
#
#
# Indices 1 2 3 4 5 6 
#
# 1 79.3696 31.8297 25.1949 0.0000 0.0000 0.0000
# 2 31.8297 182.6483 34.4658 0.0000 0.0000 0.0000
# 3 25.1949 34.4658 102.4306 0.0000 0.0000 0.0000
# 4 0.0000 0.0000 0.0000 -3.2502 0.0000 0.0000
# 5 0.0000 0.0000 0.0000 0.0000 17.4808 0.0000
# 6 0.0000 0.0000 0.0000 0.0000 0.0000 43.2292
#
#
#
# Elastic Compliance Matrix: (Units=1/GPa)
#
#
# Indices 1 2 3 4 5 6 
#
# 1 0.014289 -0.001951 -0.002858 0.000000 0.000000 0.000000
# 2 -0.001951 0.006113 -0.001577 0.000000 0.000000 0.000000
# 3 -0.002858 -0.001577 0.010996 0.000000 0.000000 0.000000
# 4 0.000000 0.000000 0.000000 -0.307676 0.000000 0.000000
# 5 0.000000 0.000000 0.000000 0.000000 0.057206 0.000000
# 6 0.000000 0.000000 0.000000 0.000000 0.000000 0.023132
#
#
# Mechanical properties :
#
#
# Convention : Reuss Voigt Hill
#
# Bulk Modulus (GPa) = 53.68855 60.82548 57.25702
# Shear Modulus (GPa) = -28.25500 29.68918 0.71709
#
# Velocity S-wave (km/s) = -3.56471 3.65406 0.56789
# Velocity P-wave (km/s) = 2.68375 6.71996 5.11666
#
# Compressibility (1/GPa) = 0.01862594
#
# Stress axis : x y z
#
# Youngs Moduli (GPa) = 69.98438 163.59863 90.93919
#
# Poissons Ratio (x) = 0.31914 0.25993
# Poissons Ratio (y) = 0.13652 0.14340
# Poissons Ratio (z) = 0.20003 0.25798
#
# Static dielectric constant tensor:
#      x y z
#    x 1.918770 0.000000 0.000000 
#    y 0.000000 1.898410 0.000000 
#    z 0.000000 0.000000 1.768510 
# 
# From -- ./inp_files/13946.got.cif
#   From: 2010.05.17/outbox.cif.g08.bks.cpg/sg21_7_cif.got.tgz:13946.got - 2010.06.03 23:14:55.
