data_PCOD9322226
_publ_section_title
;
Structure prediction by ZEFSAII (Michael W. Deem and Ramdas Pophale) SiO2 
 PCOD9322226
Probable space group: C 2 2 21
;
_chemical_formula_sum "Si O2"
_cell_formula_units_Z 28
_cell_length_a 12.000000
_cell_length_b 15.000000
_cell_length_c 15.000000
_cell_angle_alpha 90.000000
_cell_angle_beta 90.000000
_cell_angle_gamma 90.000000
_cell_volume 2700.000000
_symmetry_space_group_name_H-M "C 2 2 21"
_symmetry_group_IT_number 20
_symmetry_cell_setting 'orthorhombic'
loop_
_space_group_symop_operation_xyz
x,y,z
-x,-y,1/2+z
x,-y,-z
-x,y,1/2-z
1/2+x,1/2+y,z
1/2-x,1/2-y,1/2+z
1/2+x,1/2-y,-z
1/2-x,1/2+y,1/2-z
loop_
_atom_site_type_symbol
_atom_site_label
_atom_site_fract_x
_atom_site_fract_y
_atom_site_fract_z
Si Si1 0.760009 0.645483 0.084282
Si Si2 0.405332 0.494630 0.814230
Si Si3 0.673046 0.002865 0.723107
Si Si4 0.388594 0.164676 0.896551
Si Si5 0.651560 0.667440 0.607245
Si Si6 0.513576 0.346456 0.570401
Si Si7 0.884473 0.559657 0.587876
O O1 0.821076 0.563458 0.136680
O O2 0.805233 0.735011 0.132283
O O3 0.622380 0.646286 0.080227
O O4 0.806800 0.654450 0.982411
O O5 0.500000 0.460375 0.750000
O O6 0.289381 0.475878 0.768238
O O7 0.407875 0.600806 0.824838
O O8 0.429844 0.440529 0.903611
O O9 0.661452 0.102598 0.682049
O O10 0.601128 0.008059 0.816141
O O11 0.423791 0.266920 0.874194
O O12 0.508794 0.122811 0.919781
O O13 0.560963 0.675297 0.527976
O O14 0.767121 0.613481 0.586793
O O15 0.883086 0.500000 0.500000
#
# Coordination Sequence:
#
# PCOD9322226 Si02
#       7
#     8   8   8   8   8   8   8
#     4  11  23  44  68 104 135 176 237 283 341 419
#     4  11  23  39  63  96 128 172 224 280 341 392
#     4  11  24  41  67 102 133 178 227 284 345 409
#     4  11  25  42  70 103 138 183 222 290 349 411
#     4  10  23  41  65  95 132 178 222 280 345 401
#     4  11  23  44  70  96 135 181 232 285 339 412
#     4  11  22  44  67  97 140 182 228 277 353 419
#
# _framework density 10.370369999999999
#
# number of rings (size 3 to 8) (size 9 to 14) (size 15 to 20)
#    0.000    1.143    2.857    3.857    2.000    4.571 
#    0.000    4.286    0.000    0.000    0.000    0.000 
#    0.000    0.000    0.000    0.000    0.000    0.000 
#
# Total GULP energy -155919.787923 kJ/mol
# GULP energy per Si atom -5568.563854 kJ/mol
# Density = 1.034677 g / cm^3
# Si number density = 10.370370 Si / 1000 Ang^3
#
#
#
# Elastic Constant Matrix: (Units=GPa)
#
#
# Indices 1 2 3 4 5 6 
#
# 1 87.9343 25.0247 11.7722 0.0000 0.0000 0.0000
# 2 25.0247 61.7986 14.7947 0.0000 0.0000 0.0000
# 3 11.7722 14.7947 65.4651 0.0000 0.0000 0.0000
# 4 0.0000 0.0000 0.0000 27.5116 0.0000 0.0000
# 5 0.0000 0.0000 0.0000 0.0000 34.0714 0.0000
# 6 0.0000 0.0000 0.0000 0.0000 0.0000 16.1313
#
#
#
# Elastic Compliance Matrix: (Units=1/GPa)
#
#
# Indices 1 2 3 4 5 6 
#
# 1 0.012943 -0.004952 -0.001208 0.000000 0.000000 0.000000
# 2 -0.004952 0.019002 -0.003404 0.000000 0.000000 0.000000
# 3 -0.001208 -0.003404 0.016262 0.000000 0.000000 0.000000
# 4 0.000000 0.000000 0.000000 0.036348 0.000000 0.000000
# 5 0.000000 0.000000 0.000000 0.000000 0.029350 0.000000
# 6 0.000000 0.000000 0.000000 0.000000 0.000000 0.061991
#
#
# Mechanical properties :
#
#
# Convention : Reuss Voigt Hill
#
# Bulk Modulus (GPa) = 34.38966 35.37570 34.88268
# Shear Modulus (GPa) = 24.42389 26.44993 25.43691
#
# Velocity S-wave (km/s) = 3.43531 3.57496 3.50583
# Velocity P-wave (km/s) = 5.68787 5.84240 5.76565
#
# Compressibility (1/GPa) = 0.02907851
#
# Stress axis : x y z
#
# Youngs Moduli (GPa) = 77.26105 52.62688 61.49358
#
# Poissons Ratio (x) = 0.26060 0.07431
# Poissons Ratio (y) = 0.38259 0.20931
# Poissons Ratio (z) = 0.09336 0.17913
#
# Static dielectric constant tensor:
#      x y z
#    x 1.749160 0.000000 0.000000 
#    y 0.000000 1.806040 0.000000 
#    z 0.000000 0.000000 1.811010 
# 
# From -- ./inp_files/20024.got.cif
#   From: 2010.05.17/outbox.ucp.g08.bks.cvg/sg20_11_cif.got.tgz:20024.got - 2010.06.11 15:13:06.
