data_PCOD9322518
_publ_section_title
;
Structure prediction by ZEFSAII (Michael W. Deem and Ramdas Pophale) SiO2 
 PCOD9322518
Probable space group: C 2 2 2
;
_chemical_formula_sum "Si O2"
_cell_formula_units_Z 58
_cell_length_a 18.524856
_cell_length_b 13.790216
_cell_length_c 11.259923
_cell_angle_alpha 90.000000
_cell_angle_beta 90.000000
_cell_angle_gamma 90.000000
_cell_volume 2876.479810
_symmetry_space_group_name_H-M "C 2 2 2"
_symmetry_group_IT_number 21
_symmetry_cell_setting 'orthorhombic'
loop_
_space_group_symop_operation_xyz
x,y,z
-x,-y,z
x,-y,-z
-x,y,-z
1/2+x,1/2+y,z
1/2-x,1/2-y,z
1/2+x,1/2-y,-z
1/2-x,1/2+y,-z
loop_
_atom_site_type_symbol
_atom_site_label
_atom_site_fract_x
_atom_site_fract_y
_atom_site_fract_z
Si Si1 0.622118 0.403167 0.347127
Si Si2 0.500000 0.500000 0.500000
Si Si3 0.584103 0.259114 0.793562
Si Si4 0.330223 0.716199 0.554887
Si Si5 0.415142 0.530751 0.870021
Si Si6 0.916609 0.293202 0.225905
Si Si7 0.411909 0.110985 0.013458
Si Si8 0.917707 0.397505 0.452483
O O1 0.548297 0.432622 0.415197
O O2 0.670113 0.375365 0.463804
O O3 0.627477 0.483990 0.242698
O O4 0.621711 0.302031 0.276120
O O5 0.626032 0.293138 0.676748
O O6 0.586395 0.353659 0.874087
O O7 0.500554 0.236884 0.769114
O O8 0.610291 0.164138 0.864829
O O9 0.250000 0.750000 0.580121
O O10 0.372553 0.806110 0.495961
O O11 0.500000 0.500000 0.856745
O O12 0.389059 0.500000 0.000000
O O13 0.889039 0.323490 0.097642
O O14 0.913566 0.387072 0.311042
O O15 0.500000 0.111010 0.000000
O O16 0.388157 0.000000 0.000000
O O17 0.890492 0.500000 0.500000
O O18 0.000000 0.387641 0.500000
#
# Coordination Sequence:
#
# PCOD9322518 Si02
#       8
#     8   2   8   8   8   8   8   8
#     4  11  20  35  57  89 129 159 205 250 318 391
#     4  12  20  32  62 100 122 164 194 262 340 380
#     4  11  20  36  58  86 126 165 206 262 315 389
#     4  11  25  42  60  87 128 176 210 259 325 390
#     4  11  21  33  60  98 131 163 201 263 338 400
#     4  10  18  32  56  86 119 154 198 260 319 368
#     4   9  20  31  53  85 121 158 202 261 320 369
#     4  10  21  35  61  89 118 154 201 260 312 371
#
# _framework density 20.163535
#
# number of rings (size 3 to 8) (size 9 to 14) (size 15 to 20)
#    0.000    1.517    3.448    2.483    7.724    1.103 
#    3.724    0.000    0.000    8.276    0.000    0.000 
#    0.000    0.000    0.000    0.000    0.000    0.000 
#
# Total GULP energy -161578.065180 kJ/mol
# GULP energy per Si atom -5571.657420 kJ/mol
# Density = 2.011764 g / cm^3
# Si number density = 20.163535 Si / 1000 Ang^3
#
#
#
# Elastic Constant Matrix: (Units=GPa)
#
#
# Indices 1 2 3 4 5 6 
#
# 1 12.5553 -8.7903 -6.7816 0.0000 0.0000 0.0000
# 2 -8.7903 110.9584 24.4599 0.0000 0.0000 0.0000
# 3 -6.7816 24.4599 96.3855 0.0000 0.0000 0.0000
# 4 0.0000 0.0000 0.0000 27.8118 0.0000 0.0000
# 5 0.0000 0.0000 0.0000 0.0000 -2.6243 0.0000
# 6 0.0000 0.0000 0.0000 0.0000 0.0000 7.6276
#
#
#
# Elastic Compliance Matrix: (Units=1/GPa)
#
#
# Indices 1 2 3 4 5 6 
#
# 1 0.086199 0.005817 0.004589 0.000000 0.000000 0.000000
# 2 0.005817 0.009939 -0.002113 0.000000 0.000000 0.000000
# 3 0.004589 -0.002113 0.011234 0.000000 0.000000 0.000000
# 4 0.000000 0.000000 0.000000 0.035956 0.000000 0.000000
# 5 0.000000 0.000000 0.000000 0.000000 -0.381055 0.000000
# 6 0.000000 0.000000 0.000000 0.000000 0.000000 0.131103
#
#
# Mechanical properties :
#
#
# Convention : Reuss Voigt Hill
#
# Bulk Modulus (GPa) = 8.06727 26.40837 17.23782
# Shear Modulus (GPa) = -61.05618 20.63044 -20.21287
#
# Velocity S-wave (km/s) = -5.50874 3.20215 -3.16958
# Velocity P-wave (km/s) = 6.03755 5.17660 2.19714
#
# Compressibility (1/GPa) = 0.12395763
#
# Stress axis : x y z
#
# Youngs Moduli (GPa) = 11.60110 100.61359 89.01510
#
# Poissons Ratio (x) = -0.58530 -0.40845
# Poissons Ratio (y) = -0.06749 0.18808
# Poissons Ratio (z) = -0.05323 0.21259
#
# Static dielectric constant tensor:
#      x y z
#    x 1.682110 0.000000 0.000000 
#    y 0.000000 1.724220 0.000000 
#    z 0.000000 0.000000 1.794110 
# 
# From -- ./inp_files/26213.got.cif
#   From: 2010.05.17/outbox.cif.g08.bks.cpg/sg21_14_cif.got.tgz:26213.got - 2010.06.03 23:14:55.
