data_PCOD9322173
_publ_section_title
;
Structure prediction by ZEFSAII (Michael W. Deem and Ramdas Pophale) SiO2 
 PCOD9322173
Probable space group: C 2 2 21
;
_chemical_formula_sum "Si O2"
_cell_formula_units_Z 30
_cell_length_a 24.000000
_cell_length_b 15.000000
_cell_length_c 9.000000
_cell_angle_alpha 90.000000
_cell_angle_beta 90.000000
_cell_angle_gamma 90.000000
_cell_volume 3240.000000
_symmetry_space_group_name_H-M "C 2 2 21"
_symmetry_group_IT_number 20
_symmetry_cell_setting 'orthorhombic'
loop_
_space_group_symop_operation_xyz
x,y,z
-x,-y,1/2+z
x,-y,-z
-x,y,1/2-z
1/2+x,1/2+y,z
1/2-x,1/2-y,1/2+z
1/2+x,1/2-y,-z
1/2-x,1/2+y,1/2-z
loop_
_atom_site_type_symbol
_atom_site_label
_atom_site_fract_x
_atom_site_fract_y
_atom_site_fract_z
Si Si1 0.625657 0.409160 0.765059
Si Si2 0.500491 0.301110 0.427941
Si Si3 0.246210 0.026019 0.174962
Si Si4 0.818949 0.643177 0.750442
Si Si5 0.623474 0.750900 0.001639
Si Si6 0.500000 0.412077 0.750000
Si Si7 0.623882 0.745147 0.483822
Si Si8 0.288513 0.771741 0.763874
O O1 0.681202 0.470260 0.769299
O O2 0.629031 0.343209 0.908697
O O3 0.563263 0.453483 0.756995
O O4 0.627241 0.339353 0.627880
O O5 0.500000 0.333727 0.250000
O O6 0.441056 0.248808 0.445843
O O7 0.500380 0.361322 0.585028
O O8 0.561080 0.253053 0.448964
O O9 0.270649 0.125406 0.205314
O O10 0.287498 0.951909 0.247251
O O11 0.244854 0.000000 0.000000
O O12 0.859300 0.669446 0.613828
O O13 0.857902 0.666585 0.892004
O O14 0.767937 0.714669 0.751120
O O15 0.671088 0.758248 0.877079
O O16 0.672684 0.736094 0.603628
#
# Coordination Sequence:
#
# PCOD9322173 Si02
#       8
#     8   8   8   8   8   4   8   8
#     4   9  19  37  61  90 125 166 206 255 316 376
#     4  10  18  34  62  96 120 167 214 260 318 380
#     4  12  23  37  62  91 124 170 210 250 321 382
#     4  11  23  37  59  89 124 166 205 254 318 375
#     4  10  20  36  60  90 126 158 207 262 311 372
#     4   8  18  34  62  92 130 160 212 264 308 376
#     4  10  19  37  61  87 123 159 205 260 308 374
#     4  12  21  38  61  89 129 158 207 258 314 380
#
# _framework density 9.2592590000000001
#
# number of rings (size 3 to 8) (size 9 to 14) (size 15 to 20)
#    0.000    1.600    5.333    2.400    0.000    0.533 
#    0.000    0.000    0.000   11.200    0.000    0.000 
#    0.000    0.000    0.000    0.000    0.000    0.000 
#
# Total GULP energy -167050.525429 kJ/mol
# GULP energy per Si atom -5568.350848 kJ/mol
# Density = 0.923818 g / cm^3
# Si number density = 9.259259 Si / 1000 Ang^3
#
#
#
# Elastic Constant Matrix: (Units=GPa)
#
#
# Indices 1 2 3 4 5 6 
#
# 1 130.2308 1.1045 21.0410 0.0000 0.0000 0.0000
# 2 1.1045 48.5073 -2.0287 0.0000 0.0000 0.0000
# 3 21.0410 -2.0287 102.2685 0.0000 0.0000 0.0000
# 4 0.0000 0.0000 0.0000 6.2900 0.0000 0.0000
# 5 0.0000 0.0000 0.0000 0.0000 46.1521 0.0000
# 6 0.0000 0.0000 0.0000 0.0000 0.0000 33.3516
#
#
#
# Elastic Compliance Matrix: (Units=1/GPa)
#
#
# Indices 1 2 3 4 5 6 
#
# 1 0.007946 -0.000249 -0.001640 0.000000 0.000000 0.000000
# 2 -0.000249 0.020640 0.000461 0.000000 0.000000 0.000000
# 3 -0.001640 0.000461 0.010125 0.000000 0.000000 0.000000
# 4 0.000000 0.000000 0.000000 0.158983 0.000000 0.000000
# 5 0.000000 0.000000 0.000000 0.000000 0.021667 0.000000
# 6 0.000000 0.000000 0.000000 0.000000 0.000000 0.029984
#
#
# Mechanical properties :
#
#
# Convention : Reuss Voigt Hill
#
# Bulk Modulus (GPa) = 27.89094 35.69334 31.79214
# Shear Modulus (GPa) = 18.92839 34.55139 26.73989
#
# Velocity S-wave (km/s) = 3.20055 4.32415 3.80406
# Velocity P-wave (km/s) = 5.36207 6.65186 6.04148
#
# Compressibility (1/GPa) = 0.03585394
#
# Stress axis : x y z
#
# Youngs Moduli (GPa) = 125.85394 48.44864 98.76850
#
# Poissons Ratio (x) = 0.01209 0.16195
# Poissons Ratio (y) = 0.03140 -0.04551
# Poissons Ratio (z) = 0.20637 -0.02232
#
# Static dielectric constant tensor:
#      x y z
#    x 1.636750 0.000000 0.000000 
#    y 0.000000 1.641320 0.000000 
#    z 0.000000 0.000000 1.734370 
# 
# From -- ./inp_files/10773.got.cif
#   From: 2010.05.17/outbox.ucp.g08.bks.cvg/sg20_6_cif.got.tgz:10773.got - 2010.06.11 15:13:06.
