data_PCOD9322609
_publ_section_title
;
Structure prediction by ZEFSAII (Michael W. Deem and Ramdas Pophale) SiO2 
 PCOD9322609
Probable space group: C 2 2 2
;
_chemical_formula_sum "Si O2"
_cell_formula_units_Z 44
_cell_length_a 26.430382
_cell_length_b 9.557076
_cell_length_c 8.797469
_cell_angle_alpha 90.000000
_cell_angle_beta 90.000000
_cell_angle_gamma 90.000000
_cell_volume 2222.215768
_symmetry_space_group_name_H-M "C 2 2 2"
_symmetry_group_IT_number 21
_symmetry_cell_setting 'orthorhombic'
loop_
_space_group_symop_operation_xyz
x,y,z
-x,-y,z
x,-y,-z
-x,y,-z
1/2+x,1/2+y,z
1/2-x,1/2-y,z
1/2+x,1/2-y,-z
1/2-x,1/2+y,-z
loop_
_atom_site_type_symbol
_atom_site_label
_atom_site_fract_x
_atom_site_fract_y
_atom_site_fract_z
Si Si1 0.985495 0.152914 0.180262
Si Si2 0.665687 0.853888 0.407218
Si Si3 0.072621 0.639773 0.782348
Si Si4 0.601980 0.164735 0.136136
Si Si5 0.750000 0.250000 0.385035
Si Si6 0.287587 0.035016 0.832008
O O1 0.927024 0.198979 0.197553
O O2 0.020759 0.278369 0.240218
O O3 0.000000 0.000000 0.241244
O O4 0.000000 0.149605 0.000000
O O5 0.611548 0.809054 0.346047
O O6 0.700379 0.757334 0.510526
O O7 0.660010 0.000000 0.500000
O O8 0.696100 0.895604 0.255386
O O9 0.073947 0.470550 0.789023
O O10 0.092593 0.669102 0.954411
O O11 0.661210 0.131316 0.159306
O O12 0.750580 0.116633 0.275350
O O13 0.270070 0.000000 0.000000
#
# Coordination Sequence:
#
# PCOD9322609 Si02
#       6
#     8   8   8   8   4   8
#     4   9  17  27  45  79 123 152 180 231 297 349
#     4   9  18  34  54  80 111 145 190 243 307 354
#     4   9  15  29  52  78 108 152 194 237 284 348
#     4   9  15  29  53  80 106 148 200 247 282 336
#     4  10  22  34  56  82 114 148 180 256 326 364
#     4  10  18  36  57  81 109 147 204 255 294 356
#
# _framework density 19.800058
#
# number of rings (size 3 to 8) (size 9 to 14) (size 15 to 20)
#    0.000    2.727    3.636    0.545    0.000    2.909 
#    0.000    5.455    4.000   18.545    0.000   11.455 
#    0.000    0.000    0.000    0.000    0.000    0.182 
#
# Total GULP energy -122482.538090 kJ/mol
# GULP energy per Si atom -5567.388095 kJ/mol
# Density = 1.975499 g / cm^3
# Si number density = 19.800058 Si / 1000 Ang^3
#
#
#
# Elastic Constant Matrix: (Units=GPa)
#
#
# Indices 1 2 3 4 5 6 
#
# 1 79.1345 36.9152 34.3680 0.0000 0.0000 0.0000
# 2 36.9152 50.9805 11.2644 0.0000 0.0000 0.0000
# 3 34.3680 11.2644 78.3928 0.0000 0.0000 0.0000
# 4 0.0000 0.0000 0.0000 18.3334 0.0000 0.0000
# 5 0.0000 0.0000 0.0000 0.0000 23.6821 0.0000
# 6 0.0000 0.0000 0.0000 0.0000 0.0000 26.5667
#
#
#
# Elastic Compliance Matrix: (Units=1/GPa)
#
#
# Indices 1 2 3 4 5 6 
#
# 1 0.023067 -0.014943 -0.007965 0.000000 0.000000 0.000000
# 2 -0.014943 0.029938 0.002249 0.000000 0.000000 0.000000
# 3 -0.007965 0.002249 0.015925 0.000000 0.000000 0.000000
# 4 0.000000 0.000000 0.000000 0.054545 0.000000 0.000000
# 5 0.000000 0.000000 0.000000 0.000000 0.042226 0.000000
# 6 0.000000 0.000000 0.000000 0.000000 0.000000 0.037641
#
#
# Mechanical properties :
#
#
# Convention : Reuss Voigt Hill
#
# Bulk Modulus (GPa) = 36.21587 41.51145 38.86366
# Shear Modulus (GPa) = 19.69553 22.11378 20.90466
#
# Velocity S-wave (km/s) = 3.15734 3.34556 3.25281
# Velocity P-wave (km/s) = 5.62337 5.99454 5.81192
#
# Compressibility (1/GPa) = 0.02761220
#
# Stress axis : x y z
#
# Youngs Moduli (GPa) = 43.35261 33.40191 62.79343
#
# Poissons Ratio (x) = 0.49911 0.50018
# Poissons Ratio (y) = 0.64780 -0.14123
# Poissons Ratio (z) = 0.34532 -0.07512
#
# Static dielectric constant tensor:
#      x y z
#    x 1.738890 0.000000 0.000000 
#    y 0.000000 1.728700 0.000000 
#    z 0.000000 0.000000 1.722550 
# 
# From -- ./inp_files/11425.got.cif
#   From: 2010.05.17/outbox.cif.g08.bks.cpg/sg21_6_cif.got.tgz:11425.got - 2010.06.03 23:14:55.
