data_PCOD9322305
_publ_section_title
;
Structure prediction by ZEFSAII (Michael W. Deem and Ramdas Pophale) SiO2 
 PCOD9322305
Probable space group: C 2 2 2
;
_chemical_formula_sum "Si O2"
_cell_formula_units_Z 32
_cell_length_a 13.523060
_cell_length_b 4.960033
_cell_length_c 19.030754
_cell_angle_alpha 90.000000
_cell_angle_beta 90.000000
_cell_angle_gamma 90.000000
_cell_volume 1276.484472
_symmetry_space_group_name_H-M "C 2 2 2"
_symmetry_group_IT_number 21
_symmetry_cell_setting 'orthorhombic'
loop_
_space_group_symop_operation_xyz
x,y,z
-x,-y,z
x,-y,-z
-x,y,-z
1/2+x,1/2+y,z
1/2-x,1/2-y,z
1/2+x,1/2-y,-z
1/2-x,1/2+y,-z
loop_
_atom_site_type_symbol
_atom_site_label
_atom_site_fract_x
_atom_site_fract_y
_atom_site_fract_z
Si Si1 0.862545 0.248999 0.448094
Si Si2 0.500000 0.000000 0.337671
Si Si3 0.176534 0.000000 0.000000
Si Si4 0.868465 0.227435 0.778094
Si Si5 0.369132 0.770256 0.135644
O O1 0.870839 0.500000 0.500000
O O2 0.750000 0.250000 0.419633
O O3 0.939574 0.293999 0.386484
O O4 0.877712 0.000000 0.500000
O O5 0.423204 0.160605 0.289397
O O6 0.250000 0.750000 0.975955
O O7 0.110186 0.136427 0.939361
O O8 0.750000 0.250000 0.768168
O O9 0.894756 0.426383 0.843602
O O10 0.896887 0.927086 0.800730
O O11 0.250000 0.750000 0.134535
#
# Coordination Sequence:
#
# PCOD9322305 Si02
#       5
#     8   4   4   8   8
#     4  10  25  49  74 103 137 171 219 281 336 398
#     4  12  27  46  76 103 138 188 228 268 346 423
#     4  10  16  28  58  91 122 175 236 284 344 403
#     4  10  23  40  61  95 137 176 222 278 335 402
#     4   9  18  35  57  89 131 174 226 285 336 393
#
# _framework density 25.068852
#
# number of rings (size 3 to 8) (size 9 to 14) (size 15 to 20)
#    0.000    2.000    0.000    4.125    0.000   13.000 
#    0.000    2.500    0.000    4.500    0.000    0.000 
#    0.000    0.000    0.000    0.000    0.000    0.125 
#
# Total GULP energy -89624.750081 kJ/mol
# GULP energy per Si atom -5601.546880 kJ/mol
# Density = 2.501179 g / cm^3
# Si number density = 25.068852 Si / 1000 Ang^3
#
#
#
# Elastic Constant Matrix: (Units=GPa)
#
#
# Indices 1 2 3 4 5 6 
#
# 1 119.6754 2.7774 57.3349 0.0000 0.0000 0.0000
# 2 2.7774 152.4927 41.0364 0.0000 0.0000 0.0000
# 3 57.3349 41.0364 135.2517 0.0000 0.0000 0.0000
# 4 0.0000 0.0000 0.0000 60.5514 0.0000 0.0000
# 5 0.0000 0.0000 0.0000 0.0000 21.0042 0.0000
# 6 0.0000 0.0000 0.0000 0.0000 0.0000 28.8024
#
#
#
# Elastic Compliance Matrix: (Units=1/GPa)
#
#
# Indices 1 2 3 4 5 6 
#
# 1 0.010656 0.001112 -0.004855 0.000000 0.000000 0.000000
# 2 0.001112 0.007257 -0.002673 0.000000 0.000000 0.000000
# 3 -0.004855 -0.002673 0.010263 0.000000 0.000000 0.000000
# 4 0.000000 0.000000 0.000000 0.016515 0.000000 0.000000
# 5 0.000000 0.000000 0.000000 0.000000 0.047610 0.000000
# 6 0.000000 0.000000 0.000000 0.000000 0.000000 0.034719
#
#
# Mechanical properties :
#
#
# Convention : Reuss Voigt Hill
#
# Bulk Modulus (GPa) = 65.17145 67.74636 66.45890
# Shear Modulus (GPa) = 34.49103 42.48969 38.49036
#
# Velocity S-wave (km/s) = 3.71327 4.12141 3.92265
# Velocity P-wave (km/s) = 6.66618 7.05200 6.86180
#
# Compressibility (1/GPa) = 0.01534414
#
# Stress axis : x y z
#
# Youngs Moduli (GPa) = 93.84446 137.80123 97.44043
#
# Poissons Ratio (x) = -0.15328 0.47304
# Poissons Ratio (y) = -0.10439 0.26049
# Poissons Ratio (z) = 0.45558 0.36839
#
# Static dielectric constant tensor:
#      x y z
#    x 1.995070 0.000000 0.000000 
#    y 0.000000 1.946300 0.000000 
#    z 0.000000 0.000000 1.970200 
# 
# From -- ./inp_files/36462.got.cif
#   From: 2010.05.17/outbox.cif.g08.bks.cpg/sg21_19_cif.got.tgz:36462.got - 2010.06.03 23:14:55.
