data_PCOD9322251
_publ_section_title
;
Structure prediction by ZEFSAII (Michael W. Deem and Ramdas Pophale) SiO2 
 PCOD9322251
Probable space group: C 2 2 21
;
_chemical_formula_sum "Si O2"
_cell_formula_units_Z 30
_cell_length_a 18.000000
_cell_length_b 27.000000
_cell_length_c 6.000000
_cell_angle_alpha 90.000000
_cell_angle_beta 90.000000
_cell_angle_gamma 90.000000
_cell_volume 2916.000000
_symmetry_space_group_name_H-M "C 2 2 21"
_symmetry_group_IT_number 20
_symmetry_cell_setting 'orthorhombic'
loop_
_space_group_symop_operation_xyz
x,y,z
-x,-y,1/2+z
x,-y,-z
-x,y,1/2-z
1/2+x,1/2+y,z
1/2-x,1/2-y,1/2+z
1/2+x,1/2-y,-z
1/2-x,1/2+y,1/2-z
loop_
_atom_site_type_symbol
_atom_site_label
_atom_site_fract_x
_atom_site_fract_y
_atom_site_fract_z
Si Si1 0.113723 0.948738 0.941389
Si Si2 0.000000 0.872514 0.750000
Si Si3 0.901024 0.199817 0.010638
Si Si4 0.808431 0.879508 0.230842
Si Si5 0.743179 0.049236 0.140084
Si Si6 0.679257 0.868219 0.593814
Si Si7 0.260357 0.275930 0.754548
Si Si8 0.537639 0.189994 0.497018
O O1 0.066891 0.909189 0.804950
O O2 0.188144 0.962977 0.804659
O O3 0.135991 0.918996 0.161195
O O4 0.073644 0.000000 0.000000
O O5 0.029634 0.835658 0.560530
O O6 0.845458 0.205146 0.223211
O O7 0.850791 0.170824 0.831462
O O8 0.928532 0.254861 0.963277
O O9 0.743290 0.869926 0.406909
O O10 0.773879 0.907909 0.021824
O O11 0.681305 0.078631 0.283404
O O12 0.722784 0.000000 0.000000
O O13 0.704960 0.822725 0.752514
O O14 0.602196 0.851103 0.489694
O O15 0.251106 0.251077 0.502841
O O16 0.500000 0.180157 0.250000
O O17 0.500000 0.190727 0.750000
#
# Coordination Sequence:
#
# PCOD9322251 Si02
#       8
#     8   4   8   8   8   8   8   8
#     4  11  24  41  63  93 139 190 245 297 360 423
#     4  12  26  40  56  94 140 202 246 282 352 424
#     4  12  25  42  67  97 145 189 259 290 355 421
#     4  11  23  43  71  96 133 181 234 315 356 414
#     4  11  22  43  73 106 133 167 236 313 365 425
#     4  11  26  43  72 105 140 178 239 295 381 428
#     4  12  25  41  70 101 137 183 243 304 352 405
#     4  12  31  47  71 105 151 198 238 290 366 462
#
# _framework density 10.288066000000001
#
# number of rings (size 3 to 8) (size 9 to 14) (size 15 to 20)
#    0.000    0.533    6.000    1.600    5.600    1.600 
#    0.000    0.000    0.000    0.000    3.467    0.000 
#    0.000    0.000    0.000    0.000    0.000    0.000 
#
# Total GULP energy -167382.938785 kJ/mol
# GULP energy per Si atom -5579.431293 kJ/mol
# Density = 1.026465 g / cm^3
# Si number density = 10.288066 Si / 1000 Ang^3
#
#
#
# Elastic Constant Matrix: (Units=GPa)
#
#
# Indices 1 2 3 4 5 6 
#
# 1 57.4442 43.0791 21.2387 0.0000 0.0000 0.0000
# 2 43.0791 119.6229 43.2204 0.0000 0.0000 0.0000
# 3 21.2387 43.2204 101.3527 0.0000 0.0000 0.0000
# 4 0.0000 0.0000 0.0000 48.2030 0.0000 0.0000
# 5 0.0000 0.0000 0.0000 0.0000 27.8423 0.0000
# 6 0.0000 0.0000 0.0000 0.0000 0.0000 21.8172
#
#
#
# Elastic Compliance Matrix: (Units=1/GPa)
#
#
# Indices 1 2 3 4 5 6 
#
# 1 0.024065 -0.008091 -0.001593 0.000000 0.000000 0.000000
# 2 -0.008091 0.012602 -0.003679 0.000000 0.000000 0.000000
# 3 -0.001593 -0.003679 0.011769 0.000000 0.000000 0.000000
# 4 0.000000 0.000000 0.000000 0.020746 0.000000 0.000000
# 5 0.000000 0.000000 0.000000 0.000000 0.035917 0.000000
# 6 0.000000 0.000000 0.000000 0.000000 0.000000 0.045835
#
#
# Mechanical properties :
#
#
# Convention : Reuss Voigt Hill
#
# Bulk Modulus (GPa) = 46.05781 54.83290 50.44535
# Shear Modulus (GPa) = 27.04240 30.96462 29.00351
#
# Velocity S-wave (km/s) = 3.62921 3.88349 3.75850
# Velocity P-wave (km/s) = 6.32410 6.84217 6.58823
#
# Compressibility (1/GPa) = 0.02171185
#
# Stress axis : x y z
#
# Youngs Moduli (GPa) = 41.55486 79.34983 84.96917
#
# Poissons Ratio (x) = 0.64201 0.13532
# Poissons Ratio (y) = 0.33621 0.31257
# Poissons Ratio (z) = 0.06618 0.29190
#
# Static dielectric constant tensor:
#      x y z
#    x 1.784640 0.000000 0.000000 
#    y 0.000000 1.743220 0.000000 
#    z 0.000000 0.000000 1.798130 
# 
# From -- ./inp_files/2833.got.cif
#   From: 2010.05.17/outbox.ucp.g08.bks.cvg/sg20_2_cif.got.tgz:2833.got - 2010.06.11 15:13:06.
