data_PCOD9322051
_publ_section_title
;
Structure prediction by ZEFSAII (Michael W. Deem and Ramdas Pophale) SiO2 
 PCOD9322051
Probable space group: C 2 2 21
;
_chemical_formula_sum "Si O2"
_cell_formula_units_Z 20
_cell_length_a 7.807402
_cell_length_b 23.609695
_cell_length_c 5.041660
_cell_angle_alpha 90.000000
_cell_angle_beta 90.000000
_cell_angle_gamma 90.000000
_cell_volume 929.331103
_symmetry_space_group_name_H-M "C 2 2 21"
_symmetry_group_IT_number 20
_symmetry_cell_setting 'orthorhombic'
loop_
_space_group_symop_operation_xyz
x,y,z
-x,-y,1/2+z
x,-y,-z
-x,y,1/2-z
1/2+x,1/2+y,z
1/2-x,1/2-y,1/2+z
1/2+x,1/2-y,-z
1/2-x,1/2+y,1/2-z
loop_
_atom_site_type_symbol
_atom_site_label
_atom_site_fract_x
_atom_site_fract_y
_atom_site_fract_z
Si Si1 0.698577 0.714557 0.810765
Si Si2 0.119524 0.000000 0.000000
Si Si3 0.382881 0.899912 0.005538
O O1 0.500000 0.703469 0.750000
O O2 0.784896 0.740279 0.548259
O O3 0.793212 0.657879 0.902258
O O4 0.240346 0.946547 0.941658
O O5 0.000000 0.012743 0.750000
O O6 0.500000 0.889763 0.750000
O O7 0.500000 0.920765 0.250000
#
# Coordination Sequence:
#
# PCOD9322051 Si02
#       3
#     8   4   8
#     4  12  25  43  67  98 135 176 220 270 326 389
#     4  12  26  46  70 100 132 172 220 274 330 390
#     4  12  25  45  69  98 133 175 220 271 328 391
#
# _framework density 21.520854
#
# number of rings (size 3 to 8) (size 9 to 14) (size 15 to 20)
#    0.000    0.000    0.000   12.000    0.000    3.200 
#    0.000    0.000    0.000    0.000    0.000    0.000 
#    0.000    0.000    0.000    0.000    0.000    0.000 
#
# Total GULP energy -56111.135127 kJ/mol
# GULP energy per Si atom -5611.113513 kJ/mol
# Density = 2.147187 g / cm^3
# Si number density = 21.520854 Si / 1000 Ang^3
#
#
#
# Elastic Constant Matrix: (Units=GPa)
#
#
# Indices 1 2 3 4 5 6 
#
# 1 155.6020 53.1333 61.6905 0.0000 0.0000 0.0000
# 2 53.1333 52.7869 1.0602 0.0000 0.0000 0.0000
# 3 61.6905 1.0602 133.5432 0.0000 0.0000 0.0000
# 4 0.0000 0.0000 0.0000 27.3842 0.0000 0.0000
# 5 0.0000 0.0000 0.0000 0.0000 54.4762 0.0000
# 6 0.0000 0.0000 0.0000 0.0000 0.0000 22.2915
#
#
#
# Elastic Compliance Matrix: (Units=1/GPa)
#
#
# Indices 1 2 3 4 5 6 
#
# 1 0.013406 -0.013371 -0.006087 0.000000 0.000000 0.000000
# 2 -0.013371 0.032284 0.005921 0.000000 0.000000 0.000000
# 3 -0.006087 0.005921 0.010253 0.000000 0.000000 0.000000
# 4 0.000000 0.000000 0.000000 0.036517 0.000000 0.000000
# 5 0.000000 0.000000 0.000000 0.000000 0.018357 0.000000
# 6 0.000000 0.000000 0.000000 0.000000 0.000000 0.044860
#
#
# Mechanical properties :
#
#
# Convention : Reuss Voigt Hill
#
# Bulk Modulus (GPa) = 34.64020 63.74445 49.19233
# Shear Modulus (GPa) = 25.99094 35.90027 30.94560
#
# Velocity S-wave (km/s) = 3.47898 4.08874 3.79613
# Velocity P-wave (km/s) = 5.68056 7.20934 6.49012
#
# Compressibility (1/GPa) = 0.02886819
#
# Stress axis : x y z
#
# Youngs Moduli (GPa) = 74.59496 30.97473 97.53293
#
# Poissons Ratio (x) = 0.41418 0.59365
# Poissons Ratio (y) = 0.99744 -0.57746
# Poissons Ratio (z) = 0.45403 -0.18339
#
# Static dielectric constant tensor:
#      x y z
#    x 1.750510 0.000000 0.000000 
#    y 0.000000 1.742660 0.000000 
#    z 0.000000 0.000000 1.742730 
# 
# From -- ./inp_files/141.got.cif
#   From: 2010.05.17/outbox.cif.g08.bks.cpg/sg20_1_cif.got.tgz:141.got - 2010.06.03 22:52:26.
