data_PCOD9322970
_publ_section_title
;
Structure prediction by ZEFSAII (Michael W. Deem and Ramdas Pophale) SiO2 
 PCOD9322970
Probable space group: C 2 2 2
;
_chemical_formula_sum "Si O2"
_cell_formula_units_Z 42
_cell_length_a 16.627858
_cell_length_b 13.790859
_cell_length_c 8.227393
_cell_angle_alpha 90.000000
_cell_angle_beta 90.000000
_cell_angle_gamma 90.000000
_cell_volume 1886.643606
_symmetry_space_group_name_H-M "C 2 2 2"
_symmetry_group_IT_number 21
_symmetry_cell_setting 'orthorhombic'
loop_
_space_group_symop_operation_xyz
x,y,z
-x,-y,z
x,-y,-z
-x,y,-z
1/2+x,1/2+y,z
1/2-x,1/2-y,z
1/2+x,1/2-y,-z
1/2-x,1/2+y,-z
loop_
_atom_site_type_symbol
_atom_site_label
_atom_site_fract_x
_atom_site_fract_y
_atom_site_fract_z
Si Si1 0.382203 0.842814 0.826735
Si Si2 0.471610 0.259676 0.808805
Si Si3 0.086576 0.972657 0.190996
Si Si4 0.746581 0.023850 0.686914
Si Si5 0.000000 0.500000 0.000000
Si Si6 0.183732 0.673407 0.175996
O O1 0.440988 0.766282 0.737102
O O2 0.310610 0.886520 0.722841
O O3 0.441882 0.929602 0.893026
O O4 0.337015 0.804070 0.987825
O O5 0.419477 0.357008 0.789787
O O6 0.406249 0.180749 0.752526
O O7 0.500000 0.259517 0.000000
O O8 0.159328 0.028939 0.272565
O O9 0.000000 0.000000 0.259132
O O10 0.089172 0.000000 0.000000
O O11 0.737444 0.000000 0.500000
O O12 0.717288 0.933642 0.798140
O O13 0.250000 0.750000 0.235849
#
# Coordination Sequence:
#
# PCOD9322970 Si02
#       6
#     8   8   8   8   2   8
#     4  11  21  38  67  99 129 165 223 286 333 391
#     4  10  19  36  66 102 124 155 215 295 341 374
#     4  11  22  40  72  98 125 167 232 284 333 394
#     4  12  26  42  63  98 142 188 216 262 337 423
#     4  12  16  32  62  96 120 156 214 292 324 368
#     4  11  20  37  68  94 129 166 224 282 336 384
#
# _framework density 22.261758
#
# number of rings (size 3 to 8) (size 9 to 14) (size 15 to 20)
#    0.000    0.952    8.571    1.143    0.000    0.381 
#    0.000    7.143    4.190    0.000    0.000    0.000 
#    0.000    0.000    0.000    0.000    0.000    0.000 
#
# Total GULP energy -117045.279154 kJ/mol
# GULP energy per Si atom -5573.584722 kJ/mol
# Density = 2.221109 g / cm^3
# Si number density = 22.261758 Si / 1000 Ang^3
#
#
#
# Elastic Constant Matrix: (Units=GPa)
#
#
# Indices 1 2 3 4 5 6 
#
# 1 174.9496 26.2716 25.1437 0.0000 0.0000 0.0000
# 2 26.2716 35.8178 -8.0912 0.0000 0.0000 0.0000
# 3 25.1437 -8.0912 22.7311 0.0000 0.0000 0.0000
# 4 0.0000 0.0000 0.0000 2.0253 0.0000 0.0000
# 5 0.0000 0.0000 0.0000 0.0000 -19.0342 0.0000
# 6 0.0000 0.0000 0.0000 0.0000 0.0000 45.7647
#
#
#
# Elastic Compliance Matrix: (Units=1/GPa)
#
#
# Indices 1 2 3 4 5 6 
#
# 1 0.009135 -0.009768 -0.013581 0.000000 0.000000 0.000000
# 2 -0.009768 0.040806 0.025330 0.000000 0.000000 0.000000
# 3 -0.013581 0.025330 0.068031 0.000000 0.000000 0.000000
# 4 0.000000 0.000000 0.000000 0.493744 0.000000 0.000000
# 5 0.000000 0.000000 0.000000 0.000000 -0.052537 0.000000
# 6 0.000000 0.000000 0.000000 0.000000 0.000000 0.021851
#
#
# Mechanical properties :
#
#
# Convention : Reuss Voigt Hill
#
# Bulk Modulus (GPa) = 8.20124 35.57184 21.88654
# Shear Modulus (GPa) = 8.09438 18.42946 13.26192
#
# Velocity S-wave (km/s) = 1.90890 2.88036 2.44340
# Velocity P-wave (km/s) = 2.92413 5.20342 4.22055
#
# Compressibility (1/GPa) = 0.12193276
#
# Stress axis : x y z
#
# Youngs Moduli (GPa) = 109.47348 24.50637 14.69912
#
# Poissons Ratio (x) = 0.23938 0.19963
# Poissons Ratio (y) = 1.06934 -0.37232
# Poissons Ratio (z) = 1.48677 -0.62074
#
# Static dielectric constant tensor:
#      x y z
#    x 1.892860 0.000000 0.000000 
#    y 0.000000 2.073540 0.000000 
#    z 0.000000 0.000000 1.826290 
# 
# From -- ./inp_files/14597.got.cif
#   From: 2010.05.17/outbox.cif.g08.bks.cpg/sg21_8_cif.got.tgz:14597.got - 2010.06.03 23:14:55.
