data_PCOD9322585
_publ_section_title
;
Structure prediction by ZEFSAII (Michael W. Deem and Ramdas Pophale) SiO2 
 PCOD9322585
Probable space group: C 2 2 2
;
_chemical_formula_sum "Si O2"
_cell_formula_units_Z 56
_cell_length_a 12.292220
_cell_length_b 13.868496
_cell_length_c 16.786129
_cell_angle_alpha 90.000000
_cell_angle_beta 90.000000
_cell_angle_gamma 90.000000
_cell_volume 2861.608692
_symmetry_space_group_name_H-M "C 2 2 2"
_symmetry_group_IT_number 21
_symmetry_cell_setting 'orthorhombic'
loop_
_space_group_symop_operation_xyz
x,y,z
-x,-y,z
x,-y,-z
-x,y,-z
1/2+x,1/2+y,z
1/2-x,1/2-y,z
1/2+x,1/2-y,-z
1/2-x,1/2+y,-z
loop_
_atom_site_type_symbol
_atom_site_label
_atom_site_fract_x
_atom_site_fract_y
_atom_site_fract_z
Si Si1 0.636303 0.806968 0.756781
Si Si2 0.374580 0.008788 0.330204
Si Si3 0.438094 0.410190 0.142713
Si Si4 0.016276 0.300487 0.090461
Si Si5 0.153844 0.979669 0.591380
Si Si6 0.015554 0.860977 0.319359
Si Si7 0.291457 0.859606 0.806035
O O1 0.750000 0.750000 0.763344
O O2 0.650683 0.912484 0.720549
O O3 0.578877 0.813063 0.843602
O O4 0.560593 0.746179 0.694552
O O5 0.282838 0.021740 0.396882
O O6 0.500000 0.000000 0.355602
O O7 0.351350 0.096770 0.270043
O O8 0.500000 0.500000 0.105590
O O9 0.453859 0.313044 0.093280
O O10 0.492910 0.392733 0.228941
O O11 0.311640 0.421283 0.164996
O O12 0.120115 0.354870 0.125249
O O13 0.000000 0.330306 0.000000
O O14 0.105070 0.068817 0.642102
O O15 0.126430 0.000000 0.500000
O O16 0.092185 0.885860 0.628494
O O17 0.250000 0.750000 0.790378
#
# Coordination Sequence:
#
# PCOD9322585 Si02
#       7
#     8   8   8   8   8   8   8
#     4  11  23  39  66  92 128 174 216 262 317 384
#     4  12  23  40  67  95 126 170 222 258 319 399
#     4  10  18  34  67  94 120 165 213 264 309 384
#     4  10  23  40  61  90 130 167 216 267 325 378
#     4  11  22  38  68  98 127 162 214 275 323 370
#     4  10  18  37  65  94 123 162 216 255 304 388
#     4  10  21  40  66  90 126 169 213 263 323 391
#
# _framework density 19.569412
#
# number of rings (size 3 to 8) (size 9 to 14) (size 15 to 20)
#    0.000    1.429    5.714    0.857    2.000    2.286 
#    0.000    1.429   18.857    0.000    0.000    0.000 
#    0.000    0.000    0.000    0.000    0.000    0.000 
#
# Total GULP energy -156230.615416 kJ/mol
# GULP energy per Si atom -5579.664836 kJ/mol
# Density = 1.952487 g / cm^3
# Si number density = 19.569412 Si / 1000 Ang^3
#
#
#
# Elastic Constant Matrix: (Units=GPa)
#
#
# Indices 1 2 3 4 5 6 
#
# 1 138.7768 25.8750 30.3983 0.0000 0.0000 0.0000
# 2 25.8750 39.0039 21.2484 0.0000 0.0000 0.0000
# 3 30.3983 21.2484 102.8276 0.0000 0.0000 0.0000
# 4 0.0000 0.0000 0.0000 12.0450 0.0000 0.0000
# 5 0.0000 0.0000 0.0000 0.0000 14.4204 0.0000
# 6 0.0000 0.0000 0.0000 0.0000 0.0000 28.7686
#
#
#
# Elastic Compliance Matrix: (Units=1/GPa)
#
#
# Indices 1 2 3 4 5 6 
#
# 1 0.008425 -0.004769 -0.001505 0.000000 0.000000 0.000000
# 2 -0.004769 0.031590 -0.005118 0.000000 0.000000 0.000000
# 3 -0.001505 -0.005118 0.011228 0.000000 0.000000 0.000000
# 4 0.000000 0.000000 0.000000 0.083022 0.000000 0.000000
# 5 0.000000 0.000000 0.000000 0.000000 0.069346 0.000000
# 6 0.000000 0.000000 0.000000 0.000000 0.000000 0.034760
#
#
# Mechanical properties :
#
#
# Convention : Reuss Voigt Hill
#
# Bulk Modulus (GPa) = 35.13896 48.40574 41.77235
# Shear Modulus (GPa) = 18.47462 24.58589 21.53026
#
# Velocity S-wave (km/s) = 3.07588 3.54834 3.32052
# Velocity P-wave (km/s) = 5.53261 6.44800 6.00777
#
# Compressibility (1/GPa) = 0.02845844
#
# Stress axis : x y z
#
# Youngs Moduli (GPa) = 118.69907 31.65520 89.06665
#
# Poissons Ratio (x) = 0.15096 0.13405
# Poissons Ratio (y) = 0.56607 0.45585
# Poissons Ratio (z) = 0.17865 0.16201
#
# Static dielectric constant tensor:
#      x y z
#    x 1.736720 0.000000 0.000000 
#    y 0.000000 1.738740 0.000000 
#    z 0.000000 0.000000 1.647380 
# 
# From -- ./inp_files/31590.got.cif
#   From: 2010.05.17/outbox.cif.g08.bks.cpg/sg21_16_cif.got.tgz:31590.got - 2010.06.03 23:14:55.
