data_PCOD9322951
_publ_section_title
;
Structure prediction by ZEFSAII (Michael W. Deem and Ramdas Pophale) SiO2 
 PCOD9322951
Probable space group: C 2 2 2
;
_chemical_formula_sum "Si O2"
_cell_formula_units_Z 48
_cell_length_a 18.156614
_cell_length_b 9.320113
_cell_length_c 14.011144
_cell_angle_alpha 90.000000
_cell_angle_beta 90.000000
_cell_angle_gamma 90.000000
_cell_volume 2370.989525
_symmetry_space_group_name_H-M "C 2 2 2"
_symmetry_group_IT_number 21
_symmetry_cell_setting 'orthorhombic'
loop_
_space_group_symop_operation_xyz
x,y,z
-x,-y,z
x,-y,-z
-x,y,-z
1/2+x,1/2+y,z
1/2-x,1/2-y,z
1/2+x,1/2-y,-z
1/2-x,1/2+y,-z
loop_
_atom_site_type_symbol
_atom_site_label
_atom_site_fract_x
_atom_site_fract_y
_atom_site_fract_z
Si Si1 0.031726 0.840281 0.280658
Si Si2 0.219808 0.592573 0.904769
Si Si3 0.090577 0.570963 0.397467
Si Si4 0.810006 0.126327 0.213824
Si Si5 0.237733 0.101632 0.573597
Si Si6 0.563906 0.099512 0.797314
O O1 0.057113 0.728460 0.367267
O O2 0.102821 0.844795 0.208809
O O3 0.967947 0.756476 0.223571
O O4 0.000000 0.000000 0.306081
O O5 0.250000 0.750000 0.926892
O O6 0.280178 0.513300 0.838587
O O7 0.141162 0.597611 0.851503
O O8 0.211889 0.500000 0.000000
O O9 0.071149 0.500000 0.500000
O O10 0.178934 0.566501 0.399684
O O11 0.073967 0.471213 0.307172
O O12 0.750000 0.250000 0.187305
O O13 0.802845 0.111334 0.327729
O O14 0.250000 0.250000 0.519981
O O15 0.199102 0.000000 0.500000
O O16 0.500000 0.000000 0.844259
#
# Coordination Sequence:
#
# PCOD9322951 Si02
#       6
#     8   8   8   8   8   8
#     4  11  22  39  64  95 130 164 210 268 323 361
#     4  12  26  44  68  98 126 159 211 263 319 380
#     4  10  20  40  62  88 127 177 219 249 306 378
#     4  11  20  43  68  93 127 168 209 263 316 374
#     4  10  19  36  61  90 122 167 219 261 303 361
#     4  10  22  43  67  92 129 174 209 249 314 393
#
# _framework density 20.244712
#
# number of rings (size 3 to 8) (size 9 to 14) (size 15 to 20)
#    0.000    1.333    5.000    2.500    0.000    4.000 
#    6.000    3.333    0.000    3.500    0.000    0.000 
#    0.000    0.000    0.000    0.000    0.000    0.000 
#
# Total GULP energy -133637.781357 kJ/mol
# GULP energy per Si atom -5568.240890 kJ/mol
# Density = 2.019863 g / cm^3
# Si number density = 20.244712 Si / 1000 Ang^3
#
#
#
# Elastic Constant Matrix: (Units=GPa)
#
#
# Indices 1 2 3 4 5 6 
#
# 1 123.7175 45.7573 40.2258 0.0000 0.0000 0.0000
# 2 45.7573 150.1314 66.5507 0.0000 0.0000 0.0000
# 3 40.2258 66.5507 77.7861 0.0000 0.0000 0.0000
# 4 0.0000 0.0000 0.0000 27.7770 0.0000 0.0000
# 5 0.0000 0.0000 0.0000 0.0000 84.3349 0.0000
# 6 0.0000 0.0000 0.0000 0.0000 0.0000 30.6994
#
#
#
# Elastic Compliance Matrix: (Units=1/GPa)
#
#
# Indices 1 2 3 4 5 6 
#
# 1 0.009849 -0.001199 -0.004068 0.000000 0.000000 0.000000
# 2 -0.001199 0.010876 -0.008685 0.000000 0.000000 0.000000
# 3 -0.004068 -0.008685 0.022390 0.000000 0.000000 0.000000
# 4 0.000000 0.000000 0.000000 0.036001 0.000000 0.000000
# 5 0.000000 0.000000 0.000000 0.000000 0.011857 0.000000
# 6 0.000000 0.000000 0.000000 0.000000 0.000000 0.032574
#
#
# Mechanical properties :
#
#
# Convention : Reuss Voigt Hill
#
# Bulk Modulus (GPa) = 65.73832 72.96696 69.35264
# Shear Modulus (GPa) = 31.94442 41.83566 36.89004
#
# Velocity S-wave (km/s) = 3.97661 4.55081 4.27336
# Velocity P-wave (km/s) = 7.32304 7.98335 7.66031
#
# Compressibility (1/GPa) = 0.01521183
#
# Stress axis : x y z
#
# Youngs Moduli (GPa) = 101.53509 91.94344 44.66237
#
# Poissons Ratio (x) = 0.11020 0.18167
# Poissons Ratio (y) = 0.12170 0.38791
# Poissons Ratio (z) = 0.41301 0.79857
#
# Static dielectric constant tensor:
#      x y z
#    x 1.698550 0.000000 0.000000 
#    y 0.000000 1.819410 0.000000 
#    z 0.000000 0.000000 1.701520 
# 
# From -- ./inp_files/32795.got.cif
#   From: 2010.05.17/outbox.cif.g08.bks.cpg/sg21_17_cif.got.tgz:32795.got - 2010.06.03 23:14:55.
