data_PCOD9322793
_publ_section_title
;
Structure prediction by ZEFSAII (Michael W. Deem and Ramdas Pophale) SiO2 
 PCOD9322793
Probable space group: C 2 2 2
;
_chemical_formula_sum "Si O2"
_cell_formula_units_Z 64
_cell_length_a 17.818272
_cell_length_b 14.523490
_cell_length_c 12.832208
_cell_angle_alpha 90.000000
_cell_angle_beta 90.000000
_cell_angle_gamma 90.000000
_cell_volume 3320.763637
_symmetry_space_group_name_H-M "C 2 2 2"
_symmetry_group_IT_number 21
_symmetry_cell_setting 'orthorhombic'
loop_
_space_group_symop_operation_xyz
x,y,z
-x,-y,z
x,-y,-z
-x,y,-z
1/2+x,1/2+y,z
1/2-x,1/2-y,z
1/2+x,1/2-y,-z
1/2-x,1/2+y,-z
loop_
_atom_site_type_symbol
_atom_site_label
_atom_site_fract_x
_atom_site_fract_y
_atom_site_fract_z
Si Si1 0.084260 0.998717 0.339537
Si Si2 0.414772 0.703769 0.621309
Si Si3 0.210217 0.491016 0.121129
Si Si4 0.904810 0.794496 0.616344
Si Si5 0.117315 0.968869 0.107197
Si Si6 0.667057 0.790244 0.186353
Si Si7 0.675304 0.811886 0.802629
Si Si8 0.588125 0.271920 0.024078
O O1 0.115590 0.098490 0.368568
O O2 0.120864 0.901857 0.372433
O O3 0.079929 0.994096 0.214804
O O4 0.000000 0.000000 0.383618
O O5 0.505239 0.703511 0.638283
O O6 0.397298 0.734726 0.503777
O O7 0.378807 0.764688 0.710991
O O8 0.300726 0.485384 0.113675
O O9 0.174476 0.398930 0.166603
O O10 0.196924 0.580749 0.192584
O O11 0.185219 0.500000 0.000000
O O12 0.861511 0.729924 0.697939
O O13 0.117790 0.860192 0.088353
O O14 0.080422 0.000000 0.000000
O O15 0.750000 0.750000 0.196742
O O16 0.629517 0.742687 0.085300
O O17 0.750000 0.750000 0.825194
O O18 0.614306 0.805976 0.895828
O O19 0.500000 0.277297 0.000000
#
# Coordination Sequence:
#
# PCOD9322793 Si02
#       8
#     8   8   8   8   8   8   8   8
#     4  10  19  33  56  89 124 159 201 252 313 378
#     4  10  22  40  61  90 124 164 209 263 324 371
#     4  11  22  40  60  86 122 165 208 250 310 374
#     4  10  21  40  64  88 123 165 211 263 316 377
#     4  11  22  34  55  89 125 162 202 254 310 366
#     4  12  24  41  64  91 129 166 209 259 314 376
#     4  12  22  41  64  91 121 163 214 256 309 374
#     4  12  24  38  61  91 129 168 208 252 313 374
#
# _framework density 19.272676000000001
#
# number of rings (size 3 to 8) (size 9 to 14) (size 15 to 20)
#    0.000    1.000    3.750    4.500    3.500    2.000 
#    0.000    3.750    0.000    1.500    0.000    0.000 
#    0.000    0.000    0.000    0.000    0.000    0.000 
#
# Total GULP energy -178576.523744 kJ/mol
# GULP energy per Si atom -5580.516367 kJ/mol
# Density = 1.922881 g / cm^3
# Si number density = 19.272676 Si / 1000 Ang^3
#
#
#
# Elastic Constant Matrix: (Units=GPa)
#
#
# Indices 1 2 3 4 5 6 
#
# 1 72.2034 32.5337 53.9048 0.0000 0.0000 0.0000
# 2 32.5337 97.4198 48.7187 0.0000 0.0000 0.0000
# 3 53.9048 48.7187 153.6037 0.0000 0.0000 0.0000
# 4 0.0000 0.0000 0.0000 4.8567 0.0000 0.0000
# 5 0.0000 0.0000 0.0000 0.0000 12.5961 0.0000
# 6 0.0000 0.0000 0.0000 0.0000 0.0000 18.6265
#
#
#
# Elastic Compliance Matrix: (Units=1/GPa)
#
#
# Indices 1 2 3 4 5 6 
#
# 1 0.019849 -0.003738 -0.005780 0.000000 0.000000 0.000000
# 2 -0.003738 0.012904 -0.002781 0.000000 0.000000 0.000000
# 3 -0.005780 -0.002781 0.009421 0.000000 0.000000 0.000000
# 4 0.000000 0.000000 0.000000 0.205900 0.000000 0.000000
# 5 0.000000 0.000000 0.000000 0.000000 0.079390 0.000000
# 6 0.000000 0.000000 0.000000 0.000000 0.000000 0.053687
#
#
# Mechanical properties :
#
#
# Convention : Reuss Voigt Hill
#
# Bulk Modulus (GPa) = 56.89719 65.94904 61.42311
# Shear Modulus (GPa) = 12.14749 19.75385 15.95067
#
# Velocity S-wave (km/s) = 2.51329 3.20498 2.87998
# Velocity P-wave (km/s) = 6.16510 6.92742 6.55735
#
# Compressibility (1/GPa) = 0.01757556
#
# Stress axis : x y z
#
# Youngs Moduli (GPa) = 50.37929 77.49576 106.14860
#
# Poissons Ratio (x) = 0.28969 0.61356
# Poissons Ratio (y) = 0.18833 0.29519
# Poissons Ratio (z) = 0.29120 0.21551
#
# Static dielectric constant tensor:
#      x y z
#    x 1.676860 0.000000 0.000000 
#    y 0.000000 2.127840 0.000000 
#    z 0.000000 0.000000 1.680040 
# 
# From -- ./inp_files/26249.got.cif
#   From: 2010.05.17/outbox.cif.g08.bks.cpg/sg21_14_cif.got.tgz:26249.got - 2010.06.03 23:14:55.
