data_PCOD9322623
_publ_section_title
;
Structure prediction by ZEFSAII (Michael W. Deem and Ramdas Pophale) SiO2 
 PCOD9322623
Probable space group: C 2 2 2
;
_chemical_formula_sum "Si O2"
_cell_formula_units_Z 32
_cell_length_a 14.177972
_cell_length_b 5.595989
_cell_length_c 17.570422
_cell_angle_alpha 90.000000
_cell_angle_beta 90.000000
_cell_angle_gamma 90.000000
_cell_volume 1394.033334
_symmetry_space_group_name_H-M "C 2 2 2"
_symmetry_group_IT_number 21
_symmetry_cell_setting 'orthorhombic'
loop_
_space_group_symop_operation_xyz
x,y,z
-x,-y,z
x,-y,-z
-x,y,-z
1/2+x,1/2+y,z
1/2-x,1/2-y,z
1/2+x,1/2-y,-z
1/2-x,1/2+y,-z
loop_
_atom_site_type_symbol
_atom_site_label
_atom_site_fract_x
_atom_site_fract_y
_atom_site_fract_z
Si Si1 0.598883 0.378057 0.306173
Si Si2 0.891742 0.741628 0.529994
Si Si3 0.849501 0.391576 0.162669
Si Si4 0.188425 0.500000 0.000000
Si Si5 0.250000 0.750000 0.736481
O O1 0.500000 0.500000 0.322205
O O2 0.612477 0.212241 0.378908
O O3 0.590734 0.260208 0.222599
O O4 0.689682 0.551929 0.306709
O O5 0.845988 0.500000 0.500000
O O6 0.000000 0.739788 0.500000
O O7 0.857397 0.000000 0.500000
O O8 0.750000 0.250000 0.157320
O O9 0.826625 0.630598 0.208224
O O10 0.872553 0.449363 0.075766
O O11 0.250000 0.250000 0.012838
#
# Coordination Sequence:
#
# PCOD9322623 Si02
#       5
#     8   8   8   4   4
#     4  11  23  41  69 103 137 188 238 299 363 430
#     4  10  21  39  66  99 125 177 243 278 343 439
#     4   9  20  37  63 101 134 178 237 288 348 427
#     4  10  18  36  68 101 135 192 236 286 357 424
#     4  10  22  40  66  98 138 176 236 294 352 426
#
# _framework density 22.954974
#
# number of rings (size 3 to 8) (size 9 to 14) (size 15 to 20)
#    0.000    2.000    3.750    0.000    3.500    1.000 
#    0.000    0.000    8.250    4.500    0.000    0.000 
#    0.000    0.000    0.000    0.000    0.000    0.000 
#
# Total GULP energy -89215.607424 kJ/mol
# GULP energy per Si atom -5575.975464 kJ/mol
# Density = 2.290273 g / cm^3
# Si number density = 22.954974 Si / 1000 Ang^3
#
#
#
# Elastic Constant Matrix: (Units=GPa)
#
#
# Indices 1 2 3 4 5 6 
#
# 1 71.4457 16.5097 31.1221 0.0000 0.0000 0.0000
# 2 16.5097 127.4588 41.9530 0.0000 0.0000 0.0000
# 3 31.1221 41.9530 183.9677 0.0000 0.0000 0.0000
# 4 0.0000 0.0000 0.0000 25.0752 0.0000 0.0000
# 5 0.0000 0.0000 0.0000 0.0000 31.2739 0.0000
# 6 0.0000 0.0000 0.0000 0.0000 0.0000 -9.8484
#
#
#
# Elastic Compliance Matrix: (Units=1/GPa)
#
#
# Indices 1 2 3 4 5 6 
#
# 1 0.015284 -0.001220 -0.002307 0.000000 0.000000 0.000000
# 2 -0.001220 0.008580 -0.001750 0.000000 0.000000 0.000000
# 3 -0.002307 -0.001750 0.006225 0.000000 0.000000 0.000000
# 4 0.000000 0.000000 0.000000 0.039880 0.000000 0.000000
# 5 0.000000 0.000000 0.000000 0.000000 0.031976 0.000000
# 6 0.000000 0.000000 0.000000 0.000000 0.000000 -0.101539
#
#
# Mechanical properties :
#
#
# Convention : Reuss Voigt Hill
#
# Bulk Modulus (GPa) = 51.19471 62.44910 56.82190
# Shear Modulus (GPa) = 286.17694 28.85264 157.51479
#
# Velocity S-wave (km/s) = 11.17763 3.54916 8.29265
# Velocity P-wave (km/s) = 13.74542 6.63773 10.79342
#
# Compressibility (1/GPa) = 0.01953327
#
# Stress axis : x y z
#
# Youngs Moduli (GPa) = 65.42926 116.55300 160.63795
#
# Poissons Ratio (x) = 0.14222 0.37064
# Poissons Ratio (y) = 0.07984 0.28114
# Poissons Ratio (z) = 0.15096 0.20399
#
# Static dielectric constant tensor:
#      x y z
#    x 1.821490 0.000000 0.000000 
#    y 0.000000 1.943100 0.000000 
#    z 0.000000 0.000000 1.864180 
# 
# From -- ./inp_files/32602.got.cif
#   From: 2010.05.17/outbox.cif.g08.bks.cpg/sg21_17_cif.got.tgz:32602.got - 2010.06.03 23:14:55.
