data_PCOD9322610
_publ_section_title
;
Structure prediction by ZEFSAII (Michael W. Deem and Ramdas Pophale) SiO2 
 PCOD9322610
Probable space group: C 2 2 2
;
_chemical_formula_sum "Si O2"
_cell_formula_units_Z 40
_cell_length_a 18.665417
_cell_length_b 8.969682
_cell_length_c 11.236260
_cell_angle_alpha 90.000000
_cell_angle_beta 90.000000
_cell_angle_gamma 90.000000
_cell_volume 1881.206727
_symmetry_space_group_name_H-M "C 2 2 2"
_symmetry_group_IT_number 21
_symmetry_cell_setting 'orthorhombic'
loop_
_space_group_symop_operation_xyz
x,y,z
-x,-y,z
x,-y,-z
-x,y,-z
1/2+x,1/2+y,z
1/2-x,1/2-y,z
1/2+x,1/2-y,-z
1/2-x,1/2+y,-z
loop_
_atom_site_type_symbol
_atom_site_label
_atom_site_fract_x
_atom_site_fract_y
_atom_site_fract_z
Si Si1 0.418340 0.481773 0.175665
Si Si2 0.165506 0.289106 0.801757
Si Si3 0.153396 0.119998 0.395422
Si Si4 0.683534 0.925088 0.318281
Si Si5 0.665887 0.779884 0.063341
O O1 0.500000 0.500000 0.140765
O O2 0.379573 0.638321 0.200558
O O3 0.410932 0.401873 0.303580
O O4 0.376843 0.373800 0.084363
O O5 0.250000 0.250000 0.798513
O O6 0.155569 0.406367 0.694374
O O7 0.147089 0.349134 0.935217
O O8 0.229846 0.078471 0.331661
O O9 0.159029 0.299586 0.413318
O O10 0.147042 0.000000 0.500000
O O11 0.660767 0.863999 0.188516
O O12 0.750000 0.750000 0.053127
#
# Coordination Sequence:
#
# PCOD9322610 Si02
#       5
#     8   8   8   8   8
#     4  11  23  39  59  92 135 171 216 267 322 384
#     4  11  20  32  62  94 128 165 213 254 315 386
#     4  10  21  39  60  85 123 167 212 277 342 381
#     4  10  19  37  60  91 123 160 217 274 316 382
#     4  10  18  36  58  87 128 174 205 252 314 390
#
# _framework density 21.262948000000002
#
# number of rings (size 3 to 8) (size 9 to 14) (size 15 to 20)
#    0.000    1.600    6.000    1.200    0.000    8.400 
#    0.000    4.000    0.000    4.800    0.000    5.600 
#    0.000    0.000    0.000    0.000    0.000    0.000 
#
# Total GULP energy -111376.960453 kJ/mol
# GULP energy per Si atom -5568.848023 kJ/mol
# Density = 2.121455 g / cm^3
# Si number density = 21.262948 Si / 1000 Ang^3
#
#
#
# Elastic Constant Matrix: (Units=GPa)
#
#
# Indices 1 2 3 4 5 6 
#
# 1 100.9745 45.5952 8.0213 0.0000 0.0000 0.0000
# 2 45.5952 119.5228 50.9839 0.0000 0.0000 0.0000
# 3 8.0213 50.9839 94.8381 0.0000 0.0000 0.0000
# 4 0.0000 0.0000 0.0000 26.8024 0.0000 0.0000
# 5 0.0000 0.0000 0.0000 0.0000 -11.3060 0.0000
# 6 0.0000 0.0000 0.0000 0.0000 0.0000 22.0053
#
#
#
# Elastic Compliance Matrix: (Units=1/GPa)
#
#
# Indices 1 2 3 4 5 6 
#
# 1 0.012226 -0.005479 0.001912 0.000000 0.000000 0.000000
# 2 -0.005479 0.013312 -0.006693 0.000000 0.000000 0.000000
# 3 0.001912 -0.006693 0.013981 0.000000 0.000000 0.000000
# 4 0.000000 0.000000 0.000000 0.037310 0.000000 0.000000
# 5 0.000000 0.000000 0.000000 0.000000 -0.088449 0.000000
# 6 0.000000 0.000000 0.000000 0.000000 0.000000 0.045444
#
#
# Mechanical properties :
#
#
# Convention : Reuss Voigt Hill
#
# Bulk Modulus (GPa) = 52.63968 58.28179 55.46073
# Shear Modulus (GPa) = 82.40412 21.54935 51.97673
#
# Velocity S-wave (km/s) = 6.23209 3.18696 4.94953
# Velocity P-wave (km/s) = 8.75189 6.40404 7.66835
#
# Compressibility (1/GPa) = 0.01899708
#
# Stress axis : x y z
#
# Youngs Moduli (GPa) = 81.79420 75.12184 71.52783
#
# Poissons Ratio (x) = 0.41161 -0.13673
# Poissons Ratio (y) = 0.44817 0.47872
# Poissons Ratio (z) = -0.15635 0.50277
#
# Static dielectric constant tensor:
#      x y z
#    x 1.723860 0.000000 0.000000 
#    y 0.000000 1.968170 0.000000 
#    z 0.000000 0.000000 1.836250 
# 
# From -- ./inp_files/22245.got.cif
#   From: 2010.05.17/outbox.cif.g08.bks.cpg/sg21_12_cif.got.tgz:22245.got - 2010.06.03 23:14:55.
