data_PCOD9322280
_publ_section_title
;
Structure prediction by ZEFSAII (Michael W. Deem and Ramdas Pophale) SiO2 
 PCOD9322280
Probable space group: C 2 2 2
;
_chemical_formula_sum "Si O2"
_cell_formula_units_Z 40
_cell_length_a 24.506054
_cell_length_b 12.541787
_cell_length_c 7.071156
_cell_angle_alpha 90.000000
_cell_angle_beta 90.000000
_cell_angle_gamma 90.000000
_cell_volume 2173.317742
_symmetry_space_group_name_H-M "C 2 2 2"
_symmetry_group_IT_number 21
_symmetry_cell_setting 'orthorhombic'
loop_
_space_group_symop_operation_xyz
x,y,z
-x,-y,z
x,-y,-z
-x,y,-z
1/2+x,1/2+y,z
1/2-x,1/2-y,z
1/2+x,1/2-y,-z
1/2-x,1/2+y,-z
loop_
_atom_site_type_symbol
_atom_site_label
_atom_site_fract_x
_atom_site_fract_y
_atom_site_fract_z
Si Si1 0.343673 0.218442 0.689991
Si Si2 0.734343 0.595155 0.737213
Si Si3 0.240669 0.370283 0.184466
Si Si4 0.061512 0.374654 0.443926
Si Si5 0.618968 0.882636 0.075072
O O1 0.316494 0.334342 0.673076
O O2 0.291901 0.139321 0.658043
O O3 0.392965 0.192466 0.552841
O O4 0.367119 0.194492 0.900626
O O5 0.730379 0.531457 0.287185
O O6 0.740981 0.620334 0.963795
O O7 0.250000 0.250000 0.250367
O O8 0.176221 0.392359 0.186461
O O9 0.069858 0.500000 0.500000
O O10 0.072366 0.354746 0.222847
O O11 0.000000 0.347684 0.500000
O O12 0.606178 0.000000 0.000000
#
# Coordination Sequence:
#
# PCOD9322280 Si02
#       5
#     8   8   8   8   8
#     4  10  18  35  52  76 114 146 180 225 285 345
#     4   9  16  29  52  80 117 148 173 225 289 340
#     4  10  15  28  54  86 113 143 182 225 276 350
#     4  11  23  35  50  78 110 149 198 240 278 343
#     4  11  18  33  55  74 110 151 177 229 290 328
#
# _framework density 18.405038999999999
#
# number of rings (size 3 to 8) (size 9 to 14) (size 15 to 20)
#    0.000    1.800   10.000    0.000    0.000    0.800 
#    3.600    0.000    0.000    0.000    0.000    2.800 
#    0.000    0.000    0.000    0.000    0.000    0.000 
#
# Total GULP energy -111685.554512 kJ/mol
# GULP energy per Si atom -5584.277726 kJ/mol
# Density = 1.836315 g / cm^3
# Si number density = 18.405039 Si / 1000 Ang^3
#
#
#
# Elastic Constant Matrix: (Units=GPa)
#
#
# Indices 1 2 3 4 5 6 
#
# 1 124.9620 53.3653 54.3837 0.0000 0.0000 0.0000
# 2 53.3653 141.2912 33.7464 0.0000 0.0000 0.0000
# 3 54.3837 33.7464 76.5205 0.0000 0.0000 0.0000
# 4 0.0000 0.0000 0.0000 9.8740 0.0000 0.0000
# 5 0.0000 0.0000 0.0000 0.0000 19.5708 0.0000
# 6 0.0000 0.0000 0.0000 0.0000 0.0000 20.1858
#
#
#
# Elastic Compliance Matrix: (Units=1/GPa)
#
#
# Indices 1 2 3 4 5 6 
#
# 1 0.012581 -0.002924 -0.007652 0.000000 0.000000 0.000000
# 2 -0.002924 0.008591 -0.001710 0.000000 0.000000 0.000000
# 3 -0.007652 -0.001710 0.019261 0.000000 0.000000 0.000000
# 4 0.000000 0.000000 0.000000 0.101276 0.000000 0.000000
# 5 0.000000 0.000000 0.000000 0.000000 0.051097 0.000000
# 6 0.000000 0.000000 0.000000 0.000000 0.000000 0.049540
#
#
# Mechanical properties :
#
#
# Convention : Reuss Voigt Hill
#
# Bulk Modulus (GPa) = 63.05238 69.52936 66.29087
# Shear Modulus (GPa) = 18.36847 23.34466 20.85657
#
# Velocity S-wave (km/s) = 3.16256 3.56530 3.36995
# Velocity P-wave (km/s) = 6.90422 7.40323 7.15808
#
# Compressibility (1/GPa) = 0.01585983
#
# Stress axis : x y z
#
# Youngs Moduli (GPa) = 79.48187 116.40684 51.91837
#
# Poissons Ratio (x) = 0.34041 0.39728
# Poissons Ratio (y) = 0.23243 0.08879
# Poissons Ratio (z) = 0.60820 0.19908
#
# Static dielectric constant tensor:
#      x y z
#    x 1.588620 0.000000 0.000000 
#    y 0.000000 1.648620 0.000000 
#    z 0.000000 0.000000 1.737770 
# 
# From -- ./inp_files/4822.got.cif
#   From: 2010.05.17/outbox.cif.g08.bks.cpg/sg21_3_cif.got.tgz:4822.got - 2010.06.03 23:14:55.
