data_PCOD9322988
_publ_section_title
;
Structure prediction by ZEFSAII (Michael W. Deem and Ramdas Pophale) SiO2 
 PCOD9322988
Probable space group: C 2 2 2
;
_chemical_formula_sum "Si O2"
_cell_formula_units_Z 48
_cell_length_a 26.307303
_cell_length_b 5.887373
_cell_length_c 14.262604
_cell_angle_alpha 90.000000
_cell_angle_beta 90.000000
_cell_angle_gamma 90.000000
_cell_volume 2209.005021
_symmetry_space_group_name_H-M "C 2 2 2"
_symmetry_group_IT_number 21
_symmetry_cell_setting 'orthorhombic'
loop_
_space_group_symop_operation_xyz
x,y,z
-x,-y,z
x,-y,-z
-x,y,-z
1/2+x,1/2+y,z
1/2-x,1/2-y,z
1/2+x,1/2-y,-z
1/2-x,1/2+y,-z
loop_
_atom_site_type_symbol
_atom_site_label
_atom_site_fract_x
_atom_site_fract_y
_atom_site_fract_z
Si Si1 0.805070 0.845936 0.905540
Si Si2 0.126483 0.753966 0.249782
Si Si3 0.946772 0.398371 0.852750
Si Si4 0.750000 0.750000 0.448328
Si Si5 0.446585 0.397658 0.330778
Si Si6 0.623369 0.000000 0.000000
Si Si7 0.645265 0.893636 0.397191
O O1 0.750000 0.750000 0.880391
O O2 0.837531 0.917163 0.813789
O O3 0.838633 0.631684 0.934099
O O4 0.801859 0.000000 0.000000
O O5 0.085401 0.605855 0.191604
O O6 0.155598 0.574393 0.314330
O O7 0.092231 0.897996 0.319172
O O8 0.955567 0.211984 0.772695
O O9 0.912611 0.329842 0.941628
O O10 0.000000 0.500000 0.883894
O O11 0.751983 0.500000 0.500000
O O12 0.695557 0.736823 0.395794
O O13 0.500000 0.500000 0.366896
O O14 0.410896 0.214126 0.382301
O O15 0.643233 0.000000 0.500000
#
# Coordination Sequence:
#
# PCOD9322988 Si02
#       7
#     8   8   8   4   8   4   8
#     4  11  22  40  62  92 134 173 221 281 350 428
#     4  10  23  40  64  95 129 177 228 280 348 425
#     4  10  19  37  60  89 124 169 221 276 336 407
#     4  10  24  46  78 104 144 190 238 316 376 430
#     4  11  22  40  68  93 137 180 223 286 355 430
#     4  10  21  36  60  86 122 174 219 278 334 404
#     4  10  25  45  71 100 137 180 237 299 361 437
#
# _framework density 21.729239
#
# number of rings (size 3 to 8) (size 9 to 14) (size 15 to 20)
#    0.000    1.667    2.500    1.250    4.667    1.333 
#    1.500    2.500    0.000    0.000    0.000    0.000 
#    0.000    0.000    0.000    0.000    0.000    0.000 
#
# Total GULP energy -133604.452044 kJ/mol
# GULP energy per Si atom -5566.852168 kJ/mol
# Density = 2.167978 g / cm^3
# Si number density = 21.729239 Si / 1000 Ang^3
#
#
#
# Elastic Constant Matrix: (Units=GPa)
#
#
# Indices 1 2 3 4 5 6 
#
# 1 152.7139 22.6117 47.0039 0.0000 0.0000 0.0000
# 2 22.6117 44.6162 -0.0209 0.0000 0.0000 0.0000
# 3 47.0039 -0.0209 50.1810 0.0000 0.0000 0.0000
# 4 0.0000 0.0000 0.0000 -32.0799 0.0000 0.0000
# 5 0.0000 0.0000 0.0000 0.0000 -98.2266 0.0000
# 6 0.0000 0.0000 0.0000 0.0000 0.0000 23.6322
#
#
#
# Elastic Compliance Matrix: (Units=1/GPa)
#
#
# Indices 1 2 3 4 5 6 
#
# 1 0.010287 -0.005218 -0.009638 0.000000 0.000000 0.000000
# 2 -0.005218 0.025060 0.004898 0.000000 0.000000 0.000000
# 3 -0.009638 0.004898 0.028958 0.000000 0.000000 0.000000
# 4 0.000000 0.000000 0.000000 -0.031172 0.000000 0.000000
# 5 0.000000 0.000000 0.000000 0.000000 -0.010181 0.000000
# 6 0.000000 0.000000 0.000000 0.000000 0.000000 0.042315
#
#
# Mechanical properties :
#
#
# Convention : Reuss Voigt Hill
#
# Bulk Modulus (GPa) = 22.52798 42.96673 32.74736
# Shear Modulus (GPa) = 50.00960 -9.47376 20.26792
#
# Velocity S-wave (km/s) = 4.80259 -2.09031 3.05741
# Velocity P-wave (km/s) = 6.41430 3.74043 5.25043
#
# Compressibility (1/GPa) = 0.04438925
#
# Stress axis : x y z
#
# Youngs Moduli (GPa) = 97.20631 39.90375 34.53286
#
# Poissons Ratio (x) = 0.20823 0.33284
# Poissons Ratio (y) = 0.50724 -0.16915
# Poissons Ratio (z) = 0.93690 -0.19546
#
# Static dielectric constant tensor:
#      x y z
#    x 1.768930 0.000000 0.000000 
#    y 0.000000 1.849800 0.000000 
#    z 0.000000 0.000000 1.936150 
# 
# From -- ./inp_files/33825.got.cif
#   From: 2010.05.17/outbox.cif.g08.bks.cpg/sg21_17_cif.got.tgz:33825.got - 2010.06.03 23:14:55.
