data_PCOD9322507
_publ_section_title
;
Structure prediction by ZEFSAII (Michael W. Deem and Ramdas Pophale) SiO2 
 PCOD9322507
Probable space group: C 2 2 2
;
_chemical_formula_sum "Si O2"
_cell_formula_units_Z 48
_cell_length_a 8.509123
_cell_length_b 33.181674
_cell_length_c 7.106011
_cell_angle_alpha 90.000000
_cell_angle_beta 90.000000
_cell_angle_gamma 90.000000
_cell_volume 2006.360500
_symmetry_space_group_name_H-M "C 2 2 2"
_symmetry_group_IT_number 21
_symmetry_cell_setting 'orthorhombic'
loop_
_space_group_symop_operation_xyz
x,y,z
-x,-y,z
x,-y,-z
-x,y,-z
1/2+x,1/2+y,z
1/2-x,1/2-y,z
1/2+x,1/2-y,-z
1/2-x,1/2+y,-z
loop_
_atom_site_type_symbol
_atom_site_label
_atom_site_fract_x
_atom_site_fract_y
_atom_site_fract_z
Si Si1 0.750000 0.750000 0.738016
Si Si2 0.179778 0.995740 0.271736
Si Si3 0.150310 0.423667 0.233472
Si Si4 0.802352 0.410860 0.321127
Si Si5 0.000000 0.292978 0.000000
Si Si6 0.283017 0.341217 0.137862
Si Si7 0.609473 0.670675 0.716106
O O1 0.892113 0.734377 0.868072
O O2 0.684761 0.710994 0.629780
O O3 0.221707 0.949790 0.232860
O O4 0.186527 0.000000 0.500000
O O5 0.294394 0.030633 0.191709
O O6 0.000000 0.000000 0.214437
O O7 0.171560 0.420008 0.458973
O O8 0.256379 0.389210 0.140140
O O9 0.968947 0.410432 0.213638
O O10 0.699156 0.370690 0.327965
O O11 0.887375 0.319644 0.862606
O O12 0.420418 0.332413 0.289362
O O13 0.347715 0.326458 0.938042
#
# Coordination Sequence:
#
# PCOD9322507 Si02
#       7
#     4   8   8   8   4   8   8
#     4  10  18  32  54  76 102 134 172 214 258 310
#     4   9  17  30  50  76 104 137 175 211 252 308
#     4  10  19  33  55  78 106 140 173 212 259 310
#     4  10  20  34  53  79 107 137 175 216 259 309
#     4  10  18  32  54  80 105 132 175 218 258 314
#     4  10  20  34  54  79 105 136 172 214 263 310
#     4  10  21  35  54  78 105 135 174 218 261 311
#
# _framework density 23.923916999999999
#
# number of rings (size 3 to 8) (size 9 to 14) (size 15 to 20)
#    0.000    2.167    0.000    5.500    0.000    4.000 
#    0.000    0.833    0.000   17.000    0.000    0.000 
#    0.000    0.000    0.000    0.000    0.000    0.000 
#
# Total GULP energy -134014.675613 kJ/mol
# GULP energy per Si atom -5583.944817 kJ/mol
# Density = 2.386947 g / cm^3
# Si number density = 23.923917 Si / 1000 Ang^3
#
#
#
# Elastic Constant Matrix: (Units=GPa)
#
#
# Indices 1 2 3 4 5 6 
#
# 1 160.9907 102.7506 17.5897 0.0000 0.0000 0.0000
# 2 102.7506 226.2673 27.1861 0.0000 0.0000 0.0000
# 3 17.5897 27.1861 44.3825 0.0000 0.0000 0.0000
# 4 0.0000 0.0000 0.0000 25.3210 0.0000 0.0000
# 5 0.0000 0.0000 0.0000 0.0000 16.8033 0.0000
# 6 0.0000 0.0000 0.0000 0.0000 0.0000 48.8316
#
#
#
# Elastic Compliance Matrix: (Units=1/GPa)
#
#
# Indices 1 2 3 4 5 6 
#
# 1 0.008798 -0.003860 -0.001122 0.000000 0.000000 0.000000
# 2 -0.003860 0.006465 -0.002430 0.000000 0.000000 0.000000
# 3 -0.001122 -0.002430 0.024465 0.000000 0.000000 0.000000
# 4 0.000000 0.000000 0.000000 0.039493 0.000000 0.000000
# 5 0.000000 0.000000 0.000000 0.000000 0.059512 0.000000
# 6 0.000000 0.000000 0.000000 0.000000 0.000000 0.020479
#
#
# Mechanical properties :
#
#
# Convention : Reuss Voigt Hill
#
# Bulk Modulus (GPa) = 40.15704 80.74370 60.45037
# Shear Modulus (GPa) = 27.42188 37.13215 32.27701
#
# Velocity S-wave (km/s) = 3.38925 3.94394 3.67707
# Velocity P-wave (km/s) = 5.66902 7.38668 6.58410
#
# Compressibility (1/GPa) = 0.02490223
#
# Stress axis : x y z
#
# Youngs Moduli (GPa) = 113.66158 154.68908 40.87552
#
# Poissons Ratio (x) = 0.59717 0.04587
# Poissons Ratio (y) = 0.43879 0.09932
# Poissons Ratio (z) = 0.12755 0.37587
#
# Static dielectric constant tensor:
#      x y z
#    x 2.002910 0.000000 0.000000 
#    y 0.000000 1.900790 0.000000 
#    z 0.000000 0.000000 2.005870 
# 
# From -- ./inp_files/11596.got.cif
#   From: 2010.05.17/outbox.cif.g08.bks.cpg/sg21_6_cif.got.tgz:11596.got - 2010.06.03 23:14:55.
