data_PCOD9322396
_publ_section_title
;
Structure prediction by ZEFSAII (Michael W. Deem and Ramdas Pophale) SiO2 
 PCOD9322396
Probable space group: C 2 2 2
;
_chemical_formula_sum "Si O2"
_cell_formula_units_Z 46
_cell_length_a 14.975546
_cell_length_b 14.975936
_cell_length_c 12.924715
_cell_angle_alpha 90.000000
_cell_angle_beta 90.000000
_cell_angle_gamma 90.000000
_cell_volume 2898.662261
_symmetry_space_group_name_H-M "C 2 2 2"
_symmetry_group_IT_number 21
_symmetry_cell_setting 'orthorhombic'
loop_
_space_group_symop_operation_xyz
x,y,z
-x,-y,z
x,-y,-z
-x,y,-z
1/2+x,1/2+y,z
1/2-x,1/2-y,z
1/2+x,1/2-y,-z
1/2-x,1/2+y,-z
loop_
_atom_site_type_symbol
_atom_site_label
_atom_site_fract_x
_atom_site_fract_y
_atom_site_fract_z
Si Si1 0.750000 0.250000 0.479827
Si Si2 0.542383 0.804491 0.225046
Si Si3 0.000000 0.500000 0.500000
Si Si4 0.621026 0.878979 0.648501
Si Si5 0.648335 0.000000 0.000000
Si Si6 0.678224 0.321772 0.684082
Si Si7 0.695516 0.042384 0.774953
Si Si8 0.500000 0.148331 0.000000
O O1 0.687107 0.187104 0.411782
O O2 0.690954 0.309042 0.560854
O O3 0.450425 0.827350 0.281267
O O4 0.585748 0.716395 0.274738
O O5 0.611404 0.888598 0.241493
O O6 0.526670 0.798202 0.102285
O O7 0.063133 0.436869 0.567881
O O8 0.672660 0.950430 0.718728
O O9 0.701804 0.973331 0.102286
O O10 0.582206 0.917796 0.972855
O O11 0.750000 0.250000 0.728946
O O12 0.716388 0.414247 0.725263
#
# Coordination Sequence:
#
# PCOD9322396 Si02
#       8
#     4   8   2   8   4   8   8   4
#     4  10  22  34  42  72 118 140 166 228 264 298
#     4  10  17  32  52  78 106 136 172 211 268 313
#     4  12  20  28  56  78  88 132 184 212 252 314
#     4  12  20  32  50  79 101 133 175 224 258 302
#     4   9  16  26  48  78 106 133 162 216 265 308
#     4   8  18  34  45  71 110 142 166 209 269 309
#     4  10  17  32  52  78 106 136 172 211 268 313
#     4   9  16  26  48  78 106 133 162 216 265 308
#
# _framework density 15.869389999999999
#
# number of rings (size 3 to 8) (size 9 to 14) (size 15 to 20)
#    0.522    1.565    3.478    2.087    0.000    0.000 
#    0.000    1.739    0.000    1.043    0.000    2.435 
#    0.000    0.000    0.000    0.000    0.000    0.000 
#
# Total GULP energy -128067.271558 kJ/mol
# GULP energy per Si atom -5568.142242 kJ/mol
# Density = 1.583327 g / cm^3
# Si number density = 15.869390 Si / 1000 Ang^3
#
#
#
# Elastic Constant Matrix: (Units=GPa)
#
#
# Indices 1 2 3 4 5 6 
#
# 1 67.4063 60.9061 55.6390 0.0000 0.0000 0.0000
# 2 60.9061 67.4236 55.6473 0.0000 0.0000 0.0000
# 3 55.6390 55.6473 112.8910 0.0000 0.0000 0.0000
# 4 0.0000 0.0000 0.0000 19.6468 0.0000 0.0000
# 5 0.0000 0.0000 0.0000 0.0000 19.6448 0.0000
# 6 0.0000 0.0000 0.0000 0.0000 0.0000 38.2291
#
#
#
# Elastic Compliance Matrix: (Units=1/GPa)
#
#
# Indices 1 2 3 4 5 6 
#
# 1 0.083633 -0.070013 -0.006708 0.000000 0.000000 0.000000
# 2 -0.070013 0.083614 -0.006710 0.000000 0.000000 0.000000
# 3 -0.006708 -0.006710 0.015472 0.000000 0.000000 0.000000
# 4 0.000000 0.000000 0.000000 0.050899 0.000000 0.000000
# 5 0.000000 0.000000 0.000000 0.000000 0.050904 0.000000
# 6 0.000000 0.000000 0.000000 0.000000 0.000000 0.026158
#
#
# Mechanical properties :
#
#
# Convention : Reuss Voigt Hill
#
# Bulk Modulus (GPa) = 63.05742 65.78952 64.42347
# Shear Modulus (GPa) = 10.35568 20.53939 15.44753
#
# Velocity S-wave (km/s) = 2.55729 3.60151 3.12335
# Velocity P-wave (km/s) = 6.96715 7.67081 7.32743
#
# Compressibility (1/GPa) = 0.01585856
#
# Stress axis : x y z
#
# Youngs Moduli (GPa) = 11.95695 11.95969 64.63457
#
# Poissons Ratio (x) = 0.83733 0.43357
# Poissons Ratio (y) = 0.83714 0.43368
# Poissons Ratio (z) = 0.08021 0.08025
#
# Static dielectric constant tensor:
#      x y z
#    x 1.533690 0.000000 0.000000 
#    y 0.000000 1.533690 0.000000 
#    z 0.000000 0.000000 1.537980 
# 
# From -- ./inp_files/26147.got.cif
#   From: 2010.05.17/outbox.cif.g08.bks.cpg/sg21_14_cif.got.tgz:26147.got - 2010.06.03 23:14:55.
