data_PCOD9322861
_publ_section_title
;
Structure prediction by ZEFSAII (Michael W. Deem and Ramdas Pophale) SiO2 
 PCOD9322861
Probable space group: C 2 2 2
;
_chemical_formula_sum "Si O2"
_cell_formula_units_Z 40
_cell_length_a 5.461762
_cell_length_b 18.983231
_cell_length_c 18.098426
_cell_angle_alpha 90.000000
_cell_angle_beta 90.000000
_cell_angle_gamma 90.000000
_cell_volume 1876.479009
_symmetry_space_group_name_H-M "C 2 2 2"
_symmetry_group_IT_number 21
_symmetry_cell_setting 'orthorhombic'
loop_
_space_group_symop_operation_xyz
x,y,z
-x,-y,z
x,-y,-z
-x,y,-z
1/2+x,1/2+y,z
1/2-x,1/2-y,z
1/2+x,1/2-y,-z
1/2-x,1/2+y,-z
loop_
_atom_site_type_symbol
_atom_site_label
_atom_site_fract_x
_atom_site_fract_y
_atom_site_fract_z
Si Si1 0.126233 0.322339 0.430363
Si Si2 0.626035 0.640552 0.284153
Si Si3 0.250000 0.250000 0.173504
Si Si4 0.250000 0.750000 0.078377
Si Si5 0.250000 0.250000 0.678150
Si Si6 0.000000 0.625335 0.000000
Si Si7 0.500000 0.500000 0.797751
Si Si8 0.000000 0.500000 0.887260
O O1 0.250000 0.250000 0.459716
O O2 0.302388 0.360412 0.371224
O O3 0.000000 0.359838 0.500000
O O4 0.923535 0.293834 0.375167
O O5 0.802548 0.683053 0.227918
O O6 0.395607 0.692101 0.277715
O O7 0.569922 0.565347 0.253201
O O8 0.495688 0.258699 0.124352
O O9 0.205363 0.679512 0.029730
O O10 0.936981 0.570031 0.064998
O O11 0.748389 0.515901 0.843434
#
# Coordination Sequence:
#
# PCOD9322861 Si02
#       8
#     8   8   4   4   4   4   4   4
#     4  10  19  34  63 103 134 181 230 287 346 411
#     4  11  24  39  67 101 141 183 230 295 339 415
#     4  12  23  39  66 104 138 176 224 274 352 393
#     4  12  26  40  70 103 137 172 218 292 336 404
#     4  10  19  37  64  95 135 180 224 292 336 403
#     4  11  26  50  72 103 142 182 234 283 352 410
#     4  12  28  47  70 105 140 186 236 286 356 406
#     4  11  28  50  74  96 137 196 234 276 341 446
#
# _framework density 21.316517000000001
#
# number of rings (size 3 to 8) (size 9 to 14) (size 15 to 20)
#    0.000    1.000    4.000    3.600    2.800    4.800 
#    0.000    0.000    0.000    3.600    0.000    0.000 
#    0.000    0.000    0.000    0.000    0.000    0.000 
#
# Total GULP energy -111563.977549 kJ/mol
# GULP energy per Si atom -5578.198877 kJ/mol
# Density = 2.126800 g / cm^3
# Si number density = 21.316517 Si / 1000 Ang^3
#
#
#
# Elastic Constant Matrix: (Units=GPa)
#
#
# Indices 1 2 3 4 5 6 
#
# 1 104.9912 21.8832 52.0644 0.0000 0.0000 0.0000
# 2 21.8832 142.8477 70.0541 0.0000 0.0000 0.0000
# 3 52.0644 70.0541 125.0800 0.0000 0.0000 0.0000
# 4 0.0000 0.0000 0.0000 20.0089 0.0000 0.0000
# 5 0.0000 0.0000 0.0000 0.0000 20.6473 0.0000
# 6 0.0000 0.0000 0.0000 0.0000 0.0000 27.0038
#
#
#
# Elastic Compliance Matrix: (Units=1/GPa)
#
#
# Indices 1 2 3 4 5 6 
#
# 1 0.012076 0.000848 -0.005502 0.000000 0.000000 0.000000
# 2 0.000848 0.009711 -0.005792 0.000000 0.000000 0.000000
# 3 -0.005502 -0.005792 0.013529 0.000000 0.000000 0.000000
# 4 0.000000 0.000000 0.000000 0.049978 0.000000 0.000000
# 5 0.000000 0.000000 0.000000 0.000000 0.048433 0.000000
# 6 0.000000 0.000000 0.000000 0.000000 0.000000 0.037032
#
#
# Mechanical properties :
#
#
# Convention : Reuss Voigt Hill
#
# Bulk Modulus (GPa) = 69.32411 73.43580 71.37995
# Shear Modulus (GPa) = 25.45085 28.79314 27.12200
#
# Velocity S-wave (km/s) = 3.45911 3.67923 3.57087
# Velocity P-wave (km/s) = 6.96748 7.25079 7.11055
#
# Compressibility (1/GPa) = 0.01442500
#
# Stress axis : x y z
#
# Youngs Moduli (GPa) = 82.80839 102.97672 73.91629
#
# Poissons Ratio (x) = -0.08734 0.40666
# Poissons Ratio (y) = -0.07023 0.42811
# Poissons Ratio (z) = 0.45558 0.59643
#
# Static dielectric constant tensor:
#      x y z
#    x 1.890670 0.000000 0.000000 
#    y 0.000000 1.730990 0.000000 
#    z 0.000000 0.000000 1.869460 
# 
# From -- ./inp_files/34757.got.cif
#   From: 2010.05.17/outbox.cif.g08.bks.cpg/sg21_18_cif.got.tgz:34757.got - 2010.06.03 23:14:55.
