data_PCOD9322919
_publ_section_title
;
Structure prediction by ZEFSAII (Michael W. Deem and Ramdas Pophale) SiO2 
 PCOD9322919
Probable space group: C 2 2 2
;
_chemical_formula_sum "Si O2"
_cell_formula_units_Z 38
_cell_length_a 8.921154
_cell_length_b 17.377837
_cell_length_c 11.537606
_cell_angle_alpha 90.000000
_cell_angle_beta 90.000000
_cell_angle_gamma 90.000000
_cell_volume 1788.679212
_symmetry_space_group_name_H-M "C 2 2 2"
_symmetry_group_IT_number 21
_symmetry_cell_setting 'orthorhombic'
loop_
_space_group_symop_operation_xyz
x,y,z
-x,-y,z
x,-y,-z
-x,y,-z
1/2+x,1/2+y,z
1/2-x,1/2-y,z
1/2+x,1/2-y,-z
1/2-x,1/2+y,-z
loop_
_atom_site_type_symbol
_atom_site_label
_atom_site_fract_x
_atom_site_fract_y
_atom_site_fract_z
Si Si1 0.124587 0.813760 0.737579
Si Si2 0.500000 0.756382 0.500000
Si Si3 0.760594 0.544562 0.339858
Si Si4 0.087530 0.382792 0.661996
Si Si5 0.913885 0.722999 0.885766
Si Si6 0.500000 0.500000 0.500000
O O1 0.250000 0.750000 0.763217
O O2 0.071625 0.791602 0.605845
O O3 0.197333 0.897262 0.756271
O O4 0.991025 0.796274 0.824192
O O5 0.613400 0.815161 0.567980
O O6 0.798572 0.454180 0.330817
O O7 0.618654 0.547705 0.425242
O O8 0.922659 0.582048 0.368597
O O9 0.083990 0.341897 0.786355
O O10 0.750000 0.750000 0.918375
O O11 0.000000 0.697997 0.000000
#
# Coordination Sequence:
#
# PCOD9322919 Si02
#       6
#     8   4   8   8   8   2
#     4  11  22  41  66  96 137 178 226 281 330 418
#     4  10  19  35  66 100 138 184 226 266 334 402
#     4  11  23  42  62  99 138 187 222 280 340 401
#     4  10  23  44  68  94 144 183 225 277 350 427
#     4  11  25  45  75  99 129 176 232 290 353 410
#     4  12  26  34  68  94 150 182 226 272 330 404
#
# _framework density 21.244726
#
# number of rings (size 3 to 8) (size 9 to 14) (size 15 to 20)
#    0.000    1.263    4.211    2.526    2.947    5.053 
#    0.000    2.105    0.000    1.263    0.000    0.000 
#    0.000    0.000    0.000    0.000    0.000    0.000 
#
# Total GULP energy -105916.791982 kJ/mol
# GULP energy per Si atom -5574.567999 kJ/mol
# Density = 2.119637 g / cm^3
# Si number density = 21.244726 Si / 1000 Ang^3
#
#
#
# Elastic Constant Matrix: (Units=GPa)
#
#
# Indices 1 2 3 4 5 6 
#
# 1 106.6886 34.8381 26.9055 0.0000 0.0000 0.0000
# 2 34.8381 133.8904 32.9629 0.0000 0.0000 0.0000
# 3 26.9055 32.9629 105.6714 0.0000 0.0000 0.0000
# 4 0.0000 0.0000 0.0000 -17.0728 0.0000 0.0000
# 5 0.0000 0.0000 0.0000 0.0000 -252.4299 0.0000
# 6 0.0000 0.0000 0.0000 0.0000 0.0000 15.6221
#
#
#
# Elastic Compliance Matrix: (Units=1/GPa)
#
#
# Indices 1 2 3 4 5 6 
#
# 1 0.010618 -0.002272 -0.001995 0.000000 0.000000 0.000000
# 2 -0.002272 0.008576 -0.002097 0.000000 0.000000 0.000000
# 3 -0.001995 -0.002097 0.010625 0.000000 0.000000 0.000000
# 4 0.000000 0.000000 0.000000 -0.058573 0.000000 0.000000
# 5 0.000000 0.000000 0.000000 0.000000 -0.003961 0.000000
# 6 0.000000 0.000000 0.000000 0.000000 0.000000 0.064012
#
#
# Mechanical properties :
#
#
# Convention : Reuss Voigt Hill
#
# Bulk Modulus (GPa) = 58.50463 59.51816 59.01139
# Shear Modulus (GPa) = 100.56069 -34.00653 33.27708
#
# Velocity S-wave (km/s) = 6.88747 -4.00522 3.96203
# Velocity P-wave (km/s) = 9.53141 2.58597 6.98337
#
# Compressibility (1/GPa) = 0.01709267
#
# Stress axis : x y z
#
# Youngs Moduli (GPa) = 94.18028 116.60321 94.11505
#
# Poissons Ratio (x) = 0.26488 0.18775
# Poissons Ratio (y) = 0.21394 0.19734
# Poissons Ratio (z) = 0.18788 0.24449
#
# Static dielectric constant tensor:
#      x y z
#    x 1.761270 0.000000 0.000000 
#    y 0.000000 1.846520 0.000000 
#    z 0.000000 0.000000 1.799760 
# 
# From -- ./inp_files/22350.got.cif
#   From: 2010.05.17/outbox.cif.g08.bks.cpg/sg21_12_cif.got.tgz:22350.got - 2010.06.03 23:14:55.
