data_PCOD9322945
_publ_section_title
;
Structure prediction by ZEFSAII (Michael W. Deem and Ramdas Pophale) SiO2 
 PCOD9322945
Probable space group: C 2 2 2
;
_chemical_formula_sum "Si O2"
_cell_formula_units_Z 58
_cell_length_a 9.232229
_cell_length_b 19.554006
_cell_length_c 17.428987
_cell_angle_alpha 90.000000
_cell_angle_beta 90.000000
_cell_angle_gamma 90.000000
_cell_volume 3146.403804
_symmetry_space_group_name_H-M "C 2 2 2"
_symmetry_group_IT_number 21
_symmetry_cell_setting 'orthorhombic'
loop_
_space_group_symop_operation_xyz
x,y,z
-x,-y,z
x,-y,-z
-x,y,-z
1/2+x,1/2+y,z
1/2-x,1/2-y,z
1/2+x,1/2-y,-z
1/2-x,1/2+y,-z
loop_
_atom_site_type_symbol
_atom_site_label
_atom_site_fract_x
_atom_site_fract_y
_atom_site_fract_z
Si Si1 0.500000 0.000000 0.000000
Si Si2 0.122751 0.385546 0.885094
Si Si3 0.165779 0.584232 0.695474
Si Si4 0.673389 0.678077 0.420679
Si Si5 0.329302 0.322454 0.002700
Si Si6 0.814691 0.326739 0.848796
Si Si7 0.333592 0.679202 0.398830
Si Si8 0.828655 0.574801 0.709497
O O1 0.420205 0.948704 0.059459
O O2 0.163889 0.406867 0.799384
O O3 0.983042 0.334248 0.877307
O O4 0.260187 0.353533 0.926977
O O5 0.252332 0.619243 0.627709
O O6 0.194261 0.627399 0.772913
O O7 0.206969 0.505147 0.703901
O O8 0.993320 0.586335 0.680510
O O9 0.750000 0.750000 0.404687
O O10 0.506606 0.686187 0.396155
O O11 0.692760 0.663218 0.511188
O O12 0.250000 0.250000 0.010013
O O13 0.278366 0.358654 0.081330
O O14 0.500000 0.316645 0.000000
O O15 0.750000 0.250000 0.833443
O O16 0.250000 0.750000 0.381430
O O17 0.275868 0.621973 0.340818
#
# Coordination Sequence:
#
# PCOD9322945 Si02
#       8
#     2   8   8   8   8   8   8   8
#     4  12  20  40  70  80 116 170 206 246 312 372
#     4  11  22  39  64  87 115 165 201 248 309 370
#     4  10  21  38  60  89 121 161 205 246 298 367
#     4  10  21  39  65  90 118 165 210 251 312 369
#     4  11  22  37  58  87 115 147 195 249 306 360
#     4  10  19  36  60  89 119 153 202 257 307 359
#     4  10  22  40  62  91 126 160 204 260 309 364
#     4  10  23  39  60  90 125 162 207 249 302 367
#
# _framework density 18.433743
#
# number of rings (size 3 to 8) (size 9 to 14) (size 15 to 20)
#    0.000    1.655    1.379    4.552    0.000    5.517 
#    0.000    3.103    0.000    0.000    0.000    0.000 
#    0.000    0.000    0.000    0.000    0.000    0.000 
#
# Total GULP energy -161789.397648 kJ/mol
# GULP energy per Si atom -5578.944746 kJ/mol
# Density = 1.839179 g / cm^3
# Si number density = 18.433743 Si / 1000 Ang^3
#
#
#
# Elastic Constant Matrix: (Units=GPa)
#
#
# Indices 1 2 3 4 5 6 
#
# 1 130.9447 82.2499 85.5438 0.0000 0.0000 0.0000
# 2 82.2499 117.6744 79.3069 0.0000 0.0000 0.0000
# 3 85.5438 79.3069 102.4981 0.0000 0.0000 0.0000
# 4 0.0000 0.0000 0.0000 31.9069 0.0000 0.0000
# 5 0.0000 0.0000 0.0000 0.0000 21.3187 0.0000
# 6 0.0000 0.0000 0.0000 0.0000 0.0000 21.3767
#
#
#
# Elastic Compliance Matrix: (Units=1/GPa)
#
#
# Indices 1 2 3 4 5 6 
#
# 1 0.018192 -0.005189 -0.011168 0.000000 0.000000 0.000000
# 2 -0.005189 0.019238 -0.010555 0.000000 0.000000 0.000000
# 3 -0.011168 -0.010555 0.027244 0.000000 0.000000 0.000000
# 4 0.000000 0.000000 0.000000 0.031341 0.000000 0.000000
# 5 0.000000 0.000000 0.000000 0.000000 0.046907 0.000000
# 6 0.000000 0.000000 0.000000 0.000000 0.000000 0.046780
#
#
# Mechanical properties :
#
#
# Convention : Reuss Voigt Hill
#
# Bulk Modulus (GPa) = 92.16155 93.92429 93.04292
# Shear Modulus (GPa) = 20.23126 21.85492 21.04309
#
# Velocity S-wave (km/s) = 3.31647 3.44698 3.38235
# Velocity P-wave (km/s) = 8.04798 8.17956 8.11404
#
# Compressibility (1/GPa) = 0.01085051
#
# Stress axis : x y z
#
# Youngs Moduli (GPa) = 54.96982 51.97967 36.70565
#
# Poissons Ratio (x) = 0.26971 0.40993
# Poissons Ratio (y) = 0.28522 0.38743
# Poissons Ratio (z) = 0.61390 0.54865
#
# Static dielectric constant tensor:
#      x y z
#    x 1.630590 0.000000 0.000000 
#    y 0.000000 1.649500 0.000000 
#    z 0.000000 0.000000 1.648410 
# 
# From -- ./inp_files/35831.got.cif
#   From: 2010.05.17/outbox.cif.g08.bks.cpg/sg21_18_cif.got.tgz:35831.got - 2010.06.03 23:14:55.
