data_PCOD9322377
_publ_section_title
;
Structure prediction by ZEFSAII (Michael W. Deem and Ramdas Pophale) SiO2 
 PCOD9322377
Probable space group: C 2 2 2
;
_chemical_formula_sum "Si O2"
_cell_formula_units_Z 64
_cell_length_a 9.101627
_cell_length_b 17.233355
_cell_length_c 17.727844
_cell_angle_alpha 90.000000
_cell_angle_beta 90.000000
_cell_angle_gamma 90.000000
_cell_volume 2780.640149
_symmetry_space_group_name_H-M "C 2 2 2"
_symmetry_group_IT_number 21
_symmetry_cell_setting 'orthorhombic'
loop_
_space_group_symop_operation_xyz
x,y,z
-x,-y,z
x,-y,-z
-x,y,-z
1/2+x,1/2+y,z
1/2-x,1/2-y,z
1/2+x,1/2-y,-z
1/2-x,1/2+y,-z
loop_
_atom_site_type_symbol
_atom_site_label
_atom_site_fract_x
_atom_site_fract_y
_atom_site_fract_z
Si Si1 0.522978 0.411226 0.314887
Si Si2 0.599920 0.198880 0.848739
Si Si3 0.343689 0.453079 0.827265
Si Si4 0.301427 0.058623 0.071076
Si Si5 0.499767 0.661363 0.919141
Si Si6 0.125925 0.804938 0.448549
Si Si7 0.659525 0.915677 0.464995
Si Si8 0.283331 0.160028 0.308868
O O1 0.500000 0.500000 0.340809
O O2 0.653402 0.412562 0.253522
O O3 0.556372 0.356258 0.383959
O O4 0.370343 0.378137 0.281253
O O5 0.750000 0.250000 0.862674
O O6 0.589139 0.128968 0.908619
O O7 0.489299 0.269051 0.859713
O O8 0.613092 0.167763 0.763980
O O9 0.500000 0.500000 0.821763
O O10 0.212000 0.506621 0.853116
O O11 0.369045 0.394756 0.896185
O O12 0.142635 0.103873 0.072309
O O13 0.322216 0.000000 0.000000
O O14 0.500000 0.700825 0.000000
O O15 0.250000 0.750000 0.414865
O O16 0.283723 0.640644 0.504413
O O17 0.000000 0.766864 0.500000
O O18 0.500000 0.900767 0.500000
O O19 0.658417 0.895445 0.375744
O O20 0.697858 0.000000 0.500000
O O21 0.250000 0.250000 0.333725
#
# Coordination Sequence:
#
# PCOD9322377 Si02
#       8
#     8   8   8   8   8   8   8   8
#     4  11  22  38  65  95 128 161 210 274 326 386
#     4   9  19  32  52  86 119 156 204 254 314 377
#     4   9  17  29  52  88 116 149 200 254 316 373
#     4  10  17  29  52  82 116 156 197 256 313 372
#     4  10  17  30  52  82 117 152 201 254 309 366
#     4  12  26  43  67  95 132 171 217 267 336 396
#     4  11  25  43  67  96 128 170 225 274 328 396
#     4  11  21  39  64  91 126 165 212 268 318 391
#
# _framework density 23.016282
#
# number of rings (size 3 to 8) (size 9 to 14) (size 15 to 20)
#    0.000    1.625    2.500    5.250    1.750    0.000 
#    0.000    0.000    2.750    3.375    0.000    0.000 
#    0.000    0.000    0.000    0.000    0.000    0.000 
#
# Total GULP energy -178398.996315 kJ/mol
# GULP energy per Si atom -5574.968635 kJ/mol
# Density = 2.296390 g / cm^3
# Si number density = 23.016282 Si / 1000 Ang^3
#
#
#
# Elastic Constant Matrix: (Units=GPa)
#
#
# Indices 1 2 3 4 5 6 
#
# 1 24.1878 7.5340 -5.7641 0.0000 0.0000 0.0000
# 2 7.5340 115.7824 35.0950 0.0000 0.0000 0.0000
# 3 -5.7641 35.0950 118.5386 0.0000 0.0000 0.0000
# 4 0.0000 0.0000 0.0000 38.3658 0.0000 0.0000
# 5 0.0000 0.0000 0.0000 0.0000 0.9070 0.0000
# 6 0.0000 0.0000 0.0000 0.0000 0.0000 -27.3050
#
#
#
# Elastic Compliance Matrix: (Units=1/GPa)
#
#
# Indices 1 2 3 4 5 6 
#
# 1 0.043295 -0.003796 0.003229 0.000000 0.000000 0.000000
# 2 -0.003796 0.009821 -0.003092 0.000000 0.000000 0.000000
# 3 0.003229 -0.003092 0.009509 0.000000 0.000000 0.000000
# 4 0.000000 0.000000 0.000000 0.026065 0.000000 0.000000
# 5 0.000000 0.000000 0.000000 0.000000 1.102590 0.000000
# 6 0.000000 0.000000 0.000000 0.000000 0.000000 -0.036623
#
#
# Mechanical properties :
#
#
# Convention : Reuss Voigt Hill
#
# Bulk Modulus (GPa) = 18.08105 36.91540 27.49823
# Shear Modulus (GPa) = 4.23582 17.16982 10.70282
#
# Velocity S-wave (km/s) = 1.35807 2.73424 2.15875
# Velocity P-wave (km/s) = 3.21434 5.10311 4.26460
#
# Compressibility (1/GPa) = 0.05530651
#
# Stress axis : x y z
#
# Youngs Moduli (GPa) = 23.09736 101.82042 105.16781
#
# Poissons Ratio (x) = 0.38651 -0.33960
# Poissons Ratio (y) = 0.08768 0.32521
# Poissons Ratio (z) = -0.07459 0.31486
#
# Static dielectric constant tensor:
#      x y z
#    x 1.922700 0.000000 0.000000 
#    y 0.000000 1.900370 0.000000 
#    z 0.000000 0.000000 1.928280 
# 
# From -- ./inp_files/36245.got.cif
#   From: 2010.05.17/outbox.cif.g08.bks.cpg/sg21_19_cif.got.tgz:36245.got - 2010.06.03 23:14:55.
