data_PCOD9322269
_publ_section_title
;
Structure prediction by ZEFSAII (Michael W. Deem and Ramdas Pophale) SiO2 
 PCOD9322269
Probable space group: C 2 2 2
;
_chemical_formula_sum "Si O2"
_cell_formula_units_Z 56
_cell_length_a 26.602542
_cell_length_b 7.266088
_cell_length_c 12.646259
_cell_angle_alpha 90.000000
_cell_angle_beta 90.000000
_cell_angle_gamma 90.000000
_cell_volume 2444.476480
_symmetry_space_group_name_H-M "C 2 2 2"
_symmetry_group_IT_number 21
_symmetry_cell_setting 'orthorhombic'
loop_
_space_group_symop_operation_xyz
x,y,z
-x,-y,z
x,-y,-z
-x,y,-z
1/2+x,1/2+y,z
1/2-x,1/2-y,z
1/2+x,1/2-y,-z
1/2-x,1/2+y,-z
loop_
_atom_site_type_symbol
_atom_site_label
_atom_site_fract_x
_atom_site_fract_y
_atom_site_fract_z
Si Si1 0.605365 0.768197 0.392009
Si Si2 0.494081 0.792188 0.704679
Si Si3 0.953190 0.298213 0.943998
Si Si4 0.807353 0.284472 0.215988
Si Si5 0.694079 0.778613 0.237531
Si Si6 0.339855 0.224180 0.013743
Si Si7 0.896544 0.282984 0.364683
O O1 0.550240 0.697262 0.359741
O O2 0.650578 0.708176 0.315282
O O3 0.611217 0.723698 0.514715
O O4 0.604071 0.991853 0.373947
O O5 0.470518 0.809283 0.822376
O O6 0.550938 0.723238 0.690696
O O7 0.500000 0.000000 0.662357
O O8 0.897770 0.221824 0.963145
O O9 0.950039 0.500000 0.000000
O O10 0.000000 0.201895 0.000000
O O11 0.750000 0.250000 0.246761
O O12 0.813927 0.504168 0.221363
O O13 0.850260 0.216024 0.294344
O O14 0.818215 0.212350 0.098026
O O15 0.750000 0.750000 0.280229
O O16 0.689957 0.709348 0.116865
O O17 0.338608 0.000000 0.000000
#
# Coordination Sequence:
#
# PCOD9322269 Si02
#       7
#     8   8   8   8   8   8   8
#     4   9  17  29  42  65  94 126 158 191 238 288
#     4  10  15  24  40  65  95 125 154 187 238 292
#     4  10  15  20  36  63  94 126 151 184 235 289
#     4  10  20  33  48  68  97 128 161 197 239 282
#     4  10  19  32  50  70  94 125 164 199 236 279
#     4   9  17  28  43  65  95 125 155 193 237 285
#     4   9  18  28  43  64  94 128 157 191 238 288
#
# _framework density 22.908791000000001
#
# number of rings (size 3 to 8) (size 9 to 14) (size 15 to 20)
#    0.000    2.429    2.857    1.714    4.000    2.286 
#    0.000    0.000    0.000    0.000    0.000    1.000 
#    0.000    3.429    0.000    0.000    0.000    0.000 
#
# Total GULP energy -156236.382231 kJ/mol
# GULP energy per Si atom -5579.870794 kJ/mol
# Density = 2.285665 g / cm^3
# Si number density = 22.908791 Si / 1000 Ang^3
#
#
#
# Elastic Constant Matrix: (Units=GPa)
#
#
# Indices 1 2 3 4 5 6 
#
# 1 222.1610 -3.2732 96.6163 0.0000 0.0000 0.0000
# 2 -3.2732 82.7631 3.2356 0.0000 0.0000 0.0000
# 3 96.6163 3.2356 156.1373 0.0000 0.0000 0.0000
# 4 0.0000 0.0000 0.0000 -14.9952 0.0000 0.0000
# 5 0.0000 0.0000 0.0000 0.0000 13.4778 0.0000
# 6 0.0000 0.0000 0.0000 0.0000 0.0000 16.3216
#
#
#
# Elastic Compliance Matrix: (Units=1/GPa)
#
#
# Indices 1 2 3 4 5 6 
#
# 1 0.006171 0.000394 -0.003827 0.000000 0.000000 0.000000
# 2 0.000394 0.012118 -0.000495 0.000000 0.000000 0.000000
# 3 -0.003827 -0.000495 0.008783 0.000000 0.000000 0.000000
# 4 0.000000 0.000000 0.000000 -0.066688 0.000000 0.000000
# 5 0.000000 0.000000 0.000000 0.000000 0.074196 0.000000
# 6 0.000000 0.000000 0.000000 0.000000 0.000000 0.061269
#
#
# Mechanical properties :
#
#
# Convention : Reuss Voigt Hill
#
# Bulk Modulus (GPa) = 52.04010 72.69098 62.36554
# Shear Modulus (GPa) = 45.40941 27.25970 36.33456
#
# Velocity S-wave (km/s) = 4.45700 3.45327 3.98685
# Velocity P-wave (km/s) = 7.01798 6.90649 6.96246
#
# Compressibility (1/GPa) = 0.01921595
#
# Stress axis : x y z
#
# Youngs Moduli (GPa) = 162.03931 82.52465 113.85719
#
# Poissons Ratio (x) = -0.03249 0.43572
# Poissons Ratio (y) = -0.06379 0.05633
# Poissons Ratio (z) = 0.62011 0.04083
#
# Static dielectric constant tensor:
#      x y z
#    x 1.856880 0.000000 0.000000 
#    y 0.000000 1.987690 0.000000 
#    z 0.000000 0.000000 1.567860 
# 
# From -- ./inp_files/27438.got.cif
#   From: 2010.05.17/outbox.cif.g08.bks.cpg/sg21_14_cif.got.tgz:27438.got - 2010.06.03 23:14:55.
