data_PCOD9322415
_publ_section_title
;
Structure prediction by ZEFSAII (Michael W. Deem and Ramdas Pophale) SiO2 
 PCOD9322415
Probable space group: C 2 2 2
;
_chemical_formula_sum "Si O2"
_cell_formula_units_Z 36
_cell_length_a 9.605535
_cell_length_b 16.938242
_cell_length_c 11.750697
_cell_angle_alpha 90.000000
_cell_angle_beta 90.000000
_cell_angle_gamma 90.000000
_cell_volume 1911.848700
_symmetry_space_group_name_H-M "C 2 2 2"
_symmetry_group_IT_number 21
_symmetry_cell_setting 'orthorhombic'
loop_
_space_group_symop_operation_xyz
x,y,z
-x,-y,z
x,-y,-z
-x,y,-z
1/2+x,1/2+y,z
1/2-x,1/2-y,z
1/2+x,1/2-y,-z
1/2-x,1/2+y,-z
loop_
_atom_site_type_symbol
_atom_site_label
_atom_site_fract_x
_atom_site_fract_y
_atom_site_fract_z
Si Si1 0.377835 0.566206 0.204043
Si Si2 0.797416 0.500000 0.000000
Si Si3 0.663786 0.129499 0.822518
Si Si4 0.334166 0.008484 0.367177
Si Si5 0.957649 0.211566 0.868675
O O1 0.500000 0.500000 0.217904
O O2 0.302382 0.548837 0.084345
O O3 0.261002 0.553328 0.299243
O O4 0.441138 0.652961 0.198322
O O5 0.873108 0.560957 0.085971
O O6 0.807535 0.169145 0.862682
O O7 0.553787 0.200104 0.820186
O O8 0.692919 0.090029 0.700494
O O9 0.500000 0.000000 0.353777
O O10 0.301510 0.000000 0.500000
O O11 0.000000 0.217162 0.000000
#
# Coordination Sequence:
#
# PCOD9322415 Si02
#       5
#     8   4   8   8   8
#     4  11  18  35  65  92 122 165 218 257 314 391
#     4  10  17  34  61  94 127 170 205 258 319 396
#     4  10  22  35  60  93 129 168 209 264 323 378
#     4  10  23  43  64  84 121 166 221 274 319 372
#     4  11  20  36  59  95 138 164 200 270 324 389
#
# _framework density 18.829943
#
# number of rings (size 3 to 8) (size 9 to 14) (size 15 to 20)
#    0.000    1.556    6.667    0.333    0.000    4.000 
#    0.000    5.000   19.556    0.000    0.000    0.000 
#    0.000    0.000    0.000    0.000    0.000    0.000 
#
# Total GULP energy -100423.891994 kJ/mol
# GULP energy per Si atom -5579.105111 kJ/mol
# Density = 1.878709 g / cm^3
# Si number density = 18.829943 Si / 1000 Ang^3
#
#
#
# Elastic Constant Matrix: (Units=GPa)
#
#
# Indices 1 2 3 4 5 6 
#
# 1 56.2190 43.5922 48.1793 0.0000 0.0000 0.0000
# 2 43.5922 154.9783 59.9545 0.0000 0.0000 0.0000
# 3 48.1793 59.9545 138.5279 0.0000 0.0000 0.0000
# 4 0.0000 0.0000 0.0000 3.7538 0.0000 0.0000
# 5 0.0000 0.0000 0.0000 0.0000 33.0662 0.0000
# 6 0.0000 0.0000 0.0000 0.0000 0.0000 37.7009
#
#
#
# Elastic Compliance Matrix: (Units=1/GPa)
#
#
# Indices 1 2 3 4 5 6 
#
# 1 0.028205 -0.004971 -0.007658 0.000000 0.000000 0.000000
# 2 -0.004971 0.008626 -0.002005 0.000000 0.000000 0.000000
# 3 -0.007658 -0.002005 0.010750 0.000000 0.000000 0.000000
# 4 0.000000 0.000000 0.000000 0.266399 0.000000 0.000000
# 5 0.000000 0.000000 0.000000 0.000000 0.030242 0.000000
# 6 0.000000 0.000000 0.000000 0.000000 0.000000 0.026525
#
#
# Mechanical properties :
#
#
# Convention : Reuss Voigt Hill
#
# Bulk Modulus (GPa) = 54.60361 72.57523 63.58942
# Shear Modulus (GPa) = 12.31167 28.10412 20.20789
#
# Velocity S-wave (km/s) = 2.55979 3.86751 3.27949
# Velocity P-wave (km/s) = 6.14800 7.65308 6.94145
#
# Compressibility (1/GPa) = 0.01831381
#
# Stress axis : x y z
#
# Youngs Moduli (GPa) = 35.45473 115.92601 93.02494
#
# Poissons Ratio (x) = 0.57625 0.71240
# Poissons Ratio (y) = 0.17624 0.18647
# Poissons Ratio (z) = 0.27152 0.23238
#
# Static dielectric constant tensor:
#      x y z
#    x 1.722290 0.000000 0.000000 
#    y 0.000000 1.678550 0.000000 
#    z 0.000000 0.000000 1.623280 
# 
# From -- ./inp_files/23930.got.cif
#   From: 2010.05.17/outbox.cif.g08.bks.cpg/sg21_12_cif.got.tgz:23930.got - 2010.06.03 23:14:55.
