data_PCOD9322055
_publ_section_title
;
Structure prediction by ZEFSAII (Michael W. Deem and Ramdas Pophale) SiO2 
 PCOD9322055
Probable space group: C 2 2 21
;
_chemical_formula_sum "Si O2"
_cell_formula_units_Z 40
_cell_length_a 25.811095
_cell_length_b 11.833848
_cell_length_c 6.164440
_cell_angle_alpha 90.000000
_cell_angle_beta 90.000000
_cell_angle_gamma 90.000000
_cell_volume 1882.894756
_symmetry_space_group_name_H-M "C 2 2 21"
_symmetry_group_IT_number 20
_symmetry_cell_setting 'orthorhombic'
loop_
_space_group_symop_operation_xyz
x,y,z
-x,-y,1/2+z
x,-y,-z
-x,y,1/2-z
1/2+x,1/2+y,z
1/2-x,1/2-y,1/2+z
1/2+x,1/2-y,-z
1/2-x,1/2+y,1/2-z
loop_
_atom_site_type_symbol
_atom_site_label
_atom_site_fract_x
_atom_site_fract_y
_atom_site_fract_z
Si Si1 0.970634 0.000000 0.000000
Si Si2 0.948074 0.390097 0.852677
Si Si3 0.307008 0.812725 0.309883
Si Si4 0.803154 0.886124 0.354247
Si Si5 0.382627 0.681541 0.999284
Si Si6 0.122030 0.500000 0.000000
O O1 0.930266 0.099997 0.061838
O O2 0.000000 0.019850 0.750000
O O3 0.913687 0.297464 0.967036
O O4 0.913799 0.428159 0.653084
O O5 0.000000 0.340621 0.750000
O O6 0.959948 0.500000 0.000000
O O7 0.252261 0.872065 0.261645
O O8 0.303764 0.731456 0.515443
O O9 0.344429 0.916790 0.355018
O O10 0.333617 0.725859 0.140333
O O11 0.853225 0.880175 0.199813
O O12 0.804088 0.000000 0.500000
#
# Coordination Sequence:
#
# PCOD9322055 Si02
#       6
#     4   8   8   8   8   4
#     4  12  32  55  84 118 158 217 282 338 402 474
#     4  12  25  44  71 106 142 190 240 307 379 454
#     4  12  27  45  75 111 148 198 248 314 395 478
#     4  12  28  46  74 110 152 197 255 312 395 481
#     4  12  27  50  77 107 154 201 255 329 395 469
#     4  12  26  43  72 104 152 183 250 310 378 470
#
# _framework density 21.243886
#
# number of rings (size 3 to 8) (size 9 to 14) (size 15 to 20)
#    0.000    0.000    7.000    1.800    9.800    3.200 
#    0.000    0.000    0.000    0.000    0.000    0.000 
#    0.000    0.000    0.000    0.000    0.000    0.000 
#
# Total GULP energy -111374.429534 kJ/mol
# GULP energy per Si atom -5568.721477 kJ/mol
# Density = 2.119553 g / cm^3
# Si number density = 21.243886 Si / 1000 Ang^3
#
#
#
# Elastic Constant Matrix: (Units=GPa)
#
#
# Indices 1 2 3 4 5 6 
#
# 1 124.9956 23.2753 35.5369 0.0000 0.0000 0.0000
# 2 23.2753 53.3582 -0.8731 0.0000 0.0000 0.0000
# 3 35.5369 -0.8731 38.0673 0.0000 0.0000 0.0000
# 4 0.0000 0.0000 0.0000 48.9890 0.0000 0.0000
# 5 0.0000 0.0000 0.0000 0.0000 42.5337 0.0000
# 6 0.0000 0.0000 0.0000 0.0000 0.0000 -30.1730
#
#
#
# Elastic Compliance Matrix: (Units=1/GPa)
#
#
# Indices 1 2 3 4 5 6 
#
# 1 0.012355 -0.005580 -0.011661 0.000000 0.000000 0.000000
# 2 -0.005580 0.021269 0.005697 0.000000 0.000000 0.000000
# 3 -0.011661 0.005697 0.037286 0.000000 0.000000 0.000000
# 4 0.000000 0.000000 0.000000 0.020413 0.000000 0.000000
# 5 0.000000 0.000000 0.000000 0.000000 0.023511 0.000000
# 6 0.000000 0.000000 0.000000 0.000000 0.000000 -0.033142
#
#
# Mechanical properties :
#
#
# Convention : Reuss Voigt Hill
#
# Bulk Modulus (GPa) = 20.91160 36.92213 28.91686
# Shear Modulus (GPa) = 41.41808 22.83540 32.12674
#
# Velocity S-wave (km/s) = 4.42027 3.28215 3.89303
# Velocity P-wave (km/s) = 5.99305 5.63748 5.81798
#
# Compressibility (1/GPa) = 0.04782035
#
# Stress axis : x y z
#
# Youngs Moduli (GPa) = 80.94052 47.01778 26.81952
#
# Poissons Ratio (x) = 0.26236 0.31276
# Poissons Ratio (y) = 0.45165 -0.15279
# Poissons Ratio (z) = 0.94389 -0.26786
#
# Static dielectric constant tensor:
#      x y z
#    x 1.795440 0.000000 0.000000 
#    y 0.000000 1.764020 0.000000 
#    z 0.000000 0.000000 1.966550 
# 
# From -- ./inp_files/4079.got.cif
#   From: 2010.05.17/outbox.cif.g08.bks.cpg/sg20_3_cif.got.tgz:4079.got - 2010.06.03 22:52:26.
