data_PCOD9322535
_publ_section_title
;
Structure prediction by ZEFSAII (Michael W. Deem and Ramdas Pophale) SiO2 
 PCOD9322535
Probable space group: C 2 2 2
;
_chemical_formula_sum "Si O2"
_cell_formula_units_Z 48
_cell_length_a 15.751305
_cell_length_b 15.681794
_cell_length_c 9.260191
_cell_angle_alpha 90.000000
_cell_angle_beta 90.000000
_cell_angle_gamma 90.000000
_cell_volume 2287.347928
_symmetry_space_group_name_H-M "C 2 2 2"
_symmetry_group_IT_number 21
_symmetry_cell_setting 'orthorhombic'
loop_
_space_group_symop_operation_xyz
x,y,z
-x,-y,z
x,-y,-z
-x,y,-z
1/2+x,1/2+y,z
1/2-x,1/2-y,z
1/2+x,1/2-y,-z
1/2-x,1/2+y,-z
loop_
_atom_site_type_symbol
_atom_site_label
_atom_site_fract_x
_atom_site_fract_y
_atom_site_fract_z
Si Si1 0.584888 0.759906 0.066755
Si Si2 0.871112 0.086615 0.422278
Si Si3 0.853468 0.749477 0.386094
Si Si4 0.163739 0.412495 0.575136
Si Si5 0.792051 0.340596 0.143942
Si Si6 0.882694 0.916891 0.908242
O O1 0.596594 0.752339 0.236292
O O2 0.500000 0.798870 0.000000
O O3 0.662144 0.812805 0.000933
O O4 0.590342 0.666382 0.995313
O O5 0.884533 0.170456 0.518465
O O6 0.767391 0.084031 0.416339
O O7 0.909068 0.087913 0.260303
O O8 0.898504 0.000000 0.500000
O O9 0.750000 0.750000 0.360597
O O10 0.866825 0.663669 0.474817
O O11 0.135560 0.500000 0.500000
O O12 0.145542 0.382809 0.738998
O O13 0.750000 0.250000 0.202996
O O14 0.718823 0.406637 0.104779
O O15 0.904990 0.000000 0.000000
#
# Coordination Sequence:
#
# PCOD9322535 Si02
#       6
#     8   8   8   8   8   8
#     4  11  23  36  52  77 112 152 186 223 277 337
#     4   9  17  30  53  85 111 134 175 229 280 330
#     4  10  18  33  56  81 107 140 186 234 277 328
#     4   9  17  30  54  82 105 131 175 236 286 325
#     4   9  18  35  55  78 106 141 183 227 277 331
#     4  10  19  34  58  84 112 143 179 229 281 334
#
# _framework density 20.984999999999999
#
# number of rings (size 3 to 8) (size 9 to 14) (size 15 to 20)
#    0.000    2.333    0.000    6.000    0.000    5.667 
#    0.000    3.333    0.000    6.500    0.000    0.000 
#    0.000    0.000    0.000    0.000    0.000    0.000 
#
# Total GULP energy -133880.278005 kJ/mol
# GULP energy per Si atom -5578.344917 kJ/mol
# Density = 2.093724 g / cm^3
# Si number density = 20.985000 Si / 1000 Ang^3
#
#
#
# Elastic Constant Matrix: (Units=GPa)
#
#
# Indices 1 2 3 4 5 6 
#
# 1 30.7545 13.7796 32.5488 0.0000 0.0000 0.0000
# 2 13.7796 108.8653 59.6339 0.0000 0.0000 0.0000
# 3 32.5488 59.6339 163.5319 0.0000 0.0000 0.0000
# 4 0.0000 0.0000 0.0000 24.3114 0.0000 0.0000
# 5 0.0000 0.0000 0.0000 0.0000 -29.5888 0.0000
# 6 0.0000 0.0000 0.0000 0.0000 0.0000 -6.7966
#
#
#
# Elastic Compliance Matrix: (Units=1/GPa)
#
#
# Indices 1 2 3 4 5 6 
#
# 1 0.041264 -0.000905 -0.007883 0.000000 0.000000 0.000000
# 2 -0.000905 0.011498 -0.004013 0.000000 0.000000 0.000000
# 3 -0.007883 -0.004013 0.009147 0.000000 0.000000 0.000000
# 4 0.000000 0.000000 0.000000 0.041133 0.000000 0.000000
# 5 0.000000 0.000000 0.000000 0.000000 -0.033797 0.000000
# 6 0.000000 0.000000 0.000000 0.000000 0.000000 -0.147133
#
#
# Mechanical properties :
#
#
# Convention : Reuss Voigt Hill
#
# Bulk Modulus (GPa) = 27.54209 57.23071 42.38640
# Shear Modulus (GPa) = -124.43262 10.73116 -56.85073
#
# Velocity S-wave (km/s) = -7.70874 2.26381 -5.21056
# Velocity P-wave (km/s) = 8.12895 5.84504 3.99470
#
# Compressibility (1/GPa) = 0.03630807
#
# Stress axis : x y z
#
# Youngs Moduli (GPa) = 24.23423 86.96881 109.32066
#
# Poissons Ratio (x) = 0.07869 0.86178
# Poissons Ratio (y) = 0.02193 0.43870
# Poissons Ratio (z) = 0.19104 0.34900
#
# Static dielectric constant tensor:
#      x y z
#    x 1.903080 0.000000 0.000000 
#    y 0.000000 1.770050 0.000000 
#    z 0.000000 0.000000 1.792230 
# 
# From -- ./inp_files/16445.got.cif
#   From: 2010.05.17/outbox.cif.g08.bks.cpg/sg21_9_cif.got.tgz:16445.got - 2010.06.03 23:14:55.
