data_PCOD9322271
_publ_section_title
;
Structure prediction by ZEFSAII (Michael W. Deem and Ramdas Pophale) SiO2 
 PCOD9322271
Probable space group: C 2 2 2
;
_chemical_formula_sum "Si O2"
_cell_formula_units_Z 32
_cell_length_a 7.121523
_cell_length_b 36.406858
_cell_length_c 5.336777
_cell_angle_alpha 90.000000
_cell_angle_beta 90.000000
_cell_angle_gamma 90.000000
_cell_volume 1383.678323
_symmetry_space_group_name_H-M "C 2 2 2"
_symmetry_group_IT_number 21
_symmetry_cell_setting 'orthorhombic'
loop_
_space_group_symop_operation_xyz
x,y,z
-x,-y,z
x,-y,-z
-x,y,-z
1/2+x,1/2+y,z
1/2-x,1/2-y,z
1/2+x,1/2-y,-z
1/2-x,1/2+y,-z
loop_
_atom_site_type_symbol
_atom_site_label
_atom_site_fract_x
_atom_site_fract_y
_atom_site_fract_z
Si Si1 0.721915 0.791963 0.540648
Si Si2 0.874765 0.599513 0.249226
Si Si3 0.215575 0.516132 0.747130
Si Si4 0.773456 0.326070 0.955081
O O1 0.500000 0.798799 0.500000
O O2 0.750000 0.750000 0.619997
O O3 0.796137 0.798147 0.258702
O O4 0.796236 0.818007 0.764053
O O5 0.781693 0.559902 0.276548
O O6 0.746775 0.634163 0.173851
O O7 0.000000 0.606998 0.500000
O O8 0.000000 0.594968 0.000000
O O9 0.302447 0.500000 0.500000
O O10 0.000000 0.500000 0.748095
O O11 0.296911 0.500000 0.000000
O O12 0.000000 0.322804 0.000000
#
# Coordination Sequence:
#
# PCOD9322271 Si02
#       4
#     8   8   8   8
#     4  10  19  33  48  65  86 109 143 184 220 267
#     4  11  16  23  36  50  77 107 141 187 204 241
#     4  10  15  22  29  47  70 103 146 176 201 236
#     4   9  18  28  41  62  81 109 143 180 216 256
#
# _framework density 23.126764999999999
#
# number of rings (size 3 to 8) (size 9 to 14) (size 15 to 20)
#    0.000    2.000    5.000    4.500    0.000    0.000 
#    0.000    0.000    0.000    0.000    0.000    0.000 
#    0.000    0.000    0.000    0.000    0.000   18.750 
#
# Total GULP energy -89208.935856 kJ/mol
# GULP energy per Si atom -5575.558491 kJ/mol
# Density = 2.307413 g / cm^3
# Si number density = 23.126765 Si / 1000 Ang^3
#
#
#
# Elastic Constant Matrix: (Units=GPa)
#
#
# Indices 1 2 3 4 5 6 
#
# 1 74.4036 -10.7276 12.9111 0.0000 0.0000 0.0000
# 2 -10.7276 161.6131 73.3865 0.0000 0.0000 0.0000
# 3 12.9111 73.3865 231.9902 0.0000 0.0000 0.0000
# 4 0.0000 0.0000 0.0000 43.3938 0.0000 0.0000
# 5 0.0000 0.0000 0.0000 0.0000 -21.3986 0.0000
# 6 0.0000 0.0000 0.0000 0.0000 0.0000 -7.8328
#
#
#
# Elastic Compliance Matrix: (Units=1/GPa)
#
#
# Indices 1 2 3 4 5 6 
#
# 1 0.013870 0.001484 -0.001241 0.000000 0.000000 0.000000
# 2 0.001484 0.007384 -0.002419 0.000000 0.000000 0.000000
# 3 -0.001241 -0.002419 0.005145 0.000000 0.000000 0.000000
# 4 0.000000 0.000000 0.000000 0.023045 0.000000 0.000000
# 5 0.000000 0.000000 0.000000 0.000000 -0.046732 0.000000
# 6 0.000000 0.000000 0.000000 0.000000 0.000000 -0.127669
#
#
# Mechanical properties :
#
#
# Convention : Reuss Voigt Hill
#
# Bulk Modulus (GPa) = 45.35667 68.79409 57.07538
# Shear Modulus (GPa) = -44.14754 28.99494 -7.57630
#
# Velocity S-wave (km/s) = -4.37388 3.54466 -1.81193
# Velocity P-wave (km/s) = 2.41929 6.82378 4.51170
#
# Compressibility (1/GPa) = 0.02204747
#
# Stress axis : x y z
#
# Youngs Moduli (GPa) = 72.09984 135.42103 194.37525
#
# Poissons Ratio (x) = -0.20102 0.24131
# Poissons Ratio (y) = -0.10702 0.47011
# Poissons Ratio (z) = 0.08951 0.32752
#
# Static dielectric constant tensor:
#      x y z
#    x 1.909870 0.000000 0.000000 
#    y 0.000000 1.916140 0.000000 
#    z 0.000000 0.000000 1.889930 
# 
# From -- ./inp_files/2943.got.cif
#   From: 2010.05.17/outbox.cif.g08.bks.cpg/sg21_2_cif.got.tgz:2943.got - 2010.06.03 23:14:55.
