data_PCOD9322993
_publ_section_title
;
Structure prediction by ZEFSAII (Michael W. Deem and Ramdas Pophale) SiO2 
 PCOD9322993
Probable space group: C 2 2 2
;
_chemical_formula_sum "Si O2"
_cell_formula_units_Z 64
_cell_length_a 16.236178
_cell_length_b 17.224716
_cell_length_c 12.162102
_cell_angle_alpha 90.000000
_cell_angle_beta 90.000000
_cell_angle_gamma 90.000000
_cell_volume 3401.296681
_symmetry_space_group_name_H-M "C 2 2 2"
_symmetry_group_IT_number 21
_symmetry_cell_setting 'orthorhombic'
loop_
_space_group_symop_operation_xyz
x,y,z
-x,-y,z
x,-y,-z
-x,y,-z
1/2+x,1/2+y,z
1/2-x,1/2-y,z
1/2+x,1/2-y,-z
1/2-x,1/2+y,-z
loop_
_atom_site_type_symbol
_atom_site_label
_atom_site_fract_x
_atom_site_fract_y
_atom_site_fract_z
Si Si1 0.305999 0.674760 0.079947
Si Si2 0.371380 0.334854 0.680561
Si Si3 0.978833 0.264912 0.676744
Si Si4 0.146370 0.586672 0.041641
Si Si5 0.271900 0.936176 0.410800
Si Si6 0.918660 0.736876 0.074509
Si Si7 0.669360 0.219582 0.511526
Si Si8 0.565354 0.928437 0.726251
O O1 0.250000 0.750000 0.102378
O O2 0.360931 0.669792 0.188548
O O3 0.241734 0.604830 0.069409
O O4 0.357415 0.696688 0.971704
O O5 0.466756 0.313238 0.661156
O O6 0.312930 0.406461 0.644936
O O7 0.334579 0.266768 0.603160
O O8 0.938775 0.259705 0.797566
O O9 0.911398 0.268989 0.582113
O O10 0.029589 0.347389 0.675773
O O11 0.089112 0.594107 0.149023
O O12 0.136096 0.500000 0.000000
O O13 0.119971 0.652922 0.955550
O O14 0.312731 0.867773 0.481578
O O15 0.347101 0.954591 0.327299
O O16 0.251516 0.000000 0.500000
O O17 0.000000 0.743943 0.000000
O O18 0.750000 0.250000 0.574619
O O19 0.500000 0.000000 0.719920
#
# Coordination Sequence:
#
# PCOD9322993 Si02
#       8
#     8   8   8   8   8   8   8   8
#     4  10  19  37  61  88 116 164 212 248 298 367
#     4  11  20  38  66  87 118 167 218 252 305 378
#     4  12  22  37  62  94 126 162 213 259 315 379
#     4  11  23  37  57  89 129 168 204 241 314 383
#     4  11  23  39  57  91 128 164 208 258 317 376
#     4  11  21  35  59  94 123 156 203 263 300 358
#     4  10  23  38  61  88 123 163 204 259 315 374
#     4  12  23  34  58  90 133 169 197 251 319 392
#
# _framework density 18.816352999999999
#
# number of rings (size 3 to 8) (size 9 to 14) (size 15 to 20)
#    0.000    1.000    5.000    3.750    0.000    2.750 
#    0.000    1.250    0.000    6.375    0.000    0.000 
#    0.000    0.000    0.000    0.000    0.000    0.000 
#
# Total GULP energy -178346.521256 kJ/mol
# GULP energy per Si atom -5573.328789 kJ/mol
# Density = 1.877353 g / cm^3
# Si number density = 18.816353 Si / 1000 Ang^3
#
#
#
# Elastic Constant Matrix: (Units=GPa)
#
#
# Indices 1 2 3 4 5 6 
#
# 1 87.9935 30.6375 26.7577 0.0000 0.0000 0.0000
# 2 30.6375 49.5866 23.0796 0.0000 0.0000 0.0000
# 3 26.7577 23.0796 70.5655 0.0000 0.0000 0.0000
# 4 0.0000 0.0000 0.0000 17.6039 0.0000 0.0000
# 5 0.0000 0.0000 0.0000 0.0000 28.7359 0.0000
# 6 0.0000 0.0000 0.0000 0.0000 0.0000 34.2088
#
#
#
# Elastic Compliance Matrix: (Units=1/GPa)
#
#
# Indices 1 2 3 4 5 6 
#
# 1 0.015048 -0.007834 -0.003144 0.000000 0.000000 0.000000
# 2 -0.007834 0.027867 -0.006144 0.000000 0.000000 0.000000
# 3 -0.003144 -0.006144 0.017373 0.000000 0.000000 0.000000
# 4 0.000000 0.000000 0.000000 0.056806 0.000000 0.000000
# 5 0.000000 0.000000 0.000000 0.000000 0.034800 0.000000
# 6 0.000000 0.000000 0.000000 0.000000 0.000000 0.029232
#
#
# Mechanical properties :
#
#
# Convention : Reuss Voigt Hill
#
# Bulk Modulus (GPa) = 38.39627 41.01056 39.70342
# Shear Modulus (GPa) = 22.31644 24.62111 23.46878
#
# Velocity S-wave (km/s) = 3.44759 3.62124 3.53548
# Velocity P-wave (km/s) = 6.02478 6.27112 6.14918
#
# Compressibility (1/GPa) = 0.02604419
#
# Stress axis : x y z
#
# Youngs Moduli (GPa) = 66.45296 35.88499 57.56180
#
# Poissons Ratio (x) = 0.28114 0.18096
# Poissons Ratio (y) = 0.52062 0.35363
# Poissons Ratio (z) = 0.20891 0.22046
#
# Static dielectric constant tensor:
#      x y z
#    x 1.747160 0.000000 0.000000 
#    y 0.000000 1.661630 0.000000 
#    z 0.000000 0.000000 1.660020 
# 
# From -- ./inp_files/25465.got.cif
#   From: 2010.05.17/outbox.cif.g08.bks.cpg/sg21_13_cif.got.tgz:25465.got - 2010.06.03 23:14:55.
