data_PCOD9322139
_publ_section_title
;
Structure prediction by ZEFSAII (Michael W. Deem and Ramdas Pophale) SiO2 
 PCOD9322139
Probable space group: C 2 2 21
;
_chemical_formula_sum "Si O2"
_cell_formula_units_Z 32
_cell_length_a 5.155726
_cell_length_b 15.243688
_cell_length_c 16.590169
_cell_angle_alpha 90.000000
_cell_angle_beta 90.000000
_cell_angle_gamma 90.000000
_cell_volume 1303.859183
_symmetry_space_group_name_H-M "C 2 2 21"
_symmetry_group_IT_number 20
_symmetry_cell_setting 'orthorhombic'
loop_
_space_group_symop_operation_xyz
x,y,z
-x,-y,1/2+z
x,-y,-z
-x,y,1/2-z
1/2+x,1/2+y,z
1/2-x,1/2-y,1/2+z
1/2+x,1/2-y,-z
1/2-x,1/2+y,1/2-z
loop_
_atom_site_type_symbol
_atom_site_label
_atom_site_fract_x
_atom_site_fract_y
_atom_site_fract_z
Si Si1 0.500000 0.675829 0.250000
Si Si2 0.632583 0.308467 0.168784
Si Si3 0.231457 0.782297 0.457624
Si Si4 0.000000 0.554638 0.250000
Si Si5 0.537903 0.950094 0.416960
O O1 0.370080 0.744938 0.188175
O O2 0.257439 0.611812 0.265893
O O3 0.500000 0.342258 0.250000
O O4 0.411961 0.253425 0.123609
O O5 0.731791 0.387635 0.114611
O O6 0.492705 0.731564 0.480964
O O7 0.315627 0.882315 0.445057
O O8 0.959912 0.501886 0.334918
O O9 0.607604 0.000000 0.500000
#
# Coordination Sequence:
#
# PCOD9322139 Si02
#       5
#     4   8   8   4   8
#     4  12  29  50  89 114 166 230 276 342 421 510
#     4  12  27  53  85 124 162 227 282 348 416 502
#     4  12  28  51  85 118 164 215 282 336 406 506
#     4  12  31  54  83 130 170 214 286 350 427 488
#     4  12  31  52  85 123 175 220 275 356 427 498
#
# _framework density 24.542527
#
# number of rings (size 3 to 8) (size 9 to 14) (size 15 to 20)
#    0.000    0.000    3.750    3.750    8.750    3.000 
#    0.000    0.000    0.000    0.000    0.000    0.000 
#    0.000    0.000    0.000    0.000    0.000    0.000 
#
# Total GULP energy -89428.164918 kJ/mol
# GULP energy per Si atom -5589.260307 kJ/mol
# Density = 2.448667 g / cm^3
# Si number density = 24.542527 Si / 1000 Ang^3
#
#
#
# Elastic Constant Matrix: (Units=GPa)
#
#
# Indices 1 2 3 4 5 6 
#
# 1 233.7376 89.4070 95.4278 0.0000 0.0000 0.0000
# 2 89.4070 137.3771 105.9874 0.0000 0.0000 0.0000
# 3 95.4278 105.9874 228.9473 0.0000 0.0000 0.0000
# 4 0.0000 0.0000 0.0000 44.9194 0.0000 0.0000
# 5 0.0000 0.0000 0.0000 0.0000 70.1347 0.0000
# 6 0.0000 0.0000 0.0000 0.0000 0.0000 49.5664
#
#
#
# Elastic Compliance Matrix: (Units=1/GPa)
#
#
# Indices 1 2 3 4 5 6 
#
# 1 0.005855 -0.002999 -0.001052 0.000000 0.000000 0.000000
# 2 -0.002999 0.012859 -0.004703 0.000000 0.000000 0.000000
# 3 -0.001052 -0.004703 0.006984 0.000000 0.000000 0.000000
# 4 0.000000 0.000000 0.000000 0.022262 0.000000 0.000000
# 5 0.000000 0.000000 0.000000 0.000000 0.014258 0.000000
# 6 0.000000 0.000000 0.000000 0.000000 0.000000 0.020175
#
#
# Mechanical properties :
#
#
# Convention : Reuss Voigt Hill
#
# Bulk Modulus (GPa) = 122.10265 131.30070 126.70168
# Shear Modulus (GPa) = 48.71819 53.54011 51.12915
#
# Velocity S-wave (km/s) = 4.46023 4.67575 4.56926
# Velocity P-wave (km/s) = 8.73981 9.09756 8.92048
#
# Compressibility (1/GPa) = 0.00818983
#
# Stress axis : x y z
#
# Youngs Moduli (GPa) = 170.79690 77.76472 143.19223
#
# Poissons Ratio (x) = 0.23319 0.15067
# Poissons Ratio (y) = 0.51216 0.67345
# Poissons Ratio (z) = 0.17971 0.36574
#
# Static dielectric constant tensor:
#      x y z
#    x 2.061860 0.000000 0.000000 
#    y 0.000000 1.977190 0.000000 
#    z 0.000000 0.000000 2.085210 
# 
# From -- ./inp_files/22509.got.cif
#   From: 2010.05.17/outbox.cif.g08.bks.cpg/sg20_12_cif.got.tgz:22509.got - 2010.06.03 22:52:26.
