data_PCOD9322781
_publ_section_title
;
Structure prediction by ZEFSAII (Michael W. Deem and Ramdas Pophale) SiO2 
 PCOD9322781
Probable space group: C 2 2 2
;
_chemical_formula_sum "Si O2"
_cell_formula_units_Z 64
_cell_length_a 17.703122
_cell_length_b 17.300097
_cell_length_c 12.065645
_cell_angle_alpha 90.000000
_cell_angle_beta 90.000000
_cell_angle_gamma 90.000000
_cell_volume 3695.293547
_symmetry_space_group_name_H-M "C 2 2 2"
_symmetry_group_IT_number 21
_symmetry_cell_setting 'orthorhombic'
loop_
_space_group_symop_operation_xyz
x,y,z
-x,-y,z
x,-y,-z
-x,y,-z
1/2+x,1/2+y,z
1/2-x,1/2-y,z
1/2+x,1/2-y,-z
1/2-x,1/2+y,-z
loop_
_atom_site_type_symbol
_atom_site_label
_atom_site_fract_x
_atom_site_fract_y
_atom_site_fract_z
Si Si1 0.724635 0.090090 0.131632
Si Si2 0.819579 0.806675 0.291518
Si Si3 0.372912 0.909946 0.500000
Si Si4 0.086389 0.339528 0.263175
Si Si5 0.724636 0.909910 0.131633
Si Si6 0.086389 0.339528 0.736825
Si Si7 0.680421 0.693325 0.708482
Si Si8 0.310294 0.590003 0.500000
O O1 0.645086 0.114048 0.186563
O O2 0.786949 0.143891 0.189698
O O3 0.739287 0.000000 0.156166
O O4 0.722878 0.101201 1.000000
O O5 0.750000 0.750000 0.326783
O O6 0.887200 0.749611 0.261146
O O7 0.786949 0.856109 0.189699
O O8 0.836880 0.864272 0.391577
O O9 0.402230 0.869548 0.611117
O O10 0.402230 0.869549 0.388882
O O11 0.281542 0.906631 0.500000
O O12 0.395007 0.000000 0.500000
O O13 0.145086 0.385953 0.186564
O O14 0.000000 0.349619 0.229884
O O15 0.112800 0.250389 0.738854
O O16 0.750000 0.750000 0.673217
O O17 0.663120 0.635728 0.608423
O O18 0.331694 0.500000 0.500000
#
# Coordination Sequence:
#
# PCOD9322781 Si02
#       8
#     8   8   8   8   8   8   8   8
#     4  10  21  37  57  79 102 133 176 221 261 303
#     4  10  19  33  54  76 105 137 176 215 255 302
#     4  11  20  32  52  80 111 139 172 212 256 309
#     4  11  23  35  52  79 111 143 171 205 259 317
#     4  10  21  37  57  79 102 133 176 221 261 303
#     4  11  23  35  52  79 111 143 171 205 259 317
#     4  10  19  33  54  76 105 137 176 215 255 302
#     4  11  18  30  55  81 101 132 177 222 258 295
#
# _framework density 17.319327000000001
#
# number of rings (size 3 to 8) (size 9 to 14) (size 15 to 20)
#    0.000    1.500    5.000    3.000    0.000    7.500 
#    0.000    1.250    0.000    3.750    0.000    1.750 
#    0.000    0.000    0.000    0.000    0.000    0.000 
#
# Total GULP energy -178710.660564 kJ/mol
# GULP energy per Si atom -5584.708143 kJ/mol
# Density = 1.727991 g / cm^3
# Si number density = 17.319327 Si / 1000 Ang^3
#
#
#
# Elastic Constant Matrix: (Units=GPa)
#
#
# Indices 1 2 3 4 5 6 
#
# 1 44.5274 25.1470 23.0281 0.0000 0.0000 0.0000
# 2 25.1470 132.8463 68.4163 0.0000 0.0000 0.0000
# 3 23.0281 68.4163 93.2854 0.0000 0.0000 0.0000
# 4 0.0000 0.0000 0.0000 58.2213 0.0000 0.0000
# 5 0.0000 0.0000 0.0000 0.0000 2.3332 0.0000
# 6 0.0000 0.0000 0.0000 0.0000 0.0000 46.2966
#
#
#
# Elastic Compliance Matrix: (Units=1/GPa)
#
#
# Indices 1 2 3 4 5 6 
#
# 1 0.026303 -0.002628 -0.004566 0.000000 0.000000 0.000000
# 2 -0.002628 0.012359 -0.008415 0.000000 0.000000 0.000000
# 3 -0.004566 -0.008415 0.018019 0.000000 0.000000 0.000000
# 4 0.000000 0.000000 0.000000 0.017176 0.000000 0.000000
# 5 0.000000 0.000000 0.000000 0.000000 0.428600 0.000000
# 6 0.000000 0.000000 0.000000 0.000000 0.000000 0.021600
#
#
# Mechanical properties :
#
#
# Convention : Reuss Voigt Hill
#
# Bulk Modulus (GPa) = 39.27265 55.98244 47.62754
# Shear Modulus (GPa) = 8.86898 31.64140 20.25519
#
# Velocity S-wave (km/s) = 2.26539 4.27891 3.42353
# Velocity P-wave (km/s) = 5.43760 7.53697 6.57166
#
# Compressibility (1/GPa) = 0.02546301
#
# Stress axis : x y z
#
# Youngs Moduli (GPa) = 38.01783 80.91360 55.49713
#
# Poissons Ratio (x) = 0.21260 0.25341
# Poissons Ratio (y) = 0.09989 0.46703
# Poissons Ratio (z) = 0.17359 0.68093
#
# Static dielectric constant tensor:
#      x y z
#    x 1.568700 0.000000 0.000000 
#    y 0.000000 1.594630 0.000000 
#    z 0.000000 0.000000 1.573750 
# 
# From -- ./inp_files/26226.got.cif
#   From: 2010.05.17/outbox.cif.g08.bks.cpg/sg21_14_cif.got.tgz:26226.got - 2010.06.03 23:14:55.
