data_PCOD9322599
_publ_section_title
;
Structure prediction by ZEFSAII (Michael W. Deem and Ramdas Pophale) SiO2 
 PCOD9322599
Probable space group: C 2 2 2
;
_chemical_formula_sum "Si O2"
_cell_formula_units_Z 26
_cell_length_a 8.130740
_cell_length_b 15.517981
_cell_length_c 8.475892
_cell_angle_alpha 90.000000
_cell_angle_beta 90.000000
_cell_angle_gamma 90.000000
_cell_volume 1069.425914
_symmetry_space_group_name_H-M "C 2 2 2"
_symmetry_group_IT_number 21
_symmetry_cell_setting 'orthorhombic'
loop_
_space_group_symop_operation_xyz
x,y,z
-x,-y,z
x,-y,-z
-x,y,-z
1/2+x,1/2+y,z
1/2-x,1/2-y,z
1/2+x,1/2-y,-z
1/2-x,1/2+y,-z
loop_
_atom_site_type_symbol
_atom_site_label
_atom_site_fract_x
_atom_site_fract_y
_atom_site_fract_z
Si Si1 0.501665 0.708421 0.816044
Si Si2 0.810756 0.846886 0.442676
Si Si3 0.500000 0.000000 0.000000
Si Si4 0.346959 0.120029 0.734687
O O1 0.347453 0.655189 0.745109
O O2 0.520064 0.802516 0.735989
O O3 0.671202 0.659062 0.784497
O O4 0.500000 0.723633 0.000000
O O5 0.750000 0.750000 0.479393
O O6 0.693103 0.904934 0.552062
O O7 0.000000 0.859268 0.500000
O O8 0.604323 0.055675 0.126243
#
# Coordination Sequence:
#
# PCOD9322599 Si02
#       4
#     8   8   2   8
#     4  10  20  37  67 104 131 183 263 298 335 416
#     4  10  18  35  64 101 142 167 246 308 340 404
#     4  12  24  40  70 106 168 178 234 290 388 462
#     4  10  21  38  61 110 138 194 226 300 366 423
#
# _framework density 24.312110000000001
#
# number of rings (size 3 to 8) (size 9 to 14) (size 15 to 20)
#    0.000    1.846    7.692    0.000    4.308    0.000 
#    0.000    0.769    0.000   14.769   24.000    0.000 
#    0.000    0.000    0.000    0.000    0.000    0.000 
#
# Total GULP energy -72413.534110 kJ/mol
# GULP energy per Si atom -5570.271855 kJ/mol
# Density = 2.425677 g / cm^3
# Si number density = 24.312110 Si / 1000 Ang^3
#
#
#
# Elastic Constant Matrix: (Units=GPa)
#
#
# Indices 1 2 3 4 5 6 
#
# 1 126.5887 36.7612 55.8671 0.0000 0.0000 0.0000
# 2 36.7612 82.0398 53.6827 0.0000 0.0000 0.0000
# 3 55.8671 53.6827 203.6292 0.0000 0.0000 0.0000
# 4 0.0000 0.0000 0.0000 25.9708 0.0000 0.0000
# 5 0.0000 0.0000 0.0000 0.0000 36.0170 0.0000
# 6 0.0000 0.0000 0.0000 0.0000 0.0000 6.6827
#
#
#
# Elastic Compliance Matrix: (Units=1/GPa)
#
#
# Indices 1 2 3 4 5 6 
#
# 1 0.009605 -0.003117 -0.001813 0.000000 0.000000 0.000000
# 2 -0.003117 0.015742 -0.003295 0.000000 0.000000 0.000000
# 3 -0.001813 -0.003295 0.006277 0.000000 0.000000 0.000000
# 4 0.000000 0.000000 0.000000 0.038505 0.000000 0.000000
# 5 0.000000 0.000000 0.000000 0.000000 0.027765 0.000000
# 6 0.000000 0.000000 0.000000 0.000000 0.000000 0.149640
#
#
# Mechanical properties :
#
#
# Convention : Reuss Voigt Hill
#
# Bulk Modulus (GPa) = 65.90630 78.31997 72.11313
# Shear Modulus (GPa) = 18.58443 31.46387 25.02415
#
# Velocity S-wave (km/s) = 2.76780 3.60135 3.21173
# Velocity P-wave (km/s) = 6.11404 7.04112 6.59389
#
# Compressibility (1/GPa) = 0.01517306
#
# Stress axis : x y z
#
# Youngs Moduli (GPa) = 104.11029 63.52423 159.31141
#
# Poissons Ratio (x) = 0.19803 0.28890
# Poissons Ratio (y) = 0.32455 0.52490
# Poissons Ratio (z) = 0.18880 0.20930
#
# Static dielectric constant tensor:
#      x y z
#    x 1.950860 0.000000 0.000000 
#    y 0.000000 1.925370 0.000000 
#    z 0.000000 0.000000 2.134740 
# 
# From -- ./inp_files/10120.got.cif
#   From: 2010.05.17/outbox.cif.g08.bks.cpg/sg21_6_cif.got.tgz:10120.got - 2010.06.03 23:14:55.
