data_PCOD9322972
_publ_section_title
;
Structure prediction by ZEFSAII (Michael W. Deem and Ramdas Pophale) SiO2 
 PCOD9322972
Probable space group: C 2 2 2
;
_chemical_formula_sum "Si O2"
_cell_formula_units_Z 40
_cell_length_a 14.689481
_cell_length_b 14.987812
_cell_length_c 7.526960
_cell_angle_alpha 90.000000
_cell_angle_beta 90.000000
_cell_angle_gamma 90.000000
_cell_volume 1657.159446
_symmetry_space_group_name_H-M "C 2 2 2"
_symmetry_group_IT_number 21
_symmetry_cell_setting 'orthorhombic'
loop_
_space_group_symop_operation_xyz
x,y,z
-x,-y,z
x,-y,-z
-x,y,-z
1/2+x,1/2+y,z
1/2-x,1/2-y,z
1/2+x,1/2-y,-z
1/2-x,1/2+y,-z
loop_
_atom_site_type_symbol
_atom_site_label
_atom_site_fract_x
_atom_site_fract_y
_atom_site_fract_z
Si Si1 0.020981 0.597900 0.707314
Si Si2 0.325317 0.590080 0.403197
Si Si3 0.179458 0.174718 0.220954
Si Si4 0.022561 0.213477 0.713848
Si Si5 0.300701 0.027974 0.184537
O O1 0.965476 0.683499 0.774532
O O2 0.129988 0.598562 0.727366
O O3 0.000000 0.500000 0.779049
O O4 0.000000 0.594778 0.500000
O O5 0.365394 0.500000 0.500000
O O6 0.306643 0.656579 0.566951
O O7 0.395184 0.643120 0.276038
O O8 0.233919 0.552299 0.309416
O O9 0.250000 0.250000 0.159567
O O10 0.072754 0.188849 0.194486
O O11 0.210367 0.082369 0.135890
O O12 0.000000 0.215391 0.500000
O O13 0.341997 0.000000 0.000000
#
# Coordination Sequence:
#
# PCOD9322972 Si02
#       5
#     8   8   8   8   8
#     4  10  22  37  67  92 125 168 228 276 328 397
#     4   9  21  36  65  98 131 168 221 284 334 399
#     4  10  19  36  66  92 128 170 222 277 330 389
#     4   9  18  36  62  99 128 161 223 285 332 378
#     4  11  24  41  61  95 135 176 212 272 347 419
#
# _framework density 24.137689999999999
#
# number of rings (size 3 to 8) (size 9 to 14) (size 15 to 20)
#    0.000    2.200    2.000    0.000    8.400    9.600 
#    0.000    5.000    4.400    0.000    0.000    0.000 
#    0.000    0.000    0.000    0.000    0.000    0.000 
#
# Total GULP energy -111468.753114 kJ/mol
# GULP energy per Si atom -5573.437656 kJ/mol
# Density = 2.408275 g / cm^3
# Si number density = 24.137690 Si / 1000 Ang^3
#
#
#
# Elastic Constant Matrix: (Units=GPa)
#
#
# Indices 1 2 3 4 5 6 
#
# 1 92.8730 44.2975 23.5263 0.0000 0.0000 0.0000
# 2 44.2975 110.1877 9.6208 0.0000 0.0000 0.0000
# 3 23.5263 9.6208 51.7135 0.0000 0.0000 0.0000
# 4 0.0000 0.0000 0.0000 -0.8940 0.0000 0.0000
# 5 0.0000 0.0000 0.0000 0.0000 26.2079 0.0000
# 6 0.0000 0.0000 0.0000 0.0000 0.0000 40.6752
#
#
#
# Elastic Compliance Matrix: (Units=1/GPa)
#
#
# Indices 1 2 3 4 5 6 
#
# 1 0.014822 -0.005459 -0.005727 0.000000 0.000000 0.000000
# 2 -0.005459 0.011236 0.000393 0.000000 0.000000 0.000000
# 3 -0.005727 0.000393 0.021870 0.000000 0.000000 0.000000
# 4 0.000000 0.000000 0.000000 -1.118567 0.000000 0.000000
# 5 0.000000 0.000000 0.000000 0.000000 0.038156 0.000000
# 6 0.000000 0.000000 0.000000 0.000000 0.000000 0.024585
#
#
# Mechanical properties :
#
#
# Convention : Reuss Voigt Hill
#
# Bulk Modulus (GPa) = 37.96333 45.51814 41.74073
# Shear Modulus (GPa) = -5.11492 25.01979 9.95243
#
# Velocity S-wave (km/s) = -1.45728 3.22303 2.03277
# Velocity P-wave (km/s) = 3.59589 5.72269 4.77910
#
# Compressibility (1/GPa) = 0.02634121
#
# Stress axis : x y z
#
# Youngs Moduli (GPa) = 67.46810 89.00320 45.72511
#
# Poissons Ratio (x) = 0.48583 0.26189
# Poissons Ratio (y) = 0.36828 -0.01797
# Poissons Ratio (z) = 0.38642 -0.03498
#
# Static dielectric constant tensor:
#      x y z
#    x 2.073740 0.000000 0.000000 
#    y 0.000000 2.037630 0.000000 
#    z 0.000000 0.000000 1.980610 
# 
# From -- ./inp_files/14530.got.cif
#   From: 2010.05.17/outbox.cif.g08.bks.cpg/sg21_8_cif.got.tgz:14530.got - 2010.06.03 23:14:55.
