data_PCOD9322453
_publ_section_title
;
Structure prediction by ZEFSAII (Michael W. Deem and Ramdas Pophale) SiO2 
 PCOD9322453
Probable space group: C 2 2 2
;
_chemical_formula_sum "Si O2"
_cell_formula_units_Z 34
_cell_length_a 10.503564
_cell_length_b 12.750667
_cell_length_c 11.168387
_cell_angle_alpha 90.000000
_cell_angle_beta 90.000000
_cell_angle_gamma 90.000000
_cell_volume 1495.753557
_symmetry_space_group_name_H-M "C 2 2 2"
_symmetry_group_IT_number 21
_symmetry_cell_setting 'orthorhombic'
loop_
_space_group_symop_operation_xyz
x,y,z
-x,-y,z
x,-y,-z
-x,y,-z
1/2+x,1/2+y,z
1/2-x,1/2-y,z
1/2+x,1/2-y,-z
1/2-x,1/2+y,-z
loop_
_atom_site_type_symbol
_atom_site_label
_atom_site_fract_x
_atom_site_fract_y
_atom_site_fract_z
Si Si1 0.116299 0.194243 0.363073
Si Si2 0.223221 0.909666 0.843723
Si Si3 0.987881 0.610759 0.291341
Si Si4 0.223093 0.368598 0.879028
Si Si5 0.500000 0.500000 0.500000
O O1 0.250000 0.250000 0.402203
O O2 0.122123 0.163203 0.221349
O O3 0.006813 0.282965 0.367295
O O4 0.086485 0.084001 0.427015
O O5 0.347558 0.892165 0.763846
O O6 0.190784 0.033251 0.836428
O O7 0.261655 0.878562 0.977840
O O8 0.000000 0.500000 0.357941
O O9 0.086411 0.609422 0.180690
O O10 0.250000 0.250000 0.843492
#
# Coordination Sequence:
#
# PCOD9322453 Si02
#       5
#     8   8   8   8   2
#     4  10  23  47  65  93 133 173 222 298 335 398
#     4   9  19  35  56  84 135 162 208 263 328 395
#     4   9  18  35  60  89 124 167 208 262 329 404
#     4  10  18  29  55  96 122 173 205 248 324 426
#     4  12  28  48  74  96 128 184 244 294 356 376
#
# _framework density 22.731017999999999
#
# number of rings (size 3 to 8) (size 9 to 14) (size 15 to 20)
#    0.000    2.353    0.000    2.824    3.294    2.824 
#   12.706    0.000    0.000    0.000    0.000    0.000 
#    0.000    0.000    0.000    0.000    0.000    0.000 
#
# Total GULP energy -94655.552785 kJ/mol
# GULP energy per Si atom -5567.973693 kJ/mol
# Density = 2.267928 g / cm^3
# Si number density = 22.731018 Si / 1000 Ang^3
#
#
#
# Elastic Constant Matrix: (Units=GPa)
#
#
# Indices 1 2 3 4 5 6 
#
# 1 27.5939 34.1467 16.6952 0.0000 0.0000 0.0000
# 2 34.1467 248.0448 44.0232 0.0000 0.0000 0.0000
# 3 16.6952 44.0232 87.3475 0.0000 0.0000 0.0000
# 4 0.0000 0.0000 0.0000 31.4294 0.0000 0.0000
# 5 0.0000 0.0000 0.0000 0.0000 6.9039 0.0000
# 6 0.0000 0.0000 0.0000 0.0000 0.0000 37.7477
#
#
#
# Elastic Compliance Matrix: (Units=1/GPa)
#
#
# Indices 1 2 3 4 5 6 
#
# 1 0.046574 -0.005306 -0.006228 0.000000 0.000000 0.000000
# 2 -0.005306 0.005032 -0.001522 0.000000 0.000000 0.000000
# 3 -0.006228 -0.001522 0.013406 0.000000 0.000000 0.000000
# 4 0.000000 0.000000 0.000000 0.031817 0.000000 0.000000
# 5 0.000000 0.000000 0.000000 0.000000 0.144846 0.000000
# 6 0.000000 0.000000 0.000000 0.000000 0.000000 0.026492
#
#
# Mechanical properties :
#
#
# Convention : Reuss Voigt Hill
#
# Bulk Modulus (GPa) = 25.70665 61.41295 43.55980
# Shear Modulus (GPa) = 16.27364 33.09094 24.68229
#
# Velocity S-wave (km/s) = 2.67857 3.81958 3.29879
# Velocity P-wave (km/s) = 4.57165 6.82116 5.80638
#
# Compressibility (1/GPa) = 0.03890043
#
# Stress axis : x y z
#
# Youngs Moduli (GPa) = 21.47116 198.72296 74.59392
#
# Poissons Ratio (x) = 1.05448 0.46454
# Poissons Ratio (y) = 0.11393 0.11353
# Poissons Ratio (z) = 0.13371 0.30245
#
# Static dielectric constant tensor:
#      x y z
#    x 1.870650 0.000000 0.000000 
#    y 0.000000 1.967800 0.000000 
#    z 0.000000 0.000000 1.863480 
# 
# From -- ./inp_files/23463.got.cif
#   From: 2010.05.17/outbox.cif.g08.bks.cpg/sg21_12_cif.got.tgz:23463.got - 2010.06.03 23:14:55.
