data_PCOD9322452
_publ_section_title
;
Structure prediction by ZEFSAII (Michael W. Deem and Ramdas Pophale) SiO2 
 PCOD9322452
Probable space group: C 2 2 2
;
_chemical_formula_sum "Si O2"
_cell_formula_units_Z 40
_cell_length_a 8.652149
_cell_length_b 16.760891
_cell_length_c 14.737057
_cell_angle_alpha 90.000000
_cell_angle_beta 90.000000
_cell_angle_gamma 90.000000
_cell_volume 2137.134499
_symmetry_space_group_name_H-M "C 2 2 2"
_symmetry_group_IT_number 21
_symmetry_cell_setting 'orthorhombic'
loop_
_space_group_symop_operation_xyz
x,y,z
-x,-y,z
x,-y,-z
-x,y,-z
1/2+x,1/2+y,z
1/2-x,1/2-y,z
1/2+x,1/2-y,-z
1/2-x,1/2+y,-z
loop_
_atom_site_type_symbol
_atom_site_label
_atom_site_fract_x
_atom_site_fract_y
_atom_site_fract_z
Si Si1 0.422638 0.353349 0.404228
Si Si2 0.066266 0.340541 0.402670
Si Si3 0.068644 0.765840 0.899419
Si Si4 0.355257 0.171042 0.764049
Si Si5 0.948273 0.088728 0.214681
O O1 0.500000 0.376911 0.500000
O O2 0.240712 0.372219 0.395362
O O3 0.430056 0.256655 0.399506
O O4 0.511719 0.390180 0.319224
O O5 0.000000 0.364219 0.500000
O O6 0.950858 0.361042 0.321384
O O7 0.250000 0.750000 0.901118
O O8 0.975127 0.701129 0.839609
O O9 0.037788 0.848812 0.848283
O O10 0.000000 0.767531 0.000000
O O11 0.250000 0.250000 0.739806
O O12 0.232736 0.106654 0.798437
O O13 0.000000 0.000000 0.194884
#
# Coordination Sequence:
#
# PCOD9322452 Si02
#       5
#     8   8   8   8   8
#     4  10  19  32  53  81 116 154 194 240 294 343
#     4  10  18  29  55  84 110 147 201 251 282 333
#     4  11  22  41  66  89 113 146 193 242 292 353
#     4  10  19  35  57  85 115 148 196 238 286 345
#     4  11  23  38  58  86 121 156 189 237 295 350
#
# _framework density 18.716650000000001
#
# number of rings (size 3 to 8) (size 9 to 14) (size 15 to 20)
#    0.000    1.600    4.000    4.200    2.800    0.800 
#    0.000    4.000    0.000    2.400    0.000    0.000 
#    0.000    0.000    0.000    0.000    0.000    0.000 
#
# Total GULP energy -111702.516285 kJ/mol
# GULP energy per Si atom -5585.125814 kJ/mol
# Density = 1.867405 g / cm^3
# Si number density = 18.716650 Si / 1000 Ang^3
#
#
#
# Elastic Constant Matrix: (Units=GPa)
#
#
# Indices 1 2 3 4 5 6 
#
# 1 173.2162 55.0492 69.7955 0.0000 0.0000 0.0000
# 2 55.0492 68.2046 43.2497 0.0000 0.0000 0.0000
# 3 69.7955 43.2497 140.1219 0.0000 0.0000 0.0000
# 4 0.0000 0.0000 0.0000 2.9475 0.0000 0.0000
# 5 0.0000 0.0000 0.0000 0.0000 39.7557 0.0000
# 6 0.0000 0.0000 0.0000 0.0000 0.0000 14.8866
#
#
#
# Elastic Compliance Matrix: (Units=1/GPa)
#
#
# Indices 1 2 3 4 5 6 
#
# 1 0.008476 -0.005177 -0.002624 0.000000 0.000000 0.000000
# 2 -0.005177 0.021392 -0.004024 0.000000 0.000000 0.000000
# 3 -0.002624 -0.004024 0.009686 0.000000 0.000000 0.000000
# 4 0.000000 0.000000 0.000000 0.339270 0.000000 0.000000
# 5 0.000000 0.000000 0.000000 0.000000 0.025154 0.000000
# 6 0.000000 0.000000 0.000000 0.000000 0.000000 0.067174
#
#
# Mechanical properties :
#
#
# Convention : Reuss Voigt Hill
#
# Bulk Modulus (GPa) = 62.87974 79.74794 71.31384
# Shear Modulus (GPa) = 9.99795 25.74784 17.87290
#
# Velocity S-wave (km/s) = 2.31373 3.71302 3.09353
# Velocity P-wave (km/s) = 6.38798 7.81553 7.13754
#
# Compressibility (1/GPa) = 0.01590337
#
# Stress axis : x y z
#
# Youngs Moduli (GPa) = 117.98463 46.74640 103.24532
#
# Poissons Ratio (x) = 0.24201 0.27090
# Poissons Ratio (y) = 0.61081 0.41547
# Poissons Ratio (z) = 0.30957 0.18811
#
# Static dielectric constant tensor:
#      x y z
#    x 1.654140 0.000000 0.000000 
#    y 0.000000 1.645790 0.000000 
#    z 0.000000 0.000000 1.628270 
# 
# From -- ./inp_files/22298.got.cif
#   From: 2010.05.17/outbox.cif.g08.bks.cpg/sg21_12_cif.got.tgz:22298.got - 2010.06.03 23:14:55.
