data_PCOD9322926
_publ_section_title
;
Structure prediction by ZEFSAII (Michael W. Deem and Ramdas Pophale) SiO2 
 PCOD9322926
Probable space group: C 2 2 2
;
_chemical_formula_sum "Si O2"
_cell_formula_units_Z 64
_cell_length_a 32.718001
_cell_length_b 9.682446
_cell_length_c 11.237961
_cell_angle_alpha 90.000000
_cell_angle_beta 90.000000
_cell_angle_gamma 90.000000
_cell_volume 3560.076788
_symmetry_space_group_name_H-M "C 2 2 2"
_symmetry_group_IT_number 21
_symmetry_cell_setting 'orthorhombic'
loop_
_space_group_symop_operation_xyz
x,y,z
-x,-y,z
x,-y,-z
-x,y,-z
1/2+x,1/2+y,z
1/2-x,1/2-y,z
1/2+x,1/2-y,-z
1/2-x,1/2+y,-z
loop_
_atom_site_type_symbol
_atom_site_label
_atom_site_fract_x
_atom_site_fract_y
_atom_site_fract_z
Si Si1 0.713665 0.037789 0.637246
Si Si2 0.418300 0.169166 0.868334
Si Si3 0.574617 0.154333 0.847995
Si Si4 0.710223 0.165359 0.979270
Si Si5 0.497150 0.341842 0.855868
Si Si6 0.172216 0.713948 0.227892
Si Si7 0.808161 0.006183 0.356949
Si Si8 0.841827 0.252565 0.753169
O O1 0.689606 0.923972 0.712631
O O2 0.713142 0.000000 0.500000
O O3 0.761300 0.037732 0.672898
O O4 0.688056 0.175930 0.657462
O O5 0.453937 0.271676 0.827051
O O6 0.375390 0.198794 0.804633
O O7 0.431181 0.010665 0.843614
O O8 0.414209 0.183626 0.012382
O O9 0.534483 0.243096 0.818228
O O10 0.611730 0.197759 0.762393
O O11 0.750000 0.250000 0.941407
O O12 0.677232 0.197133 0.878117
O O13 0.695456 0.229256 0.103106
O O14 0.715697 0.000000 0.000000
O O15 0.500000 0.500000 0.813492
O O16 0.500000 0.345090 0.000000
O O17 0.183448 0.839578 0.313087
O O18 0.837545 0.907213 0.280068
O O19 0.813649 0.000000 0.500000
#
# Coordination Sequence:
#
# PCOD9322926 Si02
#       8
#     8   8   8   8   8   8   8   8
#     4  11  22  41  63  82 111 161 214 261 296 336
#     4  10  19  36  56  85 121 157 192 234 292 364
#     4  10  19  36  56  85 121 157 192 234 292 364
#     4  12  24  38  56  87 124 159 197 239 304 373
#     4   9  19  33  55  85 120 155 190 231 286 356
#     4  12  23  38  60  87 121 158 200 251 300 359
#     4  11  26  43  59  84 117 161 216 261 300 340
#     4  12  23  38  60  87 121 158 200 251 300 359
#
# _framework density 17.977141
#
# number of rings (size 3 to 8) (size 9 to 14) (size 15 to 20)
#    0.000    1.125    3.750    3.375    3.500    3.500 
#    0.000    0.000    0.000    0.000    0.000    5.250 
#    0.000    0.000    0.000    0.000    0.000    0.000 
#
# Total GULP energy -178659.439661 kJ/mol
# GULP energy per Si atom -5583.107489 kJ/mol
# Density = 1.793622 g / cm^3
# Si number density = 17.977141 Si / 1000 Ang^3
#
#
#
# Elastic Constant Matrix: (Units=GPa)
#
#
# Indices 1 2 3 4 5 6 
#
# 1 86.8778 34.6357 9.5752 0.0000 0.0000 0.0000
# 2 34.6357 69.5321 7.0160 0.0000 0.0000 0.0000
# 3 9.5752 7.0160 44.7464 0.0000 0.0000 0.0000
# 4 0.0000 0.0000 0.0000 28.6340 0.0000 0.0000
# 5 0.0000 0.0000 0.0000 0.0000 115.1875 0.0000
# 6 0.0000 0.0000 0.0000 0.0000 0.0000 23.4545
#
#
#
# Elastic Compliance Matrix: (Units=1/GPa)
#
#
# Indices 1 2 3 4 5 6 
#
# 1 0.014538 -0.007039 -0.002007 0.000000 0.000000 0.000000
# 2 -0.007039 0.018021 -0.001319 0.000000 0.000000 0.000000
# 3 -0.002007 -0.001319 0.022985 0.000000 0.000000 0.000000
# 4 0.000000 0.000000 0.000000 0.034924 0.000000 0.000000
# 5 0.000000 0.000000 0.000000 0.000000 0.008681 0.000000
# 6 0.000000 0.000000 0.000000 0.000000 0.000000 0.042636
#
#
# Mechanical properties :
#
#
# Convention : Reuss Voigt Hill
#
# Bulk Modulus (GPa) = 28.72548 33.73448 31.22998
# Shear Modulus (GPa) = 28.71575 43.45048 36.08312
#
# Velocity S-wave (km/s) = 4.00102 4.92162 4.48500
# Velocity P-wave (km/s) = 6.11210 7.14859 6.65057
#
# Compressibility (1/GPa) = 0.03481229
#
# Stress axis : x y z
#
# Youngs Moduli (GPa) = 68.78533 55.48966 43.50747
#
# Poissons Ratio (x) = 0.39060 0.08733
# Poissons Ratio (y) = 0.48419 0.05740
# Poissons Ratio (z) = 0.13807 0.07321
#
# Static dielectric constant tensor:
#      x y z
#    x 1.604880 0.000000 0.000000 
#    y 0.000000 1.616580 0.000000 
#    z 0.000000 0.000000 1.611890 
# 
# From -- ./inp_files/23136.got.cif
#   From: 2010.05.17/outbox.cif.g08.bks.cpg/sg21_12_cif.got.tgz:23136.got - 2010.06.03 23:14:55.
