data_PCOD9322361
_publ_section_title
;
Structure prediction by ZEFSAII (Michael W. Deem and Ramdas Pophale) SiO2 
 PCOD9322361
Probable space group: C 2 2 2
;
_chemical_formula_sum "Si O2"
_cell_formula_units_Z 28
_cell_length_a 5.325851
_cell_length_b 14.727334
_cell_length_c 15.474623
_cell_angle_alpha 90.000000
_cell_angle_beta 90.000000
_cell_angle_gamma 90.000000
_cell_volume 1213.761131
_symmetry_space_group_name_H-M "C 2 2 2"
_symmetry_group_IT_number 21
_symmetry_cell_setting 'orthorhombic'
loop_
_space_group_symop_operation_xyz
x,y,z
-x,-y,z
x,-y,-z
-x,y,-z
1/2+x,1/2+y,z
1/2-x,1/2-y,z
1/2+x,1/2-y,-z
1/2-x,1/2+y,-z
loop_
_atom_site_type_symbol
_atom_site_label
_atom_site_fract_x
_atom_site_fract_y
_atom_site_fract_z
Si Si1 0.000000 0.808078 0.000000
Si Si2 0.242498 0.395976 0.537823
Si Si3 0.963715 0.108763 0.817087
Si Si4 0.954719 0.393993 0.266930
O O1 0.750000 0.750000 0.979555
O O2 0.080070 0.866354 0.916296
O O3 0.243219 0.500000 0.500000
O O4 0.500000 0.358519 0.500000
O O5 0.179124 0.394538 0.638914
O O6 0.000000 0.348120 0.500000
O O7 0.734332 0.142000 0.755279
O O8 0.236795 0.146471 0.791771
O O9 0.000000 0.000000 0.807339
O O10 0.000000 0.500000 0.247399
#
# Coordination Sequence:
#
# PCOD9322361 Si02
#       4
#     4   8   8   8
#     4  12  25  44  65  86 114 154 212 258 303 370
#     4  10  17  24  42  71 118 163 188 217 286 348
#     4  10  22  37  60  85 120 156 196 243 313 358
#     4  10  18  31  49  81 119 164 186 237 289 366
#
# _framework density 23.06879
#
# number of rings (size 3 to 8) (size 9 to 14) (size 15 to 20)
#    0.000    1.714    2.857    3.857    8.000    0.000 
#    0.000    5.714    0.000    0.000    0.000    0.000 
#    0.000   64.000    0.000    0.000    0.000    0.000 
#
# Total GULP energy -77976.262261 kJ/mol
# GULP energy per Si atom -5569.733019 kJ/mol
# Density = 2.301628 g / cm^3
# Si number density = 23.068790 Si / 1000 Ang^3
#
#
#
# Elastic Constant Matrix: (Units=GPa)
#
#
# Indices 1 2 3 4 5 6 
#
# 1 250.0169 28.6579 62.2146 0.0000 0.0000 0.0000
# 2 28.6579 82.9503 16.5510 0.0000 0.0000 0.0000
# 3 62.2146 16.5510 130.6592 0.0000 0.0000 0.0000
# 4 0.0000 0.0000 0.0000 164.5356 0.0000 0.0000
# 5 0.0000 0.0000 0.0000 0.0000 44.8124 0.0000
# 6 0.0000 0.0000 0.0000 0.0000 0.0000 -3.6070
#
#
#
# Elastic Compliance Matrix: (Units=1/GPa)
#
#
# Indices 1 2 3 4 5 6 
#
# 1 0.004650 -0.001195 -0.002063 0.000000 0.000000 0.000000
# 2 -0.001195 0.012675 -0.001037 0.000000 0.000000 0.000000
# 3 -0.002063 -0.001037 0.008767 0.000000 0.000000 0.000000
# 4 0.000000 0.000000 0.000000 0.006078 0.000000 0.000000
# 5 0.000000 0.000000 0.000000 0.000000 0.022315 0.000000
# 6 0.000000 0.000000 0.000000 0.000000 0.000000 -0.277235
#
#
# Mechanical properties :
#
#
# Convention : Reuss Voigt Hill
#
# Bulk Modulus (GPa) = 57.13152 75.38592 66.25872
# Shear Modulus (GPa) = -24.00076 64.89503 20.44714
#
# Velocity S-wave (km/s) = -3.22902 5.30963 2.98040
# Velocity P-wave (km/s) = 3.30414 8.38685 6.37403
#
# Compressibility (1/GPa) = 0.01750347
#
# Stress axis : x y z
#
# Youngs Moduli (GPa) = 215.05378 78.89499 114.06382
#
# Poissons Ratio (x) = 0.09427 0.23529
# Poissons Ratio (y) = 0.25697 0.11824
# Poissons Ratio (z) = 0.44361 0.08178
#
# Static dielectric constant tensor:
#      x y z
#    x 1.871130 0.000000 0.000000 
#    y 0.000000 1.846460 0.000000 
#    z 0.000000 0.000000 1.900450 
# 
# From -- ./inp_files/20549.got.cif
#   From: 2010.05.17/outbox.cif.g08.bks.cpg/sg21_11_cif.got.tgz:20549.got - 2010.06.03 23:14:55.
