data_PCOD9322557
_publ_section_title
;
Structure prediction by ZEFSAII (Michael W. Deem and Ramdas Pophale) SiO2 
 PCOD9322557
Probable space group: C 2 2 2
;
_chemical_formula_sum "Si O2"
_cell_formula_units_Z 52
_cell_length_a 13.254124
_cell_length_b 18.079240
_cell_length_c 11.226806
_cell_angle_alpha 90.000000
_cell_angle_beta 90.000000
_cell_angle_gamma 90.000000
_cell_volume 2690.217648
_symmetry_space_group_name_H-M "C 2 2 2"
_symmetry_group_IT_number 21
_symmetry_cell_setting 'orthorhombic'
loop_
_space_group_symop_operation_xyz
x,y,z
-x,-y,z
x,-y,-z
-x,y,-z
1/2+x,1/2+y,z
1/2-x,1/2-y,z
1/2+x,1/2-y,-z
1/2-x,1/2+y,-z
loop_
_atom_site_type_symbol
_atom_site_label
_atom_site_fract_x
_atom_site_fract_y
_atom_site_fract_z
Si Si1 0.634322 0.822318 0.322521
Si Si2 0.000000 0.500000 0.190164
Si Si3 0.189519 0.517484 0.636054
Si Si4 0.750000 0.750000 0.522681
Si Si5 0.593816 0.313417 0.070689
Si Si6 0.441608 0.155120 0.813752
Si Si7 0.250000 0.750000 0.892947
Si Si8 0.717805 0.374676 0.283568
O O1 0.701452 0.895039 0.349735
O O2 0.658987 0.770361 0.433342
O O3 0.515919 0.836446 0.300747
O O4 0.673601 0.790645 0.196798
O O5 0.096605 0.496406 0.275561
O O6 0.015302 0.579380 0.128043
O O7 0.161943 0.500000 0.500000
O O8 0.276013 0.459624 0.673429
O O9 0.716579 0.682347 0.606668
O O10 0.559640 0.231125 0.113140
O O11 0.632575 0.356280 0.187010
O O12 0.500000 0.347575 0.000000
O O13 0.686373 0.303084 0.979116
O O14 0.326022 0.142797 0.777326
#
# Coordination Sequence:
#
# PCOD9322557 Si02
#       8
#     8   4   8   4   8   8   4   8
#     4  10  22  34  57  94 121 157 199 256 311 366
#     4   8  19  28  51  88 128 154 191 223 300 388
#     4  10  18  34  55  84 127 162 190 242 307 373
#     4  11  19  34  54  90 127 151 208 244 302 381
#     4  12  22  38  62  83 117 163 208 266 295 353
#     4  10  18  35  55  86 121 158 194 242 303 371
#     4  11  21  38  60  84 117 153 212 254 302 343
#     4  11  21  36  59  89 121 166 207 240 309 373
#
# _framework density 19.329291000000001
#
# number of rings (size 3 to 8) (size 9 to 14) (size 15 to 20)
#    0.000    1.538    6.154    0.231    0.000    0.615 
#    0.000    1.154    0.000    1.846    0.000    1.077 
#    0.000    0.000    0.000    0.000    0.000    0.000 
#
# Total GULP energy -144897.963206 kJ/mol
# GULP energy per Si atom -5572.998585 kJ/mol
# Density = 1.928530 g / cm^3
# Si number density = 19.329291 Si / 1000 Ang^3
#
#
#
# Elastic Constant Matrix: (Units=GPa)
#
#
# Indices 1 2 3 4 5 6 
#
# 1 69.1937 9.5086 26.0090 0.0000 0.0000 0.0000
# 2 9.5086 81.8909 25.7475 0.0000 0.0000 0.0000
# 3 26.0090 25.7475 104.1006 0.0000 0.0000 0.0000
# 4 0.0000 0.0000 0.0000 1.5395 0.0000 0.0000
# 5 0.0000 0.0000 0.0000 0.0000 -79.6819 0.0000
# 6 0.0000 0.0000 0.0000 0.0000 0.0000 19.9536
#
#
#
# Elastic Compliance Matrix: (Units=1/GPa)
#
#
# Indices 1 2 3 4 5 6 
#
# 1 0.015982 -0.000651 -0.003832 0.000000 0.000000 0.000000
# 2 -0.000651 0.013268 -0.003119 0.000000 0.000000 0.000000
# 3 -0.003832 -0.003119 0.011335 0.000000 0.000000 0.000000
# 4 0.000000 0.000000 0.000000 0.649551 0.000000 0.000000
# 5 0.000000 0.000000 0.000000 0.000000 -0.012550 0.000000
# 6 0.000000 0.000000 0.000000 0.000000 0.000000 0.050116
#
#
# Mechanical properties :
#
#
# Convention : Reuss Voigt Hill
#
# Bulk Modulus (GPa) = 39.39973 41.96840 40.68407
# Shear Modulus (GPa) = 6.65455 1.29025 3.97240
#
# Velocity S-wave (km/s) = 1.85747 0.81790 1.43512
# Velocity P-wave (km/s) = 5.00279 4.75935 4.88259
#
# Compressibility (1/GPa) = 0.02538088
#
# Stress axis : x y z
#
# Youngs Moduli (GPa) = 62.57024 75.37184 88.22296
#
# Poissons Ratio (x) = 0.04906 0.33808
# Poissons Ratio (y) = 0.04073 0.27516
# Poissons Ratio (z) = 0.23977 0.23508
#
# Static dielectric constant tensor:
#      x y z
#    x 1.676860 0.000000 0.000000 
#    y 0.000000 1.789410 0.000000 
#    z 0.000000 0.000000 1.682400 
# 
# From -- ./inp_files/25425.got.cif
#   From: 2010.05.17/outbox.cif.g08.bks.cpg/sg21_13_cif.got.tgz:25425.got - 2010.06.03 23:14:55.
