data_PCOD9322160
_publ_section_title
;
Structure prediction by ZEFSAII (Michael W. Deem and Ramdas Pophale) SiO2 
 PCOD9322160
Probable space group: C 2 2 21
;
_chemical_formula_sum "Si O2"
_cell_formula_units_Z 52
_cell_length_a 23.918238
_cell_length_b 6.853435
_cell_length_c 12.708905
_cell_angle_alpha 90.000000
_cell_angle_beta 90.000000
_cell_angle_gamma 90.000000
_cell_volume 2083.270262
_symmetry_space_group_name_H-M "C 2 2 21"
_symmetry_group_IT_number 20
_symmetry_cell_setting 'orthorhombic'
loop_
_space_group_symop_operation_xyz
x,y,z
-x,-y,1/2+z
x,-y,-z
-x,y,1/2-z
1/2+x,1/2+y,z
1/2-x,1/2-y,1/2+z
1/2+x,1/2-y,-z
1/2-x,1/2+y,1/2-z
loop_
_atom_site_type_symbol
_atom_site_label
_atom_site_fract_x
_atom_site_fract_y
_atom_site_fract_z
Si Si1 0.219717 0.772552 0.083795
Si Si2 0.708324 0.188837 0.860711
Si Si3 0.963330 0.000000 0.500000
Si Si4 0.060680 0.832964 0.218175
Si Si5 0.538453 0.263355 0.660198
Si Si6 0.172234 0.172452 0.704514
Si Si7 0.341935 0.745594 0.136390
O O1 0.214542 0.544585 0.119201
O O2 0.191948 0.891693 0.178136
O O3 0.286077 0.814142 0.077458
O O4 0.191075 0.781633 0.970986
O O5 0.770962 0.266630 0.835990
O O6 0.670363 0.211075 0.759245
O O7 0.933984 0.123418 0.593685
O O8 0.001069 0.154232 0.434725
O O9 0.113562 0.725572 0.269757
O O10 0.000000 0.753418 0.250000
O O11 0.059601 0.046506 0.273574
O O12 0.500000 0.162194 0.750000
O O13 0.596037 0.178848 0.613366
O O14 0.160457 0.990443 0.628690
#
# Coordination Sequence:
#
# PCOD9322160 Si02
#       7
#     8   8   4   8   8   8   8
#     4   9  18  29  44  63  85 117 146 174 216 254
#     4   9  18  31  43  61  89 116 144 177 213 258
#     4   8  14  24  38  62  92 112 134 172 218 260
#     4   8  15  25  39  62  88 111 137 174 216 253
#     4   8  15  25  39  62  89 114 138 172 218 255
#     4   9  17  29  45  66  87 111 145 179 212 253
#     4   9  17  29  45  64  88 112 144 180 212 253
#
# _framework density 24.960757000000001
#
# number of rings (size 3 to 8) (size 9 to 14) (size 15 to 20)
#    0.000    3.692    0.000    0.000    0.000    9.231 
#    0.000    0.000    0.000    0.923    0.000    0.000 
#    0.000    0.000    0.000    0.000    0.000    0.000 
#
# Total GULP energy -144938.897228 kJ/mol
# GULP energy per Si atom -5574.572970 kJ/mol
# Density = 2.490395 g / cm^3
# Si number density = 24.960757 Si / 1000 Ang^3
#
#
#
# Elastic Constant Matrix: (Units=GPa)
#
#
# Indices 1 2 3 4 5 6 
#
# 1 113.2536 2.0947 -23.8506 0.0000 0.0000 0.0000
# 2 2.0947 71.8692 11.8480 0.0000 0.0000 0.0000
# 3 -23.8506 11.8480 114.1800 0.0000 0.0000 0.0000
# 4 0.0000 0.0000 0.0000 14.0753 0.0000 0.0000
# 5 0.0000 0.0000 0.0000 0.0000 -1.5150 0.0000
# 6 0.0000 0.0000 0.0000 0.0000 0.0000 97.6402
#
#
#
# Elastic Compliance Matrix: (Units=1/GPa)
#
#
# Indices 1 2 3 4 5 6 
#
# 1 0.009261 -0.000599 0.001997 0.000000 0.000000 0.000000
# 2 -0.000599 0.014195 -0.001598 0.000000 0.000000 0.000000
# 3 0.001997 -0.001598 0.009341 0.000000 0.000000 0.000000
# 4 0.000000 0.000000 0.000000 0.071046 0.000000 0.000000
# 5 0.000000 0.000000 0.000000 0.000000 -0.660073 0.000000
# 6 0.000000 0.000000 0.000000 0.000000 0.000000 0.010242
#
#
# Mechanical properties :
#
#
# Convention : Reuss Voigt Hill
#
# Bulk Modulus (GPa) = 30.86756 31.05409 30.96082
# Shear Modulus (GPa) = -9.34950 42.65415 16.65232
#
# Velocity S-wave (km/s) = -1.93748 4.13831 2.58571
# Velocity P-wave (km/s) = 2.71812 5.94157 4.62009
#
# Compressibility (1/GPa) = 0.03239647
#
# Stress axis : x y z
#
# Youngs Moduli (GPa) = 107.97598 70.44689 107.05467
#
# Poissons Ratio (x) = 0.04220 -0.21376
# Poissons Ratio (y) = 0.06469 0.17109
# Poissons Ratio (z) = -0.21560 0.11258
#
# Static dielectric constant tensor:
#      x y z
#    x 2.031300 0.000000 0.000000 
#    y 0.000000 2.081620 0.000000 
#    z 0.000000 0.000000 1.943320 
# 
# From -- ./inp_files/22078.got.cif
#   From: 2010.05.17/outbox.cif.g08.bks.cpg/sg20_12_cif.got.tgz:22078.got - 2010.06.03 22:52:26.
