data_PCOD9322115
_publ_section_title
;
Structure prediction by ZEFSAII (Michael W. Deem and Ramdas Pophale) SiO2 
 PCOD9322115
Probable space group: C 2 2 21
;
_chemical_formula_sum "Si O2"
_cell_formula_units_Z 24
_cell_length_a 11.965510
_cell_length_b 8.758116
_cell_length_c 9.223188
_cell_angle_alpha 90.000000
_cell_angle_beta 90.000000
_cell_angle_gamma 90.000000
_cell_volume 966.546980
_symmetry_space_group_name_H-M "C 2 2 21"
_symmetry_group_IT_number 20
_symmetry_cell_setting 'orthorhombic'
loop_
_space_group_symop_operation_xyz
x,y,z
-x,-y,1/2+z
x,-y,-z
-x,y,1/2-z
1/2+x,1/2+y,z
1/2-x,1/2-y,1/2+z
1/2+x,1/2-y,-z
1/2-x,1/2+y,1/2-z
loop_
_atom_site_type_symbol
_atom_site_label
_atom_site_fract_x
_atom_site_fract_y
_atom_site_fract_z
Si Si1 0.866368 0.283400 0.741935
Si Si2 0.500000 0.214252 0.750000
Si Si3 0.081673 0.500000 0.000000
Si Si4 0.678705 0.454334 0.843680
O O1 0.846961 0.380494 0.594808
O O2 0.800381 0.380187 0.860843
O O3 0.000000 0.273810 0.750000
O O4 0.819383 0.113594 0.739715
O O5 0.604659 0.328796 0.761663
O O6 0.488648 0.103457 0.611826
O O7 0.628981 0.500000 0.000000
#
# Coordination Sequence:
#
# PCOD9322115 Si02
#       4
#     8   4   4   8
#     4  12  28  49  78 119 157 215 275 346 416 493
#     4  12  26  54  84 126 172 226 284 350 440 502
#     4  12  26  50  80 122 164 216 284 342 420 508
#     4  12  28  54  81 119 170 223 282 349 418 510
#
# _framework density 24.830660999999999
#
# number of rings (size 3 to 8) (size 9 to 14) (size 15 to 20)
#    0.000    0.000    6.667    2.000    2.333    0.000 
#    3.000    0.000    0.000    0.000    0.000    0.000 
#    0.000    0.000    0.000    0.000    0.000    0.000 
#
# Total GULP energy -67196.743951 kJ/mol
# GULP energy per Si atom -5599.728663 kJ/mol
# Density = 2.477415 g / cm^3
# Si number density = 24.830661 Si / 1000 Ang^3
#
#
#
# Elastic Constant Matrix: (Units=GPa)
#
#
# Indices 1 2 3 4 5 6 
#
# 1 108.3606 74.9430 3.8039 0.0000 0.0000 0.0000
# 2 74.9430 245.0119 55.7077 0.0000 0.0000 0.0000
# 3 3.8039 55.7077 80.3186 0.0000 0.0000 0.0000
# 4 0.0000 0.0000 0.0000 36.4781 0.0000 0.0000
# 5 0.0000 0.0000 0.0000 0.0000 32.6081 0.0000
# 6 0.0000 0.0000 0.0000 0.0000 0.0000 51.0269
#
#
#
# Elastic Compliance Matrix: (Units=1/GPa)
#
#
# Indices 1 2 3 4 5 6 
#
# 1 0.012070 -0.004229 0.002361 0.000000 0.000000 0.000000
# 2 -0.004229 0.006327 -0.004188 0.000000 0.000000 0.000000
# 3 0.002361 -0.004188 0.015243 0.000000 0.000000 0.000000
# 4 0.000000 0.000000 0.000000 0.027414 0.000000 0.000000
# 5 0.000000 0.000000 0.000000 0.000000 0.030667 0.000000
# 6 0.000000 0.000000 0.000000 0.000000 0.000000 0.019598
#
#
# Mechanical properties :
#
#
# Convention : Reuss Voigt Hill
#
# Bulk Modulus (GPa) = 46.44750 78.06670 62.25710
# Shear Modulus (GPa) = 38.28271 43.97171 41.12721
#
# Velocity S-wave (km/s) = 3.93077 4.21273 4.07419
# Velocity P-wave (km/s) = 6.27277 7.42770 6.87453
#
# Compressibility (1/GPa) = 0.02152968
#
# Stress axis : x y z
#
# Youngs Moduli (GPa) = 82.84790 158.04758 65.60207
#
# Poissons Ratio (x) = 0.66837 -0.15492
# Poissons Ratio (y) = 0.35036 0.27475
# Poissons Ratio (z) = -0.19564 0.66193
#
# Static dielectric constant tensor:
#      x y z
#    x 1.999440 0.000000 0.000000 
#    y 0.000000 1.926110 0.000000 
#    z 0.000000 0.000000 2.021450 
# 
# From -- ./inp_files/7753.got.cif
#   From: 2010.05.17/outbox.cif.g08.bks.cpg/sg20_4_cif.got.tgz:7753.got - 2010.06.03 22:52:26.
