data_PCOD9322315
_publ_section_title
;
Structure prediction by ZEFSAII (Michael W. Deem and Ramdas Pophale) SiO2 
 PCOD9322315
Probable space group: C 2 2 2
;
_chemical_formula_sum "Si O2"
_cell_formula_units_Z 34
_cell_length_a 5.393920
_cell_length_b 14.237734
_cell_length_c 20.295986
_cell_angle_alpha 90.000000
_cell_angle_beta 90.000000
_cell_angle_gamma 90.000000
_cell_volume 1558.674859
_symmetry_space_group_name_H-M "C 2 2 2"
_symmetry_group_IT_number 21
_symmetry_cell_setting 'orthorhombic'
loop_
_space_group_symop_operation_xyz
x,y,z
-x,-y,z
x,-y,-z
-x,y,-z
1/2+x,1/2+y,z
1/2-x,1/2-y,z
1/2+x,1/2-y,-z
1/2-x,1/2+y,-z
loop_
_atom_site_type_symbol
_atom_site_label
_atom_site_fract_x
_atom_site_fract_y
_atom_site_fract_z
Si Si1 0.755727 0.361366 0.320741
Si Si2 0.754425 0.135573 0.602312
Si Si3 0.248767 0.391218 0.971738
Si Si4 0.248414 0.939967 0.175181
Si Si5 0.500000 0.000000 0.500000
O O1 0.750000 0.250000 0.324017
O O2 0.520344 0.390266 0.365847
O O3 0.725984 0.389880 0.245222
O O4 0.028382 0.387168 0.347325
O O5 0.750000 0.250000 0.588796
O O6 0.677551 0.070850 0.540954
O O7 0.240381 0.384128 0.893123
O O8 0.248252 0.500000 0.000000
O O9 0.500000 0.351459 0.000000
O O10 0.000000 0.349634 0.000000
O O11 0.500000 0.000000 0.177052
O O12 0.000000 0.000000 0.167960
#
# Coordination Sequence:
#
# PCOD9322315 Si02
#       5
#     8   8   8   8   2
#     4  10  24  45  63  89 132 170 205 264 335 385
#     4  10  25  47  70  99 138 172 213 275 333 396
#     4  10  16  30  46  79 120 155 195 263 327 367
#     4  12  21  32  61  92 114 157 220 267 307 385
#     4  12  28  46  80 108 132 182 234 266 336 428
#
# _framework density 21.813400999999999
#
# number of rings (size 3 to 8) (size 9 to 14) (size 15 to 20)
#    0.000    1.412    4.706    1.412    4.941    4.706 
#    0.000    0.000    0.000    1.412    0.000    0.000 
#    0.000    0.000    0.000    0.000    0.000    0.000 
#
# Total GULP energy -94940.437360 kJ/mol
# GULP energy per Si atom -5584.731609 kJ/mol
# Density = 2.176375 g / cm^3
# Si number density = 21.813401 Si / 1000 Ang^3
#
#
#
# Elastic Constant Matrix: (Units=GPa)
#
#
# Indices 1 2 3 4 5 6 
#
# 1 207.5013 31.4839 64.8528 0.0000 0.0000 0.0000
# 2 31.4839 97.3633 45.4822 0.0000 0.0000 0.0000
# 3 64.8528 45.4822 173.9436 0.0000 0.0000 0.0000
# 4 0.0000 0.0000 0.0000 -401.8900 0.0000 0.0000
# 5 0.0000 0.0000 0.0000 0.0000 40.9788 0.0000
# 6 0.0000 0.0000 0.0000 0.0000 0.0000 -12.1232
#
#
#
# Elastic Compliance Matrix: (Units=1/GPa)
#
#
# Indices 1 2 3 4 5 6 
#
# 1 0.005529 -0.000940 -0.001816 0.000000 0.000000 0.000000
# 2 -0.000940 0.011860 -0.002751 0.000000 0.000000 0.000000
# 3 -0.001816 -0.002751 0.007145 0.000000 0.000000 0.000000
# 4 0.000000 0.000000 0.000000 -0.002488 0.000000 0.000000
# 5 0.000000 0.000000 0.000000 0.000000 0.024403 0.000000
# 6 0.000000 0.000000 0.000000 0.000000 0.000000 -0.082486
#
#
# Mechanical properties :
#
#
# Convention : Reuss Voigt Hill
#
# Bulk Modulus (GPa) = 73.95485 84.71621 79.33553
# Shear Modulus (GPa) = -243.69288 -52.14094 -147.91691
#
# Velocity S-wave (km/s) = -10.58110 -4.89439 -8.24362
# Velocity P-wave (km/s) = 10.73790 2.64216 7.35940
#
# Compressibility (1/GPa) = 0.01352176
#
# Stress axis : x y z
#
# Youngs Moduli (GPa) = 180.85283 84.31965 139.95347
#
# Poissons Ratio (x) = 0.07924 0.25413
# Poissons Ratio (y) = 0.16996 0.38496
# Poissons Ratio (z) = 0.32840 0.23193
#
# Static dielectric constant tensor:
#      x y z
#    x 1.815330 0.000000 0.000000 
#    y 0.000000 1.810660 0.000000 
#    z 0.000000 0.000000 1.965800 
# 
# From -- ./inp_files/34496.got.cif
#   From: 2010.05.17/outbox.cif.g08.bks.cpg/sg21_18_cif.got.tgz:34496.got - 2010.06.03 23:14:55.
