data_PCOD9322568
_publ_section_title
;
Structure prediction by ZEFSAII (Michael W. Deem and Ramdas Pophale) SiO2 
 PCOD9322568
Probable space group: C 2 2 2
;
_chemical_formula_sum "Si O2"
_cell_formula_units_Z 58
_cell_length_a 16.863766
_cell_length_b 19.963578
_cell_length_c 8.288905
_cell_angle_alpha 90.000000
_cell_angle_beta 90.000000
_cell_angle_gamma 90.000000
_cell_volume 2790.551941
_symmetry_space_group_name_H-M "C 2 2 2"
_symmetry_group_IT_number 21
_symmetry_cell_setting 'orthorhombic'
loop_
_space_group_symop_operation_xyz
x,y,z
-x,-y,z
x,-y,-z
-x,y,-z
1/2+x,1/2+y,z
1/2-x,1/2-y,z
1/2+x,1/2-y,-z
1/2-x,1/2+y,-z
loop_
_atom_site_type_symbol
_atom_site_label
_atom_site_fract_x
_atom_site_fract_y
_atom_site_fract_z
Si Si1 0.175651 0.204553 0.971996
Si Si2 0.000000 0.000000 0.000000
Si Si3 0.091764 0.114036 0.501906
Si Si4 0.606604 0.753809 0.635731
Si Si5 0.847650 0.065791 0.153967
Si Si6 0.691659 0.816058 0.364927
Si Si7 0.779945 0.043318 0.659683
Si Si8 0.047123 0.723083 0.843948
O O1 0.250000 0.250000 0.026146
O O2 0.154740 0.232399 0.794161
O O3 0.188787 0.125761 0.951226
O O4 0.096551 0.214497 0.080303
O O5 0.935461 0.045483 0.093663
O O6 0.104231 0.193752 0.504787
O O7 0.134722 0.092774 0.666356
O O8 0.130297 0.069761 0.364503
O O9 0.000000 0.100599 0.500000
O O10 0.650850 0.812631 0.541932
O O11 0.519046 0.764908 0.707742
O O12 0.787418 0.004695 0.186321
O O13 0.750000 0.750000 0.358542
O O14 0.734849 0.886376 0.338598
O O15 0.619517 0.815478 0.237716
O O16 0.756396 0.000000 0.500000
O O17 0.000000 0.694208 0.000000
#
# Coordination Sequence:
#
# PCOD9322568 Si02
#       8
#     8   2   8   8   8   8   8   8
#     4  10  22  40  64  93 131 174 218 262 324 392
#     4  12  24  36  54  84 132 184 222 244 304 416
#     4  10  18  34  58  83 127 159 197 247 313 373
#     4  10  21  35  63  99 124 158 207 279 325 372
#     4  10  24  37  56  86 129 175 213 249 317 393
#     4  12  22  38  69 100 126 161 220 276 325 380
#     4  10  23  40  59  94 127 164 212 263 331 382
#     4  10  23  40  60  98 130 163 206 272 329 387
#
# _framework density 20.784419
#
# number of rings (size 3 to 8) (size 9 to 14) (size 15 to 20)
#    0.000    1.655    1.379    2.897    8.690    4.138 
#    0.000    0.000    0.000    1.655    3.586    0.000 
#    0.000    0.000    0.000    0.000    0.000    0.000 
#
# Total GULP energy -161736.254481 kJ/mol
# GULP energy per Si atom -5577.112223 kJ/mol
# Density = 2.073711 g / cm^3
# Si number density = 20.784419 Si / 1000 Ang^3
#
#
#
# Elastic Constant Matrix: (Units=GPa)
#
#
# Indices 1 2 3 4 5 6 
#
# 1 118.3024 68.3026 37.8656 0.0000 0.0000 0.0000
# 2 68.3026 133.5718 40.6019 0.0000 0.0000 0.0000
# 3 37.8656 40.6019 77.5158 0.0000 0.0000 0.0000
# 4 0.0000 0.0000 0.0000 17.1103 0.0000 0.0000
# 5 0.0000 0.0000 0.0000 0.0000 38.2465 0.0000
# 6 0.0000 0.0000 0.0000 0.0000 0.0000 19.7972
#
#
#
# Elastic Compliance Matrix: (Units=1/GPa)
#
#
# Indices 1 2 3 4 5 6 
#
# 1 0.012676 -0.005471 -0.003327 0.000000 0.000000 0.000000
# 2 -0.005471 0.011265 -0.003228 0.000000 0.000000 0.000000
# 3 -0.003327 -0.003228 0.016217 0.000000 0.000000 0.000000
# 4 0.000000 0.000000 0.000000 0.058444 0.000000 0.000000
# 5 0.000000 0.000000 0.000000 0.000000 0.026146 0.000000
# 6 0.000000 0.000000 0.000000 0.000000 0.000000 0.050512
#
#
# Mechanical properties :
#
#
# Convention : Reuss Voigt Hill
#
# Bulk Modulus (GPa) = 62.08579 69.21447 65.65013
# Shear Modulus (GPa) = 24.42817 27.20546 25.81682
#
# Velocity S-wave (km/s) = 3.43200 3.62185 3.52820
# Velocity P-wave (km/s) = 6.75581 7.13189 6.94639
#
# Compressibility (1/GPa) = 0.01610674
#
# Stress axis : x y z
#
# Youngs Moduli (GPa) = 78.88709 88.76681 61.66542
#
# Poissons Ratio (x) = 0.48563 0.20514
# Poissons Ratio (y) = 0.43158 0.19907
# Poissons Ratio (z) = 0.26243 0.28656
#
# Static dielectric constant tensor:
#      x y z
#    x 1.749050 0.000000 0.000000 
#    y 0.000000 1.800630 0.000000 
#    z 0.000000 0.000000 1.829080 
# 
# From -- ./inp_files/16704.got.cif
#   From: 2010.05.17/outbox.cif.g08.bks.cpg/sg21_9_cif.got.tgz:16704.got - 2010.06.03 23:14:55.
