data_PCOD9322633
_publ_section_title
;
Structure prediction by ZEFSAII (Michael W. Deem and Ramdas Pophale) SiO2 
 PCOD9322633
Probable space group: C 2 2 2
;
_chemical_formula_sum "Si O2"
_cell_formula_units_Z 40
_cell_length_a 11.640543
_cell_length_b 11.956105
_cell_length_c 12.708113
_cell_angle_alpha 90.000000
_cell_angle_beta 90.000000
_cell_angle_gamma 90.000000
_cell_volume 1768.658672
_symmetry_space_group_name_H-M "C 2 2 2"
_symmetry_group_IT_number 21
_symmetry_cell_setting 'orthorhombic'
loop_
_space_group_symop_operation_xyz
x,y,z
-x,-y,z
x,-y,-z
-x,y,-z
1/2+x,1/2+y,z
1/2-x,1/2-y,z
1/2+x,1/2-y,-z
1/2-x,1/2+y,-z
loop_
_atom_site_type_symbol
_atom_site_label
_atom_site_fract_x
_atom_site_fract_y
_atom_site_fract_z
Si Si1 0.342158 0.122714 0.494698
Si Si2 0.987594 0.839145 0.815739
Si Si3 0.304273 0.495802 0.881215
Si Si4 0.090085 0.846092 0.416646
Si Si5 0.154491 0.657324 0.756085
O O1 0.214804 0.117178 0.545209
O O2 0.403724 0.211996 0.568582
O O3 0.344845 0.156114 0.371562
O O4 0.387885 0.000000 0.500000
O O5 0.038299 0.712842 0.804713
O O6 0.867060 0.874608 0.869370
O O7 0.956485 0.874655 0.696760
O O8 0.089105 0.916892 0.862957
O O9 0.204523 0.540516 0.802347
O O10 0.260654 0.500000 0.000000
O O11 0.000000 0.886584 0.500000
O O12 0.250000 0.750000 0.784427
#
# Coordination Sequence:
#
# PCOD9322633 Si02
#       5
#     8   8   8   8   8
#     4  11  22  36  58  89 133 170 216 259 325 409
#     4  10  19  35  62  91 130 165 215 277 333 399
#     4  10  21  38  66  96 123 166 231 280 338 398
#     4  11  20  36  57  90 124 168 216 251 331 413
#     4  10  18  37  61  92 129 167 207 276 339 389
#
# _framework density 22.616008999999998
#
# number of rings (size 3 to 8) (size 9 to 14) (size 15 to 20)
#    0.000    1.600    4.000    3.600    0.000    2.400 
#    0.000    0.000   39.600    0.000    0.000    0.000 
#    0.000    0.000    0.000    0.000    0.000    0.000 
#
# Total GULP energy -111458.768011 kJ/mol
# GULP energy per Si atom -5572.938401 kJ/mol
# Density = 2.256453 g / cm^3
# Si number density = 22.616009 Si / 1000 Ang^3
#
#
#
# Elastic Constant Matrix: (Units=GPa)
#
#
# Indices 1 2 3 4 5 6 
#
# 1 94.7670 22.9855 9.0692 0.0000 0.0000 0.0000
# 2 22.9855 104.3547 -5.3314 0.0000 0.0000 0.0000
# 3 9.0692 -5.3314 93.2152 0.0000 0.0000 0.0000
# 4 0.0000 0.0000 0.0000 40.9263 0.0000 0.0000
# 5 0.0000 0.0000 0.0000 0.0000 12.2884 0.0000
# 6 0.0000 0.0000 0.0000 0.0000 0.0000 1.2420
#
#
#
# Elastic Compliance Matrix: (Units=1/GPa)
#
#
# Indices 1 2 3 4 5 6 
#
# 1 0.011290 -0.002550 -0.001244 0.000000 0.000000 0.000000
# 2 -0.002550 0.010187 0.000831 0.000000 0.000000 0.000000
# 3 -0.001244 0.000831 0.010896 0.000000 0.000000 0.000000
# 4 0.000000 0.000000 0.000000 0.024434 0.000000 0.000000
# 5 0.000000 0.000000 0.000000 0.000000 0.081378 0.000000
# 6 0.000000 0.000000 0.000000 0.000000 0.000000 0.805158
#
#
# Mechanical properties :
#
#
# Convention : Reuss Voigt Hill
#
# Bulk Modulus (GPa) = 37.81359 38.42036 38.11698
# Shear Modulus (GPa) = 5.21874 28.59891 16.90882
#
# Velocity S-wave (km/s) = 1.52071 3.55990 2.73728
# Velocity P-wave (km/s) = 4.45416 5.82427 5.18468
#
# Compressibility (1/GPa) = 0.02644552
#
# Stress axis : x y z
#
# Youngs Moduli (GPa) = 88.57514 98.16542 91.77311
#
# Poissons Ratio (x) = 0.25035 0.11419
# Poissons Ratio (y) = 0.22589 -0.07624
# Poissons Ratio (z) = 0.11021 -0.08155
#
# Static dielectric constant tensor:
#      x y z
#    x 1.825150 0.000000 0.000000 
#    y 0.000000 1.910000 0.000000 
#    z 0.000000 0.000000 1.983260 
# 
# From -- ./inp_files/24987.got.cif
#   From: 2010.05.17/outbox.cif.g08.bks.cpg/sg21_13_cif.got.tgz:24987.got - 2010.06.03 23:14:55.
