data_PCOD9322274
_publ_section_title
;
Structure prediction by ZEFSAII (Michael W. Deem and Ramdas Pophale) SiO2 
 PCOD9322274
Probable space group: C 2 2 2
;
_chemical_formula_sum "Si O2"
_cell_formula_units_Z 30
_cell_length_a 5.515705
_cell_length_b 16.929424
_cell_length_c 16.964013
_cell_angle_alpha 90.000000
_cell_angle_beta 90.000000
_cell_angle_gamma 90.000000
_cell_volume 1584.060663
_symmetry_space_group_name_H-M "C 2 2 2"
_symmetry_group_IT_number 21
_symmetry_cell_setting 'orthorhombic'
loop_
_space_group_symop_operation_xyz
x,y,z
-x,-y,z
x,-y,-z
-x,y,-z
1/2+x,1/2+y,z
1/2-x,1/2-y,z
1/2+x,1/2-y,-z
1/2-x,1/2+y,-z
loop_
_atom_site_type_symbol
_atom_site_label
_atom_site_fract_x
_atom_site_fract_y
_atom_site_fract_z
Si Si1 0.000000 0.702225 0.000000
Si Si2 0.852186 0.581213 0.120634
Si Si3 0.000000 0.000000 0.000000
Si Si4 0.248987 0.092013 0.467965
Si Si5 0.249193 0.050570 0.289688
O O1 0.250000 0.750000 0.995310
O O2 0.992451 0.647782 0.921974
O O3 0.762834 0.599919 0.208514
O O4 0.000000 0.500000 0.127540
O O5 0.647379 0.557295 0.057939
O O6 0.500000 0.126646 0.500000
O O7 0.241886 0.093121 0.373682
O O8 0.000000 0.127809 0.500000
O O9 0.248800 0.000000 0.500000
O O10 0.500000 0.000000 0.293652
O O11 0.000000 0.000000 0.284425
#
# Coordination Sequence:
#
# PCOD9322274 Si02
#       5
#     4   8   2   8   8
#     4  12  26  42  61  81 114 156 198 240 292 344
#     4  11  23  36  58  84 112 148 194 239 289 339
#     4  12  16  36  60  76 118 138 194 234 294 334
#     4  10  15  25  40  63 107 143 173 200 275 336
#     4  11  19  28  46  75 104 147 176 224 268 338
#
# _framework density 18.938669999999998
#
# number of rings (size 3 to 8) (size 9 to 14) (size 15 to 20)
#    0.000    1.067    9.333    0.800    0.000    0.000 
#    0.000    0.000    0.000    0.000    0.000    0.000 
#    0.000    4.267    0.000    0.267    0.000    0.000 
#
# Total GULP energy -83594.895207 kJ/mol
# GULP energy per Si atom -5572.993014 kJ/mol
# Density = 1.889556 g / cm^3
# Si number density = 18.938670 Si / 1000 Ang^3
#
#
#
# Elastic Constant Matrix: (Units=GPa)
#
#
# Indices 1 2 3 4 5 6 
#
# 1 142.4853 14.2880 48.2597 0.0000 0.0000 0.0000
# 2 14.2880 34.5390 20.9697 0.0000 0.0000 0.0000
# 3 48.2597 20.9697 214.1819 0.0000 0.0000 0.0000
# 4 0.0000 0.0000 0.0000 33.8811 0.0000 0.0000
# 5 0.0000 0.0000 0.0000 0.0000 49.0735 0.0000
# 6 0.0000 0.0000 0.0000 0.0000 0.0000 17.5288
#
#
#
# Elastic Compliance Matrix: (Units=1/GPa)
#
#
# Indices 1 2 3 4 5 6 
#
# 1 0.007764 -0.002286 -0.001526 0.000000 0.000000 0.000000
# 2 -0.002286 0.031455 -0.002565 0.000000 0.000000 0.000000
# 3 -0.001526 -0.002565 0.005264 0.000000 0.000000 0.000000
# 4 0.000000 0.000000 0.000000 0.029515 0.000000 0.000000
# 5 0.000000 0.000000 0.000000 0.000000 0.020378 0.000000
# 6 0.000000 0.000000 0.000000 0.000000 0.000000 0.057049
#
#
# Mechanical properties :
#
#
# Convention : Reuss Voigt Hill
#
# Bulk Modulus (GPa) = 31.51442 62.02677 46.77059
# Shear Modulus (GPa) = 28.61162 40.60925 34.61044
#
# Velocity S-wave (km/s) = 3.89106 4.63563 4.27957
# Velocity P-wave (km/s) = 6.07153 7.84057 7.01206
#
# Compressibility (1/GPa) = 0.03173151
#
# Stress axis : x y z
#
# Youngs Moduli (GPa) = 128.79621 31.79105 189.97724
#
# Poissons Ratio (x) = 0.07266 0.28984
# Poissons Ratio (y) = 0.29438 0.48723
# Poissons Ratio (z) = 0.19650 0.08153
#
# Static dielectric constant tensor:
#      x y z
#    x 1.555540 0.000000 0.000000 
#    y 0.000000 1.675120 0.000000 
#    z 0.000000 0.000000 1.689620 
# 
# From -- ./inp_files/28632.got.cif
#   From: 2010.05.17/outbox.cif.g08.bks.cpg/sg21_15_cif.got.tgz:28632.got - 2010.06.03 23:14:55.
