data_PCOD9322748
_publ_section_title
;
Structure prediction by ZEFSAII (Michael W. Deem and Ramdas Pophale) SiO2 
 PCOD9322748
Probable space group: C 2 2 2
;
_chemical_formula_sum "Si O2"
_cell_formula_units_Z 54
_cell_length_a 26.826935
_cell_length_b 18.753982
_cell_length_c 5.349793
_cell_angle_alpha 90.000000
_cell_angle_beta 90.000000
_cell_angle_gamma 90.000000
_cell_volume 2691.544286
_symmetry_space_group_name_H-M "C 2 2 2"
_symmetry_group_IT_number 21
_symmetry_cell_setting 'orthorhombic'
loop_
_space_group_symop_operation_xyz
x,y,z
-x,-y,z
x,-y,-z
-x,y,-z
1/2+x,1/2+y,z
1/2-x,1/2-y,z
1/2+x,1/2-y,-z
1/2-x,1/2+y,-z
loop_
_atom_site_type_symbol
_atom_site_label
_atom_site_fract_x
_atom_site_fract_y
_atom_site_fract_z
Si Si1 0.853140 0.120307 0.705535
Si Si2 0.500000 0.500000 0.000000
Si Si3 0.555245 0.242531 0.388202
Si Si4 0.924226 0.090208 0.315134
Si Si5 0.736668 0.666081 0.602629
Si Si6 0.386587 0.769669 0.896828
Si Si7 0.345733 0.500000 0.000000
Si Si8 0.278164 0.172715 0.102557
O O1 0.902866 0.082470 0.596874
O O2 0.820230 0.155612 0.484297
O O3 0.868729 0.186187 0.881579
O O4 0.821143 0.054113 0.808252
O O5 0.469828 0.450086 0.809330
O O6 0.500000 0.229339 0.500000
O O7 0.561194 0.326862 0.330456
O O8 0.591024 0.220278 0.618799
O O9 0.574369 0.213428 0.119396
O O10 0.879405 0.057496 0.149275
O O11 0.750000 0.750000 0.629192
O O12 0.769509 0.638720 0.372223
O O13 0.751808 0.635219 0.868876
O O14 0.335951 0.812686 0.943055
O O15 0.250000 0.250000 0.127612
#
# Coordination Sequence:
#
# PCOD9322748 Si02
#       8
#     8   2   8   8   8   8   4   8
#     4  11  22  36  53  77  98 131 171 228 293 337
#     4  10  24  44  54  62  88 132 194 244 286 334
#     4  11  24  36  55  71  99 134 179 224 278 327
#     4  10  24  37  53  67  90 129 184 239 286 321
#     4  10  20  31  54  78 103 120 155 209 283 339
#     4  11  21  37  54  74 102 129 166 223 281 329
#     4  11  22  37  52  70  94 136 180 220 291 327
#     4  10  19  32  53  81  99 123 153 207 285 332
#
# _framework density 20.062833000000001
#
# number of rings (size 3 to 8) (size 9 to 14) (size 15 to 20)
#    0.000    1.481    4.444    1.778   10.370    2.370 
#    0.000    0.741    0.000    0.000    0.000    0.000 
#    0.000    0.000    0.000    0.000    0.000    0.000 
#
# Total GULP energy -150363.264310 kJ/mol
# GULP energy per Si atom -5569.009789 kJ/mol
# Density = 2.001717 g / cm^3
# Si number density = 20.062833 Si / 1000 Ang^3
#
#
#
# Elastic Constant Matrix: (Units=GPa)
#
#
# Indices 1 2 3 4 5 6 
#
# 1 95.3628 13.7090 38.2482 0.0000 0.0000 0.0000
# 2 13.7090 12.2687 11.1373 0.0000 0.0000 0.0000
# 3 38.2482 11.1373 129.2183 0.0000 0.0000 0.0000
# 4 0.0000 0.0000 0.0000 20.6963 0.0000 0.0000
# 5 0.0000 0.0000 0.0000 0.0000 40.3450 0.0000
# 6 0.0000 0.0000 0.0000 0.0000 0.0000 9.3132
#
#
#
# Elastic Compliance Matrix: (Units=1/GPa)
#
#
# Indices 1 2 3 4 5 6 
#
# 1 0.013431 -0.012366 -0.002910 0.000000 0.000000 0.000000
# 2 -0.012366 0.099813 -0.004942 0.000000 0.000000 0.000000
# 3 -0.002910 -0.004942 0.009026 0.000000 0.000000 0.000000
# 4 0.000000 0.000000 0.000000 0.048318 0.000000 0.000000
# 5 0.000000 0.000000 0.000000 0.000000 0.024786 0.000000
# 6 0.000000 0.000000 0.000000 0.000000 0.000000 0.107375
#
#
# Mechanical properties :
#
#
# Convention : Reuss Voigt Hill
#
# Bulk Modulus (GPa) = 12.22000 40.33764 26.27882
# Shear Modulus (GPa) = 13.49660 25.65459 19.57559
#
# Velocity S-wave (km/s) = 2.59649 3.57979 3.12703
# Velocity P-wave (km/s) = 3.88499 6.10212 5.11512
#
# Compressibility (1/GPa) = 0.08183306
#
# Stress axis : x y z
#
# Youngs Moduli (GPa) = 74.45433 10.01873 110.79002
#
# Poissons Ratio (x) = 0.12390 0.32236
# Poissons Ratio (y) = 0.92074 0.54757
# Poissons Ratio (z) = 0.21664 0.04952
#
# Static dielectric constant tensor:
#      x y z
#    x 1.761710 0.000000 0.000000 
#    y 0.000000 1.674510 0.000000 
#    z 0.000000 0.000000 1.890230 
# 
# From -- ./inp_files/7514.got.cif
#   From: 2010.05.17/outbox.cif.g08.bks.cpg/sg21_4_cif.got.tgz:7514.got - 2010.06.03 23:14:55.
