data_PCOD9322054
_publ_section_title
;
Structure prediction by ZEFSAII (Michael W. Deem and Ramdas Pophale) SiO2 
 PCOD9322054
Probable space group: C 2 2 21
;
_chemical_formula_sum "Si O2"
_cell_formula_units_Z 32
_cell_length_a 4.974587
_cell_length_b 18.387799
_cell_length_c 15.768500
_cell_angle_alpha 90.000000
_cell_angle_beta 90.000000
_cell_angle_gamma 90.000000
_cell_volume 1442.371594
_symmetry_space_group_name_H-M "C 2 2 21"
_symmetry_group_IT_number 20
_symmetry_cell_setting 'orthorhombic'
loop_
_space_group_symop_operation_xyz
x,y,z
-x,-y,1/2+z
x,-y,-z
-x,y,1/2-z
1/2+x,1/2+y,z
1/2-x,1/2-y,1/2+z
1/2+x,1/2-y,-z
1/2-x,1/2+y,1/2-z
loop_
_atom_site_type_symbol
_atom_site_label
_atom_site_fract_x
_atom_site_fract_y
_atom_site_fract_z
Si Si1 0.946244 0.398949 0.847686
Si Si2 0.953779 0.989317 0.901012
Si Si3 0.719593 0.257889 0.942202
Si Si4 0.748589 0.633509 0.691758
O O1 0.717560 0.460711 0.853407
O O2 0.833129 0.330551 0.899146
O O3 0.000000 0.379885 0.750000
O O4 0.216905 0.430752 0.888431
O O5 0.852289 0.064312 0.860935
O O6 0.015267 0.000000 0.000000
O O7 0.665989 0.197725 0.870992
O O8 0.450549 0.271390 0.995108
O O9 0.500000 0.658540 0.750000
O O10 0.000000 0.613158 0.750000
#
# Coordination Sequence:
#
# PCOD9322054 Si02
#       4
#     8   8   8   8
#     4  12  25  44  69  99 134 176 223 274 330 394
#     4  12  25  44  69  99 134 175 221 274 332 395
#     4  12  26  46  69  99 135 177 223 274 331 395
#     4  12  25  44  68  99 135 176 221 274 332 394
#
# _framework density 22.185684999999999
#
# number of rings (size 3 to 8) (size 9 to 14) (size 15 to 20)
#    0.000    0.000    0.000   12.000    0.000    2.000 
#    0.000    0.000    0.000    0.000    0.000    0.000 
#    0.000    0.000    0.000    0.000    0.000    0.000 
#
# Total GULP energy -89789.327957 kJ/mol
# GULP energy per Si atom -5611.832997 kJ/mol
# Density = 2.213519 g / cm^3
# Si number density = 22.185685 Si / 1000 Ang^3
#
#
#
# Elastic Constant Matrix: (Units=GPa)
#
#
# Indices 1 2 3 4 5 6 
#
# 1 91.8805 -18.2676 -0.9387 0.0000 0.0000 0.0000
# 2 -18.2676 49.2404 12.6608 0.0000 0.0000 0.0000
# 3 -0.9387 12.6608 67.3628 0.0000 0.0000 0.0000
# 4 0.0000 0.0000 0.0000 -93.0839 0.0000 0.0000
# 5 0.0000 0.0000 0.0000 0.0000 4.8876 0.0000
# 6 0.0000 0.0000 0.0000 0.0000 0.0000 31.6299
#
#
#
# Elastic Compliance Matrix: (Units=1/GPa)
#
#
# Indices 1 2 3 4 5 6 
#
# 1 0.011781 0.004548 -0.000691 0.000000 0.000000 0.000000
# 2 0.004548 0.023096 -0.004277 0.000000 0.000000 0.000000
# 3 -0.000691 -0.004277 0.015639 0.000000 0.000000 0.000000
# 4 0.000000 0.000000 0.000000 -0.010743 0.000000 0.000000
# 5 0.000000 0.000000 0.000000 0.000000 0.204597 0.000000
# 6 0.000000 0.000000 0.000000 0.000000 0.000000 0.031616
#
#
# Mechanical properties :
#
#
# Convention : Reuss Voigt Hill
#
# Bulk Modulus (GPa) = 20.13045 21.71030 20.92037
# Shear Modulus (GPa) = 17.04248 3.02201 10.03224
#
# Velocity S-wave (km/s) = 2.77460 1.16838 2.12879
# Velocity P-wave (km/s) = 4.39976 3.40985 3.93605
#
# Compressibility (1/GPa) = 0.04967600
#
# Stress axis : x y z
#
# Youngs Moduli (GPa) = 84.88310 43.29815 63.94141
#
# Poissons Ratio (x) = -0.19693 0.04416
# Poissons Ratio (y) = -0.38606 0.27351
# Poissons Ratio (z) = 0.05863 0.18521
#
# Static dielectric constant tensor:
#      x y z
#    x 1.785070 0.000000 0.000000 
#    y 0.000000 1.783990 0.000000 
#    z 0.000000 0.000000 1.775850 
# 
# From -- ./inp_files/17443.got.cif
#   From: 2010.05.17/outbox.cif.g08.bks.cpg/sg20_9_cif.got.tgz:17443.got - 2010.06.03 22:52:26.
