data_PCOD9322834
_publ_section_title
;
Structure prediction by ZEFSAII (Michael W. Deem and Ramdas Pophale) SiO2 
 PCOD9322834
Probable space group: C 2 2 2
;
_chemical_formula_sum "Si O2"
_cell_formula_units_Z 32
_cell_length_a 7.090386
_cell_length_b 35.386161
_cell_length_c 5.234756
_cell_angle_alpha 90.000000
_cell_angle_beta 90.000000
_cell_angle_gamma 90.000000
_cell_volume 1313.408345
_symmetry_space_group_name_H-M "C 2 2 2"
_symmetry_group_IT_number 21
_symmetry_cell_setting 'orthorhombic'
loop_
_space_group_symop_operation_xyz
x,y,z
-x,-y,z
x,-y,-z
-x,y,-z
1/2+x,1/2+y,z
1/2-x,1/2-y,z
1/2+x,1/2-y,-z
1/2-x,1/2+y,-z
loop_
_atom_site_type_symbol
_atom_site_label
_atom_site_fract_x
_atom_site_fract_y
_atom_site_fract_z
Si Si1 0.788413 0.982821 0.246342
Si Si2 0.726807 0.900298 0.046120
Si Si3 0.273535 0.863923 0.458119
Si Si4 0.873802 0.286390 0.248522
O O1 0.784069 0.938510 0.192054
O O2 0.702315 0.000000 0.500000
O O3 0.000000 0.000000 0.248689
O O4 0.693959 0.000000 0.000000
O O5 0.791987 0.868695 0.250775
O O6 0.500000 0.900372 0.000000
O O7 0.797039 0.893485 0.756763
O O8 0.500000 0.869070 0.500000
O O9 0.252919 0.822831 0.333528
O O10 0.750000 0.250000 0.186508
O O11 0.000000 0.278001 0.500000
O O12 0.000000 0.296112 0.000000
#
# Coordination Sequence:
#
# PCOD9322834 Si02
#       4
#     8   8   8   8
#     4  10  21  37  57  77 114 156 195 234 315 373
#     4  10  19  34  58  84 112 145 206 257 292 356
#     4   9  18  34  58  88 114 155 197 248 309 351
#     4  11  22  39  66  93 133 172 212 259 316 382
#
# _framework density 24.364091999999999
#
# number of rings (size 3 to 8) (size 9 to 14) (size 15 to 20)
#    0.000    2.000    0.000    6.000    0.000    0.500 
#    0.000    1.250   33.000    0.000    0.000    0.000 
#    0.000    0.000    0.000    0.000    0.000    0.000 
#
# Total GULP energy -89314.223590 kJ/mol
# GULP energy per Si atom -5582.138974 kJ/mol
# Density = 2.430864 g / cm^3
# Si number density = 24.364092 Si / 1000 Ang^3
#
#
#
# Elastic Constant Matrix: (Units=GPa)
#
#
# Indices 1 2 3 4 5 6 
#
# 1 101.8729 12.7067 20.9017 0.0000 0.0000 0.0000
# 2 12.7067 140.3167 66.4348 0.0000 0.0000 0.0000
# 3 20.9017 66.4348 187.0838 0.0000 0.0000 0.0000
# 4 0.0000 0.0000 0.0000 41.7158 0.0000 0.0000
# 5 0.0000 0.0000 0.0000 0.0000 -81.1501 0.0000
# 6 0.0000 0.0000 0.0000 0.0000 0.0000 26.5199
#
#
#
# Elastic Compliance Matrix: (Units=1/GPa)
#
#
# Indices 1 2 3 4 5 6 
#
# 1 0.010071 -0.000456 -0.000963 0.000000 0.000000 0.000000
# 2 -0.000456 0.008588 -0.002999 0.000000 0.000000 0.000000
# 3 -0.000963 -0.002999 0.006518 0.000000 0.000000 0.000000
# 4 0.000000 0.000000 0.000000 0.023972 0.000000 0.000000
# 5 0.000000 0.000000 0.000000 0.000000 -0.012323 0.000000
# 6 0.000000 0.000000 0.000000 0.000000 0.000000 0.037708
#
#
# Mechanical properties :
#
#
# Convention : Reuss Voigt Hill
#
# Bulk Modulus (GPa) = 61.19768 69.92888 65.56328
# Shear Modulus (GPa) = 56.29684 19.36580 37.83132
#
# Velocity S-wave (km/s) = 4.81213 2.82237 3.94477
# Velocity P-wave (km/s) = 7.48652 6.27574 6.90771
#
# Compressibility (1/GPa) = 0.01634049
#
# Stress axis : x y z
#
# Youngs Moduli (GPa) = 99.29847 116.44469 153.42945
#
# Poissons Ratio (x) = 0.05309 0.14779
# Poissons Ratio (y) = 0.04527 0.46008
# Poissons Ratio (z) = 0.09565 0.34918
#
# Static dielectric constant tensor:
#      x y z
#    x 1.956830 0.000000 0.000000 
#    y 0.000000 2.041380 0.000000 
#    z 0.000000 0.000000 1.921360 
# 
# From -- ./inp_files/1582.got.cif
#   From: 2010.05.17/outbox.cif.g08.bks.cpg/sg21_1_cif.got.tgz:1582.got - 2010.06.03 23:14:55.
