data_PCOD9322142
_publ_section_title
;
Structure prediction by ZEFSAII (Michael W. Deem and Ramdas Pophale) SiO2 
 PCOD9322142
Probable space group: C 2 2 21
;
_chemical_formula_sum "Si O2"
_cell_formula_units_Z 24
_cell_length_a 5.231629
_cell_length_b 9.069851
_cell_length_c 18.828073
_cell_angle_alpha 90.000000
_cell_angle_beta 90.000000
_cell_angle_gamma 90.000000
_cell_volume 893.393862
_symmetry_space_group_name_H-M "C 2 2 21"
_symmetry_group_IT_number 20
_symmetry_cell_setting 'orthorhombic'
loop_
_space_group_symop_operation_xyz
x,y,z
-x,-y,1/2+z
x,-y,-z
-x,y,1/2-z
1/2+x,1/2+y,z
1/2-x,1/2-y,1/2+z
1/2+x,1/2-y,-z
1/2-x,1/2+y,1/2-z
loop_
_atom_site_type_symbol
_atom_site_label
_atom_site_fract_x
_atom_site_fract_y
_atom_site_fract_z
Si Si1 0.901591 0.726842 0.044078
Si Si2 0.582836 0.499568 0.133213
Si Si3 0.245398 0.848252 0.729776
O O1 0.002196 0.843761 0.102553
O O2 0.319976 0.586623 0.153351
O O3 0.764032 0.584616 0.078111
O O4 0.655414 0.799312 0.003287
O O5 0.726177 0.524801 0.208662
O O6 0.500000 0.769256 0.750000
O O7 0.000000 0.752481 0.750000
#
# Coordination Sequence:
#
# PCOD9322142 Si02
#       3
#     8   8   8
#     4  12  28  44  78 106 158 202 250 306 374 460
#     4   9  25  48  70 114 143 197 256 308 382 443
#     4   8  20  42  76 100 148 182 250 320 372 432
#
# _framework density 26.863854
#
# number of rings (size 3 to 8) (size 9 to 14) (size 15 to 20)
#    2.000    0.000    0.000    1.000    9.333    2.667 
#   12.000    0.000    0.000    0.000    0.000    0.000 
#    0.000    0.000    0.000    0.000    0.000    0.000 
#
# Total GULP energy -66915.243087 kJ/mol
# GULP energy per Si atom -5576.270257 kJ/mol
# Density = 2.680271 g / cm^3
# Si number density = 26.863854 Si / 1000 Ang^3
#
#
#
# Elastic Constant Matrix: (Units=GPa)
#
#
# Indices 1 2 3 4 5 6 
#
# 1 163.7944 57.0001 25.8297 0.0000 0.0000 0.0000
# 2 57.0001 113.0359 52.0877 0.0000 0.0000 0.0000
# 3 25.8297 52.0877 115.4943 0.0000 0.0000 0.0000
# 4 0.0000 0.0000 0.0000 20.6667 0.0000 0.0000
# 5 0.0000 0.0000 0.0000 0.0000 47.8201 0.0000
# 6 0.0000 0.0000 0.0000 0.0000 0.0000 5.8246
#
#
#
# Elastic Compliance Matrix: (Units=1/GPa)
#
#
# Indices 1 2 3 4 5 6 
#
# 1 0.007405 -0.003750 0.000035 0.000000 0.000000 0.000000
# 2 -0.003750 0.013067 -0.005054 0.000000 0.000000 0.000000
# 3 0.000035 -0.005054 0.010930 0.000000 0.000000 0.000000
# 4 0.000000 0.000000 0.000000 0.048387 0.000000 0.000000
# 5 0.000000 0.000000 0.000000 0.000000 0.020912 0.000000
# 6 0.000000 0.000000 0.000000 0.000000 0.000000 0.171685
#
#
# Mechanical properties :
#
#
# Convention : Reuss Voigt Hill
#
# Bulk Modulus (GPa) = 72.13417 73.57328 72.85373
# Shear Modulus (GPa) = 16.97532 32.02276 24.49904
#
# Velocity S-wave (km/s) = 2.51649 3.45634 3.02316
# Velocity P-wave (km/s) = 5.94590 6.58599 6.27411
#
# Compressibility (1/GPa) = 0.01386305
#
# Stress axis : x y z
#
# Youngs Moduli (GPa) = 135.04914 76.52878 91.49055
#
# Poissons Ratio (x) = 0.28700 -0.00323
# Poissons Ratio (y) = 0.50646 0.46244
# Poissons Ratio (z) = -0.00477 0.38681
#
# Static dielectric constant tensor:
#      x y z
#    x 2.352100 0.000000 0.000000 
#    y 0.000000 2.018470 0.000000 
#    z 0.000000 0.000000 2.324690 
# 
# From -- ./inp_files/22402.got.cif
#   From: 2010.05.17/outbox.cif.g08.bks.cpg/sg20_12_cif.got.tgz:22402.got - 2010.06.03 22:52:26.
