data_PCOD9322541
_publ_section_title
;
Structure prediction by ZEFSAII (Michael W. Deem and Ramdas Pophale) SiO2 
 PCOD9322541
Probable space group: C 2 2 2
;
_chemical_formula_sum "Si O2"
_cell_formula_units_Z 58
_cell_length_a 10.918541
_cell_length_b 27.012325
_cell_length_c 8.335801
_cell_angle_alpha 90.000000
_cell_angle_beta 90.000000
_cell_angle_gamma 90.000000
_cell_volume 2458.520952
_symmetry_space_group_name_H-M "C 2 2 2"
_symmetry_group_IT_number 21
_symmetry_cell_setting 'orthorhombic'
loop_
_space_group_symop_operation_xyz
x,y,z
-x,-y,z
x,-y,-z
-x,y,-z
1/2+x,1/2+y,z
1/2-x,1/2-y,z
1/2+x,1/2-y,-z
1/2-x,1/2+y,-z
loop_
_atom_site_type_symbol
_atom_site_label
_atom_site_fract_x
_atom_site_fract_y
_atom_site_fract_z
Si Si1 0.000000 0.500000 0.500000
Si Si2 0.483184 0.294836 0.687468
Si Si3 0.266500 0.655727 0.778269
Si Si4 0.043199 0.417335 0.823720
Si Si5 0.995944 0.689535 0.808299
Si Si6 0.195239 0.440928 0.377063
Si Si7 0.124464 0.875949 0.100641
Si Si8 0.787609 0.977138 0.829701
O O1 0.888044 0.541906 0.528909
O O2 0.500000 0.303830 0.500000
O O3 0.616574 0.309171 0.760696
O O4 0.447816 0.238463 0.723140
O O5 0.388413 0.330634 0.778195
O O6 0.138017 0.682732 0.761193
O O7 0.260218 0.611461 0.646658
O O8 0.276398 0.632017 0.958227
O O9 0.150163 0.456324 0.848579
O O10 0.069599 0.362071 0.755769
O O11 0.922235 0.440388 0.743258
O O12 0.000000 0.403497 0.000000
O O13 0.000000 0.698788 0.000000
O O14 0.288015 0.481734 0.307886
O O15 0.139692 0.926660 0.197793
O O16 0.000000 0.879994 0.000000
O O17 0.826713 0.000000 0.000000
#
# Coordination Sequence:
#
# PCOD9322541 Si02
#       8
#     2   8   8   8   8   8   8   8
#     4  12  24  36  50  88 142 184 188 250 336 412
#     4  11  25  45  62  88 132 176 217 269 327 389
#     4  10  21  43  66  92 122 169 216 274 321 383
#     4  10  18  33  59  93 120 151 201 266 323 374
#     4  10  20  39  68  95 124 159 211 270 334 387
#     4  11  22  35  56  88 128 165 206 252 325 396
#     4  10  22  40  65  96 123 162 224 279 314 366
#     4  12  19  34  63  93 122 158 203 269 320 377
#
# _framework density 23.591418999999998
#
# number of rings (size 3 to 8) (size 9 to 14) (size 15 to 20)
#    0.000    1.379    4.138    3.310    0.000    1.379 
#    4.966    6.207    0.000    0.828    0.000    0.000 
#    0.000    0.000    0.000    0.000    0.000    0.000 
#
# Total GULP energy -161677.228892 kJ/mol
# GULP energy per Si atom -5575.076858 kJ/mol
# Density = 2.353772 g / cm^3
# Si number density = 23.591419 Si / 1000 Ang^3
#
#
#
# Elastic Constant Matrix: (Units=GPa)
#
#
# Indices 1 2 3 4 5 6 
#
# 1 19.1132 11.1059 -7.9348 0.0000 0.0000 0.0000
# 2 11.1059 154.0164 8.6786 0.0000 0.0000 0.0000
# 3 -7.9348 8.6786 51.8128 0.0000 0.0000 0.0000
# 4 0.0000 0.0000 0.0000 4.5055 0.0000 0.0000
# 5 0.0000 0.0000 0.0000 0.0000 10.1181 0.0000
# 6 0.0000 0.0000 0.0000 0.0000 0.0000 34.5769
#
#
#
# Elastic Compliance Matrix: (Units=1/GPa)
#
#
# Indices 1 2 3 4 5 6 
#
# 1 0.059226 -0.004827 0.009879 0.000000 0.000000 0.000000
# 2 -0.004827 0.006948 -0.001903 0.000000 0.000000 0.000000
# 3 0.009879 -0.001903 0.021132 0.000000 0.000000 0.000000
# 4 0.000000 0.000000 0.000000 0.221949 0.000000 0.000000
# 5 0.000000 0.000000 0.000000 0.000000 0.098833 0.000000
# 6 0.000000 0.000000 0.000000 0.000000 0.000000 0.028921
#
#
# Mechanical properties :
#
#
# Convention : Reuss Voigt Hill
#
# Bulk Modulus (GPa) = 10.68350 27.62688 19.15519
# Shear Modulus (GPa) = 10.82456 24.04630 17.43543
#
# Velocity S-wave (km/s) = 2.14437 3.19608 2.72151
# Velocity P-wave (km/s) = 3.26641 5.03547 4.24414
#
# Compressibility (1/GPa) = 0.09360224
#
# Stress axis : x y z
#
# Youngs Moduli (GPa) = 16.88453 143.92331 47.32191
#
# Poissons Ratio (x) = 0.69477 -0.46748
# Poissons Ratio (y) = 0.08151 0.09006
# Poissons Ratio (z) = -0.16680 0.27390
#
# Static dielectric constant tensor:
#      x y z
#    x 1.901870 0.000000 0.000000 
#    y 0.000000 1.953850 0.000000 
#    z 0.000000 0.000000 2.147250 
# 
# From -- ./inp_files/13571.got.cif
#   From: 2010.05.17/outbox.cif.g08.bks.cpg/sg21_7_cif.got.tgz:13571.got - 2010.06.03 23:14:55.
