data_PCOD9322470
_publ_section_title
;
Structure prediction by ZEFSAII (Michael W. Deem and Ramdas Pophale) SiO2 
 PCOD9322470
Probable space group: C 2 2 2
;
_chemical_formula_sum "Si O2"
_cell_formula_units_Z 44
_cell_length_a 13.530873
_cell_length_b 25.937157
_cell_length_c 5.668355
_cell_angle_alpha 90.000000
_cell_angle_beta 90.000000
_cell_angle_gamma 90.000000
_cell_volume 1989.322663
_symmetry_space_group_name_H-M "C 2 2 2"
_symmetry_group_IT_number 21
_symmetry_cell_setting 'orthorhombic'
loop_
_space_group_symop_operation_xyz
x,y,z
-x,-y,z
x,-y,-z
-x,y,-z
1/2+x,1/2+y,z
1/2-x,1/2-y,z
1/2+x,1/2-y,-z
1/2-x,1/2+y,-z
loop_
_atom_site_type_symbol
_atom_site_label
_atom_site_fract_x
_atom_site_fract_y
_atom_site_fract_z
Si Si1 0.769943 0.105380 0.806941
Si Si2 0.853723 0.449113 0.394745
Si Si3 0.131027 0.254641 0.625996
Si Si4 0.286462 0.500000 0.000000
Si Si5 0.591181 0.859497 0.850683
Si Si6 0.352996 0.283255 0.135720
O O1 0.711121 0.086066 0.574063
O O2 0.834671 0.157041 0.794877
O O3 0.829288 0.053522 0.890628
O O4 0.685160 0.125026 0.989895
O O5 0.898073 0.500000 0.500000
O O6 0.933560 0.412677 0.275572
O O7 0.779647 0.474695 0.204578
O O8 0.250000 0.250000 0.606188
O O9 0.113910 0.314643 0.670527
O O10 0.092373 0.239443 0.366416
O O11 0.105147 0.224057 0.869745
O O12 0.500000 0.840721 0.000000
O O13 0.250000 0.250000 0.119870
#
# Coordination Sequence:
#
# PCOD9322470 Si02
#       6
#     8   8   8   4   8   8
#     4  10  18  33  50  71  97 137 182 222 269 320
#     4   9  18  34  48  64  94 135 182 222 269 308
#     4  10  19  34  51  76  98 129 179 223 275 326
#     4   8  18  30  49  70  98 130 175 228 268 308
#     4  11  22  34  49  74 104 139 187 239 277 319
#     4  10  18  30  54  73  95 129 175 222 259 328
#
# _framework density 22.118079999999999
#
# number of rings (size 3 to 8) (size 9 to 14) (size 15 to 20)
#    0.000    2.182    3.636    2.182    2.545    0.727 
#    0.000   20.909    0.000    0.000    0.000    0.000 
#    0.000    0.000    0.000    0.818    9.455    2.545 
#
# Total GULP energy -122576.617795 kJ/mol
# GULP energy per Si atom -5571.664445 kJ/mol
# Density = 2.206774 g / cm^3
# Si number density = 22.118080 Si / 1000 Ang^3
#
#
#
# Elastic Constant Matrix: (Units=GPa)
#
#
# Indices 1 2 3 4 5 6 
#
# 1 16.7931 14.9831 18.3003 0.0000 0.0000 0.0000
# 2 14.9831 183.0212 44.5517 0.0000 0.0000 0.0000
# 3 18.3003 44.5517 150.8482 0.0000 0.0000 0.0000
# 4 0.0000 0.0000 0.0000 64.6923 0.0000 0.0000
# 5 0.0000 0.0000 0.0000 0.0000 -110.6861 0.0000
# 6 0.0000 0.0000 0.0000 0.0000 0.0000 6.2337
#
#
#
# Elastic Compliance Matrix: (Units=1/GPa)
#
#
# Indices 1 2 3 4 5 6 
#
# 1 0.071261 -0.004018 -0.007458 0.000000 0.000000 0.000000
# 2 -0.004018 0.006114 -0.001318 0.000000 0.000000 0.000000
# 3 -0.007458 -0.001318 0.007923 0.000000 0.000000 0.000000
# 4 0.000000 0.000000 0.000000 0.015458 0.000000 0.000000
# 5 0.000000 0.000000 0.000000 0.000000 -0.009035 0.000000
# 6 0.000000 0.000000 0.000000 0.000000 0.000000 0.160419
#
#
# Mechanical properties :
#
#
# Convention : Reuss Voigt Hill
#
# Bulk Modulus (GPa) = 16.74799 56.25918 36.50359
# Shear Modulus (GPa) = 16.79922 10.23648 13.51785
#
# Velocity S-wave (km/s) = 2.75894 2.15364 2.47486
# Velocity P-wave (km/s) = 4.21159 5.62808 4.97055
#
# Compressibility (1/GPa) = 0.05970864
#
# Stress axis : x y z
#
# Youngs Moduli (GPa) = 14.03288 163.56770 126.21010
#
# Poissons Ratio (x) = 0.65727 0.94132
# Poissons Ratio (y) = 0.05639 0.16636
# Poissons Ratio (z) = 0.10466 0.21560
#
# Static dielectric constant tensor:
#      x y z
#    x 1.796350 0.000000 0.000000 
#    y 0.000000 5.637440 0.000000 
#    z 0.000000 0.000000 1.949100 
# 
# From -- ./inp_files/4048.got.cif
#   From: 2010.05.17/outbox.cif.g08.bks.cpg/sg21_3_cif.got.tgz:4048.got - 2010.06.03 23:14:55.
