data_PCOD9322324
_publ_section_title
;
Structure prediction by ZEFSAII (Michael W. Deem and Ramdas Pophale) SiO2 
 PCOD9322324
Probable space group: C 2 2 2
;
_chemical_formula_sum "Si O2"
_cell_formula_units_Z 48
_cell_length_a 28.506542
_cell_length_b 5.296506
_cell_length_c 13.647904
_cell_angle_alpha 90.000000
_cell_angle_beta 90.000000
_cell_angle_gamma 90.000000
_cell_volume 2060.629751
_symmetry_space_group_name_H-M "C 2 2 2"
_symmetry_group_IT_number 21
_symmetry_cell_setting 'orthorhombic'
loop_
_space_group_symop_operation_xyz
x,y,z
-x,-y,z
x,-y,-z
-x,y,-z
1/2+x,1/2+y,z
1/2-x,1/2-y,z
1/2+x,1/2-y,-z
1/2-x,1/2+y,-z
loop_
_atom_site_type_symbol
_atom_site_label
_atom_site_fract_x
_atom_site_fract_y
_atom_site_fract_z
Si Si1 0.443956 0.473371 0.117548
Si Si2 0.519733 0.752227 0.388023
Si Si3 0.128141 0.249923 0.435689
Si Si4 0.301996 0.226130 0.258323
Si Si5 0.901052 0.455777 0.105416
Si Si6 0.302696 0.270879 0.867265
O O1 0.500000 0.500000 0.125636
O O2 0.423057 0.726596 0.165217
O O3 0.414859 0.225723 0.152931
O O4 0.433758 0.500000 0.000000
O O5 0.500000 0.500000 0.341142
O O6 0.500000 0.752625 0.500000
O O7 0.574813 0.757303 0.399200
O O8 0.500000 0.000000 0.337661
O O9 0.137103 0.500000 0.500000
O O10 0.160854 0.238131 0.342026
O O11 0.134425 0.000000 0.500000
O O12 0.250000 0.250000 0.300107
O O13 0.307403 0.443391 0.173941
O O14 0.303123 0.941024 0.217739
O O15 0.849455 0.333826 0.079727
O O16 0.925127 0.500000 0.000000
O O17 0.250000 0.250000 0.913959
#
# Coordination Sequence:
#
# PCOD9322324 Si02
#       6
#     8   8   8   8   8   8
#     4   9  17  30  51  84 117 147 180 225 287 342
#     4  10  16  30  49  77 108 136 169 215 273 344
#     4  12  21  33  58  86 106 138 185 238 276 318
#     4  10  23  40  57  78 110 152 190 225 289 357
#     4  10  19  33  58  89 112 142 196 246 280 334
#     4  10  21  41  60  77 112 159 189 226 294 359
#
# _framework density 23.293849000000002
#
# number of rings (size 3 to 8) (size 9 to 14) (size 15 to 20)
#    0.000    1.833    3.333    2.500    0.000    2.667 
#    0.000    5.000    0.000   10.000    0.000    0.000 
#    0.000    0.000    0.000    0.000    0.000    0.000 
#
# Total GULP energy -133833.441113 kJ/mol
# GULP energy per Si atom -5576.393380 kJ/mol
# Density = 2.324083 g / cm^3
# Si number density = 23.293849 Si / 1000 Ang^3
#
#
#
# Elastic Constant Matrix: (Units=GPa)
#
#
# Indices 1 2 3 4 5 6 
#
# 1 106.9616 40.5077 6.0943 0.0000 0.0000 0.0000
# 2 40.5077 196.9954 6.3910 0.0000 0.0000 0.0000
# 3 6.0943 6.3910 35.6564 0.0000 0.0000 0.0000
# 4 0.0000 0.0000 0.0000 31.5040 0.0000 0.0000
# 5 0.0000 0.0000 0.0000 0.0000 40.1321 0.0000
# 6 0.0000 0.0000 0.0000 0.0000 0.0000 -22.6071
#
#
#
# Elastic Compliance Matrix: (Units=1/GPa)
#
#
# Indices 1 2 3 4 5 6 
#
# 1 0.010205 -0.002054 -0.001376 0.000000 0.000000 0.000000
# 2 -0.002054 0.005519 -0.000638 0.000000 0.000000 0.000000
# 3 -0.001376 -0.000638 0.028395 0.000000 0.000000 0.000000
# 4 0.000000 0.000000 0.000000 0.031742 0.000000 0.000000
# 5 0.000000 0.000000 0.000000 0.000000 0.024918 0.000000
# 6 0.000000 0.000000 0.000000 0.000000 0.000000 -0.044234
#
#
# Mechanical properties :
#
#
# Convention : Reuss Voigt Hill
#
# Bulk Modulus (GPa) = 27.79068 49.51105 38.65087
# Shear Modulus (GPa) = 65.20909 28.91383 47.06146
#
# Velocity S-wave (km/s) = 5.29669 3.52698 4.49969
# Velocity P-wave (km/s) = 7.02587 6.15526 6.60493
#
# Compressibility (1/GPa) = 0.03598328
#
# Stress axis : x y z
#
# Youngs Moduli (GPa) = 97.98754 181.18241 35.21736
#
# Poissons Ratio (x) = 0.37212 0.04846
# Poissons Ratio (y) = 0.20125 0.02248
# Poissons Ratio (z) = 0.13485 0.11564
#
# Static dielectric constant tensor:
#      x y z
#    x 2.089320 0.000000 0.000000 
#    y 0.000000 1.929170 0.000000 
#    z 0.000000 0.000000 1.851830 
# 
# From -- ./inp_files/33808.got.cif
#   From: 2010.05.17/outbox.cif.g08.bks.cpg/sg21_17_cif.got.tgz:33808.got - 2010.06.03 23:14:55.
