data_PCOD9322962
_publ_section_title
;
Structure prediction by ZEFSAII (Michael W. Deem and Ramdas Pophale) SiO2 
 PCOD9322962
Probable space group: C 2 2 2
;
_chemical_formula_sum "Si O2"
_cell_formula_units_Z 64
_cell_length_a 16.423232
_cell_length_b 19.527159
_cell_length_c 9.670873
_cell_angle_alpha 90.000000
_cell_angle_beta 90.000000
_cell_angle_gamma 90.000000
_cell_volume 3101.439905
_symmetry_space_group_name_H-M "C 2 2 2"
_symmetry_group_IT_number 21
_symmetry_cell_setting 'orthorhombic'
loop_
_space_group_symop_operation_xyz
x,y,z
-x,-y,z
x,-y,-z
-x,y,-z
1/2+x,1/2+y,z
1/2-x,1/2-y,z
1/2+x,1/2-y,-z
1/2-x,1/2+y,-z
loop_
_atom_site_type_symbol
_atom_site_label
_atom_site_fract_x
_atom_site_fract_y
_atom_site_fract_z
Si Si1 0.571314 0.136254 0.264966
Si Si2 0.830029 0.149112 0.484571
Si Si3 0.351680 0.193928 0.480481
Si Si4 0.214677 0.673191 0.066988
Si Si5 0.865307 0.501417 0.333756
Si Si6 0.908883 0.032596 0.641579
Si Si7 0.196758 0.938195 0.222045
Si Si8 0.395070 0.850674 0.800396
O O1 0.581032 0.157895 0.424658
O O2 0.652124 0.166490 0.194765
O O3 0.574361 0.054365 0.268488
O O4 0.491537 0.158316 0.183346
O O5 0.732520 0.150318 0.514030
O O6 0.846518 0.229009 0.466376
O O7 0.885619 0.111297 0.602105
O O8 0.840716 0.112986 0.336796
O O9 0.370886 0.201343 0.319886
O O10 0.250000 0.750000 0.062228
O O11 0.278621 0.610992 0.095158
O O12 0.160941 0.658043 0.932385
O O13 0.871131 0.500000 0.500000
O O14 0.777931 0.472776 0.284629
O O15 0.880446 0.575433 0.270074
O O16 0.871309 0.000000 0.500000
O O17 0.864947 0.002350 0.776921
O O18 0.000000 0.000000 0.645465
#
# Coordination Sequence:
#
# PCOD9322962 Si02
#       8
#     8   8   8   8   8   8   8   8
#     4  11  23  41  65  96 130 173 213 268 330 402
#     4  10  19  36  63  92 129 169 221 272 331 395
#     4  11  21  36  64  97 129 170 214 268 333 404
#     4  11  25  45  64  86 127 182 222 264 317 400
#     4  11  20  37  67  97 133 170 207 265 335 404
#     4   9  18  34  57  96 134 164 216 289 338 368
#     4  10  19  37  64  88 122 177 223 262 316 399
#     4  12  25  40  61  98 135 162 216 277 335 382
#
# _framework density 20.635576
#
# number of rings (size 3 to 8) (size 9 to 14) (size 15 to 20)
#    0.000    1.375    3.750    3.750    1.750    2.500 
#   11.250    2.500    0.000    0.000    0.000    3.500 
#    0.000    0.000    0.000    0.000    0.000    0.000 
#
# Total GULP energy -178290.570718 kJ/mol
# GULP energy per Si atom -5571.580335 kJ/mol
# Density = 2.058861 g / cm^3
# Si number density = 20.635576 Si / 1000 Ang^3
#
#
#
# Elastic Constant Matrix: (Units=GPa)
#
#
# Indices 1 2 3 4 5 6 
#
# 1 74.8858 34.1414 31.3579 0.0000 0.0000 0.0000
# 2 34.1414 65.9640 -0.5804 0.0000 0.0000 0.0000
# 3 31.3579 -0.5804 58.8368 0.0000 0.0000 0.0000
# 4 0.0000 0.0000 0.0000 20.7813 0.0000 0.0000
# 5 0.0000 0.0000 0.0000 0.0000 27.0827 0.0000
# 6 0.0000 0.0000 0.0000 0.0000 0.0000 17.2910
#
#
#
# Elastic Compliance Matrix: (Units=1/GPa)
#
#
# Indices 1 2 3 4 5 6 
#
# 1 0.024889 -0.013000 -0.013393 0.000000 0.000000 0.000000
# 2 -0.013000 0.021951 0.007145 0.000000 0.000000 0.000000
# 3 -0.013393 0.007145 0.024205 0.000000 0.000000 0.000000
# 4 0.000000 0.000000 0.000000 0.048120 0.000000 0.000000
# 5 0.000000 0.000000 0.000000 0.000000 0.036924 0.000000
# 6 0.000000 0.000000 0.000000 0.000000 0.000000 0.057834
#
#
# Mechanical properties :
#
#
# Convention : Reuss Voigt Hill
#
# Bulk Modulus (GPa) = 30.72319 36.61382 33.66851
# Shear Modulus (GPa) = 18.99216 22.01551 20.50384
#
# Velocity S-wave (km/s) = 3.03704 3.26984 3.15559
# Velocity P-wave (km/s) = 5.21717 5.66016 5.44317
#
# Compressibility (1/GPa) = 0.03254870
#
# Stress axis : x y z
#
# Youngs Moduli (GPa) = 40.17919 45.55626 41.31450
#
# Poissons Ratio (x) = 0.59221 0.55332
# Poissons Ratio (y) = 0.52231 -0.29518
# Poissons Ratio (z) = 0.53812 -0.32549
#
# Static dielectric constant tensor:
#      x y z
#    x 1.819140 0.000000 0.000000 
#    y 0.000000 1.788180 0.000000 
#    z 0.000000 0.000000 1.742010 
# 
# From -- ./inp_files/16858.got.cif
#   From: 2010.05.17/outbox.cif.g08.bks.cpg/sg21_9_cif.got.tgz:16858.got - 2010.06.03 23:14:55.
