data_PCOD9322626
_publ_section_title
;
Structure prediction by ZEFSAII (Michael W. Deem and Ramdas Pophale) SiO2 
 PCOD9322626
Probable space group: C 2 2 2
;
_chemical_formula_sum "Si O2"
_cell_formula_units_Z 48
_cell_length_a 9.473451
_cell_length_b 13.800375
_cell_length_c 16.308928
_cell_angle_alpha 90.000000
_cell_angle_beta 90.000000
_cell_angle_gamma 90.000000
_cell_volume 2132.183196
_symmetry_space_group_name_H-M "C 2 2 2"
_symmetry_group_IT_number 21
_symmetry_cell_setting 'orthorhombic'
loop_
_space_group_symop_operation_xyz
x,y,z
-x,-y,z
x,-y,-z
-x,y,-z
1/2+x,1/2+y,z
1/2-x,1/2-y,z
1/2+x,1/2-y,-z
1/2-x,1/2+y,-z
loop_
_atom_site_type_symbol
_atom_site_label
_atom_site_fract_x
_atom_site_fract_y
_atom_site_fract_z
Si Si1 0.750000 0.750000 0.116264
Si Si2 0.347103 0.454737 0.835787
Si Si3 0.243239 0.890363 0.469128
Si Si4 0.000000 0.736885 0.500000
Si Si5 0.054223 0.743226 0.178242
Si Si6 0.863224 0.563793 0.707878
Si Si7 0.345152 0.875818 0.026933
O O1 0.611702 0.743579 0.169627
O O2 0.735185 0.839321 0.053302
O O3 0.500000 0.500000 0.850486
O O4 0.378451 0.345952 0.803190
O O5 0.248919 0.496249 0.763733
O O6 0.251351 0.444146 0.916999
O O7 0.372015 0.840357 0.522363
O O8 0.302065 0.902474 0.377740
O O9 0.109125 0.817679 0.461841
O O10 0.210224 0.000000 0.500000
O O11 0.089563 0.657380 0.239597
O O12 0.110460 0.711700 0.088424
O O13 0.000000 0.500000 0.694277
O O14 0.500000 0.908896 0.000000
#
# Coordination Sequence:
#
# PCOD9322626 Si02
#       7
#     4   8   8   4   8   8   8
#     4  10  18  36  70  90 130 188 240 296 362 416
#     4  11  24  41  67 105 141 177 247 301 355 432
#     4  11  24  48  73 112 151 186 241 301 357 456
#     4  10  24  40  78 112 144 190 230 280 370 432
#     4  10  22  39  68  96 135 182 240 289 352 432
#     4  11  25  46  72  97 142 192 227 288 366 429
#     4   9  17  37  67  90 128 189 234 296 371 409
#
# _framework density 22.512136999999999
#
# number of rings (size 3 to 8) (size 9 to 14) (size 15 to 20)
#    0.000    1.667    1.667    3.000    7.000    1.333 
#    0.000    3.333    7.333    0.000    0.000    0.000 
#    0.000    0.000    0.000    0.000    0.000    0.000 
#
# Total GULP energy -133859.060578 kJ/mol
# GULP energy per Si atom -5577.460857 kJ/mol
# Density = 2.246090 g / cm^3
# Si number density = 22.512137 Si / 1000 Ang^3
#
#
#
# Elastic Constant Matrix: (Units=GPa)
#
#
# Indices 1 2 3 4 5 6 
#
# 1 208.2728 31.8414 62.4922 0.0000 0.0000 0.0000
# 2 31.8414 89.8337 11.4736 0.0000 0.0000 0.0000
# 3 62.4922 11.4736 74.5939 0.0000 0.0000 0.0000
# 4 0.0000 0.0000 0.0000 28.8365 0.0000 0.0000
# 5 0.0000 0.0000 0.0000 0.0000 23.3978 0.0000
# 6 0.0000 0.0000 0.0000 0.0000 0.0000 -13.2734
#
#
#
# Elastic Compliance Matrix: (Units=1/GPa)
#
#
# Indices 1 2 3 4 5 6 
#
# 1 0.006653 -0.001679 -0.005315 0.000000 0.000000 0.000000
# 2 -0.001679 0.011779 -0.000405 0.000000 0.000000 0.000000
# 3 -0.005315 -0.000405 0.017921 0.000000 0.000000 0.000000
# 4 0.000000 0.000000 0.000000 0.034678 0.000000 0.000000
# 5 0.000000 0.000000 0.000000 0.000000 0.042739 0.000000
# 6 0.000000 0.000000 0.000000 0.000000 0.000000 -0.075339
#
#
# Mechanical properties :
#
#
# Convention : Reuss Voigt Hill
#
# Bulk Modulus (GPa) = 46.39547 64.92386 55.65966
# Shear Modulus (GPa) = 82.76104 25.58507 54.17305
#
# Velocity S-wave (km/s) = 6.06982 3.37486 4.91082
# Velocity P-wave (km/s) = 8.35329 6.63991 7.54539
#
# Compressibility (1/GPa) = 0.02155383
#
# Stress axis : x y z
#
# Youngs Moduli (GPa) = 150.30806 84.89966 55.79972
#
# Poissons Ratio (x) = 0.14257 0.29660
# Poissons Ratio (y) = 0.25241 0.02259
# Poissons Ratio (z) = 0.79894 0.03437
#
# Static dielectric constant tensor:
#      x y z
#    x 1.865850 0.000000 0.000000 
#    y 0.000000 1.970090 0.000000 
#    z 0.000000 0.000000 1.804690 
# 
# From -- ./inp_files/35711.got.cif
#   From: 2010.05.17/outbox.cif.g08.bks.cpg/sg21_18_cif.got.tgz:35711.got - 2010.06.03 23:14:55.
