data_PCOD9322442
_publ_section_title
;
Structure prediction by ZEFSAII (Michael W. Deem and Ramdas Pophale) SiO2 
 PCOD9322442
Probable space group: C 2 2 2
;
_chemical_formula_sum "Si O2"
_cell_formula_units_Z 52
_cell_length_a 13.778256
_cell_length_b 26.897177
_cell_length_c 5.690062
_cell_angle_alpha 90.000000
_cell_angle_beta 90.000000
_cell_angle_gamma 90.000000
_cell_volume 2108.715300
_symmetry_space_group_name_H-M "C 2 2 2"
_symmetry_group_IT_number 21
_symmetry_cell_setting 'orthorhombic'
loop_
_space_group_symop_operation_xyz
x,y,z
-x,-y,z
x,-y,-z
-x,y,-z
1/2+x,1/2+y,z
1/2-x,1/2-y,z
1/2+x,1/2-y,-z
1/2-x,1/2+y,-z
loop_
_atom_site_type_symbol
_atom_site_label
_atom_site_fract_x
_atom_site_fract_y
_atom_site_fract_z
Si Si1 0.500000 0.914426 0.000000
Si Si2 0.375590 0.126685 0.610371
Si Si3 0.137000 0.768797 0.102114
Si Si4 0.310814 0.052809 0.237421
Si Si5 0.362975 0.231953 0.392903
Si Si6 0.689407 0.621779 0.918669
Si Si7 0.860463 0.019654 0.250697
O O1 0.467861 0.881931 0.224074
O O2 0.595615 0.945167 0.069631
O O3 0.351862 0.075709 0.476416
O O4 0.374140 0.173521 0.439185
O O5 0.286509 0.137337 0.783636
O O6 0.250000 0.750000 0.112664
O O7 0.096270 0.743862 0.865297
O O8 0.098959 0.756735 0.364210
O O9 0.132120 0.827703 0.050493
O O10 0.250215 0.002259 0.248209
O O11 0.229650 0.092672 0.146598
O O12 0.250000 0.250000 0.380461
O O13 0.637586 0.578972 0.766672
O O14 0.898472 0.000000 0.500000
O O15 0.899598 0.000000 0.000000
#
# Coordination Sequence:
#
# PCOD9322442 Si02
#       7
#     4   8   8   8   8   8   8
#     4  10  24  34  51  70  88 136 174 228 271 308
#     4  11  19  34  50  67  96 124 163 216 272 325
#     4  10  18  29  45  75  91 114 144 191 267 320
#     4  10  20  35  50  64  90 126 171 209 264 302
#     4  10  19  29  49  73  92 116 147 197 269 327
#     4  10  19  31  50  69  94 119 157 210 267 318
#     4  10  20  33  51  68  88 124 165 206 261 305
#
# _framework density 24.659562999999999
#
# number of rings (size 3 to 8) (size 9 to 14) (size 15 to 20)
#    0.000    1.846    4.615    2.308    2.154    0.000 
#    0.000    9.615    0.000    0.000    0.000    0.000 
#    0.000    0.000    0.000    0.000    0.000    0.000 
#
# Total GULP energy -145276.096780 kJ/mol
# GULP energy per Si atom -5587.542184 kJ/mol
# Density = 2.460344 g / cm^3
# Si number density = 24.659563 Si / 1000 Ang^3
#
#
#
# Elastic Constant Matrix: (Units=GPa)
#
#
# Indices 1 2 3 4 5 6 
#
# 1 83.4097 17.7707 29.8650 0.0000 0.0000 0.0000
# 2 17.7707 153.4217 41.7915 0.0000 0.0000 0.0000
# 3 29.8650 41.7915 188.2590 0.0000 0.0000 0.0000
# 4 0.0000 0.0000 0.0000 517.2917 0.0000 0.0000
# 5 0.0000 0.0000 0.0000 0.0000 -122.7504 0.0000
# 6 0.0000 0.0000 0.0000 0.0000 0.0000 -4.4536
#
#
#
# Elastic Compliance Matrix: (Units=1/GPa)
#
#
# Indices 1 2 3 4 5 6 
#
# 1 0.012852 -0.000993 -0.001818 0.000000 0.000000 0.000000
# 2 -0.000993 0.007014 -0.001400 0.000000 0.000000 0.000000
# 3 -0.001818 -0.001400 0.005911 0.000000 0.000000 0.000000
# 4 0.000000 0.000000 0.000000 0.001933 0.000000 0.000000
# 5 0.000000 0.000000 0.000000 0.000000 -0.008147 0.000000
# 6 0.000000 0.000000 0.000000 0.000000 0.000000 -0.224539
#
#
# Mechanical properties :
#
#
# Convention : Reuss Voigt Hill
#
# Bulk Modulus (GPa) = 57.62120 67.10497 62.36308
# Shear Modulus (GPa) = -26.20980 100.39510 37.09265
#
# Velocity S-wave (km/s) = -3.26370 6.38755 3.88260
# Velocity P-wave (km/s) = 3.03564 9.03730 6.74121
#
# Compressibility (1/GPa) = 0.01735472
#
# Stress axis : x y z
#
# Youngs Moduli (GPa) = 77.81090 142.56673 169.17747
#
# Poissons Ratio (x) = 0.14161 0.30761
# Poissons Ratio (y) = 0.07729 0.23677
# Poissons Ratio (z) = 0.14148 0.19952
#
# Static dielectric constant tensor:
#      x y z
#    x 1.950360 0.000000 0.000000 
#    y 0.000000 1.929360 0.000000 
#    z 0.000000 0.000000 2.042490 
# 
# From -- ./inp_files/5287.got.cif
#   From: 2010.05.17/outbox.cif.g08.bks.cpg/sg21_3_cif.got.tgz:5287.got - 2010.06.03 23:14:55.
