data_PCOD9322426
_publ_section_title
;
Structure prediction by ZEFSAII (Michael W. Deem and Ramdas Pophale) SiO2 
 PCOD9322426
Probable space group: C 2 2 2
;
_chemical_formula_sum "Si O2"
_cell_formula_units_Z 56
_cell_length_a 14.008023
_cell_length_b 30.599974
_cell_length_c 7.971591
_cell_angle_alpha 90.000000
_cell_angle_beta 90.000000
_cell_angle_gamma 90.000000
_cell_volume 3416.983737
_symmetry_space_group_name_H-M "C 2 2 2"
_symmetry_group_IT_number 21
_symmetry_cell_setting 'orthorhombic'
loop_
_space_group_symop_operation_xyz
x,y,z
-x,-y,z
x,-y,-z
-x,y,-z
1/2+x,1/2+y,z
1/2-x,1/2-y,z
1/2+x,1/2-y,-z
1/2-x,1/2+y,-z
loop_
_atom_site_type_symbol
_atom_site_label
_atom_site_fract_x
_atom_site_fract_y
_atom_site_fract_z
Si Si1 0.383883 1.000000 0.304110
Si Si2 0.107228 0.774214 0.197127
Si Si3 0.607228 0.725786 0.197127
Si Si4 0.611193 0.095037 0.294714
Si Si5 0.699496 0.815008 0.303078
Si Si6 0.111193 0.595037 0.705286
Si Si7 0.300504 0.815008 0.303078
O O1 0.355404 0.047219 0.232549
O O2 0.500000 0.000000 0.301584
O O3 0.354975 0.000000 0.500000
O O4 0.355404 0.952781 0.232549
O O5 0.189579 0.803138 0.280621
O O6 0.139885 0.723890 0.218279
O O7 1.000000 0.780119 0.263131
O O8 0.107806 0.784284 0.000000
O O9 0.639885 0.776110 0.218279
O O10 0.689579 0.696862 0.280621
O O11 0.613933 0.093309 0.500000
O O12 0.500000 0.101164 0.248599
O O13 0.670967 0.137068 0.240219
O O14 0.670967 0.862932 0.240219
O O15 0.675973 0.813000 0.500000
#
# Coordination Sequence:
#
# PCOD9322426 Si02
#       7
#     8   8   8   8   8   8   8
#     4   7  10  18  32  52  82 113 132 150 185 237
#     4  10  20  32  43  56  79 111 142 169 199 240
#     4  10  20  32  43  56  79 111 142 169 199 240
#     4   8  13  21  35  58  86 111 132 156 192 238
#     4  10  18  27  43  65  85 105 133 170 206 239
#     4   8  13  21  35  58  86 111 132 156 192 238
#     4  10  18  27  43  65  85 105 133 170 206 239
#
# _framework density 16.388724
#
# number of rings (size 3 to 8) (size 9 to 14) (size 15 to 20)
#    0.000    3.000    0.000    6.000    0.000    3.429 
#    0.000    0.000    0.000    0.000    0.000    5.000 
#    0.000   24.000    0.000    0.000    0.000    0.000 
#
# Total GULP energy -155916.857193 kJ/mol
# GULP energy per Si atom -5568.459185 kJ/mol
# Density = 1.635142 g / cm^3
# Si number density = 16.388724 Si / 1000 Ang^3
#
#
#
# Elastic Constant Matrix: (Units=GPa)
#
#
# Indices 1 2 3 4 5 6 
#
# 1 69.7138 49.4075 -10.5187 0.0000 0.0000 0.0000
# 2 49.4075 159.5576 -4.4101 0.0000 0.0000 0.0000
# 3 -10.5187 -4.4101 15.3601 0.0000 0.0000 0.0000
# 4 0.0000 0.0000 0.0000 -22.0063 0.0000 0.0000
# 5 0.0000 0.0000 0.0000 0.0000 13.4831 0.0000
# 6 0.0000 0.0000 0.0000 0.0000 0.0000 23.3735
#
#
#
# Elastic Compliance Matrix: (Units=1/GPa)
#
#
# Indices 1 2 3 4 5 6 
#
# 1 0.020443 -0.005991 0.012279 0.000000 0.000000 0.000000
# 2 -0.005991 0.008073 -0.001785 0.000000 0.000000 0.000000
# 3 0.012279 -0.001785 0.073000 0.000000 0.000000 0.000000
# 4 0.000000 0.000000 0.000000 -0.045441 0.000000 0.000000
# 5 0.000000 0.000000 0.000000 0.000000 0.074167 0.000000
# 6 0.000000 0.000000 0.000000 0.000000 0.000000 0.042783
#
#
# Mechanical properties :
#
#
# Convention : Reuss Voigt Hill
#
# Bulk Modulus (GPa) = 9.04779 34.84320 21.94549
# Shear Modulus (GPa) = 24.89308 16.98024 20.93666
#
# Velocity S-wave (km/s) = 3.90155 3.22233 3.57810
# Velocity P-wave (km/s) = 5.08221 5.92884 5.52178
#
# Compressibility (1/GPa) = 0.11052425
#
# Stress axis : x y z
#
# Youngs Moduli (GPa) = 48.91663 123.86853 13.69857
#
# Poissons Ratio (x) = 0.74207 -0.16821
# Poissons Ratio (y) = 0.29305 0.02445
# Poissons Ratio (z) = -0.60067 0.22106
#
# Static dielectric constant tensor:
#      x y z
#    x 1.535020 0.000000 0.000000 
#    y 0.000000 1.584640 0.000000 
#    z 0.000000 0.000000 1.575650 
# 
# From -- ./inp_files/15569.got.cif
#   From: 2010.05.17/outbox.cif.g08.bks.cpg/sg21_8_cif.got.tgz:15569.got - 2010.06.03 23:14:55.
