data_PCOD9322220
_publ_section_title
;
Structure prediction by ZEFSAII (Michael W. Deem and Ramdas Pophale) SiO2 
 PCOD9322220
Probable space group: C 2 2 21
;
_chemical_formula_sum "Si O2"
_cell_formula_units_Z 32
_cell_length_a 18.000000
_cell_length_b 12.000000
_cell_length_c 15.000000
_cell_angle_alpha 90.000000
_cell_angle_beta 90.000000
_cell_angle_gamma 90.000000
_cell_volume 3240.000000
_symmetry_space_group_name_H-M "C 2 2 21"
_symmetry_group_IT_number 20
_symmetry_cell_setting 'orthorhombic'
loop_
_space_group_symop_operation_xyz
x,y,z
-x,-y,1/2+z
x,-y,-z
-x,y,1/2-z
1/2+x,1/2+y,z
1/2-x,1/2-y,1/2+z
1/2+x,1/2-y,-z
1/2-x,1/2+y,1/2-z
loop_
_atom_site_type_symbol
_atom_site_label
_atom_site_fract_x
_atom_site_fract_y
_atom_site_fract_z
Si Si1 0.196786 0.577073 0.211334
Si Si2 0.916750 0.796857 0.785711
Si Si3 0.102154 0.112215 0.942724
Si Si4 0.780065 0.301366 0.518544
Si Si5 0.024767 0.275732 0.476110
Si Si6 0.851140 0.259644 0.879634
Si Si7 0.890198 0.384221 0.369260
Si Si8 0.650113 0.541824 0.743246
O O1 0.176406 0.657827 0.297074
O O2 0.126002 0.502882 0.178416
O O3 0.261315 0.489537 0.242623
O O4 0.224371 0.641368 0.118682
O O5 0.882848 0.709053 0.711565
O O6 0.000000 0.806608 0.750000
O O7 0.924401 0.761680 0.890357
O O8 0.882634 0.920056 0.780185
O O9 0.113599 0.080908 0.837841
O O10 0.171919 0.190455 0.965187
O O11 0.030122 0.181657 0.979369
O O12 0.104307 0.000000 0.000000
O O13 0.708659 0.267444 0.458571
O O14 0.828197 0.372508 0.446853
O O15 0.967140 0.361204 0.424791
O O16 0.078473 0.304974 0.560899
O O17 0.864830 0.140911 0.828344
#
# Coordination Sequence:
#
# PCOD9322220 Si02
#       8
#     8   8   8   8   8   8   8   8
#     4  12  25  46  73 103 145 194 239 299 360 444
#     4  10  22  43  69 100 137 189 235 295 360 428
#     4  11  23  44  69  97 138 187 229 294 368 432
#     4  11  23  46  68 101 140 183 241 294 365 420
#     4  10  25  44  70 105 149 186 237 299 358 435
#     4  12  26  43  71 113 139 184 248 302 353 434
#     4  10  22  46  71  97 138 193 241 285 366 434
#     4  12  25  40  72 102 141 181 237 308 354 419
#
# _framework density 9.8765429999999999
#
# number of rings (size 3 to 8) (size 9 to 14) (size 15 to 20)
#    0.000    1.000    2.500    4.875    3.500    2.000 
#    0.000   14.375    0.000    0.000    0.000    0.000 
#    0.000    0.000    0.000    0.000    0.000    0.000 
#
# Total GULP energy -178351.452471 kJ/mol
# GULP energy per Si atom -5573.482890 kJ/mol
# Density = 0.985406 g / cm^3
# Si number density = 9.876543 Si / 1000 Ang^3
#
#
#
# Elastic Constant Matrix: (Units=GPa)
#
#
# Indices 1 2 3 4 5 6 
#
# 1 57.9184 20.8016 47.0286 0.0000 0.0000 0.0000
# 2 20.8016 82.2976 41.2218 0.0000 0.0000 0.0000
# 3 47.0286 41.2218 189.0228 0.0000 0.0000 0.0000
# 4 0.0000 0.0000 0.0000 38.1260 0.0000 0.0000
# 5 0.0000 0.0000 0.0000 0.0000 43.5377 0.0000
# 6 0.0000 0.0000 0.0000 0.0000 0.0000 30.8849
#
#
#
# Elastic Compliance Matrix: (Units=1/GPa)
#
#
# Indices 1 2 3 4 5 6 
#
# 1 0.022371 -0.003218 -0.004864 0.000000 0.000000 0.000000
# 2 -0.003218 0.014104 -0.002275 0.000000 0.000000 0.000000
# 3 -0.004864 -0.002275 0.006997 0.000000 0.000000 0.000000
# 4 0.000000 0.000000 0.000000 0.026229 0.000000 0.000000
# 5 0.000000 0.000000 0.000000 0.000000 0.022969 0.000000
# 6 0.000000 0.000000 0.000000 0.000000 0.000000 0.032378
#
#
# Mechanical properties :
#
#
# Convention : Reuss Voigt Hill
#
# Bulk Modulus (GPa) = 43.94243 60.81586 52.37915
# Shear Modulus (GPa) = 32.60563 37.18884 34.89724
#
# Velocity S-wave (km/s) = 4.06724 4.34370 4.20774
# Velocity P-wave (km/s) = 6.65963 7.48411 7.08387
#
# Compressibility (1/GPa) = 0.02275705
#
# Stress axis : x y z
#
# Youngs Moduli (GPa) = 44.70077 70.90175 142.92479
#
# Poissons Ratio (x) = 0.22817 0.69519
# Poissons Ratio (y) = 0.14385 0.32517
# Poissons Ratio (z) = 0.21743 0.16131
#
# Static dielectric constant tensor:
#      x y z
#    x 1.757330 0.000000 0.000000 
#    y 0.000000 1.712920 0.000000 
#    z 0.000000 0.000000 1.698340 
# 
# From -- ./inp_files/21483.got.cif
#   From: 2010.05.17/outbox.ucp.g08.bks.cvg/sg20_11_cif.got.tgz:21483.got - 2010.06.11 15:13:06.
