data_PCOD9322855
_publ_section_title
;
Structure prediction by ZEFSAII (Michael W. Deem and Ramdas Pophale) SiO2 
 PCOD9322855
Probable space group: C 2 2 2
;
_chemical_formula_sum "Si O2"
_cell_formula_units_Z 64
_cell_length_a 16.055920
_cell_length_b 16.755629
_cell_length_c 12.782820
_cell_angle_alpha 90.000000
_cell_angle_beta 90.000000
_cell_angle_gamma 90.000000
_cell_volume 3438.924212
_symmetry_space_group_name_H-M "C 2 2 2"
_symmetry_group_IT_number 21
_symmetry_cell_setting 'orthorhombic'
loop_
_space_group_symop_operation_xyz
x,y,z
-x,-y,z
x,-y,-z
-x,y,-z
1/2+x,1/2+y,z
1/2-x,1/2-y,z
1/2+x,1/2-y,-z
1/2-x,1/2+y,-z
loop_
_atom_site_type_symbol
_atom_site_label
_atom_site_fract_x
_atom_site_fract_y
_atom_site_fract_z
Si Si1 0.260706 0.599857 0.905882
Si Si2 0.240000 0.652688 0.580270
Si Si3 0.622897 0.168103 0.758737
Si Si4 0.031057 0.093181 0.611995
Si Si5 0.383822 0.643982 0.738445
Si Si6 0.220802 0.844337 0.351818
Si Si7 0.217839 0.584484 0.134294
Si Si8 0.477620 0.093707 0.883855
O O1 0.192809 0.653354 0.846878
O O2 0.347395 0.609897 0.845753
O O3 0.229249 0.510253 0.882264
O O4 0.260410 0.618350 0.028704
O O5 0.250000 0.750000 0.578971
O O6 0.160557 0.632440 0.651604
O O7 0.320187 0.619562 0.644114
O O8 0.236117 0.626930 0.460213
O O9 0.618689 0.261574 0.743884
O O10 0.536063 0.134021 0.798040
O O11 0.124656 0.126668 0.628547
O O12 0.000000 0.127024 0.500000
O O13 0.976372 0.122308 0.708689
O O14 0.000000 0.000000 0.608162
O O15 0.250000 0.750000 0.342844
O O16 0.246577 0.885733 0.243771
O O17 0.120053 0.603743 0.132532
O O18 0.500000 0.000000 0.882594
O O19 0.500000 0.124207 0.000000
#
# Coordination Sequence:
#
# PCOD9322855 Si02
#       8
#     8   8   8   8   8   8   8   8
#     4  10  19  39  60  89 118 164 206 250 308 384
#     4   8  17  36  56  84 115 156 194 246 313 369
#     4  10  19  34  61  87 116 156 210 251 302 375
#     4  11  23  42  64  92 121 167 221 259 300 389
#     4  10  20  36  64  87 114 155 210 256 299 369
#     4  11  24  41  60  92 131 163 203 267 330 368
#     4  11  22  37  61  88 125 165 198 258 326 371
#     4  11  19  37  59  87 120 162 207 250 303 381
#
# _framework density 18.610471
#
# number of rings (size 3 to 8) (size 9 to 14) (size 15 to 20)
#    0.000    1.750    3.750    2.625    1.750    1.000 
#    0.000    1.250    0.000    3.000    0.000    0.000 
#    0.000    0.000    0.000    0.000    0.000    0.000 
#
# Total GULP energy -178231.023343 kJ/mol
# GULP energy per Si atom -5569.719479 kJ/mol
# Density = 1.856811 g / cm^3
# Si number density = 18.610471 Si / 1000 Ang^3
#
#
#
# Elastic Constant Matrix: (Units=GPa)
#
#
# Indices 1 2 3 4 5 6 
#
# 1 127.1874 21.2410 79.2790 0.0000 0.0000 0.0000
# 2 21.2410 38.0017 24.3641 0.0000 0.0000 0.0000
# 3 79.2790 24.3641 177.0352 0.0000 0.0000 0.0000
# 4 0.0000 0.0000 0.0000 24.5074 0.0000 0.0000
# 5 0.0000 0.0000 0.0000 0.0000 32.5489 0.0000
# 6 0.0000 0.0000 0.0000 0.0000 0.0000 -0.9205
#
#
#
# Elastic Compliance Matrix: (Units=1/GPa)
#
#
# Indices 1 2 3 4 5 6 
#
# 1 0.011286 -0.003365 -0.004591 0.000000 0.000000 0.000000
# 2 -0.003365 0.029864 -0.002603 0.000000 0.000000 0.000000
# 3 -0.004591 -0.002603 0.008063 0.000000 0.000000 0.000000
# 4 0.000000 0.000000 0.000000 0.040804 0.000000 0.000000
# 5 0.000000 0.000000 0.000000 0.000000 0.030723 0.000000
# 6 0.000000 0.000000 0.000000 0.000000 0.000000 -1.086353
#
#
# Mechanical properties :
#
#
# Convention : Reuss Voigt Hill
#
# Bulk Modulus (GPa) = 35.59343 65.77695 50.68519
# Shear Modulus (GPa) = -5.34685 25.71652 10.18483
#
# Velocity S-wave (km/s) = -1.69684 3.72133 2.34190
# Velocity P-wave (km/s) = 3.91510 7.34065 5.88274
#
# Compressibility (1/GPa) = 0.02809507
#
# Stress axis : x y z
#
# Youngs Moduli (GPa) = 88.60506 33.48473 124.02708
#
# Poissons Ratio (x) = 0.11267 0.56940
# Poissons Ratio (y) = 0.29815 0.32286
# Poissons Ratio (z) = 0.40678 0.08717
#
# Static dielectric constant tensor:
#      x y z
#    x 1.624720 0.000000 0.000000 
#    y 0.000000 1.706540 0.000000 
#    z 0.000000 0.000000 1.722200 
# 
# From -- ./inp_files/25508.got.cif
#   From: 2010.05.17/outbox.cif.g08.bks.cpg/sg21_13_cif.got.tgz:25508.got - 2010.06.03 23:14:55.
