data_PCOD9322780
_publ_section_title
;
Structure prediction by ZEFSAII (Michael W. Deem and Ramdas Pophale) SiO2 
 PCOD9322780
Probable space group: C 2 2 2
;
_chemical_formula_sum "Si O2"
_cell_formula_units_Z 64
_cell_length_a 17.363825
_cell_length_b 22.104431
_cell_length_c 8.380691
_cell_angle_alpha 90.000000
_cell_angle_beta 90.000000
_cell_angle_gamma 90.000000
_cell_volume 3216.655630
_symmetry_space_group_name_H-M "C 2 2 2"
_symmetry_group_IT_number 21
_symmetry_cell_setting 'orthorhombic'
loop_
_space_group_symop_operation_xyz
x,y,z
-x,-y,z
x,-y,-z
-x,y,-z
1/2+x,1/2+y,z
1/2-x,1/2-y,z
1/2+x,1/2-y,-z
1/2-x,1/2+y,-z
loop_
_atom_site_type_symbol
_atom_site_label
_atom_site_fract_x
_atom_site_fract_y
_atom_site_fract_z
Si Si1 0.183752 0.197721 0.168959
Si Si2 0.680251 0.443779 0.281315
Si Si3 0.985762 0.640138 0.808917
Si Si4 0.619766 0.947061 0.225074
Si Si5 0.072944 0.856492 0.100468
Si Si6 0.975997 0.767720 0.322078
Si Si7 0.275544 0.576249 0.642769
Si Si8 0.341332 0.919519 0.129362
O O1 0.250000 0.250000 0.147917
O O2 0.112709 0.220570 0.277771
O O3 0.213503 0.137901 0.260568
O O4 0.139788 0.174499 0.008298
O O5 0.608381 0.410727 0.203164
O O6 0.690897 0.423816 0.464884
O O7 0.685479 0.517032 0.274767
O O8 0.754982 0.420818 0.186480
O O9 0.037690 0.583700 0.752121
O O10 0.011520 0.697690 0.712924
O O11 0.894799 0.630924 0.794200
O O12 0.000000 0.647357 0.000000
O O13 0.683690 0.936754 0.359959
O O14 0.619086 0.017597 0.183761
O O15 0.653291 0.917267 0.061709
O O16 0.032806 0.805111 0.207368
O O17 0.000000 0.880252 0.000000
O O18 0.000000 0.783788 0.500000
#
# Coordination Sequence:
#
# PCOD9322780 Si02
#       8
#     8   8   8   8   8   8   8   8
#     4  11  23  41  64  89 117 155 200 245 291 346
#     4  10  21  39  60  88 120 150 192 244 296 353
#     4  10  19  33  53  79 115 157 198 240 286 337
#     4   9  17  32  52  81 116 153 195 240 285 336
#     4  10  23  43  65  87 114 150 195 245 298 353
#     4  11  24  41  58  82 118 154 191 239 294 355
#     4  10  21  37  61  89 120 154 190 240 297 350
#     4   9  18  31  54  82 113 153 198 240 282 335
#
# _framework density 19.896442
#
# number of rings (size 3 to 8) (size 9 to 14) (size 15 to 20)
#    0.000    2.000    0.000    3.750    0.000    8.000 
#    0.000    5.625    0.000   10.500    0.000    0.000 
#    0.000    0.000    0.000    0.000    0.000    0.000 
#
# Total GULP energy -178566.216652 kJ/mol
# GULP energy per Si atom -5580.194270 kJ/mol
# Density = 1.985116 g / cm^3
# Si number density = 19.896442 Si / 1000 Ang^3
#
#
#
# Elastic Constant Matrix: (Units=GPa)
#
#
# Indices 1 2 3 4 5 6 
#
# 1 99.7121 50.8177 46.6302 0.0000 0.0000 0.0000
# 2 50.8177 61.2535 21.3479 0.0000 0.0000 0.0000
# 3 46.6302 21.3479 64.3674 0.0000 0.0000 0.0000
# 4 0.0000 0.0000 0.0000 16.0878 0.0000 0.0000
# 5 0.0000 0.0000 0.0000 0.0000 3.5945 0.0000
# 6 0.0000 0.0000 0.0000 0.0000 0.0000 32.5644
#
#
#
# Elastic Compliance Matrix: (Units=1/GPa)
#
#
# Indices 1 2 3 4 5 6 
#
# 1 0.023331 -0.015225 -0.011852 0.000000 0.000000 0.000000
# 2 -0.015225 0.028395 0.001612 0.000000 0.000000 0.000000
# 3 -0.011852 0.001612 0.023587 0.000000 0.000000 0.000000
# 4 0.000000 0.000000 0.000000 0.062159 0.000000 0.000000
# 5 0.000000 0.000000 0.000000 0.000000 0.278202 0.000000
# 6 0.000000 0.000000 0.000000 0.000000 0.000000 0.030708
#
#
# Mechanical properties :
#
#
# Convention : Reuss Voigt Hill
#
# Bulk Modulus (GPa) = 41.01233 51.43606 46.22420
# Shear Modulus (GPa) = 9.89234 17.55181 13.72208
#
# Velocity S-wave (km/s) = 2.23220 2.97334 2.62902
# Velocity P-wave (km/s) = 5.22506 6.13968 5.70074
#
# Compressibility (1/GPa) = 0.02438291
#
# Stress axis : x y z
#
# Youngs Moduli (GPa) = 42.86101 35.21733 42.39555
#
# Poissons Ratio (x) = 0.53620 0.50249
# Poissons Ratio (y) = 0.65258 -0.06836
# Poissons Ratio (z) = 0.50801 -0.05679
#
# Static dielectric constant tensor:
#      x y z
#    x 1.725700 0.000000 0.000000 
#    y 0.000000 1.690930 0.000000 
#    z 0.000000 0.000000 1.724830 
# 
# From -- ./inp_files/16875.got.cif
#   From: 2010.05.17/outbox.cif.g08.bks.cpg/sg21_9_cif.got.tgz:16875.got - 2010.06.03 23:14:55.
