data_PCOD9322322
_publ_section_title
;
Structure prediction by ZEFSAII (Michael W. Deem and Ramdas Pophale) SiO2 
 PCOD9322322
Probable space group: C 2 2 2
;
_chemical_formula_sum "Si O2"
_cell_formula_units_Z 48
_cell_length_a 19.698393
_cell_length_b 17.684976
_cell_length_c 5.562159
_cell_angle_alpha 90.000000
_cell_angle_beta 90.000000
_cell_angle_gamma 90.000000
_cell_volume 1937.664899
_symmetry_space_group_name_H-M "C 2 2 2"
_symmetry_group_IT_number 21
_symmetry_cell_setting 'orthorhombic'
loop_
_space_group_symop_operation_xyz
x,y,z
-x,-y,z
x,-y,-z
-x,y,-z
1/2+x,1/2+y,z
1/2-x,1/2-y,z
1/2+x,1/2-y,-z
1/2-x,1/2+y,-z
loop_
_atom_site_type_symbol
_atom_site_label
_atom_site_fract_x
_atom_site_fract_y
_atom_site_fract_z
Si Si1 0.260007 0.840867 0.078896
Si Si2 0.458095 0.204149 0.751795
Si Si3 0.896554 0.854554 0.905590
Si Si4 0.921873 0.469588 0.252691
Si Si5 0.107252 0.086684 0.422289
Si Si6 0.257483 0.840959 0.579661
O O1 0.250000 0.750000 0.075918
O O2 0.183400 0.873876 0.082488
O O3 0.290420 0.864812 0.330947
O O4 0.293398 0.862080 0.827455
O O5 0.500000 0.221103 0.500000
O O6 0.402306 0.266304 0.832400
O O7 0.430654 0.120105 0.730675
O O8 0.500000 0.205174 0.000000
O O9 0.930421 0.887166 0.664959
O O10 0.922481 0.886956 0.162212
O O11 0.889884 0.500000 0.500000
O O12 0.000000 0.500000 0.251469
O O13 0.892038 0.500000 0.000000
O O14 0.181055 0.127093 0.417660
O O15 0.118052 0.000000 0.500000
O O16 0.250000 0.750000 0.576655
#
# Coordination Sequence:
#
# PCOD9322322 Si02
#       6
#     8   8   8   8   8   8
#     4   8  14  27  46  69  98 127 161 208 256 302
#     4  12  21  33  53  77 111 140 175 231 275 332
#     4  10  21  33  50  81 104 136 184 231 271 329
#     4  10  16  30  49  75 103 134 176 211 252 307
#     4  10  19  34  53  74 105 137 184 233 269 327
#     4   8  14  25  45  73  98 123 159 211 262 305
#
# _framework density 24.772088
#
# number of rings (size 3 to 8) (size 9 to 14) (size 15 to 20)
#    0.000    2.333    3.333    1.500    0.000    0.000 
#    0.000    0.000    0.000    7.500    0.000   56.000 
#    0.000    0.000    0.000    0.000    0.000    0.000 
#
# Total GULP energy -133649.957420 kJ/mol
# GULP energy per Si atom -5568.748226 kJ/mol
# Density = 2.471571 g / cm^3
# Si number density = 24.772088 Si / 1000 Ang^3
#
#
#
# Elastic Constant Matrix: (Units=GPa)
#
#
# Indices 1 2 3 4 5 6 
#
# 1 65.1404 18.8342 20.8103 0.0000 0.0000 0.0000
# 2 18.8342 126.3574 36.6369 0.0000 0.0000 0.0000
# 3 20.8103 36.6369 330.6510 0.0000 0.0000 0.0000
# 4 0.0000 0.0000 0.0000 37.2477 0.0000 0.0000
# 5 0.0000 0.0000 0.0000 0.0000 2.8033 0.0000
# 6 0.0000 0.0000 0.0000 0.0000 0.0000 -21.6523
#
#
#
# Elastic Compliance Matrix: (Units=1/GPa)
#
#
# Indices 1 2 3 4 5 6 
#
# 1 0.016235 -0.002194 -0.000779 0.000000 0.000000 0.000000
# 2 -0.002194 0.008473 -0.000801 0.000000 0.000000 0.000000
# 3 -0.000779 -0.000801 0.003162 0.000000 0.000000 0.000000
# 4 0.000000 0.000000 0.000000 0.026847 0.000000 0.000000
# 5 0.000000 0.000000 0.000000 0.000000 0.356728 0.000000
# 6 0.000000 0.000000 0.000000 0.000000 0.000000 -0.046185
#
#
# Mechanical properties :
#
#
# Convention : Reuss Voigt Hill
#
# Bulk Modulus (GPa) = 49.20550 74.96798 62.08674
# Shear Modulus (GPa) = 13.17238 33.40421 23.28829
#
# Velocity S-wave (km/s) = 2.30846 3.67612 3.06943
# Velocity P-wave (km/s) = 5.19728 6.95322 6.13836
#
# Compressibility (1/GPa) = 0.02032293
#
# Stress axis : x y z
#
# Youngs Moduli (GPa) = 61.59684 118.01802 316.24847
#
# Poissons Ratio (x) = 0.25894 0.24625
# Poissons Ratio (y) = 0.13515 0.25324
# Poissons Ratio (z) = 0.04796 0.09451
#
# Static dielectric constant tensor:
#      x y z
#    x 1.956150 0.000000 0.000000 
#    y 0.000000 2.025120 0.000000 
#    z 0.000000 0.000000 2.132270 
# 
# From -- ./inp_files/7331.got.cif
#   From: 2010.05.17/outbox.cif.g08.bks.cpg/sg21_4_cif.got.tgz:7331.got - 2010.06.03 23:14:55.
