data_PCOD9322098
_publ_section_title
;
Structure prediction by ZEFSAII (Michael W. Deem and Ramdas Pophale) SiO2 
 PCOD9322098
Probable space group: C 2 2 21
;
_chemical_formula_sum "Si O2"
_cell_formula_units_Z 40
_cell_length_a 23.598082
_cell_length_b 6.775072
_cell_length_c 9.415945
_cell_angle_alpha 90.000000
_cell_angle_beta 90.000000
_cell_angle_gamma 90.000000
_cell_volume 1505.409089
_symmetry_space_group_name_H-M "C 2 2 21"
_symmetry_group_IT_number 20
_symmetry_cell_setting 'orthorhombic'
loop_
_space_group_symop_operation_xyz
x,y,z
-x,-y,1/2+z
x,-y,-z
-x,y,1/2-z
1/2+x,1/2+y,z
1/2-x,1/2-y,1/2+z
1/2+x,1/2-y,-z
1/2-x,1/2+y,1/2-z
loop_
_atom_site_type_symbol
_atom_site_label
_atom_site_fract_x
_atom_site_fract_y
_atom_site_fract_z
Si Si1 0.668622 0.647327 0.691839
Si Si2 0.957256 0.622566 0.882546
Si Si3 0.277398 0.658769 0.382447
Si Si4 0.039690 0.121609 0.609073
Si Si5 0.129531 0.482068 0.149235
O O1 0.705853 0.460991 0.740224
O O2 0.712484 0.776534 0.601060
O O3 0.607346 0.593607 0.634887
O O4 0.650141 0.799756 0.814629
O O5 0.957828 0.372914 0.931864
O O6 0.898602 0.613912 0.789797
O O7 0.000000 0.606797 0.750000
O O8 0.972323 0.870912 0.926357
O O9 0.291706 0.500000 0.500000
O O10 0.317681 0.845253 0.385982
O O11 0.000000 0.136745 0.750000
O O12 0.093899 0.500000 0.000000
#
# Coordination Sequence:
#
# PCOD9322098 Si02
#       5
#     8   8   8   8   8
#     4  12  27  48  77 118 158 210 271 332 408 476
#     4  12  26  46  76 112 151 206 267 335 401 484
#     4  12  27  46  77 116 160 211 266 333 405 482
#     4  12  29  52  80 115 159 211 268 337 406 482
#     4  12  26  48  77 115 160 213 269 334 403 489
#
# _framework density 26.570851999999999
#
# number of rings (size 3 to 8) (size 9 to 14) (size 15 to 20)
#    0.000    0.000    6.000    3.000    5.600    3.200 
#    0.000    0.000    0.000    0.000    0.000    0.000 
#    0.000    0.000    0.000    0.000    0.000    0.000 
#
# Total GULP energy -111659.433390 kJ/mol
# GULP energy per Si atom -5582.971670 kJ/mol
# Density = 2.651038 g / cm^3
# Si number density = 26.570852 Si / 1000 Ang^3
#
#
#
# Elastic Constant Matrix: (Units=GPa)
#
#
# Indices 1 2 3 4 5 6 
#
# 1 143.0750 30.1579 78.1808 0.0000 0.0000 0.0000
# 2 30.1579 183.6285 94.1486 0.0000 0.0000 0.0000
# 3 78.1808 94.1486 196.2396 0.0000 0.0000 0.0000
# 4 0.0000 0.0000 0.0000 89.6545 0.0000 0.0000
# 5 0.0000 0.0000 0.0000 0.0000 22.8017 0.0000
# 6 0.0000 0.0000 0.0000 0.0000 0.0000 104.9680
#
#
#
# Elastic Compliance Matrix: (Units=1/GPa)
#
#
# Indices 1 2 3 4 5 6 
#
# 1 0.008966 0.000476 -0.003800 0.000000 0.000000 0.000000
# 2 0.000476 0.007248 -0.003667 0.000000 0.000000 0.000000
# 3 -0.003800 -0.003667 0.008369 0.000000 0.000000 0.000000
# 4 0.000000 0.000000 0.000000 0.011154 0.000000 0.000000
# 5 0.000000 0.000000 0.000000 0.000000 0.043856 0.000000
# 6 0.000000 0.000000 0.000000 0.000000 0.000000 0.009527
#
#
# Mechanical properties :
#
#
# Convention : Reuss Voigt Hill
#
# Bulk Modulus (GPa) = 94.33817 103.10198 98.72007
# Shear Modulus (GPa) = 46.88918 64.84856 55.86887
#
# Velocity S-wave (km/s) = 4.20537 4.94559 4.59043
# Velocity P-wave (km/s) = 7.69166 8.45569 8.08271
#
# Compressibility (1/GPa) = 0.01060016
#
# Stress axis : x y z
#
# Youngs Moduli (GPa) = 111.53802 137.97671 119.48928
#
# Poissons Ratio (x) = -0.06567 0.45408
# Poissons Ratio (y) = -0.05309 0.43814
# Poissons Ratio (z) = 0.42386 0.50593
#
# Static dielectric constant tensor:
#      x y z
#    x 2.108090 0.000000 0.000000 
#    y 0.000000 2.223030 0.000000 
#    z 0.000000 0.000000 1.822580 
# 
# From -- ./inp_files/12178.got.cif
#   From: 2010.05.17/outbox.cif.g08.bks.cpg/sg20_7_cif.got.tgz:12178.got - 2010.06.03 22:52:26.
