data_PCOD9322417
_publ_section_title
;
Structure prediction by ZEFSAII (Michael W. Deem and Ramdas Pophale) SiO2 
 PCOD9322417
Probable space group: C 2 2 2
;
_chemical_formula_sum "Si O2"
_cell_formula_units_Z 40
_cell_length_a 15.916084
_cell_length_b 9.274878
_cell_length_c 13.195655
_cell_angle_alpha 90.000000
_cell_angle_beta 90.000000
_cell_angle_gamma 90.000000
_cell_volume 1947.939125
_symmetry_space_group_name_H-M "C 2 2 2"
_symmetry_group_IT_number 21
_symmetry_cell_setting 'orthorhombic'
loop_
_space_group_symop_operation_xyz
x,y,z
-x,-y,z
x,-y,-z
-x,y,-z
1/2+x,1/2+y,z
1/2-x,1/2-y,z
1/2+x,1/2-y,-z
1/2-x,1/2+y,-z
loop_
_atom_site_type_symbol
_atom_site_label
_atom_site_fract_x
_atom_site_fract_y
_atom_site_fract_z
Si Si1 0.566509 0.127749 0.182113
Si Si2 0.697617 0.118863 0.582226
Si Si3 0.751316 0.918117 0.754757
Si Si4 0.415793 0.426922 0.891277
Si Si5 0.515493 0.828626 0.387257
O O1 0.660383 0.065298 0.191570
O O2 0.566929 0.255954 0.101656
O O3 0.541626 0.206505 0.290067
O O4 0.500000 0.000000 0.165548
O O5 0.750000 0.250000 0.536795
O O6 0.614303 0.184700 0.633010
O O7 0.670851 0.000000 0.500000
O O8 0.751056 0.030243 0.663325
O O9 0.750000 0.750000 0.721463
O O10 0.831635 0.942283 0.825316
O O11 0.500000 0.500000 0.846640
O O12 0.402996 0.500000 0.000000
O O13 0.500000 0.765328 0.500000
O O14 0.500000 0.000000 0.394660
#
# Coordination Sequence:
#
# PCOD9322417 Si02
#       5
#     8   8   8   8   8
#     4  10  19  39  70  97 124 174 223 261 323 402
#     4  12  23  36  60  99 137 176 221 267 318 387
#     4  10  21  40  66  94 127 170 211 274 325 393
#     4  10  24  45  65  89 133 168 207 284 356 385
#     4  10  17  35  64  92 131 174 219 259 309 381
#
# _framework density 20.534523
#
# number of rings (size 3 to 8) (size 9 to 14) (size 15 to 20)
#    0.000    1.600    6.000    0.600    2.800    1.600 
#    0.000   17.000    0.000    0.000    0.000    0.000 
#    0.000    0.000    0.000    0.000    0.000    0.000 
#
# Total GULP energy -111509.153987 kJ/mol
# GULP energy per Si atom -5575.457699 kJ/mol
# Density = 2.048779 g / cm^3
# Si number density = 20.534523 Si / 1000 Ang^3
#
#
#
# Elastic Constant Matrix: (Units=GPa)
#
#
# Indices 1 2 3 4 5 6 
#
# 1 160.8488 38.2999 38.5985 0.0000 0.0000 0.0000
# 2 38.2999 77.9748 36.6735 0.0000 0.0000 0.0000
# 3 38.5985 36.6735 93.1989 0.0000 0.0000 0.0000
# 4 0.0000 0.0000 0.0000 29.6883 0.0000 0.0000
# 5 0.0000 0.0000 0.0000 0.0000 14.4899 0.0000
# 6 0.0000 0.0000 0.0000 0.0000 0.0000 17.9552
#
#
#
# Elastic Compliance Matrix: (Units=1/GPa)
#
#
# Indices 1 2 3 4 5 6 
#
# 1 0.007328 -0.002665 -0.001986 0.000000 0.000000 0.000000
# 2 -0.002665 0.016707 -0.005470 0.000000 0.000000 0.000000
# 3 -0.001986 -0.005470 0.013705 0.000000 0.000000 0.000000
# 4 0.000000 0.000000 0.000000 0.033683 0.000000 0.000000
# 5 0.000000 0.000000 0.000000 0.000000 0.069014 0.000000
# 6 0.000000 0.000000 0.000000 0.000000 0.000000 0.055694
#
#
# Mechanical properties :
#
#
# Convention : Reuss Voigt Hill
#
# Bulk Modulus (GPa) = 57.15500 62.12958 59.64229
# Shear Modulus (GPa) = 22.50161 26.99006 24.74584
#
# Velocity S-wave (km/s) = 3.31387 3.62936 3.47520
# Velocity P-wave (km/s) = 6.52199 6.91989 6.72388
#
# Compressibility (1/GPa) = 0.01749628
#
# Stress axis : x y z
#
# Youngs Moduli (GPa) = 136.45722 59.85668 72.96710
#
# Poissons Ratio (x) = 0.15954 0.14493
# Poissons Ratio (y) = 0.36371 0.39914
# Poissons Ratio (z) = 0.27103 0.32742
#
# Static dielectric constant tensor:
#      x y z
#    x 1.791680 0.000000 0.000000 
#    y 0.000000 1.759650 0.000000 
#    z 0.000000 0.000000 1.782460 
# 
# From -- ./inp_files/30165.got.cif
#   From: 2010.05.17/outbox.cif.g08.bks.cpg/sg21_16_cif.got.tgz:30165.got - 2010.06.03 23:14:55.
