data_PCOD9322520
_publ_section_title
;
Structure prediction by ZEFSAII (Michael W. Deem and Ramdas Pophale) SiO2 
 PCOD9322520
Probable space group: C 2 2 2
;
_chemical_formula_sum "Si O2"
_cell_formula_units_Z 32
_cell_length_a 14.691887
_cell_length_b 4.933462
_cell_length_c 18.584554
_cell_angle_alpha 90.000000
_cell_angle_beta 90.000000
_cell_angle_gamma 90.000000
_cell_volume 1347.043157
_symmetry_space_group_name_H-M "C 2 2 2"
_symmetry_group_IT_number 21
_symmetry_cell_setting 'orthorhombic'
loop_
_space_group_symop_operation_xyz
x,y,z
-x,-y,z
x,-y,-z
-x,y,-z
1/2+x,1/2+y,z
1/2-x,1/2-y,z
1/2+x,1/2-y,-z
1/2-x,1/2+y,-z
loop_
_atom_site_type_symbol
_atom_site_label
_atom_site_fract_x
_atom_site_fract_y
_atom_site_fract_z
Si Si1 0.640752 0.720857 0.148902
Si Si2 0.183115 0.505188 0.576303
Si Si3 0.939939 0.248958 0.701689
Si Si4 0.640275 0.208259 0.063595
O O1 0.750000 0.750000 0.145657
O O2 0.611921 0.635223 0.228285
O O3 0.612275 0.025934 0.131451
O O4 0.609849 0.509870 0.086468
O O5 0.129137 0.500000 0.500000
O O6 0.250000 0.750000 0.560284
O O7 0.123722 0.608895 0.642604
O O8 0.250000 0.250000 0.593235
O O9 0.000000 0.500000 0.727313
O O10 0.000000 0.000000 0.671472
O O11 0.750000 0.250000 0.055221
O O12 0.613593 0.000000 0.000000
#
# Coordination Sequence:
#
# PCOD9322520 Si02
#       4
#     8   8   8   8
#     4  10  21  36  59  88 121 163 208 256 314 382
#     4  10  22  43  70  98 129 170 222 275 327 391
#     4  12  25  41  63  94 135 174 213 268 326 391
#     4  10  18  32  57  91 121 149 201 269 322 367
#
# _framework density 23.755737
#
# number of rings (size 3 to 8) (size 9 to 14) (size 15 to 20)
#    0.000    1.500    0.000    6.750    0.000    3.500 
#    0.000    1.250    0.000   11.250    0.000    0.000 
#    0.000    0.000    0.000    0.000    0.000    0.000 
#
# Total GULP energy -89179.131562 kJ/mol
# GULP energy per Si atom -5573.695723 kJ/mol
# Density = 2.370167 g / cm^3
# Si number density = 23.755737 Si / 1000 Ang^3
#
#
#
# Elastic Constant Matrix: (Units=GPa)
#
#
# Indices 1 2 3 4 5 6 
#
# 1 59.9862 21.9055 37.5828 0.0000 0.0000 0.0000
# 2 21.9055 178.7531 37.7664 0.0000 0.0000 0.0000
# 3 37.5828 37.7664 152.3397 0.0000 0.0000 0.0000
# 4 0.0000 0.0000 0.0000 38.8172 0.0000 0.0000
# 5 0.0000 0.0000 0.0000 0.0000 372.4674 0.0000
# 6 0.0000 0.0000 0.0000 0.0000 0.0000 23.9324
#
#
#
# Elastic Compliance Matrix: (Units=1/GPa)
#
#
# Indices 1 2 3 4 5 6 
#
# 1 0.020089 -0.001493 -0.004586 0.000000 0.000000 0.000000
# 2 -0.001493 0.006014 -0.001123 0.000000 0.000000 0.000000
# 3 -0.004586 -0.001123 0.007974 0.000000 0.000000 0.000000
# 4 0.000000 0.000000 0.000000 0.025762 0.000000 0.000000
# 5 0.000000 0.000000 0.000000 0.000000 0.002685 0.000000
# 6 0.000000 0.000000 0.000000 0.000000 0.000000 0.041784
#
#
# Mechanical properties :
#
#
# Convention : Reuss Voigt Hill
#
# Bulk Modulus (GPa) = 50.82800 65.06539 57.94670
# Shear Modulus (GPa) = 39.91401 106.63169 73.27285
#
# Velocity S-wave (km/s) = 4.10345 6.70702 5.55979
# Velocity P-wave (km/s) = 6.62523 9.35028 8.10313
#
# Compressibility (1/GPa) = 0.01967419
#
# Stress axis : x y z
#
# Youngs Moduli (GPa) = 49.77889 166.26577 125.40804
#
# Poissons Ratio (x) = 0.24822 0.57511
# Poissons Ratio (y) = 0.07432 0.14080
# Poissons Ratio (z) = 0.22828 0.18667
#
# Static dielectric constant tensor:
#      x y z
#    x 1.948410 0.000000 0.000000 
#    y 0.000000 1.862120 0.000000 
#    z 0.000000 0.000000 2.031970 
# 
# From -- ./inp_files/32532.got.cif
#   From: 2010.05.17/outbox.cif.g08.bks.cpg/sg21_17_cif.got.tgz:32532.got - 2010.06.03 23:14:55.
