data_PCOD9322179
_publ_section_title
;
Structure prediction by ZEFSAII (Michael W. Deem and Ramdas Pophale) SiO2 
 PCOD9322179
Probable space group: C 2 2 21
;
_chemical_formula_sum "Si O2"
_cell_formula_units_Z 30
_cell_length_a 15.000000
_cell_length_b 12.000000
_cell_length_c 18.000000
_cell_angle_alpha 90.000000
_cell_angle_beta 90.000000
_cell_angle_gamma 90.000000
_cell_volume 3240.000000
_symmetry_space_group_name_H-M "C 2 2 21"
_symmetry_group_IT_number 20
_symmetry_cell_setting 'orthorhombic'
loop_
_space_group_symop_operation_xyz
x,y,z
-x,-y,1/2+z
x,-y,-z
-x,y,1/2-z
1/2+x,1/2+y,z
1/2-x,1/2-y,1/2+z
1/2+x,1/2-y,-z
1/2-x,1/2+y,1/2-z
loop_
_atom_site_type_symbol
_atom_site_label
_atom_site_fract_x
_atom_site_fract_y
_atom_site_fract_z
Si Si1 0.400231 0.253519 0.842117
Si Si2 0.841981 0.029204 0.689668
Si Si3 0.290750 0.000000 0.500000
Si Si4 0.288706 0.905238 0.061476
Si Si5 0.610500 0.729371 0.179282
Si Si6 0.346759 0.512985 0.865153
Si Si7 0.025259 0.097146 0.937628
Si Si8 0.856454 0.261775 0.487731
O O1 0.367044 0.171369 0.906093
O O2 0.361218 0.223028 0.759792
O O3 0.506012 0.248630 0.832552
O O4 0.373508 0.381571 0.859546
O O5 0.874860 0.902263 0.687408
O O6 0.833352 0.054013 0.778713
O O7 0.755970 0.042148 0.636193
O O8 0.915253 0.092060 0.637979
O O9 0.232755 0.018749 0.575004
O O10 0.345559 0.887710 0.513644
O O11 0.217827 0.820453 0.023191
O O12 0.309187 0.000000 0.000000
O O13 0.654066 0.761972 0.101370
O O14 0.426662 0.578372 0.906503
O O15 0.051333 0.207531 0.983185
O O16 0.045076 0.000000 0.000000
#
# Coordination Sequence:
#
# PCOD9322179 Si02
#       8
#     8   8   4   8   8   8   8   8
#     4  10  21  36  62  92 118 156 212 257 302 367
#     4  10  19  33  61  92 119 159 200 259 317 365
#     4  12  26  38  54  92 126 162 200 260 320 362
#     4  11  21  39  61  95 127 163 204 262 315 374
#     4  10  19  38  62  85 119 163 206 250 303 377
#     4  11  21  36  59  91 124 150 210 263 308 364
#     4  11  18  35  64  91 115 155 206 257 298 368
#     4  11  22  38  58  88 124 162 198 248 315 369
#
# _framework density 9.2592590000000001
#
# number of rings (size 3 to 8) (size 9 to 14) (size 15 to 20)
#    0.000    1.333    6.000    1.200    1.867    0.000 
#    1.200    0.000    0.000    0.000    6.933    0.000 
#    0.000    0.000    0.000    0.000    0.000    0.000 
#
# Total GULP energy -167173.538110 kJ/mol
# GULP energy per Si atom -5572.451270 kJ/mol
# Density = 0.923818 g / cm^3
# Si number density = 9.259259 Si / 1000 Ang^3
#
#
#
# Elastic Constant Matrix: (Units=GPa)
#
#
# Indices 1 2 3 4 5 6 
#
# 1 48.7012 39.0102 31.1321 0.0000 0.0000 0.0000
# 2 39.0102 94.2418 46.2516 0.0000 0.0000 0.0000
# 3 31.1321 46.2516 147.9493 0.0000 0.0000 0.0000
# 4 0.0000 0.0000 0.0000 24.5875 0.0000 0.0000
# 5 0.0000 0.0000 0.0000 0.0000 25.1898 0.0000
# 6 0.0000 0.0000 0.0000 0.0000 0.0000 13.3909
#
#
#
# Elastic Compliance Matrix: (Units=1/GPa)
#
#
# Indices 1 2 3 4 5 6 
#
# 1 0.031841 -0.011685 -0.003047 0.000000 0.000000 0.000000
# 2 -0.011685 0.016822 -0.002800 0.000000 0.000000 0.000000
# 3 -0.003047 -0.002800 0.008276 0.000000 0.000000 0.000000
# 4 0.000000 0.000000 0.000000 0.040671 0.000000 0.000000
# 5 0.000000 0.000000 0.000000 0.000000 0.039699 0.000000
# 6 0.000000 0.000000 0.000000 0.000000 0.000000 0.074677
#
#
# Mechanical properties :
#
#
# Convention : Reuss Voigt Hill
#
# Bulk Modulus (GPa) = 45.71540 58.18669 51.95104
# Shear Modulus (GPa) = 19.65865 24.26688 21.96277
#
# Velocity S-wave (km/s) = 3.26170 3.62389 3.44756
# Velocity P-wave (km/s) = 6.23898 6.99994 6.63038
#
# Compressibility (1/GPa) = 0.02187447
#
# Stress axis : x y z
#
# Youngs Moduli (GPa) = 31.40619 59.44622 120.83636
#
# Poissons Ratio (x) = 0.69461 0.36822
# Poissons Ratio (y) = 0.36697 0.33836
# Poissons Ratio (z) = 0.09570 0.16646
#
# Static dielectric constant tensor:
#      x y z
#    x 1.679800 0.000000 0.000000 
#    y 0.000000 1.625860 0.000000 
#    z 0.000000 0.000000 1.681610 
# 
# From -- ./inp_files/24943.got.cif
#   From: 2010.05.17/outbox.ucp.g08.bks.cvg/sg20_13_cif.got.tgz:24943.got - 2010.06.11 15:13:06.
