data_PCOD9322729
_publ_section_title
;
Structure prediction by ZEFSAII (Michael W. Deem and Ramdas Pophale) SiO2 
 PCOD9322729
Probable space group: C 2 2 2
;
_chemical_formula_sum "Si O2"
_cell_formula_units_Z 34
_cell_length_a 5.257104
_cell_length_b 26.861164
_cell_length_c 11.717786
_cell_angle_alpha 90.000000
_cell_angle_beta 90.000000
_cell_angle_gamma 90.000000
_cell_volume 1654.691208
_symmetry_space_group_name_H-M "C 2 2 2"
_symmetry_group_IT_number 21
_symmetry_cell_setting 'orthorhombic'
loop_
_space_group_symop_operation_xyz
x,y,z
-x,-y,z
x,-y,-z
-x,y,-z
1/2+x,1/2+y,z
1/2-x,1/2-y,z
1/2+x,1/2-y,-z
1/2-x,1/2+y,-z
loop_
_atom_site_type_symbol
_atom_site_label
_atom_site_fract_x
_atom_site_fract_y
_atom_site_fract_z
Si Si1 0.000000 0.500000 0.500000
Si Si2 0.000219 0.274259 0.866271
Si Si3 0.357724 0.580842 0.388650
Si Si4 0.093401 0.055517 0.160902
Si Si5 0.397159 0.111743 0.829540
O O1 0.816472 0.464596 0.428176
O O2 0.750000 0.250000 0.813939
O O3 0.013759 0.333570 0.861743
O O4 0.250000 0.250000 0.813218
O O5 0.000000 0.259727 0.000000
O O6 0.500000 0.602025 0.500000
O O7 0.566287 0.561355 0.298506
O O8 0.174037 0.612783 0.305907
O O9 0.870492 0.092886 0.117703
O O10 0.379806 0.072922 0.138173
O O11 0.000000 0.000000 0.131187
#
# Coordination Sequence:
#
# PCOD9322729 Si02
#       5
#     2   8   8   8   8
#     4  12  18  32  48  86 110 158 204 238 260 322
#     4  10  21  40  66  90 109 137 190 260 315 354
#     4  10  20  28  49  77 117 148 198 230 271 315
#     4  10  19  32  50  79 117 159 188 222 269 336
#     4  10  21  33  54  85 113 149 188 238 291 343
#
# _framework density 20.547640000000001
#
# number of rings (size 3 to 8) (size 9 to 14) (size 15 to 20)
#    1.412    0.471    0.000    6.706    0.000    0.000 
#    0.000    0.000    0.000    4.235    9.176    0.000 
#    0.000    0.000    0.000    0.000    0.000    0.000 
#
# Total GULP energy -94714.300834 kJ/mol
# GULP energy per Si atom -5571.429461 kJ/mol
# Density = 2.050087 g / cm^3
# Si number density = 20.547640 Si / 1000 Ang^3
#
#
#
# Elastic Constant Matrix: (Units=GPa)
#
#
# Indices 1 2 3 4 5 6 
#
# 1 158.9189 44.8352 28.8410 0.0000 0.0000 0.0000
# 2 44.8352 66.2445 -19.3424 0.0000 0.0000 0.0000
# 3 28.8410 -19.3424 59.6006 0.0000 0.0000 0.0000
# 4 0.0000 0.0000 0.0000 22.7368 0.0000 0.0000
# 5 0.0000 0.0000 0.0000 0.0000 8.6564 0.0000
# 6 0.0000 0.0000 0.0000 0.0000 0.0000 31.6194
#
#
#
# Elastic Compliance Matrix: (Units=1/GPa)
#
#
# Indices 1 2 3 4 5 6 
#
# 1 0.010418 -0.009416 -0.008097 0.000000 0.000000 0.000000
# 2 -0.009416 0.025185 0.012730 0.000000 0.000000 0.000000
# 3 -0.008097 0.012730 0.024828 0.000000 0.000000 0.000000
# 4 0.000000 0.000000 0.000000 0.043982 0.000000 0.000000
# 5 0.000000 0.000000 0.000000 0.000000 0.115522 0.000000
# 6 0.000000 0.000000 0.000000 0.000000 0.000000 0.031626
#
#
# Mechanical properties :
#
#
# Convention : Reuss Voigt Hill
#
# Bulk Modulus (GPa) = 19.65987 43.71464 31.68725
# Shear Modulus (GPa) = 17.98031 27.96452 22.97241
#
# Velocity S-wave (km/s) = 2.96134 3.69312 3.34729
# Velocity P-wave (km/s) = 4.61318 6.28542 5.51307
#
# Compressibility (1/GPa) = 0.05086504
#
# Stress axis : x y z
#
# Youngs Moduli (GPa) = 95.98393 39.70605 40.27737
#
# Poissons Ratio (x) = 0.37386 0.32613
# Poissons Ratio (y) = 0.90375 -0.51272
# Poissons Ratio (z) = 0.77720 -0.50544
#
# Static dielectric constant tensor:
#      x y z
#    x 1.745950 0.000000 0.000000 
#    y 0.000000 1.695780 0.000000 
#    z 0.000000 0.000000 1.807540 
# 
# From -- ./inp_files/20971.got.cif
#   From: 2010.05.17/outbox.cif.g08.bks.cpg/sg21_11_cif.got.tgz:20971.got - 2010.06.03 23:14:55.
