data_PCOD9322761
_publ_section_title
;
Structure prediction by ZEFSAII (Michael W. Deem and Ramdas Pophale) SiO2 
 PCOD9322761
Probable space group: C 2 2 2
;
_chemical_formula_sum "Si O2"
_cell_formula_units_Z 60
_cell_length_a 24.553092
_cell_length_b 5.807358
_cell_length_c 19.237656
_cell_angle_alpha 90.000000
_cell_angle_beta 90.000000
_cell_angle_gamma 90.000000
_cell_volume 2743.070345
_symmetry_space_group_name_H-M "C 2 2 2"
_symmetry_group_IT_number 21
_symmetry_cell_setting 'orthorhombic'
loop_
_space_group_symop_operation_xyz
x,y,z
-x,-y,z
x,-y,-z
-x,y,-z
1/2+x,1/2+y,z
1/2-x,1/2-y,z
1/2+x,1/2-y,-z
1/2-x,1/2+y,-z
loop_
_atom_site_type_symbol
_atom_site_label
_atom_site_fract_x
_atom_site_fract_y
_atom_site_fract_z
Si Si1 0.945508 0.359095 0.598179
Si Si2 0.615624 0.500000 0.500000
Si Si3 0.903144 0.881216 0.278882
Si Si4 0.981085 0.255803 0.079512
Si Si5 0.647717 0.229433 0.375612
Si Si6 0.314652 0.004111 0.751737
Si Si7 0.233649 0.994296 0.878350
Si Si8 0.381508 0.643563 0.153078
O O1 0.948434 0.249016 0.675732
O O2 0.894744 0.530924 0.604605
O O3 0.000000 0.500000 0.581422
O O4 0.925049 0.168820 0.542988
O O5 0.655151 0.363215 0.447404
O O6 0.849891 0.722583 0.264960
O O7 0.883610 0.087350 0.327824
O O8 0.917402 0.989822 0.205315
O O9 0.916619 0.247762 0.091719
O O10 0.000000 0.500000 0.113058
O O11 0.000000 0.000000 0.102123
O O12 0.000000 0.266649 0.000000
O O13 0.692638 0.122718 0.323815
O O14 0.354567 0.159024 0.799459
O O15 0.261891 0.986859 0.800975
O O16 0.250000 0.750000 0.912164
O O17 0.250000 0.250000 0.906278
O O18 0.168888 0.995714 0.873643
#
# Coordination Sequence:
#
# PCOD9322761 Si02
#       8
#     8   4   8   8   8   8   8   8
#     4  10  21  35  48  72 110 155 214 277 328 388
#     4  10  20  33  52  68 100 162 228 268 325 392
#     4   9  18  34  51  78 125 156 194 259 341 391
#     4  10  24  45  66  94 133 187 234 265 309 375
#     4   9  19  33  49  73 111 155 209 262 324 400
#     4   9  18  34  53  87 130 155 200 262 347 397
#     4  10  19  32  59  95 132 162 202 262 341 407
#     4  10  20  36  61  93 131 168 216 266 324 398
#
# _framework density 21.873298999999999
#
# number of rings (size 3 to 8) (size 9 to 14) (size 15 to 20)
#    0.000    2.400    1.333    0.400    1.867    3.733 
#    7.200    0.000    0.000    0.800    0.000   44.800 
#  448.000    0.000    0.000    0.000    0.000    0.000 
#
# Total GULP energy -167057.648468 kJ/mol
# GULP energy per Si atom -5568.588282 kJ/mol
# Density = 2.182351 g / cm^3
# Si number density = 21.873299 Si / 1000 Ang^3
#
#
#
# Elastic Constant Matrix: (Units=GPa)
#
#
# Indices 1 2 3 4 5 6 
#
# 1 72.6755 27.7447 39.9633 0.0000 0.0000 0.0000
# 2 27.7447 142.7110 16.1964 0.0000 0.0000 0.0000
# 3 39.9633 16.1964 68.2686 0.0000 0.0000 0.0000
# 4 0.0000 0.0000 0.0000 -18.6945 0.0000 0.0000
# 5 0.0000 0.0000 0.0000 0.0000 29.5079 0.0000
# 6 0.0000 0.0000 0.0000 0.0000 0.0000 9.5274
#
#
#
# Elastic Compliance Matrix: (Units=1/GPa)
#
#
# Indices 1 2 3 4 5 6 
#
# 1 0.021331 -0.002805 -0.011821 0.000000 0.000000 0.000000
# 2 -0.002805 0.007570 -0.000154 0.000000 0.000000 0.000000
# 3 -0.011821 -0.000154 0.021604 0.000000 0.000000 0.000000
# 4 0.000000 0.000000 0.000000 -0.053492 0.000000 0.000000
# 5 0.000000 0.000000 0.000000 0.000000 0.033889 0.000000
# 6 0.000000 0.000000 0.000000 0.000000 0.000000 0.104960
#
#
# Mechanical properties :
#
#
# Convention : Reuss Voigt Hill
#
# Bulk Modulus (GPa) = 47.74460 50.16264 48.95362
# Shear Modulus (GPa) = 29.00132 17.38487 23.19310
#
# Velocity S-wave (km/s) = 3.64521 2.82228 3.25982
# Velocity P-wave (km/s) = 6.29221 5.79684 6.04960
#
# Compressibility (1/GPa) = 0.02094478
#
# Stress axis : x y z
#
# Youngs Moduli (GPa) = 46.87971 132.10007 46.28666
#
# Poissons Ratio (x) = 0.37060 0.54717
# Poissons Ratio (y) = 0.13152 0.00711
# Poissons Ratio (z) = 0.55418 0.02031
#
# Static dielectric constant tensor:
#      x y z
#    x 1.769900 0.000000 0.000000 
#    y 0.000000 1.863490 0.000000 
#    z 0.000000 0.000000 1.842360 
# 
# From -- ./inp_files/37933.got.cif
#   From: 2010.05.17/outbox.cif.g08.bks.cpg/sg21_19_cif.got.tgz:37933.got - 2010.06.03 23:14:55.
