data_PCOD9322842
_publ_section_title
;
Structure prediction by ZEFSAII (Michael W. Deem and Ramdas Pophale) SiO2 
 PCOD9322842
Probable space group: C 2 2 2
;
_chemical_formula_sum "Si O2"
_cell_formula_units_Z 48
_cell_length_a 13.567029
_cell_length_b 13.941075
_cell_length_c 12.726140
_cell_angle_alpha 90.000000
_cell_angle_beta 90.000000
_cell_angle_gamma 90.000000
_cell_volume 2407.008997
_symmetry_space_group_name_H-M "C 2 2 2"
_symmetry_group_IT_number 21
_symmetry_cell_setting 'orthorhombic'
loop_
_space_group_symop_operation_xyz
x,y,z
-x,-y,z
x,-y,-z
-x,y,-z
1/2+x,1/2+y,z
1/2-x,1/2-y,z
1/2+x,1/2-y,-z
1/2-x,1/2+y,-z
loop_
_atom_site_type_symbol
_atom_site_label
_atom_site_fract_x
_atom_site_fract_y
_atom_site_fract_z
Si Si1 0.781974 0.443357 0.607407
Si Si2 0.966164 0.302826 0.609234
Si Si3 0.610349 0.804000 0.955779
Si Si4 0.090143 0.431239 0.752610
Si Si5 0.343718 0.677999 0.743884
Si Si6 0.306658 0.389234 0.030014
O O1 0.768398 0.500000 0.500000
O O2 0.867633 0.364738 0.588745
O O3 0.821424 0.505857 0.706200
O O4 0.685076 0.391755 0.649090
O O5 0.938992 0.234979 0.706207
O O6 0.000000 0.257266 0.500000
O O7 0.047861 0.375465 0.651645
O O8 0.617182 0.858170 0.844569
O O9 0.500000 0.812451 0.000000
O O10 0.642382 0.691990 0.956455
O O11 0.690967 0.858495 0.028804
O O12 0.000000 0.500000 0.789104
O O13 0.250000 0.750000 0.754070
O O14 0.352016 0.627708 0.855220
O O15 0.316506 0.500000 0.000000
#
# Coordination Sequence:
#
# PCOD9322842 Si02
#       6
#     8   8   8   8   8   8
#     4  10  19  34  58  91 120 156 196 246 321 374
#     4  10  19  35  59  90 121 159 204 254 314 374
#     4  11  24  39  61  96 125 162 222 269 318 380
#     4  10  21  33  59  92 123 156 204 268 315 364
#     4  10  20  37  60  87 123 165 198 253 317 377
#     4  11  24  43  64  90 131 174 215 264 328 387
#
# _framework density 19.941762000000001
#
# number of rings (size 3 to 8) (size 9 to 14) (size 15 to 20)
#    0.000    1.667    3.333    2.000    7.000    0.333 
#    0.000    5.000    0.000    2.500    0.000    0.000 
#    0.000    0.000    0.000    0.000    0.000    0.000 
#
# Total GULP energy -133975.745654 kJ/mol
# GULP energy per Si atom -5582.322736 kJ/mol
# Density = 1.989637 g / cm^3
# Si number density = 19.941762 Si / 1000 Ang^3
#
#
#
# Elastic Constant Matrix: (Units=GPa)
#
#
# Indices 1 2 3 4 5 6 
#
# 1 31.4717 11.5486 9.6897 0.0000 0.0000 0.0000
# 2 11.5486 111.8926 50.0653 0.0000 0.0000 0.0000
# 3 9.6897 50.0653 82.3098 0.0000 0.0000 0.0000
# 4 0.0000 0.0000 0.0000 42.5135 0.0000 0.0000
# 5 0.0000 0.0000 0.0000 0.0000 -0.5049 0.0000
# 6 0.0000 0.0000 0.0000 0.0000 0.0000 14.9768
#
#
#
# Elastic Compliance Matrix: (Units=1/GPa)
#
#
# Indices 1 2 3 4 5 6 
#
# 1 0.033402 -0.002319 -0.002521 0.000000 0.000000 0.000000
# 2 -0.002319 0.012440 -0.007294 0.000000 0.000000 0.000000
# 3 -0.002521 -0.007294 0.016882 0.000000 0.000000 0.000000
# 4 0.000000 0.000000 0.000000 0.023522 0.000000 0.000000
# 5 0.000000 0.000000 0.000000 0.000000 -1.980772 0.000000
# 6 0.000000 0.000000 0.000000 0.000000 0.000000 0.066770
#
#
# Mechanical properties :
#
#
# Convention : Reuss Voigt Hill
#
# Bulk Modulus (GPa) = 26.00395 40.92015 33.46205
# Shear Modulus (GPa) = -2.79225 21.68845 9.44810
#
# Velocity S-wave (km/s) = -1.18459 3.30144 2.17902
# Velocity P-wave (km/s) = 3.34623 5.92428 4.81115
#
# Compressibility (1/GPa) = 0.03845569
#
# Stress axis : x y z
#
# Youngs Moduli (GPa) = 29.93833 80.38587 59.23313
#
# Poissons Ratio (x) = 0.18644 0.14935
# Poissons Ratio (y) = 0.06944 0.43203
# Poissons Ratio (z) = 0.07549 0.58631
#
# Static dielectric constant tensor:
#      x y z
#    x 1.686790 0.000000 0.000000 
#    y 0.000000 1.713050 0.000000 
#    z 0.000000 0.000000 1.688930 
# 
# From -- ./inp_files/25181.got.cif
#   From: 2010.05.17/outbox.cif.g08.bks.cpg/sg21_13_cif.got.tgz:25181.got - 2010.06.03 23:14:55.
