data_PCOD9322708
_publ_section_title
;
Structure prediction by ZEFSAII (Michael W. Deem and Ramdas Pophale) SiO2 
 PCOD9322708
Probable space group: C 2 2 2
;
_chemical_formula_sum "Si O2"
_cell_formula_units_Z 54
_cell_length_a 26.374806
_cell_length_b 18.979229
_cell_length_c 5.536724
_cell_angle_alpha 90.000000
_cell_angle_beta 90.000000
_cell_angle_gamma 90.000000
_cell_volume 2771.537217
_symmetry_space_group_name_H-M "C 2 2 2"
_symmetry_group_IT_number 21
_symmetry_cell_setting 'orthorhombic'
loop_
_space_group_symop_operation_xyz
x,y,z
-x,-y,z
x,-y,-z
-x,y,-z
1/2+x,1/2+y,z
1/2-x,1/2-y,z
1/2+x,1/2-y,-z
1/2-x,1/2+y,-z
loop_
_atom_site_type_symbol
_atom_site_label
_atom_site_fract_x
_atom_site_fract_y
_atom_site_fract_z
Si Si1 0.869331 0.500000 0.000000
Si Si2 0.665919 0.268753 0.792517
Si Si3 0.259170 0.866823 0.794506
Si Si4 0.196268 0.412724 0.698604
Si Si5 0.547937 0.103003 0.836373
Si Si6 0.005939 0.746038 0.249232
Si Si7 0.378513 0.222222 0.703102
Si Si8 0.500000 0.000000 0.500000
O O1 0.835812 0.518423 0.768463
O O2 0.902045 0.429334 0.952601
O O3 0.702880 0.200500 0.786555
O O4 0.702551 0.336065 0.785203
O O5 0.632519 0.263157 0.548407
O O6 0.637933 0.262433 0.050800
O O7 0.271816 0.909047 0.548180
O O8 0.270496 0.900882 0.056270
O O9 0.155929 0.347761 0.684765
O O10 0.536141 0.183557 0.771718
O O11 0.539710 0.055226 0.606949
O O12 0.500000 0.081715 0.000000
O O13 0.061416 0.709795 0.264083
O O14 0.000000 0.785397 0.500000
O O15 0.000000 0.786982 0.000000
#
# Coordination Sequence:
#
# PCOD9322708 Si02
#       8
#     4   8   8   8   8   8   8   2
#     4  12  23  36  46  64  98 132 182 208 239 282
#     4   9  17  32  53  69  86 105 139 203 262 322
#     4   9  18  34  50  69  88 108 139 194 278 308
#     4  10  21  32  47  69  91 119 154 204 243 301
#     4  11  22  34  42  59  80 127 173 213 244 272
#     4  11  22  34  45  62  92 124 157 202 241 279
#     4  10  19  31  48  71  86 114 159 200 249 296
#     4  12  18  32  48  54  68 120 178 216 242 272
#
# _framework density 19.483774
#
# number of rings (size 3 to 8) (size 9 to 14) (size 15 to 20)
#    0.000    1.778    2.222    3.556    0.000    7.704 
#    0.000    0.000    0.000    0.000    0.000    0.000 
#    0.000    0.000    0.000    0.000    0.000    0.000 
#
# Total GULP energy -150497.662691 kJ/mol
# GULP energy per Si atom -5573.987507 kJ/mol
# Density = 1.943943 g / cm^3
# Si number density = 19.483774 Si / 1000 Ang^3
#
#
#
# Elastic Constant Matrix: (Units=GPa)
#
#
# Indices 1 2 3 4 5 6 
#
# 1 67.7508 28.7875 52.1556 0.0000 0.0000 0.0000
# 2 28.7875 23.7667 24.1998 0.0000 0.0000 0.0000
# 3 52.1556 24.1998 160.4789 0.0000 0.0000 0.0000
# 4 0.0000 0.0000 0.0000 20.6803 0.0000 0.0000
# 5 0.0000 0.0000 0.0000 0.0000 28.1004 0.0000
# 6 0.0000 0.0000 0.0000 0.0000 0.0000 -46.3708
#
#
#
# Elastic Compliance Matrix: (Units=1/GPa)
#
#
# Indices 1 2 3 4 5 6 
#
# 1 0.034435 -0.035813 -0.005791 0.000000 0.000000 0.000000
# 2 -0.035813 0.086954 -0.001473 0.000000 0.000000 0.000000
# 3 -0.005791 -0.001473 0.008336 0.000000 0.000000 0.000000
# 4 0.000000 0.000000 0.000000 0.048355 0.000000 0.000000
# 5 0.000000 0.000000 0.000000 0.000000 0.035587 0.000000
# 6 0.000000 0.000000 0.000000 0.000000 0.000000 -0.021565
#
#
# Mechanical properties :
#
#
# Convention : Reuss Voigt Hill
#
# Bulk Modulus (GPa) = 22.95128 51.36469 37.15799
# Shear Modulus (GPa) = 17.07771 10.27219 13.67495
#
# Velocity S-wave (km/s) = 2.96380 2.29861 2.65214
# Velocity P-wave (km/s) = 4.84948 5.78488 5.33771
#
# Compressibility (1/GPa) = 0.04357055
#
# Stress axis : x y z
#
# Youngs Moduli (GPa) = 29.04030 11.50028 119.96843
#
# Poissons Ratio (x) = 0.41186 0.69471
# Poissons Ratio (y) = 1.04002 0.17675
# Poissons Ratio (z) = 0.16817 0.01694
#
# Static dielectric constant tensor:
#      x y z
#    x 1.743950 0.000000 0.000000 
#    y 0.000000 1.661810 0.000000 
#    z 0.000000 0.000000 1.938180 
# 
# From -- ./inp_files/6820.got.cif
#   From: 2010.05.17/outbox.cif.g08.bks.cpg/sg21_4_cif.got.tgz:6820.got - 2010.06.03 23:14:55.
