data_PCOD9322329
_publ_section_title
;
Structure prediction by ZEFSAII (Michael W. Deem and Ramdas Pophale) SiO2 
 PCOD9322329
Probable space group: C 2 2 2
;
_chemical_formula_sum "Si O2"
_cell_formula_units_Z 48
_cell_length_a 18.167490
_cell_length_b 19.478644
_cell_length_c 5.424498
_cell_angle_alpha 90.000000
_cell_angle_beta 90.000000
_cell_angle_gamma 90.000000
_cell_volume 1919.610883
_symmetry_space_group_name_H-M "C 2 2 2"
_symmetry_group_IT_number 21
_symmetry_cell_setting 'orthorhombic'
loop_
_space_group_symop_operation_xyz
x,y,z
-x,-y,z
x,-y,-z
-x,y,-z
1/2+x,1/2+y,z
1/2-x,1/2-y,z
1/2+x,1/2-y,-z
1/2-x,1/2+y,-z
loop_
_atom_site_type_symbol
_atom_site_label
_atom_site_fract_x
_atom_site_fract_y
_atom_site_fract_z
Si Si1 0.188807 0.807809 0.727783
Si Si2 0.539826 0.409325 0.249171
Si Si3 0.587404 0.920054 0.482648
Si Si4 0.020835 0.756546 0.747483
Si Si5 0.798768 0.106259 0.225759
Si Si6 0.855575 0.575805 0.969685
O O1 0.250000 0.750000 0.704390
O O2 0.105085 0.780291 0.721401
O O3 0.204473 0.859579 0.498162
O O4 0.194765 0.839751 0.000910
O O5 0.500000 0.429563 0.500000
O O6 0.530749 0.325613 0.249293
O O7 0.623694 0.432633 0.236609
O O8 0.500000 0.429666 0.000000
O O9 0.500000 0.924953 0.500000
O O10 0.625092 0.891110 0.233765
O O11 0.615203 0.000000 0.500000
O O12 0.612207 0.884639 0.735802
O O13 0.000000 0.717663 0.500000
O O14 0.000000 0.720150 0.000000
O O15 0.727612 0.066045 0.129024
O O16 0.891063 0.500000 0.000000
#
# Coordination Sequence:
#
# PCOD9322329 Si02
#       6
#     8   8   8   8   8   8
#     4  12  23  35  55  85 113 144 189 245 289 335
#     4  10  16  30  54  80 100 135 196 229 257 321
#     4   9  17  33  57  84 107 144 196 236 263 330
#     4  10  16  32  54  76 101 135 192 237 257 319
#     4  12  21  36  57  83 116 150 182 241 291 339
#     4  10  21  35  56  88 118 146 187 237 293 341
#
# _framework density 25.005068999999999
#
# number of rings (size 3 to 8) (size 9 to 14) (size 15 to 20)
#    0.000    1.500    6.667    2.000    0.000    2.000 
#    0.000    0.000    0.000   10.500    0.000    2.333 
#    0.000    0.000    0.000    0.000    0.000    0.000 
#
# Total GULP energy -134052.034190 kJ/mol
# GULP energy per Si atom -5585.501425 kJ/mol
# Density = 2.494816 g / cm^3
# Si number density = 25.005069 Si / 1000 Ang^3
#
#
#
# Elastic Constant Matrix: (Units=GPa)
#
#
# Indices 1 2 3 4 5 6 
#
# 1 144.9258 -4.2093 58.6579 0.0000 0.0000 0.0000
# 2 -4.2093 51.2430 12.9115 0.0000 0.0000 0.0000
# 3 58.6579 12.9115 242.6631 0.0000 0.0000 0.0000
# 4 0.0000 0.0000 0.0000 8.0193 0.0000 0.0000
# 5 0.0000 0.0000 0.0000 0.0000 47.6185 0.0000
# 6 0.0000 0.0000 0.0000 0.0000 0.0000 5.7574
#
#
#
# Elastic Compliance Matrix: (Units=1/GPa)
#
#
# Indices 1 2 3 4 5 6 
#
# 1 0.007711 0.001118 -0.001923 0.000000 0.000000 0.000000
# 2 0.001118 0.019942 -0.001331 0.000000 0.000000 0.000000
# 3 -0.001923 -0.001331 0.004657 0.000000 0.000000 0.000000
# 4 0.000000 0.000000 0.000000 0.124699 0.000000 0.000000
# 5 0.000000 0.000000 0.000000 0.000000 0.021000 0.000000
# 6 0.000000 0.000000 0.000000 0.000000 0.000000 0.173691
#
#
# Mechanical properties :
#
#
# Convention : Reuss Voigt Hill
#
# Bulk Modulus (GPa) = 35.66783 63.72803 49.69793
# Shear Modulus (GPa) = 13.68669 37.04383 25.36526
#
# Velocity S-wave (km/s) = 2.34210 3.85314 3.18843
# Velocity P-wave (km/s) = 4.64856 6.73327 5.78559
#
# Compressibility (1/GPa) = 0.02803647
#
# Stress axis : x y z
#
# Youngs Moduli (GPa) = 129.68384 50.14507 214.74327
#
# Poissons Ratio (x) = -0.05607 0.41305
# Poissons Ratio (y) = -0.14499 0.28590
# Poissons Ratio (z) = 0.24944 0.06676
#
# Static dielectric constant tensor:
#      x y z
#    x 2.157840 0.000000 0.000000 
#    y 0.000000 2.000300 0.000000 
#    z 0.000000 0.000000 2.222560 
# 
# From -- ./inp_files/4131.got.cif
#   From: 2010.05.17/outbox.cif.g08.bks.cpg/sg21_3_cif.got.tgz:4131.got - 2010.06.03 23:14:55.
