data_PCOD9322498
_publ_section_title
;
Structure prediction by ZEFSAII (Michael W. Deem and Ramdas Pophale) SiO2 
 PCOD9322498
Probable space group: C 2 2 2
;
_chemical_formula_sum "Si O2"
_cell_formula_units_Z 40
_cell_length_a 7.487418
_cell_length_b 21.914797
_cell_length_c 10.795748
_cell_angle_alpha 90.000000
_cell_angle_beta 90.000000
_cell_angle_gamma 90.000000
_cell_volume 1771.422961
_symmetry_space_group_name_H-M "C 2 2 2"
_symmetry_group_IT_number 21
_symmetry_cell_setting 'orthorhombic'
loop_
_space_group_symop_operation_xyz
x,y,z
-x,-y,z
x,-y,-z
-x,y,-z
1/2+x,1/2+y,z
1/2-x,1/2-y,z
1/2+x,1/2-y,-z
1/2-x,1/2+y,-z
loop_
_atom_site_type_symbol
_atom_site_label
_atom_site_fract_x
_atom_site_fract_y
_atom_site_fract_z
Si Si1 0.000000 0.688991 0.000000
Si Si2 0.757347 0.380569 0.298900
Si Si3 0.208974 0.320136 0.466616
Si Si4 0.220495 0.497516 0.855856
Si Si5 0.750000 0.250000 0.187493
Si Si6 0.826754 0.374741 0.781741
O O1 0.912640 0.730894 0.898155
O O2 0.142583 0.649071 0.922289
O O3 0.714865 0.373715 0.444432
O O4 0.704023 0.439036 0.217598
O O5 0.701151 0.312999 0.254165
O O6 0.971577 0.382400 0.271470
O O7 0.250000 0.250000 0.497529
O O8 0.256034 0.331618 0.323095
O O9 0.000000 0.323710 0.500000
O O10 0.269164 0.560676 0.789570
O O11 0.000000 0.500000 0.855330
O O12 0.272655 0.500000 0.000000
#
# Coordination Sequence:
#
# PCOD9322498 Si02
#       6
#     4   8   8   8   4   8
#     4  10  20  32  51  78 107 136 174 220 262 312
#     4   9  17  30  49  70 105 139 165 209 264 311
#     4  10  20  34  51  75 106 136 174 213 259 312
#     4   9  15  27  47  72 103 136 166 211 265 306
#     4  10  18  32  48  74 106 138 174 208 264 310
#     4   9  18  30  47  75 103 131 175 214 254 309
#
# _framework density 22.580717
#
# number of rings (size 3 to 8) (size 9 to 14) (size 15 to 20)
#    0.000    2.600    1.000    3.600    1.400    0.800 
#    0.000    4.000    0.000    0.000    0.000   14.700 
#    0.000    0.000    0.000    0.000    0.000    0.000 
#
# Total GULP energy -111371.264446 kJ/mol
# GULP energy per Si atom -5568.563222 kJ/mol
# Density = 2.252932 g / cm^3
# Si number density = 22.580717 Si / 1000 Ang^3
#
#
#
# Elastic Constant Matrix: (Units=GPa)
#
#
# Indices 1 2 3 4 5 6 
#
# 1 36.3119 10.9665 3.8426 0.0000 0.0000 0.0000
# 2 10.9665 185.5993 87.7705 0.0000 0.0000 0.0000
# 3 3.8426 87.7705 137.0080 0.0000 0.0000 0.0000
# 4 0.0000 0.0000 0.0000 -9.3682 0.0000 0.0000
# 5 0.0000 0.0000 0.0000 0.0000 374.0084 0.0000
# 6 0.0000 0.0000 0.0000 0.0000 0.0000 10.7092
#
#
#
# Elastic Compliance Matrix: (Units=1/GPa)
#
#
# Indices 1 2 3 4 5 6 
#
# 1 0.028054 -0.001844 0.000395 0.000000 0.000000 0.000000
# 2 -0.001844 0.007851 -0.004978 0.000000 0.000000 0.000000
# 3 0.000395 -0.004978 0.010477 0.000000 0.000000 0.000000
# 4 0.000000 0.000000 0.000000 -0.106745 0.000000 0.000000
# 5 0.000000 0.000000 0.000000 0.000000 0.002674 0.000000
# 6 0.000000 0.000000 0.000000 0.000000 0.000000 0.093378
#
#
# Mechanical properties :
#
#
# Convention : Reuss Voigt Hill
#
# Bulk Modulus (GPa) = 29.82652 62.67539 46.25095
# Shear Modulus (GPa) = 83.72440 92.15919 87.94179
#
# Velocity S-wave (km/s) = 6.09576 6.39545 6.24741
# Velocity P-wave (km/s) = 7.92351 9.07481 8.51863
#
# Compressibility (1/GPa) = 0.03352721
#
# Stress axis : x y z
#
# Youngs Moduli (GPa) = 35.64501 127.37358 95.45043
#
# Poissons Ratio (x) = 0.23491 -0.03767
# Poissons Ratio (y) = 0.06574 0.47513
# Poissons Ratio (z) = -0.01407 0.63403
#
# Static dielectric constant tensor:
#      x y z
#    x 2.017240 0.000000 0.000000 
#    y 0.000000 0.613140 0.000000 
#    z 0.000000 0.000000 1.918600 
# 
# From -- ./inp_files/22597.got.cif
#   From: 2010.05.17/outbox.cif.g08.bks.cpg/sg21_12_cif.got.tgz:22597.got - 2010.06.03 23:14:55.
