data_PCOD9322601
_publ_section_title
;
Structure prediction by ZEFSAII (Michael W. Deem and Ramdas Pophale) SiO2 
 PCOD9322601
Probable space group: C 2 2 2
;
_chemical_formula_sum "Si O2"
_cell_formula_units_Z 40
_cell_length_a 11.450957
_cell_length_b 19.406312
_cell_length_c 9.297784
_cell_angle_alpha 90.000000
_cell_angle_beta 90.000000
_cell_angle_gamma 90.000000
_cell_volume 2066.161410
_symmetry_space_group_name_H-M "C 2 2 2"
_symmetry_group_IT_number 21
_symmetry_cell_setting 'orthorhombic'
loop_
_space_group_symop_operation_xyz
x,y,z
-x,-y,z
x,-y,-z
-x,y,-z
1/2+x,1/2+y,z
1/2-x,1/2-y,z
1/2+x,1/2-y,-z
1/2-x,1/2+y,-z
loop_
_atom_site_type_symbol
_atom_site_label
_atom_site_fract_x
_atom_site_fract_y
_atom_site_fract_z
Si Si1 0.500000 0.797339 0.500000
Si Si2 0.000000 0.695895 0.000000
Si Si3 0.337449 0.025813 0.156738
Si Si4 0.879624 0.780215 0.251807
Si Si5 0.931927 0.067732 0.847010
Si Si6 0.937111 0.608264 0.757075
O O1 0.581041 0.749341 0.404380
O O2 0.565953 0.845275 0.616036
O O3 0.054964 0.742740 0.878645
O O4 0.911473 0.649150 0.905419
O O5 0.204269 0.047382 0.138619
O O6 0.428487 0.082164 0.217381
O O7 0.356090 0.958332 0.254781
O O8 0.377176 0.000000 0.000000
O O9 0.750000 0.750000 0.233360
O O10 0.917527 0.860181 0.237697
O O11 0.000000 0.000000 0.785190
O O12 0.000000 0.079832 0.000000
#
# Coordination Sequence:
#
# PCOD9322601 Si02
#       6
#     4   4   8   8   8   8
#     4  10  24  45  63  90 138 170 224 268 326 390
#     4  10  18  35  65  94 122 160 216 274 332 374
#     4  11  19  35  65  98 134 160 213 278 345 390
#     4  11  24  44  66  93 134 180 221 277 327 394
#     4  11  22  39  64  96 136 172 213 274 340 409
#     4  10  20  37  65 102 125 164 219 283 330 395
#
# _framework density 19.359572
#
# number of rings (size 3 to 8) (size 9 to 14) (size 15 to 20)
#    0.000    1.400    5.000    3.000    0.000    1.600 
#    3.600    2.500    0.000    0.000    0.000    0.000 
#    0.000    0.000    0.000    0.000    0.000    0.000 
#
# Total GULP energy -111368.364060 kJ/mol
# GULP energy per Si atom -5568.418203 kJ/mol
# Density = 1.931551 g / cm^3
# Si number density = 19.359572 Si / 1000 Ang^3
#
#
#
# Elastic Constant Matrix: (Units=GPa)
#
#
# Indices 1 2 3 4 5 6 
#
# 1 105.0412 32.3635 22.2680 0.0000 0.0000 0.0000
# 2 32.3635 148.1361 54.0475 0.0000 0.0000 0.0000
# 3 22.2680 54.0475 97.9024 0.0000 0.0000 0.0000
# 4 0.0000 0.0000 0.0000 55.7785 0.0000 0.0000
# 5 0.0000 0.0000 0.0000 0.0000 7.9070 0.0000
# 6 0.0000 0.0000 0.0000 0.0000 0.0000 20.4640
#
#
#
# Elastic Compliance Matrix: (Units=1/GPa)
#
#
# Indices 1 2 3 4 5 6 
#
# 1 0.010355 -0.001757 -0.001385 0.000000 0.000000 0.000000
# 2 -0.001757 0.008751 -0.004432 0.000000 0.000000 0.000000
# 3 -0.001385 -0.004432 0.012976 0.000000 0.000000 0.000000
# 4 0.000000 0.000000 0.000000 0.017928 0.000000 0.000000
# 5 0.000000 0.000000 0.000000 0.000000 0.126470 0.000000
# 6 0.000000 0.000000 0.000000 0.000000 0.000000 0.048866
#
#
# Mechanical properties :
#
#
# Convention : Reuss Voigt Hill
#
# Bulk Modulus (GPa) = 59.05096 63.15975 61.10536
# Shear Modulus (GPa) = 20.31378 32.98997 26.65187
#
# Velocity S-wave (km/s) = 3.24279 4.13251 3.71438
# Velocity P-wave (km/s) = 6.67752 7.44752 7.07301
#
# Compressibility (1/GPa) = 0.01693452
#
# Stress axis : x y z
#
# Youngs Moduli (GPa) = 96.57127 114.26978 77.06638
#
# Poissons Ratio (x) = 0.20075 0.10677
# Poissons Ratio (y) = 0.16966 0.34152
# Poissons Ratio (z) = 0.13379 0.50639
#
# Static dielectric constant tensor:
#      x y z
#    x 1.682530 0.000000 0.000000 
#    y 0.000000 1.789860 0.000000 
#    z 0.000000 0.000000 1.638550 
# 
# From -- ./inp_files/13069.got.cif
#   From: 2010.05.17/outbox.cif.g08.bks.cpg/sg21_7_cif.got.tgz:13069.got - 2010.06.03 23:14:55.
