data_PCOD9322877
_publ_section_title
;
Structure prediction by ZEFSAII (Michael W. Deem and Ramdas Pophale) SiO2 
 PCOD9322877
Probable space group: C 2 2 2
;
_chemical_formula_sum "Si O2"
_cell_formula_units_Z 40
_cell_length_a 27.875756
_cell_length_b 7.662813
_cell_length_c 9.248379
_cell_angle_alpha 90.000000
_cell_angle_beta 90.000000
_cell_angle_gamma 90.000000
_cell_volume 1975.515769
_symmetry_space_group_name_H-M "C 2 2 2"
_symmetry_group_IT_number 21
_symmetry_cell_setting 'orthorhombic'
loop_
_space_group_symop_operation_xyz
x,y,z
-x,-y,z
x,-y,-z
-x,y,-z
1/2+x,1/2+y,z
1/2-x,1/2-y,z
1/2+x,1/2-y,-z
1/2-x,1/2+y,-z
loop_
_atom_site_type_symbol
_atom_site_label
_atom_site_fract_x
_atom_site_fract_y
_atom_site_fract_z
Si Si1 0.400219 0.703635 0.660270
Si Si2 0.492963 0.287198 0.164612
Si Si3 0.697514 0.804198 0.188018
Si Si4 0.841516 0.643826 0.900100
Si Si5 0.413732 0.285857 0.664880
O O1 0.441564 0.764873 0.770595
O O2 0.346971 0.743696 0.715617
O O3 0.409268 0.495680 0.656505
O O4 0.406540 0.776760 0.498796
O O5 0.500000 0.500000 0.161700
O O6 0.535139 0.229095 0.271703
O O7 0.500000 0.228064 0.000000
O O8 0.750000 0.750000 0.234288
O O9 0.695967 0.014671 0.176685
O O10 0.684654 0.742712 0.022981
O O11 0.874318 0.729908 0.782049
O O12 0.869724 0.500000 0.000000
#
# Coordination Sequence:
#
# PCOD9322877 Si02
#       5
#     8   8   8   8   8
#     4  10  20  33  57  85 113 154 186 236 287 344
#     4   9  17  30  54  84 112 146 187 235 281 334
#     4   9  20  39  56  79 108 144 193 234 287 337
#     4   8  21  37  56  82 109 147 188 239 288 331
#     4  10  19  35  55  85 121 142 189 235 291 347
#
# _framework density 20.247876000000002
#
# number of rings (size 3 to 8) (size 9 to 14) (size 15 to 20)
#    1.200    1.400    0.000    1.800    0.000    8.800 
#    0.000    6.000    4.400    2.400    0.000    0.000 
#    0.000    0.000    0.000    0.000    0.000    0.000 
#
# Total GULP energy -111362.645321 kJ/mol
# GULP energy per Si atom -5568.132266 kJ/mol
# Density = 2.020179 g / cm^3
# Si number density = 20.247876 Si / 1000 Ang^3
#
#
#
# Elastic Constant Matrix: (Units=GPa)
#
#
# Indices 1 2 3 4 5 6 
#
# 1 166.4529 3.5320 87.2021 0.0000 0.0000 0.0000
# 2 3.5320 20.6729 12.6812 0.0000 0.0000 0.0000
# 3 87.2021 12.6812 148.4902 0.0000 0.0000 0.0000
# 4 0.0000 0.0000 0.0000 20.8227 0.0000 0.0000
# 5 0.0000 0.0000 0.0000 0.0000 4.2855 0.0000
# 6 0.0000 0.0000 0.0000 0.0000 0.0000 14.9907
#
#
#
# Elastic Compliance Matrix: (Units=1/GPa)
#
#
# Indices 1 2 3 4 5 6 
#
# 1 0.008737 0.001746 -0.005280 0.000000 0.000000 0.000000
# 2 0.001746 0.051396 -0.005415 0.000000 0.000000 0.000000
# 3 -0.005280 -0.005415 0.010297 0.000000 0.000000 0.000000
# 4 0.000000 0.000000 0.000000 0.048024 0.000000 0.000000
# 5 0.000000 0.000000 0.000000 0.000000 0.233343 0.000000
# 6 0.000000 0.000000 0.000000 0.000000 0.000000 0.066708
#
#
# Mechanical properties :
#
#
# Convention : Reuss Voigt Hill
#
# Bulk Modulus (GPa) = 19.03566 60.27184 39.65375
# Shear Modulus (GPa) = 11.01533 23.49985 17.25759
#
# Velocity S-wave (km/s) = 2.33496 3.41047 2.92261
# Velocity P-wave (km/s) = 4.08548 6.73350 5.56916
#
# Compressibility (1/GPa) = 0.05253297
#
# Stress axis : x y z
#
# Youngs Moduli (GPa) = 114.46027 19.45695 97.11130
#
# Poissons Ratio (x) = -0.03397 0.51273
# Poissons Ratio (y) = -0.19986 0.52582
# Poissons Ratio (z) = 0.60433 0.10535
#
# Static dielectric constant tensor:
#      x y z
#    x 1.687910 0.000000 0.000000 
#    y 0.000000 1.795560 0.000000 
#    z 0.000000 0.000000 1.731480 
# 
# From -- ./inp_files/18236.got.cif
#   From: 2010.05.17/outbox.cif.g08.bks.cpg/sg21_10_cif.got.tgz:18236.got - 2010.06.03 23:14:55.
