data_PCOD9322767
_publ_section_title
;
Structure prediction by ZEFSAII (Michael W. Deem and Ramdas Pophale) SiO2 
 PCOD9322767
Probable space group: C 2 2 2
;
_chemical_formula_sum "Si O2"
_cell_formula_units_Z 46
_cell_length_a 7.238162
_cell_length_b 20.904364
_cell_length_c 15.047385
_cell_angle_alpha 90.000000
_cell_angle_beta 90.000000
_cell_angle_gamma 90.000000
_cell_volume 2276.807382
_symmetry_space_group_name_H-M "C 2 2 2"
_symmetry_group_IT_number 21
_symmetry_cell_setting 'orthorhombic'
loop_
_space_group_symop_operation_xyz
x,y,z
-x,-y,z
x,-y,-z
-x,y,-z
1/2+x,1/2+y,z
1/2-x,1/2-y,z
1/2+x,1/2-y,-z
1/2-x,1/2+y,-z
loop_
_atom_site_type_symbol
_atom_site_label
_atom_site_fract_x
_atom_site_fract_y
_atom_site_fract_z
Si Si1 0.000000 0.802561 0.000000
Si Si2 0.750000 0.250000 0.275000
Si Si3 0.289202 0.635236 0.149669
Si Si4 0.221938 0.007485 0.139041
Si Si5 0.750000 0.250000 0.852693
Si Si6 0.420242 0.701393 0.597125
Si Si7 0.681931 0.623733 0.249022
Si Si8 0.000000 0.500000 0.000000
O O1 0.918052 0.761783 0.080110
O O2 0.159424 0.843367 0.049322
O O3 0.798021 0.308979 0.209352
O O4 0.579065 0.269286 0.338376
O O5 0.204779 0.564734 0.151201
O O6 0.485386 0.625551 0.198885
O O7 0.251765 0.054064 0.222355
O O8 0.000000 0.000000 0.118061
O O9 0.349738 0.036425 0.061347
O O10 0.776392 0.313280 0.793533
O O11 0.500000 0.688971 0.500000
O O12 0.250000 0.750000 0.589513
O O13 0.347443 0.638628 0.648177
#
# Coordination Sequence:
#
# PCOD9322767 Si02
#       8
#     4   4   8   8   4   8   8   2
#     4  10  20  33  55  86 116 168 208 254 296 337
#     4  10  21  39  62  94 126 156 206 245 323 374
#     4   9  20  37  58  84 119 170 202 250 303 348
#     4  10  23  42  58  80 126 164 211 262 292 349
#     4  10  19  33  50  82 116 152 206 239 301 344
#     4  11  21  38  65  98 122 150 194 257 318 380
#     4   9  20  38  59  82 119 162 193 254 313 357
#     4  12  26  34  60  94 110 182 226 238 296 360
#
# _framework density 20.20373
#
# number of rings (size 3 to 8) (size 9 to 14) (size 15 to 20)
#    0.000    2.087    1.739    0.783    7.304    2.087 
#    0.000    0.000    0.000   13.043    0.000    1.217 
#    0.000    0.000    0.000    0.000    0.000    0.000 
#
# Total GULP energy -128210.094362 kJ/mol
# GULP energy per Si atom -5574.351929 kJ/mol
# Density = 2.015774 g / cm^3
# Si number density = 20.203730 Si / 1000 Ang^3
#
#
#
# Elastic Constant Matrix: (Units=GPa)
#
#
# Indices 1 2 3 4 5 6 
#
# 1 81.0775 32.8589 39.4626 0.0000 0.0000 0.0000
# 2 32.8589 128.2957 69.7514 0.0000 0.0000 0.0000
# 3 39.4626 69.7514 152.5591 0.0000 0.0000 0.0000
# 4 0.0000 0.0000 0.0000 20.1619 0.0000 0.0000
# 5 0.0000 0.0000 0.0000 0.0000 27.1941 0.0000
# 6 0.0000 0.0000 0.0000 0.0000 0.0000 14.1171
#
#
#
# Elastic Compliance Matrix: (Units=1/GPa)
#
#
# Indices 1 2 3 4 5 6 
#
# 1 0.014579 -0.002241 -0.002747 0.000000 0.000000 0.000000
# 2 -0.002241 0.010717 -0.004320 0.000000 0.000000 0.000000
# 3 -0.002747 -0.004320 0.009241 0.000000 0.000000 0.000000
# 4 0.000000 0.000000 0.000000 0.049598 0.000000 0.000000
# 5 0.000000 0.000000 0.000000 0.000000 0.036773 0.000000
# 6 0.000000 0.000000 0.000000 0.000000 0.000000 0.070836
#
#
# Mechanical properties :
#
#
# Convention : Reuss Voigt Hill
#
# Bulk Modulus (GPa) = 62.80898 71.78646 67.29772
# Shear Modulus (GPa) = 23.18394 26.95191 25.06792
#
# Velocity S-wave (km/s) = 3.39116 3.65637 3.52626
# Velocity P-wave (km/s) = 6.81826 7.30984 7.06832
#
# Compressibility (1/GPa) = 0.01592129
#
# Stress axis : x y z
#
# Youngs Moduli (GPa) = 68.59254 93.30714 108.21703
#
# Poissons Ratio (x) = 0.20906 0.29724
# Poissons Ratio (y) = 0.15369 0.46755
# Poissons Ratio (z) = 0.18840 0.40313
#
# Static dielectric constant tensor:
#      x y z
#    x 1.823170 0.000000 0.000000 
#    y 0.000000 1.792110 0.000000 
#    z 0.000000 0.000000 1.709260 
# 
# From -- ./inp_files/30669.got.cif
#   From: 2010.05.17/outbox.cif.g08.bks.cpg/sg21_16_cif.got.tgz:30669.got - 2010.06.03 23:14:55.
