data_PCOD9322357
_publ_section_title
;
Structure prediction by ZEFSAII (Michael W. Deem and Ramdas Pophale) SiO2 
 PCOD9322357
Probable space group: C 2 2 2
;
_chemical_formula_sum "Si O2"
_cell_formula_units_Z 64
_cell_length_a 14.789136
_cell_length_b 5.276576
_cell_length_c 35.547880
_cell_angle_alpha 90.000000
_cell_angle_beta 90.000000
_cell_angle_gamma 90.000000
_cell_volume 2774.014366
_symmetry_space_group_name_H-M "C 2 2 2"
_symmetry_group_IT_number 21
_symmetry_cell_setting 'orthorhombic'
loop_
_space_group_symop_operation_xyz
x,y,z
-x,-y,z
x,-y,-z
-x,y,-z
1/2+x,1/2+y,z
1/2-x,1/2-y,z
1/2+x,1/2-y,-z
1/2-x,1/2+y,-z
loop_
_atom_site_type_symbol
_atom_site_label
_atom_site_fract_x
_atom_site_fract_y
_atom_site_fract_z
Si Si1 0.140107 0.748357 0.212625
Si Si2 0.858657 0.759048 0.256080
Si Si3 0.812169 0.497357 0.458906
Si Si4 0.396908 0.413575 0.869926
Si Si5 0.603273 0.752370 0.016400
Si Si6 0.603554 0.916038 0.101745
Si Si7 0.607734 0.983280 0.621712
Si Si8 0.107345 0.025879 0.339336
O O1 0.250000 0.750000 0.212039
O O2 0.110785 0.510181 0.238558
O O3 0.108139 0.768208 0.169808
O O4 0.108621 0.011438 0.230446
O O5 0.750000 0.750000 0.254463
O O6 0.880671 0.853873 0.298026
O O7 0.859234 0.500000 0.500000
O O8 0.750000 0.750000 0.455053
O O9 0.872709 0.456246 0.422228
O O10 0.750000 0.250000 0.460150
O O11 0.500000 0.500000 0.878608
O O12 0.355061 0.697586 0.871353
O O13 0.355769 0.200106 0.897498
O O14 0.602336 0.785143 0.061011
O O15 0.644398 0.500000 0.000000
O O16 0.500000 0.752165 0.000000
O O17 0.648221 0.000000 0.000000
O O18 0.500000 0.000000 0.111150
O O19 0.645135 0.255761 0.633900
O O20 0.500000 0.000000 0.627445
O O21 0.642452 0.751445 0.648036
O O22 0.000000 0.000000 0.344736
#
# Coordination Sequence:
#
# PCOD9322357 Si02
#       8
#     8   8   8   8   8   8   8   8
#     4  10  21  39  58  79 106 141 186 231 273 329
#     4  10  21  37  59  82 107 140 186 236 276 333
#     4  10  21  37  57  84 116 153 198 244 287 334
#     4  10  21  33  51  74 107 140 170 221 272 319
#     4  10  17  24  41  64  96 141 172 197 256 322
#     4  10  18  30  44  70 106 140 168 215 259 319
#     4  10  21  37  57  82 117 151 189 230 285 344
#     4  10  21  37  56  85 115 146 181 233 287 344
#
# _framework density 23.071256000000002
#
# number of rings (size 3 to 8) (size 9 to 14) (size 15 to 20)
#    0.000    2.000    1.250    3.000    3.500    2.250 
#    0.000    1.250    0.000    4.500    0.000    0.000 
#    0.000   10.000    0.000    0.000    0.000    0.000 
#
# Total GULP energy -178406.342565 kJ/mol
# GULP energy per Si atom -5575.198205 kJ/mol
# Density = 2.301875 g / cm^3
# Si number density = 23.071256 Si / 1000 Ang^3
#
#
#
# Elastic Constant Matrix: (Units=GPa)
#
#
# Indices 1 2 3 4 5 6 
#
# 1 64.3334 23.0555 2.7519 0.0000 0.0000 0.0000
# 2 23.0555 232.4415 61.2547 0.0000 0.0000 0.0000
# 3 2.7519 61.2547 135.0210 0.0000 0.0000 0.0000
# 4 0.0000 0.0000 0.0000 41.6830 0.0000 0.0000
# 5 0.0000 0.0000 0.0000 0.0000 33.2546 0.0000
# 6 0.0000 0.0000 0.0000 0.0000 0.0000 -11.9148
#
#
#
# Elastic Compliance Matrix: (Units=1/GPa)
#
#
# Indices 1 2 3 4 5 6 
#
# 1 0.016141 -0.001720 0.000451 0.000000 0.000000 0.000000
# 2 -0.001720 0.005070 -0.002265 0.000000 0.000000 0.000000
# 3 0.000451 -0.002265 0.008425 0.000000 0.000000 0.000000
# 4 0.000000 0.000000 0.000000 0.023991 0.000000 0.000000
# 5 0.000000 0.000000 0.000000 0.000000 0.030071 0.000000
# 6 0.000000 0.000000 0.000000 0.000000 0.000000 -0.083929
#
#
# Mechanical properties :
#
#
# Convention : Reuss Voigt Hill
#
# Bulk Modulus (GPa) = 44.31001 67.32445 55.81723
# Shear Modulus (GPa) = 348.25584 35.58681 191.92132
#
# Velocity S-wave (km/s) = 12.29942 3.93169 9.13055
# Velocity P-wave (km/s) = 14.86433 7.06084 11.63623
#
# Compressibility (1/GPa) = 0.02256826
#
# Stress axis : x y z
#
# Youngs Moduli (GPa) = 61.95365 197.25384 118.70061
#
# Poissons Ratio (x) = 0.33926 -0.05357
# Poissons Ratio (y) = 0.10656 0.26884
# Poissons Ratio (z) = -0.02796 0.44675
#
# Static dielectric constant tensor:
#      x y z
#    x 1.910720 0.000000 0.000000 
#    y 0.000000 1.942040 0.000000 
#    z 0.000000 0.000000 1.951020 
# 
# From -- ./inp_files/39659.got.cif
#   From: 2010.05.17/outbox.cif.g08.bks.cpg/sg21_20_cif.got.tgz:39659.got - 2010.06.03 23:14:55.
