data_PCOD9322938
_publ_section_title
;
Structure prediction by ZEFSAII (Michael W. Deem and Ramdas Pophale) SiO2 
 PCOD9322938
Probable space group: C 2 2 2
;
_chemical_formula_sum "Si O2"
_cell_formula_units_Z 60
_cell_length_a 10.647205
_cell_length_b 22.963156
_cell_length_c 13.162622
_cell_angle_alpha 90.000000
_cell_angle_beta 90.000000
_cell_angle_gamma 90.000000
_cell_volume 3218.174592
_symmetry_space_group_name_H-M "C 2 2 2"
_symmetry_group_IT_number 21
_symmetry_cell_setting 'orthorhombic'
loop_
_space_group_symop_operation_xyz
x,y,z
-x,-y,z
x,-y,-z
-x,y,-z
1/2+x,1/2+y,z
1/2-x,1/2-y,z
1/2+x,1/2-y,-z
1/2-x,1/2+y,-z
loop_
_atom_site_type_symbol
_atom_site_label
_atom_site_fract_x
_atom_site_fract_y
_atom_site_fract_z
Si Si1 0.879391 0.389052 0.854743
Si Si2 0.774585 0.365800 0.287497
Si Si3 0.234773 0.513226 0.194762
Si Si4 0.496318 0.373593 0.618919
Si Si5 0.862287 0.296742 0.467740
Si Si6 0.000000 0.000000 0.294857
Si Si7 0.829819 0.616125 0.922666
Si Si8 0.743865 0.819777 0.325267
O O1 0.843508 0.454553 0.819409
O O2 0.837626 0.347319 0.764196
O O3 0.024790 0.387291 0.887413
O O4 0.813123 0.369440 0.960192
O O5 0.804110 0.435554 0.276299
O O6 0.637082 0.356280 0.333925
O O7 0.867596 0.333101 0.363574
O O8 0.772025 0.346217 0.169444
O O9 0.376171 0.498886 0.225724
O O10 0.225721 0.551436 0.093006
O O11 0.500000 0.360499 0.500000
O O12 0.503745 0.442580 0.637275
O O13 0.614854 0.344270 0.673394
O O14 0.750000 0.250000 0.455059
O O15 0.816460 0.334295 0.564669
O O16 0.000000 0.273602 0.500000
O O17 0.750000 0.750000 0.317524
#
# Coordination Sequence:
#
# PCOD9322938 Si02
#       8
#     8   8   8   8   8   4   8   8
#     4  11  19  40  63  84 125 162 207 256 304 374
#     4   9  21  37  58  91 124 146 209 249 309 370
#     4   9  19  34  59  92 116 156 198 249 309 371
#     4  11  20  39  61  87 123 167 204 252 313 386
#     4  11  24  41  64  90 120 165 215 263 312 366
#     4  10  19  36  59  88 124 162 195 251 322 374
#     4   9  21  36  63  89 117 164 203 247 313 375
#     4  11  25  38  64  90 121 164 215 255 312 365
#
# _framework density 18.644110000000001
#
# number of rings (size 3 to 8) (size 9 to 14) (size 15 to 20)
#    0.800    1.067    2.667    1.800    3.733    1.067 
#    0.000    4.667    2.933    0.800    0.000    0.000 
#    0.000    0.000    0.000    0.000    0.000    0.000 
#
# Total GULP energy -167016.875603 kJ/mol
# GULP energy per Si atom -5567.229187 kJ/mol
# Density = 1.860168 g / cm^3
# Si number density = 18.644110 Si / 1000 Ang^3
#
#
#
# Elastic Constant Matrix: (Units=GPa)
#
#
# Indices 1 2 3 4 5 6 
#
# 1 71.5595 20.8811 22.7966 0.0000 0.0000 0.0000
# 2 20.8811 47.1033 26.9775 0.0000 0.0000 0.0000
# 3 22.7966 26.9775 121.5893 0.0000 0.0000 0.0000
# 4 0.0000 0.0000 0.0000 23.1050 0.0000 0.0000
# 5 0.0000 0.0000 0.0000 0.0000 26.4247 0.0000
# 6 0.0000 0.0000 0.0000 0.0000 0.0000 14.3065
#
#
#
# Elastic Compliance Matrix: (Units=1/GPa)
#
#
# Indices 1 2 3 4 5 6 
#
# 1 0.016341 -0.006288 -0.001668 0.000000 0.000000 0.000000
# 2 -0.006288 0.026740 -0.004754 0.000000 0.000000 0.000000
# 3 -0.001668 -0.004754 0.009592 0.000000 0.000000 0.000000
# 4 0.000000 0.000000 0.000000 0.043281 0.000000 0.000000
# 5 0.000000 0.000000 0.000000 0.000000 0.037843 0.000000
# 6 0.000000 0.000000 0.000000 0.000000 0.000000 0.069899
#
#
# Mechanical properties :
#
#
# Convention : Reuss Voigt Hill
#
# Bulk Modulus (GPa) = 36.69524 42.39584 39.54554
# Shear Modulus (GPa) = 20.99063 24.07368 22.53216
#
# Velocity S-wave (km/s) = 3.35902 3.59726 3.48018
# Velocity P-wave (km/s) = 5.89650 6.32792 6.11602
#
# Compressibility (1/GPa) = 0.02725149
#
# Stress axis : x y z
#
# Youngs Moduli (GPa) = 61.19621 37.39668 104.25333
#
# Poissons Ratio (x) = 0.23517 0.17395
# Poissons Ratio (y) = 0.38483 0.49562
# Poissons Ratio (z) = 0.10211 0.17778
#
# Static dielectric constant tensor:
#      x y z
#    x 1.665050 0.000000 0.000000 
#    y 0.000000 1.654330 0.000000 
#    z 0.000000 0.000000 1.669880 
# 
# From -- ./inp_files/30887.got.cif
#   From: 2010.05.17/outbox.cif.g08.bks.cpg/sg21_16_cif.got.tgz:30887.got - 2010.06.03 23:14:55.
