data_PCOD9322853
_publ_section_title
;
Structure prediction by ZEFSAII (Michael W. Deem and Ramdas Pophale) SiO2 
 PCOD9322853
Probable space group: C 2 2 2
;
_chemical_formula_sum "Si O2"
_cell_formula_units_Z 24
_cell_length_a 7.916309
_cell_length_b 25.972868
_cell_length_c 5.196350
_cell_angle_alpha 90.000000
_cell_angle_beta 90.000000
_cell_angle_gamma 90.000000
_cell_volume 1068.417620
_symmetry_space_group_name_H-M "C 2 2 2"
_symmetry_group_IT_number 21
_symmetry_cell_setting 'orthorhombic'
loop_
_space_group_symop_operation_xyz
x,y,z
-x,-y,z
x,-y,-z
-x,y,-z
1/2+x,1/2+y,z
1/2-x,1/2-y,z
1/2+x,1/2-y,-z
1/2-x,1/2+y,-z
loop_
_atom_site_type_symbol
_atom_site_label
_atom_site_fract_x
_atom_site_fract_y
_atom_site_fract_z
Si Si1 0.192953 0.023225 0.246751
Si Si2 0.315980 0.194045 0.629614
Si Si3 0.182107 0.856576 0.875862
O O1 0.190332 0.084116 0.214354
O O2 0.273186 0.000000 0.500000
O O3 0.000000 0.000000 0.247978
O O4 0.280491 0.000000 0.000000
O O5 0.500000 0.196239 0.500000
O O6 0.250000 0.250000 0.711940
O O7 0.205720 0.174961 0.386468
O O8 0.304586 0.158421 0.884940
O O9 0.000000 0.847083 0.000000
#
# Coordination Sequence:
#
# PCOD9322853 Si02
#       3
#     8   8   8
#     4  10  19  34  61 103 138 165 228 288 322 401
#     4  12  27  47  68  99 146 186 239 296 358 424
#     4  12  23  41  73 107 134 185 238 292 354 408
#
# _framework density 22.463125999999999
#
# number of rings (size 3 to 8) (size 9 to 14) (size 15 to 20)
#    0.000    0.667    3.333    7.000    4.667    0.000 
#    0.000    0.000    0.000   15.000    0.000    0.000 
#    0.000    0.000    0.000    0.000    0.000    0.000 
#
# Total GULP energy -67045.116126 kJ/mol
# GULP energy per Si atom -5587.093011 kJ/mol
# Density = 2.241200 g / cm^3
# Si number density = 22.463126 Si / 1000 Ang^3
#
#
#
# Elastic Constant Matrix: (Units=GPa)
#
#
# Indices 1 2 3 4 5 6 
#
# 1 67.9825 30.3735 19.6955 0.0000 0.0000 0.0000
# 2 30.3735 141.7855 60.1749 0.0000 0.0000 0.0000
# 3 19.6955 60.1749 203.1840 0.0000 0.0000 0.0000
# 4 0.0000 0.0000 0.0000 55.9443 0.0000 0.0000
# 5 0.0000 0.0000 0.0000 0.0000 11.9874 0.0000
# 6 0.0000 0.0000 0.0000 0.0000 0.0000 14.5815
#
#
#
# Elastic Compliance Matrix: (Units=1/GPa)
#
#
# Indices 1 2 3 4 5 6 
#
# 1 0.016336 -0.003234 -0.000626 0.000000 0.000000 0.000000
# 2 -0.003234 0.008707 -0.002265 0.000000 0.000000 0.000000
# 3 -0.000626 -0.002265 0.005653 0.000000 0.000000 0.000000
# 4 0.000000 0.000000 0.000000 0.017875 0.000000 0.000000
# 5 0.000000 0.000000 0.000000 0.000000 0.083421 0.000000
# 6 0.000000 0.000000 0.000000 0.000000 0.000000 0.068580
#
#
# Mechanical properties :
#
#
# Convention : Reuss Voigt Hill
#
# Bulk Modulus (GPa) = 54.21134 70.38218 62.29676
# Shear Modulus (GPa) = 22.83412 36.68316 29.75864
#
# Velocity S-wave (km/s) = 3.19174 4.04547 3.64370
# Velocity P-wave (km/s) = 6.14564 7.29530 6.74501
#
# Compressibility (1/GPa) = 0.01844633
#
# Stress axis : x y z
#
# Youngs Moduli (GPa) = 61.21516 114.84945 176.89204
#
# Poissons Ratio (x) = 0.37141 0.11069
# Poissons Ratio (y) = 0.19796 0.40070
# Poissons Ratio (z) = 0.03831 0.26016
#
# Static dielectric constant tensor:
#      x y z
#    x 1.855510 0.000000 0.000000 
#    y 0.000000 1.949270 0.000000 
#    z 0.000000 0.000000 1.853600 
# 
# From -- ./inp_files/1132.got.cif
#   From: 2010.05.17/outbox.cif.g08.bks.cpg/sg21_1_cif.got.tgz:1132.got - 2010.06.03 23:14:55.
