data_PCOD9322309
_publ_section_title
;
Structure prediction by ZEFSAII (Michael W. Deem and Ramdas Pophale) SiO2 
 PCOD9322309
Probable space group: C 2 2 2
;
_chemical_formula_sum "Si O2"
_cell_formula_units_Z 48
_cell_length_a 21.725156
_cell_length_b 20.955265
_cell_length_c 5.199186
_cell_angle_alpha 90.000000
_cell_angle_beta 90.000000
_cell_angle_gamma 90.000000
_cell_volume 2366.962707
_symmetry_space_group_name_H-M "C 2 2 2"
_symmetry_group_IT_number 21
_symmetry_cell_setting 'orthorhombic'
loop_
_space_group_symop_operation_xyz
x,y,z
-x,-y,z
x,-y,-z
-x,y,-z
1/2+x,1/2+y,z
1/2-x,1/2-y,z
1/2+x,1/2-y,-z
1/2-x,1/2+y,-z
loop_
_atom_site_type_symbol
_atom_site_label
_atom_site_fract_x
_atom_site_fract_y
_atom_site_fract_z
Si Si1 0.065486 0.845627 0.072558
Si Si2 0.701768 0.693651 0.976158
Si Si3 0.279272 0.381587 0.473124
Si Si4 0.472709 0.073746 0.243888
Si Si5 0.412170 0.571236 0.570009
Si Si6 0.165443 0.542030 0.749098
O O1 0.127698 0.802614 0.070071
O O2 0.064310 0.880359 0.349259
O O3 0.073208 0.900711 0.852113
O O4 0.000000 0.814383 0.000000
O O5 0.750000 0.750000 0.926235
O O6 0.723610 0.639704 0.769978
O O7 0.706915 0.676130 0.277005
O O8 0.338021 0.427097 0.449104
O O9 0.219514 0.413218 0.349842
O O10 0.500000 0.102761 0.500000
O O11 0.400102 0.074476 0.205237
O O12 0.500000 0.000000 0.244728
O O13 0.500000 0.107839 0.000000
O O14 0.432667 0.500000 0.500000
O O15 0.151381 0.500000 0.500000
O O16 0.181745 0.500000 0.000000
#
# Coordination Sequence:
#
# PCOD9322309 Si02
#       6
#     8   8   8   8   8   8
#     4  10  21  35  56  86 107 144 193 220 265 342
#     4  10  21  41  62  77 105 141 181 243 289 324
#     4  10  22  35  53  85 107 139 192 222 273 337
#     4  10  16  29  43  66  96 138 196 211 245 310
#     4  10  20  34  51  78 125 152 172 217 263 325
#     4  12  20  30  51  76 110 148 178 223 267 326
#
# _framework density 20.279152
#
# number of rings (size 3 to 8) (size 9 to 14) (size 15 to 20)
#    0.000    1.667    3.333    3.000    0.000    4.667 
#    0.000    0.000    0.000    3.000    0.000    0.000 
#    0.000    0.000    0.000    0.000    0.000    0.000 
#
# Total GULP energy -133703.899341 kJ/mol
# GULP energy per Si atom -5570.995806 kJ/mol
# Density = 2.023300 g / cm^3
# Si number density = 20.279152 Si / 1000 Ang^3
#
#
#
# Elastic Constant Matrix: (Units=GPa)
#
#
# Indices 1 2 3 4 5 6 
#
# 1 175.2829 32.9741 3.7519 0.0000 0.0000 0.0000
# 2 32.9741 18.6938 0.9197 0.0000 0.0000 0.0000
# 3 3.7519 0.9197 117.7556 0.0000 0.0000 0.0000
# 4 0.0000 0.0000 0.0000 9.3061 0.0000 0.0000
# 5 0.0000 0.0000 0.0000 0.0000 42.5085 0.0000
# 6 0.0000 0.0000 0.0000 0.0000 0.0000 -25.2512
#
#
#
# Elastic Compliance Matrix: (Units=1/GPa)
#
#
# Indices 1 2 3 4 5 6 
#
# 1 0.008541 -0.015058 -0.000155 0.000000 0.000000 0.000000
# 2 -0.015058 0.080062 -0.000146 0.000000 0.000000 0.000000
# 3 -0.000155 -0.000146 0.008498 0.000000 0.000000 0.000000
# 4 0.000000 0.000000 0.000000 0.107456 0.000000 0.000000
# 5 0.000000 0.000000 0.000000 0.000000 0.023525 0.000000
# 6 0.000000 0.000000 0.000000 0.000000 0.000000 -0.039602
#
#
# Mechanical properties :
#
#
# Convention : Reuss Voigt Hill
#
# Bulk Modulus (GPa) = 15.06369 43.00264 29.03317
# Shear Modulus (GPa) = 20.71900 23.58513 22.15207
#
# Velocity S-wave (km/s) = 3.19986 3.41401 3.30867
# Velocity P-wave (km/s) = 4.59308 6.06564 5.37998
#
# Compressibility (1/GPa) = 0.06638482
#
# Stress axis : x y z
#
# Youngs Moduli (GPa) = 117.08126 12.49036 117.67167
#
# Poissons Ratio (x) = 0.18808 0.01818
# Poissons Ratio (y) = 1.76301 0.01713
# Poissons Ratio (z) = 0.01809 0.00182
#
# Static dielectric constant tensor:
#      x y z
#    x 1.711100 0.000000 0.000000 
#    y 0.000000 1.701980 0.000000 
#    z 0.000000 0.000000 1.724820 
# 
# From -- ./inp_files/5948.got.cif
#   From: 2010.05.17/outbox.cif.g08.bks.cpg/sg21_3_cif.got.tgz:5948.got - 2010.06.03 23:14:55.
