data_PCOD9322740
_publ_section_title
;
Structure prediction by ZEFSAII (Michael W. Deem and Ramdas Pophale) SiO2 
 PCOD9322740
Probable space group: C 2 2 2
;
_chemical_formula_sum "Si O2"
_cell_formula_units_Z 32
_cell_length_a 23.302725
_cell_length_b 5.532282
_cell_length_c 9.259307
_cell_angle_alpha 90.000000
_cell_angle_beta 90.000000
_cell_angle_gamma 90.000000
_cell_volume 1193.684359
_symmetry_space_group_name_H-M "C 2 2 2"
_symmetry_group_IT_number 21
_symmetry_cell_setting 'orthorhombic'
loop_
_space_group_symop_operation_xyz
x,y,z
-x,-y,z
x,-y,-z
-x,y,-z
1/2+x,1/2+y,z
1/2-x,1/2-y,z
1/2+x,1/2-y,-z
1/2-x,1/2+y,-z
loop_
_atom_site_type_symbol
_atom_site_label
_atom_site_fract_x
_atom_site_fract_y
_atom_site_fract_z
Si Si1 0.770576 0.998890 0.334989
Si Si2 0.438700 0.886893 0.272204
Si Si3 0.097836 0.885747 0.695807
Si Si4 0.143675 0.250268 0.997091
O O1 0.750000 0.750000 0.265894
O O2 0.838780 0.978987 0.342148
O O3 0.746522 0.000000 0.500000
O O4 0.750000 0.250000 0.269060
O O5 0.441969 0.616543 0.339772
O O6 0.397600 0.814059 0.138060
O O7 0.500000 0.000000 0.228794
O O8 0.413274 0.114884 0.361526
O O9 0.102054 0.813269 0.866803
O O10 0.177734 0.500000 0.000000
O O11 0.178129 0.000000 0.000000
#
# Coordination Sequence:
#
# PCOD9322740 Si02
#       4
#     8   8   8   8
#     4  10  21  38  61  85 106 138 190 247 298 343
#     4  10  19  32  52  80 115 151 186 219 261 327
#     4  10  19  33  54  79 111 143 183 233 279 325
#     4   8  16  28  45  70 103 135 171 211 252 303
#
# _framework density 26.807756999999999
#
# number of rings (size 3 to 8) (size 9 to 14) (size 15 to 20)
#    0.000    2.500    0.000    2.250    0.000    4.500 
#    0.000   12.500    0.000   31.500    0.000    0.000 
#    0.000    0.000    0.000    0.000    0.000    0.000 
#
# Total GULP energy -89117.199271 kJ/mol
# GULP energy per Si atom -5569.824954 kJ/mol
# Density = 2.674674 g / cm^3
# Si number density = 26.807757 Si / 1000 Ang^3
#
#
#
# Elastic Constant Matrix: (Units=GPa)
#
#
# Indices 1 2 3 4 5 6 
#
# 1 106.0350 76.9183 10.3769 0.0000 0.0000 0.0000
# 2 76.9183 421.2566 53.8650 0.0000 0.0000 0.0000
# 3 10.3769 53.8650 86.3441 0.0000 0.0000 0.0000
# 4 0.0000 0.0000 0.0000 28.5727 0.0000 0.0000
# 5 0.0000 0.0000 0.0000 0.0000 56.7898 0.0000
# 6 0.0000 0.0000 0.0000 0.0000 0.0000 50.3014
#
#
#
# Elastic Compliance Matrix: (Units=1/GPa)
#
#
# Indices 1 2 3 4 5 6 
#
# 1 0.010871 -0.001976 -0.000074 0.000000 0.000000 0.000000
# 2 -0.001976 0.002939 -0.001596 0.000000 0.000000 0.000000
# 3 -0.000074 -0.001596 0.012586 0.000000 0.000000 0.000000
# 4 0.000000 0.000000 0.000000 0.034998 0.000000 0.000000
# 5 0.000000 0.000000 0.000000 0.000000 0.017609 0.000000
# 6 0.000000 0.000000 0.000000 0.000000 0.000000 0.019880
#
#
# Mechanical properties :
#
#
# Convention : Reuss Voigt Hill
#
# Bulk Modulus (GPa) = 52.34255 99.55071 75.94663
# Shear Modulus (GPa) = 44.42771 58.63113 51.52942
#
# Velocity S-wave (km/s) = 4.07538 4.68171 4.38903
# Velocity P-wave (km/s) = 6.45852 8.15109 7.35366
#
# Compressibility (1/GPa) = 0.01910492
#
# Stress axis : x y z
#
# Youngs Moduli (GPa) = 91.98662 340.29619 79.45336
#
# Poissons Ratio (x) = 0.67226 0.00589
# Poissons Ratio (y) = 0.18172 0.12679
# Poissons Ratio (z) = 0.00682 0.54305
#
# Static dielectric constant tensor:
#      x y z
#    x 2.050910 0.000000 0.000000 
#    y 0.000000 2.404060 0.000000 
#    z 0.000000 0.000000 2.344790 
# 
# From -- ./inp_files/27077.got.cif
#   From: 2010.05.17/outbox.cif.g08.bks.cpg/sg21_14_cif.got.tgz:27077.got - 2010.06.03 23:14:55.
