data_PCOD9322860
_publ_section_title
;
Structure prediction by ZEFSAII (Michael W. Deem and Ramdas Pophale) SiO2 
 PCOD9322860
Probable space group: C 2 2 2
;
_chemical_formula_sum "Si O2"
_cell_formula_units_Z 40
_cell_length_a 9.072546
_cell_length_b 13.374352
_cell_length_c 15.317909
_cell_angle_alpha 90.000000
_cell_angle_beta 90.000000
_cell_angle_gamma 90.000000
_cell_volume 1858.666251
_symmetry_space_group_name_H-M "C 2 2 2"
_symmetry_group_IT_number 21
_symmetry_cell_setting 'orthorhombic'
loop_
_space_group_symop_operation_xyz
x,y,z
-x,-y,z
x,-y,-z
-x,y,-z
1/2+x,1/2+y,z
1/2-x,1/2-y,z
1/2+x,1/2-y,-z
1/2-x,1/2+y,-z
loop_
_atom_site_type_symbol
_atom_site_label
_atom_site_fract_x
_atom_site_fract_y
_atom_site_fract_z
Si Si1 0.000000 0.660491 0.000000
Si Si2 0.750000 0.750000 0.316549
Si Si3 0.484674 0.271408 0.171635
Si Si4 0.159535 0.059292 0.762221
Si Si5 0.216443 0.059533 0.079243
Si Si6 0.173412 0.035892 0.406379
O O1 0.050947 0.717210 0.087586
O O2 0.862989 0.602355 0.038297
O O3 0.617693 0.777025 0.247674
O O4 0.799536 0.847968 0.374715
O O5 0.611759 0.328554 0.223425
O O6 0.378254 0.351829 0.121855
O O7 0.248135 0.017109 0.843268
O O8 0.235359 0.030641 0.672587
O O9 0.000000 0.000000 0.765431
O O10 0.144260 0.000000 0.000000
O O11 0.233454 0.000000 0.500000
O O12 0.000000 0.000000 0.409128
#
# Coordination Sequence:
#
# PCOD9322860 Si02
#       6
#     4   4   8   8   8   8
#     4  12  21  32  49  82 118 164 220 264 331 393
#     4  12  18  38  64  96 132 172 226 292 342 408
#     4  11  20  35  59  88 120 169 223 279 328 397
#     4   9  17  35  56  85 117 158 218 275 333 397
#     4  11  21  34  51  79 119 166 215 270 322 392
#     4  10  19  34  62  95 125 164 221 282 345 415
#
# _framework density 21.520807999999999
#
# number of rings (size 3 to 8) (size 9 to 14) (size 15 to 20)
#    0.000    1.400    8.000    1.500    0.000    2.800 
#    0.000    0.000    4.400    0.000   10.400    0.000 
#    0.000    0.000    0.000    0.000    0.000    0.000 
#
# Total GULP energy -111388.111851 kJ/mol
# GULP energy per Si atom -5569.405593 kJ/mol
# Density = 2.147183 g / cm^3
# Si number density = 21.520808 Si / 1000 Ang^3
#
#
#
# Elastic Constant Matrix: (Units=GPa)
#
#
# Indices 1 2 3 4 5 6 
#
# 1 49.9404 36.4210 33.0546 0.0000 0.0000 0.0000
# 2 36.4210 77.6200 62.1151 0.0000 0.0000 0.0000
# 3 33.0546 62.1151 212.1570 0.0000 0.0000 0.0000
# 4 0.0000 0.0000 0.0000 -9.0113 0.0000 0.0000
# 5 0.0000 0.0000 0.0000 0.0000 38.4268 0.0000
# 6 0.0000 0.0000 0.0000 0.0000 0.0000 73.2734
#
#
#
# Elastic Compliance Matrix: (Units=1/GPa)
#
#
# Indices 1 2 3 4 5 6 
#
# 1 0.030528 -0.013737 -0.000735 0.000000 0.000000 0.000000
# 2 -0.013737 0.023006 -0.004596 0.000000 0.000000 0.000000
# 3 -0.000735 -0.004596 0.006173 0.000000 0.000000 0.000000
# 4 0.000000 0.000000 0.000000 -0.110972 0.000000 0.000000
# 5 0.000000 0.000000 0.000000 0.000000 0.026024 0.000000
# 6 0.000000 0.000000 0.000000 0.000000 0.000000 0.013648
#
#
# Mechanical properties :
#
#
# Convention : Reuss Voigt Hill
#
# Bulk Modulus (GPa) = 46.35131 66.98875 56.67003
# Shear Modulus (GPa) = 148.22652 34.41288 91.31970
#
# Velocity S-wave (km/s) = 8.30815 4.00315 6.52115
# Velocity P-wave (km/s) = 10.65920 7.24996 9.11539
#
# Compressibility (1/GPa) = 0.02157437
#
# Stress axis : x y z
#
# Youngs Moduli (GPa) = 32.75676 43.46615 161.98458
#
# Poissons Ratio (x) = 0.59708 0.11899
# Poissons Ratio (y) = 0.44997 0.74441
# Poissons Ratio (z) = 0.02406 0.19975
#
# Static dielectric constant tensor:
#      x y z
#    x 1.858360 0.000000 0.000000 
#    y 0.000000 1.886320 0.000000 
#    z 0.000000 0.000000 1.795740 
# 
# From -- ./inp_files/30230.got.cif
#   From: 2010.05.17/outbox.cif.g08.bks.cpg/sg21_16_cif.got.tgz:30230.got - 2010.06.03 23:14:55.
