data_PCOD9322200
_publ_section_title
;
Structure prediction by ZEFSAII (Michael W. Deem and Ramdas Pophale) SiO2 
 PCOD9322200
Probable space group: C 2 2 21
;
_chemical_formula_sum "Si O2"
_cell_formula_units_Z 30
_cell_length_a 18.000000
_cell_length_b 27.000000
_cell_length_c 6.000000
_cell_angle_alpha 90.000000
_cell_angle_beta 90.000000
_cell_angle_gamma 90.000000
_cell_volume 2916.000000
_symmetry_space_group_name_H-M "C 2 2 21"
_symmetry_group_IT_number 20
_symmetry_cell_setting 'orthorhombic'
loop_
_space_group_symop_operation_xyz
x,y,z
-x,-y,1/2+z
x,-y,-z
-x,y,1/2-z
1/2+x,1/2+y,z
1/2-x,1/2-y,1/2+z
1/2+x,1/2-y,-z
1/2-x,1/2+y,1/2-z
loop_
_atom_site_type_symbol
_atom_site_label
_atom_site_fract_x
_atom_site_fract_y
_atom_site_fract_z
Si Si1 0.653149 0.206922 0.335198
Si Si2 0.769908 0.382692 0.682839
Si Si3 0.930178 0.218571 0.091322
Si Si4 0.850039 0.145158 0.819396
Si Si5 0.186719 0.229621 0.032704
Si Si6 0.194429 0.054028 0.947517
Si Si7 0.341823 0.049016 0.649471
Si Si8 0.000000 0.525938 0.750000
O O1 0.682641 0.151617 0.349490
O O2 0.582742 0.230447 0.454830
O O3 0.727179 0.236296 0.415278
O O4 0.650582 0.221951 0.076811
O O5 0.713307 0.358069 0.508128
O O6 0.829731 0.408059 0.526605
O O7 0.719034 0.419561 0.824792
O O8 0.860125 0.216804 0.253738
O O9 0.000000 0.217654 0.250000
O O10 0.921779 0.171486 0.928211
O O11 0.823696 0.183572 0.631976
O O12 0.854521 0.091650 0.701269
O O13 0.272152 0.047261 0.814935
O O14 0.162284 0.000000 0.000000
O O15 0.421341 0.053433 0.763612
O O16 0.338610 0.000000 0.500000
O O17 0.996511 0.500000 0.500000
#
# Coordination Sequence:
#
# PCOD9322200 Si02
#       8
#     8   8   8   8   8   8   8   4
#     4  11  20  34  63  88 117 167 210 261 321 395
#     4  11  21  36  59  91 124 159 217 276 327 397
#     4  11  24  39  62  93 132 165 216 275 333 403
#     4  10  21  35  60  93 122 161 209 262 332 400
#     4  11  19  37  64  86 118 160 210 255 317 389
#     4  11  20  34  60  91 130 157 208 282 339 397
#     4  10  21  35  58  84 117 165 219 280 339 394
#     4  10  22  38  62  80 116 172 242 284 340 412
#
# _framework density 10.288066000000001
#
# number of rings (size 3 to 8) (size 9 to 14) (size 15 to 20)
#    0.000    1.333    5.333    1.200    1.867    2.133 
#    0.000    0.000    8.800    0.000    0.000    0.000 
#   56.000    0.000    0.000    0.000    0.000    0.000 
#
# Total GULP energy -167046.176568 kJ/mol
# GULP energy per Si atom -5568.205886 kJ/mol
# Density = 1.026465 g / cm^3
# Si number density = 10.288066 Si / 1000 Ang^3
#
#
#
# Elastic Constant Matrix: (Units=GPa)
#
#
# Indices 1 2 3 4 5 6 
#
# 1 41.1943 13.7349 17.7582 0.0000 0.0000 0.0000
# 2 13.7349 90.6437 21.9859 0.0000 0.0000 0.0000
# 3 17.7582 21.9859 72.4206 0.0000 0.0000 0.0000
# 4 0.0000 0.0000 0.0000 37.2860 0.0000 0.0000
# 5 0.0000 0.0000 0.0000 0.0000 -6.4765 0.0000
# 6 0.0000 0.0000 0.0000 0.0000 0.0000 12.8332
#
#
#
# Elastic Compliance Matrix: (Units=1/GPa)
#
#
# Indices 1 2 3 4 5 6 
#
# 1 0.027770 -0.002759 -0.005972 0.000000 0.000000 0.000000
# 2 -0.002759 0.012183 -0.003022 0.000000 0.000000 0.000000
# 3 -0.005972 -0.003022 0.016190 0.000000 0.000000 0.000000
# 4 0.000000 0.000000 0.000000 0.026820 0.000000 0.000000
# 5 0.000000 0.000000 0.000000 0.000000 -0.154405 0.000000
# 6 0.000000 0.000000 0.000000 0.000000 0.000000 0.077923
#
#
# Mechanical properties :
#
#
# Convention : Reuss Voigt Hill
#
# Bulk Modulus (GPa) = 30.64038 34.57964 32.61001
# Shear Modulus (GPa) = 122.35382 18.78052 70.56717
#
# Velocity S-wave (km/s) = 7.71965 3.02442 5.86260
# Velocity P-wave (km/s) = 9.71499 5.38873 7.85555
#
# Compressibility (1/GPa) = 0.03263668
#
# Stress axis : x y z
#
# Youngs Moduli (GPa) = 36.01068 82.07926 61.76661
#
# Poissons Ratio (x) = 0.22649 0.36885
# Poissons Ratio (y) = 0.09937 0.18666
# Poissons Ratio (z) = 0.21504 0.24805
#
# Static dielectric constant tensor:
#      x y z
#    x 1.695660 0.000000 0.000000 
#    y 0.000000 1.842800 0.000000 
#    z 0.000000 0.000000 1.730120 
# 
# From -- ./inp_files/2840.got.cif
#   From: 2010.05.17/outbox.ucp.g08.bks.cvg/sg20_2_cif.got.tgz:2840.got - 2010.06.11 15:13:06.
