data_PCOD9322808
_publ_section_title
;
Structure prediction by ZEFSAII (Michael W. Deem and Ramdas Pophale) SiO2 
 PCOD9322808
Probable space group: C 2 2 2
;
_chemical_formula_sum "Si O2"
_cell_formula_units_Z 32
_cell_length_a 17.892988
_cell_length_b 12.882798
_cell_length_c 7.393438
_cell_angle_alpha 90.000000
_cell_angle_beta 90.000000
_cell_angle_gamma 90.000000
_cell_volume 1704.274332
_symmetry_space_group_name_H-M "C 2 2 2"
_symmetry_group_IT_number 21
_symmetry_cell_setting 'orthorhombic'
loop_
_space_group_symop_operation_xyz
x,y,z
-x,-y,z
x,-y,-z
-x,y,-z
1/2+x,1/2+y,z
1/2-x,1/2-y,z
1/2+x,1/2-y,-z
1/2-x,1/2+y,-z
loop_
_atom_site_type_symbol
_atom_site_label
_atom_site_fract_x
_atom_site_fract_y
_atom_site_fract_z
Si Si1 0.421817 0.813682 0.068312
Si Si2 0.830868 0.796581 0.627700
Si Si3 0.736183 0.500000 0.500000
Si Si4 0.500000 0.000000 0.722719
Si Si5 0.362628 0.862469 0.682010
O O1 0.385194 0.740188 0.215306
O O2 0.446875 0.922314 0.161797
O O3 0.500000 0.767430 0.000000
O O4 0.370597 0.836038 0.893685
O O5 0.750000 0.750000 0.674684
O O6 0.815845 0.917366 0.600398
O O7 0.855204 0.739407 0.441982
O O8 0.792406 0.435405 0.630707
O O9 0.560434 0.077191 0.633067
#
# Coordination Sequence:
#
# PCOD9322808 Si02
#       5
#     8   8   4   4   8
#     4  10  21  36  59  91 115 141 188 245 295 338
#     4  10  22  37  56  84 117 151 191 233 281 346
#     4  10  22  39  56  81 120 162 190 224 286 348
#     4  10  19  33  60  89 111 140 185 245 302 337
#     4  10  20  36  58  86 114 145 187 239 293 338
#
# _framework density 18.776320999999999
#
# number of rings (size 3 to 8) (size 9 to 14) (size 15 to 20)
#    0.000    2.000    0.000    6.375    0.000   12.500 
#    0.000    6.250    0.000   16.500    0.000    0.000 
#    0.000    0.000    0.000    0.000    0.000    0.000 
#
# Total GULP energy -89266.709504 kJ/mol
# GULP energy per Si atom -5579.169344 kJ/mol
# Density = 1.873359 g / cm^3
# Si number density = 18.776321 Si / 1000 Ang^3
#
#
#
# Elastic Constant Matrix: (Units=GPa)
#
#
# Indices 1 2 3 4 5 6 
#
# 1 84.8173 48.2150 52.8538 0.0000 0.0000 0.0000
# 2 48.2150 109.2734 61.3336 0.0000 0.0000 0.0000
# 3 52.8538 61.3336 119.0753 0.0000 0.0000 0.0000
# 4 0.0000 0.0000 0.0000 13.3524 0.0000 0.0000
# 5 0.0000 0.0000 0.0000 0.0000 35.9301 0.0000
# 6 0.0000 0.0000 0.0000 0.0000 0.0000 27.0699
#
#
#
# Elastic Compliance Matrix: (Units=1/GPa)
#
#
# Indices 1 2 3 4 5 6 
#
# 1 0.017958 -0.004853 -0.005472 0.000000 0.000000 0.000000
# 2 -0.004853 0.014184 -0.005152 0.000000 0.000000 0.000000
# 3 -0.005472 -0.005152 0.013480 0.000000 0.000000 0.000000
# 4 0.000000 0.000000 0.000000 0.074893 0.000000 0.000000
# 5 0.000000 0.000000 0.000000 0.000000 0.027832 0.000000
# 6 0.000000 0.000000 0.000000 0.000000 0.000000 0.036941
#
#
# Mechanical properties :
#
#
# Convention : Reuss Voigt Hill
#
# Bulk Modulus (GPa) = 68.16506 70.88565 69.52535
# Shear Modulus (GPa) = 22.61094 25.32138 23.96616
#
# Velocity S-wave (km/s) = 3.47396 3.67629 3.57655
# Velocity P-wave (km/s) = 7.24388 7.47360 7.35964
#
# Compressibility (1/GPa) = 0.01467027
#
# Stress axis : x y z
#
# Youngs Moduli (GPa) = 55.68501 70.50031 74.18123
#
# Poissons Ratio (x) = 0.34211 0.40589
# Poissons Ratio (y) = 0.27022 0.38220
# Poissons Ratio (z) = 0.30468 0.36323
#
# Static dielectric constant tensor:
#      x y z
#    x 1.653590 0.000000 0.000000 
#    y 0.000000 1.666270 0.000000 
#    z 0.000000 0.000000 1.755050 
# 
# From -- ./inp_files/16036.got.cif
#   From: 2010.05.17/outbox.cif.g08.bks.cpg/sg21_9_cif.got.tgz:16036.got - 2010.06.03 23:14:55.
