data_PCOD9322489
_publ_section_title
;
Structure prediction by ZEFSAII (Michael W. Deem and Ramdas Pophale) SiO2 
 PCOD9322489
Probable space group: C 2 2 2
;
_chemical_formula_sum "Si O2"
_cell_formula_units_Z 32
_cell_length_a 5.159919
_cell_length_b 34.950857
_cell_length_c 7.165917
_cell_angle_alpha 90.000000
_cell_angle_beta 90.000000
_cell_angle_gamma 90.000000
_cell_volume 1292.327205
_symmetry_space_group_name_H-M "C 2 2 2"
_symmetry_group_IT_number 21
_symmetry_cell_setting 'orthorhombic'
loop_
_space_group_symop_operation_xyz
x,y,z
-x,-y,z
x,-y,-z
-x,y,-z
1/2+x,1/2+y,z
1/2-x,1/2-y,z
1/2+x,1/2-y,-z
1/2-x,1/2+y,-z
loop_
_atom_site_type_symbol
_atom_site_label
_atom_site_fract_x
_atom_site_fract_y
_atom_site_fract_z
Si Si1 0.555455 0.214606 0.276294
Si Si2 0.507011 0.044073 0.772891
Si Si3 0.461391 0.323139 0.285475
Si Si4 0.500743 0.590021 0.224813
O O1 0.500000 0.216532 0.500000
O O2 0.750000 0.250000 0.231483
O O3 0.266244 0.204043 0.204597
O O4 0.746099 0.180682 0.211102
O O5 0.780594 0.060767 0.714047
O O6 0.275821 0.072793 0.715901
O O7 0.500000 0.000000 0.713870
O O8 0.500000 0.043736 0.000000
O O9 0.500000 0.310728 0.500000
O O10 0.406907 0.367874 0.285447
O O11 0.500000 0.591708 0.000000
#
# Coordination Sequence:
#
# PCOD9322489 Si02
#       4
#     8   8   8   8
#     4  10  18  31  51  75  98 124 164 208 244 282
#     4   9  17  30  50  74  97 126 169 212 243 279
#     4  10  20  32  50  75 101 128 159 202 249 292
#     4  10  19  32  51  74 100 131 164 202 247 296
#
# _framework density 24.761533
#
# number of rings (size 3 to 8) (size 9 to 14) (size 15 to 20)
#    0.000    2.250    0.000    5.250    0.000    3.000 
#    0.000    0.000    0.000    7.500    0.000    7.000 
#    0.000    0.000    0.000    0.000    0.000    0.000 
#
# Total GULP energy -89230.746341 kJ/mol
# GULP energy per Si atom -5576.921646 kJ/mol
# Density = 2.470517 g / cm^3
# Si number density = 24.761533 Si / 1000 Ang^3
#
#
#
# Elastic Constant Matrix: (Units=GPa)
#
#
# Indices 1 2 3 4 5 6 
#
# 1 191.0947 51.2935 -3.3578 0.0000 0.0000 0.0000
# 2 51.2935 138.2971 -21.4269 0.0000 0.0000 0.0000
# 3 -3.3578 -21.4269 93.1729 0.0000 0.0000 0.0000
# 4 0.0000 0.0000 0.0000 15.4027 0.0000 0.0000
# 5 0.0000 0.0000 0.0000 0.0000 -13.1845 0.0000
# 6 0.0000 0.0000 0.0000 0.0000 0.0000 49.2438
#
#
#
# Elastic Compliance Matrix: (Units=1/GPa)
#
#
# Indices 1 2 3 4 5 6 
#
# 1 0.005820 -0.002204 -0.000297 0.000000 0.000000 0.000000
# 2 -0.002204 0.008333 0.001837 0.000000 0.000000 0.000000
# 3 -0.000297 0.001837 0.011144 0.000000 0.000000 0.000000
# 4 0.000000 0.000000 0.000000 0.064924 0.000000 0.000000
# 5 0.000000 0.000000 0.000000 0.000000 -0.075847 0.000000
# 6 0.000000 0.000000 0.000000 0.000000 0.000000 0.020307
#
#
# Mechanical properties :
#
#
# Convention : Reuss Voigt Hill
#
# Bulk Modulus (GPa) = 41.72340 52.84247 47.28294
# Shear Modulus (GPa) = 113.63729 36.69613 75.16671
#
# Velocity S-wave (km/s) = 6.78176 3.85383 5.51563
# Velocity P-wave (km/s) = 8.84363 6.41791 7.72655
#
# Compressibility (1/GPa) = 0.02396736
#
# Stress axis : x y z
#
# Youngs Moduli (GPa) = 171.83588 120.00440 89.73079
#
# Poissons Ratio (x) = 0.26455 0.02667
# Poissons Ratio (y) = 0.37881 -0.16483
# Poissons Ratio (z) = 0.05108 -0.22044
#
# Static dielectric constant tensor:
#      x y z
#    x 1.944120 0.000000 0.000000 
#    y 0.000000 1.969600 0.000000 
#    z 0.000000 0.000000 2.077210 
# 
# From -- ./inp_files/21109.got.cif
#   From: 2010.05.17/outbox.cif.g08.bks.cpg/sg21_11_cif.got.tgz:21109.got - 2010.06.03 23:14:55.
