data_PCOD9322911
_publ_section_title
;
Structure prediction by ZEFSAII (Michael W. Deem and Ramdas Pophale) SiO2 
 PCOD9322911
Probable space group: C 2 2 2
;
_chemical_formula_sum "Si O2"
_cell_formula_units_Z 64
_cell_length_a 25.962590
_cell_length_b 5.664112
_cell_length_c 19.661417
_cell_angle_alpha 90.000000
_cell_angle_beta 90.000000
_cell_angle_gamma 90.000000
_cell_volume 2891.310022
_symmetry_space_group_name_H-M "C 2 2 2"
_symmetry_group_IT_number 21
_symmetry_cell_setting 'orthorhombic'
loop_
_space_group_symop_operation_xyz
x,y,z
-x,-y,z
x,-y,-z
-x,y,-z
1/2+x,1/2+y,z
1/2-x,1/2-y,z
1/2+x,1/2-y,-z
1/2-x,1/2+y,-z
loop_
_atom_site_type_symbol
_atom_site_label
_atom_site_fract_x
_atom_site_fract_y
_atom_site_fract_z
Si Si1 0.272329 0.000167 0.260137
Si Si2 0.883233 0.988711 0.863026
Si Si3 0.559912 0.243004 0.526041
Si Si4 0.878014 0.726106 0.728011
Si Si5 0.049890 0.623919 0.802852
Si Si6 0.267192 0.501702 0.897756
Si Si7 0.054523 0.090996 0.333845
Si Si8 0.059906 0.251374 0.973304
O O1 0.250000 0.750000 0.286324
O O2 0.332379 0.963173 0.277009
O O3 0.259138 0.002360 0.178855
O O4 0.250000 0.250000 0.285935
O O5 0.863845 0.909496 0.788082
O O6 0.828940 0.008224 0.899553
O O7 0.921700 0.793719 0.895650
O O8 0.914964 0.231953 0.855481
O O9 0.579384 0.500000 0.500000
O O10 0.500000 0.238834 0.500000
O O11 0.567652 0.226006 0.607540
O O12 0.584118 0.000000 0.500000
O O13 0.924346 0.581240 0.759872
O O14 0.901864 0.889521 0.669927
O O15 0.042285 0.813410 0.741744
O O16 0.000000 0.500000 0.834491
O O17 0.250000 0.250000 0.926013
O O18 0.250000 0.750000 0.927951
O O19 0.000000 0.000000 0.359966
O O20 0.081105 0.500000 0.000000
O O21 0.000000 0.250929 0.000000
O O22 0.080819 0.000000 0.000000
#
# Coordination Sequence:
#
# PCOD9322911 Si02
#       8
#     8   8   8   8   8   8   8   8
#     4  10  19  36  58  86 124 159 213 257 325 404
#     4  11  24  41  65  94 127 169 226 269 348 419
#     4  10  21  34  59  78 110 181 250 270 322 366
#     4  11  23  37  60  94 126 179 213 275 343 417
#     4  11  24  35  57  89 136 177 215 270 341 413
#     4  10  19  35  63  95 123 155 210 263 326 409
#     4  11  22  38  51  88 135 177 234 289 330 393
#     4  10  25  48  68  91 123 167 217 281 321 384
#
# _framework density 22.135296
#
# number of rings (size 3 to 8) (size 9 to 14) (size 15 to 20)
#    0.000    1.500    5.000    1.500    7.000    2.000 
#    0.000    0.000    0.000    1.500    0.000    0.000 
#    0.000    0.000    4.250    0.000    0.000    0.000 
#
# Total GULP energy -178267.685955 kJ/mol
# GULP energy per Si atom -5570.865186 kJ/mol
# Density = 2.208491 g / cm^3
# Si number density = 22.135296 Si / 1000 Ang^3
#
#
#
# Elastic Constant Matrix: (Units=GPa)
#
#
# Indices 1 2 3 4 5 6 
#
# 1 110.9467 42.0267 29.8822 0.0000 0.0000 0.0000
# 2 42.0267 185.3782 33.8627 0.0000 0.0000 0.0000
# 3 29.8822 33.8627 68.9400 0.0000 0.0000 0.0000
# 4 0.0000 0.0000 0.0000 49.3832 0.0000 0.0000
# 5 0.0000 0.0000 0.0000 0.0000 -1.0117 0.0000
# 6 0.0000 0.0000 0.0000 0.0000 0.0000 38.6305
#
#
#
# Elastic Compliance Matrix: (Units=1/GPa)
#
#
# Indices 1 2 3 4 5 6 
#
# 1 0.010688 -0.001732 -0.003782 0.000000 0.000000 0.000000
# 2 -0.001732 0.006207 -0.002298 0.000000 0.000000 0.000000
# 3 -0.003782 -0.002298 0.017273 0.000000 0.000000 0.000000
# 4 0.000000 0.000000 0.000000 0.020250 0.000000 0.000000
# 5 0.000000 0.000000 0.000000 0.000000 -0.988465 0.000000
# 6 0.000000 0.000000 0.000000 0.000000 0.000000 0.025886
#
#
# Mechanical properties :
#
#
# Convention : Reuss Voigt Hill
#
# Bulk Modulus (GPa) = 53.92529 64.08981 59.00755
# Shear Modulus (GPa) = -5.64108 34.69997 14.52945
#
# Velocity S-wave (km/s) = -1.59812 3.96363 2.56480
# Velocity P-wave (km/s) = 4.58358 7.06850 5.95705
#
# Compressibility (1/GPa) = 0.01854417
#
# Stress axis : x y z
#
# Youngs Moduli (GPa) = 93.56177 161.11248 57.89264
#
# Poissons Ratio (x) = 0.27909 0.21895
# Poissons Ratio (y) = 0.16207 0.13303
# Poissons Ratio (z) = 0.35384 0.37022
#
# Static dielectric constant tensor:
#      x y z
#    x 1.886230 0.000000 0.000000 
#    y 0.000000 1.876690 0.000000 
#    z 0.000000 0.000000 1.925780 
# 
# From -- ./inp_files/37970.got.cif
#   From: 2010.05.17/outbox.cif.g08.bks.cpg/sg21_19_cif.got.tgz:37970.got - 2010.06.03 23:14:55.
