data_PCOD9322161
_publ_section_title
;
Structure prediction by ZEFSAII (Michael W. Deem and Ramdas Pophale) SiO2 
 PCOD9322161
Probable space group: C 2 2 21
;
_chemical_formula_sum "Si O2"
_cell_formula_units_Z 40
_cell_length_a 8.761142
_cell_length_b 14.485896
_cell_length_c 14.798939
_cell_angle_alpha 90.000000
_cell_angle_beta 90.000000
_cell_angle_gamma 90.000000
_cell_volume 1878.177625
_symmetry_space_group_name_H-M "C 2 2 21"
_symmetry_group_IT_number 20
_symmetry_cell_setting 'orthorhombic'
loop_
_space_group_symop_operation_xyz
x,y,z
-x,-y,1/2+z
x,-y,-z
-x,y,1/2-z
1/2+x,1/2+y,z
1/2-x,1/2-y,1/2+z
1/2+x,1/2-y,-z
1/2-x,1/2+y,1/2-z
loop_
_atom_site_type_symbol
_atom_site_label
_atom_site_fract_x
_atom_site_fract_y
_atom_site_fract_z
Si Si1 0.785721 0.103232 0.168993
Si Si2 0.275228 0.903573 0.386504
Si Si3 0.565975 0.200853 0.031289
Si Si4 0.348267 0.777182 0.811829
Si Si5 0.981824 0.094900 0.476764
O O1 0.698570 0.172806 0.101011
O O2 0.758332 0.146781 0.266137
O O3 0.952178 0.094144 0.124985
O O4 0.708497 0.002738 0.158986
O O5 0.415174 0.869326 0.448210
O O6 0.234419 0.821091 0.318793
O O7 0.129320 0.910699 0.454730
O O8 0.411444 0.196271 0.089293
O O9 0.587209 0.305511 0.997660
O O10 0.500000 0.768124 0.750000
O O11 0.894307 0.000000 0.500000
#
# Coordination Sequence:
#
# PCOD9322161 Si02
#       5
#     8   8   8   8   8
#     4   9  17  32  50  72 103 135 170 213 256 294
#     4   9  17  32  52  72  99 134 168 205 254 305
#     4   9  16  30  53  73  96 133 171 201 248 306
#     4   9  18  33  52  74 101 133 167 209 254 296
#     4   8  15  29  50  71  96 135 174 208 249 297
#
# _framework density 21.297241
#
# number of rings (size 3 to 8) (size 9 to 14) (size 15 to 20)
#    0.000    3.200    0.000    1.800    0.000    0.000 
#    0.000   17.000    0.000   21.600    0.000    0.000 
#    0.000    0.000    0.000    0.000    0.000    0.000 
#
# Total GULP energy -111480.654913 kJ/mol
# GULP energy per Si atom -5574.032746 kJ/mol
# Density = 2.124877 g / cm^3
# Si number density = 21.297241 Si / 1000 Ang^3
#
#
#
# Elastic Constant Matrix: (Units=GPa)
#
#
# Indices 1 2 3 4 5 6 
#
# 1 35.8710 40.2304 39.3645 0.0000 0.0000 0.0000
# 2 40.2304 180.9403 68.0102 0.0000 0.0000 0.0000
# 3 39.3645 68.0102 75.0005 0.0000 0.0000 0.0000
# 4 0.0000 0.0000 0.0000 37.8262 0.0000 0.0000
# 5 0.0000 0.0000 0.0000 0.0000 14.4886 0.0000
# 6 0.0000 0.0000 0.0000 0.0000 0.0000 27.4527
#
#
#
# Elastic Compliance Matrix: (Units=1/GPa)
#
#
# Indices 1 2 3 4 5 6 
#
# 1 0.066499 -0.002528 -0.032609 0.000000 0.000000 0.000000
# 2 -0.002528 0.008481 -0.006363 0.000000 0.000000 0.000000
# 3 -0.032609 -0.006363 0.036219 0.000000 0.000000 0.000000
# 4 0.000000 0.000000 0.000000 0.026437 0.000000 0.000000
# 5 0.000000 0.000000 0.000000 0.000000 0.069020 0.000000
# 6 0.000000 0.000000 0.000000 0.000000 0.000000 0.036426
#
#
# Mechanical properties :
#
#
# Convention : Reuss Voigt Hill
#
# Bulk Modulus (GPa) = 35.46627 65.22466 50.34547
# Shear Modulus (GPa) = 14.90397 25.56729 20.23563
#
# Velocity S-wave (km/s) = 2.64826 3.46858 3.08580
# Velocity P-wave (km/s) = 5.10296 6.83621 6.03216
#
# Compressibility (1/GPa) = 0.02819580
#
# Stress axis : x y z
#
# Youngs Moduli (GPa) = 15.03792 117.91678 27.61015
#
# Poissons Ratio (x) = 0.29814 0.90035
# Poissons Ratio (y) = 0.03802 0.17569
# Poissons Ratio (z) = 0.49038 0.75032
#
# Static dielectric constant tensor:
#      x y z
#    x 1.817420 0.000000 0.000000 
#    y 0.000000 1.776940 0.000000 
#    z 0.000000 0.000000 1.826380 
# 
# From -- ./inp_files/18545.got.cif
#   From: 2010.05.17/outbox.cif.g08.bks.cpg/sg20_10_cif.got.tgz:18545.got - 2010.06.03 22:52:26.
