data_PCOD9322932
_publ_section_title
;
Structure prediction by ZEFSAII (Michael W. Deem and Ramdas Pophale) SiO2 
 PCOD9322932
Probable space group: C 2 2 2
;
_chemical_formula_sum "Si O2"
_cell_formula_units_Z 48
_cell_length_a 16.311087
_cell_length_b 9.167225
_cell_length_c 16.621717
_cell_angle_alpha 90.000000
_cell_angle_beta 90.000000
_cell_angle_gamma 90.000000
_cell_volume 2485.402202
_symmetry_space_group_name_H-M "C 2 2 2"
_symmetry_group_IT_number 21
_symmetry_cell_setting 'orthorhombic'
loop_
_space_group_symop_operation_xyz
x,y,z
-x,-y,z
x,-y,-z
-x,y,-z
1/2+x,1/2+y,z
1/2-x,1/2-y,z
1/2+x,1/2-y,-z
1/2-x,1/2+y,-z
loop_
_atom_site_type_symbol
_atom_site_label
_atom_site_fract_x
_atom_site_fract_y
_atom_site_fract_z
Si Si1 0.669411 0.651717 0.313870
Si Si2 0.241428 0.420599 0.770810
Si Si3 0.483831 0.672802 0.590970
Si Si4 0.041503 0.157804 0.169751
Si Si5 0.942210 0.363256 0.267936
Si Si6 0.695900 0.393652 0.924486
O O1 0.750000 0.750000 0.309114
O O2 0.699887 0.485921 0.299026
O O3 0.612865 0.686887 0.389508
O O4 0.606777 0.683821 0.241187
O O5 0.250000 0.250000 0.788543
O O6 0.147937 0.428074 0.742588
O O7 0.266580 0.517538 0.848003
O O8 0.500000 0.500000 0.599208
O O9 0.500000 0.719977 0.500000
O O10 0.539789 0.756882 0.656383
O O11 0.101615 0.153640 0.093433
O O12 0.971028 0.275787 0.187403
O O13 0.000000 0.000000 0.177783
O O14 0.000000 0.500000 0.279583
O O15 0.750000 0.250000 0.936389
O O16 0.698522 0.500000 0.000000
#
# Coordination Sequence:
#
# PCOD9322932 Si02
#       6
#     8   8   8   8   8   8
#     4  10  19  36  58  83 112 150 192 235 285 344
#     4  11  20  34  59  88 113 145 193 242 289 345
#     4  10  21  39  57  78 115 161 198 237 293 353
#     4  10  20  37  60  83 112 151 191 227 279 357
#     4  11  20  34  59  88 113 144 190 244 295 343
#     4  11  23  40  58  82 118 156 195 241 294 342
#
# _framework density 19.312767999999998
#
# number of rings (size 3 to 8) (size 9 to 14) (size 15 to 20)
#    0.000    1.500    0.000   10.500    0.000    0.667 
#    0.000    4.167    0.000    3.500    0.000    0.000 
#    0.000    0.000    0.000    0.000    0.000    0.000 
#
# Total GULP energy -133873.959384 kJ/mol
# GULP energy per Si atom -5578.081641 kJ/mol
# Density = 1.926881 g / cm^3
# Si number density = 19.312768 Si / 1000 Ang^3
#
#
#
# Elastic Constant Matrix: (Units=GPa)
#
#
# Indices 1 2 3 4 5 6 
#
# 1 92.0777 -7.5553 33.8777 0.0000 0.0000 0.0000
# 2 -7.5553 64.2948 27.1225 0.0000 0.0000 0.0000
# 3 33.8777 27.1225 90.6402 0.0000 0.0000 0.0000
# 4 0.0000 0.0000 0.0000 7.7955 0.0000 0.0000
# 5 0.0000 0.0000 0.0000 0.0000 8.5301 0.0000
# 6 0.0000 0.0000 0.0000 0.0000 0.0000 49.9441
#
#
#
# Elastic Compliance Matrix: (Units=1/GPa)
#
#
# Indices 1 2 3 4 5 6 
#
# 1 0.013542 0.004265 -0.006338 0.000000 0.000000 0.000000
# 2 0.004265 0.019143 -0.007322 0.000000 0.000000 0.000000
# 3 -0.006338 -0.007322 0.015592 0.000000 0.000000 0.000000
# 4 0.000000 0.000000 0.000000 0.128280 0.000000 0.000000
# 5 0.000000 0.000000 0.000000 0.000000 0.117232 0.000000
# 6 0.000000 0.000000 0.000000 0.000000 0.000000 0.020022
#
#
# Mechanical properties :
#
#
# Convention : Reuss Voigt Hill
#
# Bulk Modulus (GPa) = 33.91250 39.32251 36.61750
# Shear Modulus (GPa) = 14.60146 26.15846 20.37996
#
# Velocity S-wave (km/s) = 2.75262 3.68430 3.25200
# Velocity P-wave (km/s) = 5.26311 6.20514 5.75344
#
# Compressibility (1/GPa) = 0.02948765
#
# Stress axis : x y z
#
# Youngs Moduli (GPa) = 73.84359 52.23726 64.13343
#
# Poissons Ratio (x) = -0.22278 0.40646
# Poissons Ratio (y) = -0.31493 0.46961
# Poissons Ratio (z) = 0.46800 0.38250
#
# Static dielectric constant tensor:
#      x y z
#    x 1.756720 0.000000 0.000000 
#    y 0.000000 1.690920 0.000000 
#    z 0.000000 0.000000 1.705530 
# 
# From -- ./inp_files/36634.got.cif
#   From: 2010.05.17/outbox.cif.g08.bks.cpg/sg21_19_cif.got.tgz:36634.got - 2010.06.03 23:14:55.
