data_PCOD9322291
_publ_section_title
;
Structure prediction by ZEFSAII (Michael W. Deem and Ramdas Pophale) SiO2 
 PCOD9322291
Probable space group: C 2 2 2
;
_chemical_formula_sum "Si O2"
_cell_formula_units_Z 54
_cell_length_a 12.827805
_cell_length_b 18.282679
_cell_length_c 11.587920
_cell_angle_alpha 90.000000
_cell_angle_beta 90.000000
_cell_angle_gamma 90.000000
_cell_volume 2717.675955
_symmetry_space_group_name_H-M "C 2 2 2"
_symmetry_group_IT_number 21
_symmetry_cell_setting 'orthorhombic'
loop_
_space_group_symop_operation_xyz
x,y,z
-x,-y,z
x,-y,-z
-x,y,-z
1/2+x,1/2+y,z
1/2-x,1/2-y,z
1/2+x,1/2-y,-z
1/2-x,1/2+y,-z
loop_
_atom_site_type_symbol
_atom_site_label
_atom_site_fract_x
_atom_site_fract_y
_atom_site_fract_z
Si Si1 0.500000 0.500000 0.500000
Si Si2 0.585878 0.611821 0.327853
Si Si3 0.768115 0.661622 0.781284
Si Si4 0.000000 0.234284 0.500000
Si Si5 0.316772 0.177151 0.541882
Si Si6 0.948144 0.857201 0.879267
Si Si7 0.006322 0.682737 0.133977
Si Si8 0.798067 0.667627 0.281167
O O1 0.573704 0.548021 0.419121
O O2 0.561786 0.683507 0.408951
O O3 0.498417 0.604572 0.231088
O O4 0.695459 0.618684 0.262402
O O5 0.750000 0.750000 0.775804
O O6 0.764004 0.635147 0.647627
O O7 0.676365 0.634649 0.864767
O O8 0.885747 0.648706 0.820942
O O9 0.927844 0.287999 0.425169
O O10 0.250000 0.250000 0.524912
O O11 0.327071 0.146873 0.413599
O O12 0.978145 0.771146 0.863009
O O13 0.000000 0.880218 0.000000
O O14 0.900115 0.663183 0.201758
O O15 0.000000 0.662594 0.000000
O O16 0.750000 0.750000 0.270735
#
# Coordination Sequence:
#
# PCOD9322291 Si02
#       8
#     2   8   8   4   8   8   8   8
#     4  10  28  40  62  84 114 172 194 276 304 360
#     4  11  21  37  55  81 116 151 212 242 308 357
#     4   9  18  28  42  70 114 151 188 229 279 359
#     4  11  16  27  50  74 116 145 183 246 288 373
#     4  10  16  25  42  74 101 143 183 224 300 343
#     4  10  20  32  52  77 115 164 196 244 290 363
#     4  10  20  30  46  79 123 162 191 223 296 377
#     4  11  19  30  53  82 113 159 192 243 301 367
#
# _framework density 19.869918999999999
#
# number of rings (size 3 to 8) (size 9 to 14) (size 15 to 20)
#    0.000    1.778    4.444    3.556    4.148    0.593 
#    0.000    0.370    0.000    0.000    0.000    2.074 
#    0.000    1.185    0.000    3.556    0.000    0.000 
#
# Total GULP energy -150410.435588 kJ/mol
# GULP energy per Si atom -5570.756874 kJ/mol
# Density = 1.982469 g / cm^3
# Si number density = 19.869919 Si / 1000 Ang^3
#
#
#
# Elastic Constant Matrix: (Units=GPa)
#
#
# Indices 1 2 3 4 5 6 
#
# 1 157.0024 9.4025 58.4846 0.0000 0.0000 0.0000
# 2 9.4025 8.5332 1.9448 0.0000 0.0000 0.0000
# 3 58.4846 1.9448 130.3878 0.0000 0.0000 0.0000
# 4 0.0000 0.0000 0.0000 8.4019 0.0000 0.0000
# 5 0.0000 0.0000 0.0000 0.0000 39.6542 0.0000
# 6 0.0000 0.0000 0.0000 0.0000 0.0000 4.1732
#
#
#
# Elastic Compliance Matrix: (Units=1/GPa)
#
#
# Indices 1 2 3 4 5 6 
#
# 1 0.008182 -0.008207 -0.003548 0.000000 0.000000 0.000000
# 2 -0.008207 0.125821 0.001805 0.000000 0.000000 0.000000
# 3 -0.003548 0.001805 0.009234 0.000000 0.000000 0.000000
# 4 0.000000 0.000000 0.000000 0.119020 0.000000 0.000000
# 5 0.000000 0.000000 0.000000 0.000000 0.025218 0.000000
# 6 0.000000 0.000000 0.000000 0.000000 0.000000 0.239622
#
#
# Mechanical properties :
#
#
# Convention : Reuss Voigt Hill
#
# Bulk Modulus (GPa) = 8.10788 48.39857 28.25323
# Shear Modulus (GPa) = 8.50179 25.51865 17.01022
#
# Velocity S-wave (km/s) = 2.07075 3.58758 2.92906
# Velocity P-wave (km/s) = 3.13156 6.44760 5.06844
#
# Compressibility (1/GPa) = 0.12333673
#
# Stress axis : x y z
#
# Youngs Moduli (GPa) = 122.21325 7.94777 108.29736
#
# Poissons Ratio (x) = 0.06523 0.38421
# Poissons Ratio (y) = 1.00306 -0.19545
# Poissons Ratio (z) = 0.43358 -0.01434
#
# Static dielectric constant tensor:
#      x y z
#    x 1.828090 0.000000 0.000000 
#    y 0.000000 1.699420 0.000000 
#    z 0.000000 0.000000 1.751640 
# 
# From -- ./inp_files/24266.got.cif
#   From: 2010.05.17/outbox.cif.g08.bks.cpg/sg21_13_cif.got.tgz:24266.got - 2010.06.03 23:14:55.
