data_PCOD9322629
_publ_section_title
;
Structure prediction by ZEFSAII (Michael W. Deem and Ramdas Pophale) SiO2 
 PCOD9322629
Probable space group: C 2 2 2
;
_chemical_formula_sum "Si O2"
_cell_formula_units_Z 64
_cell_length_a 22.916682
_cell_length_b 11.101741
_cell_length_c 12.669956
_cell_angle_alpha 90.000000
_cell_angle_beta 90.000000
_cell_angle_gamma 90.000000
_cell_volume 3223.427719
_symmetry_space_group_name_H-M "C 2 2 2"
_symmetry_group_IT_number 21
_symmetry_cell_setting 'orthorhombic'
loop_
_space_group_symop_operation_xyz
x,y,z
-x,-y,z
x,-y,-z
-x,y,-z
1/2+x,1/2+y,z
1/2-x,1/2-y,z
1/2+x,1/2-y,-z
1/2-x,1/2+y,-z
loop_
_atom_site_type_symbol
_atom_site_label
_atom_site_fract_x
_atom_site_fract_y
_atom_site_fract_z
Si Si1 0.622661 0.257584 0.407612
Si Si2 0.208627 0.364122 0.737435
Si Si3 0.015164 0.793595 0.115564
Si Si4 0.198068 0.000094 0.377680
Si Si5 0.625157 0.857438 0.913463
Si Si6 0.998231 0.135502 0.345950
Si Si7 0.905191 0.380510 0.853648
Si Si8 0.626269 0.741901 0.354951
O O1 0.650185 0.160011 0.329413
O O2 0.652490 0.387512 0.379576
O O3 0.554464 0.284254 0.391044
O O4 0.639626 0.215657 0.525791
O O5 0.250000 0.250000 0.717268
O O6 0.247143 0.473897 0.697092
O O7 0.187078 0.362754 0.856824
O O8 0.081882 0.750302 0.115299
O O9 0.008539 0.870899 0.219641
O O10 0.968056 0.684310 0.131469
O O11 0.000000 0.844932 0.000000
O O12 0.218015 0.000000 0.500000
O O13 0.166603 0.123137 0.342870
O O14 0.591793 0.975980 0.868185
O O15 0.630474 0.850854 0.039510
O O16 0.060112 0.195615 0.365210
O O17 0.000000 0.000000 0.387407
O O18 0.875726 0.331757 0.745625
#
# Coordination Sequence:
#
# PCOD9322629 Si02
#       8
#     8   8   8   8   8   8   8   8
#     4  10  19  34  54  82 116 153 192 239 292 367
#     4  10  21  36  57  78 105 149 201 233 281 345
#     4   9  18  33  55  81 111 149 189 238 290 354
#     4   9  19  35  55  80 113 154 198 243 290 353
#     4  10  18  37  58  76 109 146 193 237 287 346
#     4  11  19  30  55  87 119 152 190 240 312 370
#     4   9  20  34  56  85 106 144 188 236 292 356
#     4  10  20  34  54  86 123 145 192 246 302 359
#
# _framework density 19.85464
#
# number of rings (size 3 to 8) (size 9 to 14) (size 15 to 20)
#    0.000    2.250    2.500    0.750    0.000    3.250 
#    0.000    4.375    0.000    2.250    0.000    0.000 
#    0.000    0.000    0.000    0.000    0.000    0.000 
#
# Total GULP energy -178265.670371 kJ/mol
# GULP energy per Si atom -5570.802199 kJ/mol
# Density = 1.980945 g / cm^3
# Si number density = 19.854640 Si / 1000 Ang^3
#
#
#
# Elastic Constant Matrix: (Units=GPa)
#
#
# Indices 1 2 3 4 5 6 
#
# 1 82.8798 11.6090 26.5955 0.0000 0.0000 0.0000
# 2 11.6090 27.8241 18.5023 0.0000 0.0000 0.0000
# 3 26.5955 18.5023 121.1195 0.0000 0.0000 0.0000
# 4 0.0000 0.0000 0.0000 16.8657 0.0000 0.0000
# 5 0.0000 0.0000 0.0000 0.0000 27.3918 0.0000
# 6 0.0000 0.0000 0.0000 0.0000 0.0000 17.7853
#
#
#
# Elastic Compliance Matrix: (Units=1/GPa)
#
#
# Indices 1 2 3 4 5 6 
#
# 1 0.013376 -0.004038 -0.002320 0.000000 0.000000 0.000000
# 2 -0.004038 0.041223 -0.005411 0.000000 0.000000 0.000000
# 3 -0.002320 -0.005411 0.009592 0.000000 0.000000 0.000000
# 4 0.000000 0.000000 0.000000 0.059292 0.000000 0.000000
# 5 0.000000 0.000000 0.000000 0.000000 0.036507 0.000000
# 6 0.000000 0.000000 0.000000 0.000000 0.000000 0.056226
#
#
# Mechanical properties :
#
#
# Convention : Reuss Voigt Hill
#
# Bulk Modulus (GPa) = 24.59818 38.35968 31.47893
# Shear Modulus (GPa) = 19.73906 24.08298 21.91102
#
# Velocity S-wave (km/s) = 3.15648 3.48654 3.32561
# Velocity P-wave (km/s) = 5.06957 5.96407 5.53492
#
# Compressibility (1/GPa) = 0.04065341
#
# Stress axis : x y z
#
# Youngs Moduli (GPa) = 74.76182 24.25852 104.25020
#
# Poissons Ratio (x) = 0.09795 0.24189
# Poissons Ratio (y) = 0.30188 0.56405
# Poissons Ratio (z) = 0.17347 0.13125
#
# Static dielectric constant tensor:
#      x y z
#    x 1.693440 0.000000 0.000000 
#    y 0.000000 1.696250 0.000000 
#    z 0.000000 0.000000 1.761260 
# 
# From -- ./inp_files/27498.got.cif
#   From: 2010.05.17/outbox.cif.g08.bks.cpg/sg21_14_cif.got.tgz:27498.got - 2010.06.03 23:14:55.
