data_PCOD9322909
_publ_section_title
;
Structure prediction by ZEFSAII (Michael W. Deem and Ramdas Pophale) SiO2 
 PCOD9322909
Probable space group: C 2 2 2
;
_chemical_formula_sum "Si O2"
_cell_formula_units_Z 48
_cell_length_a 19.423755
_cell_length_b 7.888064
_cell_length_c 15.810793
_cell_angle_alpha 90.000000
_cell_angle_beta 90.000000
_cell_angle_gamma 90.000000
_cell_volume 2422.463655
_symmetry_space_group_name_H-M "C 2 2 2"
_symmetry_group_IT_number 21
_symmetry_cell_setting 'orthorhombic'
loop_
_space_group_symop_operation_xyz
x,y,z
-x,-y,z
x,-y,-z
-x,y,-z
1/2+x,1/2+y,z
1/2-x,1/2-y,z
1/2+x,1/2-y,-z
1/2-x,1/2+y,-z
loop_
_atom_site_type_symbol
_atom_site_label
_atom_site_fract_x
_atom_site_fract_y
_atom_site_fract_z
Si Si1 0.158795 0.399709 0.752506
Si Si2 0.692701 0.519564 0.728955
Si Si3 0.678101 0.333786 0.552826
Si Si4 0.441944 0.358811 0.203022
Si Si5 0.919400 0.467201 0.906743
Si Si6 0.563137 0.123038 0.634917
O O1 0.232610 0.483619 0.770811
O O2 0.173826 0.215888 0.714380
O O3 0.115111 0.408565 0.838161
O O4 0.117685 0.506612 0.684124
O O5 0.695788 0.406672 0.645400
O O6 0.629553 0.451844 0.781557
O O7 0.660252 0.500000 0.500000
O O8 0.750000 0.250000 0.520545
O O9 0.610212 0.216057 0.564155
O O10 0.500000 0.500000 0.184056
O O11 0.421707 0.221342 0.132114
O O12 0.460783 0.257356 0.291217
O O13 0.000000 0.500000 0.910971
O O14 0.889762 0.500000 0.000000
O O15 0.500000 0.000000 0.609092
#
# Coordination Sequence:
#
# PCOD9322909 Si02
#       6
#     8   8   8   8   8   8
#     4  10  19  37  61  90 122 161 207 254 303 372
#     4  10  21  36  62  93 119 158 212 254 300 376
#     4  11  24  40  64  96 127 165 210 264 326 387
#     4  10  19  35  62  92 121 161 213 258 306 374
#     4  10  21  37  57  84 124 162 201 254 319 373
#     4  10  20  37  66  92 124 164 209 259 312 370
#
# _framework density 19.814537999999999
#
# number of rings (size 3 to 8) (size 9 to 14) (size 15 to 20)
#    0.000    1.833    1.667    4.000    2.333    0.000 
#    0.000    9.167    0.000   40.500    0.000    0.000 
#    0.000    0.000    0.000    0.000    0.000    0.000 
#
# Total GULP energy -133832.518047 kJ/mol
# GULP energy per Si atom -5576.354919 kJ/mol
# Density = 1.976944 g / cm^3
# Si number density = 19.814538 Si / 1000 Ang^3
#
#
#
# Elastic Constant Matrix: (Units=GPa)
#
#
# Indices 1 2 3 4 5 6 
#
# 1 109.3323 47.1968 26.7452 0.0000 0.0000 0.0000
# 2 47.1968 95.9646 20.7221 0.0000 0.0000 0.0000
# 3 26.7452 20.7221 24.1369 0.0000 0.0000 0.0000
# 4 0.0000 0.0000 0.0000 -20.5046 0.0000 0.0000
# 5 0.0000 0.0000 0.0000 0.0000 26.6713 0.0000
# 6 0.0000 0.0000 0.0000 0.0000 0.0000 43.1928
#
#
#
# Elastic Compliance Matrix: (Units=1/GPa)
#
#
# Indices 1 2 3 4 5 6 
#
# 1 0.013854 -0.004295 -0.011663 0.000000 0.000000 0.000000
# 2 -0.004295 0.014123 -0.007366 0.000000 0.000000 0.000000
# 3 -0.011663 -0.007366 0.060678 0.000000 0.000000 0.000000
# 4 0.000000 0.000000 0.000000 -0.048769 0.000000 0.000000
# 5 0.000000 0.000000 0.000000 0.000000 0.037494 0.000000
# 6 0.000000 0.000000 0.000000 0.000000 0.000000 0.023152
#
#
# Mechanical properties :
#
#
# Convention : Reuss Voigt Hill
#
# Bulk Modulus (GPa) = 23.80607 46.52911 35.16759
# Shear Modulus (GPa) = 31.02078 18.85655 24.93866
#
# Velocity S-wave (km/s) = 3.96100 3.08823 3.55153
# Velocity P-wave (km/s) = 5.74107 6.02076 5.88258
#
# Compressibility (1/GPa) = 0.04200610
#
# Stress axis : x y z
#
# Youngs Moduli (GPa) = 72.18354 70.80434 16.48040
#
# Poissons Ratio (x) = 0.30410 0.19222
# Poissons Ratio (y) = 0.31002 0.12140
# Poissons Ratio (z) = 0.84190 0.52156
#
# Static dielectric constant tensor:
#      x y z
#    x 1.740800 0.000000 0.000000 
#    y 0.000000 1.704310 0.000000 
#    z 0.000000 0.000000 1.718740 
# 
# From -- ./inp_files/32814.got.cif
#   From: 2010.05.17/outbox.cif.g08.bks.cpg/sg21_17_cif.got.tgz:32814.got - 2010.06.03 23:14:55.
