data_PCOD9322772
_publ_section_title
;
Structure prediction by ZEFSAII (Michael W. Deem and Ramdas Pophale) SiO2 
 PCOD9322772
Probable space group: C 2 2 2
;
_chemical_formula_sum "Si O2"
_cell_formula_units_Z 48
_cell_length_a 15.427632
_cell_length_b 8.149320
_cell_length_c 19.705222
_cell_angle_alpha 90.000000
_cell_angle_beta 90.000000
_cell_angle_gamma 90.000000
_cell_volume 2477.433322
_symmetry_space_group_name_H-M "C 2 2 2"
_symmetry_group_IT_number 21
_symmetry_cell_setting 'orthorhombic'
loop_
_space_group_symop_operation_xyz
x,y,z
-x,-y,z
x,-y,-z
-x,y,-z
1/2+x,1/2+y,z
1/2-x,1/2-y,z
1/2+x,1/2-y,-z
1/2-x,1/2+y,-z
loop_
_atom_site_type_symbol
_atom_site_label
_atom_site_fract_x
_atom_site_fract_y
_atom_site_fract_z
Si Si1 0.000000 0.701032 0.742446
Si Si2 0.601763 0.199316 0.500000
Si Si3 0.351425 0.305475 1.000000
Si Si4 0.500000 0.196634 0.102430
Si Si5 0.656380 0.197604 0.647531
Si Si6 0.656380 0.802396 0.647532
O O1 0.082891 0.754537 0.699085
O O2 0.000000 0.500000 0.743612
O O3 0.000000 0.756504 0.820048
O O4 0.917109 0.754537 0.699085
O O5 0.500000 0.237565 0.500000
O O6 0.641820 0.260055 0.570513
O O7 0.641821 0.260055 0.429487
O O8 0.609092 0.000000 0.500000
O O9 0.250000 0.250000 1.000000
O O10 0.412253 0.249992 0.063270
O O11 0.349273 0.500000 0.000000
O O12 0.412253 0.249992 0.936730
O O13 0.500000 0.000000 0.101986
O O14 0.750000 0.250000 0.671699
O O15 0.650805 1.000000 0.644561
O O16 0.750000 0.750000 0.671700
#
# Coordination Sequence:
#
# PCOD9322772 Si02
#       6
#     8   8   8   8   8   8
#     4   9  19  35  55  77 108 145 180 214 260 325
#     4   9  15  28  53  74  95 136 185 225 264 318
#     4  11  22  39  62  88 114 145 182 223 268 322
#     4  10  20  37  59  86 116 147 182 225 272 325
#     4  10  19  33  52  76 103 138 182 225 269 317
#     4  10  19  33  52  76 103 138 182 225 269 317
#
# _framework density 19.374891999999999
#
# number of rings (size 3 to 8) (size 9 to 14) (size 15 to 20)
#    0.000    2.167    1.667    3.500    0.000    1.333 
#    0.000    7.500    0.000    1.000    0.000    0.000 
#    0.000    0.000    0.000    0.000    0.000    0.000 
#
# Total GULP energy -133890.894552 kJ/mol
# GULP energy per Si atom -5578.787273 kJ/mol
# Density = 1.933079 g / cm^3
# Si number density = 19.374892 Si / 1000 Ang^3
#
#
#
# Elastic Constant Matrix: (Units=GPa)
#
#
# Indices 1 2 3 4 5 6 
#
# 1 208.2571 21.0484 110.5520 0.0000 0.0000 0.0000
# 2 21.0484 41.5879 23.6012 0.0000 0.0000 0.0000
# 3 110.5520 23.6012 184.8752 0.0000 0.0000 0.0000
# 4 0.0000 0.0000 0.0000 -3.8458 0.0000 0.0000
# 5 0.0000 0.0000 0.0000 0.0000 -33.2749 0.0000
# 6 0.0000 0.0000 0.0000 0.0000 0.0000 28.4460
#
#
#
# Elastic Compliance Matrix: (Units=1/GPa)
#
#
# Indices 1 2 3 4 5 6 
#
# 1 0.007097 -0.001276 -0.004081 0.000000 0.000000 0.000000
# 2 -0.001276 0.026153 -0.002576 0.000000 0.000000 0.000000
# 3 -0.004081 -0.002576 0.008178 0.000000 0.000000 0.000000
# 4 0.000000 0.000000 0.000000 -0.260023 0.000000 0.000000
# 5 0.000000 0.000000 0.000000 0.000000 -0.030053 0.000000
# 6 0.000000 0.000000 0.000000 0.000000 0.000000 0.035154
#
#
# Mechanical properties :
#
#
# Convention : Reuss Voigt Hill
#
# Bulk Modulus (GPa) = 39.11918 82.79151 60.95534
# Shear Modulus (GPa) = -26.44007 16.89964 -4.77021
#
# Velocity S-wave (km/s) = -3.69813 2.95658 -1.57080
# Velocity P-wave (km/s) = 1.41406 7.38101 5.31408
#
# Compressibility (1/GPa) = 0.02556291
#
# Stress axis : x y z
#
# Youngs Moduli (GPa) = 140.90212 38.23660 122.27532
#
# Poissons Ratio (x) = 0.04879 0.49901
# Poissons Ratio (y) = 0.17979 0.31494
# Poissons Ratio (z) = 0.57503 0.09849
#
# Static dielectric constant tensor:
#      x y z
#    x 1.666490 0.000000 0.000000 
#    y 0.000000 1.680400 0.000000 
#    z 0.000000 0.000000 1.691250 
# 
# From -- ./inp_files/36644.got.cif
#   From: 2010.05.17/outbox.cif.g08.bks.cpg/sg21_19_cif.got.tgz:36644.got - 2010.06.03 23:14:55.
