data_PCOD9322510
_publ_section_title
;
Structure prediction by ZEFSAII (Michael W. Deem and Ramdas Pophale) SiO2 
 PCOD9322510
Probable space group: C 2 2 2
;
_chemical_formula_sum "Si O2"
_cell_formula_units_Z 56
_cell_length_a 10.653538
_cell_length_b 11.086923
_cell_length_c 22.690369
_cell_angle_alpha 90.000000
_cell_angle_beta 90.000000
_cell_angle_gamma 90.000000
_cell_volume 2680.071924
_symmetry_space_group_name_H-M "C 2 2 2"
_symmetry_group_IT_number 21
_symmetry_cell_setting 'orthorhombic'
loop_
_space_group_symop_operation_xyz
x,y,z
-x,-y,z
x,-y,-z
-x,y,-z
1/2+x,1/2+y,z
1/2-x,1/2-y,z
1/2+x,1/2-y,-z
1/2-x,1/2+y,-z
loop_
_atom_site_type_symbol
_atom_site_label
_atom_site_fract_x
_atom_site_fract_y
_atom_site_fract_z
Si Si1 0.500143 0.293416 0.067981
Si Si2 0.900442 0.589992 0.844077
Si Si3 0.917013 0.207461 0.445174
Si Si4 0.135352 0.462398 0.615676
Si Si5 0.101646 0.913501 0.328124
Si Si6 0.794911 0.008925 0.933036
Si Si7 0.241791 0.500000 0.500000
Si Si8 0.750000 0.250000 0.245261
O O1 0.533017 0.192686 0.115788
O O2 0.370970 0.367261 0.076565
O O3 0.607143 0.397311 0.072261
O O4 0.500000 0.247924 0.000000
O O5 0.815407 0.511932 0.888004
O O6 0.811131 0.650423 0.796343
O O7 0.000000 0.500000 0.815905
O O8 0.870762 0.326150 0.410417
O O9 0.964165 0.130474 0.389008
O O10 0.000000 0.247906 0.500000
O O11 0.826457 0.111151 0.478104
O O12 0.261581 0.469561 0.654652
O O13 0.160584 0.538971 0.556302
O O14 0.000000 0.500000 0.640989
O O15 0.141246 0.804645 0.286110
O O16 0.000000 0.000000 0.298741
O O17 0.748026 0.000000 0.000000
#
# Coordination Sequence:
#
# PCOD9322510 Si02
#       8
#     8   8   8   8   8   8   4   4
#     4   9  19  38  64  98 142 180 224 280 348 419
#     4  12  26  41  69 102 135 185 233 287 355 416
#     4  11  20  37  66 102 142 172 232 287 353 431
#     4  11  22  38  64 102 144 173 220 289 362 414
#     4  11  24  47  74  96 129 192 238 292 353 427
#     4   9  19  38  64  98 141 182 221 281 349 416
#     4  10  18  32  54  96 135 186 213 264 345 430
#     4  12  26  52  68  96 140 190 250 292 344 430
#
# _framework density 20.894960999999999
#
# number of rings (size 3 to 8) (size 9 to 14) (size 15 to 20)
#    0.000    1.429    2.857    5.143    2.000    2.286 
#    0.000    2.143    0.000    0.000    0.000    0.000 
#    0.000    0.000    0.000    0.000    0.000    0.000 
#
# Total GULP energy -156222.476081 kJ/mol
# GULP energy per Si atom -5579.374146 kJ/mol
# Density = 2.084740 g / cm^3
# Si number density = 20.894961 Si / 1000 Ang^3
#
#
#
# Elastic Constant Matrix: (Units=GPa)
#
#
# Indices 1 2 3 4 5 6 
#
# 1 78.4097 31.1437 20.9907 0.0000 0.0000 0.0000
# 2 31.1437 76.5264 19.9226 0.0000 0.0000 0.0000
# 3 20.9907 19.9226 64.7920 0.0000 0.0000 0.0000
# 4 0.0000 0.0000 0.0000 4464.0164 0.0000 0.0000
# 5 0.0000 0.0000 0.0000 0.0000 21.6125 0.0000
# 6 0.0000 0.0000 0.0000 0.0000 0.0000 30.8376
#
#
#
# Elastic Compliance Matrix: (Units=1/GPa)
#
#
# Indices 1 2 3 4 5 6 
#
# 1 0.015885 -0.005571 -0.003433 0.000000 0.000000 0.000000
# 2 -0.005571 0.016158 -0.003164 0.000000 0.000000 0.000000
# 3 -0.003433 -0.003164 0.017519 0.000000 0.000000 0.000000
# 4 0.000000 0.000000 0.000000 0.000224 0.000000 0.000000
# 5 0.000000 0.000000 0.000000 0.000000 0.046269 0.000000
# 6 0.000000 0.000000 0.000000 0.000000 0.000000 0.032428
#
#
# Mechanical properties :
#
#
# Convention : Reuss Voigt Hill
#
# Bulk Modulus (GPa) = 39.64049 40.42691 40.03370
# Shear Modulus (GPa) = 31.01179 913.13805 472.07492
#
# Velocity S-wave (km/s) = 3.85668 20.92755 15.04720
# Velocity P-wave (km/s) = 6.23253 24.56297 17.91904
#
# Compressibility (1/GPa) = 0.02522673
#
# Stress axis : x y z
#
# Youngs Moduli (GPa) = 62.95078 61.88811 57.08062
#
# Poissons Ratio (x) = 0.34478 0.19598
# Poissons Ratio (y) = 0.35070 0.18058
# Poissons Ratio (z) = 0.21614 0.19579
#
# Static dielectric constant tensor:
#      x y z
#    x 1.372580 0.000000 0.000000 
#    y 0.000000 1.784010 0.000000 
#    z 0.000000 0.000000 1.805250 
# 
# From -- ./inp_files/38643.got.cif
#   From: 2010.05.17/outbox.cif.g08.bks.cpg/sg21_20_cif.got.tgz:38643.got - 2010.06.03 23:14:55.
