data_PCOD9322397
_publ_section_title
;
Structure prediction by ZEFSAII (Michael W. Deem and Ramdas Pophale) SiO2 
 PCOD9322397
Probable space group: C 2 2 2
;
_chemical_formula_sum "Si O2"
_cell_formula_units_Z 58
_cell_length_a 8.183797
_cell_length_b 27.815877
_cell_length_c 12.372341
_cell_angle_alpha 90.000000
_cell_angle_beta 90.000000
_cell_angle_gamma 90.000000
_cell_volume 2816.433405
_symmetry_space_group_name_H-M "C 2 2 2"
_symmetry_group_IT_number 21
_symmetry_cell_setting 'orthorhombic'
loop_
_space_group_symop_operation_xyz
x,y,z
-x,-y,z
x,-y,-z
-x,y,-z
1/2+x,1/2+y,z
1/2-x,1/2-y,z
1/2+x,1/2-y,-z
1/2-x,1/2+y,-z
loop_
_atom_site_type_symbol
_atom_site_label
_atom_site_fract_x
_atom_site_fract_y
_atom_site_fract_z
Si Si1 0.177084 0.027514 0.596842
Si Si2 0.000000 0.000000 0.000000
Si Si3 0.946047 0.142048 0.750857
Si Si4 0.322462 0.370100 0.474387
Si Si5 0.245466 0.305956 0.647041
Si Si6 0.195871 0.061447 0.825293
Si Si7 0.760106 0.307446 0.932726
Si Si8 0.111655 0.655307 0.141174
O O1 0.169768 0.080564 0.543370
O O2 0.244486 0.031340 0.718000
O O3 0.268806 0.000000 0.500000
O O4 0.000000 0.000000 0.607732
O O5 0.880110 0.969049 0.922617
O O6 0.818344 0.127923 0.654955
O O7 0.867767 0.166321 0.855374
O O8 0.082008 0.177385 0.700521
O O9 0.045738 0.094574 0.783227
O O10 0.500000 0.347983 0.500000
O O11 0.204751 0.334765 0.537870
O O12 0.250000 0.250000 0.627824
O O13 0.123676 0.322643 0.740210
O O14 0.338220 0.099116 0.856637
O O15 0.750000 0.250000 0.919145
O O16 0.933021 0.330389 0.898228
O O17 0.756437 0.320082 0.059975
#
# Coordination Sequence:
#
# PCOD9322397 Si02
#       8
#     8   2   8   8   8   8   8   8
#     4  11  16  30  59  90 117 149 205 255 313 358
#     4  12  24  32  58 106 120 152 228 264 312 372
#     4  10  20  36  58  83 120 157 205 250 303 364
#     4  10  17  32  53  87 119 155 196 248 313 359
#     4  10  19  33  56  81 119 158 196 252 307 365
#     4  11  21  37  59  91 125 157 201 272 312 366
#     4  11  23  38  61  85 113 166 213 241 295 380
#     4  10  22  40  56  82 127 158 198 256 320 360
#
# _framework density 20.593420999999999
#
# number of rings (size 3 to 8) (size 9 to 14) (size 15 to 20)
#    0.000    1.517    6.207    2.069    0.000    5.517 
#    0.000    2.069    0.000    6.621    0.000    3.862 
#    0.000    0.000    0.000    0.000    0.000    0.000 
#
# Total GULP energy -161533.991405 kJ/mol
# GULP energy per Si atom -5570.137635 kJ/mol
# Density = 2.054655 g / cm^3
# Si number density = 20.593421 Si / 1000 Ang^3
#
#
#
# Elastic Constant Matrix: (Units=GPa)
#
#
# Indices 1 2 3 4 5 6 
#
# 1 42.4363 18.6625 22.5381 0.0000 0.0000 0.0000
# 2 18.6625 113.4101 45.2529 0.0000 0.0000 0.0000
# 3 22.5381 45.2529 105.3603 0.0000 0.0000 0.0000
# 4 0.0000 0.0000 0.0000 7.4989 0.0000 0.0000
# 5 0.0000 0.0000 0.0000 0.0000 1.3932 0.0000
# 6 0.0000 0.0000 0.0000 0.0000 0.0000 0.0825
#
#
#
# Elastic Compliance Matrix: (Units=1/GPa)
#
#
# Indices 1 2 3 4 5 6 
#
# 1 0.027206 -0.002600 -0.004703 0.000000 0.000000 0.000000
# 2 -0.002600 0.010890 -0.004121 0.000000 0.000000 0.000000
# 3 -0.004703 -0.004121 0.012267 0.000000 0.000000 0.000000
# 4 0.000000 0.000000 0.000000 0.133353 0.000000 0.000000
# 5 0.000000 0.000000 0.000000 0.000000 0.717774 0.000000
# 6 0.000000 0.000000 0.000000 0.000000 0.000000 12.123091
#
#
# Mechanical properties :
#
#
# Convention : Reuss Voigt Hill
#
# Bulk Modulus (GPa) = 36.34437 48.23485 42.28961
# Shear Modulus (GPa) = 0.38295 13.44513 6.91404
#
# Velocity S-wave (km/s) = 0.43169 2.55793 1.83431
# Velocity P-wave (km/s) = 4.23501 5.67427 5.00663
#
# Compressibility (1/GPa) = 0.02751458
#
# Stress axis : x y z
#
# Youngs Moduli (GPa) = 36.75652 91.82874 81.51784
#
# Poissons Ratio (x) = 0.23879 0.38337
# Poissons Ratio (y) = 0.09558 0.33593
# Poissons Ratio (z) = 0.17286 0.37843
#
# Static dielectric constant tensor:
#      x y z
#    x 1.791880 0.000000 0.000000 
#    y 0.000000 1.762380 0.000000 
#    z 0.000000 0.000000 1.872850 
# 
# From -- ./inp_files/22987.got.cif
#   From: 2010.05.17/outbox.cif.g08.bks.cpg/sg21_12_cif.got.tgz:22987.got - 2010.06.03 23:14:55.
