data_PCOD9322628
_publ_section_title
;
Structure prediction by ZEFSAII (Michael W. Deem and Ramdas Pophale) SiO2 
 PCOD9322628
Probable space group: C 2 2 2
;
_chemical_formula_sum "Si O2"
_cell_formula_units_Z 52
_cell_length_a 8.167337
_cell_length_b 24.737046
_cell_length_c 10.852896
_cell_angle_alpha 90.000000
_cell_angle_beta 90.000000
_cell_angle_gamma 90.000000
_cell_volume 2192.673429
_symmetry_space_group_name_H-M "C 2 2 2"
_symmetry_group_IT_number 21
_symmetry_cell_setting 'orthorhombic'
loop_
_space_group_symop_operation_xyz
x,y,z
-x,-y,z
x,-y,-z
-x,y,-z
1/2+x,1/2+y,z
1/2-x,1/2-y,z
1/2+x,1/2-y,-z
1/2-x,1/2+y,-z
loop_
_atom_site_type_symbol
_atom_site_label
_atom_site_fract_x
_atom_site_fract_y
_atom_site_fract_z
Si Si1 0.526386 0.719076 0.209777
Si Si2 0.171756 0.434316 0.072547
Si Si3 0.899515 0.052436 0.699521
Si Si4 0.250000 0.750000 0.405581
Si Si5 0.761202 0.343745 0.603969
Si Si6 0.508656 0.163887 0.802083
Si Si7 0.349055 0.619180 0.138190
O O1 0.400203 0.738897 0.315571
O O2 0.666206 0.690200 0.289213
O O3 0.551507 0.776758 0.148074
O O4 0.449625 0.674296 0.122642
O O5 0.261103 0.461836 0.192633
O O6 0.124190 0.376436 0.124577
O O7 0.309216 0.422519 0.971009
O O8 0.000000 0.449738 0.000000
O O9 0.814835 0.095596 0.604861
O O10 0.042546 0.087242 0.763785
O O11 0.000000 0.000000 0.653467
O O12 0.244873 0.696075 0.488697
O O13 0.942209 0.345489 0.659836
O O14 0.326030 0.142366 0.819282
#
# Coordination Sequence:
#
# PCOD9322628 Si02
#       7
#     8   8   8   4   8   8   8
#     4  11  20  34  56  88 126 162 206 261 328 394
#     4   9  20  37  58  84 123 166 218 258 320 393
#     4  10  22  42  63  87 126 168 217 280 326 382
#     4  12  20  34  64  92 122 158 218 266 332 420
#     4  10  22  35  58  90 123 161 211 268 340 400
#     4  10  18  37  52  83 128 161 202 262 317 395
#     4  10  20  35  55  85 122 165 213 259 314 387
#
# _framework density 23.715342
#
# number of rings (size 3 to 8) (size 9 to 14) (size 15 to 20)
#    0.000    1.846    3.077    0.923    0.000    1.231 
#    0.000   35.385    0.000    7.385    0.000    0.000 
#   27.692    0.000    0.000    0.000    0.000    0.000 
#
# Total GULP energy -144963.057590 kJ/mol
# GULP energy per Si atom -5575.502215 kJ/mol
# Density = 2.366136 g / cm^3
# Si number density = 23.715342 Si / 1000 Ang^3
#
#
#
# Elastic Constant Matrix: (Units=GPa)
#
#
# Indices 1 2 3 4 5 6 
#
# 1 78.0359 15.7372 19.0704 0.0000 0.0000 0.0000
# 2 15.7372 148.2252 35.7572 0.0000 0.0000 0.0000
# 3 19.0704 35.7572 55.3715 0.0000 0.0000 0.0000
# 4 0.0000 0.0000 0.0000 17.1779 0.0000 0.0000
# 5 0.0000 0.0000 0.0000 0.0000 23.7706 0.0000
# 6 0.0000 0.0000 0.0000 0.0000 0.0000 -87.1990
#
#
#
# Elastic Compliance Matrix: (Units=1/GPa)
#
#
# Indices 1 2 3 4 5 6 
#
# 1 0.014011 -0.000383 -0.004578 0.000000 0.000000 0.000000
# 2 -0.000383 0.008002 -0.005035 0.000000 0.000000 0.000000
# 3 -0.004578 -0.005035 0.022888 0.000000 0.000000 0.000000
# 4 0.000000 0.000000 0.000000 0.058214 0.000000 0.000000
# 5 0.000000 0.000000 0.000000 0.000000 0.042069 0.000000
# 6 0.000000 0.000000 0.000000 0.000000 0.000000 -0.011468
#
#
# Mechanical properties :
#
#
# Convention : Reuss Voigt Hill
#
# Bulk Modulus (GPa) = 40.14819 46.97359 43.56089
# Shear Modulus (GPa) = 30.86199 4.82108 17.84154
#
# Velocity S-wave (km/s) = 3.61134 1.42734 2.74582
# Velocity P-wave (km/s) = 5.86131 4.75044 5.33487
#
# Compressibility (1/GPa) = 0.02490772
#
# Stress axis : x y z
#
# Youngs Moduli (GPa) = 71.37430 124.97034 43.69053
#
# Poissons Ratio (x) = 0.04788 0.20001
# Poissons Ratio (y) = 0.02735 0.22000
# Poissons Ratio (z) = 0.32675 0.62928
#
# Static dielectric constant tensor:
#      x y z
#    x 1.968300 0.000000 0.000000 
#    y 0.000000 2.039690 0.000000 
#    z 0.000000 0.000000 2.060950 
# 
# From -- ./inp_files/22959.got.cif
#   From: 2010.05.17/outbox.cif.g08.bks.cpg/sg21_12_cif.got.tgz:22959.got - 2010.06.03 23:14:55.
