data_PCOD9322213
_publ_section_title
;
Structure prediction by ZEFSAII (Michael W. Deem and Ramdas Pophale) SiO2 
 PCOD9322213
Probable space group: C 2 2 21
;
_chemical_formula_sum "Si O2"
_cell_formula_units_Z 32
_cell_length_a 9.000000
_cell_length_b 12.000000
_cell_length_c 30.000000
_cell_angle_alpha 90.000000
_cell_angle_beta 90.000000
_cell_angle_gamma 90.000000
_cell_volume 3240.000000
_symmetry_space_group_name_H-M "C 2 2 21"
_symmetry_group_IT_number 20
_symmetry_cell_setting 'orthorhombic'
loop_
_space_group_symop_operation_xyz
x,y,z
-x,-y,1/2+z
x,-y,-z
-x,y,1/2-z
1/2+x,1/2+y,z
1/2-x,1/2-y,1/2+z
1/2+x,1/2-y,-z
1/2-x,1/2+y,1/2-z
loop_
_atom_site_type_symbol
_atom_site_label
_atom_site_fract_x
_atom_site_fract_y
_atom_site_fract_z
Si Si1 0.579174 0.709132 0.702251
Si Si2 0.659305 0.498481 0.914078
Si Si3 0.082608 0.960513 0.663986
Si Si4 0.153664 0.316601 0.868283
Si Si5 0.842917 0.251251 0.451960
Si Si6 0.011304 0.778651 0.046994
Si Si7 0.075793 0.640918 0.618177
Si Si8 0.066759 0.263072 0.202400
O O1 0.500000 0.722618 0.750000
O O2 0.587079 0.577465 0.690037
O O3 0.468891 0.772948 0.667460
O O4 0.752948 0.748085 0.702010
O O5 0.537499 0.480969 0.875163
O O6 0.664142 0.380002 0.938940
O O7 0.591221 0.602573 0.941936
O O8 0.824924 0.533946 0.896513
O O9 0.248176 0.924200 0.646559
O O10 0.012541 0.855636 0.690856
O O11 0.065858 0.308986 0.915127
O O12 0.289374 0.229202 0.875175
O O13 0.923275 0.260044 0.499729
O O14 0.669141 0.289929 0.452430
O O15 0.952556 0.316510 0.417528
O O16 0.988125 0.648353 0.665035
O O17 0.000000 0.297804 0.250000
#
# Coordination Sequence:
#
# PCOD9322213 Si02
#       8
#     8   8   8   8   8   8   8   8
#     4  12  24  42  68  95 131 172 219 270 325 390
#     4  11  23  42  69  92 130 171 215 263 333 385
#     4  11  23  42  69  91 130 172 211 264 335 383
#     4  10  21  42  65  96 128 169 214 269 320 395
#     4  12  24  44  66  95 134 173 212 281 317 392
#     4  11  24  42  67  96 131 169 223 260 333 385
#     4  10  21  42  67  94 129 170 217 263 330 389
#     4  11  24  44  65  96 134 169 219 273 323 391
#
# _framework density 9.8765429999999999
#
# number of rings (size 3 to 8) (size 9 to 14) (size 15 to 20)
#    0.000    1.000    5.000    4.500    0.000    1.000 
#    0.000    0.625    0.000    0.000    0.000    0.000 
#    0.000    0.000    0.000    0.000    0.000    0.000 
#
# Total GULP energy -178675.779692 kJ/mol
# GULP energy per Si atom -5583.618115 kJ/mol
# Density = 0.985406 g / cm^3
# Si number density = 9.876543 Si / 1000 Ang^3
#
#
#
# Elastic Constant Matrix: (Units=GPa)
#
#
# Indices 1 2 3 4 5 6 
#
# 1 198.3547 27.8087 78.5903 0.0000 0.0000 0.0000
# 2 27.8087 69.7316 34.6867 0.0000 0.0000 0.0000
# 3 78.5903 34.6867 180.5464 0.0000 0.0000 0.0000
# 4 0.0000 0.0000 0.0000 12.6610 0.0000 0.0000
# 5 0.0000 0.0000 0.0000 0.0000 42.9209 0.0000
# 6 0.0000 0.0000 0.0000 0.0000 0.0000 42.3607
#
#
#
# Elastic Compliance Matrix: (Units=1/GPa)
#
#
# Indices 1 2 3 4 5 6 
#
# 1 0.006189 -0.001247 -0.002454 0.000000 0.000000 0.000000
# 2 -0.001247 0.016107 -0.002552 0.000000 0.000000 0.000000
# 3 -0.002454 -0.002552 0.007097 0.000000 0.000000 0.000000
# 4 0.000000 0.000000 0.000000 0.078983 0.000000 0.000000
# 5 0.000000 0.000000 0.000000 0.000000 0.023299 0.000000
# 6 0.000000 0.000000 0.000000 0.000000 0.000000 0.023607
#
#
# Mechanical properties :
#
#
# Convention : Reuss Voigt Hill
#
# Bulk Modulus (GPa) = 59.21686 81.20047 70.20866
# Shear Modulus (GPa) = 28.83227 40.09165 34.46196
#
# Velocity S-wave (km/s) = 3.82466 4.51004 4.18142
# Velocity P-wave (km/s) = 7.03901 8.26545 7.67676
#
# Compressibility (1/GPa) = 0.01688708
#
# Stress axis : x y z
#
# Youngs Moduli (GPa) = 161.58363 62.08349 140.89861
#
# Poissons Ratio (x) = 0.07743 0.34581
# Poissons Ratio (y) = 0.20153 0.35952
# Poissons Ratio (z) = 0.39657 0.15842
#
# Static dielectric constant tensor:
#      x y z
#    x 1.668930 0.000000 0.000000 
#    y 0.000000 1.735140 0.000000 
#    z 0.000000 0.000000 1.734330 
# 
# From -- ./inp_files/31076.got.cif
#   From: 2010.05.17/outbox.ucp.g08.bks.cvg/sg20_16_cif.got.tgz:31076.got - 2010.06.11 15:13:06.
