data_PCOD9322965
_publ_section_title
;
Structure prediction by ZEFSAII (Michael W. Deem and Ramdas Pophale) SiO2 
 PCOD9322965
Probable space group: C 2 2 2
;
_chemical_formula_sum "Si O2"
_cell_formula_units_Z 64
_cell_length_a 19.723050
_cell_length_b 18.639842
_cell_length_c 8.253613
_cell_angle_alpha 90.000000
_cell_angle_beta 90.000000
_cell_angle_gamma 90.000000
_cell_volume 3034.313184
_symmetry_space_group_name_H-M "C 2 2 2"
_symmetry_group_IT_number 21
_symmetry_cell_setting 'orthorhombic'
loop_
_space_group_symop_operation_xyz
x,y,z
-x,-y,z
x,-y,-z
-x,y,-z
1/2+x,1/2+y,z
1/2-x,1/2-y,z
1/2+x,1/2-y,-z
1/2-x,1/2+y,-z
loop_
_atom_site_type_symbol
_atom_site_label
_atom_site_fract_x
_atom_site_fract_y
_atom_site_fract_z
Si Si1 0.755403 0.476393 0.314883
Si Si2 0.085265 0.612349 0.115417
Si Si3 0.578197 0.829056 0.434752
Si Si4 0.109007 0.010872 0.302260
Si Si5 0.300716 0.817913 0.302477
Si Si6 0.603766 0.035774 0.773572
Si Si7 0.992305 0.253815 0.819465
Si Si8 0.506272 0.608439 0.690387
O O1 0.764387 0.500000 0.500000
O O2 0.685175 0.504871 0.245032
O O3 0.757165 0.390199 0.327099
O O4 0.817750 0.511443 0.219801
O O5 0.154613 0.656417 0.147386
O O6 0.071404 0.543682 0.230959
O O7 0.030913 0.671847 0.158080
O O8 0.084740 0.577490 0.938192
O O9 0.500000 0.823101 0.500000
O O10 0.639562 0.810751 0.559206
O O11 0.590803 0.909897 0.372173
O O12 0.575861 0.776357 0.276689
O O13 0.068042 0.082279 0.252675
O O14 0.113523 0.000000 0.500000
O O15 0.062761 0.944970 0.243274
O O16 0.250000 0.750000 0.291782
O O17 0.024115 0.190485 0.714945
O O18 0.000000 0.222218 0.000000
O O19 0.500000 0.595095 0.500000
#
# Coordination Sequence:
#
# PCOD9322965 Si02
#       8
#     8   8   8   8   8   8   8   8
#     4  10  19  36  64  93 126 168 221 268 317 390
#     4  10  23  44  65  88 129 176 213 269 329 397
#     4  12  24  42  66  96 128 169 218 274 332 390
#     4   8  17  35  64  94 123 167 216 271 328 376
#     4  11  25  42  65 100 133 171 216 278 336 388
#     4  10  22  44  63  91 130 168 224 269 321 396
#     4  12  24  40  60  93 132 170 212 265 337 394
#     4   9  19  37  63  95 126 163 218 273 325 388
#
# _framework density 21.092086999999999
#
# number of rings (size 3 to 8) (size 9 to 14) (size 15 to 20)
#    0.000    1.750    3.750    1.125    1.750    2.500 
#    4.500    3.125    5.500    0.000    0.000    0.000 
#    0.000    0.000    0.000    0.000    0.000    0.000 
#
# Total GULP energy -178226.717358 kJ/mol
# GULP energy per Si atom -5569.584917 kJ/mol
# Density = 2.104408 g / cm^3
# Si number density = 21.092087 Si / 1000 Ang^3
#
#
#
# Elastic Constant Matrix: (Units=GPa)
#
#
# Indices 1 2 3 4 5 6 
#
# 1 89.1920 45.7950 7.9131 0.0000 0.0000 0.0000
# 2 45.7950 130.6196 10.7527 0.0000 0.0000 0.0000
# 3 7.9131 10.7527 32.2447 0.0000 0.0000 0.0000
# 4 0.0000 0.0000 0.0000 23.8221 0.0000 0.0000
# 5 0.0000 0.0000 0.0000 0.0000 10.2649 0.0000
# 6 0.0000 0.0000 0.0000 0.0000 0.0000 32.4149
#
#
#
# Elastic Compliance Matrix: (Units=1/GPa)
#
#
# Indices 1 2 3 4 5 6 
#
# 1 0.013776 -0.004680 -0.001820 0.000000 0.000000 0.000000
# 2 -0.004680 0.009462 -0.002007 0.000000 0.000000 0.000000
# 3 -0.001820 -0.002007 0.032129 0.000000 0.000000 0.000000
# 4 0.000000 0.000000 0.000000 0.041978 0.000000 0.000000
# 5 0.000000 0.000000 0.000000 0.000000 0.097419 0.000000
# 6 0.000000 0.000000 0.000000 0.000000 0.000000 0.030850
#
#
# Mechanical properties :
#
#
# Convention : Reuss Voigt Hill
#
# Bulk Modulus (GPa) = 26.07362 42.33087 34.20224
# Shear Modulus (GPa) = 19.57622 25.80676 22.69149
#
# Velocity S-wave (km/s) = 3.04983 3.50169 3.28354
# Velocity P-wave (km/s) = 4.97901 6.03840 5.53411
#
# Compressibility (1/GPa) = 0.03835294
#
# Stress axis : x y z
#
# Youngs Moduli (GPa) = 72.58896 105.68776 31.12478
#
# Poissons Ratio (x) = 0.49463 0.05665
# Poissons Ratio (y) = 0.33972 0.06246
# Poissons Ratio (z) = 0.13212 0.21209
#
# Static dielectric constant tensor:
#      x y z
#    x 1.831140 0.000000 0.000000 
#    y 0.000000 1.728700 0.000000 
#    z 0.000000 0.000000 1.900880 
# 
# From -- ./inp_files/17869.got.cif
#   From: 2010.05.17/outbox.cif.g08.bks.cpg/sg21_9_cif.got.tgz:17869.got - 2010.06.03 23:14:55.
