data_PCOD9322209
_publ_section_title
;
Structure prediction by ZEFSAII (Michael W. Deem and Ramdas Pophale) SiO2 
 PCOD9322209
Probable space group: C 2 2 21
;
_chemical_formula_sum "Si O2"
_cell_formula_units_Z 20
_cell_length_a 27.000000
_cell_length_b 12.000000
_cell_length_c 6.000000
_cell_angle_alpha 90.000000
_cell_angle_beta 90.000000
_cell_angle_gamma 90.000000
_cell_volume 1944.000000
_symmetry_space_group_name_H-M "C 2 2 21"
_symmetry_group_IT_number 20
_symmetry_cell_setting 'orthorhombic'
loop_
_space_group_symop_operation_xyz
x,y,z
-x,-y,1/2+z
x,-y,-z
-x,y,1/2-z
1/2+x,1/2+y,z
1/2-x,1/2-y,1/2+z
1/2+x,1/2-y,-z
1/2-x,1/2+y,1/2-z
loop_
_atom_site_type_symbol
_atom_site_label
_atom_site_fract_x
_atom_site_fract_y
_atom_site_fract_z
Si Si1 0.300740 0.880118 0.886944
Si Si2 0.372500 0.235875 0.392155
Si Si3 0.693073 0.330548 0.721094
Si Si4 0.391782 0.479159 0.238017
Si Si5 0.024266 0.634119 0.998142
O O1 0.350157 0.867063 0.742160
O O2 0.248595 0.873340 0.758201
O O3 0.303288 0.768106 0.039058
O O4 0.301494 0.000000 0.000000
O O5 0.329815 0.269070 0.564754
O O6 0.380434 0.347575 0.246561
O O7 0.423837 0.199657 0.501105
O O8 0.655571 0.437196 0.706819
O O9 0.409655 0.500000 0.500000
O O10 0.420421 0.500000 0.000000
O O11 0.000000 0.659651 0.750000
O O12 0.030350 0.500000 0.000000
O O13 0.000000 0.660256 0.250000
#
# Coordination Sequence:
#
# PCOD9322209 Si02
#       5
#     8   8   8   8   8
#     4  12  25  38  63 101 141 192 246 290 343 425
#     4  11  24  42  68  97 134 187 234 293 349 436
#     4  11  24  42  61  95 146 187 232 285 350 411
#     4  10  21  40  66  91 131 184 225 270 342 403
#     4  10  25  46  71 102 140 181 229 300 375 426
#
# _framework density 10.288066000000001
#
# number of rings (size 3 to 8) (size 9 to 14) (size 15 to 20)
#    0.000    1.200    4.000    1.800    5.600    0.800 
#    0.000    0.000    0.000   14.400    0.000    0.000 
#    0.000    0.000    0.000    0.000    0.000    0.000 
#
# Total GULP energy -111339.426556 kJ/mol
# GULP energy per Si atom -5566.971328 kJ/mol
# Density = 1.026465 g / cm^3
# Si number density = 10.288066 Si / 1000 Ang^3
#
#
#
# Elastic Constant Matrix: (Units=GPa)
#
#
# Indices 1 2 3 4 5 6 
#
# 1 65.7435 39.3375 28.6901 0.0000 0.0000 0.0000
# 2 39.3375 93.5047 19.6490 0.0000 0.0000 0.0000
# 3 28.6901 19.6490 116.1149 0.0000 0.0000 0.0000
# 4 0.0000 0.0000 0.0000 -12.4386 0.0000 0.0000
# 5 0.0000 0.0000 0.0000 0.0000 29.3393 0.0000
# 6 0.0000 0.0000 0.0000 0.0000 0.0000 8.8969
#
#
#
# Elastic Compliance Matrix: (Units=1/GPa)
#
#
# Indices 1 2 3 4 5 6 
#
# 1 0.021993 -0.008410 -0.004011 0.000000 0.000000 0.000000
# 2 -0.008410 0.014305 -0.000343 0.000000 0.000000 0.000000
# 3 -0.004011 -0.000343 0.009661 0.000000 0.000000 0.000000
# 4 0.000000 0.000000 0.000000 -0.080395 0.000000 0.000000
# 5 0.000000 0.000000 0.000000 0.000000 0.034084 0.000000
# 6 0.000000 0.000000 0.000000 0.000000 0.000000 0.112399
#
#
# Mechanical properties :
#
#
# Convention : Reuss Voigt Hill
#
# Bulk Modulus (GPa) = 48.94281 50.07960 49.51121
# Shear Modulus (GPa) = 34.62997 17.67195 26.15096
#
# Velocity S-wave (km/s) = 4.10691 2.93381 3.56889
# Velocity P-wave (km/s) = 6.80638 5.98897 6.41072
#
# Compressibility (1/GPa) = 0.02043201
#
# Stress axis : x y z
#
# Youngs Moduli (GPa) = 45.46940 69.90779 103.50656
#
# Poissons Ratio (x) = 0.58789 0.41517
# Poissons Ratio (y) = 0.38238 0.03548
# Poissons Ratio (z) = 0.18238 0.02396
#
# Static dielectric constant tensor:
#      x y z
#    x 1.698520 0.000000 0.000000 
#    y 0.000000 1.717300 0.000000 
#    z 0.000000 0.000000 1.877670 
# 
# From -- ./inp_files/4039.got.cif
#   From: 2010.05.17/outbox.ucp.g08.bks.cvg/sg20_3_cif.got.tgz:4039.got - 2010.06.11 15:13:06.
