data_PCOD9322410
_publ_section_title
;
Structure prediction by ZEFSAII (Michael W. Deem and Ramdas Pophale) SiO2 
 PCOD9322410
Probable space group: C 2 2 2
;
_chemical_formula_sum "Si O2"
_cell_formula_units_Z 42
_cell_length_a 10.776474
_cell_length_b 21.258020
_cell_length_c 6.880098
_cell_angle_alpha 90.000000
_cell_angle_beta 90.000000
_cell_angle_gamma 90.000000
_cell_volume 1576.137569
_symmetry_space_group_name_H-M "C 2 2 2"
_symmetry_group_IT_number 21
_symmetry_cell_setting 'orthorhombic'
loop_
_space_group_symop_operation_xyz
x,y,z
-x,-y,z
x,-y,-z
-x,y,-z
1/2+x,1/2+y,z
1/2-x,1/2-y,z
1/2+x,1/2-y,-z
1/2-x,1/2+y,-z
loop_
_atom_site_type_symbol
_atom_site_label
_atom_site_fract_x
_atom_site_fract_y
_atom_site_fract_z
Si Si1 0.287146 0.117657 0.241591
Si Si2 0.476593 0.732026 0.228083
Si Si3 0.000000 0.668210 0.500000
Si Si4 0.000000 0.000000 0.500000
Si Si5 0.666055 0.392900 0.348927
Si Si6 0.750000 0.750000 0.195157
Si Si7 0.856850 0.487979 0.266073
O O1 0.417759 0.127551 0.353579
O O2 0.194104 0.120934 0.424267
O O3 0.267515 0.179485 0.108192
O O4 0.285725 0.046870 0.167204
O O5 0.418461 0.789532 0.347833
O O6 0.406412 0.666956 0.263598
O O7 0.619275 0.739301 0.301993
O O8 0.500000 0.741364 0.000000
O O9 0.079019 0.045831 0.637313
O O10 0.790854 0.420269 0.248145
O O11 0.846837 0.500000 0.500000
O O12 0.000000 0.500000 0.213811
#
# Coordination Sequence:
#
# PCOD9322410 Si02
#       7
#     8   8   4   2   8   4   8
#     4  10  17  34  58  94 124 167 214 262 331 396
#     4  11  25  42  62  97 130 174 227 276 337 405
#     4  10  21  38  67  95 132 175 218 274 330 402
#     4  12  18  32  56  92 124 168 216 270 328 400
#     4  11  20  33  59  92 130 171 217 276 334 402
#     4  10  22  38  58  82 130 168 208 280 326 388
#     4   9  17  31  54  92 132 164 213 273 327 397
#
# _framework density 26.64742
#
# number of rings (size 3 to 8) (size 9 to 14) (size 15 to 20)
#    0.000    1.714    2.857    6.286    0.000    1.524 
#    0.000    0.476    0.000    0.000    0.000    1.333 
#    0.000   12.952    0.000    0.000    0.000    0.000 
#
# Total GULP energy -117090.676531 kJ/mol
# GULP energy per Si atom -5575.746501 kJ/mol
# Density = 2.658677 g / cm^3
# Si number density = 26.647420 Si / 1000 Ang^3
#
#
#
# Elastic Constant Matrix: (Units=GPa)
#
#
# Indices 1 2 3 4 5 6 
#
# 1 109.2726 46.5936 10.6454 0.0000 0.0000 0.0000
# 2 46.5936 247.3526 44.4345 0.0000 0.0000 0.0000
# 3 10.6454 44.4345 114.1412 0.0000 0.0000 0.0000
# 4 0.0000 0.0000 0.0000 22.3729 0.0000 0.0000
# 5 0.0000 0.0000 0.0000 0.0000 -2.6747 0.0000
# 6 0.0000 0.0000 0.0000 0.0000 0.0000 50.7091
#
#
#
# Elastic Compliance Matrix: (Units=1/GPa)
#
#
# Indices 1 2 3 4 5 6 
#
# 1 0.009955 -0.001837 -0.000213 0.000000 0.000000 0.000000
# 2 -0.001837 0.004686 -0.001653 0.000000 0.000000 0.000000
# 3 -0.000213 -0.001653 0.009424 0.000000 0.000000 0.000000
# 4 0.000000 0.000000 0.000000 0.044697 0.000000 0.000000
# 5 0.000000 0.000000 0.000000 0.000000 -0.373870 0.000000
# 6 0.000000 0.000000 0.000000 0.000000 0.000000 0.019720
#
#
# Mechanical properties :
#
#
# Convention : Reuss Voigt Hill
#
# Bulk Modulus (GPa) = 60.02644 74.90149 67.46397
# Shear Modulus (GPa) = -18.35346 38.68766 10.16710
#
# Velocity S-wave (km/s) = -2.62726 3.81443 1.95543
# Velocity P-wave (km/s) = 3.65674 6.89704 5.52001
#
# Compressibility (1/GPa) = 0.01665933
#
# Stress axis : x y z
#
# Youngs Moduli (GPa) = 100.44707 213.41293 106.10747
#
# Poissons Ratio (x) = 0.39203 0.02264
# Poissons Ratio (y) = 0.18452 0.17538
# Poissons Ratio (z) = 0.02143 0.35273
#
# Static dielectric constant tensor:
#      x y z
#    x 2.271510 0.000000 0.000000 
#    y 0.000000 2.192090 0.000000 
#    z 0.000000 0.000000 2.143260 
# 
# From -- ./inp_files/13127.got.cif
#   From: 2010.05.17/outbox.cif.g08.bks.cpg/sg21_7_cif.got.tgz:13127.got - 2010.06.03 23:14:55.
