data_PCOD9322840
_publ_section_title
;
Structure prediction by ZEFSAII (Michael W. Deem and Ramdas Pophale) SiO2 
 PCOD9322840
Probable space group: C 2 2 2
;
_chemical_formula_sum "Si O2"
_cell_formula_units_Z 64
_cell_length_a 10.452123
_cell_length_b 27.069125
_cell_length_c 12.271410
_cell_angle_alpha 90.000000
_cell_angle_beta 90.000000
_cell_angle_gamma 90.000000
_cell_volume 3471.947872
_symmetry_space_group_name_H-M "C 2 2 2"
_symmetry_group_IT_number 21
_symmetry_cell_setting 'orthorhombic'
loop_
_space_group_symop_operation_xyz
x,y,z
-x,-y,z
x,-y,-z
-x,y,-z
1/2+x,1/2+y,z
1/2-x,1/2-y,z
1/2+x,1/2-y,-z
1/2-x,1/2+y,-z
loop_
_atom_site_type_symbol
_atom_site_label
_atom_site_fract_x
_atom_site_fract_y
_atom_site_fract_z
Si Si1 0.030344 0.859536 0.119688
Si Si2 0.358116 0.094171 0.355393
Si Si3 0.337010 0.103447 0.601704
Si Si4 0.739706 0.875317 0.136975
Si Si5 0.653023 0.010374 0.257646
Si Si6 0.209305 0.049840 0.954942
Si Si7 0.248617 0.807847 0.249419
Si Si8 0.356658 0.792215 0.026902
O O1 0.113991 0.908825 0.094331
O O2 0.113054 0.823881 0.195646
O O3 0.890657 0.872395 0.163271
O O4 0.000000 0.837555 0.000000
O O5 0.301583 0.104218 0.474508
O O6 0.509728 0.098230 0.379423
O O7 0.331337 0.127863 0.251382
O O8 0.305161 0.041937 0.308799
O O9 0.296095 0.052952 0.661186
O O10 0.284983 0.152467 0.659641
O O11 0.690488 0.832042 0.059712
O O12 0.723597 0.923381 0.058574
O O13 0.697494 0.030326 0.140065
O O14 0.500000 0.000000 0.254419
O O15 0.145243 0.000000 0.000000
O O16 0.250000 0.750000 0.282225
O O17 0.347851 0.813929 0.148934
O O18 0.250000 0.750000 0.025811
O O19 0.500000 0.776845 0.000000
#
# Coordination Sequence:
#
# PCOD9322840 Si02
#       8
#     8   8   8   8   8   8   8   8
#     4  10  21  39  58  86 124 165 196 248 309 380
#     4  10  21  37  60  85 117 157 202 249 308 373
#     4  10  20  40  60  82 117 155 206 257 307 361
#     4  11  22  38  57  90 123 157 204 244 307 368
#     4  10  19  34  58  89 118 158 194 249 312 371
#     4  11  20  35  55  88 124 162 194 245 301 383
#     4  11  22  37  65  87 115 160 210 254 317 372
#     4  11  24  37  62  92 125 157 201 253 315 377
#
# _framework density 18.433456
#
# number of rings (size 3 to 8) (size 9 to 14) (size 15 to 20)
#    0.000    1.500    5.000    1.125    3.500    5.000 
#    0.000    1.250    2.750    0.000    3.250    0.000 
#    0.000    0.000    0.000    0.000    0.000    0.000 
#
# Total GULP energy -178251.443468 kJ/mol
# GULP energy per Si atom -5570.357608 kJ/mol
# Density = 1.839150 g / cm^3
# Si number density = 18.433456 Si / 1000 Ang^3
#
#
#
# Elastic Constant Matrix: (Units=GPa)
#
#
# Indices 1 2 3 4 5 6 
#
# 1 44.2790 19.8708 28.1860 0.0000 0.0000 0.0000
# 2 19.8708 113.2316 47.4520 0.0000 0.0000 0.0000
# 3 28.1860 47.4520 136.0782 0.0000 0.0000 0.0000
# 4 0.0000 0.0000 0.0000 14.9986 0.0000 0.0000
# 5 0.0000 0.0000 0.0000 0.0000 19.3095 0.0000
# 6 0.0000 0.0000 0.0000 0.0000 0.0000 15.5092
#
#
#
# Elastic Compliance Matrix: (Units=1/GPa)
#
#
# Indices 1 2 3 4 5 6 
#
# 1 0.026740 -0.002777 -0.004570 0.000000 0.000000 0.000000
# 2 -0.002777 0.010631 -0.003132 0.000000 0.000000 0.000000
# 3 -0.004570 -0.003132 0.009388 0.000000 0.000000 0.000000
# 4 0.000000 0.000000 0.000000 0.066673 0.000000 0.000000
# 5 0.000000 0.000000 0.000000 0.000000 0.051788 0.000000
# 6 0.000000 0.000000 0.000000 0.000000 0.000000 0.064478
#
#
# Mechanical properties :
#
#
# Convention : Reuss Voigt Hill
#
# Bulk Modulus (GPa) = 38.76033 53.84515 46.30274
# Shear Modulus (GPa) = 19.28598 23.16881 21.22740
#
# Velocity S-wave (km/s) = 3.23809 3.54911 3.39716
# Velocity P-wave (km/s) = 5.92056 6.78741 6.36875
#
# Compressibility (1/GPa) = 0.02579958
#
# Stress axis : x y z
#
# Youngs Moduli (GPa) = 37.39784 94.06134 106.52461
#
# Poissons Ratio (x) = 0.26123 0.48683
# Poissons Ratio (y) = 0.10386 0.33364
# Poissons Ratio (z) = 0.17091 0.29460
#
# Static dielectric constant tensor:
#      x y z
#    x 1.659490 0.000000 0.000000 
#    y 0.000000 1.683240 0.000000 
#    z 0.000000 0.000000 1.654240 
# 
# From -- ./inp_files/24453.got.cif
#   From: 2010.05.17/outbox.cif.g08.bks.cpg/sg21_13_cif.got.tgz:24453.got - 2010.06.03 23:14:55.
