data_PCOD9322433
_publ_section_title
;
Structure prediction by ZEFSAII (Michael W. Deem and Ramdas Pophale) SiO2 
 PCOD9322433
Probable space group: C 2 2 2
;
_chemical_formula_sum "Si O2"
_cell_formula_units_Z 42
_cell_length_a 18.001773
_cell_length_b 12.867842
_cell_length_c 10.361861
_cell_angle_alpha 90.000000
_cell_angle_beta 90.000000
_cell_angle_gamma 90.000000
_cell_volume 2400.262626
_symmetry_space_group_name_H-M "C 2 2 2"
_symmetry_group_IT_number 21
_symmetry_cell_setting 'orthorhombic'
loop_
_space_group_symop_operation_xyz
x,y,z
-x,-y,z
x,-y,-z
-x,y,-z
1/2+x,1/2+y,z
1/2-x,1/2-y,z
1/2+x,1/2-y,-z
1/2-x,1/2+y,-z
loop_
_atom_site_type_symbol
_atom_site_label
_atom_site_fract_x
_atom_site_fract_y
_atom_site_fract_z
Si Si1 0.500000 0.500000 0.000000
Si Si2 0.425993 0.808859 0.870973
Si Si3 0.740651 0.000000 0.500000
Si Si4 0.500000 0.000000 0.000000
Si Si5 0.500000 0.500000 0.500000
Si Si6 0.580437 0.309988 0.121427
Si Si7 0.631064 0.360091 0.392041
Si Si8 0.170723 0.300379 0.383689
O O1 0.552808 0.575087 0.917160
O O2 0.504554 0.751720 0.847766
O O3 0.379385 0.802092 0.742238
O O4 0.389916 0.747881 0.993123
O O5 0.448106 0.924449 0.915368
O O6 0.797772 0.935096 0.589941
O O7 0.689436 0.916011 0.430429
O O8 0.556089 0.427241 0.417730
O O9 0.629268 0.313879 0.248817
O O10 0.637326 0.270871 0.501329
O O11 0.250000 0.250000 0.350914
#
# Coordination Sequence:
#
# PCOD9322433 Si02
#       8
#     2   8   4   2   2   8   8   8
#     4   8  16  28  48  78 110 124 150 202 266 320
#     4   9  19  35  54  77 106 136 168 211 265 311
#     4   9  22  35  52  73 104 147 178 210 256 307
#     4   8  18  36  56  78 104 132 170 216 260 314
#     4  10  18  28  56  88 102 130 168 220 274 296
#     4   9  18  32  54  80 102 131 165 216 267 300
#     4  10  19  34  55  79 106 132 176 221 259 309
#     4  10  21  38  53  73 107 143 176 213 255 312
#
# _framework density 17.498085
#
# number of rings (size 3 to 8) (size 9 to 14) (size 15 to 20)
#    0.000    3.048    0.000    1.714    0.000   10.667 
#    0.000    4.762    0.000    0.000    0.000    0.000 
#    0.000    0.000    0.000    0.000    0.000    0.000 
#
# Total GULP energy -117030.098673 kJ/mol
# GULP energy per Si atom -5572.861842 kJ/mol
# Density = 1.745826 g / cm^3
# Si number density = 17.498085 Si / 1000 Ang^3
#
#
#
# Elastic Constant Matrix: (Units=GPa)
#
#
# Indices 1 2 3 4 5 6 
#
# 1 49.3832 37.3342 55.4714 0.0000 0.0000 0.0000
# 2 37.3342 133.4487 77.6196 0.0000 0.0000 0.0000
# 3 55.4714 77.6196 149.6918 0.0000 0.0000 0.0000
# 4 0.0000 0.0000 0.0000 2.9483 0.0000 0.0000
# 5 0.0000 0.0000 0.0000 0.0000 16.4947 0.0000
# 6 0.0000 0.0000 0.0000 0.0000 0.0000 9.3619
#
#
#
# Elastic Compliance Matrix: (Units=1/GPa)
#
#
# Indices 1 2 3 4 5 6 
#
# 1 0.035665 -0.003280 -0.011516 0.000000 0.000000 0.000000
# 2 -0.003280 0.011031 -0.004505 0.000000 0.000000 0.000000
# 3 -0.011516 -0.004505 0.013284 0.000000 0.000000 0.000000
# 4 0.000000 0.000000 0.000000 0.339181 0.000000 0.000000
# 5 0.000000 0.000000 0.000000 0.000000 0.060626 0.000000
# 6 0.000000 0.000000 0.000000 0.000000 0.000000 0.106816
#
#
# Mechanical properties :
#
#
# Convention : Reuss Voigt Hill
#
# Bulk Modulus (GPa) = 46.77403 74.81935 60.79669
# Shear Modulus (GPa) = 8.16556 16.56753 12.36654
#
# Velocity S-wave (km/s) = 2.16256 3.08038 2.66134
# Velocity P-wave (km/s) = 5.74670 7.45004 6.65311
#
# Compressibility (1/GPa) = 0.02137938
#
# Stress axis : x y z
#
# Youngs Moduli (GPa) = 28.03896 90.65245 75.28118
#
# Poissons Ratio (x) = 0.29731 0.86691
# Poissons Ratio (y) = 0.09196 0.33911
# Poissons Ratio (z) = 0.32289 0.40835
#
# Static dielectric constant tensor:
#      x y z
#    x 1.576690 0.000000 0.000000 
#    y 0.000000 1.634330 0.000000 
#    z 0.000000 0.000000 1.603730 
# 
# From -- ./inp_files/26025.got.cif
#   From: 2010.05.17/outbox.cif.g08.bks.cpg/sg21_14_cif.got.tgz:26025.got - 2010.06.03 23:14:55.
