data_PCOD9322171
_publ_section_title
;
Structure prediction by ZEFSAII (Michael W. Deem and Ramdas Pophale) SiO2 
 PCOD9322171
Probable space group: C 2 2 21
;
_chemical_formula_sum "Si O2"
_cell_formula_units_Z 32
_cell_length_a 12.000000
_cell_length_b 18.000000
_cell_length_c 15.000000
_cell_angle_alpha 90.000000
_cell_angle_beta 90.000000
_cell_angle_gamma 90.000000
_cell_volume 3240.000000
_symmetry_space_group_name_H-M "C 2 2 21"
_symmetry_group_IT_number 20
_symmetry_cell_setting 'orthorhombic'
loop_
_space_group_symop_operation_xyz
x,y,z
-x,-y,1/2+z
x,-y,-z
-x,y,1/2-z
1/2+x,1/2+y,z
1/2-x,1/2-y,1/2+z
1/2+x,1/2-y,-z
1/2-x,1/2+y,1/2-z
loop_
_atom_site_type_symbol
_atom_site_label
_atom_site_fract_x
_atom_site_fract_y
_atom_site_fract_z
Si Si1 0.262104 0.318264 0.128919
Si Si2 0.443773 0.984919 0.103028
Si Si3 0.632613 0.166397 0.550069
Si Si4 0.668859 0.341513 0.172260
Si Si5 0.273587 0.512905 0.291550
Si Si6 0.695332 0.018657 0.897908
Si Si7 0.176972 0.847349 0.906504
Si Si8 0.014941 0.196621 0.532454
O O1 0.320124 0.320222 0.225296
O O2 0.189870 0.392330 0.117049
O O3 0.201222 0.238694 0.120651
O O4 0.360754 0.328935 0.056652
O O5 0.432396 0.896204 0.104296
O O6 0.569623 0.011511 0.115210
O O7 0.353966 0.014319 0.172578
O O8 0.413267 0.000000 0.000000
O O9 0.725134 0.194525 0.620636
O O10 0.717178 0.137360 0.472351
O O11 0.543817 0.221897 0.506458
O O12 0.678183 0.433026 0.171671
O O13 0.560480 0.311249 0.121301
O O14 0.271285 0.510185 0.183900
O O15 0.326201 0.587613 0.332984
O O16 0.728815 0.000000 0.000000
O O17 0.061161 0.846379 0.960968
#
# Coordination Sequence:
#
# PCOD9322171 Si02
#       8
#     8   8   8   8   8   8   8   8
#     4  10  21  41  60  85 125 156 205 254 315 366
#     4  10  17  32  59  88 121 151 194 248 318 367
#     4   9  18  33  57  89 119 152 195 249 299 371
#     4   9  20  37  63  84 118 167 201 254 307 369
#     4  10  20  38  60  91 120 157 217 254 307 375
#     4  10  22  39  59  86 123 169 200 257 313 374
#     4  10  20  37  59  89 120 155 204 262 304 365
#     4  10  20  36  60  87 117 159 205 245 307 368
#
# _framework density 9.8765429999999999
#
# number of rings (size 3 to 8) (size 9 to 14) (size 15 to 20)
#    0.000    2.250    1.250    1.500    0.000    0.000 
#   13.500    3.125    0.000    0.000    0.000    0.000 
#    0.000    0.000    0.000    0.000    0.000    0.000 
#
# Total GULP energy -178190.242227 kJ/mol
# GULP energy per Si atom -5568.445070 kJ/mol
# Density = 0.985406 g / cm^3
# Si number density = 9.876543 Si / 1000 Ang^3
#
#
#
# Elastic Constant Matrix: (Units=GPa)
#
#
# Indices 1 2 3 4 5 6 
#
# 1 48.1683 15.0908 14.3829 0.0000 0.0000 0.0000
# 2 15.0908 58.9453 26.3083 0.0000 0.0000 0.0000
# 3 14.3829 26.3083 95.0574 0.0000 0.0000 0.0000
# 4 0.0000 0.0000 0.0000 27.6955 0.0000 0.0000
# 5 0.0000 0.0000 0.0000 0.0000 24.2125 0.0000
# 6 0.0000 0.0000 0.0000 0.0000 0.0000 18.8917
#
#
#
# Elastic Compliance Matrix: (Units=1/GPa)
#
#
# Indices 1 2 3 4 5 6 
#
# 1 0.022934 -0.004932 -0.002105 0.000000 0.000000 0.000000
# 2 -0.004932 0.020416 -0.004904 0.000000 0.000000 0.000000
# 3 -0.002105 -0.004904 0.012196 0.000000 0.000000 0.000000
# 4 0.000000 0.000000 0.000000 0.036107 0.000000 0.000000
# 5 0.000000 0.000000 0.000000 0.000000 0.041301 0.000000
# 6 0.000000 0.000000 0.000000 0.000000 0.000000 0.052933
#
#
# Mechanical properties :
#
#
# Convention : Reuss Voigt Hill
#
# Bulk Modulus (GPa) = 31.58182 34.85945 33.22063
# Shear Modulus (GPa) = 22.69375 23.91920 23.30647
#
# Velocity S-wave (km/s) = 3.39318 3.48359 3.43868
# Velocity P-wave (km/s) = 5.60130 5.81949 5.71143
#
# Compressibility (1/GPa) = 0.03166379
#
# Stress axis : x y z
#
# Youngs Moduli (GPa) = 43.60290 48.98031 81.99553
#
# Poissons Ratio (x) = 0.24157 0.17261
# Poissons Ratio (y) = 0.21505 0.40213
# Poissons Ratio (z) = 0.09179 0.24021
#
# Static dielectric constant tensor:
#      x y z
#    x 1.710760 0.000000 0.000000 
#    y 0.000000 1.733620 0.000000 
#    z 0.000000 0.000000 1.714400 
# 
# From -- ./inp_files/20288.got.cif
#   From: 2010.05.17/outbox.ucp.g08.bks.cvg/sg20_11_cif.got.tgz:20288.got - 2010.06.11 15:13:06.
