data_PCOD9322713
_publ_section_title
;
Structure prediction by ZEFSAII (Michael W. Deem and Ramdas Pophale) SiO2 
 PCOD9322713
Probable space group: C 2 2 2
;
_chemical_formula_sum "Si O2"
_cell_formula_units_Z 64
_cell_length_a 15.382099
_cell_length_b 23.329164
_cell_length_c 9.902446
_cell_angle_alpha 90.000000
_cell_angle_beta 90.000000
_cell_angle_gamma 90.000000
_cell_volume 3553.507702
_symmetry_space_group_name_H-M "C 2 2 2"
_symmetry_group_IT_number 21
_symmetry_cell_setting 'orthorhombic'
loop_
_space_group_symop_operation_xyz
x,y,z
-x,-y,z
x,-y,-z
-x,y,-z
1/2+x,1/2+y,z
1/2-x,1/2-y,z
1/2+x,1/2-y,-z
1/2-x,1/2+y,-z
loop_
_atom_site_type_symbol
_atom_site_label
_atom_site_fract_x
_atom_site_fract_y
_atom_site_fract_z
Si Si1 0.999491 0.605819 0.339632
Si Si2 0.324364 0.952358 0.670534
Si Si3 0.273696 0.353602 0.230651
Si Si4 0.657607 0.717240 0.995168
Si Si5 0.086950 0.182375 0.437406
Si Si6 0.696659 0.082430 0.359814
Si Si7 0.403842 0.785744 0.766278
Si Si8 0.310502 0.305769 0.706194
O O1 0.929001 0.554791 0.319245
O O2 0.963666 0.659602 0.256779
O O3 0.000000 0.619694 0.500000
O O4 0.099019 0.593828 0.307749
O O5 0.276936 0.912777 0.778250
O O6 0.305222 0.922747 0.523961
O O7 0.287864 0.016194 0.678857
O O8 0.346223 0.354362 0.347604
O O9 0.196139 0.307323 0.260457
O O10 0.321475 0.335338 0.094380
O O11 0.750000 0.750000 0.983724
O O12 0.634375 0.697420 0.845096
O O13 0.596738 0.758773 0.083902
O O14 0.070208 0.237145 0.341319
O O15 0.135360 0.201780 0.571446
O O16 0.000000 0.154757 0.500000
O O17 0.757939 0.133969 0.309000
O O18 0.250000 0.250000 0.709066
#
# Coordination Sequence:
#
# PCOD9322713 Si02
#       8
#     8   8   8   8   8   8   8   8
#     4   9  17  27  50  85 113 140 175 219 267 329
#     4   9  17  31  53  78 111 145 176 214 275 326
#     4   9  16  34  54  71  98 144 181 212 259 327
#     4   8  17  33  51  70 101 140 181 214 257 312
#     4  11  21  30  50  77 104 130 175 228 268 315
#     4  10  19  31  50  82 114 139 177 226 269 321
#     4   9  17  31  53  73 104 145 179 208 263 331
#     4  11  22  34  52  75 106 141 175 229 268 313
#
# _framework density 18.010372
#
# number of rings (size 3 to 8) (size 9 to 14) (size 15 to 20)
#    0.000    2.500    1.250    2.625    5.250    1.500 
#    0.000    3.125    5.500    3.750    0.000    7.000 
#    0.000    4.000    0.000    0.000    0.000    0.000 
#
# Total GULP energy -178137.762152 kJ/mol
# GULP energy per Si atom -5566.805067 kJ/mol
# Density = 1.796938 g / cm^3
# Si number density = 18.010372 Si / 1000 Ang^3
#
#
#
# Elastic Constant Matrix: (Units=GPa)
#
#
# Indices 1 2 3 4 5 6 
#
# 1 35.9575 13.4271 15.0023 0.0000 0.0000 0.0000
# 2 13.4271 81.8718 14.2708 0.0000 0.0000 0.0000
# 3 15.0023 14.2708 91.3517 0.0000 0.0000 0.0000
# 4 0.0000 0.0000 0.0000 0.6439 0.0000 0.0000
# 5 0.0000 0.0000 0.0000 0.0000 11.1094 0.0000
# 6 0.0000 0.0000 0.0000 0.0000 0.0000 16.3165
#
#
#
# Elastic Compliance Matrix: (Units=1/GPa)
#
#
# Indices 1 2 3 4 5 6 
#
# 1 0.031298 -0.004356 -0.004459 0.000000 0.000000 0.000000
# 2 -0.004356 0.013162 -0.001341 0.000000 0.000000 0.000000
# 3 -0.004459 -0.001341 0.011889 0.000000 0.000000 0.000000
# 4 0.000000 0.000000 0.000000 1.552951 0.000000 0.000000
# 5 0.000000 0.000000 0.000000 0.000000 0.090014 0.000000
# 6 0.000000 0.000000 0.000000 0.000000 0.000000 0.061288
#
#
# Mechanical properties :
#
#
# Convention : Reuss Voigt Hill
#
# Bulk Modulus (GPa) = 27.74956 32.73128 30.24042
# Shear Modulus (GPa) = 2.78874 16.71268 9.75071
#
# Velocity S-wave (km/s) = 1.24570 3.04953 2.32931
# Velocity P-wave (km/s) = 4.18450 5.53286 4.90523
#
# Compressibility (1/GPa) = 0.03603660
#
# Stress axis : x y z
#
# Youngs Moduli (GPa) = 31.95133 75.97478 84.11463
#
# Poissons Ratio (x) = 0.33091 0.37511
# Poissons Ratio (y) = 0.13917 0.11279
# Poissons Ratio (z) = 0.14249 0.10187
#
# Static dielectric constant tensor:
#      x y z
#    x 1.705110 0.000000 0.000000 
#    y 0.000000 1.653120 0.000000 
#    z 0.000000 0.000000 1.643150 
# 
# From -- ./inp_files/15477.got.cif
#   From: 2010.05.17/outbox.cif.g08.bks.cpg/sg21_8_cif.got.tgz:15477.got - 2010.06.03 23:14:55.
