data_PCOD9322404
_publ_section_title
;
Structure prediction by ZEFSAII (Michael W. Deem and Ramdas Pophale) SiO2 
 PCOD9322404
Probable space group: C 2 2 2
;
_chemical_formula_sum "Si O2"
_cell_formula_units_Z 36
_cell_length_a 4.927982
_cell_length_b 24.927149
_cell_length_c 14.694958
_cell_angle_alpha 90.000000
_cell_angle_beta 90.000000
_cell_angle_gamma 90.000000
_cell_volume 1805.136599
_symmetry_space_group_name_H-M "C 2 2 2"
_symmetry_group_IT_number 21
_symmetry_cell_setting 'orthorhombic'
loop_
_space_group_symop_operation_xyz
x,y,z
-x,-y,z
x,-y,-z
-x,y,-z
1/2+x,1/2+y,z
1/2-x,1/2-y,z
1/2+x,1/2-y,-z
1/2-x,1/2+y,-z
loop_
_atom_site_type_symbol
_atom_site_label
_atom_site_fract_x
_atom_site_fract_y
_atom_site_fract_z
Si Si1 0.870557 0.420774 0.905655
Si Si2 0.109900 0.302855 0.157369
Si Si3 0.400299 0.328294 0.723527
Si Si4 0.250000 0.750000 0.435283
Si Si5 0.876015 0.054269 0.211239
O O1 0.862170 0.355976 0.902933
O O2 0.570176 0.437931 0.877412
O O3 0.071161 0.442475 0.826804
O O4 0.000000 0.438297 0.000000
O O5 0.250000 0.250000 0.114031
O O6 0.300365 0.311361 0.245767
O O7 0.805924 0.306686 0.197589
O O8 0.320476 0.299600 0.630927
O O9 0.398975 0.392722 0.726794
O O10 0.500000 0.763081 0.500000
O O11 0.000000 0.000000 0.253363
#
# Coordination Sequence:
#
# PCOD9322404 Si02
#       5
#     8   8   8   4   8
#     4  10  21  33  49  79 110 140 190 243 281 313
#     4  10  17  33  54  71 104 152 183 215 269 324
#     4  10  20  35  54  80 110 137 180 220 258 340
#     4  12  22  34  58  90 116 136 166 220 292 334
#     4  10  21  36  56  76 102 150 193 225 273 323
#
# _framework density 19.943087999999999
#
# number of rings (size 3 to 8) (size 9 to 14) (size 15 to 20)
#    0.000    1.778    2.222    2.667    0.000    2.667 
#    0.000    6.667    0.000    0.667    0.000    1.556 
#    0.000    0.000    0.000    0.000    0.000    0.000 
#
# Total GULP energy -100392.894191 kJ/mol
# GULP energy per Si atom -5577.383011 kJ/mol
# Density = 1.989770 g / cm^3
# Si number density = 19.943088 Si / 1000 Ang^3
#
#
#
# Elastic Constant Matrix: (Units=GPa)
#
#
# Indices 1 2 3 4 5 6 
#
# 1 63.8647 8.8277 -0.2682 0.0000 0.0000 0.0000
# 2 8.8277 187.5353 22.7125 0.0000 0.0000 0.0000
# 3 -0.2682 22.7125 53.7211 0.0000 0.0000 0.0000
# 4 0.0000 0.0000 0.0000 -15.8597 0.0000 0.0000
# 5 0.0000 0.0000 0.0000 0.0000 19.9952 0.0000
# 6 0.0000 0.0000 0.0000 0.0000 0.0000 33.7953
#
#
#
# Elastic Compliance Matrix: (Units=1/GPa)
#
#
# Indices 1 2 3 4 5 6 
#
# 1 0.015769 -0.000792 0.000414 0.000000 0.000000 0.000000
# 2 -0.000792 0.005660 -0.002397 0.000000 0.000000 0.000000
# 3 0.000414 -0.002397 0.019630 0.000000 0.000000 0.000000
# 4 0.000000 0.000000 0.000000 -0.063053 0.000000 0.000000
# 5 0.000000 0.000000 0.000000 0.000000 0.050012 0.000000
# 6 0.000000 0.000000 0.000000 0.000000 0.000000 0.029590
#
#
# Mechanical properties :
#
#
# Convention : Reuss Voigt Hill
#
# Bulk Modulus (GPa) = 28.16246 40.85169 34.50708
# Shear Modulus (GPa) = 66.67085 25.84279 46.25682
#
# Velocity S-wave (km/s) = 5.78819 3.60366 4.82128
# Velocity P-wave (km/s) = 7.66961 6.15173 6.95222
#
# Compressibility (1/GPa) = 0.03550826
#
# Stress axis : x y z
#
# Youngs Moduli (GPa) = 63.41410 176.68100 50.94223
#
# Poissons Ratio (x) = 0.14000 -0.02108
# Poissons Ratio (y) = 0.05025 0.12210
# Poissons Ratio (z) = -0.02624 0.42348
#
# Static dielectric constant tensor:
#      x y z
#    x 1.695000 0.000000 0.000000 
#    y 0.000000 1.809720 0.000000 
#    z 0.000000 0.000000 1.663320 
# 
# From -- ./inp_files/29067.got.cif
#   From: 2010.05.17/outbox.cif.g08.bks.cpg/sg21_15_cif.got.tgz:29067.got - 2010.06.03 23:14:55.
