data_PCOD9322140
_publ_section_title
;
Structure prediction by ZEFSAII (Michael W. Deem and Ramdas Pophale) SiO2 
 PCOD9322140
Probable space group: C 2 2 21
;
_chemical_formula_sum "Si O2"
_cell_formula_units_Z 36
_cell_length_a 5.026509
_cell_length_b 14.290781
_cell_length_c 19.362361
_cell_angle_alpha 90.000000
_cell_angle_beta 90.000000
_cell_angle_gamma 90.000000
_cell_volume 1390.851430
_symmetry_space_group_name_H-M "C 2 2 21"
_symmetry_group_IT_number 20
_symmetry_cell_setting 'orthorhombic'
loop_
_space_group_symop_operation_xyz
x,y,z
-x,-y,1/2+z
x,-y,-z
-x,y,1/2-z
1/2+x,1/2+y,z
1/2-x,1/2-y,1/2+z
1/2+x,1/2-y,-z
1/2-x,1/2+y,1/2-z
loop_
_atom_site_type_symbol
_atom_site_label
_atom_site_fract_x
_atom_site_fract_y
_atom_site_fract_z
Si Si1 0.254702 0.143508 0.851189
Si Si2 0.000000 0.217587 0.250000
Si Si3 0.264353 0.321157 0.049196
Si Si4 0.186057 0.434123 0.683589
Si Si5 0.197762 0.898381 0.965064
O O1 0.297486 0.215801 0.789334
O O2 0.500586 0.149578 0.906561
O O3 0.992738 0.164911 0.893511
O O4 0.230715 0.041805 0.816906
O O5 0.094376 0.145651 0.192380
O O6 0.267026 0.212591 0.026436
O O7 0.378839 0.383448 0.985187
O O8 0.127151 0.416800 0.604174
O O9 0.000000 0.419961 0.750000
O O10 0.243338 0.000000 0.000000
#
# Coordination Sequence:
#
# PCOD9322140 Si02
#       5
#     8   4   8   8   8
#     4  12  28  55  87 119 173 224 283 358 435 522
#     4  12  28  52  84 118 172 226 278 360 438 518
#     4  12  28  56  81 125 169 219 286 357 434 511
#     4  12  28  52  84 127 166 233 289 358 444 526
#     4  12  27  53  85 125 171 231 287 366 431 523
#
# _framework density 25.883427000000001
#
# number of rings (size 3 to 8) (size 9 to 14) (size 15 to 20)
#    0.000    0.000    5.556    2.667    3.111    0.000 
#   16.000    0.000    0.000    0.000    0.000    0.000 
#    0.000    0.000    0.000    0.000    0.000    0.000 
#
# Total GULP energy -100234.595667 kJ/mol
# GULP energy per Si atom -5568.588648 kJ/mol
# Density = 2.582452 g / cm^3
# Si number density = 25.883427 Si / 1000 Ang^3
#
#
#
# Elastic Constant Matrix: (Units=GPa)
#
#
# Indices 1 2 3 4 5 6 
#
# 1 96.0145 46.1853 27.3183 0.0000 0.0000 0.0000
# 2 46.1853 224.2915 35.8724 0.0000 0.0000 0.0000
# 3 27.3183 35.8724 78.7544 0.0000 0.0000 0.0000
# 4 0.0000 0.0000 0.0000 3683.1254 0.0000 0.0000
# 5 0.0000 0.0000 0.0000 0.0000 40.8170 0.0000
# 6 0.0000 0.0000 0.0000 0.0000 0.0000 48.4332
#
#
#
# Elastic Compliance Matrix: (Units=1/GPa)
#
#
# Indices 1 2 3 4 5 6 
#
# 1 0.012336 -0.002002 -0.003367 0.000000 0.000000 0.000000
# 2 -0.002002 0.005134 -0.001644 0.000000 0.000000 0.000000
# 3 -0.003367 -0.001644 0.014615 0.000000 0.000000 0.000000
# 4 0.000000 0.000000 0.000000 0.000272 0.000000 0.000000
# 5 0.000000 0.000000 0.000000 0.000000 0.024500 0.000000
# 6 0.000000 0.000000 0.000000 0.000000 0.000000 0.020647
#
#
# Mechanical properties :
#
#
# Convention : Reuss Voigt Hill
#
# Bulk Modulus (GPa) = 55.37650 68.64582 62.01116
# Shear Modulus (GPa) = 51.25698 773.78743 412.52220
#
# Velocity S-wave (km/s) = 4.45489 17.30895 12.63815
# Velocity P-wave (km/s) = 6.92115 20.64086 15.39395
#
# Compressibility (1/GPa) = 0.01805820
#
# Stress axis : x y z
#
# Youngs Moduli (GPa) = 81.06350 194.79558 68.42464
#
# Poissons Ratio (x) = 0.38991 0.23041
# Poissons Ratio (y) = 0.16226 0.11249
# Poissons Ratio (z) = 0.27297 0.32025
#
# Static dielectric constant tensor:
#      x y z
#    x -2.895900 0.000000 0.000000 
#    y 0.000000 1.937640 0.000000 
#    z 0.000000 0.000000 2.265030 
# 
# From -- ./inp_files/28244.got.cif
#   From: 2010.05.17/outbox.cif.g08.bks.cpg/sg20_15_cif.got.tgz:28244.got - 2010.06.03 22:52:26.
