data_PCOD9322218
_publ_section_title
;
Structure prediction by ZEFSAII (Michael W. Deem and Ramdas Pophale) SiO2 
 PCOD9322218
Probable space group: C 2 2 21
;
_chemical_formula_sum "Si O2"
_cell_formula_units_Z 18
_cell_length_a 9.000000
_cell_length_b 21.000000
_cell_length_c 9.000000
_cell_angle_alpha 90.000000
_cell_angle_beta 90.000000
_cell_angle_gamma 90.000000
_cell_volume 1701.000000
_symmetry_space_group_name_H-M "C 2 2 21"
_symmetry_group_IT_number 20
_symmetry_cell_setting 'orthorhombic'
loop_
_space_group_symop_operation_xyz
x,y,z
-x,-y,1/2+z
x,-y,-z
-x,y,1/2-z
1/2+x,1/2+y,z
1/2-x,1/2-y,1/2+z
1/2+x,1/2-y,-z
1/2-x,1/2+y,1/2-z
loop_
_atom_site_type_symbol
_atom_site_label
_atom_site_fract_x
_atom_site_fract_y
_atom_site_fract_z
Si Si1 0.372067 0.899078 0.638421
Si Si2 0.142899 0.000000 0.500000
Si Si3 0.378779 0.702697 0.126971
Si Si4 0.396879 0.846839 0.102191
Si Si5 0.941944 0.114350 0.598794
O O1 0.500000 0.923036 0.750000
O O2 0.255809 0.954683 0.593259
O O3 0.264505 0.838670 0.678647
O O4 0.481552 0.872343 0.512475
O O5 0.028570 0.953211 0.414776
O O6 0.500000 0.716551 0.250000
O O7 0.344426 0.773792 0.068579
O O8 0.476062 0.657534 0.021666
O O9 0.500000 0.850757 0.250000
O O10 0.238492 0.885267 0.099077
O O11 0.000000 0.144534 0.750000
#
# Coordination Sequence:
#
# PCOD9322218 Si02
#       5
#     8   4   8   8   8
#     4  11  24  42  66  93 123 164 212 257 302 363
#     4  10  26  44  60  88 126 166 212 258 308 360
#     4  10  22  41  64  95 130 161 197 249 317 379
#     4  11  23  40  65  96 127 159 202 255 311 372
#     4  11  24  42  64  89 124 166 206 254 311 365
#
# _framework density 10.582011
#
# number of rings (size 3 to 8) (size 9 to 14) (size 15 to 20)
#    0.000    1.333    0.000    5.333    0.000   16.000 
#    0.000    0.000    0.000    0.000    0.000    0.000 
#    0.000    0.000    0.000    0.000    0.000    0.000 
#
# Total GULP energy -100206.381327 kJ/mol
# GULP energy per Si atom -5567.021185 kJ/mol
# Density = 1.055793 g / cm^3
# Si number density = 10.582011 Si / 1000 Ang^3
#
#
#
# Elastic Constant Matrix: (Units=GPa)
#
#
# Indices 1 2 3 4 5 6 
#
# 1 216.0666 59.3644 19.5892 0.0000 0.0000 0.0000
# 2 59.3644 113.4947 17.5055 0.0000 0.0000 0.0000
# 3 19.5892 17.5055 18.0434 0.0000 0.0000 0.0000
# 4 0.0000 0.0000 0.0000 3.1121 0.0000 0.0000
# 5 0.0000 0.0000 0.0000 0.0000 39.7161 0.0000
# 6 0.0000 0.0000 0.0000 0.0000 0.0000 40.1090
#
#
#
# Elastic Compliance Matrix: (Units=1/GPa)
#
#
# Indices 1 2 3 4 5 6 
#
# 1 0.005620 -0.002350 -0.003822 0.000000 0.000000 0.000000
# 2 -0.002350 0.011344 -0.008454 0.000000 0.000000 0.000000
# 3 -0.003822 -0.008454 0.067773 0.000000 0.000000 0.000000
# 4 0.000000 0.000000 0.000000 0.321328 0.000000 0.000000
# 5 0.000000 0.000000 0.000000 0.000000 0.025179 0.000000
# 6 0.000000 0.000000 0.000000 0.000000 0.000000 0.024932
#
#
# Mechanical properties :
#
#
# Convention : Reuss Voigt Hill
#
# Bulk Modulus (GPa) = 18.02283 60.05810 39.04047
# Shear Modulus (GPa) = 9.92211 33.33048 21.62629
#
# Velocity S-wave (km/s) = 2.16757 3.97276 3.20009
# Velocity P-wave (km/s) = 3.84692 7.03440 5.66929
#
# Compressibility (1/GPa) = 0.05548517
#
# Stress axis : x y z
#
# Youngs Moduli (GPa) = 177.92177 88.14922 14.75507
#
# Poissons Ratio (x) = 0.20718 0.05639
# Poissons Ratio (y) = 0.41818 0.12475
# Poissons Ratio (z) = 0.67995 0.74526
#
# Static dielectric constant tensor:
#      x y z
#    x 1.698400 0.000000 0.000000 
#    y 0.000000 1.830480 0.000000 
#    z 0.000000 0.000000 2.686560 
# 
# From -- ./inp_files/5896.got.cif
#   From: 2010.05.17/outbox.ucp.g08.bks.cvg/sg20_3_cif.got.tgz:5896.got - 2010.06.11 15:13:06.
