data_PCOD9322451
_publ_section_title
;
Structure prediction by ZEFSAII (Michael W. Deem and Ramdas Pophale) SiO2 
 PCOD9322451
Probable space group: C 2 2 2
;
_chemical_formula_sum "Si O2"
_cell_formula_units_Z 56
_cell_length_a 14.091427
_cell_length_b 7.762278
_cell_length_c 24.112601
_cell_angle_alpha 90.000000
_cell_angle_beta 90.000000
_cell_angle_gamma 90.000000
_cell_volume 2637.474246
_symmetry_space_group_name_H-M "C 2 2 2"
_symmetry_group_IT_number 21
_symmetry_cell_setting 'orthorhombic'
loop_
_space_group_symop_operation_xyz
x,y,z
-x,-y,z
x,-y,-z
-x,y,-z
1/2+x,1/2+y,z
1/2-x,1/2-y,z
1/2+x,1/2-y,-z
1/2-x,1/2+y,-z
loop_
_atom_site_type_symbol
_atom_site_label
_atom_site_fract_x
_atom_site_fract_y
_atom_site_fract_z
Si Si1 0.143037 0.700122 0.151280
Si Si2 0.360374 0.788885 0.839274
Si Si3 0.501509 0.789231 0.936994
Si Si4 0.134108 0.754514 0.354774
Si Si5 0.507610 0.208750 0.248480
Si Si6 0.134604 0.556277 0.561741
Si Si7 0.364153 0.439560 0.438987
O O1 0.250000 0.750000 0.157420
O O2 0.131071 0.495289 0.156804
O O3 0.079918 0.769960 0.200879
O O4 0.099164 0.758385 0.093289
O O5 0.250000 0.750000 0.841994
O O6 0.419621 0.728982 0.893783
O O7 0.407817 0.735277 0.780197
O O8 0.500000 0.000000 0.938934
O O9 0.500000 0.727090 0.000000
O O10 0.250000 0.750000 0.340588
O O11 0.059885 0.763865 0.304465
O O12 0.113878 0.584148 0.391541
O O13 0.115354 0.918306 0.393494
O O14 0.500000 0.000000 0.252434
O O15 0.104775 0.500000 0.500000
O O16 0.249241 0.566698 0.559299
O O17 0.099339 0.748579 0.573745
O O18 0.394285 0.500000 0.500000
#
# Coordination Sequence:
#
# PCOD9322451 Si02
#       7
#     8   8   8   8   8   8   8
#     4   9  17  32  57  80 107 154 197 234 291 357
#     4   9  18  34  58  80 107 154 201 248 294 344
#     4   8  15  29  50  82 121 158 196 236 285 352
#     4  10  18  29  55  82 114 159 192 239 302 362
#     4   9  19  36  57  75 108 148 195 243 295 360
#     4   9  15  25  45  79 120 160 194 226 284 368
#     4   9  15  25  45  81 120 156 194 231 282 366
#
# _framework density 21.232434999999999
#
# number of rings (size 3 to 8) (size 9 to 14) (size 15 to 20)
#    0.000    3.000    1.429    2.143    0.000    0.571 
#    0.000    2.857   37.714    1.286    0.000    1.000 
#    0.000    1.143    0.000    0.000    0.000    0.286 
#
# Total GULP energy -156150.523640 kJ/mol
# GULP energy per Si atom -5576.804416 kJ/mol
# Density = 2.118411 g / cm^3
# Si number density = 21.232435 Si / 1000 Ang^3
#
#
#
# Elastic Constant Matrix: (Units=GPa)
#
#
# Indices 1 2 3 4 5 6 
#
# 1 122.4923 17.0613 52.5007 0.0000 0.0000 0.0000
# 2 17.0613 88.3734 47.8486 0.0000 0.0000 0.0000
# 3 52.5007 47.8486 161.7540 0.0000 0.0000 0.0000
# 4 0.0000 0.0000 0.0000 8.2633 0.0000 0.0000
# 5 0.0000 0.0000 0.0000 0.0000 22.7945 0.0000
# 6 0.0000 0.0000 0.0000 0.0000 0.0000 23.0371
#
#
#
# Elastic Compliance Matrix: (Units=1/GPa)
#
#
# Indices 1 2 3 4 5 6 
#
# 1 0.009486 -0.000196 -0.003021 0.000000 0.000000 0.000000
# 2 -0.000196 0.013478 -0.003923 0.000000 0.000000 0.000000
# 3 -0.003021 -0.003923 0.008323 0.000000 0.000000 0.000000
# 4 0.000000 0.000000 0.000000 0.121016 0.000000 0.000000
# 5 0.000000 0.000000 0.000000 0.000000 0.043870 0.000000
# 6 0.000000 0.000000 0.000000 0.000000 0.000000 0.043408
#
#
# Mechanical properties :
#
#
# Convention : Reuss Voigt Hill
#
# Bulk Modulus (GPa) = 58.79976 67.49345 63.14660
# Shear Modulus (GPa) = 19.26556 27.83292 23.54924
#
# Velocity S-wave (km/s) = 3.01552 3.62452 3.33395
# Velocity P-wave (km/s) = 6.31490 7.02660 6.68023
#
# Compressibility (1/GPa) = 0.01700687
#
# Stress axis : x y z
#
# Youngs Moduli (GPa) = 105.42049 74.19696 120.14458
#
# Poissons Ratio (x) = 0.01452 0.36295
# Poissons Ratio (y) = 0.02063 0.47137
# Poissons Ratio (z) = 0.31847 0.29110
#
# Static dielectric constant tensor:
#      x y z
#    x 1.796430 0.000000 0.000000 
#    y 0.000000 1.786050 0.000000 
#    z 0.000000 0.000000 1.753610 
# 
# From -- ./inp_files/37588.got.cif
#   From: 2010.05.17/outbox.cif.g08.bks.cpg/sg21_19_cif.got.tgz:37588.got - 2010.06.03 23:14:55.
