data_PCOD9322547
_publ_section_title
;
Structure prediction by ZEFSAII (Michael W. Deem and Ramdas Pophale) SiO2 
 PCOD9322547
Probable space group: C 2 2 2
;
_chemical_formula_sum "Si O2"
_cell_formula_units_Z 34
_cell_length_a 5.574911
_cell_length_b 24.884439
_cell_length_c 9.179851
_cell_angle_alpha 90.000000
_cell_angle_beta 90.000000
_cell_angle_gamma 90.000000
_cell_volume 1273.507260
_symmetry_space_group_name_H-M "C 2 2 2"
_symmetry_group_IT_number 21
_symmetry_cell_setting 'orthorhombic'
loop_
_space_group_symop_operation_xyz
x,y,z
-x,-y,z
x,-y,-z
-x,y,-z
1/2+x,1/2+y,z
1/2-x,1/2-y,z
1/2+x,1/2-y,-z
1/2-x,1/2+y,-z
loop_
_atom_site_type_symbol
_atom_site_label
_atom_site_fract_x
_atom_site_fract_y
_atom_site_fract_z
Si Si1 0.687946 0.076581 0.745269
Si Si2 0.992109 0.228253 0.165060
Si Si3 0.323985 0.392440 0.791322
Si Si4 0.000000 0.500000 0.500000
Si Si5 0.249245 0.835129 0.511824
O O1 0.437543 0.083638 0.832675
O O2 0.728333 0.133539 0.663588
O O3 0.947635 0.069258 0.818278
O O4 0.653485 0.034864 0.613732
O O5 0.750000 0.250000 0.240149
O O6 0.911450 0.165561 0.149502
O O7 0.250000 0.250000 0.225225
O O8 0.000000 0.251078 0.000000
O O9 0.277171 0.379591 0.618225
O O10 0.500000 0.807170 0.500000
O O11 0.000000 0.805618 0.500000
#
# Coordination Sequence:
#
# PCOD9322547 Si02
#       5
#     8   8   8   2   8
#     4  10  20  30  51  78 112 143 177 222 259 313
#     4  10  21  37  59  85 105 131 186 247 278 319
#     4  10  18  34  50  76 108 146 168 219 280 331
#     4  12  20  34  52  90 110 142 188 238 240 302
#     4   8  14  27  42  66  95 138 161 202 241 310
#
# _framework density 26.697922999999999
#
# number of rings (size 3 to 8) (size 9 to 14) (size 15 to 20)
#    0.000    2.353    3.529    1.412    0.000    1.882 
#    0.000    0.000    0.000   25.412    0.000    4.941 
#    0.000    0.000    0.000    0.000    0.000    0.000 
#
# Total GULP energy -94701.563638 kJ/mol
# GULP energy per Si atom -5570.680214 kJ/mol
# Density = 2.663716 g / cm^3
# Si number density = 26.697923 Si / 1000 Ang^3
#
#
#
# Elastic Constant Matrix: (Units=GPa)
#
#
# Indices 1 2 3 4 5 6 
#
# 1 384.7056 50.9236 39.1038 0.0000 0.0000 0.0000
# 2 50.9236 85.2181 3.3057 0.0000 0.0000 0.0000
# 3 39.1038 3.3057 66.3231 0.0000 0.0000 0.0000
# 4 0.0000 0.0000 0.0000 -9.4868 0.0000 0.0000
# 5 0.0000 0.0000 0.0000 0.0000 10.7675 0.0000
# 6 0.0000 0.0000 0.0000 0.0000 0.0000 15.3107
#
#
#
# Elastic Compliance Matrix: (Units=1/GPa)
#
#
# Indices 1 2 3 4 5 6 
#
# 1 0.002999 -0.001727 -0.001682 0.000000 0.000000 0.000000
# 2 -0.001727 0.012752 0.000383 0.000000 0.000000 0.000000
# 3 -0.001682 0.000383 0.016050 0.000000 0.000000 0.000000
# 4 0.000000 0.000000 0.000000 -0.105410 0.000000 0.000000
# 5 0.000000 0.000000 0.000000 0.000000 0.092872 0.000000
# 6 0.000000 0.000000 0.000000 0.000000 0.000000 0.065314
#
#
# Mechanical properties :
#
#
# Convention : Reuss Voigt Hill
#
# Bulk Modulus (GPa) = 38.83759 80.32366 59.58063
# Shear Modulus (GPa) = 50.39726 32.84588 41.62157
#
# Velocity S-wave (km/s) = 4.34946 3.51134 3.95268
# Velocity P-wave (km/s) = 6.30891 6.82574 6.57241
#
# Compressibility (1/GPa) = 0.02574825
#
# Stress axis : x y z
#
# Youngs Moduli (GPa) = 333.45016 78.42125 62.30376
#
# Poissons Ratio (x) = 0.13542 0.10480
# Poissons Ratio (y) = 0.57581 -0.02383
# Poissons Ratio (z) = 0.56090 -0.03000
#
# Static dielectric constant tensor:
#      x y z
#    x 2.277900 0.000000 0.000000 
#    y 0.000000 2.112920 0.000000 
#    z 0.000000 0.000000 2.131120 
# 
# From -- ./inp_files/21122.got.cif
#   From: 2010.05.17/outbox.cif.g08.bks.cpg/sg21_11_cif.got.tgz:21122.got - 2010.06.03 23:14:55.
