data_PCOD9322786
_publ_section_title
;
Structure prediction by ZEFSAII (Michael W. Deem and Ramdas Pophale) SiO2 
 PCOD9322786
Probable space group: C 2 2 2
;
_chemical_formula_sum "Si O2"
_cell_formula_units_Z 32
_cell_length_a 14.579653
_cell_length_b 17.452300
_cell_length_c 5.336257
_cell_angle_alpha 90.000000
_cell_angle_beta 90.000000
_cell_angle_gamma 90.000000
_cell_volume 1357.802472
_symmetry_space_group_name_H-M "C 2 2 2"
_symmetry_group_IT_number 21
_symmetry_cell_setting 'orthorhombic'
loop_
_space_group_symop_operation_xyz
x,y,z
-x,-y,z
x,-y,-z
-x,y,-z
1/2+x,1/2+y,z
1/2-x,1/2-y,z
1/2+x,1/2-y,-z
1/2-x,1/2+y,-z
loop_
_atom_site_type_symbol
_atom_site_label
_atom_site_fract_x
_atom_site_fract_y
_atom_site_fract_z
Si Si1 0.779655 0.052117 0.751658
Si Si2 0.353369 0.713580 0.664607
Si Si3 0.896272 0.590875 0.497097
Si Si4 0.354788 0.778513 0.158843
O O1 0.847177 0.124732 0.738715
O O2 0.680031 0.093854 0.720830
O O3 0.790706 0.000000 0.500000
O O4 0.785915 0.000000 0.000000
O O5 0.250000 0.750000 0.632790
O O6 0.393771 0.728589 0.390150
O O7 0.398935 0.760331 0.891667
O O8 0.906314 0.500000 0.500000
O O9 0.854240 0.635133 0.734995
O O10 0.000000 0.620718 0.500000
O O11 0.250000 0.750000 0.124384
#
# Coordination Sequence:
#
# PCOD9322786 Si02
#       4
#     8   8   8   8
#     4  11  22  36  57  82 116 154 192 235 290 347
#     4  10  19  33  55  78 103 145 192 247 277 316
#     4  10  22  38  54  83 124 162 189 224 285 357
#     4  10  19  35  56  76 105 152 195 242 273 321
#
# _framework density 23.567492000000001
#
# number of rings (size 3 to 8) (size 9 to 14) (size 15 to 20)
#    0.000    1.750    5.000    1.500   10.500    0.000 
#    0.000   18.750    0.000    0.000    0.000    0.000 
#    0.000   22.000    0.000    0.000    0.000    0.000 
#
# Total GULP energy -89131.429603 kJ/mol
# GULP energy per Si atom -5570.714350 kJ/mol
# Density = 2.351385 g / cm^3
# Si number density = 23.567492 Si / 1000 Ang^3
#
#
#
# Elastic Constant Matrix: (Units=GPa)
#
#
# Indices 1 2 3 4 5 6 
#
# 1 21.4646 9.4171 -13.3269 0.0000 0.0000 0.0000
# 2 9.4171 168.2165 52.2706 0.0000 0.0000 0.0000
# 3 -13.3269 52.2706 191.0936 0.0000 0.0000 0.0000
# 4 0.0000 0.0000 0.0000 42.7185 0.0000 0.0000
# 5 0.0000 0.0000 0.0000 0.0000 12.2662 0.0000
# 6 0.0000 0.0000 0.0000 0.0000 0.0000 21.2534
#
#
#
# Elastic Compliance Matrix: (Units=1/GPa)
#
#
# Indices 1 2 3 4 5 6 
#
# 1 0.051476 -0.004369 0.004785 0.000000 0.000000 0.000000
# 2 -0.004369 0.006868 -0.002183 0.000000 0.000000 0.000000
# 3 0.004785 -0.002183 0.006164 0.000000 0.000000 0.000000
# 4 0.000000 0.000000 0.000000 0.023409 0.000000 0.000000
# 5 0.000000 0.000000 0.000000 0.000000 0.081525 0.000000
# 6 0.000000 0.000000 0.000000 0.000000 0.000000 0.047051
#
#
# Mechanical properties :
#
#
# Convention : Reuss Voigt Hill
#
# Bulk Modulus (GPa) = 16.40053 53.05515 34.72784
# Shear Modulus (GPa) = 20.80293 37.40855 29.10574
#
# Velocity S-wave (km/s) = 2.97424 3.98841 3.51806
# Velocity P-wave (km/s) = 4.33231 6.61595 5.59194
#
# Compressibility (1/GPa) = 0.06097365
#
# Stress axis : x y z
#
# Youngs Moduli (GPa) = 19.42660 145.60965 162.23453
#
# Poissons Ratio (x) = 0.63610 -0.77627
# Poissons Ratio (y) = 0.08487 0.35419
# Poissons Ratio (z) = -0.09295 0.31790
#
# Static dielectric constant tensor:
#      x y z
#    x 1.985250 0.000000 0.000000 
#    y 0.000000 1.893530 0.000000 
#    z 0.000000 0.000000 1.989300 
# 
# From -- ./inp_files/3402.got.cif
#   From: 2010.05.17/outbox.cif.g08.bks.cpg/sg21_2_cif.got.tgz:3402.got - 2010.06.03 23:14:55.
