data_PCOD9322484
_publ_section_title
;
Structure prediction by ZEFSAII (Michael W. Deem and Ramdas Pophale) SiO2 
 PCOD9322484
Probable space group: C 2 2 2
;
_chemical_formula_sum "Si O2"
_cell_formula_units_Z 48
_cell_length_a 8.081114
_cell_length_b 19.094508
_cell_length_c 18.296071
_cell_angle_alpha 90.000000
_cell_angle_beta 90.000000
_cell_angle_gamma 90.000000
_cell_volume 2823.173331
_symmetry_space_group_name_H-M "C 2 2 2"
_symmetry_group_IT_number 21
_symmetry_cell_setting 'orthorhombic'
loop_
_space_group_symop_operation_xyz
x,y,z
-x,-y,z
x,-y,-z
-x,y,-z
1/2+x,1/2+y,z
1/2-x,1/2-y,z
1/2+x,1/2-y,-z
1/2-x,1/2+y,-z
loop_
_atom_site_type_symbol
_atom_site_label
_atom_site_fract_x
_atom_site_fract_y
_atom_site_fract_z
Si Si1 0.111230 0.805816 0.930443
Si Si2 0.302456 0.668775 0.153809
Si Si3 0.939719 0.335285 0.581611
Si Si4 0.250102 0.164947 0.678739
Si Si5 0.560183 0.335228 0.581489
Si Si6 0.807100 0.419584 0.015933
O O1 0.250000 0.750000 0.911649
O O2 0.200171 0.873744 0.961036
O O3 0.996866 0.826243 0.863075
O O4 0.000000 0.779457 0.000000
O O5 0.250000 0.750000 0.140254
O O6 0.256824 0.648132 0.235710
O O7 0.229500 0.614259 0.095162
O O8 0.749910 0.358568 0.594856
O O9 0.936839 0.250034 0.583951
O O10 0.000000 0.354451 0.500000
O O11 0.081705 0.358690 0.638337
O O12 0.250000 0.250000 0.674186
O O13 0.082889 0.141230 0.637423
O O14 0.500000 0.354390 0.500000
O O15 0.764825 0.500000 0.000000
O O16 0.000000 0.410729 0.000000
#
# Coordination Sequence:
#
# PCOD9322484 Si02
#       6
#     8   8   8   8   8   8
#     4  10  18  31  51  71  95 127 162 200 252 311
#     4  10  20  33  47  70 104 132 162 211 259 300
#     4   9  14  22  38  55  81 125 166 207 238 281
#     4   9  17  28  37  59  93 127 166 205 246 289
#     4   9  14  22  37  56  82 120 172 205 234 288
#     4  10  20  35  55  74  92 124 167 208 249 308
#
# _framework density 17.002143
#
# number of rings (size 3 to 8) (size 9 to 14) (size 15 to 20)
#    0.000    2.500    1.667    3.500    0.000    3.000 
#   12.000    0.000    0.000    0.000    0.000    0.000 
#    0.000    0.000    0.000   18.000    0.000   16.000 
#
# Total GULP energy -133656.083792 kJ/mol
# GULP energy per Si atom -5569.003491 kJ/mol
# Density = 1.696345 g / cm^3
# Si number density = 17.002143 Si / 1000 Ang^3
#
#
#
# Elastic Constant Matrix: (Units=GPa)
#
#
# Indices 1 2 3 4 5 6 
#
# 1 153.8973 42.4611 79.8631 0.0000 0.0000 0.0000
# 2 42.4611 41.5661 54.3843 0.0000 0.0000 0.0000
# 3 79.8631 54.3843 122.4537 0.0000 0.0000 0.0000
# 4 0.0000 0.0000 0.0000 -20.8694 0.0000 0.0000
# 5 0.0000 0.0000 0.0000 0.0000 -3.7782 0.0000
# 6 0.0000 0.0000 0.0000 0.0000 0.0000 17.6775
#
#
#
# Elastic Compliance Matrix: (Units=1/GPa)
#
#
# Indices 1 2 3 4 5 6 
#
# 1 0.010101 -0.004056 -0.004786 0.000000 0.000000 0.000000
# 2 -0.004056 0.059058 -0.023583 0.000000 0.000000 0.000000
# 3 -0.004786 -0.023583 0.021762 0.000000 0.000000 0.000000
# 4 0.000000 0.000000 0.000000 -0.047917 0.000000 0.000000
# 5 0.000000 0.000000 0.000000 0.000000 -0.264676 0.000000
# 6 0.000000 0.000000 0.000000 0.000000 0.000000 0.056569
#
#
# Mechanical properties :
#
#
# Convention : Reuss Voigt Hill
#
# Bulk Modulus (GPa) = 38.36014 74.59269 56.47641
# Shear Modulus (GPa) = -54.60692 8.01989 -23.29352
#
# Velocity S-wave (km/s) = -5.67339 2.17422 -3.70541
# Velocity P-wave (km/s) = 4.50617 7.09019 3.87073
#
# Compressibility (1/GPa) = 0.02606873
#
# Stress axis : x y z
#
# Youngs Moduli (GPa) = 99.00370 16.93263 45.95209
#
# Poissons Ratio (x) = 0.06868 0.21994
# Poissons Ratio (y) = 0.40155 1.08371
# Poissons Ratio (z) = 0.47385 0.39933
#
# Static dielectric constant tensor:
#      x y z
#    x 1.627340 0.000000 0.000000 
#    y 0.000000 1.853540 0.000000 
#    z 0.000000 0.000000 1.570630 
# 
# From -- ./inp_files/35851.got.cif
#   From: 2010.05.17/outbox.cif.g08.bks.cpg/sg21_18_cif.got.tgz:35851.got - 2010.06.03 23:14:55.
