data_PCOD9322036
_publ_section_title
;
Structure prediction by ZEFSAII (Michael W. Deem and Ramdas Pophale) SiO2 
 PCOD9322036
Probable space group: C 2 2 21
;
_chemical_formula_sum "Si O2"
_cell_formula_units_Z 24
_cell_length_a 18.299811
_cell_length_b 5.008276
_cell_length_c 10.971205
_cell_angle_alpha 90.000000
_cell_angle_beta 90.000000
_cell_angle_gamma 90.000000
_cell_volume 1005.516470
_symmetry_space_group_name_H-M "C 2 2 21"
_symmetry_group_IT_number 20
_symmetry_cell_setting 'orthorhombic'
loop_
_space_group_symop_operation_xyz
x,y,z
-x,-y,1/2+z
x,-y,-z
-x,y,1/2-z
1/2+x,1/2+y,z
1/2-x,1/2-y,1/2+z
1/2+x,1/2-y,-z
1/2-x,1/2+y,1/2-z
loop_
_atom_site_type_symbol
_atom_site_label
_atom_site_fract_x
_atom_site_fract_y
_atom_site_fract_z
Si Si1 0.550865 0.871551 0.138326
Si Si2 0.140864 0.500000 0.500000
Si Si3 0.205810 0.736857 0.736779
Si Si4 0.541408 0.500000 0.500000
O O1 0.500000 0.988023 0.250000
O O2 0.632797 0.816574 0.184804
O O3 0.509353 0.596241 0.109048
O O4 0.554029 0.000000 0.000000
O O5 0.188968 0.615927 0.605942
O O6 0.090358 0.748710 0.462966
O O7 0.271804 0.544349 0.778746
#
# Coordination Sequence:
#
# PCOD9322036 Si02
#       4
#     8   4   8   4
#     4  12  28  51  86 121 160 210 274 335 401 481
#     4  12  26  51  76 113 164 206 264 340 406 465
#     4  12  30  49  78 114 161 212 264 329 405 479
#     4  12  24  47  80 115 152 202 270 326 396 463
#
# _framework density 23.86833
#
# number of rings (size 3 to 8) (size 9 to 14) (size 15 to 20)
#    0.000    0.000    5.000    2.000    9.333    1.333 
#    0.000    0.000    0.000    0.000    0.000    0.000 
#    0.000    0.000    0.000    0.000    0.000    0.000 
#
# Total GULP energy -67052.092187 kJ/mol
# GULP energy per Si atom -5587.674349 kJ/mol
# Density = 2.381401 g / cm^3
# Si number density = 23.868330 Si / 1000 Ang^3
#
#
#
# Elastic Constant Matrix: (Units=GPa)
#
#
# Indices 1 2 3 4 5 6 
#
# 1 97.3991 5.0761 20.2465 0.0000 0.0000 0.0000
# 2 5.0761 91.0861 4.9357 0.0000 0.0000 0.0000
# 3 20.2465 4.9357 123.3677 0.0000 0.0000 0.0000
# 4 0.0000 0.0000 0.0000 41.0473 0.0000 0.0000
# 5 0.0000 0.0000 0.0000 0.0000 82.8098 0.0000
# 6 0.0000 0.0000 0.0000 0.0000 0.0000 33.1623
#
#
#
# Elastic Compliance Matrix: (Units=1/GPa)
#
#
# Indices 1 2 3 4 5 6 
#
# 1 0.010652 -0.000500 -0.001728 0.000000 0.000000 0.000000
# 2 -0.000500 0.011026 -0.000359 0.000000 0.000000 0.000000
# 3 -0.001728 -0.000359 0.008404 0.000000 0.000000 0.000000
# 4 0.000000 0.000000 0.000000 0.024362 0.000000 0.000000
# 5 0.000000 0.000000 0.000000 0.000000 0.012076 0.000000
# 6 0.000000 0.000000 0.000000 0.000000 0.000000 0.030155
#
#
# Mechanical properties :
#
#
# Convention : Reuss Voigt Hill
#
# Bulk Modulus (GPa) = 40.14843 41.37440 40.76141
# Shear Modulus (GPa) = 45.39185 50.17685 47.78435
#
# Velocity S-wave (km/s) = 4.36565 4.58999 4.47922
# Velocity P-wave (km/s) = 6.50147 6.74260 6.62314
#
# Compressibility (1/GPa) = 0.02490758
#
# Stress axis : x y z
#
# Youngs Moduli (GPa) = 93.87607 90.69522 118.99322
#
# Poissons Ratio (x) = 0.04535 0.20564
# Poissons Ratio (y) = 0.04694 0.04273
# Poissons Ratio (z) = 0.16224 0.03257
#
# Static dielectric constant tensor:
#      x y z
#    x 1.979650 0.000000 0.000000 
#    y 0.000000 1.936140 0.000000 
#    z 0.000000 0.000000 1.958900 
# 
# From -- ./inp_files/15460.got.cif
#   From: 2010.05.17/outbox.cif.g08.bks.cpg/sg20_8_cif.got.tgz:15460.got - 2010.06.03 22:52:26.
