data_PCOD9322618
_publ_section_title
;
Structure prediction by ZEFSAII (Michael W. Deem and Ramdas Pophale) SiO2 
 PCOD9322618
Probable space group: C 2 2 2
;
_chemical_formula_sum "Si O2"
_cell_formula_units_Z 58
_cell_length_a 23.280419
_cell_length_b 13.540433
_cell_length_c 9.263388
_cell_angle_alpha 90.000000
_cell_angle_beta 90.000000
_cell_angle_gamma 90.000000
_cell_volume 2920.069580
_symmetry_space_group_name_H-M "C 2 2 2"
_symmetry_group_IT_number 21
_symmetry_cell_setting 'orthorhombic'
loop_
_space_group_symop_operation_xyz
x,y,z
-x,-y,z
x,-y,-z
-x,y,-z
1/2+x,1/2+y,z
1/2-x,1/2-y,z
1/2+x,1/2-y,-z
1/2-x,1/2+y,-z
loop_
_atom_site_type_symbol
_atom_site_label
_atom_site_fract_x
_atom_site_fract_y
_atom_site_fract_z
Si Si1 0.891976 0.116499 0.022549
Si Si2 0.281026 0.356130 0.790897
Si Si3 0.412231 0.742109 0.734982
Si Si4 0.147305 0.226251 0.546464
Si Si5 0.500000 0.500000 0.500000
Si Si6 0.435756 0.026328 0.327517
Si Si7 0.460365 0.333886 0.695344
Si Si8 0.681558 0.062825 0.355413
O O1 0.827743 0.125218 0.086467
O O2 0.936754 0.151061 0.145045
O O3 0.898762 0.189775 0.886858
O O4 0.903587 0.000000 0.000000
O O5 0.250000 0.250000 0.816159
O O6 0.318393 0.351832 0.642322
O O7 0.231991 0.436497 0.761771
O O8 0.363912 0.708420 0.620489
O O9 0.419673 0.860740 0.714571
O O10 0.474815 0.701719 0.692192
O O11 0.083691 0.237598 0.614715
O O12 0.178909 0.327539 0.579446
O O13 0.460535 0.434377 0.603629
O O14 0.500000 0.000000 0.272357
O O15 0.437762 0.000000 0.500000
O O16 0.379454 0.964238 0.282887
O O17 0.691238 0.000000 0.500000
#
# Coordination Sequence:
#
# PCOD9322618 Si02
#       8
#     8   8   8   8   2   8   8   8
#     4  11  26  45  60  89 138 183 234 284 346 421
#     4   9  22  43  64  83 125 177 219 288 342 394
#     4  12  21  38  65  98 136 179 212 283 355 422
#     4  10  19  37  62  95 124 165 218 269 333 411
#     4  12  20  32  62  92 110 164 238 280 322 396
#     4  10  20  34  65 111 141 162 214 283 353 426
#     4  11  23  37  60  92 129 172 220 274 346 407
#     4  10  18  36  63  96 129 156 214 280 345 385
#
# _framework density 19.862539000000002
#
# number of rings (size 3 to 8) (size 9 to 14) (size 15 to 20)
#    0.000    1.517    4.138    2.069    1.931    1.655 
#    4.966    2.069    0.000   11.586    0.000    0.000 
#    0.000    0.000    0.000    0.000    0.000    0.000 
#
# Total GULP energy -161655.497651 kJ/mol
# GULP energy per Si atom -5574.327505 kJ/mol
# Density = 1.981733 g / cm^3
# Si number density = 19.862539 Si / 1000 Ang^3
#
#
#
# Elastic Constant Matrix: (Units=GPa)
#
#
# Indices 1 2 3 4 5 6 
#
# 1 90.9256 5.6549 10.9583 0.0000 0.0000 0.0000
# 2 5.6549 59.3293 34.4406 0.0000 0.0000 0.0000
# 3 10.9583 34.4406 94.5847 0.0000 0.0000 0.0000
# 4 0.0000 0.0000 0.0000 24.8046 0.0000 0.0000
# 5 0.0000 0.0000 0.0000 0.0000 19.1585 0.0000
# 6 0.0000 0.0000 0.0000 0.0000 0.0000 26.4588
#
#
#
# Elastic Compliance Matrix: (Units=1/GPa)
#
#
# Indices 1 2 3 4 5 6 
#
# 1 0.011161 -0.000397 -0.001149 0.000000 0.000000 0.000000
# 2 -0.000397 0.021387 -0.007741 0.000000 0.000000 0.000000
# 3 -0.001149 -0.007741 0.013524 0.000000 0.000000 0.000000
# 4 0.000000 0.000000 0.000000 0.040315 0.000000 0.000000
# 5 0.000000 0.000000 0.000000 0.000000 0.052196 0.000000
# 6 0.000000 0.000000 0.000000 0.000000 0.000000 0.037795
#
#
# Mechanical properties :
#
#
# Convention : Reuss Voigt Hill
#
# Bulk Modulus (GPa) = 36.36592 38.54970 37.45781
# Shear Modulus (GPa) = 24.49557 27.00343 25.74950
#
# Velocity S-wave (km/s) = 3.51558 3.69116 3.60444
# Velocity P-wave (km/s) = 5.90149 6.13324 6.01848
#
# Compressibility (1/GPa) = 0.02749827
#
# Stress axis : x y z
#
# Youngs Moduli (GPa) = 89.59679 46.75772 73.94014
#
# Poissons Ratio (x) = 0.01857 0.08492
# Poissons Ratio (y) = 0.03558 0.57241
# Poissons Ratio (z) = 0.10290 0.36197
#
# Static dielectric constant tensor:
#      x y z
#    x 1.736640 0.000000 0.000000 
#    y 0.000000 1.769690 0.000000 
#    z 0.000000 0.000000 1.722800 
# 
# From -- ./inp_files/18609.got.cif
#   From: 2010.05.17/outbox.cif.g08.bks.cpg/sg21_10_cif.got.tgz:18609.got - 2010.06.03 23:14:55.
