data_PCOD9322398
_publ_section_title
;
Structure prediction by ZEFSAII (Michael W. Deem and Ramdas Pophale) SiO2 
 PCOD9322398
Probable space group: C 2 2 2
;
_chemical_formula_sum "Si O2"
_cell_formula_units_Z 64
_cell_length_a 12.349769
_cell_length_b 32.012600
_cell_length_c 7.434767
_cell_angle_alpha 90.000000
_cell_angle_beta 90.000000
_cell_angle_gamma 90.000000
_cell_volume 2939.321863
_symmetry_space_group_name_H-M "C 2 2 2"
_symmetry_group_IT_number 21
_symmetry_cell_setting 'orthorhombic'
loop_
_space_group_symop_operation_xyz
x,y,z
-x,-y,z
x,-y,-z
-x,y,-z
1/2+x,1/2+y,z
1/2-x,1/2-y,z
1/2+x,1/2-y,-z
1/2-x,1/2+y,-z
loop_
_atom_site_type_symbol
_atom_site_label
_atom_site_fract_x
_atom_site_fract_y
_atom_site_fract_z
Si Si1 0.624798 0.873627 0.220106
Si Si2 0.268858 0.703636 0.213215
Si Si3 0.231142 0.796364 0.786785
Si Si4 0.875202 0.373627 0.220106
Si Si5 0.237680 0.046290 0.780135
Si Si6 0.737680 0.546290 0.219865
Si Si7 0.500000 0.432229 0.205431
Si Si8 0.000000 0.835945 0.287785
O O1 0.690099 0.832768 0.282817
O O2 0.500000 0.873092 0.275361
O O3 0.687242 0.915475 0.278173
O O4 0.626654 0.873579 0.000000
O O5 0.250000 0.750000 0.287629
O O6 0.190099 0.667232 0.282817
O O7 0.391946 0.688823 0.237139
O O8 0.246944 0.705842 0.000000
O O9 0.250000 0.750000 0.712372
O O10 0.108054 0.811177 0.762862
O O11 0.812758 0.415475 0.278173
O O12 0.114187 0.053138 0.716251
O O13 0.275325 1.000000 0.728957
O O14 0.235715 0.047938 1.000000
O O15 0.614187 0.553138 0.283748
O O16 0.500000 0.381953 0.203330
O O17 0.500000 0.447757 0.000000
O O18 0.000000 0.842470 0.500000
#
# Coordination Sequence:
#
# PCOD9322398 Si02
#       8
#     8   8   8   8   8   8   8   8
#     4   9  17  29  47  77 111 138 174 226 276 327
#     4  10  21  37  60  84 108 142 185 230 275 325
#     4  10  21  37  60  84 108 142 185 230 275 325
#     4   9  17  29  47  77 111 138 174 226 276 327
#     4   9  16  26  46  77 110 141 175 225 284 333
#     4   9  16  26  46  77 110 141 175 225 284 333
#     4  10  17  32  54  78 108 142 188 229 271 325
#     4  12  24  37  57  83 116 148 181 225 280 330
#
# _framework density 21.773728999999999
#
# number of rings (size 3 to 8) (size 9 to 14) (size 15 to 20)
#    0.000    2.250    2.500    1.500    1.750    2.500 
#    0.000    2.500    0.000    1.500    0.000    0.000 
#    0.000    2.000    0.000    0.000    0.000    0.000 
#
# Total GULP energy -178814.383269 kJ/mol
# GULP energy per Si atom -5587.949477 kJ/mol
# Density = 2.172417 g / cm^3
# Si number density = 21.773729 Si / 1000 Ang^3
#
#
#
# Elastic Constant Matrix: (Units=GPa)
#
#
# Indices 1 2 3 4 5 6 
#
# 1 184.1258 132.1336 -11.8033 0.0000 0.0000 0.0000
# 2 132.1336 233.4498 16.0700 0.0000 0.0000 0.0000
# 3 -11.8033 16.0700 62.5293 0.0000 0.0000 0.0000
# 4 0.0000 0.0000 0.0000 -25.5280 0.0000 0.0000
# 5 0.0000 0.0000 0.0000 0.0000 42.1363 0.0000
# 6 0.0000 0.0000 0.0000 0.0000 0.0000 126.3831
#
#
#
# Elastic Compliance Matrix: (Units=1/GPa)
#
#
# Indices 1 2 3 4 5 6 
#
# 1 0.009782 -0.005766 0.003328 0.000000 0.000000 0.000000
# 2 -0.005766 0.007759 -0.003083 0.000000 0.000000 0.000000
# 3 0.003328 -0.003083 0.017413 0.000000 0.000000 0.000000
# 4 0.000000 0.000000 0.000000 -0.039173 0.000000 0.000000
# 5 0.000000 0.000000 0.000000 0.000000 0.023733 0.000000
# 6 0.000000 0.000000 0.000000 0.000000 0.000000 0.007912
#
#
# Mechanical properties :
#
#
# Convention : Reuss Voigt Hill
#
# Bulk Modulus (GPa) = 41.81587 83.65617 62.73602
# Shear Modulus (GPa) = 107.66979 51.51192 79.59085
#
# Velocity S-wave (km/s) = 7.03966 4.86921 6.05252
# Velocity P-wave (km/s) = 9.23700 8.37355 8.81585
#
# Compressibility (1/GPa) = 0.02391437
#
# Stress axis : x y z
#
# Youngs Moduli (GPa) = 102.22680 128.87803 57.42839
#
# Poissons Ratio (x) = 0.74309 -0.19114
# Poissons Ratio (y) = 0.58943 0.17702
# Poissons Ratio (z) = -0.34025 0.39727
#
# Static dielectric constant tensor:
#      x y z
#    x 1.749420 0.000000 0.000000 
#    y 0.000000 1.774110 0.000000 
#    z 0.000000 0.000000 1.805790 
# 
# From -- ./inp_files/13676.got.cif
#   From: 2010.05.17/outbox.cif.g08.bks.cpg/sg21_7_cif.got.tgz:13676.got - 2010.06.03 23:14:55.
