data_PCOD9322896
_publ_section_title
;
Structure prediction by ZEFSAII (Michael W. Deem and Ramdas Pophale) SiO2 
 PCOD9322896
Probable space group: C 2 2 2
;
_chemical_formula_sum "Si O2"
_cell_formula_units_Z 40
_cell_length_a 13.967216
_cell_length_b 6.999152
_cell_length_c 14.509660
_cell_angle_alpha 90.000000
_cell_angle_beta 90.000000
_cell_angle_gamma 90.000000
_cell_volume 1418.445032
_symmetry_space_group_name_H-M "C 2 2 2"
_symmetry_group_IT_number 21
_symmetry_cell_setting 'orthorhombic'
loop_
_space_group_symop_operation_xyz
x,y,z
-x,-y,z
x,-y,-z
-x,y,-z
1/2+x,1/2+y,z
1/2-x,1/2-y,z
1/2+x,1/2-y,-z
1/2-x,1/2+y,-z
loop_
_atom_site_type_symbol
_atom_site_label
_atom_site_fract_x
_atom_site_fract_y
_atom_site_fract_z
Si Si1 0.888921 0.831604 0.789289
Si Si2 0.250000 0.750000 0.692381
Si Si3 0.913624 0.712548 0.185699
Si Si4 0.859381 0.222785 0.004897
Si Si5 0.250000 0.750000 0.370332
Si Si6 0.609905 0.728177 0.480988
O O1 0.859557 0.736604 0.886289
O O2 0.819820 0.848002 0.702291
O O3 0.982902 0.705656 0.765693
O O4 0.902069 0.055702 0.810060
O O5 0.181942 0.633090 0.766215
O O6 0.337341 0.735006 0.617422
O O7 0.918349 0.672931 0.075982
O O8 0.750000 0.250000 0.974152
O O9 0.886408 0.000000 0.000000
O O10 0.325671 0.835831 0.442220
O O11 0.614443 0.500000 0.500000
O O12 0.500000 0.781912 0.500000
#
# Coordination Sequence:
#
# PCOD9322896 Si02
#       6
#     8   4   8   8   4   8
#     4  10  20  35  58  86 115 152 198 239 278 338
#     4  11  20  33  60  86 110 139 184 241 298 338
#     4  10  20  35  58  86 115 152 198 239 278 338
#     4  10  19  35  59  88 122 162 201 243 289 342
#     4  11  20  33  60  86 110 139 184 241 298 338
#     4  10  22  40  60  82 108 142 188 240 294 356
#
# _framework density 28.199891999999998
#
# number of rings (size 3 to 8) (size 9 to 14) (size 15 to 20)
#    0.000    1.800    2.000    3.000    0.000    5.600 
#    0.000    0.000    0.000   56.400    0.000    0.000 
#    0.000    0.000    0.000    0.000    0.000    0.000 
#
# Total GULP energy -111466.073658 kJ/mol
# GULP energy per Si atom -5573.303683 kJ/mol
# Density = 2.813571 g / cm^3
# Si number density = 28.199892 Si / 1000 Ang^3
#
#
#
# Elastic Constant Matrix: (Units=GPa)
#
#
# Indices 1 2 3 4 5 6 
#
# 1 231.6772 3.1555 87.9978 0.0000 0.0000 0.0000
# 2 3.1555 106.3454 33.0310 0.0000 0.0000 0.0000
# 3 87.9978 33.0310 242.5538 0.0000 0.0000 0.0000
# 4 0.0000 0.0000 0.0000 26.8378 0.0000 0.0000
# 5 0.0000 0.0000 0.0000 0.0000 33.2359 0.0000
# 6 0.0000 0.0000 0.0000 0.0000 0.0000 18.0879
#
#
#
# Elastic Compliance Matrix: (Units=1/GPa)
#
#
# Indices 1 2 3 4 5 6 
#
# 1 0.005025 0.000436 -0.001883 0.000000 0.000000 0.000000
# 2 0.000436 0.009856 -0.001500 0.000000 0.000000 0.000000
# 3 -0.001883 -0.001500 0.005010 0.000000 0.000000 0.000000
# 4 0.000000 0.000000 0.000000 0.037261 0.000000 0.000000
# 5 0.000000 0.000000 0.000000 0.000000 0.030088 0.000000
# 6 0.000000 0.000000 0.000000 0.000000 0.000000 0.055285
#
#
# Mechanical properties :
#
#
# Convention : Reuss Voigt Hill
#
# Bulk Modulus (GPa) = 71.44134 92.10500 81.77317
# Shear Modulus (GPa) = 32.66126 46.05847 39.35986
#
# Velocity S-wave (km/s) = 3.40693 4.04578 3.74002
# Velocity P-wave (km/s) = 6.39259 7.38626 6.90731
#
# Compressibility (1/GPa) = 0.01399750
#
# Stress axis : x y z
#
# Youngs Moduli (GPa) = 198.98671 101.45707 199.59744
#
# Poissons Ratio (x) = -0.04419 0.37575
# Poissons Ratio (y) = -0.08668 0.29945
# Poissons Ratio (z) = 0.37460 0.15221
#
# Static dielectric constant tensor:
#      x y z
#    x 2.283070 0.000000 0.000000 
#    y 0.000000 1.781950 0.000000 
#    z 0.000000 0.000000 2.114140 
# 
# From -- ./inp_files/31416.got.cif
#   From: 2010.05.17/outbox.cif.g08.bks.cpg/sg21_16_cif.got.tgz:31416.got - 2010.06.03 23:14:55.
