data_PCOD9322616
_publ_section_title
;
Structure prediction by ZEFSAII (Michael W. Deem and Ramdas Pophale) SiO2 
 PCOD9322616
Probable space group: C 2 2 2
;
_chemical_formula_sum "Si O2"
_cell_formula_units_Z 64
_cell_length_a 12.149823
_cell_length_b 31.028186
_cell_length_c 7.935554
_cell_angle_alpha 90.000000
_cell_angle_beta 90.000000
_cell_angle_gamma 90.000000
_cell_volume 2991.600441
_symmetry_space_group_name_H-M "C 2 2 2"
_symmetry_group_IT_number 21
_symmetry_cell_setting 'orthorhombic'
loop_
_space_group_symop_operation_xyz
x,y,z
-x,-y,z
x,-y,-z
-x,y,-z
1/2+x,1/2+y,z
1/2-x,1/2-y,z
1/2+x,1/2-y,-z
1/2-x,1/2+y,-z
loop_
_atom_site_type_symbol
_atom_site_label
_atom_site_fract_x
_atom_site_fract_y
_atom_site_fract_z
Si Si1 0.905287 0.561318 0.771447
Si Si2 0.546643 0.674240 0.248237
Si Si3 0.850007 0.861941 0.585367
Si Si4 0.868248 0.338537 0.273786
Si Si5 0.770362 0.046011 0.512081
Si Si6 0.346983 0.932888 0.853036
Si Si7 0.226241 0.335421 0.092492
Si Si8 0.954470 0.725027 0.192547
O O1 0.912156 0.613097 0.748377
O O2 0.837494 0.544110 0.611689
O O3 0.033068 0.549985 0.794750
O O4 0.841323 0.553382 0.949211
O O5 0.599434 0.658958 0.421582
O O6 0.428193 0.650823 0.257897
O O7 0.642919 0.662528 0.117058
O O8 0.535907 0.725545 0.242333
O O9 0.728248 0.842429 0.593583
O O10 0.837260 0.913034 0.557577
O O11 0.964202 0.304850 0.300253
O O12 0.805524 0.327542 0.100558
O O13 0.736035 0.052919 0.706564
O O14 0.828044 0.000000 0.500000
O O15 0.331259 0.880837 0.858276
O O16 0.166170 0.296570 0.192018
O O17 0.000000 0.721818 0.000000
#
# Coordination Sequence:
#
# PCOD9322616 Si02
#       8
#     8   8   8   8   8   8   8   8
#     4   9  19  35  62  96 126 169 202 248 327 400
#     4  11  23  41  57  85 125 161 216 261 299 363
#     4  10  24  44  58  83 124 166 210 257 322 383
#     4   9  19  38  63  89 123 164 208 252 310 381
#     4  11  23  41  64  92 122 161 215 274 325 389
#     4  10  18  36  63  91 133 167 201 255 323 398
#     4  10  19  37  64  89 123 168 210 253 313 370
#     4  10  21  38  64  96 124 162 214 259 307 373
#
# _framework density 21.393229999999999
#
# number of rings (size 3 to 8) (size 9 to 14) (size 15 to 20)
#    0.000    2.000    2.500    0.750    1.750    2.000 
#    9.000    2.500    0.000    0.000    0.000    0.000 
#    0.000    0.000    0.000    0.000    0.000    0.000 
#
# Total GULP energy -178520.977135 kJ/mol
# GULP energy per Si atom -5578.780535 kJ/mol
# Density = 2.134454 g / cm^3
# Si number density = 21.393230 Si / 1000 Ang^3
#
#
#
# Elastic Constant Matrix: (Units=GPa)
#
#
# Indices 1 2 3 4 5 6 
#
# 1 35.3112 18.1622 16.5206 0.0000 0.0000 0.0000
# 2 18.1622 101.3955 28.5991 0.0000 0.0000 0.0000
# 3 16.5206 28.5991 71.3649 0.0000 0.0000 0.0000
# 4 0.0000 0.0000 0.0000 68.5132 0.0000 0.0000
# 5 0.0000 0.0000 0.0000 0.0000 27.0404 0.0000
# 6 0.0000 0.0000 0.0000 0.0000 0.0000 12.0604
#
#
#
# Elastic Compliance Matrix: (Units=1/GPa)
#
#
# Indices 1 2 3 4 5 6 
#
# 1 0.033327 -0.004277 -0.006001 0.000000 0.000000 0.000000
# 2 -0.004277 0.011668 -0.003686 0.000000 0.000000 0.000000
# 3 -0.006001 -0.003686 0.016879 0.000000 0.000000 0.000000
# 4 0.000000 0.000000 0.000000 0.014596 0.000000 0.000000
# 5 0.000000 0.000000 0.000000 0.000000 0.036982 0.000000
# 6 0.000000 0.000000 0.000000 0.000000 0.000000 0.082916
#
#
# Mechanical properties :
#
#
# Convention : Reuss Voigt Hill
#
# Bulk Modulus (GPa) = 29.45838 37.18172 33.32005
# Shear Modulus (GPa) = 21.22143 31.17543 26.19843
#
# Velocity S-wave (km/s) = 3.15297 3.82154 3.50324
# Velocity P-wave (km/s) = 5.20142 6.07372 5.65442
#
# Compressibility (1/GPa) = 0.03394619
#
# Stress axis : x y z
#
# Youngs Moduli (GPa) = 30.00561 85.70383 59.24598
#
# Poissons Ratio (x) = 0.36656 0.35554
# Poissons Ratio (y) = 0.12833 0.21837
# Poissons Ratio (z) = 0.18007 0.31589
#
# Static dielectric constant tensor:
#      x y z
#    x 1.802850 0.000000 0.000000 
#    y 0.000000 1.775730 0.000000 
#    z 0.000000 0.000000 1.820300 
# 
# From -- ./inp_files/13663.got.cif
#   From: 2010.05.17/outbox.cif.g08.bks.cpg/sg21_7_cif.got.tgz:13663.got - 2010.06.03 23:14:55.
