data_PCOD9322755
_publ_section_title
;
Structure prediction by ZEFSAII (Michael W. Deem and Ramdas Pophale) SiO2 
 PCOD9322755
Probable space group: C 2 2 2
;
_chemical_formula_sum "Si O2"
_cell_formula_units_Z 58
_cell_length_a 24.126683
_cell_length_b 14.409883
_cell_length_c 9.090033
_cell_angle_alpha 90.000000
_cell_angle_beta 90.000000
_cell_angle_gamma 90.000000
_cell_volume 3160.265227
_symmetry_space_group_name_H-M "C 2 2 2"
_symmetry_group_IT_number 21
_symmetry_cell_setting 'orthorhombic'
loop_
_space_group_symop_operation_xyz
x,y,z
-x,-y,z
x,-y,-z
-x,y,-z
1/2+x,1/2+y,z
1/2-x,1/2-y,z
1/2+x,1/2-y,-z
1/2-x,1/2+y,-z
loop_
_atom_site_type_symbol
_atom_site_label
_atom_site_fract_x
_atom_site_fract_y
_atom_site_fract_z
Si Si1 0.404535 0.094388 0.672207
Si Si2 0.134878 0.569911 0.860760
Si Si3 0.205985 0.675508 0.370671
Si Si4 0.500000 0.000000 0.500000
Si Si5 0.334157 0.311202 0.874980
Si Si6 0.801572 0.970202 0.659461
Si Si7 0.757441 0.907112 0.101107
Si Si8 0.436095 0.793278 0.031090
O O1 0.356520 0.149208 0.581107
O O2 0.459264 0.066596 0.588431
O O3 0.376924 0.997657 0.725563
O O4 0.425255 0.148852 0.818042
O O5 0.194889 0.617794 0.856159
O O6 0.087705 0.643900 0.898097
O O7 0.135651 0.500000 0.000000
O O8 0.250000 0.750000 0.439797
O O9 0.190131 0.722111 0.212827
O O10 0.242339 0.582848 0.358120
O O11 0.335523 0.394533 0.754802
O O12 0.291756 0.337296 0.002617
O O13 0.393884 0.291429 0.943920
O O14 0.822883 0.000000 0.500000
O O15 0.790747 0.061090 0.755668
O O16 0.753746 0.000000 0.000000
O O17 0.500000 0.772327 0.000000
#
# Coordination Sequence:
#
# PCOD9322755 Si02
#       8
#     8   8   8   2   8   8   8   8
#     4  10  20  34  49  81 110 156 189 224 264 340
#     4   9  17  28  52  80 108 134 176 233 271 322
#     4   9  18  32  54  78 111 151 183 224 289 333
#     4  12  24  32  54  72 120 168 206 212 260 340
#     4   9  20  33  57  80 111 145 187 230 281 340
#     4  10  19  32  56  80 116 147 178 223 287 348
#     4   9  17  30  54  85 108 139 180 227 279 334
#     4  10  20  34  55  76 107 143 189 234 283 321
#
# _framework density 18.352889999999999
#
# number of rings (size 3 to 8) (size 9 to 14) (size 15 to 20)
#    0.000    2.483    1.379    0.828   14.483    1.931 
#    0.000    0.000   27.310    3.724    0.000    0.966 
#    0.000    0.000    0.000    0.000    0.000    0.000 
#
# Total GULP energy -161535.961014 kJ/mol
# GULP energy per Si atom -5570.205552 kJ/mol
# Density = 1.831112 g / cm^3
# Si number density = 18.352890 Si / 1000 Ang^3
#
#
#
# Elastic Constant Matrix: (Units=GPa)
#
#
# Indices 1 2 3 4 5 6 
#
# 1 153.9254 43.6375 24.6050 0.0000 0.0000 0.0000
# 2 43.6375 48.4195 21.0463 0.0000 0.0000 0.0000
# 3 24.6050 21.0463 43.9299 0.0000 0.0000 0.0000
# 4 0.0000 0.0000 0.0000 11.0493 0.0000 0.0000
# 5 0.0000 0.0000 0.0000 0.0000 7.1449 0.0000
# 6 0.0000 0.0000 0.0000 0.0000 0.0000 26.4656
#
#
#
# Elastic Compliance Matrix: (Units=1/GPa)
#
#
# Indices 1 2 3 4 5 6 
#
# 1 0.008796 -0.007308 -0.001426 0.000000 0.000000 0.000000
# 2 -0.007308 0.032156 -0.011313 0.000000 0.000000 0.000000
# 3 -0.001426 -0.011313 0.028982 0.000000 0.000000 0.000000
# 4 0.000000 0.000000 0.000000 0.090504 0.000000 0.000000
# 5 0.000000 0.000000 0.000000 0.000000 0.139961 0.000000
# 6 0.000000 0.000000 0.000000 0.000000 0.000000 0.037785
#
#
# Mechanical properties :
#
#
# Convention : Reuss Voigt Hill
#
# Bulk Modulus (GPa) = 33.50975 47.20582 40.35778
# Shear Modulus (GPa) = 12.87920 19.39769 16.13845
#
# Velocity S-wave (km/s) = 2.65194 3.25457 2.96859
# Velocity P-wave (km/s) = 5.26073 6.31664 5.81271
#
# Compressibility (1/GPa) = 0.02984206
#
# Stress axis : x y z
#
# Youngs Moduli (GPa) = 113.68408 31.09827 34.50445
#
# Poissons Ratio (x) = 0.22726 0.04919
# Poissons Ratio (y) = 0.83079 0.39033
# Poissons Ratio (z) = 0.16207 0.35180
#
# Static dielectric constant tensor:
#      x y z
#    x 1.636870 0.000000 0.000000 
#    y 0.000000 1.685050 0.000000 
#    z 0.000000 0.000000 1.678600 
# 
# From -- ./inp_files/19223.got.cif
#   From: 2010.05.17/outbox.cif.g08.bks.cpg/sg21_10_cif.got.tgz:19223.got - 2010.06.03 23:14:55.
