data_PCOD9322183
_publ_section_title
;
Structure prediction by ZEFSAII (Michael W. Deem and Ramdas Pophale) SiO2 
 PCOD9322183
Probable space group: C 2 2 21
;
_chemical_formula_sum "Si O2"
_cell_formula_units_Z 20
_cell_length_a 9.000000
_cell_length_b 12.000000
_cell_length_c 18.000000
_cell_angle_alpha 90.000000
_cell_angle_beta 90.000000
_cell_angle_gamma 90.000000
_cell_volume 1944.000000
_symmetry_space_group_name_H-M "C 2 2 21"
_symmetry_group_IT_number 20
_symmetry_cell_setting 'orthorhombic'
loop_
_space_group_symop_operation_xyz
x,y,z
-x,-y,1/2+z
x,-y,-z
-x,y,1/2-z
1/2+x,1/2+y,z
1/2-x,1/2-y,1/2+z
1/2+x,1/2-y,-z
1/2-x,1/2+y,1/2-z
loop_
_atom_site_type_symbol
_atom_site_label
_atom_site_fract_x
_atom_site_fract_y
_atom_site_fract_z
Si Si1 0.417505 0.978927 0.583803
Si Si2 0.467483 0.732479 0.546373
Si Si3 0.756632 0.043658 0.618307
Si Si4 0.704828 0.281915 0.901902
Si Si5 0.168853 0.388571 0.221290
O O1 0.425400 0.845676 0.589973
O O2 0.362299 0.000000 0.500000
O O3 0.582813 0.035988 0.591110
O O4 0.321917 0.026383 0.651760
O O5 0.365687 0.629078 0.574859
O O6 0.426778 0.747279 0.459446
O O7 0.644627 0.731967 0.560461
O O8 0.760063 0.079562 0.705197
O O9 0.800187 0.915018 0.606612
O O10 0.697787 0.227794 0.820253
O O11 0.000000 0.390555 0.250000
#
# Coordination Sequence:
#
# PCOD9322183 Si02
#       5
#     8   8   8   8   8
#     4  10  19  41  67  92 130 179 226 273 339 412
#     4  11  23  42  73  96 135 176 236 286 346 411
#     4  10  23  41  67  96 140 173 222 292 349 401
#     4  11  24  45  69 103 135 181 231 288 348 414
#     4  10  23  42  65  97 135 181 225 280 352 416
#
# _framework density 10.288066000000001
#
# number of rings (size 3 to 8) (size 9 to 14) (size 15 to 20)
#    0.000    1.600    2.000    3.000    5.600    0.800 
#   10.800    0.000    0.000    0.000    0.000    0.000 
#    0.000    0.000    0.000    0.000    0.000    0.000 
#
# Total GULP energy -111599.906463 kJ/mol
# GULP energy per Si atom -5579.995323 kJ/mol
# Density = 1.026465 g / cm^3
# Si number density = 10.288066 Si / 1000 Ang^3
#
#
#
# Elastic Constant Matrix: (Units=GPa)
#
#
# Indices 1 2 3 4 5 6 
#
# 1 18.4559 27.1697 29.7031 0.0000 0.0000 0.0000
# 2 27.1697 144.7596 36.5033 0.0000 0.0000 0.0000
# 3 29.7031 36.5033 135.5351 0.0000 0.0000 0.0000
# 4 0.0000 0.0000 0.0000 45.1057 0.0000 0.0000
# 5 0.0000 0.0000 0.0000 0.0000 22.2746 0.0000
# 6 0.0000 0.0000 0.0000 0.0000 0.0000 35.1662
#
#
#
# Elastic Compliance Matrix: (Units=1/GPa)
#
#
# Indices 1 2 3 4 5 6 
#
# 1 0.108427 -0.015405 -0.019613 0.000000 0.000000 0.000000
# 2 -0.015405 0.009600 0.000790 0.000000 0.000000 0.000000
# 3 -0.019613 0.000790 0.011464 0.000000 0.000000 0.000000
# 4 0.000000 0.000000 0.000000 0.022170 0.000000 0.000000
# 5 0.000000 0.000000 0.000000 0.000000 0.044894 0.000000
# 6 0.000000 0.000000 0.000000 0.000000 0.000000 0.028436
#
#
# Mechanical properties :
#
#
# Convention : Reuss Voigt Hill
#
# Bulk Modulus (GPa) = 16.38387 53.94476 35.16431
# Shear Modulus (GPa) = 15.93410 34.20093 25.06752
#
# Velocity S-wave (km/s) = 2.78582 4.08139 3.49418
# Velocity P-wave (km/s) = 4.28107 6.96307 5.77979
#
# Compressibility (1/GPa) = 0.06103566
#
# Stress axis : x y z
#
# Youngs Moduli (GPa) = 9.22276 104.16703 87.23239
#
# Poissons Ratio (x) = 1.60467 1.71093
# Poissons Ratio (y) = 0.14207 -0.06896
# Poissons Ratio (z) = 0.18089 -0.08234
#
# Static dielectric constant tensor:
#      x y z
#    x 1.745850 0.000000 0.000000 
#    y 0.000000 1.773390 0.000000 
#    z 0.000000 0.000000 1.731920 
# 
# From -- ./inp_files/23174.got.cif
#   From: 2010.05.17/outbox.ucp.g08.bks.cvg/sg20_12_cif.got.tgz:23174.got - 2010.06.11 15:13:06.
