data_PCOD9322782
_publ_section_title
;
Structure prediction by ZEFSAII (Michael W. Deem and Ramdas Pophale) SiO2 
 PCOD9322782
Probable space group: C 2 2 2
;
_chemical_formula_sum "Si O2"
_cell_formula_units_Z 64
_cell_length_a 16.888112
_cell_length_b 8.747559
_cell_length_c 22.823951
_cell_angle_alpha 90.000000
_cell_angle_beta 90.000000
_cell_angle_gamma 90.000000
_cell_volume 3371.776715
_symmetry_space_group_name_H-M "C 2 2 2"
_symmetry_group_IT_number 21
_symmetry_cell_setting 'orthorhombic'
loop_
_space_group_symop_operation_xyz
x,y,z
-x,-y,z
x,-y,-z
-x,y,-z
1/2+x,1/2+y,z
1/2-x,1/2-y,z
1/2+x,1/2-y,-z
1/2-x,1/2+y,-z
loop_
_atom_site_type_symbol
_atom_site_label
_atom_site_fract_x
_atom_site_fract_y
_atom_site_fract_z
Si Si1 0.988685 0.177984 0.931020
Si Si2 0.337814 0.199062 0.132880
Si Si3 0.160375 0.315867 0.626945
Si Si4 0.899559 0.836620 0.253166
Si Si5 0.420379 0.099407 0.845556
Si Si6 0.838722 0.683626 0.498528
Si Si7 0.339079 0.815440 0.628916
Si Si8 0.411941 0.685192 0.257374
O O1 0.901676 0.223926 0.909627
O O2 0.049043 0.281601 0.893948
O O3 0.000000 0.000000 0.917304
O O4 0.000000 0.202546 0.000000
O O5 0.250000 0.250000 0.118427
O O6 0.358076 0.251768 0.199305
O O7 0.356254 0.019346 0.130820
O O8 0.250000 0.250000 0.631465
O O9 0.127597 0.272883 0.562118
O O10 0.162248 0.500152 0.633043
O O11 0.108424 0.246206 0.678508
O O12 0.879963 0.759383 0.315146
O O13 0.994086 0.827135 0.246399
O O14 0.876803 0.015400 0.251469
O O15 0.385793 0.192061 0.790823
O O16 0.500000 0.000000 0.829196
O O17 0.833505 0.500000 0.500000
O O18 0.750000 0.750000 0.498147
O O19 0.875090 0.725495 0.435372
O O20 0.250000 0.750000 0.629054
#
# Coordination Sequence:
#
# PCOD9322782 Si02
#       8
#     8   8   8   8   8   8   8   8
#     4  10  21  42  68  93 127 176 209 239 296 366
#     4  11  23  39  63  96 128 158 209 261 300 347
#     4  10  20  33  53  79 108 139 193 248 294 361
#     4  11  22  37  56  81 117 154 197 244 303 365
#     4  10  20  37  63  88 119 162 202 241 303 357
#     4   8  16  31  49  72 100 141 185 235 298 361
#     4  10  19  33  54  76 108 146 186 239 305 358
#     4  11  22  36  56  81 113 156 200 239 300 375
#
# _framework density 18.981090999999999
#
# number of rings (size 3 to 8) (size 9 to 14) (size 15 to 20)
#    0.000    1.875    2.500    2.625    0.000    4.250 
#    0.000    5.000    0.000    3.750    0.000    0.000 
#    0.000    0.000    0.000    0.000    0.000    0.000 
#
# Total GULP energy -178549.283640 kJ/mol
# GULP energy per Si atom -5579.665114 kJ/mol
# Density = 1.893789 g / cm^3
# Si number density = 18.981091 Si / 1000 Ang^3
#
#
#
# Elastic Constant Matrix: (Units=GPa)
#
#
# Indices 1 2 3 4 5 6 
#
# 1 53.9325 23.5144 35.9257 0.0000 0.0000 0.0000
# 2 23.5144 104.2686 70.1363 0.0000 0.0000 0.0000
# 3 35.9257 70.1363 119.1596 0.0000 0.0000 0.0000
# 4 0.0000 0.0000 0.0000 32.1522 0.0000 0.0000
# 5 0.0000 0.0000 0.0000 0.0000 34.7248 0.0000
# 6 0.0000 0.0000 0.0000 0.0000 0.0000 23.9418
#
#
#
# Elastic Compliance Matrix: (Units=1/GPa)
#
#
# Indices 1 2 3 4 5 6 
#
# 1 0.023249 -0.000874 -0.006495 0.000000 0.000000 0.000000
# 2 -0.000874 0.015909 -0.009100 0.000000 0.000000 0.000000
# 3 -0.006495 -0.009100 0.015707 0.000000 0.000000 0.000000
# 4 0.000000 0.000000 0.000000 0.031102 0.000000 0.000000
# 5 0.000000 0.000000 0.000000 0.000000 0.028798 0.000000
# 6 0.000000 0.000000 0.000000 0.000000 0.000000 0.041768
#
#
# Mechanical properties :
#
#
# Convention : Reuss Voigt Hill
#
# Bulk Modulus (GPa) = 45.60810 59.61260 52.61035
# Shear Modulus (GPa) = 25.40898 28.01604 26.71251
#
# Velocity S-wave (km/s) = 3.66272 3.84604 3.75550
# Velocity P-wave (km/s) = 6.47825 7.15522 6.82513
#
# Compressibility (1/GPa) = 0.02192593
#
# Stress axis : x y z
#
# Youngs Moduli (GPa) = 43.01209 62.85678 63.66728
#
# Poissons Ratio (x) = 0.05496 0.41351
# Poissons Ratio (y) = 0.03761 0.57940
# Poissons Ratio (z) = 0.27936 0.57202
#
# Static dielectric constant tensor:
#      x y z
#    x 1.633790 0.000000 0.000000 
#    y 0.000000 1.670120 0.000000 
#    z 0.000000 0.000000 1.677300 
# 
# From -- ./inp_files/37719.got.cif
#   From: 2010.05.17/outbox.cif.g08.bks.cpg/sg21_19_cif.got.tgz:37719.got - 2010.06.03 23:14:55.
