data_PCOD9322038
_publ_section_title
;
Structure prediction by ZEFSAII (Michael W. Deem and Ramdas Pophale) SiO2 
 PCOD9322038
Probable space group: C 2 2 21
;
_chemical_formula_sum "Si O2"
_cell_formula_units_Z 56
_cell_length_a 5.987693
_cell_length_b 13.003945
_cell_length_c 29.558981
_cell_angle_alpha 90.000000
_cell_angle_beta 90.000000
_cell_angle_gamma 90.000000
_cell_volume 2301.569573
_symmetry_space_group_name_H-M "C 2 2 21"
_symmetry_group_IT_number 20
_symmetry_cell_setting 'orthorhombic'
loop_
_space_group_symop_operation_xyz
x,y,z
-x,-y,1/2+z
x,-y,-z
-x,y,1/2-z
1/2+x,1/2+y,z
1/2-x,1/2-y,1/2+z
1/2+x,1/2-y,-z
1/2-x,1/2+y,1/2-z
loop_
_atom_site_type_symbol
_atom_site_label
_atom_site_fract_x
_atom_site_fract_y
_atom_site_fract_z
Si Si1 0.478474 0.527551 0.670855
Si Si2 0.491978 0.187537 0.392410
Si Si3 0.387335 0.828482 0.134626
Si Si4 0.029039 0.000000 0.500000
Si Si5 0.500000 0.304762 0.250000
Si Si6 0.958630 0.783178 0.486444
Si Si7 0.671485 0.302110 0.807100
Si Si8 0.674686 0.972442 0.088729
O O1 0.266521 0.573472 0.644223
O O2 0.505296 0.616830 0.708072
O O3 0.435643 0.415491 0.692115
O O4 0.677579 0.522979 0.634607
O O5 0.250948 0.226587 0.376006
O O6 0.527204 0.263431 0.434387
O O7 0.656211 0.195395 0.349920
O O8 0.482587 0.072158 0.410077
O O9 0.517948 0.794155 0.179230
O O10 0.539418 0.866434 0.093357
O O11 0.177899 0.015656 0.544474
O O12 0.888724 0.896897 0.502064
O O13 0.703456 0.227503 0.261000
O O14 0.711242 0.728454 0.491058
#
# Coordination Sequence:
#
# PCOD9322038 Si02
#       8
#     8   8   8   4   4   8   8   8
#     4  12  27  48  77 112 149 201 256 321 393 480
#     4  12  26  48  80 111 154 204 261 318 395 461
#     4  12  24  47  81 105 152 199 254 319 396 463
#     4  12  28  48  80 116 164 208 274 322 400 468
#     4  12  28  50  70 120 146 194 260 320 402 474
#     4  12  30  50  78 120 162 210 270 333 388 474
#     4  12  27  47  79 109 150 196 257 316 394 477
#     4  12  26  49  78 117 151 210 257 326 390 479
#
# _framework density 24.331222
#
# number of rings (size 3 to 8) (size 9 to 14) (size 15 to 20)
#    0.000    0.000    7.143    1.714    6.000    5.714 
#    0.000    0.000    0.000    0.000    0.000    0.000 
#    0.000    0.000    0.000    0.000    0.000    0.000 
#
# Total GULP energy -156417.816750 kJ/mol
# GULP energy per Si atom -5586.350598 kJ/mol
# Density = 2.427584 g / cm^3
# Si number density = 24.331222 Si / 1000 Ang^3
#
#
#
# Elastic Constant Matrix: (Units=GPa)
#
#
# Indices 1 2 3 4 5 6 
#
# 1 51.7640 12.4635 5.8936 0.0000 0.0000 0.0000
# 2 12.4635 110.0118 -12.0160 0.0000 0.0000 0.0000
# 3 5.8936 -12.0160 84.5517 0.0000 0.0000 0.0000
# 4 0.0000 0.0000 0.0000 32.7488 0.0000 0.0000
# 5 0.0000 0.0000 0.0000 0.0000 36.5593 0.0000
# 6 0.0000 0.0000 0.0000 0.0000 0.0000 24.8040
#
#
#
# Elastic Compliance Matrix: (Units=1/GPa)
#
#
# Indices 1 2 3 4 5 6 
#
# 1 0.020113 -0.002470 -0.001753 0.000000 0.000000 0.000000
# 2 -0.002470 0.009537 0.001527 0.000000 0.000000 0.000000
# 3 -0.001753 0.001527 0.012166 0.000000 0.000000 0.000000
# 4 0.000000 0.000000 0.000000 0.030535 0.000000 0.000000
# 5 0.000000 0.000000 0.000000 0.000000 0.027353 0.000000
# 6 0.000000 0.000000 0.000000 0.000000 0.000000 0.040316
#
#
# Mechanical properties :
#
#
# Convention : Reuss Voigt Hill
#
# Bulk Modulus (GPa) = 27.45403 28.77885 28.11644
# Shear Modulus (GPa) = 31.73540 34.82152 33.27846
#
# Velocity S-wave (km/s) = 3.61544 3.78715 3.70229
# Velocity P-wave (km/s) = 5.36064 5.56570 5.46413
#
# Compressibility (1/GPa) = 0.03642452
#
# Stress axis : x y z
#
# Youngs Moduli (GPa) = 49.71966 104.85900 82.19390
#
# Poissons Ratio (x) = 0.25901 0.14408
# Poissons Ratio (y) = 0.12281 -0.12555
# Poissons Ratio (z) = 0.08716 -0.16017
#
# Static dielectric constant tensor:
#      x y z
#    x 2.038180 0.000000 0.000000 
#    y 0.000000 1.935900 0.000000 
#    z 0.000000 0.000000 1.938480 
# 
# From -- ./inp_files/30786.got.cif
#   From: 2010.05.17/outbox.cif.g08.bks.cpg/sg20_16_cif.got.tgz:30786.got - 2010.06.03 22:52:26.
