data_PCOD9322916
_publ_section_title
;
Structure prediction by ZEFSAII (Michael W. Deem and Ramdas Pophale) SiO2 
 PCOD9322916
Probable space group: C 2 2 2
;
_chemical_formula_sum "Si O2"
_cell_formula_units_Z 54
_cell_length_a 16.776519
_cell_length_b 10.546285
_cell_length_c 14.463386
_cell_angle_alpha 90.000000
_cell_angle_beta 90.000000
_cell_angle_gamma 90.000000
_cell_volume 2559.006172
_symmetry_space_group_name_H-M "C 2 2 2"
_symmetry_group_IT_number 21
_symmetry_cell_setting 'orthorhombic'
loop_
_space_group_symop_operation_xyz
x,y,z
-x,-y,z
x,-y,-z
-x,y,-z
1/2+x,1/2+y,z
1/2-x,1/2-y,z
1/2+x,1/2-y,-z
1/2-x,1/2+y,-z
loop_
_atom_site_type_symbol
_atom_site_label
_atom_site_fract_x
_atom_site_fract_y
_atom_site_fract_z
Si Si1 0.364046 0.329309 0.076199
Si Si2 0.339141 0.556735 0.731193
Si Si3 0.500000 0.500000 0.000000
Si Si4 0.920008 0.781397 0.762878
Si Si5 0.231388 0.500000 0.000000
Si Si6 0.470857 0.355024 0.399651
Si Si7 0.544509 0.122114 0.870489
Si Si8 0.172579 0.467479 0.789057
O O1 0.344689 0.344806 0.184095
O O2 0.439499 0.417322 0.058225
O O3 0.291047 0.381359 0.018809
O O4 0.394240 0.188144 0.059385
O O5 0.384982 0.425241 0.763652
O O6 0.381531 0.622308 0.642532
O O7 0.246830 0.516640 0.729065
O O8 0.852002 0.674477 0.760730
O O9 0.977445 0.779670 0.674577
O O10 0.979129 0.727300 0.842164
O O11 0.194333 0.529591 0.100994
O O12 0.500000 0.500000 0.398305
O O13 0.500000 0.307130 0.500000
O O14 0.500000 0.000000 0.906214
O O15 0.596965 0.062948 0.786465
#
# Coordination Sequence:
#
# PCOD9322916 Si02
#       8
#     8   8   2   8   4   8   8   8
#     4  10  19  37  54  84 116 155 209 254 299 360
#     4  10  19  35  64  86 116 161 204 250 311 365
#     4  10  20  32  58  84 112 140 202 270 286 340
#     4  10  19  37  62  88 117 162 205 251 316 376
#     4   9  22  39  53  82 121 170 220 262 303 354
#     4   9  18  34  63  97 120 148 204 263 312 376
#     4  10  21  38  58  83 120 160 205 248 308 374
#     4  10  22  40  56  87 125 169 206 248 310 374
#
# _framework density 21.101941
#
# number of rings (size 3 to 8) (size 9 to 14) (size 15 to 20)
#    0.000    2.222    1.481    1.333    1.037    2.370 
#   18.667    0.741    0.000   18.222    0.000    0.000 
#    0.000    0.000    0.000    0.000    0.000    0.000 
#
# Total GULP energy -150444.554828 kJ/mol
# GULP energy per Si atom -5572.020549 kJ/mol
# Density = 2.105391 g / cm^3
# Si number density = 21.101941 Si / 1000 Ang^3
#
#
#
# Elastic Constant Matrix: (Units=GPa)
#
#
# Indices 1 2 3 4 5 6 
#
# 1 111.9545 28.4910 33.0555 0.0000 0.0000 0.0000
# 2 28.4910 97.0967 19.7947 0.0000 0.0000 0.0000
# 3 33.0555 19.7947 67.1006 0.0000 0.0000 0.0000
# 4 0.0000 0.0000 0.0000 21.5322 0.0000 0.0000
# 5 0.0000 0.0000 0.0000 0.0000 17.4081 0.0000
# 6 0.0000 0.0000 0.0000 0.0000 0.0000 0.9524
#
#
#
# Elastic Compliance Matrix: (Units=1/GPa)
#
#
# Indices 1 2 3 4 5 6 
#
# 1 0.010891 -0.002236 -0.004705 0.000000 0.000000 0.000000
# 2 -0.002236 0.011417 -0.002266 0.000000 0.000000 0.000000
# 3 -0.004705 -0.002266 0.017890 0.000000 0.000000 0.000000
# 4 0.000000 0.000000 0.000000 0.046442 0.000000 0.000000
# 5 0.000000 0.000000 0.000000 0.000000 0.057445 0.000000
# 6 0.000000 0.000000 0.000000 0.000000 0.000000 1.050030
#
#
# Mechanical properties :
#
#
# Convention : Reuss Voigt Hill
#
# Bulk Modulus (GPa) = 45.91093 48.75937 47.33515
# Shear Modulus (GPa) = 4.09906 20.96588 12.53247
#
# Velocity S-wave (km/s) = 1.39525 3.15549 2.43965
# Velocity P-wave (km/s) = 4.93959 6.03596 5.51509
#
# Compressibility (1/GPa) = 0.02178131
#
# Stress axis : x y z
#
# Youngs Moduli (GPa) = 91.82228 87.58663 55.89862
#
# Poissons Ratio (x) = 0.19588 0.26302
# Poissons Ratio (y) = 0.20535 0.12669
# Poissons Ratio (z) = 0.43205 0.19851
#
# Static dielectric constant tensor:
#      x y z
#    x 1.855040 0.000000 0.000000 
#    y 0.000000 1.858860 0.000000 
#    z 0.000000 0.000000 1.780700 
# 
# From -- ./inp_files/32927.got.cif
#   From: 2010.05.17/outbox.cif.g08.bks.cpg/sg21_17_cif.got.tgz:32927.got - 2010.06.03 23:14:55.
