data_PCOD9322598
_publ_section_title
;
Structure prediction by ZEFSAII (Michael W. Deem and Ramdas Pophale) SiO2 
 PCOD9322598
Probable space group: C 2 2 2
;
_chemical_formula_sum "Si O2"
_cell_formula_units_Z 64
_cell_length_a 16.849095
_cell_length_b 9.573095
_cell_length_c 17.123809
_cell_angle_alpha 90.000000
_cell_angle_beta 90.000000
_cell_angle_gamma 90.000000
_cell_volume 2762.035923
_symmetry_space_group_name_H-M "C 2 2 2"
_symmetry_group_IT_number 21
_symmetry_cell_setting 'orthorhombic'
loop_
_space_group_symop_operation_xyz
x,y,z
-x,-y,z
x,-y,-z
-x,y,-z
1/2+x,1/2+y,z
1/2-x,1/2-y,z
1/2+x,1/2-y,-z
1/2-x,1/2+y,-z
loop_
_atom_site_type_symbol
_atom_site_label
_atom_site_fract_x
_atom_site_fract_y
_atom_site_fract_z
Si Si1 0.161718 0.541693 0.090428
Si Si2 0.944024 0.204126 0.573780
Si Si3 0.872640 0.741599 0.179893
Si Si4 0.447216 0.859898 0.320155
Si Si5 0.660178 0.495776 0.090450
Si Si6 0.062210 0.231802 0.834442
Si Si7 0.693798 0.630638 0.343073
Si Si8 0.329687 0.022377 0.415836
O O1 0.144396 0.415848 0.151827
O O2 0.254677 0.577742 0.100651
O O3 0.098747 0.664679 0.101710
O O4 0.154983 0.500000 0.000000
O O5 0.879460 0.091679 0.601880
O O6 0.890646 0.346472 0.571164
O O7 0.000000 0.179819 0.500000
O O8 0.998823 0.236387 0.647576
O O9 0.838291 0.796486 0.263759
O O10 0.967527 0.760904 0.173922
O O11 0.832467 0.845825 0.118669
O O12 0.404766 0.798852 0.245105
O O13 0.500000 0.000000 0.300816
O O14 0.390165 0.902821 0.389897
O O15 0.595728 0.418905 0.144052
O O16 0.636725 0.500000 0.000000
O O17 0.750000 0.750000 0.382668
O O18 0.763637 0.518373 0.346326
O O19 0.290710 0.000000 0.500000
#
# Coordination Sequence:
#
# PCOD9322598 Si02
#       8
#     8   8   8   8   8   8   8   8
#     4  11  25  45  71 102 135 174 229 287 338 400
#     4  10  18  35  62  93 128 173 228 288 344 405
#     4  12  24  43  70  99 135 184 227 274 344 418
#     4  10  20  35  63 100 134 170 230 293 350 394
#     4  11  26  47  69  95 138 186 221 266 350 431
#     4  12  25  41  68 106 138 170 228 293 336 395
#     4  10  22  37  61  94 132 174 228 273 339 417
#     4  10  20  35  63  96 131 177 233 291 344 410
#
# _framework density 23.171313000000001
#
# number of rings (size 3 to 8) (size 9 to 14) (size 15 to 20)
#    0.000    1.250    2.500    3.750    5.250    5.000 
#    0.000    1.250    0.000    0.000    0.000    0.000 
#    0.000    0.000    0.000    0.000    0.000    0.000 
#
# Total GULP energy -178465.243180 kJ/mol
# GULP energy per Si atom -5577.038849 kJ/mol
# Density = 2.311857 g / cm^3
# Si number density = 23.171313 Si / 1000 Ang^3
#
#
#
# Elastic Constant Matrix: (Units=GPa)
#
#
# Indices 1 2 3 4 5 6 
#
# 1 103.0488 4.1405 26.0654 0.0000 0.0000 0.0000
# 2 4.1405 42.2696 -1.7836 0.0000 0.0000 0.0000
# 3 26.0654 -1.7836 93.3532 0.0000 0.0000 0.0000
# 4 0.0000 0.0000 0.0000 12.7459 0.0000 0.0000
# 5 0.0000 0.0000 0.0000 0.0000 40.6561 0.0000
# 6 0.0000 0.0000 0.0000 0.0000 0.0000 23.3462
#
#
#
# Elastic Compliance Matrix: (Units=1/GPa)
#
#
# Indices 1 2 3 4 5 6 
#
# 1 0.010497 -0.001153 -0.002953 0.000000 0.000000 0.000000
# 2 -0.001153 0.023803 0.000777 0.000000 0.000000 0.000000
# 3 -0.002953 0.000777 0.011551 0.000000 0.000000 0.000000
# 4 0.000000 0.000000 0.000000 0.078456 0.000000 0.000000
# 5 0.000000 0.000000 0.000000 0.000000 0.024597 0.000000
# 6 0.000000 0.000000 0.000000 0.000000 0.000000 0.042834
#
#
# Mechanical properties :
#
#
# Convention : Reuss Voigt Hill
#
# Bulk Modulus (GPa) = 25.51431 32.83514 29.17473
# Shear Modulus (GPa) = 23.64494 29.36626 26.50560
#
# Velocity S-wave (km/s) = 3.19790 3.56385 3.38582
# Velocity P-wave (km/s) = 4.96694 5.57997 5.28236
#
# Compressibility (1/GPa) = 0.03919368
#
# Stress axis : x y z
#
# Youngs Moduli (GPa) = 95.26158 42.01086 86.56984
#
# Poissons Ratio (x) = 0.04843 0.25564
# Poissons Ratio (y) = 0.10983 -0.06724
# Poissons Ratio (z) = 0.28131 -0.03263
#
# Static dielectric constant tensor:
#      x y z
#    x 2.028380 0.000000 0.000000 
#    y 0.000000 2.242380 0.000000 
#    z 0.000000 0.000000 1.877610 
# 
# From -- ./inp_files/36734.got.cif
#   From: 2010.05.17/outbox.cif.g08.bks.cpg/sg21_19_cif.got.tgz:36734.got - 2010.06.03 23:14:55.
