data_PCOD9322463
_publ_section_title
;
Structure prediction by ZEFSAII (Michael W. Deem and Ramdas Pophale) SiO2 
 PCOD9322463
Probable space group: C 2 2 2
;
_chemical_formula_sum "Si O2"
_cell_formula_units_Z 34
_cell_length_a 21.263819
_cell_length_b 7.552564
_cell_length_c 10.408894
_cell_angle_alpha 90.000000
_cell_angle_beta 90.000000
_cell_angle_gamma 90.000000
_cell_volume 1671.630424
_symmetry_space_group_name_H-M "C 2 2 2"
_symmetry_group_IT_number 21
_symmetry_cell_setting 'orthorhombic'
loop_
_space_group_symop_operation_xyz
x,y,z
-x,-y,z
x,-y,-z
-x,y,-z
1/2+x,1/2+y,z
1/2-x,1/2-y,z
1/2+x,1/2-y,-z
1/2-x,1/2+y,-z
loop_
_atom_site_type_symbol
_atom_site_label
_atom_site_fract_x
_atom_site_fract_y
_atom_site_fract_z
Si Si1 0.591545 0.688081 0.946291
Si Si2 0.677222 0.805821 0.181639
Si Si3 0.176219 0.203235 0.459750
Si Si4 0.000000 0.500000 0.000000
Si Si5 0.823917 0.702100 0.733673
O O1 0.633175 0.667157 0.817432
O O2 0.566345 0.500000 0.000000
O O3 0.638360 0.746025 0.059808
O O4 0.543793 0.854594 0.926686
O O5 0.750000 0.750000 0.166790
O O6 0.650322 0.735001 0.317917
O O7 0.673569 0.015627 0.196236
O O8 0.250000 0.250000 0.445490
O O9 0.153920 0.309299 0.585623
O O10 0.170714 0.000000 0.500000
O O11 0.750000 0.750000 0.729969
#
# Coordination Sequence:
#
# PCOD9322463 Si02
#       5
#     8   8   8   2   8
#     4  12  24  42  64  87 116 157 206 255 298 356
#     4  11  20  35  57  91 126 157 195 244 305 363
#     4  10  18  30  50  84 123 162 191 229 301 370
#     4  12  26  48  60  88 116 164 214 248 308 342
#     4  11  20  35  57  91 126 157 195 244 305 363
#
# _framework density 20.339424999999999
#
# number of rings (size 3 to 8) (size 9 to 14) (size 15 to 20)
#    0.000    0.941    2.353   10.235    0.000    0.000 
#    0.000    0.000    0.000    2.824    0.000    4.941 
#    0.000    0.000    0.000    0.000    0.000    0.000 
#
# Total GULP energy -94846.470216 kJ/mol
# GULP energy per Si atom -5579.204130 kJ/mol
# Density = 2.029313 g / cm^3
# Si number density = 20.339425 Si / 1000 Ang^3
#
#
#
# Elastic Constant Matrix: (Units=GPa)
#
#
# Indices 1 2 3 4 5 6 
#
# 1 58.6866 17.1581 34.9268 0.0000 0.0000 0.0000
# 2 17.1581 97.8734 2.4022 0.0000 0.0000 0.0000
# 3 34.9268 2.4022 135.0238 0.0000 0.0000 0.0000
# 4 0.0000 0.0000 0.0000 28.6494 0.0000 0.0000
# 5 0.0000 0.0000 0.0000 0.0000 270.7849 0.0000
# 6 0.0000 0.0000 0.0000 0.0000 0.0000 29.4877
#
#
#
# Elastic Compliance Matrix: (Units=1/GPa)
#
#
# Indices 1 2 3 4 5 6 
#
# 1 0.021342 -0.003607 -0.005456 0.000000 0.000000 0.000000
# 2 -0.003607 0.010832 0.000740 0.000000 0.000000 0.000000
# 3 -0.005456 0.000740 0.008804 0.000000 0.000000 0.000000
# 4 0.000000 0.000000 0.000000 0.034905 0.000000 0.000000
# 5 0.000000 0.000000 0.000000 0.000000 0.003693 0.000000
# 6 0.000000 0.000000 0.000000 0.000000 0.000000 0.033912
#
#
# Mechanical properties :
#
#
# Convention : Reuss Voigt Hill
#
# Bulk Modulus (GPa) = 41.10004 44.50642 42.80323
# Shear Modulus (GPa) = 36.16778 81.59083 58.87931
#
# Velocity S-wave (km/s) = 4.22146 6.34048 5.38621
# Velocity P-wave (km/s) = 6.63415 8.69089 7.73122
#
# Compressibility (1/GPa) = 0.02433088
#
# Stress axis : x y z
#
# Youngs Moduli (GPa) = 46.85677 92.32306 113.58069
#
# Poissons Ratio (x) = 0.33305 0.61973
# Poissons Ratio (y) = 0.16903 -0.08410
# Poissons Ratio (z) = 0.25566 -0.06836
#
# Static dielectric constant tensor:
#      x y z
#    x 1.742730 0.000000 0.000000 
#    y 0.000000 1.623700 0.000000 
#    z 0.000000 0.000000 1.742350 
# 
# From -- ./inp_files/18184.got.cif
#   From: 2010.05.17/outbox.cif.g08.bks.cpg/sg21_10_cif.got.tgz:18184.got - 2010.06.03 23:14:55.
