data_PCOD9322913
_publ_section_title
;
Structure prediction by ZEFSAII (Michael W. Deem and Ramdas Pophale) SiO2 
 PCOD9322913
Probable space group: C 2 2 2
;
_chemical_formula_sum "Si O2"
_cell_formula_units_Z 64
_cell_length_a 17.355042
_cell_length_b 14.085514
_cell_length_c 11.636187
_cell_angle_alpha 90.000000
_cell_angle_beta 90.000000
_cell_angle_gamma 90.000000
_cell_volume 2844.520452
_symmetry_space_group_name_H-M "C 2 2 2"
_symmetry_group_IT_number 21
_symmetry_cell_setting 'orthorhombic'
loop_
_space_group_symop_operation_xyz
x,y,z
-x,-y,z
x,-y,-z
-x,y,-z
1/2+x,1/2+y,z
1/2-x,1/2-y,z
1/2+x,1/2-y,-z
1/2-x,1/2+y,-z
loop_
_atom_site_type_symbol
_atom_site_label
_atom_site_fract_x
_atom_site_fract_y
_atom_site_fract_z
Si Si1 0.489921 0.766706 0.629911
Si Si2 0.856371 0.403175 0.660580
Si Si3 0.231585 0.356889 0.894271
Si Si4 0.876753 0.998595 0.864957
Si Si5 0.746685 0.859510 0.550733
Si Si6 0.112942 0.597720 0.272388
Si Si7 0.581673 0.570395 0.612407
Si Si8 0.757535 0.146583 0.840238
O O1 0.500000 0.803789 0.500000
O O2 0.404832 0.805304 0.660458
O O3 0.548057 0.824010 0.710365
O O4 0.519941 0.657690 0.622463
O O5 0.797228 0.408158 0.555090
O O6 0.909668 0.495863 0.674751
O O7 0.800298 0.415429 0.767869
O O8 0.250000 0.250000 0.850481
O O9 0.303794 0.426295 0.869929
O O10 0.149399 0.395844 0.853214
O O11 0.228539 0.349577 0.030897
O O12 0.917693 0.972576 0.743123
O O13 0.842090 0.102955 0.842752
O O14 0.907864 0.000000 0.000000
O O15 0.750000 0.750000 0.518303
O O16 0.688457 0.872013 0.655344
O O17 0.832173 0.890809 0.585869
O O18 0.572528 0.500000 0.500000
O O19 0.750000 0.250000 0.787138
#
# Coordination Sequence:
#
# PCOD9322913 Si02
#       8
#     8   8   8   8   8   8   8   8
#     4  12  27  44  60  92 136 183 223 280 338 425
#     4  12  24  39  62  94 136 181 224 273 344 412
#     4  10  19  35  63  98 133 170 217 283 351 398
#     4  10  20  38  66 104 138 167 218 287 355 412
#     4  12  21  37  65  99 133 164 217 281 332 400
#     4  12  21  38  64  92 132 172 221 268 334 415
#     4  12  24  42  69 103 136 175 232 292 352 404
#     4  10  21  38  63  95 134 173 219 288 345 400
#
# _framework density 22.499397999999999
#
# number of rings (size 3 to 8) (size 9 to 14) (size 15 to 20)
#    0.000    0.750    5.000    3.750    0.000    1.750 
#    0.000    0.625    0.000    3.000    0.000    7.000 
#    0.000    0.000    0.000    0.000    0.000    0.000 
#
# Total GULP energy -178433.430481 kJ/mol
# GULP energy per Si atom -5576.044703 kJ/mol
# Density = 2.244819 g / cm^3
# Si number density = 22.499398 Si / 1000 Ang^3
#
#
#
# Elastic Constant Matrix: (Units=GPa)
#
#
# Indices 1 2 3 4 5 6 
#
# 1 99.0970 28.4701 42.3874 0.0000 0.0000 0.0000
# 2 28.4701 107.8087 38.4551 0.0000 0.0000 0.0000
# 3 42.3874 38.4551 123.3639 0.0000 0.0000 0.0000
# 4 0.0000 0.0000 0.0000 34.4671 0.0000 0.0000
# 5 0.0000 0.0000 0.0000 0.0000 99.8002 0.0000
# 6 0.0000 0.0000 0.0000 0.0000 0.0000 26.0139
#
#
#
# Elastic Compliance Matrix: (Units=1/GPa)
#
#
# Indices 1 2 3 4 5 6 
#
# 1 0.012180 -0.001939 -0.003580 0.000000 0.000000 0.000000
# 2 -0.001939 0.010745 -0.002683 0.000000 0.000000 0.000000
# 3 -0.003580 -0.002683 0.010173 0.000000 0.000000 0.000000
# 4 0.000000 0.000000 0.000000 0.029013 0.000000 0.000000
# 5 0.000000 0.000000 0.000000 0.000000 0.010020 0.000000
# 6 0.000000 0.000000 0.000000 0.000000 0.000000 0.038441
#
#
# Mechanical properties :
#
#
# Convention : Reuss Voigt Hill
#
# Bulk Modulus (GPa) = 59.90980 60.98831 60.44906
# Shear Modulus (GPa) = 37.72419 46.78671 42.25545
#
# Velocity S-wave (km/s) = 4.09917 4.56506 4.33837
# Velocity P-wave (km/s) = 7.00638 7.41295 7.21253
#
# Compressibility (1/GPa) = 0.01669176
#
# Stress axis : x y z
#
# Youngs Moduli (GPa) = 82.10359 93.06769 98.30261
#
# Poissons Ratio (x) = 0.18049 0.35196
# Poissons Ratio (y) = 0.15922 0.26375
# Poissons Ratio (z) = 0.29396 0.24971
#
# Static dielectric constant tensor:
#      x y z
#    x 1.763520 0.000000 0.000000 
#    y 0.000000 2.000440 0.000000 
#    z 0.000000 0.000000 2.120850 
# 
# From -- ./inp_files/26223.got.cif
#   From: 2010.05.17/outbox.cif.g08.bks.cpg/sg21_14_cif.got.tgz:26223.got - 2010.06.03 23:14:55.
