data_PCOD9322593
_publ_section_title
;
Structure prediction by ZEFSAII (Michael W. Deem and Ramdas Pophale) SiO2 
 PCOD9322593
Probable space group: C 2 2 2
;
_chemical_formula_sum "Si O2"
_cell_formula_units_Z 48
_cell_length_a 13.543332
_cell_length_b 30.344526
_cell_length_c 5.415541
_cell_angle_alpha 90.000000
_cell_angle_beta 90.000000
_cell_angle_gamma 90.000000
_cell_volume 2225.603168
_symmetry_space_group_name_H-M "C 2 2 2"
_symmetry_group_IT_number 21
_symmetry_cell_setting 'orthorhombic'
loop_
_space_group_symop_operation_xyz
x,y,z
-x,-y,z
x,-y,-z
-x,y,-z
1/2+x,1/2+y,z
1/2-x,1/2-y,z
1/2+x,1/2-y,-z
1/2-x,1/2+y,-z
loop_
_atom_site_type_symbol
_atom_site_label
_atom_site_fract_x
_atom_site_fract_y
_atom_site_fract_z
Si Si1 0.284295 0.544709 0.881232
Si Si2 0.776171 0.343644 0.322994
Si Si3 0.750000 0.250000 0.537700
Si Si4 0.594831 0.079614 0.176539
Si Si5 0.447990 0.280488 0.244649
Si Si6 0.141716 0.500000 0.500000
Si Si7 0.845167 0.865242 0.179428
O O1 0.217968 0.530210 0.651581
O O2 0.363157 0.582756 0.840739
O O3 0.323634 0.500000 0.000000
O O4 0.197955 0.566422 0.046824
O O5 0.784615 0.291425 0.372906
O O6 0.875315 0.373463 0.298032
O O7 0.722154 0.360178 0.573913
O O8 0.710637 0.349699 0.073122
O O9 0.662001 0.263893 0.716740
O O10 0.581443 0.035711 0.341219
O O11 0.500000 0.084101 0.000000
O O12 0.500000 0.269300 0.500000
O O13 0.437104 0.333326 0.221685
O O14 0.500000 0.263233 0.000000
#
# Coordination Sequence:
#
# PCOD9322593 Si02
#       7
#     8   8   4   8   8   4   8
#     4   9  19  33  56  89 116 171 226 271 334 415
#     4  10  21  40  63  91 124 180 226 273 344 409
#     4  10  24  46  76 100 144 180 228 298 354 410
#     4  10  21  35  54  85 130 175 227 286 343 411
#     4  11  24  43  71 107 135 177 231 277 349 429
#     4  10  18  35  56  82 123 166 238 272 339 424
#     4  10  20  40  64  91 130 165 219 278 327 397
#
# _framework density 21.567188000000002
#
# number of rings (size 3 to 8) (size 9 to 14) (size 15 to 20)
#    0.000    2.000    1.667    2.000    0.000   10.333 
#    0.000    9.167    0.000    1.500    0.000    0.000 
#    0.000    0.000    0.000    0.000    0.000    0.000 
#
# Total GULP energy -133811.105291 kJ/mol
# GULP energy per Si atom -5575.462720 kJ/mol
# Density = 2.151810 g / cm^3
# Si number density = 21.567188 Si / 1000 Ang^3
#
#
#
# Elastic Constant Matrix: (Units=GPa)
#
#
# Indices 1 2 3 4 5 6 
#
# 1 50.6947 9.4705 32.0091 0.0000 0.0000 0.0000
# 2 9.4705 133.4093 30.5652 0.0000 0.0000 0.0000
# 3 32.0091 30.5652 130.5093 0.0000 0.0000 0.0000
# 4 0.0000 0.0000 0.0000 5.4364 0.0000 0.0000
# 5 0.0000 0.0000 0.0000 0.0000 168.3873 0.0000
# 6 0.0000 0.0000 0.0000 0.0000 0.0000 0.4759
#
#
#
# Elastic Compliance Matrix: (Units=1/GPa)
#
#
# Indices 1 2 3 4 5 6 
#
# 1 0.023357 -0.000365 -0.005643 0.000000 0.000000 0.000000
# 2 -0.000365 0.007926 -0.001767 0.000000 0.000000 0.000000
# 3 -0.005643 -0.001767 0.009460 0.000000 0.000000 0.000000
# 4 0.000000 0.000000 0.000000 0.183946 0.000000 0.000000
# 5 0.000000 0.000000 0.000000 0.000000 0.005939 0.000000
# 6 0.000000 0.000000 0.000000 0.000000 0.000000 2.101226
#
#
# Mechanical properties :
#
#
# Convention : Reuss Voigt Hill
#
# Bulk Modulus (GPa) = 39.69267 50.96699 45.32983
# Shear Modulus (GPa) = 2.12242 51.03114 26.57678
#
# Velocity S-wave (km/s) = 0.99309 4.86958 3.51419
# Velocity P-wave (km/s) = 4.44512 7.43641 6.12614
#
# Compressibility (1/GPa) = 0.02519357
#
# Stress axis : x y z
#
# Youngs Moduli (GPa) = 42.81319 126.15996 105.70685
#
# Poissons Ratio (x) = 0.04607 0.59652
# Poissons Ratio (y) = 0.01564 0.18676
# Poissons Ratio (z) = 0.24160 0.22290
#
# Static dielectric constant tensor:
#      x y z
#    x 1.686680 0.000000 0.000000 
#    y 0.000000 -0.268200 0.000000 
#    z 0.000000 0.000000 1.831510 
# 
# From -- ./inp_files/4271.got.cif
#   From: 2010.05.17/outbox.cif.g08.bks.cpg/sg21_3_cif.got.tgz:4271.got - 2010.06.03 23:14:55.
