data_PCOD9322348
_publ_section_title
;
Structure prediction by ZEFSAII (Michael W. Deem and Ramdas Pophale) SiO2 
 PCOD9322348
Probable space group: C 2 2 2
;
_chemical_formula_sum "Si O2"
_cell_formula_units_Z 30
_cell_length_a 15.638862
_cell_length_b 10.890548
_cell_length_c 7.753049
_cell_angle_alpha 90.000000
_cell_angle_beta 90.000000
_cell_angle_gamma 90.000000
_cell_volume 1320.466567
_symmetry_space_group_name_H-M "C 2 2 2"
_symmetry_group_IT_number 21
_symmetry_cell_setting 'orthorhombic'
loop_
_space_group_symop_operation_xyz
x,y,z
-x,-y,z
x,-y,-z
-x,y,-z
1/2+x,1/2+y,z
1/2-x,1/2-y,z
1/2+x,1/2-y,-z
1/2-x,1/2+y,-z
loop_
_atom_site_type_symbol
_atom_site_label
_atom_site_fract_x
_atom_site_fract_y
_atom_site_fract_z
Si Si1 0.594980 0.338472 0.566634
Si Si2 0.353289 0.420253 0.773752
Si Si3 0.092996 0.438305 0.321902
Si Si4 0.290310 0.000000 0.000000
Si Si5 0.000000 0.000000 0.000000
O O1 0.500000 0.374001 0.500000
O O2 0.636940 0.442121 0.688753
O O3 0.648698 0.332411 0.389662
O O4 0.586048 0.206543 0.649471
O O5 0.275437 0.408291 0.904383
O O6 0.439813 0.414138 0.884618
O O7 0.127442 0.500000 0.500000
O O8 0.000000 0.500000 0.295470
O O9 0.151432 0.455828 0.156047
#
# Coordination Sequence:
#
# PCOD9322348 Si02
#       5
#     8   8   8   4   2
#     4  11  20  45  74 100 135 189 241 286 350 413
#     4  10  22  41  72 106 141 177 230 307 349 419
#     4  11  25  50  72  96 139 195 241 286 340 429
#     4  11  27  49  65 108 150 176 237 289 363 419
#     4  10  16  34  62 104 140 166 222 276 362 412
#
# _framework density 22.719242000000001
#
# number of rings (size 3 to 8) (size 9 to 14) (size 15 to 20)
#    0.000    1.333    5.333    1.200    3.733    1.067 
#   19.200    0.000    0.000    0.000    0.000    0.000 
#    0.000    0.000    0.000    0.000    0.000    0.000 
#
# Total GULP energy -83838.689345 kJ/mol
# GULP energy per Si atom -5589.245956 kJ/mol
# Density = 2.266753 g / cm^3
# Si number density = 22.719242 Si / 1000 Ang^3
#
#
#
# Elastic Constant Matrix: (Units=GPa)
#
#
# Indices 1 2 3 4 5 6 
#
# 1 108.8066 44.4981 93.0523 0.0000 0.0000 0.0000
# 2 44.4981 95.5698 33.2856 0.0000 0.0000 0.0000
# 3 93.0523 33.2856 175.4378 0.0000 0.0000 0.0000
# 4 0.0000 0.0000 0.0000 11.4204 0.0000 0.0000
# 5 0.0000 0.0000 0.0000 0.0000 26.1656 0.0000
# 6 0.0000 0.0000 0.0000 0.0000 0.0000 6.0319
#
#
#
# Elastic Compliance Matrix: (Units=1/GPa)
#
#
# Indices 1 2 3 4 5 6 
#
# 1 0.019463 -0.005854 -0.009213 0.000000 0.000000 0.000000
# 2 -0.005854 0.012964 0.000645 0.000000 0.000000 0.000000
# 3 -0.009213 0.000645 0.010464 0.000000 0.000000 0.000000
# 4 0.000000 0.000000 0.000000 0.087562 0.000000 0.000000
# 5 0.000000 0.000000 0.000000 0.000000 0.038218 0.000000
# 6 0.000000 0.000000 0.000000 0.000000 0.000000 0.165785
#
#
# Mechanical properties :
#
#
# Convention : Reuss Voigt Hill
#
# Bulk Modulus (GPa) = 71.17864 80.16510 75.67187
# Shear Modulus (GPa) = 13.58755 22.65547 18.12151
#
# Velocity S-wave (km/s) = 2.44819 3.16126 2.82730
# Velocity P-wave (km/s) = 6.27608 6.97757 6.63610
#
# Compressibility (1/GPa) = 0.01404916
#
# Stress axis : x y z
#
# Youngs Moduli (GPa) = 51.37844 77.13432 95.56476
#
# Poissons Ratio (x) = 0.45152 0.88042
# Poissons Ratio (y) = 0.30075 -0.06164
# Poissons Ratio (z) = 0.47334 -0.04976
#
# Static dielectric constant tensor:
#      x y z
#    x 1.892770 0.000000 0.000000 
#    y 0.000000 1.831310 0.000000 
#    z 0.000000 0.000000 1.876060 
# 
# From -- ./inp_files/14056.got.cif
#   From: 2010.05.17/outbox.cif.g08.bks.cpg/sg21_8_cif.got.tgz:14056.got - 2010.06.03 23:14:55.
