data_PCOD9322663
_publ_section_title
;
Structure prediction by ZEFSAII (Michael W. Deem and Ramdas Pophale) SiO2 
 PCOD9322663
Probable space group: C 2 2 2
;
_chemical_formula_sum "Si O2"
_cell_formula_units_Z 56
_cell_length_a 8.795769
_cell_length_b 20.441218
_cell_length_c 15.279189
_cell_angle_alpha 90.000000
_cell_angle_beta 90.000000
_cell_angle_gamma 90.000000
_cell_volume 2747.140604
_symmetry_space_group_name_H-M "C 2 2 2"
_symmetry_group_IT_number 21
_symmetry_cell_setting 'orthorhombic'
loop_
_space_group_symop_operation_xyz
x,y,z
-x,-y,z
x,-y,-z
-x,y,-z
1/2+x,1/2+y,z
1/2-x,1/2-y,z
1/2+x,1/2-y,-z
1/2-x,1/2+y,-z
loop_
_atom_site_type_symbol
_atom_site_label
_atom_site_fract_x
_atom_site_fract_y
_atom_site_fract_z
Si Si1 0.682845 0.921426 0.002432
Si Si2 0.000000 0.000000 0.770157
Si Si3 0.261871 0.593210 0.678307
Si Si4 0.194071 0.824116 0.847934
Si Si5 0.111548 0.201494 0.753224
Si Si6 0.000000 0.500000 0.719859
Si Si7 0.899578 0.205650 0.585935
Si Si8 0.757190 0.414328 0.183628
O O1 0.758061 0.878599 0.080184
O O2 0.500000 0.920645 0.000000
O O3 0.719401 0.884898 0.911127
O O4 0.723063 0.000000 0.000000
O O5 0.881890 0.962754 0.828976
O O6 0.102008 0.952188 0.712610
O O7 0.236576 0.646448 0.756767
O O8 0.328515 0.633359 0.597812
O O9 0.115151 0.547255 0.667777
O O10 0.250000 0.750000 0.866233
O O11 0.014038 0.814576 0.827774
O O12 0.250000 0.250000 0.774084
O O13 0.202790 0.134084 0.740816
O O14 0.010633 0.219716 0.668894
O O15 0.900536 0.545687 0.783073
O O16 0.750000 0.250000 0.585744
O O17 0.000000 0.213012 0.500000
#
# Coordination Sequence:
#
# PCOD9322663 Si02
#       8
#     8   4   8   8   8   4   8   8
#     4  11  24  42  65  94 133 179 235 298 348 402
#     4  10  18  40  64  94 126 170 232 264 333 397
#     4  10  20  41  66 100 133 174 220 275 331 409
#     4  11  24  43  64  93 138 180 232 288 349 398
#     4  11  25  42  68  98 132 179 223 271 344 413
#     4  10  22  36  73  99 130 184 226 280 332 409
#     4  11  24  46  74 103 135 170 218 280 339 409
#     4  11  22  39  65  92 129 174 234 277 334 399
#
# _framework density 20.384833
#
# number of rings (size 3 to 8) (size 9 to 14) (size 15 to 20)
#    0.000    1.286    2.857    5.571    6.000    1.143 
#    0.000    0.357    0.000    0.857    0.000    0.000 
#    0.000    0.000    0.000    0.000    0.000    0.000 
#
# Total GULP energy -156063.299911 kJ/mol
# GULP energy per Si atom -5573.689283 kJ/mol
# Density = 2.033844 g / cm^3
# Si number density = 20.384833 Si / 1000 Ang^3
#
#
#
# Elastic Constant Matrix: (Units=GPa)
#
#
# Indices 1 2 3 4 5 6 
#
# 1 153.8342 65.8354 51.0482 0.0000 0.0000 0.0000
# 2 65.8354 110.5353 37.1311 0.0000 0.0000 0.0000
# 3 51.0482 37.1311 59.8018 0.0000 0.0000 0.0000
# 4 0.0000 0.0000 0.0000 -2.4837 0.0000 0.0000
# 5 0.0000 0.0000 0.0000 0.0000 35.6333 0.0000
# 6 0.0000 0.0000 0.0000 0.0000 0.0000 41.2852
#
#
#
# Elastic Compliance Matrix: (Units=1/GPa)
#
#
# Indices 1 2 3 4 5 6 
#
# 1 0.010316 -0.004026 -0.006306 0.000000 0.000000 0.000000
# 2 -0.004026 0.013002 -0.004637 0.000000 0.000000 0.000000
# 3 -0.006306 -0.004637 0.024984 0.000000 0.000000 0.000000
# 4 0.000000 0.000000 0.000000 -0.402628 0.000000 0.000000
# 5 0.000000 0.000000 0.000000 0.000000 0.028064 0.000000
# 6 0.000000 0.000000 0.000000 0.000000 0.000000 0.024222
#
#
# Mechanical properties :
#
#
# Convention : Reuss Voigt Hill
#
# Bulk Modulus (GPa) = 54.45214 70.24451 62.34832
# Shear Modulus (GPa) = -18.79832 26.23074 3.71621
#
# Velocity S-wave (km/s) = -3.04002 3.59106 1.35166
# Velocity P-wave (km/s) = 3.80102 7.19224 5.75222
#
# Compressibility (1/GPa) = 0.01836475
#
# Stress axis : x y z
#
# Youngs Moduli (GPa) = 96.93532 76.90991 40.02554
#
# Poissons Ratio (x) = 0.30963 0.25242
# Poissons Ratio (y) = 0.39025 0.18558
# Poissons Ratio (z) = 0.61132 0.35659
#
# Static dielectric constant tensor:
#      x y z
#    x 1.778120 0.000000 0.000000 
#    y 0.000000 1.900000 0.000000 
#    z 0.000000 0.000000 1.726580 
# 
# From -- ./inp_files/30785.got.cif
#   From: 2010.05.17/outbox.cif.g08.bks.cpg/sg21_16_cif.got.tgz:30785.got - 2010.06.03 23:14:55.
