data_PCOD9322383
_publ_section_title
;
Structure prediction by ZEFSAII (Michael W. Deem and Ramdas Pophale) SiO2 
 PCOD9322383
Probable space group: C 2 2 2
;
_chemical_formula_sum "Si O2"
_cell_formula_units_Z 54
_cell_length_a 14.392181
_cell_length_b 5.181175
_cell_length_c 28.838538
_cell_angle_alpha 90.000000
_cell_angle_beta 90.000000
_cell_angle_gamma 90.000000
_cell_volume 2150.443879
_symmetry_space_group_name_H-M "C 2 2 2"
_symmetry_group_IT_number 21
_symmetry_cell_setting 'orthorhombic'
loop_
_space_group_symop_operation_xyz
x,y,z
-x,-y,z
x,-y,-z
-x,y,-z
1/2+x,1/2+y,z
1/2-x,1/2-y,z
1/2+x,1/2-y,-z
1/2-x,1/2+y,-z
loop_
_atom_site_type_symbol
_atom_site_label
_atom_site_fract_x
_atom_site_fract_y
_atom_site_fract_z
Si Si1 0.160403 0.136754 0.435138
Si Si2 0.000000 0.000000 0.500000
Si Si3 0.858339 0.730421 0.719294
Si Si4 0.000000 0.000000 0.226313
Si Si5 0.645783 0.131982 0.808590
Si Si6 0.640184 0.332087 0.046150
Si Si7 0.101292 0.396483 0.615909
Si Si8 0.355885 0.171811 0.087334
O O1 0.250000 0.250000 0.463048
O O2 0.161073 0.352391 0.395100
O O3 0.071478 0.160369 0.468667
O O4 0.142294 0.852917 0.411874
O O5 0.750000 0.750000 0.710427
O O6 0.914505 0.975004 0.737090
O O7 0.868312 0.560069 0.765692
O O8 0.900987 0.652254 0.670528
O O9 0.052009 0.199533 0.193184
O O10 0.750000 0.250000 0.801041
O O11 0.650060 0.043507 0.861843
O O12 0.750000 0.250000 0.047154
O O13 0.606508 0.536461 0.085160
O O14 0.600910 0.046070 0.054659
O O15 0.622422 0.500000 0.000000
O O16 0.000000 0.500000 0.602126
O O17 0.250000 0.250000 0.073240
#
# Coordination Sequence:
#
# PCOD9322383 Si02
#       8
#     8   2   8   4   8   8   8   8
#     4  12  28  51  82 120 160 212 269 335 404 481
#     4  12  28  56  84 116 168 210 272 336 412 484
#     4  12  27  46  75 109 154 203 257 323 386 464
#     4  12  26  45  72 102 145 199 260 307 380 458
#     4  11  24  44  68 102 148 197 251 315 382 456
#     4  10  17  30  51  87 130 180 230 297 372 447
#     4  12  26  51  79 115 164 210 266 332 400 475
#     4   9  20  32  56  86 134 183 232 300 371 440
#
# _framework density 25.111094999999999
#
# number of rings (size 3 to 8) (size 9 to 14) (size 15 to 20)
#    0.000    0.889    2.963    4.444    6.222    3.556 
#    0.000    0.000    0.000    0.000    0.000    0.519 
#    0.000    0.000    0.000    0.000    0.000    0.000 
#
# Total GULP energy -150334.389157 kJ/mol
# GULP energy per Si atom -5567.940339 kJ/mol
# Density = 2.505394 g / cm^3
# Si number density = 25.111095 Si / 1000 Ang^3
#
#
#
# Elastic Constant Matrix: (Units=GPa)
#
#
# Indices 1 2 3 4 5 6 
#
# 1 150.1840 36.3927 6.4174 0.0000 0.0000 0.0000
# 2 36.3927 136.7992 47.6092 0.0000 0.0000 0.0000
# 3 6.4174 47.6092 121.8225 0.0000 0.0000 0.0000
# 4 0.0000 0.0000 0.0000 -12.5767 0.0000 0.0000
# 5 0.0000 0.0000 0.0000 0.0000 11.2391 0.0000
# 6 0.0000 0.0000 0.0000 0.0000 0.0000 25.7824
#
#
#
# Elastic Compliance Matrix: (Units=1/GPa)
#
#
# Indices 1 2 3 4 5 6 
#
# 1 0.007136 -0.002046 0.000424 0.000000 0.000000 0.000000
# 2 -0.002046 0.009047 -0.003428 0.000000 0.000000 0.000000
# 3 0.000424 -0.003428 0.009526 0.000000 0.000000 0.000000
# 4 0.000000 0.000000 0.000000 -0.079512 0.000000 0.000000
# 5 0.000000 0.000000 0.000000 0.000000 0.088975 0.000000
# 6 0.000000 0.000000 0.000000 0.000000 0.000000 0.038786
#
#
# Mechanical properties :
#
#
# Convention : Reuss Voigt Hill
#
# Bulk Modulus (GPa) = 64.06553 65.51602 64.79077
# Shear Modulus (GPa) = 56.01491 26.11471 41.06481
#
# Velocity S-wave (km/s) = 4.72814 3.22835 4.04830
# Velocity P-wave (km/s) = 7.44145 6.32799 6.90719
#
# Compressibility (1/GPa) = 0.01560902
#
# Stress axis : x y z
#
# Youngs Moduli (GPa) = 140.13148 110.53074 104.97555
#
# Poissons Ratio (x) = 0.22613 -0.04447
# Poissons Ratio (y) = 0.28669 0.35985
# Poissons Ratio (z) = -0.05936 0.37890
#
# Static dielectric constant tensor:
#      x y z
#    x 1.512690 0.000000 0.000000 
#    y 0.000000 1.972470 0.000000 
#    z 0.000000 0.000000 2.030890 
# 
# From -- ./inp_files/39639.got.cif
#   From: 2010.05.17/outbox.cif.g08.bks.cpg/sg21_20_cif.got.tgz:39639.got - 2010.06.03 23:14:55.
