data_PCOD9322219
_publ_section_title
;
Structure prediction by ZEFSAII (Michael W. Deem and Ramdas Pophale) SiO2 
 PCOD9322219
Probable space group: C 2 2 21
;
_chemical_formula_sum "Si O2"
_cell_formula_units_Z 30
_cell_length_a 21.000000
_cell_length_b 24.000000
_cell_length_c 6.000000
_cell_angle_alpha 90.000000
_cell_angle_beta 90.000000
_cell_angle_gamma 90.000000
_cell_volume 3024.000000
_symmetry_space_group_name_H-M "C 2 2 21"
_symmetry_group_IT_number 20
_symmetry_cell_setting 'orthorhombic'
loop_
_space_group_symop_operation_xyz
x,y,z
-x,-y,1/2+z
x,-y,-z
-x,y,1/2-z
1/2+x,1/2+y,z
1/2-x,1/2-y,1/2+z
1/2+x,1/2-y,-z
1/2-x,1/2+y,1/2-z
loop_
_atom_site_type_symbol
_atom_site_label
_atom_site_fract_x
_atom_site_fract_y
_atom_site_fract_z
Si Si1 0.702879 0.968642 0.246684
Si Si2 0.674502 0.275298 0.420805
Si Si3 0.575849 0.469552 0.247057
Si Si4 0.500000 0.861779 0.750000
Si Si5 0.686610 0.617244 0.859639
Si Si6 0.384500 0.116680 0.549520
Si Si7 0.731109 0.161040 0.245952
Si Si8 0.564716 0.213172 0.628233
O O1 0.758812 0.921988 0.248566
O O2 0.637739 0.933265 0.211623
O O3 0.704266 0.000000 0.500000
O O4 0.709681 0.000000 0.000000
O O5 0.672806 0.318627 0.214978
O O6 0.698284 0.212284 0.377451
O O7 0.725382 0.306806 0.571069
O O8 0.608071 0.264085 0.545985
O O9 0.588541 0.500000 0.500000
O O10 0.500000 0.456916 0.250000
O O11 0.622799 0.416931 0.207593
O O12 0.585822 0.500000 0.000000
O O13 0.448812 0.893554 0.593840
O O14 0.541886 0.823180 0.584378
O O15 0.720241 0.624772 0.103419
O O16 0.326133 0.128408 0.377574
O O17 0.398213 0.171817 0.700072
O O18 0.500000 0.231782 0.750000
#
# Coordination Sequence:
#
# PCOD9322219 Si02
#       8
#     8   8   8   4   8   8   8   8
#     4  12  27  45  72 103 139 178 237 311 363 420
#     4  12  23  39  63  99 145 185 230 286 351 429
#     4  10  24  49  75  99 137 186 242 303 366 425
#     4  10  22  42  78  92 140 186 234 284 348 446
#     4  12  26  41  68 103 137 187 238 288 360 430
#     4  11  23  44  72 101 135 187 243 290 369 435
#     4  12  23  41  67 103 144 183 231 291 357 430
#     4  10  23  41  66 100 137 190 232 280 350 432
#
# _framework density 9.9206350000000008
#
# number of rings (size 3 to 8) (size 9 to 14) (size 15 to 20)
#    0.000    0.800    4.000    3.200    3.733    0.000 
#    3.600    0.000    4.400    0.000    0.000    0.000 
#    0.000    0.000    0.000    0.000    0.000    0.000 
#
# Total GULP energy -167070.567631 kJ/mol
# GULP energy per Si atom -5569.018921 kJ/mol
# Density = 0.989806 g / cm^3
# Si number density = 9.920635 Si / 1000 Ang^3
#
#
#
# Elastic Constant Matrix: (Units=GPa)
#
#
# Indices 1 2 3 4 5 6 
#
# 1 83.7736 19.5922 23.5090 0.0000 0.0000 0.0000
# 2 19.5922 56.4016 18.7983 0.0000 0.0000 0.0000
# 3 23.5090 18.7983 102.0330 0.0000 0.0000 0.0000
# 4 0.0000 0.0000 0.0000 45.7710 0.0000 0.0000
# 5 0.0000 0.0000 0.0000 0.0000 45.6761 0.0000
# 6 0.0000 0.0000 0.0000 0.0000 0.0000 28.5909
#
#
#
# Elastic Compliance Matrix: (Units=1/GPa)
#
#
# Indices 1 2 3 4 5 6 
#
# 1 0.013521 -0.003898 -0.002397 0.000000 0.000000 0.000000
# 2 -0.003898 0.020014 -0.002789 0.000000 0.000000 0.000000
# 3 -0.002397 -0.002789 0.010867 0.000000 0.000000 0.000000
# 4 0.000000 0.000000 0.000000 0.021848 0.000000 0.000000
# 5 0.000000 0.000000 0.000000 0.000000 0.021893 0.000000
# 6 0.000000 0.000000 0.000000 0.000000 0.000000 0.034976
#
#
# Mechanical properties :
#
#
# Convention : Reuss Voigt Hill
#
# Bulk Modulus (GPa) = 38.11955 40.66746 39.39350
# Shear Modulus (GPa) = 33.32619 36.02819 34.67719
#
# Velocity S-wave (km/s) = 4.10279 4.26587 4.18512
# Velocity P-wave (km/s) = 6.45738 6.69361 6.57656
#
# Compressibility (1/GPa) = 0.02623326
#
# Stress axis : x y z
#
# Youngs Moduli (GPa) = 73.95765 49.96602 92.02206
#
# Poissons Ratio (x) = 0.19476 0.22060
# Poissons Ratio (y) = 0.28828 0.25666
# Poissons Ratio (z) = 0.17729 0.13936
#
# Static dielectric constant tensor:
#      x y z
#    x 1.715500 0.000000 0.000000 
#    y 0.000000 1.731970 0.000000 
#    z 0.000000 0.000000 1.816950 
# 
# From -- ./inp_files/3324.got.cif
#   From: 2010.05.17/outbox.ucp.g08.bks.cvg/sg20_2_cif.got.tgz:3324.got - 2010.06.11 15:13:06.
