data_PCOD9322569
_publ_section_title
;
Structure prediction by ZEFSAII (Michael W. Deem and Ramdas Pophale) SiO2 
 PCOD9322569
Probable space group: C 2 2 2
;
_chemical_formula_sum "Si O2"
_cell_formula_units_Z 48
_cell_length_a 10.261958
_cell_length_b 22.607806
_cell_length_c 10.303960
_cell_angle_alpha 90.000000
_cell_angle_beta 90.000000
_cell_angle_gamma 90.000000
_cell_volume 2390.522385
_symmetry_space_group_name_H-M "C 2 2 2"
_symmetry_group_IT_number 21
_symmetry_cell_setting 'orthorhombic'
loop_
_space_group_symop_operation_xyz
x,y,z
-x,-y,z
x,-y,-z
-x,y,-z
1/2+x,1/2+y,z
1/2-x,1/2-y,z
1/2+x,1/2-y,-z
1/2-x,1/2+y,-z
loop_
_atom_site_type_symbol
_atom_site_label
_atom_site_fract_x
_atom_site_fract_y
_atom_site_fract_z
Si Si1 0.212248 0.579087 0.621624
Si Si2 0.773411 0.559458 0.665891
Si Si3 0.835252 0.663126 0.160534
Si Si4 0.048223 0.214666 0.143659
Si Si5 0.649526 0.063655 0.042865
Si Si6 0.494963 0.376109 0.647251
O O1 0.195918 0.509985 0.650175
O O2 0.182002 0.589039 0.469757
O O3 0.134126 0.621343 0.717386
O O4 0.363641 0.593065 0.656669
O O5 0.830934 0.575354 0.805432
O O6 0.619417 0.575798 0.665426
O O7 0.943978 0.713978 0.148512
O O8 0.695614 0.694489 0.173810
O O9 0.808146 0.619986 0.039720
O O10 0.971511 0.177066 0.251642
O O11 0.000000 0.198188 0.000000
O O12 0.500000 0.059326 0.000000
O O13 0.710657 0.000000 0.000000
O O14 0.500000 0.352348 0.500000
#
# Coordination Sequence:
#
# PCOD9322569 Si02
#       6
#     8   8   8   8   8   8
#     4   9  18  33  57  86 115 148 184 233 306 358
#     4  10  18  34  58  84 116 147 186 241 298 358
#     4  10  20  37  55  77 114 150 188 241 287 339
#     4  10  20  35  56  80 110 150 192 232 284 352
#     4  11  22  36  54  76 109 152 196 237 285 334
#     4   9  18  33  57  88 116 143 183 239 299 358
#
# _framework density 20.079294000000001
#
# number of rings (size 3 to 8) (size 9 to 14) (size 15 to 20)
#    0.000    2.167    1.667    2.000    0.000    2.000 
#    0.000    4.167    0.000    8.000    0.000    0.000 
#    0.000    0.000    0.000    0.000    0.000    0.000 
#
# Total GULP energy -133678.798028 kJ/mol
# GULP energy per Si atom -5569.949918 kJ/mol
# Density = 2.003359 g / cm^3
# Si number density = 20.079294 Si / 1000 Ang^3
#
#
#
# Elastic Constant Matrix: (Units=GPa)
#
#
# Indices 1 2 3 4 5 6 
#
# 1 13.5064 -6.2730 6.5309 0.0000 0.0000 0.0000
# 2 -6.2730 94.8624 50.0902 0.0000 0.0000 0.0000
# 3 6.5309 50.0902 172.7923 0.0000 0.0000 0.0000
# 4 0.0000 0.0000 0.0000 26.5658 0.0000 0.0000
# 5 0.0000 0.0000 0.0000 0.0000 19.1975 0.0000
# 6 0.0000 0.0000 0.0000 0.0000 0.0000 6.1651
#
#
#
# Elastic Compliance Matrix: (Units=1/GPa)
#
#
# Indices 1 2 3 4 5 6 
#
# 1 0.080453 0.008178 -0.005411 0.000000 0.000000 0.000000
# 2 0.008178 0.013278 -0.004158 0.000000 0.000000 0.000000
# 3 -0.005411 -0.004158 0.007197 0.000000 0.000000 0.000000
# 4 0.000000 0.000000 0.000000 0.037642 0.000000 0.000000
# 5 0.000000 0.000000 0.000000 0.000000 0.052090 0.000000
# 6 0.000000 0.000000 0.000000 0.000000 0.000000 0.162202
#
#
# Mechanical properties :
#
#
# Convention : Reuss Voigt Hill
#
# Bulk Modulus (GPa) = 10.18905 42.42858 26.30882
# Shear Modulus (GPa) = 12.87458 25.77323 19.32390
#
# Velocity S-wave (km/s) = 2.53491 3.58658 3.10559
# Velocity P-wave (km/s) = 3.69502 6.19095 5.09809
#
# Compressibility (1/GPa) = 0.09814453
#
# Stress axis : x y z
#
# Youngs Moduli (GPa) = 12.42956 75.31260 138.94238
#
# Poissons Ratio (x) = -0.61587 0.75187
# Poissons Ratio (y) = -0.10164 0.57775
# Poissons Ratio (z) = 0.06726 0.31316
#
# Static dielectric constant tensor:
#      x y z
#    x 1.670340 0.000000 0.000000 
#    y 0.000000 1.770430 0.000000 
#    z 0.000000 0.000000 1.731010 
# 
# From -- ./inp_files/13320.got.cif
#   From: 2010.05.17/outbox.cif.g08.bks.cpg/sg21_7_cif.got.tgz:13320.got - 2010.06.03 23:14:55.
