data_PCOD9322235
_publ_section_title
;
Structure prediction by ZEFSAII (Michael W. Deem and Ramdas Pophale) SiO2 
 PCOD9322235
Probable space group: C 2 2 21
;
_chemical_formula_sum "Si O2"
_cell_formula_units_Z 24
_cell_length_a 9.000000
_cell_length_b 12.000000
_cell_length_c 24.000000
_cell_angle_alpha 90.000000
_cell_angle_beta 90.000000
_cell_angle_gamma 90.000000
_cell_volume 2592.000000
_symmetry_space_group_name_H-M "C 2 2 21"
_symmetry_group_IT_number 20
_symmetry_cell_setting 'orthorhombic'
loop_
_space_group_symop_operation_xyz
x,y,z
-x,-y,1/2+z
x,-y,-z
-x,y,1/2-z
1/2+x,1/2+y,z
1/2-x,1/2-y,1/2+z
1/2+x,1/2-y,-z
1/2-x,1/2+y,1/2-z
loop_
_atom_site_type_symbol
_atom_site_label
_atom_site_fract_x
_atom_site_fract_y
_atom_site_fract_z
Si Si1 0.412438 0.243952 0.374834
Si Si2 0.077302 0.981056 0.064694
Si Si3 0.283925 0.895367 0.208646
Si Si4 0.880214 0.643002 0.666054
Si Si5 0.232711 0.623618 0.352030
Si Si6 0.268655 0.025616 0.432096
O O1 0.427571 0.351702 0.415525
O O2 0.327642 0.305285 0.321799
O O3 0.569405 0.182701 0.358154
O O4 0.327312 0.145175 0.408738
O O5 0.205287 0.050602 0.096299
O O6 0.909668 0.024204 0.075423
O O7 0.105662 0.000000 0.000000
O O8 0.446538 0.873042 0.181452
O O9 0.292965 0.884214 0.275806
O O10 0.256468 0.026934 0.195176
O O11 0.842610 0.771950 0.654935
O O12 0.834771 0.567103 0.612075
O O13 0.297756 0.000000 0.500000
#
# Coordination Sequence:
#
# PCOD9322235 Si02
#       6
#     8   8   8   8   8   8
#     4  11  23  43  66  96 128 173 217 272 329 390
#     4  10  24  42  64  95 131 174 218 268 328 396
#     4  10  25  43  65  95 127 172 215 275 335 398
#     4  11  23  43  66  94 130 170 217 272 336 389
#     4  11  23  43  64  95 129 165 222 266 332 390
#     4  11  24  43  66  96 133 175 222 270 334 397
#
# _framework density 9.2592590000000001
#
# number of rings (size 3 to 8) (size 9 to 14) (size 15 to 20)
#    0.000    1.333    3.333    1.000    4.667    1.333 
#    0.000    0.000    0.000    0.000    0.000    0.000 
#    0.000    0.000    0.000    0.000    0.000    0.000 
#
# Total GULP energy -133760.161921 kJ/mol
# GULP energy per Si atom -5573.340080 kJ/mol
# Density = 0.923818 g / cm^3
# Si number density = 9.259259 Si / 1000 Ang^3
#
#
#
# Elastic Constant Matrix: (Units=GPa)
#
#
# Indices 1 2 3 4 5 6 
#
# 1 59.2916 26.1089 17.9296 0.0000 0.0000 0.0000
# 2 26.1089 170.1418 43.2284 0.0000 0.0000 0.0000
# 3 17.9296 43.2284 113.9881 0.0000 0.0000 0.0000
# 4 0.0000 0.0000 0.0000 24.7458 0.0000 0.0000
# 5 0.0000 0.0000 0.0000 0.0000 30.7046 0.0000
# 6 0.0000 0.0000 0.0000 0.0000 0.0000 46.1996
#
#
#
# Elastic Compliance Matrix: (Units=1/GPa)
#
#
# Indices 1 2 3 4 5 6 
#
# 1 0.018503 -0.002324 -0.002029 0.000000 0.000000 0.000000
# 2 -0.002324 0.006796 -0.002212 0.000000 0.000000 0.000000
# 3 -0.002029 -0.002212 0.009931 0.000000 0.000000 0.000000
# 4 0.000000 0.000000 0.000000 0.040411 0.000000 0.000000
# 5 0.000000 0.000000 0.000000 0.000000 0.032568 0.000000
# 6 0.000000 0.000000 0.000000 0.000000 0.000000 0.021645
#
#
# Mechanical properties :
#
#
# Convention : Reuss Voigt Hill
#
# Bulk Modulus (GPa) = 45.24851 57.55059 51.39955
# Shear Modulus (GPa) = 33.25574 37.40697 35.33135
#
# Velocity S-wave (km/s) = 4.24230 4.49929 4.37268
# Velocity P-wave (km/s) = 6.96300 7.62471 7.30136
#
# Compressibility (1/GPa) = 0.02210018
#
# Stress axis : x y z
#
# Youngs Moduli (GPa) = 54.04630 147.14554 100.69693
#
# Poissons Ratio (x) = 0.34193 0.20432
# Poissons Ratio (y) = 0.12559 0.22272
# Poissons Ratio (z) = 0.10967 0.32545
#
# Static dielectric constant tensor:
#      x y z
#    x 1.669520 0.000000 0.000000 
#    y 0.000000 1.625560 0.000000 
#    z 0.000000 0.000000 1.664930 
# 
# From -- ./inp_files/28727.got.cif
#   From: 2010.05.17/outbox.ucp.g08.bks.cvg/sg20_15_cif.got.tgz:28727.got - 2010.06.11 15:13:06.
