data_PCOD9322973
_publ_section_title
;
Structure prediction by ZEFSAII (Michael W. Deem and Ramdas Pophale) SiO2 
 PCOD9322973
Probable space group: C 2 2 2
;
_chemical_formula_sum "Si O2"
_cell_formula_units_Z 38
_cell_length_a 11.841741
_cell_length_b 24.434137
_cell_length_c 5.832743
_cell_angle_alpha 90.000000
_cell_angle_beta 90.000000
_cell_angle_gamma 90.000000
_cell_volume 1687.661736
_symmetry_space_group_name_H-M "C 2 2 2"
_symmetry_group_IT_number 21
_symmetry_cell_setting 'orthorhombic'
loop_
_space_group_symop_operation_xyz
x,y,z
-x,-y,z
x,-y,-z
-x,y,-z
1/2+x,1/2+y,z
1/2-x,1/2-y,z
1/2+x,1/2-y,-z
1/2-x,1/2+y,-z
loop_
_atom_site_type_symbol
_atom_site_label
_atom_site_fract_x
_atom_site_fract_y
_atom_site_fract_z
Si Si1 0.114885 0.588201 0.555019
Si Si2 0.766562 0.854470 0.826849
Si Si3 0.500000 0.500000 0.500000
Si Si4 0.905055 0.696057 0.174025
Si Si5 0.328876 0.553742 0.848265
Si Si6 0.750000 0.250000 0.473824
O O1 0.184635 0.607927 0.330922
O O2 0.064620 0.639751 0.699361
O O3 0.210336 0.561982 0.715989
O O4 0.000000 0.556837 0.500000
O O5 0.795155 0.803564 0.661125
O O6 0.698720 0.821566 0.018224
O O7 0.845667 0.895133 0.975611
O O8 0.423760 0.539603 0.659638
O O9 0.856510 0.734129 0.369811
O O10 0.000000 0.716732 0.000000
O O11 0.321739 0.500000 0.000000
#
# Coordination Sequence:
#
# PCOD9322973 Si02
#       6
#     8   8   2   8   8   4
#     4  10  20  39  71 109 140 182 231 291 363 440
#     4  10  21  41  68 104 142 187 233 298 351 425
#     4  12  26  52  74 102 132 200 246 302 364 424
#     4  10  19  36  67 100 137 195 228 285 355 413
#     4  11  25  45  76 105 138 192 241 297 368 429
#     4  10  22  36  68 106 146 188 240 290 352 434
#
# _framework density 22.516359999999999
#
# number of rings (size 3 to 8) (size 9 to 14) (size 15 to 20)
#    0.000    1.684    2.105    2.211    0.000    0.000 
#    0.000    7.895    0.000  113.684    2.737    0.000 
#    0.000    0.000    0.000    0.000    0.000    0.000 
#
# Total GULP energy -105988.339866 kJ/mol
# GULP energy per Si atom -5578.333677 kJ/mol
# Density = 2.246511 g / cm^3
# Si number density = 22.516360 Si / 1000 Ang^3
#
#
#
# Elastic Constant Matrix: (Units=GPa)
#
#
# Indices 1 2 3 4 5 6 
#
# 1 102.1173 65.5839 67.7874 0.0000 0.0000 0.0000
# 2 65.5839 139.8419 86.0374 0.0000 0.0000 0.0000
# 3 67.7874 86.0374 156.1938 0.0000 0.0000 0.0000
# 4 0.0000 0.0000 0.0000 -318.5318 0.0000 0.0000
# 5 0.0000 0.0000 0.0000 0.0000 7.5426 0.0000
# 6 0.0000 0.0000 0.0000 0.0000 0.0000 22.0374
#
#
#
# Elastic Compliance Matrix: (Units=1/GPa)
#
#
# Indices 1 2 3 4 5 6 
#
# 1 0.015608 -0.004768 -0.004147 0.000000 0.000000 0.000000
# 2 -0.004768 0.012274 -0.004691 0.000000 0.000000 0.000000
# 3 -0.004147 -0.004691 0.010786 0.000000 0.000000 0.000000
# 4 0.000000 0.000000 0.000000 -0.003139 0.000000 0.000000
# 5 0.000000 0.000000 0.000000 0.000000 0.132580 0.000000
# 6 0.000000 0.000000 0.000000 0.000000 0.000000 0.045377
#
#
# Mechanical properties :
#
#
# Convention : Reuss Voigt Hill
#
# Bulk Modulus (GPa) = 87.30453 92.99672 90.15063
# Shear Modulus (GPa) = 20.44844 -45.87406 -12.71281
#
# Velocity S-wave (km/s) = 3.01684 -4.51862 -2.37872
# Velocity P-wave (km/s) = 7.14094 3.76400 5.70792
#
# Compressibility (1/GPa) = 0.01145416
#
# Stress axis : x y z
#
# Youngs Moduli (GPa) = 64.06909 81.47618 92.71022
#
# Poissons Ratio (x) = 0.38851 0.38449
# Poissons Ratio (y) = 0.30551 0.43493
# Poissons Ratio (z) = 0.26571 0.38222
#
# Static dielectric constant tensor:
#      x y z
#    x 2.012950 0.000000 0.000000 
#    y 0.000000 1.906420 0.000000 
#    z 0.000000 0.000000 0.853320 
# 
# From -- ./inp_files/2851.got.cif
#   From: 2010.05.17/outbox.cif.g08.bks.cpg/sg21_2_cif.got.tgz:2851.got - 2010.06.03 23:14:55.
