data_PCOD9322791
_publ_section_title
;
Structure prediction by ZEFSAII (Michael W. Deem and Ramdas Pophale) SiO2 
 PCOD9322791
Probable space group: C 2 2 2
;
_chemical_formula_sum "Si O2"
_cell_formula_units_Z 64
_cell_length_a 18.455202
_cell_length_b 7.996896
_cell_length_c 23.558538
_cell_angle_alpha 90.000000
_cell_angle_beta 90.000000
_cell_angle_gamma 90.000000
_cell_volume 3476.871071
_symmetry_space_group_name_H-M "C 2 2 2"
_symmetry_group_IT_number 21
_symmetry_cell_setting 'orthorhombic'
loop_
_space_group_symop_operation_xyz
x,y,z
-x,-y,z
x,-y,-z
-x,y,-z
1/2+x,1/2+y,z
1/2-x,1/2-y,z
1/2+x,1/2-y,-z
1/2-x,1/2+y,-z
loop_
_atom_site_type_symbol
_atom_site_label
_atom_site_fract_x
_atom_site_fract_y
_atom_site_fract_z
Si Si1 0.919523 0.417874 0.878306
Si Si2 0.586619 0.682670 0.329322
Si Si3 0.695133 0.881720 0.953343
Si Si4 0.587184 0.987304 0.252416
Si Si5 0.424695 0.311583 0.023369
Si Si6 0.333349 0.805880 0.432303
Si Si7 0.334736 0.206685 0.439460
Si Si8 0.911987 0.811096 0.680375
O O1 0.856112 0.519246 0.910351
O O2 0.900440 0.430722 0.812091
O O3 0.922054 0.236859 0.909961
O O4 0.000000 0.500000 0.884952
O O5 0.614557 0.841149 0.293701
O O6 0.616851 0.702051 0.392757
O O7 0.499252 0.692341 0.326619
O O8 0.608263 0.501710 0.304873
O O9 0.750000 0.750000 0.926136
O O10 0.640114 0.780734 0.992834
O O11 0.734389 0.000000 0.000000
O O12 0.500000 0.000000 0.257742
O O13 0.612171 0.169659 0.274391
O O14 0.423135 0.500000 0.000000
O O15 0.500000 0.237699 0.000000
O O16 0.250000 0.750000 0.425222
O O17 0.355441 0.749445 0.495750
O O18 0.378662 0.733252 0.380573
O O19 0.340714 0.006760 0.431802
O O20 0.250000 0.250000 0.431959
#
# Coordination Sequence:
#
# PCOD9322791 Si02
#       8
#     8   8   8   8   8   8   8   8
#     4  10  19  36  59  83 118 157 197 245 289 347
#     4  10  20  36  58  80 113 147 193 238 288 352
#     4  10  20  34  58  82 119 154 186 228 297 344
#     4   9  19  37  57  81 113 153 197 243 289 335
#     4  10  19  33  55  89 118 146 194 238 282 353
#     4  10  20  34  54  83 112 146 188 239 295 357
#     4  10  20  34  55  80 113 147 187 239 298 353
#     4  10  20  36  57  83 110 148 191 239 291 347
#
# _framework density 18.407354999999999
#
# number of rings (size 3 to 8) (size 9 to 14) (size 15 to 20)
#    0.000    2.125    2.500    1.125    0.000    2.000 
#    2.250    4.375    0.000    0.750    0.000    0.000 
#    0.000    0.000    0.000    0.000    0.000    0.000 
#
# Total GULP energy -178246.218035 kJ/mol
# GULP energy per Si atom -5570.194314 kJ/mol
# Density = 1.836546 g / cm^3
# Si number density = 18.407355 Si / 1000 Ang^3
#
#
#
# Elastic Constant Matrix: (Units=GPa)
#
#
# Indices 1 2 3 4 5 6 
#
# 1 25.7478 16.4979 12.6951 0.0000 0.0000 0.0000
# 2 16.4979 110.5891 58.0588 0.0000 0.0000 0.0000
# 3 12.6951 58.0588 117.3800 0.0000 0.0000 0.0000
# 4 0.0000 0.0000 0.0000 19.7734 0.0000 0.0000
# 5 0.0000 0.0000 0.0000 0.0000 -10.7408 0.0000
# 6 0.0000 0.0000 0.0000 0.0000 0.0000 16.6757
#
#
#
# Elastic Compliance Matrix: (Units=1/GPa)
#
#
# Indices 1 2 3 4 5 6 
#
# 1 0.043291 -0.005403 -0.002010 0.000000 0.000000 0.000000
# 2 -0.005403 0.012889 -0.005791 0.000000 0.000000 0.000000
# 3 -0.002010 -0.005791 0.011601 0.000000 0.000000 0.000000
# 4 0.000000 0.000000 0.000000 0.050573 0.000000 0.000000
# 5 0.000000 0.000000 0.000000 0.000000 -0.093103 0.000000
# 6 0.000000 0.000000 0.000000 0.000000 0.000000 0.059967
#
#
# Mechanical properties :
#
#
# Convention : Reuss Voigt Hill
#
# Bulk Modulus (GPa) = 24.16984 47.58004 35.87494
# Shear Modulus (GPa) = 39.86721 16.23933 28.05327
#
# Velocity S-wave (km/s) = 4.65890 2.97344 3.90811
# Velocity P-wave (km/s) = 6.48841 6.13946 6.31635
#
# Compressibility (1/GPa) = 0.04137387
#
# Stress axis : x y z
#
# Youngs Moduli (GPa) = 23.09935 77.58796 86.20064
#
# Poissons Ratio (x) = 0.41923 0.17322
# Poissons Ratio (y) = 0.12481 0.49915
# Poissons Ratio (z) = 0.04642 0.44928
#
# Static dielectric constant tensor:
#      x y z
#    x 1.616810 0.000000 0.000000 
#    y 0.000000 1.712920 0.000000 
#    z 0.000000 0.000000 1.628930 
# 
# From -- ./inp_files/37700.got.cif
#   From: 2010.05.17/outbox.cif.g08.bks.cpg/sg21_19_cif.got.tgz:37700.got - 2010.06.03 23:14:55.
