data_PCOD9322914
_publ_section_title
;
Structure prediction by ZEFSAII (Michael W. Deem and Ramdas Pophale) SiO2 
 PCOD9322914
Probable space group: C 2 2 2
;
_chemical_formula_sum "Si O2"
_cell_formula_units_Z 64
_cell_length_a 15.264532
_cell_length_b 14.505920
_cell_length_c 12.302106
_cell_angle_alpha 90.000000
_cell_angle_beta 90.000000
_cell_angle_gamma 90.000000
_cell_volume 2724.007108
_symmetry_space_group_name_H-M "C 2 2 2"
_symmetry_group_IT_number 21
_symmetry_cell_setting 'orthorhombic'
loop_
_space_group_symop_operation_xyz
x,y,z
-x,-y,z
x,-y,-z
-x,y,-z
1/2+x,1/2+y,z
1/2-x,1/2-y,z
1/2+x,1/2-y,-z
1/2-x,1/2+y,-z
loop_
_atom_site_type_symbol
_atom_site_label
_atom_site_fract_x
_atom_site_fract_y
_atom_site_fract_z
Si Si1 0.694355 0.835251 0.261386
Si Si2 0.892770 0.795152 0.526375
Si Si3 0.666758 0.622189 0.740835
Si Si4 0.099960 0.595283 0.542942
Si Si5 0.361517 0.739135 0.961638
Si Si6 0.139683 0.078008 0.327805
Si Si7 0.495423 0.391529 0.148162
Si Si8 0.714271 0.898031 0.940875
O O1 0.750000 0.750000 0.313657
O O2 0.619855 0.887751 0.329944
O O3 0.656858 0.791760 0.152982
O O4 0.775487 0.904005 0.252591
O O5 0.851728 0.805945 0.646089
O O6 0.864039 0.691195 0.500112
O O7 0.856329 0.872690 0.443499
O O8 0.000000 0.798583 0.500000
O O9 0.636581 0.531000 0.675285
O O10 0.593112 0.640838 0.831691
O O11 0.753164 0.605297 0.814579
O O12 0.141374 0.500000 0.500000
O O13 0.000000 0.592776 0.500000
O O14 0.439062 0.671072 0.929671
O O15 0.367655 0.827241 0.043056
O O16 0.286201 0.665596 0.996188
O O17 0.055298 0.114153 0.263646
O O18 0.500000 0.500000 0.119273
O O19 0.707982 0.000000 0.000000
#
# Coordination Sequence:
#
# PCOD9322914 Si02
#       8
#     8   8   8   8   8   8   8   8
#     4  12  20  40  71  97 127 190 253 288 356 457
#     4  11  21  38  63  95 142 193 225 290 376 450
#     4  11  24  35  62 104 144 183 230 303 378 432
#     4  10  24  43  65  94 132 181 243 302 359 438
#     4  11  22  42  67  96 138 192 252 310 365 435
#     4  11  20  37  61 104 143 184 236 288 355 460
#     4  10  19  35  63  99 139 178 237 300 364 438
#     4  11  22  42  65  97 139 192 248 302 363 428
#
# _framework density 23.494799
#
# number of rings (size 3 to 8) (size 9 to 14) (size 15 to 20)
#    0.000    1.125    5.000    2.625    1.750    2.000 
#    0.000   10.000    0.000    0.000    0.000    0.875 
#    0.000    0.000    0.000    0.000    0.000    0.000 
#
# Total GULP energy -178159.831590 kJ/mol
# GULP energy per Si atom -5567.494737 kJ/mol
# Density = 2.344132 g / cm^3
# Si number density = 23.494799 Si / 1000 Ang^3
#
#
#
# Elastic Constant Matrix: (Units=GPa)
#
#
# Indices 1 2 3 4 5 6 
#
# 1 52.6951 20.8868 21.9796 0.0000 0.0000 0.0000
# 2 20.8868 137.9009 50.8263 0.0000 0.0000 0.0000
# 3 21.9796 50.8263 124.8686 0.0000 0.0000 0.0000
# 4 0.0000 0.0000 0.0000 9.7152 0.0000 0.0000
# 5 0.0000 0.0000 0.0000 0.0000 28.2463 0.0000
# 6 0.0000 0.0000 0.0000 0.0000 0.0000 26.0695
#
#
#
# Elastic Compliance Matrix: (Units=1/GPa)
#
#
# Indices 1 2 3 4 5 6 
#
# 1 0.021004 -0.002140 -0.002826 0.000000 0.000000 0.000000
# 2 -0.002140 0.008749 -0.003185 0.000000 0.000000 0.000000
# 3 -0.002826 -0.003185 0.009802 0.000000 0.000000 0.000000
# 4 0.000000 0.000000 0.000000 0.102932 0.000000 0.000000
# 5 0.000000 0.000000 0.000000 0.000000 0.035403 0.000000
# 6 0.000000 0.000000 0.000000 0.000000 0.000000 0.038359
#
#
# Mechanical properties :
#
#
# Convention : Reuss Voigt Hill
#
# Bulk Modulus (GPa) = 43.00256 55.87223 49.43740
# Shear Modulus (GPa) = 20.80712 27.59097 24.19905
#
# Velocity S-wave (km/s) = 2.97914 3.43059 3.21280
# Velocity P-wave (km/s) = 5.49331 6.28683 5.90342
#
# Compressibility (1/GPa) = 0.02325443
#
# Stress axis : x y z
#
# Youngs Moduli (GPa) = 47.60990 114.29263 102.01777
#
# Poissons Ratio (x) = 0.24455 0.28833
# Poissons Ratio (y) = 0.10187 0.32490
# Poissons Ratio (z) = 0.13456 0.36399
#
# Static dielectric constant tensor:
#      x y z
#    x 2.093600 0.000000 0.000000 
#    y 0.000000 1.979470 0.000000 
#    z 0.000000 0.000000 1.988570 
# 
# From -- ./inp_files/26256.got.cif
#   From: 2010.05.17/outbox.cif.g08.bks.cpg/sg21_14_cif.got.tgz:26256.got - 2010.06.03 23:14:55.
