data_PCOD9322150
_publ_section_title
;
Structure prediction by ZEFSAII (Michael W. Deem and Ramdas Pophale) SiO2 
 PCOD9322150
Probable space group: C 2 2 21
;
_chemical_formula_sum "Si O2"
_cell_formula_units_Z 16
_cell_length_a 13.846806
_cell_length_b 4.897218
_cell_length_c 9.756790
_cell_angle_alpha 90.000000
_cell_angle_beta 90.000000
_cell_angle_gamma 90.000000
_cell_volume 661.616004
_symmetry_space_group_name_H-M "C 2 2 21"
_symmetry_group_IT_number 20
_symmetry_cell_setting 'orthorhombic'
loop_
_space_group_symop_operation_xyz
x,y,z
-x,-y,1/2+z
x,-y,-z
-x,y,1/2-z
1/2+x,1/2+y,z
1/2-x,1/2-y,1/2+z
1/2+x,1/2-y,-z
1/2-x,1/2+y,1/2-z
loop_
_atom_site_type_symbol
_atom_site_label
_atom_site_fract_x
_atom_site_fract_y
_atom_site_fract_z
Si Si1 0.311640 0.145206 0.714879
Si Si2 0.413470 0.500000 0.500000
Si Si3 0.500000 0.171550 0.250000
O O1 0.264441 0.399210 0.794553
O O2 0.346984 0.276466 0.573436
O O3 0.407392 0.015824 0.781264
O O4 0.474172 0.355988 0.380657
#
# Coordination Sequence:
#
# PCOD9322150 Si02
#       3
#     8   4   4
#     4  12  28  56  83 123 170 224 279 346 417 505
#     4  12  28  60  86 128 168 230 276 350 436 490
#     4  12  28  58  86 130 174 216 288 350 426 504
#
# _framework density 24.183211
#
# number of rings (size 3 to 8) (size 9 to 14) (size 15 to 20)
#    0.000    0.000    5.000    3.000    0.000    0.000 
#   27.000    0.000    0.000    0.000    0.000    0.000 
#    0.000    0.000    0.000    0.000    0.000    0.000 
#
# Total GULP energy -44875.321379 kJ/mol
# GULP energy per Si atom -5609.415172 kJ/mol
# Density = 2.412817 g / cm^3
# Si number density = 24.183211 Si / 1000 Ang^3
#
#
#
# Elastic Constant Matrix: (Units=GPa)
#
#
# Indices 1 2 3 4 5 6 
#
# 1 162.1025 122.0266 100.0105 0.0000 0.0000 0.0000
# 2 122.0266 242.8407 109.9925 0.0000 0.0000 0.0000
# 3 100.0105 109.9925 172.4482 0.0000 0.0000 0.0000
# 4 0.0000 0.0000 0.0000 53.4096 0.0000 0.0000
# 5 0.0000 0.0000 0.0000 0.0000 46.8432 0.0000
# 6 0.0000 0.0000 0.0000 0.0000 0.0000 95.0883
#
#
#
# Elastic Compliance Matrix: (Units=1/GPa)
#
#
# Indices 1 2 3 4 5 6 
#
# 1 0.011840 -0.003993 -0.004320 0.000000 0.000000 0.000000
# 2 -0.003993 0.007137 -0.002237 0.000000 0.000000 0.000000
# 3 -0.004320 -0.002237 0.009731 0.000000 0.000000 0.000000
# 4 0.000000 0.000000 0.000000 0.018723 0.000000 0.000000
# 5 0.000000 0.000000 0.000000 0.000000 0.021348 0.000000
# 6 0.000000 0.000000 0.000000 0.000000 0.000000 0.010517
#
#
# Mechanical properties :
#
#
# Convention : Reuss Voigt Hill
#
# Bulk Modulus (GPa) = 131.41932 137.93894 134.67913
# Shear Modulus (GPa) = 48.57646 55.42567 52.00106
#
# Velocity S-wave (km/s) = 4.48670 4.79258 4.64216
# Velocity P-wave (km/s) = 9.01675 9.36953 9.19483
#
# Compressibility (1/GPa) = 0.00760923
#
# Stress axis : x y z
#
# Youngs Moduli (GPa) = 84.46171 140.10518 102.76751
#
# Poissons Ratio (x) = 0.55942 0.44391
# Poissons Ratio (y) = 0.33725 0.22988
# Poissons Ratio (z) = 0.36484 0.31339
#
# Static dielectric constant tensor:
#      x y z
#    x 1.941330 0.000000 0.000000 
#    y 0.000000 1.950650 0.000000 
#    z 0.000000 0.000000 1.873000 
# 
# From -- ./inp_files/4867.got.cif
#   From: 2010.05.17/outbox.cif.g08.bks.cpg/sg20_3_cif.got.tgz:4867.got - 2010.06.03 22:52:26.
