data_PCOD9322656
_publ_section_title
;
Structure prediction by ZEFSAII (Michael W. Deem and Ramdas Pophale) SiO2 
 PCOD9322656
Probable space group: C 2 2 2
;
_chemical_formula_sum "Si O2"
_cell_formula_units_Z 64
_cell_length_a 10.806804
_cell_length_b 15.277763
_cell_length_c 16.535966
_cell_angle_alpha 90.000000
_cell_angle_beta 90.000000
_cell_angle_gamma 90.000000
_cell_volume 2730.150663
_symmetry_space_group_name_H-M "C 2 2 2"
_symmetry_group_IT_number 21
_symmetry_cell_setting 'orthorhombic'
loop_
_space_group_symop_operation_xyz
x,y,z
-x,-y,z
x,-y,-z
-x,y,-z
1/2+x,1/2+y,z
1/2-x,1/2-y,z
1/2+x,1/2-y,-z
1/2-x,1/2+y,-z
loop_
_atom_site_type_symbol
_atom_site_label
_atom_site_fract_x
_atom_site_fract_y
_atom_site_fract_z
Si Si1 0.176577 0.340248 0.280178
Si Si2 0.208910 0.342681 0.884204
Si Si3 0.312646 0.496220 0.184113
Si Si4 0.707373 0.053733 0.571917
Si Si5 0.681547 0.372533 0.946778
Si Si6 0.392254 0.436935 0.662138
Si Si7 0.934742 0.694056 0.115959
Si Si8 0.131660 0.811171 0.470690
O O1 0.250000 0.250000 0.294533
O O2 0.267876 0.411739 0.236351
O O3 0.138601 0.381479 0.366168
O O4 0.073365 0.318905 0.213111
O O5 0.250000 0.250000 0.844837
O O6 0.206748 0.432787 0.834979
O O7 0.070257 0.326650 0.914240
O O8 0.305306 0.359847 0.957687
O O9 0.363649 0.458206 0.099949
O O10 0.397555 0.556374 0.241627
O O11 0.818742 0.109000 0.528219
O O12 0.643202 0.000000 0.500000
O O13 0.766348 0.979917 0.629604
O O14 0.825447 0.366340 0.918717
O O15 0.608496 0.290750 0.909501
O O16 0.500000 0.500000 0.630925
O O17 0.397961 0.344966 0.619368
O O18 0.250000 0.750000 0.469874
O O19 0.000000 0.775132 0.500000
#
# Coordination Sequence:
#
# PCOD9322656 Si02
#       8
#     8   8   8   8   8   8   8   8
#     4  10  18  39  67  97 136 182 232 302 362 439
#     4  12  25  40  63  97 143 186 229 307 379 433
#     4  10  23  40  60 101 135 174 242 299 358 436
#     4   9  19  35  66 103 131 178 243 296 351 434
#     4  10  20  42  68  93 130 181 246 302 355 439
#     4  10  20  40  68  95 135 187 239 294 352 438
#     4  10  20  40  68  95 131 185 239 290 366 448
#     4  11  22  40  69 108 145 183 244 308 367 448
#
# _framework density 23.441928999999998
#
# number of rings (size 3 to 8) (size 9 to 14) (size 15 to 20)
#    0.000    1.750    5.000    1.125    0.000    3.500 
#    0.000    5.000    0.000   11.625    0.000    0.000 
#    0.000    0.000    0.000    0.000    0.000    0.000 
#
# Total GULP energy -178415.909471 kJ/mol
# GULP energy per Si atom -5575.497171 kJ/mol
# Density = 2.338857 g / cm^3
# Si number density = 23.441929 Si / 1000 Ang^3
#
#
#
# Elastic Constant Matrix: (Units=GPa)
#
#
# Indices 1 2 3 4 5 6 
#
# 1 84.7872 32.5060 22.5753 0.0000 0.0000 0.0000
# 2 32.5060 109.4692 37.5877 0.0000 0.0000 0.0000
# 3 22.5753 37.5877 93.6027 0.0000 0.0000 0.0000
# 4 0.0000 0.0000 0.0000 29.5315 0.0000 0.0000
# 5 0.0000 0.0000 0.0000 0.0000 10.2815 0.0000
# 6 0.0000 0.0000 0.0000 0.0000 0.0000 11.8328
#
#
#
# Elastic Compliance Matrix: (Units=1/GPa)
#
#
# Indices 1 2 3 4 5 6 
#
# 1 0.013602 -0.003378 -0.001924 0.000000 0.000000 0.000000
# 2 -0.003378 0.011435 -0.003777 0.000000 0.000000 0.000000
# 3 -0.001924 -0.003777 0.012664 0.000000 0.000000 0.000000
# 4 0.000000 0.000000 0.000000 0.033862 0.000000 0.000000
# 5 0.000000 0.000000 0.000000 0.000000 0.097262 0.000000
# 6 0.000000 0.000000 0.000000 0.000000 0.000000 0.084511
#
#
# Mechanical properties :
#
#
# Convention : Reuss Voigt Hill
#
# Bulk Modulus (GPa) = 51.17103 52.57747 51.87425
# Shear Modulus (GPa) = 17.98505 23.34183 20.66344
#
# Velocity S-wave (km/s) = 2.77287 3.15894 2.97218
# Velocity P-wave (km/s) = 5.66816 5.98187 5.82712
#
# Compressibility (1/GPa) = 0.01954231
#
# Stress axis : x y z
#
# Youngs Moduli (GPa) = 73.52040 87.45017 78.96252
#
# Poissons Ratio (x) = 0.29543 0.15191
# Poissons Ratio (y) = 0.24838 0.29825
# Poissons Ratio (z) = 0.14144 0.33031
#
# Static dielectric constant tensor:
#      x y z
#    x 1.865080 0.000000 0.000000 
#    y 0.000000 1.938050 0.000000 
#    z 0.000000 0.000000 2.006060 
# 
# From -- ./inp_files/36247.got.cif
#   From: 2010.05.17/outbox.cif.g08.bks.cpg/sg21_19_cif.got.tgz:36247.got - 2010.06.03 23:14:55.
