data_PCOD9322485
_publ_section_title
;
Structure prediction by ZEFSAII (Michael W. Deem and Ramdas Pophale) SiO2 
 PCOD9322485
Probable space group: C 2 2 2
;
_chemical_formula_sum "Si O2"
_cell_formula_units_Z 64
_cell_length_a 15.097213
_cell_length_b 16.613915
_cell_length_c 16.000016
_cell_angle_alpha 90.000000
_cell_angle_beta 90.000000
_cell_angle_gamma 90.000000
_cell_volume 4013.185029
_symmetry_space_group_name_H-M "C 2 2 2"
_symmetry_group_IT_number 21
_symmetry_cell_setting 'orthorhombic'
loop_
_space_group_symop_operation_xyz
x,y,z
-x,-y,z
x,-y,-z
-x,y,-z
1/2+x,1/2+y,z
1/2-x,1/2-y,z
1/2+x,1/2-y,-z
1/2-x,1/2+y,-z
loop_
_atom_site_type_symbol
_atom_site_label
_atom_site_fract_x
_atom_site_fract_y
_atom_site_fract_z
Si Si1 0.272202 0.059158 0.423062
Si Si2 0.148935 0.502241 0.908637
Si Si3 0.046043 0.682110 0.269343
Si Si4 0.995198 0.365122 0.908637
Si Si5 0.098242 0.867036 0.515847
Si Si6 0.795224 0.446002 0.265381
Si Si7 0.428003 0.183678 0.428865
Si Si8 0.173555 0.185150 0.660816
O O1 0.168969 0.083052 0.430958
O O2 0.336542 0.135468 0.434986
O O3 0.291963 0.000000 0.500000
O O4 0.292143 0.013319 0.336970
O O5 0.096184 0.585866 0.898708
O O6 0.205466 0.483246 0.826998
O O7 0.072459 0.433285 0.912133
O O8 0.193409 0.500000 0.000000
O O9 0.115370 0.607692 0.274219
O O10 0.097226 0.763025 0.295568
O O11 0.011920 0.685474 0.174506
O O12 0.970886 0.668740 0.338423
O O13 0.000000 0.324468 0.000000
O O14 0.086814 0.778575 0.556444
O O15 0.140839 0.853521 0.424833
O O16 0.000000 0.900869 0.500000
O O17 0.716148 0.383285 0.281764
O O18 0.500000 0.158531 0.500000
O O19 0.250000 0.250000 0.640205
#
# Coordination Sequence:
#
# PCOD9322485 Si02
#       8
#     8   8   8   8   8   8   8   8
#     4  12  23  33  48  73 103 126 162 214 249 284
#     4   8  14  27  46  70 101 131 155 193 255 312
#     4  10  18  31  51  73 100 134 166 199 246 307
#     4   8  14  25  45  73 101 126 157 198 248 307
#     4  11  22  38  52  64  93 138 179 203 244 291
#     4  10  20  31  48  75 103 129 165 211 247 287
#     4  11  21  33  51  71  97 135 164 196 250 307
#     4  10  18  33  50  69  98 132 170 204 242 292
#
# _framework density 15.947433999999999
#
# number of rings (size 3 to 8) (size 9 to 14) (size 15 to 20)
#    0.000    2.000    3.750    3.375    0.000    3.000 
#    0.000    0.000    0.000    1.500    0.000    5.250 
#    0.000    0.000    0.000    0.000    0.000    0.000 
#
# Total GULP energy -178404.100088 kJ/mol
# GULP energy per Si atom -5575.128128 kJ/mol
# Density = 1.591114 g / cm^3
# Si number density = 15.947434 Si / 1000 Ang^3
#
#
#
# Elastic Constant Matrix: (Units=GPa)
#
#
# Indices 1 2 3 4 5 6 
#
# 1 59.9900 15.3820 32.6643 0.0000 0.0000 0.0000
# 2 15.3820 37.1561 26.4694 0.0000 0.0000 0.0000
# 3 32.6643 26.4694 137.7227 0.0000 0.0000 0.0000
# 4 0.0000 0.0000 0.0000 9.3917 0.0000 0.0000
# 5 0.0000 0.0000 0.0000 0.0000 8.2052 0.0000
# 6 0.0000 0.0000 0.0000 0.0000 0.0000 9.8891
#
#
#
# Elastic Compliance Matrix: (Units=1/GPa)
#
#
# Indices 1 2 3 4 5 6 
#
# 1 0.020138 -0.005717 -0.003677 0.000000 0.000000 0.000000
# 2 -0.005717 0.032806 -0.004949 0.000000 0.000000 0.000000
# 3 -0.003677 -0.004949 0.009084 0.000000 0.000000 0.000000
# 4 0.000000 0.000000 0.000000 0.106477 0.000000 0.000000
# 5 0.000000 0.000000 0.000000 0.000000 0.121874 0.000000
# 6 0.000000 0.000000 0.000000 0.000000 0.000000 0.101122
#
#
# Mechanical properties :
#
#
# Convention : Reuss Voigt Hill
#
# Bulk Modulus (GPa) = 29.99318 42.65557 36.32438
# Shear Modulus (GPa) = 11.59284 16.18742 13.89013
#
# Velocity S-wave (km/s) = 2.69911 3.18944 2.95446
# Velocity P-wave (km/s) = 5.34434 6.35366 5.87073
#
# Compressibility (1/GPa) = 0.03334091
#
# Stress axis : x y z
#
# Youngs Moduli (GPa) = 49.65832 30.48236 110.07955
#
# Poissons Ratio (x) = 0.17427 0.40480
# Poissons Ratio (y) = 0.28389 0.54480
# Poissons Ratio (z) = 0.18261 0.15086
#
# Static dielectric constant tensor:
#      x y z
#    x 1.544980 0.000000 0.000000 
#    y 0.000000 1.535700 0.000000 
#    z 0.000000 0.000000 1.532410 
# 
# From -- ./inp_files/32470.got.cif
#   From: 2010.05.17/outbox.cif.g08.bks.cpg/sg21_17_cif.got.tgz:32470.got - 2010.06.03 23:14:55.
