data_PCOD9322432
_publ_section_title
;
Structure prediction by ZEFSAII (Michael W. Deem and Ramdas Pophale) SiO2 
 PCOD9322432
Probable space group: C 2 2 2
;
_chemical_formula_sum "Si O2"
_cell_formula_units_Z 36
_cell_length_a 15.311976
_cell_length_b 13.114897
_cell_length_c 9.538089
_cell_angle_alpha 90.000000
_cell_angle_beta 90.000000
_cell_angle_gamma 90.000000
_cell_volume 1915.391229
_symmetry_space_group_name_H-M "C 2 2 2"
_symmetry_group_IT_number 21
_symmetry_cell_setting 'orthorhombic'
loop_
_space_group_symop_operation_xyz
x,y,z
-x,-y,z
x,-y,-z
-x,y,-z
1/2+x,1/2+y,z
1/2-x,1/2-y,z
1/2+x,1/2-y,-z
1/2-x,1/2+y,-z
loop_
_atom_site_type_symbol
_atom_site_label
_atom_site_fract_x
_atom_site_fract_y
_atom_site_fract_z
Si Si1 0.372113 0.224434 0.796377
Si Si2 0.275762 0.576960 0.126558
Si Si3 0.474661 0.118304 0.337157
Si Si4 0.750000 0.250000 0.464766
Si Si5 0.284391 0.931781 0.629946
O O1 0.350419 0.337191 0.853147
O O2 0.314225 0.142973 0.883789
O O3 0.469684 0.188033 0.768450
O O4 0.327078 0.221332 0.641738
O O5 0.262712 0.505682 0.262391
O O6 0.289448 0.500000 0.000000
O O7 0.500000 0.141694 0.500000
O O8 0.371023 0.122981 0.312659
O O9 0.500000 0.000000 0.313142
O O10 0.774603 0.155250 0.561509
O O11 0.317158 0.000000 0.500000
#
# Coordination Sequence:
#
# PCOD9322432 Si02
#       5
#     8   8   8   4   8
#     4  10  19  33  54  84 121 148 185 243 302 336
#     4  10  21  35  54  78 120 158 193 232 283 345
#     4  11  16  28  55  91 121 139 170 239 308 340
#     4  10  18  28  52  86 110 150 192 238 280 340
#     4  12  18  32  57  87 115 149 193 241 286 348
#
# _framework density 18.795114000000002
#
# number of rings (size 3 to 8) (size 9 to 14) (size 15 to 20)
#    0.000    1.556   11.111    0.000    0.000    1.778 
#    0.000    2.222    0.000    1.333    0.000    4.667 
#    0.000    0.000    0.000    0.000    0.000    0.000 
#
# Total GULP energy -100314.674950 kJ/mol
# GULP energy per Si atom -5573.037497 kJ/mol
# Density = 1.875234 g / cm^3
# Si number density = 18.795114 Si / 1000 Ang^3
#
#
#
# Elastic Constant Matrix: (Units=GPa)
#
#
# Indices 1 2 3 4 5 6 
#
# 1 40.2727 23.5267 15.3414 0.0000 0.0000 0.0000
# 2 23.5267 127.2573 60.2514 0.0000 0.0000 0.0000
# 3 15.3414 60.2514 64.4261 0.0000 0.0000 0.0000
# 4 0.0000 0.0000 0.0000 42.7502 0.0000 0.0000
# 5 0.0000 0.0000 0.0000 0.0000 9.7402 0.0000
# 6 0.0000 0.0000 0.0000 0.0000 0.0000 20.4536
#
#
#
# Elastic Compliance Matrix: (Units=1/GPa)
#
#
# Indices 1 2 3 4 5 6 
#
# 1 0.028224 -0.003654 -0.003304 0.000000 0.000000 0.000000
# 2 -0.003654 0.014575 -0.012761 0.000000 0.000000 0.000000
# 3 -0.003304 -0.012761 0.028242 0.000000 0.000000 0.000000
# 4 0.000000 0.000000 0.000000 0.023392 0.000000 0.000000
# 5 0.000000 0.000000 0.000000 0.000000 0.102667 0.000000
# 6 0.000000 0.000000 0.000000 0.000000 0.000000 0.048891
#
#
# Mechanical properties :
#
#
# Convention : Reuss Voigt Hill
#
# Bulk Modulus (GPa) = 31.64088 47.79946 39.72017
# Shear Modulus (GPa) = 16.89402 23.44459 20.16930
#
# Velocity S-wave (km/s) = 3.00134 3.53565 3.27940
# Velocity P-wave (km/s) = 5.37419 6.49268 5.95973
#
# Compressibility (1/GPa) = 0.03160468
#
# Stress axis : x y z
#
# Youngs Moduli (GPa) = 35.43128 68.60905 35.40775
#
# Poissons Ratio (x) = 0.25067 0.11698
# Poissons Ratio (y) = 0.12945 0.45183
# Poissons Ratio (z) = 0.11706 0.87551
#
# Static dielectric constant tensor:
#      x y z
#    x 1.699950 0.000000 0.000000 
#    y 0.000000 1.676250 0.000000 
#    z 0.000000 0.000000 1.666970 
# 
# From -- ./inp_files/14401.got.cif
#   From: 2010.05.17/outbox.cif.g08.bks.cpg/sg21_8_cif.got.tgz:14401.got - 2010.06.03 23:14:55.
