data_PCOD9322479
_publ_section_title
;
Structure prediction by ZEFSAII (Michael W. Deem and Ramdas Pophale) SiO2 
 PCOD9322479
Probable space group: C 2 2 2
;
_chemical_formula_sum "Si O2"
_cell_formula_units_Z 48
_cell_length_a 26.360426
_cell_length_b 5.807476
_cell_length_c 16.396085
_cell_angle_alpha 90.000000
_cell_angle_beta 90.000000
_cell_angle_gamma 90.000000
_cell_volume 2510.036340
_symmetry_space_group_name_H-M "C 2 2 2"
_symmetry_group_IT_number 21
_symmetry_cell_setting 'orthorhombic'
loop_
_space_group_symop_operation_xyz
x,y,z
-x,-y,z
x,-y,-z
-x,y,-z
1/2+x,1/2+y,z
1/2-x,1/2-y,z
1/2+x,1/2-y,-z
1/2-x,1/2+y,-z
loop_
_atom_site_type_symbol
_atom_site_label
_atom_site_fract_x
_atom_site_fract_y
_atom_site_fract_z
Si Si1 0.250000 0.750000 0.793832
Si Si2 0.323196 0.551030 0.092517
Si Si3 0.334047 0.061837 0.789119
Si Si4 0.000000 0.500000 0.165955
Si Si5 0.073743 0.197436 0.721020
Si Si6 0.416298 0.313009 0.158120
Si Si7 0.558295 0.748421 0.530166
O O1 0.288390 0.606988 0.850319
O O2 0.213778 0.566358 0.749215
O O3 0.316446 0.805572 0.129059
O O4 0.383051 0.489158 0.104800
O O5 0.309543 0.500000 0.000000
O O6 0.366846 0.237592 0.734932
O O7 0.375173 0.875370 0.816239
O O8 0.038339 0.641036 0.223494
O O9 0.035535 0.316309 0.119854
O O10 0.059971 0.232976 0.627762
O O11 0.066609 0.944992 0.759731
O O12 0.580603 0.500000 0.500000
O O13 0.500000 0.748516 0.500000
O O14 0.579316 0.000000 0.500000
#
# Coordination Sequence:
#
# PCOD9322479 Si02
#       7
#     4   8   8   4   8   8   8
#     4  10  20  32  56  86 112 140 192 234 308 370
#     4  10  21  35  55  81 118 144 182 244 316 367
#     4   9  20  36  53  79 114 147 196 238 295 370
#     4  10  18  30  57  71 102 150 208 236 280 330
#     4  10  20  34  55  78 118 156 199 244 299 350
#     4   9  20  33  52  78 104 154 199 243 281 357
#     4  10  22  33  51  85 123 157 196 244 303 368
#
# _framework density 19.123227
#
# number of rings (size 3 to 8) (size 9 to 14) (size 15 to 20)
#    0.000    2.333    0.000    2.000   11.667    2.000 
#    0.000    0.000    0.000   29.000    0.000    0.000 
#   15.000    0.000    0.000    0.000    0.000    0.000 
#
# Total GULP energy -133603.942180 kJ/mol
# GULP energy per Si atom -5566.830924 kJ/mol
# Density = 1.907970 g / cm^3
# Si number density = 19.123227 Si / 1000 Ang^3
#
#
#
# Elastic Constant Matrix: (Units=GPa)
#
#
# Indices 1 2 3 4 5 6 
#
# 1 92.8694 21.0099 -2.8880 0.0000 0.0000 0.0000
# 2 21.0099 107.3347 1.1629 0.0000 0.0000 0.0000
# 3 -2.8880 1.1629 23.1269 0.0000 0.0000 0.0000
# 4 0.0000 0.0000 0.0000 5.6430 0.0000 0.0000
# 5 0.0000 0.0000 0.0000 0.0000 9.1647 0.0000
# 6 0.0000 0.0000 0.0000 0.0000 0.0000 42.6720
#
#
#
# Elastic Compliance Matrix: (Units=1/GPa)
#
#
# Indices 1 2 3 4 5 6 
#
# 1 0.011320 -0.002232 0.001526 0.000000 0.000000 0.000000
# 2 -0.002232 0.009762 -0.000770 0.000000 0.000000 0.000000
# 3 0.001526 -0.000770 0.043469 0.000000 0.000000 0.000000
# 4 0.000000 0.000000 0.000000 0.177210 0.000000 0.000000
# 5 0.000000 0.000000 0.000000 0.000000 0.109114 0.000000
# 6 0.000000 0.000000 0.000000 0.000000 0.000000 0.023435
#
#
# Mechanical properties :
#
#
# Convention : Reuss Voigt Hill
#
# Bulk Modulus (GPa) = 16.23405 29.10006 22.66705
# Shear Modulus (GPa) = 12.56928 25.09904 18.83416
#
# Velocity S-wave (km/s) = 2.56653 3.62676 3.14169
# Velocity P-wave (km/s) = 4.15817 5.72608 5.00392
#
# Compressibility (1/GPa) = 0.06159894
#
# Stress axis : x y z
#
# Youngs Moduli (GPa) = 88.33694 102.43844 23.00493
#
# Poissons Ratio (x) = 0.22868 -0.03510
# Poissons Ratio (y) = 0.19720 0.01771
# Poissons Ratio (z) = -0.13479 0.07884
#
# Static dielectric constant tensor:
#      x y z
#    x 1.718590 0.000000 0.000000 
#    y 0.000000 1.794020 0.000000 
#    z 0.000000 0.000000 1.629930 
# 
# From -- ./inp_files/33824.got.cif
#   From: 2010.05.17/outbox.cif.g08.bks.cpg/sg21_17_cif.got.tgz:33824.got - 2010.06.03 23:14:55.
