data_PCOD9322664
_publ_section_title
;
Structure prediction by ZEFSAII (Michael W. Deem and Ramdas Pophale) SiO2 
 PCOD9322664
Probable space group: C 2 2 2
;
_chemical_formula_sum "Si O2"
_cell_formula_units_Z 32
_cell_length_a 29.111680
_cell_length_b 6.470661
_cell_length_c 7.706580
_cell_angle_alpha 90.000000
_cell_angle_beta 90.000000
_cell_angle_gamma 90.000000
_cell_volume 1451.702442
_symmetry_space_group_name_H-M "C 2 2 2"
_symmetry_group_IT_number 21
_symmetry_cell_setting 'orthorhombic'
loop_
_space_group_symop_operation_xyz
x,y,z
-x,-y,z
x,-y,-z
-x,y,-z
1/2+x,1/2+y,z
1/2-x,1/2-y,z
1/2+x,1/2-y,-z
1/2-x,1/2+y,-z
loop_
_atom_site_type_symbol
_atom_site_label
_atom_site_fract_x
_atom_site_fract_y
_atom_site_fract_z
Si Si1 0.621451 0.288250 0.236724
Si Si2 0.250000 0.250000 0.275056
Si Si3 0.441284 0.000000 0.000000
Si Si4 0.824172 0.500000 0.500000
Si Si5 0.193860 0.000000 0.000000
Si Si6 0.545604 0.595072 0.192419
O O1 0.644245 0.160778 0.392928
O O2 0.660877 0.340908 0.097882
O O3 0.592067 0.499313 0.277372
O O4 0.588154 0.136782 0.132030
O O5 0.210451 0.363529 0.383674
O O6 0.274866 0.409943 0.149893
O O7 0.462475 0.833954 0.861683
O O8 0.500000 0.500000 0.278170
O O9 0.548596 0.500000 0.000000
#
# Coordination Sequence:
#
# PCOD9322664 Si02
#       6
#     8   4   4   4   4   8
#     4  11  22  39  65 100 132 182 232 280 345 427
#     4  12  26  44  66  98 134 180 230 296 356 418
#     4  10  18  40  64  99 132 186 225 284 343 402
#     4  12  26  42  64 101 142 184 227 292 372 418
#     4  12  22  45  67  97 128 174 244 282 341 418
#     4   9  19  35  63 103 135 178 233 291 335 411
#
# _framework density 22.043085999999999
#
# number of rings (size 3 to 8) (size 9 to 14) (size 15 to 20)
#    0.000    1.250    3.750    4.500    0.000    8.000 
#    0.000    0.000    0.000    4.500    0.000    0.000 
#    0.000    0.000    0.000    0.000    0.000    0.000 
#
# Total GULP energy -89205.902447 kJ/mol
# GULP energy per Si atom -5575.368903 kJ/mol
# Density = 2.199291 g / cm^3
# Si number density = 22.043086 Si / 1000 Ang^3
#
#
#
# Elastic Constant Matrix: (Units=GPa)
#
#
# Indices 1 2 3 4 5 6 
#
# 1 120.2912 58.6744 52.3125 0.0000 0.0000 0.0000
# 2 58.6744 139.1730 46.5841 0.0000 0.0000 0.0000
# 3 52.3125 46.5841 97.3088 0.0000 0.0000 0.0000
# 4 0.0000 0.0000 0.0000 48.0885 0.0000 0.0000
# 5 0.0000 0.0000 0.0000 0.0000 -13.1594 0.0000
# 6 0.0000 0.0000 0.0000 0.0000 0.0000 39.7080
#
#
#
# Elastic Compliance Matrix: (Units=1/GPa)
#
#
# Indices 1 2 3 4 5 6 
#
# 1 0.012123 -0.003488 -0.004847 0.000000 0.000000 0.000000
# 2 -0.003488 0.009560 -0.002701 0.000000 0.000000 0.000000
# 3 -0.004847 -0.002701 0.014176 0.000000 0.000000 0.000000
# 4 0.000000 0.000000 0.000000 0.020795 0.000000 0.000000
# 5 0.000000 0.000000 0.000000 0.000000 -0.075992 0.000000
# 6 0.000000 0.000000 0.000000 0.000000 0.000000 0.025184
#
#
# Mechanical properties :
#
#
# Convention : Reuss Voigt Hill
#
# Bulk Modulus (GPa) = 72.54424 74.65724 73.60074
# Shear Modulus (GPa) = 153.77976 28.20756 90.99366
#
# Velocity S-wave (km/s) = 8.36150 3.58111 6.43191
# Velocity P-wave (km/s) = 11.23393 7.14433 9.41389
#
# Compressibility (1/GPa) = 0.01378469
#
# Stress axis : x y z
#
# Youngs Moduli (GPa) = 82.49061 104.60041 70.54419
#
# Poissons Ratio (x) = 0.36489 0.34193
# Poissons Ratio (y) = 0.28776 0.19057
# Poissons Ratio (z) = 0.39984 0.28256
#
# Static dielectric constant tensor:
#      x y z
#    x 1.866550 0.000000 0.000000 
#    y 0.000000 1.858930 0.000000 
#    z 0.000000 0.000000 1.771530 
# 
# From -- ./inp_files/19447.got.cif
#   From: 2010.05.17/outbox.cif.g08.bks.cpg/sg21_10_cif.got.tgz:19447.got - 2010.06.03 23:14:55.
