data_PCOD9322295
_publ_section_title
;
Structure prediction by ZEFSAII (Michael W. Deem and Ramdas Pophale) SiO2 
 PCOD9322295
Probable space group: C 2 2 2
;
_chemical_formula_sum "Si O2"
_cell_formula_units_Z 52
_cell_length_a 14.237842
_cell_length_b 5.567973
_cell_length_c 28.735883
_cell_angle_alpha 90.000000
_cell_angle_beta 90.000000
_cell_angle_gamma 90.000000
_cell_volume 2278.063557
_symmetry_space_group_name_H-M "C 2 2 2"
_symmetry_group_IT_number 21
_symmetry_cell_setting 'orthorhombic'
loop_
_space_group_symop_operation_xyz
x,y,z
-x,-y,z
x,-y,-z
-x,y,-z
1/2+x,1/2+y,z
1/2-x,1/2-y,z
1/2+x,1/2-y,-z
1/2-x,1/2+y,-z
loop_
_atom_site_type_symbol
_atom_site_label
_atom_site_fract_x
_atom_site_fract_y
_atom_site_fract_z
Si Si1 0.633857 0.992999 0.651671
Si Si2 0.104259 0.108259 0.782795
Si Si3 0.653528 0.509460 0.312626
Si Si4 0.641106 0.323381 0.867423
Si Si5 0.000000 0.500000 0.190932
Si Si6 0.863471 0.753729 0.023820
Si Si7 0.190029 0.499989 0.552151
O O1 0.603806 0.737886 0.672512
O O2 0.621615 0.998382 0.596267
O O3 0.602935 0.243698 0.674223
O O4 0.746534 0.001629 0.661642
O O5 0.081585 0.386171 0.777958
O O6 0.169038 0.004643 0.743004
O O7 0.134907 0.065154 0.836159
O O8 0.000000 0.000000 0.774936
O O9 0.750000 0.250000 0.862899
O O10 0.561051 0.170484 0.841914
O O11 0.617038 0.295551 0.921631
O O12 0.750000 0.750000 0.019392
O O13 0.894452 0.500000 0.000000
O O14 0.896292 0.000000 0.000000
O O15 0.148865 0.500000 0.500000
O O16 0.250000 0.250000 0.555855
O O17 0.250000 0.750000 0.555924
#
# Coordination Sequence:
#
# PCOD9322295 Si02
#       7
#     8   8   8   8   4   8   8
#     4  10  18  32  48  83 112 143 192 260 292 370
#     4  10  24  41  58  84 120 164 205 262 315 379
#     4  10  20  31  53  72 112 146 191 238 303 350
#     4  10  23  40  68  95 122 169 215 257 327 390
#     4  10  24  44  61  86 136 158 215 274 312 380
#     4   9  19  37  63  95 127 160 206 259 313 379
#     4  10  16  26  43  69 112 154 184 231 311 379
#
# _framework density 22.826405999999999
#
# number of rings (size 3 to 8) (size 9 to 14) (size 15 to 20)
#    0.000    2.154    3.077    0.000    8.615    1.846 
#    0.000    0.385    0.000    0.000    0.000    0.000 
#    0.000    6.769    0.000    0.000    0.000    0.000 
#
# Total GULP energy -144810.807803 kJ/mol
# GULP energy per Si atom -5569.646454 kJ/mol
# Density = 2.277445 g / cm^3
# Si number density = 22.826406 Si / 1000 Ang^3
#
#
#
# Elastic Constant Matrix: (Units=GPa)
#
#
# Indices 1 2 3 4 5 6 
#
# 1 73.6186 2.9164 13.0422 0.0000 0.0000 0.0000
# 2 2.9164 179.3680 64.3713 0.0000 0.0000 0.0000
# 3 13.0422 64.3713 163.1520 0.0000 0.0000 0.0000
# 4 0.0000 0.0000 0.0000 28.6609 0.0000 0.0000
# 5 0.0000 0.0000 0.0000 0.0000 -28.2474 0.0000
# 6 0.0000 0.0000 0.0000 0.0000 0.0000 -6.8473
#
#
#
# Elastic Compliance Matrix: (Units=1/GPa)
#
#
# Indices 1 2 3 4 5 6 
#
# 1 0.013785 0.000200 -0.001181 0.000000 0.000000 0.000000
# 2 0.000200 0.006498 -0.002580 0.000000 0.000000 0.000000
# 3 -0.001181 -0.002580 0.007241 0.000000 0.000000 0.000000
# 4 0.000000 0.000000 0.000000 0.034891 0.000000 0.000000
# 5 0.000000 0.000000 0.000000 0.000000 -0.035402 0.000000
# 6 0.000000 0.000000 0.000000 0.000000 0.000000 -0.146044
#
#
# Mechanical properties :
#
#
# Convention : Reuss Voigt Hill
#
# Bulk Modulus (GPa) = 49.01366 64.08871 56.55118
# Shear Modulus (GPa) = -47.56981 21.10050 -13.23465
#
# Velocity S-wave (km/s) = -4.57002 3.04368 -2.41051
# Velocity P-wave (km/s) = 2.51551 6.36313 4.13290
#
# Compressibility (1/GPa) = 0.02040248
#
# Stress axis : x y z
#
# Youngs Moduli (GPa) = 72.54370 153.90199 138.09470
#
# Poissons Ratio (x) = -0.03072 0.16305
# Poissons Ratio (y) = -0.01448 0.35623
# Poissons Ratio (z) = 0.08565 0.39700
#
# Static dielectric constant tensor:
#      x y z
#    x 1.872470 0.000000 0.000000 
#    y 0.000000 2.192410 0.000000 
#    z 0.000000 0.000000 1.868330 
# 
# From -- ./inp_files/39387.got.cif
#   From: 2010.05.17/outbox.cif.g08.bks.cpg/sg21_20_cif.got.tgz:39387.got - 2010.06.03 23:14:55.
