data_PCOD9322472
_publ_section_title
;
Structure prediction by ZEFSAII (Michael W. Deem and Ramdas Pophale) SiO2 
 PCOD9322472
Probable space group: C 2 2 2
;
_chemical_formula_sum "Si O2"
_cell_formula_units_Z 64
_cell_length_a 18.797615
_cell_length_b 21.446965
_cell_length_c 8.834033
_cell_angle_alpha 90.000000
_cell_angle_beta 90.000000
_cell_angle_gamma 90.000000
_cell_volume 3561.456226
_symmetry_space_group_name_H-M "C 2 2 2"
_symmetry_group_IT_number 21
_symmetry_cell_setting 'orthorhombic'
loop_
_space_group_symop_operation_xyz
x,y,z
-x,-y,z
x,-y,-z
-x,y,-z
1/2+x,1/2+y,z
1/2-x,1/2-y,z
1/2+x,1/2-y,-z
1/2-x,1/2+y,-z
loop_
_atom_site_type_symbol
_atom_site_label
_atom_site_fract_x
_atom_site_fract_y
_atom_site_fract_z
Si Si1 0.163592 0.254158 0.674392
Si Si2 0.332837 0.383722 0.317608
Si Si3 0.667163 0.616278 0.682392
Si Si4 0.175151 0.382154 0.819198
Si Si5 0.415700 0.500000 0.180050
Si Si6 0.836408 0.254158 0.674391
Si Si7 0.675151 0.882154 0.180803
Si Si8 0.918903 0.500000 0.184397
O O1 0.250000 0.250000 0.675697
O O2 0.139818 0.185605 0.726988
O O3 0.145160 0.314635 0.771151
O O4 0.141787 0.263624 0.500001
O O5 0.331232 0.385477 0.500000
O O6 0.380088 0.438952 0.252344
O O7 0.360182 0.314395 0.273013
O O8 0.252455 0.390406 0.256381
O O9 0.747545 0.609595 0.743620
O O10 0.619913 0.561047 0.747656
O O11 0.123855 0.438188 0.770179
O O12 0.183769 0.384341 0.000000
O O13 0.500000 0.500000 0.206900
O O14 0.402648 0.500000 0.000000
O O15 0.750000 0.250000 0.675695
O O16 0.854840 0.314635 0.771149
O O17 0.623856 0.938188 0.229822
O O18 0.000000 0.500000 0.238071
O O19 0.920343 0.500000 0.000000
#
# Coordination Sequence:
#
# PCOD9322472 Si02
#       8
#     8   8   8   8   8   8   8   8
#     4   8  16  31  50  75 105 133 165 208 256 306
#     4  10  20  35  56  78 104 138 170 205 255 316
#     4  10  20  35  56  78 104 138 170 205 255 316
#     4  10  18  30  54  81 103 133 174 219 260 299
#     4  11  24  39  54  76 106 135 170 219 262 302
#     4   8  16  31  50  75 105 133 165 208 256 306
#     4  10  18  30  54  81 103 133 174 219 260 299
#     4   9  19  34  48  68 102 139 172 207 252 304
#
# _framework density 17.970177
#
# number of rings (size 3 to 8) (size 9 to 14) (size 15 to 20)
#    0.000    2.500    0.000    4.125    0.000    7.500 
#    0.000    3.125    0.000   10.500    0.000    0.000 
#    0.000    0.000    0.000    0.000    0.000    0.000 
#
# Total GULP energy -178466.245559 kJ/mol
# GULP energy per Si atom -5577.070174 kJ/mol
# Density = 1.792928 g / cm^3
# Si number density = 17.970177 Si / 1000 Ang^3
#
#
#
# Elastic Constant Matrix: (Units=GPa)
#
#
# Indices 1 2 3 4 5 6 
#
# 1 70.3514 80.8223 42.6179 0.0000 0.0000 0.0000
# 2 80.8223 207.3253 67.3200 0.0000 0.0000 0.0000
# 3 42.6179 67.3200 59.1199 0.0000 0.0000 0.0000
# 4 0.0000 0.0000 0.0000 -19.9965 0.0000 0.0000
# 5 0.0000 0.0000 0.0000 0.0000 -4.3778 0.0000
# 6 0.0000 0.0000 0.0000 0.0000 0.0000 -6.3242
#
#
#
# Elastic Compliance Matrix: (Units=1/GPa)
#
#
# Indices 1 2 3 4 5 6 
#
# 1 0.031597 -0.007809 -0.013885 0.000000 0.000000 0.000000
# 2 -0.007809 0.009583 -0.005283 0.000000 0.000000 0.000000
# 3 -0.013885 -0.005283 0.032940 0.000000 0.000000 0.000000
# 4 0.000000 0.000000 0.000000 -0.050009 0.000000 0.000000
# 5 0.000000 0.000000 0.000000 0.000000 -0.228423 0.000000
# 6 0.000000 0.000000 0.000000 0.000000 0.000000 -0.158122
#
#
# Mechanical properties :
#
#
# Convention : Reuss Voigt Hill
#
# Bulk Modulus (GPa) = 49.58940 79.81301 64.70120
# Shear Modulus (GPa) = -16.56960 3.59605 -6.48678
#
# Velocity S-wave (km/s) = -3.03984 1.41614 -1.90199
# Velocity P-wave (km/s) = 3.91592 6.86910 5.59102
#
# Compressibility (1/GPa) = 0.02016560
#
# Stress axis : x y z
#
# Youngs Moduli (GPa) = 31.64844 104.35276 30.35820
#
# Poissons Ratio (x) = 0.81488 0.42154
# Poissons Ratio (y) = 0.24714 0.16038
# Poissons Ratio (z) = 0.43945 0.55128
#
# Static dielectric constant tensor:
#      x y z
#    x 1.582710 0.000000 0.000000 
#    y 0.000000 1.637100 0.000000 
#    z 0.000000 0.000000 1.605250 
# 
# From -- ./inp_files/16868.got.cif
#   From: 2010.05.17/outbox.cif.g08.bks.cpg/sg21_9_cif.got.tgz:16868.got - 2010.06.03 23:14:55.
