data_PCOD9322210
_publ_section_title
;
Structure prediction by ZEFSAII (Michael W. Deem and Ramdas Pophale) SiO2 
 PCOD9322210
Probable space group: C 2 2 21
;
_chemical_formula_sum "Si O2"
_cell_formula_units_Z 32
_cell_length_a 18.000000
_cell_length_b 12.000000
_cell_length_c 15.000000
_cell_angle_alpha 90.000000
_cell_angle_beta 90.000000
_cell_angle_gamma 90.000000
_cell_volume 3240.000000
_symmetry_space_group_name_H-M "C 2 2 21"
_symmetry_group_IT_number 20
_symmetry_cell_setting 'orthorhombic'
loop_
_space_group_symop_operation_xyz
x,y,z
-x,-y,1/2+z
x,-y,-z
-x,y,1/2-z
1/2+x,1/2+y,z
1/2-x,1/2-y,1/2+z
1/2+x,1/2-y,-z
1/2-x,1/2+y,1/2-z
loop_
_atom_site_type_symbol
_atom_site_label
_atom_site_fract_x
_atom_site_fract_y
_atom_site_fract_z
Si Si1 0.681054 0.919730 0.418210
Si Si2 0.464562 0.485055 0.399108
Si Si3 0.540434 0.196352 0.493209
Si Si4 0.391948 0.085578 0.426209
Si Si5 0.910015 0.436068 0.258939
Si Si6 0.433367 0.323882 0.189128
Si Si7 0.663659 0.314697 0.141835
Si Si8 0.948406 0.784975 0.664386
O O1 0.616536 0.848247 0.465737
O O2 0.634464 0.961797 0.331404
O O3 0.754899 0.861825 0.378989
O O4 0.704762 0.000000 0.500000
O O5 0.491290 0.500000 0.500000
O O6 0.533862 0.446376 0.337454
O O7 0.402882 0.389346 0.398378
O O8 0.421761 0.593511 0.363367
O O9 0.477000 0.113867 0.454644
O O10 0.565502 0.266382 0.406874
O O11 0.496996 0.248803 0.578174
O O12 0.346798 0.198163 0.409411
O O13 0.362102 0.000000 0.500000
O O14 0.391453 0.025847 0.332063
O O15 0.894330 0.313915 0.303228
O O16 0.000000 0.436502 0.250000
O O17 0.500000 0.272813 0.250000
O O18 0.361219 0.314498 0.252629
O O19 0.000000 0.802256 0.750000
#
# Coordination Sequence:
#
# PCOD9322210 Si02
#       8
#     8   8   8   8   8   8   8   8
#     4  12  27  47  69 102 140 189 237 285 372 432
#     4  11  20  39  71 104 135 183 233 284 345 412
#     4  12  21  41  72 103 131 182 233 294 349 418
#     4  12  23  42  72 102 138 176 236 298 349 414
#     4  11  23  41  69 104 132 179 233 294 348 415
#     4  10  21  40  69 100 132 181 236 283 341 408
#     4  11  26  46  64 101 144 180 236 290 354 427
#     4  11  20  38  65 104 139 167 230 302 335 407
#
# _framework density 9.8765429999999999
#
# number of rings (size 3 to 8) (size 9 to 14) (size 15 to 20)
#    0.000    0.750    7.500    2.625    3.500    0.000 
#    4.500    0.000    0.000    0.000    0.000    0.000 
#    0.000    0.000    0.000    0.000    0.000    0.000 
#
# Total GULP energy -178288.972893 kJ/mol
# GULP energy per Si atom -5571.530403 kJ/mol
# Density = 0.985406 g / cm^3
# Si number density = 9.876543 Si / 1000 Ang^3
#
#
#
# Elastic Constant Matrix: (Units=GPa)
#
#
# Indices 1 2 3 4 5 6 
#
# 1 79.0697 19.7087 48.5429 0.0000 0.0000 0.0000
# 2 19.7087 88.1593 52.3998 0.0000 0.0000 0.0000
# 3 48.5429 52.3998 182.9537 0.0000 0.0000 0.0000
# 4 0.0000 0.0000 0.0000 42.2243 0.0000 0.0000
# 5 0.0000 0.0000 0.0000 0.0000 20.9893 0.0000
# 6 0.0000 0.0000 0.0000 0.0000 0.0000 -5.7796
#
#
#
# Elastic Compliance Matrix: (Units=1/GPa)
#
#
# Indices 1 2 3 4 5 6 
#
# 1 0.015214 -0.001207 -0.003691 0.000000 0.000000 0.000000
# 2 -0.001207 0.013766 -0.003622 0.000000 0.000000 0.000000
# 3 -0.003691 -0.003622 0.007483 0.000000 0.000000 0.000000
# 4 0.000000 0.000000 0.000000 0.023683 0.000000 0.000000
# 5 0.000000 0.000000 0.000000 0.000000 0.047643 0.000000
# 6 0.000000 0.000000 0.000000 0.000000 0.000000 -0.173021
#
#
# Mechanical properties :
#
#
# Convention : Reuss Voigt Hill
#
# Bulk Modulus (GPa) = 51.48983 65.72060 58.60522
# Shear Modulus (GPa) = -119.85550 26.78888 -46.53331
#
# Velocity S-wave (km/s) = -7.79798 3.68664 -4.85887
# Velocity P-wave (km/s) = 7.41315 7.17391 1.32094
#
# Compressibility (1/GPa) = 0.01942131
#
# Stress axis : x y z
#
# Youngs Moduli (GPa) = 65.72907 72.64230 133.64249
#
# Poissons Ratio (x) = 0.08771 0.49326
# Poissons Ratio (y) = 0.07936 0.48410
# Poissons Ratio (z) = 0.24260 0.26314
#
# Static dielectric constant tensor:
#      x y z
#    x 1.643510 0.000000 0.000000 
#    y 0.000000 1.834800 0.000000 
#    z 0.000000 0.000000 1.730140 
# 
# From -- ./inp_files/21481.got.cif
#   From: 2010.05.17/outbox.ucp.g08.bks.cvg/sg20_11_cif.got.tgz:21481.got - 2010.06.11 15:13:06.
