data_PCOD9322380
_publ_section_title
;
Structure prediction by ZEFSAII (Michael W. Deem and Ramdas Pophale) SiO2 
 PCOD9322380
Probable space group: C 2 2 2
;
_chemical_formula_sum "Si O2"
_cell_formula_units_Z 38
_cell_length_a 24.658237
_cell_length_b 16.995522
_cell_length_c 5.027743
_cell_angle_alpha 90.000000
_cell_angle_beta 90.000000
_cell_angle_gamma 90.000000
_cell_volume 2107.024573
_symmetry_space_group_name_H-M "C 2 2 2"
_symmetry_group_IT_number 21
_symmetry_cell_setting 'orthorhombic'
loop_
_space_group_symop_operation_xyz
x,y,z
-x,-y,z
x,-y,-z
-x,y,-z
1/2+x,1/2+y,z
1/2-x,1/2-y,z
1/2+x,1/2-y,-z
1/2-x,1/2+y,-z
loop_
_atom_site_type_symbol
_atom_site_label
_atom_site_fract_x
_atom_site_fract_y
_atom_site_fract_z
Si Si1 0.000000 0.389272 0.000000
Si Si2 0.442232 0.645006 0.587258
Si Si3 0.000000 0.500000 0.500000
Si Si4 0.080123 0.249691 0.916546
Si Si5 0.175302 0.910408 0.517263
Si Si6 0.302353 0.696480 0.010578
O O1 0.981733 0.437536 0.734411
O O2 0.050003 0.332246 0.930411
O O3 0.500000 0.609924 0.500000
O O4 0.428917 0.713136 0.373278
O O5 0.389507 0.589991 0.578042
O O6 0.444573 0.687994 0.870550
O O7 0.143669 0.250506 0.988839
O O8 0.187173 0.865955 0.243968
O O9 0.194483 0.000000 0.500000
O O10 0.200848 0.855438 0.744385
O O11 0.250000 0.750000 0.049928
#
# Coordination Sequence:
#
# PCOD9322380 Si02
#       6
#     4   8   2   8   8   8
#     4  11  18  36  52  76 107 134 178 214 281 316
#     4  10  17  30  50  85 107 139 177 202 251 317
#     4  10  24  30  52  74 108 146 158 222 288 348
#     4  10  19  31  58  77 101 136 180 223 253 307
#     4  10  21  35  56  83 115 145 171 220 279 319
#     4  10  21  38  60  81 104 144 192 224 259 317
#
# _framework density 18.034911000000001
#
# number of rings (size 3 to 8) (size 9 to 14) (size 15 to 20)
#    0.000    1.895    2.105    2.526    0.000    0.421 
#    0.000    0.000   13.895    7.579    0.000    0.000 
#    0.000    0.000    0.000    0.000    0.000    0.000 
#
# Total GULP energy -105776.407631 kJ/mol
# GULP energy per Si atom -5567.179349 kJ/mol
# Density = 1.799386 g / cm^3
# Si number density = 18.034911 Si / 1000 Ang^3
#
#
#
# Elastic Constant Matrix: (Units=GPa)
#
#
# Indices 1 2 3 4 5 6 
#
# 1 84.0879 13.6765 -15.8251 0.0000 0.0000 0.0000
# 2 13.6765 71.1575 -8.6588 0.0000 0.0000 0.0000
# 3 -15.8251 -8.6588 51.8387 0.0000 0.0000 0.0000
# 4 0.0000 0.0000 0.0000 -12.8942 0.0000 0.0000
# 5 0.0000 0.0000 0.0000 0.0000 13.3035 0.0000
# 6 0.0000 0.0000 0.0000 0.0000 0.0000 -25.4472
#
#
#
# Elastic Compliance Matrix: (Units=1/GPa)
#
#
# Indices 1 2 3 4 5 6 
#
# 1 0.012901 -0.002042 0.003597 0.000000 0.000000 0.000000
# 2 -0.002042 0.014668 0.001827 0.000000 0.000000 0.000000
# 3 0.003597 0.001827 0.020694 0.000000 0.000000 0.000000
# 4 0.000000 0.000000 0.000000 -0.077554 0.000000 0.000000
# 5 0.000000 0.000000 0.000000 0.000000 0.075168 0.000000
# 6 0.000000 0.000000 0.000000 0.000000 0.000000 -0.039297
#
#
# Mechanical properties :
#
#
# Convention : Reuss Voigt Hill
#
# Bulk Modulus (GPa) = 18.17259 20.60771 19.39015
# Shear Modulus (GPa) = 275.35156 9.51851 142.43504
#
# Velocity S-wave (km/s) = 12.36966 2.29984 8.89656
# Velocity P-wave (km/s) = 14.63248 4.30160 10.78455
#
# Compressibility (1/GPa) = 0.05502792
#
# Stress axis : x y z
#
# Youngs Moduli (GPa) = 77.51070 68.17527 48.32331
#
# Poissons Ratio (x) = 0.13921 -0.17384
# Poissons Ratio (y) = 0.15827 -0.08827
# Poissons Ratio (z) = -0.27884 -0.12454
#
# Static dielectric constant tensor:
#      x y z
#    x 1.676870 0.000000 0.000000 
#    y 0.000000 1.593930 0.000000 
#    z 0.000000 0.000000 1.620330 
# 
# From -- ./inp_files/6638.got.cif
#   From: 2010.05.17/outbox.cif.g08.bks.cpg/sg21_4_cif.got.tgz:6638.got - 2010.06.03 23:14:55.
