data_PCOD9322888
_publ_section_title
;
Structure prediction by ZEFSAII (Michael W. Deem and Ramdas Pophale) SiO2 
 PCOD9322888
Probable space group: C 2 2 2
;
_chemical_formula_sum "Si O2"
_cell_formula_units_Z 64
_cell_length_a 18.666618
_cell_length_b 14.913418
_cell_length_c 11.822744
_cell_angle_alpha 90.000000
_cell_angle_beta 90.000000
_cell_angle_gamma 90.000000
_cell_volume 3291.251852
_symmetry_space_group_name_H-M "C 2 2 2"
_symmetry_group_IT_number 21
_symmetry_cell_setting 'orthorhombic'
loop_
_space_group_symop_operation_xyz
x,y,z
-x,-y,z
x,-y,-z
-x,y,-z
1/2+x,1/2+y,z
1/2-x,1/2-y,z
1/2+x,1/2-y,-z
1/2-x,1/2+y,-z
loop_
_atom_site_type_symbol
_atom_site_label
_atom_site_fract_x
_atom_site_fract_y
_atom_site_fract_z
Si Si1 0.075791 0.333471 0.806806
Si Si2 0.185690 0.690002 0.371612
Si Si3 0.669740 0.724222 0.974495
Si Si4 0.293652 0.462118 0.875150
Si Si5 0.375163 0.010898 0.125129
Si Si6 0.815656 0.692736 0.366600
Si Si7 0.761430 0.001724 0.630972
Si Si8 0.586579 0.214133 0.825080
O O1 0.112200 0.297766 0.693733
O O2 0.130163 0.302134 0.904878
O O3 0.079279 0.441365 0.800802
O O4 0.998229 0.295067 0.832973
O O5 0.250000 0.750000 0.322637
O O6 0.176645 0.714266 0.501842
O O7 0.213418 0.588074 0.363504
O O8 0.750000 0.750000 0.010132
O O9 0.679961 0.639591 0.891915
O O10 0.621562 0.716142 0.087207
O O11 0.207608 0.479058 0.875215
O O12 0.310441 0.497337 0.746227
O O13 0.317117 0.500000 0.000000
O O14 0.380786 0.115301 0.150315
O O15 0.405293 0.000000 0.000000
O O16 0.750000 0.750000 0.317596
O O17 0.789685 0.589216 0.359640
O O18 0.885710 0.725226 0.301723
O O19 0.791891 0.000000 0.500000
#
# Coordination Sequence:
#
# PCOD9322888 Si02
#       8
#     8   8   8   8   8   8   8   8
#     4  12  22  35  58  84 122 161 196 242 308 380
#     4  10  20  38  60  86 116 161 209 251 300 374
#     4  12  22  37  58  81 118 156 204 253 297 360
#     4  11  21  35  59  89 112 154 207 254 305 357
#     4  11  20  35  54  82 119 157 195 233 294 370
#     4  10  22  37  59  84 120 157 204 260 309 363
#     4  10  19  35  58  88 123 153 202 258 307 367
#     4  12  24  35  55  89 123 156 195 249 312 378
#
# _framework density 19.445488999999998
#
# number of rings (size 3 to 8) (size 9 to 14) (size 15 to 20)
#    0.000    1.000    5.000    3.000    1.750    1.000 
#    0.000    0.000    0.000    5.250    0.000    0.000 
#    0.000    5.000    0.000    0.000    0.000    0.000 
#
# Total GULP energy -178258.527013 kJ/mol
# GULP energy per Si atom -5570.578969 kJ/mol
# Density = 1.940123 g / cm^3
# Si number density = 19.445489 Si / 1000 Ang^3
#
#
#
# Elastic Constant Matrix: (Units=GPa)
#
#
# Indices 1 2 3 4 5 6 
#
# 1 81.9013 31.6666 15.8933 0.0000 0.0000 0.0000
# 2 31.6666 47.2041 12.5248 0.0000 0.0000 0.0000
# 3 15.8933 12.5248 123.6269 0.0000 0.0000 0.0000
# 4 0.0000 0.0000 0.0000 11.7394 0.0000 0.0000
# 5 0.0000 0.0000 0.0000 0.0000 10.3438 0.0000
# 6 0.0000 0.0000 0.0000 0.0000 0.0000 15.6998
#
#
#
# Elastic Compliance Matrix: (Units=1/GPa)
#
#
# Indices 1 2 3 4 5 6 
#
# 1 0.016614 -0.010871 -0.001035 0.000000 0.000000 0.000000
# 2 -0.010871 0.028883 -0.001529 0.000000 0.000000 0.000000
# 3 -0.001035 -0.001529 0.008377 0.000000 0.000000 0.000000
# 4 0.000000 0.000000 0.000000 0.085184 0.000000 0.000000
# 5 0.000000 0.000000 0.000000 0.000000 0.096676 0.000000
# 6 0.000000 0.000000 0.000000 0.000000 0.000000 0.063695
#
#
# Mechanical properties :
#
#
# Convention : Reuss Voigt Hill
#
# Bulk Modulus (GPa) = 37.02953 41.43349 39.23151
# Shear Modulus (GPa) = 14.91213 20.39977 17.65595
#
# Velocity S-wave (km/s) = 2.77224 3.24246 3.01653
# Velocity P-wave (km/s) = 5.41583 5.94742 5.68784
#
# Compressibility (1/GPa) = 0.02700548
#
# Stress axis : x y z
#
# Youngs Moduli (GPa) = 60.19152 34.62283 119.37854
#
# Poissons Ratio (x) = 0.37637 0.12350
# Poissons Ratio (y) = 0.65432 0.18248
# Poissons Ratio (z) = 0.06227 0.05293
#
# Static dielectric constant tensor:
#      x y z
#    x 1.650210 0.000000 0.000000 
#    y 0.000000 1.781040 0.000000 
#    z 0.000000 0.000000 1.796840 
# 
# From -- ./inp_files/26247.got.cif
#   From: 2010.05.17/outbox.cif.g08.bks.cpg/sg21_14_cif.got.tgz:26247.got - 2010.06.03 23:14:55.
