data_PCOD9322079
_publ_section_title
;
Structure prediction by ZEFSAII (Michael W. Deem and Ramdas Pophale) SiO2 
 PCOD9322079
Probable space group: C 2 2 21
;
_chemical_formula_sum "Si O2"
_cell_formula_units_Z 32
_cell_length_a 4.775950
_cell_length_b 22.219538
_cell_length_c 11.490137
_cell_angle_alpha 90.000000
_cell_angle_beta 90.000000
_cell_angle_gamma 90.000000
_cell_volume 1219.326473
_symmetry_space_group_name_H-M "C 2 2 21"
_symmetry_group_IT_number 20
_symmetry_cell_setting 'orthorhombic'
loop_
_space_group_symop_operation_xyz
x,y,z
-x,-y,1/2+z
x,-y,-z
-x,y,1/2-z
1/2+x,1/2+y,z
1/2-x,1/2-y,1/2+z
1/2+x,1/2-y,-z
1/2-x,1/2+y,1/2-z
loop_
_atom_site_type_symbol
_atom_site_label
_atom_site_fract_x
_atom_site_fract_y
_atom_site_fract_z
Si Si1 0.180719 0.394160 0.072868
Si Si2 0.500000 0.522638 0.750000
Si Si3 0.500000 0.172906 0.250000
Si Si4 0.325430 0.583744 0.408355
Si Si5 0.090802 0.235775 0.568065
O O1 0.287073 0.436747 0.175492
O O2 0.260047 0.325542 0.108747
O O3 0.366543 0.406264 0.958048
O O4 0.873776 0.407335 0.021955
O O5 0.662261 0.480038 0.842229
O O6 0.720600 0.129748 0.310727
O O7 0.587678 0.221379 0.153173
O O8 0.848463 0.223437 0.475147
#
# Coordination Sequence:
#
# PCOD9322079 Si02
#       5
#     8   4   4   8   8
#     4  12  27  55  75 120 161 209 276 335 402 483
#     4  12  31  50  84 118 165 228 268 342 414 472
#     4  12  25  48  80 112 157 202 264 314 424 458
#     4  12  28  48  79 115 161 211 272 328 400 496
#     4  12  25  48  80 115 153 200 264 331 392 484
#
# _framework density 26.243998999999999
#
# number of rings (size 3 to 8) (size 9 to 14) (size 15 to 20)
#    0.000    0.000    5.000    3.000    0.000   14.000 
#    0.000    5.000    0.000    0.000    0.000    0.000 
#    0.000    0.000    0.000    0.000    0.000    0.000 
#
# Total GULP energy -89601.369119 kJ/mol
# GULP energy per Si atom -5600.085570 kJ/mol
# Density = 2.618427 g / cm^3
# Si number density = 26.243999 Si / 1000 Ang^3
#
#
#
# Elastic Constant Matrix: (Units=GPa)
#
#
# Indices 1 2 3 4 5 6 
#
# 1 76.1651 17.4585 18.6611 0.0000 0.0000 0.0000
# 2 17.4585 185.1159 44.1985 0.0000 0.0000 0.0000
# 3 18.6611 44.1985 56.2055 0.0000 0.0000 0.0000
# 4 0.0000 0.0000 0.0000 72.1085 0.0000 0.0000
# 5 0.0000 0.0000 0.0000 0.0000 47.2912 0.0000
# 6 0.0000 0.0000 0.0000 0.0000 0.0000 27.4287
#
#
#
# Elastic Compliance Matrix: (Units=1/GPa)
#
#
# Indices 1 2 3 4 5 6 
#
# 1 0.014303 -0.000265 -0.004540 0.000000 0.000000 0.000000
# 2 -0.000265 0.006656 -0.005146 0.000000 0.000000 0.000000
# 3 -0.004540 -0.005146 0.023346 0.000000 0.000000 0.000000
# 4 0.000000 0.000000 0.000000 0.013868 0.000000 0.000000
# 5 0.000000 0.000000 0.000000 0.000000 0.021146 0.000000
# 6 0.000000 0.000000 0.000000 0.000000 0.000000 0.036458
#
#
# Mechanical properties :
#
#
# Convention : Reuss Voigt Hill
#
# Bulk Modulus (GPa) = 40.98049 53.12472 47.05261
# Shear Modulus (GPa) = 34.76761 45.17690 39.97226
#
# Velocity S-wave (km/s) = 3.64371 4.15350 3.90693
# Velocity P-wave (km/s) = 5.77505 6.57941 6.19031
#
# Compressibility (1/GPa) = 0.02440186
#
# Stress axis : x y z
#
# Youngs Moduli (GPa) = 69.91782 150.24869 42.83404
#
# Poissons Ratio (x) = 0.03979 0.19448
# Poissons Ratio (y) = 0.01852 0.22042
# Poissons Ratio (z) = 0.31745 0.77316
#
# Static dielectric constant tensor:
#      x y z
#    x 1.966730 0.000000 0.000000 
#    y 0.000000 2.059230 0.000000 
#    z 0.000000 0.000000 2.303100 
# 
# From -- ./inp_files/12002.got.cif
#   From: 2010.05.17/outbox.cif.g08.bks.cpg/sg20_7_cif.got.tgz:12002.got - 2010.06.03 22:52:26.
