data_PCOD9322250
_publ_section_title
;
Structure prediction by ZEFSAII (Michael W. Deem and Ramdas Pophale) SiO2 
 PCOD9322250
Probable space group: C 2 2 21
;
_chemical_formula_sum "Si O2"
_cell_formula_units_Z 24
_cell_length_a 6.000000
_cell_length_b 27.000000
_cell_length_c 15.000000
_cell_angle_alpha 90.000000
_cell_angle_beta 90.000000
_cell_angle_gamma 90.000000
_cell_volume 2430.000000
_symmetry_space_group_name_H-M "C 2 2 21"
_symmetry_group_IT_number 20
_symmetry_cell_setting 'orthorhombic'
loop_
_space_group_symop_operation_xyz
x,y,z
-x,-y,1/2+z
x,-y,-z
-x,y,1/2-z
1/2+x,1/2+y,z
1/2-x,1/2-y,1/2+z
1/2+x,1/2-y,-z
1/2-x,1/2+y,1/2-z
loop_
_atom_site_type_symbol
_atom_site_label
_atom_site_fract_x
_atom_site_fract_y
_atom_site_fract_z
Si Si1 0.000000 0.148955 0.750000
Si Si2 0.851272 0.897771 0.071703
Si Si3 0.628568 0.869308 0.657208
Si Si4 0.787592 0.277114 0.126139
Si Si5 0.152503 0.559641 0.505934
Si Si6 0.138367 0.691936 0.009586
Si Si7 0.500000 0.305797 0.750000
O O1 0.133610 0.115778 0.677195
O O2 0.147314 0.185056 0.813563
O O3 0.600038 0.922962 0.047116
O O4 0.837381 0.845978 0.015549
O O5 0.100070 0.922891 0.048572
O O6 0.500000 0.880103 0.750000
O O7 0.661217 0.916490 0.593275
O O8 0.492758 0.832668 0.591917
O O9 0.849733 0.840647 0.688051
O O10 0.682018 0.247997 0.041669
O O11 0.858437 0.231662 0.189350
O O12 0.993900 0.305368 0.080918
O O13 0.150426 0.500000 0.500000
#
# Coordination Sequence:
#
# PCOD9322250 Si02
#       7
#     4   8   8   8   8   8   4
#     4  12  24  42  65 104 144 188 235 288 346 406
#     4  11  25  47  73 101 144 180 225 290 360 421
#     4  11  23  42  66  97 136 175 231 294 356 406
#     4  12  22  36  63  96 140 191 245 277 326 413
#     4  11  26  50  77 102 133 177 231 290 370 442
#     4  11  22  40  61  99 137 195 231 285 340 406
#     4  12  22  38  63  98 140 184 243 292 334 402
#
# _framework density 9.8765429999999999
#
# number of rings (size 3 to 8) (size 9 to 14) (size 15 to 20)
#    0.000    0.667    1.667    7.500    2.333    2.000 
#    3.000    0.000    0.000    0.000    0.000    0.000 
#    0.000    0.000    0.000    0.000    0.000    0.000 
#
# Total GULP energy -133802.504856 kJ/mol
# GULP energy per Si atom -5575.104369 kJ/mol
# Density = 0.985406 g / cm^3
# Si number density = 9.876543 Si / 1000 Ang^3
#
#
#
# Elastic Constant Matrix: (Units=GPa)
#
#
# Indices 1 2 3 4 5 6 
#
# 1 118.1381 60.1022 44.4968 0.0000 0.0000 0.0000
# 2 60.1022 133.4612 51.0721 0.0000 0.0000 0.0000
# 3 44.4968 51.0721 106.3799 0.0000 0.0000 0.0000
# 4 0.0000 0.0000 0.0000 32.5280 0.0000 0.0000
# 5 0.0000 0.0000 0.0000 0.0000 58.5895 0.0000
# 6 0.0000 0.0000 0.0000 0.0000 0.0000 40.4019
#
#
#
# Elastic Compliance Matrix: (Units=1/GPa)
#
#
# Indices 1 2 3 4 5 6 
#
# 1 0.011662 -0.004147 -0.002887 0.000000 0.000000 0.000000
# 2 -0.004147 0.010654 -0.003380 0.000000 0.000000 0.000000
# 3 -0.002887 -0.003380 0.012231 0.000000 0.000000 0.000000
# 4 0.000000 0.000000 0.000000 0.030743 0.000000 0.000000
# 5 0.000000 0.000000 0.000000 0.000000 0.017068 0.000000
# 6 0.000000 0.000000 0.000000 0.000000 0.000000 0.024751
#
#
# Mechanical properties :
#
#
# Convention : Reuss Voigt Hill
#
# Bulk Modulus (GPa) = 72.89713 74.36907 73.63310
# Shear Modulus (GPa) = 37.73321 39.79110 38.76215
#
# Velocity S-wave (km/s) = 4.37538 4.49310 4.43463
# Velocity P-wave (km/s) = 7.90629 8.04042 7.97364
#
# Compressibility (1/GPa) = 0.01371796
#
# Stress axis : x y z
#
# Youngs Moduli (GPa) = 85.75011 93.86284 81.76157
#
# Poissons Ratio (x) = 0.38924 0.23605
# Poissons Ratio (y) = 0.35560 0.27637
# Poissons Ratio (z) = 0.24756 0.31728
#
# Static dielectric constant tensor:
#      x y z
#    x 1.817870 0.000000 0.000000 
#    y 0.000000 1.702930 0.000000 
#    z 0.000000 0.000000 1.692900 
# 
# From -- ./inp_files/17838.got.cif
#   From: 2010.05.17/outbox.ucp.g08.bks.cvg/sg20_9_cif.got.tgz:17838.got - 2010.06.11 15:13:06.
