data_PCOD9322750
_publ_section_title
;
Structure prediction by ZEFSAII (Michael W. Deem and Ramdas Pophale) SiO2 
 PCOD9322750
Probable space group: C 2 2 2
;
_chemical_formula_sum "Si O2"
_cell_formula_units_Z 64
_cell_length_a 23.226361
_cell_length_b 17.077594
_cell_length_c 8.620075
_cell_angle_alpha 90.000000
_cell_angle_beta 90.000000
_cell_angle_gamma 90.000000
_cell_volume 3419.155880
_symmetry_space_group_name_H-M "C 2 2 2"
_symmetry_group_IT_number 21
_symmetry_cell_setting 'orthorhombic'
loop_
_space_group_symop_operation_xyz
x,y,z
-x,-y,z
x,-y,-z
-x,y,-z
1/2+x,1/2+y,z
1/2-x,1/2-y,z
1/2+x,1/2-y,-z
1/2-x,1/2+y,-z
loop_
_atom_site_type_symbol
_atom_site_label
_atom_site_fract_x
_atom_site_fract_y
_atom_site_fract_z
Si Si1 0.137741 0.648428 0.684219
Si Si2 0.742011 0.655326 0.177905
Si Si3 0.934424 0.500003 0.689614
Si Si4 0.383753 0.320746 0.812372
Si Si5 0.499999 0.409128 0.189450
Si Si6 0.362260 0.851567 0.315820
Si Si7 0.742011 0.655325 0.822053
Si Si8 0.383753 0.679258 0.812407
O O1 0.203694 0.627386 0.724894
O O2 0.097858 0.578096 0.740705
O O3 0.132337 0.656776 0.500020
O O4 0.119347 0.730854 0.758681
O O5 0.750000 0.750000 0.175232
O O6 0.677293 0.640658 0.237365
O O7 0.746724 0.627682 0.999979
O O8 0.933190 0.500000 0.500000
O O9 0.902145 0.578107 0.740685
O O10 0.000000 0.500000 0.740092
O O11 0.441597 0.364736 0.760548
O O12 0.380652 0.230860 0.758634
O O13 0.322707 0.359346 0.762599
O O14 0.382613 0.321509 0.999983
O O15 0.500000 0.500000 0.237296
O O16 0.441594 0.364733 0.239434
O O17 0.500000 0.408020 0.000000
O O18 0.296307 0.872613 0.275147
O O19 0.750000 0.750000 0.824723
#
# Coordination Sequence:
#
# PCOD9322750 Si02
#       8
#     8   8   8   8   8   8   8   8
#     4  10  19  32  54  77  99 134 175 209 247 298
#     4   8  15  30  50  74 104 131 160 205 255 297
#     4   9  20  36  49  69 105 140 171 208 248 299
#     4   9  18  33  54  78 104 133 165 208 255 300
#     4   9  18  34  55  78 103 132 170 207 247 305
#     4  10  19  32  54  77  99 134 175 209 247 298
#     4   8  15  30  50  74 104 131 160 205 255 297
#     4   9  18  33  54  78 104 133 165 208 255 300
#
# _framework density 18.718070000000001
#
# number of rings (size 3 to 8) (size 9 to 14) (size 15 to 20)
#    0.000    3.000    0.000    2.250    1.750    4.500 
#    2.250    2.500    0.000    4.500    0.000    0.000 
#    0.000    0.000    0.000    0.000    0.000    0.000 
#
# Total GULP energy -178308.166506 kJ/mol
# GULP energy per Si atom -5572.130203 kJ/mol
# Density = 1.867547 g / cm^3
# Si number density = 18.718070 Si / 1000 Ang^3
#
#
#
# Elastic Constant Matrix: (Units=GPa)
#
#
# Indices 1 2 3 4 5 6 
#
# 1 207.3039 90.8120 18.0476 0.0000 0.0000 0.0000
# 2 90.8120 88.2715 10.5931 0.0000 0.0000 0.0000
# 3 18.0476 10.5931 2.9173 0.0000 0.0000 0.0000
# 4 0.0000 0.0000 0.0000 27.0742 0.0000 0.0000
# 5 0.0000 0.0000 0.0000 0.0000 21.9423 0.0000
# 6 0.0000 0.0000 0.0000 0.0000 0.0000 26.5822
#
#
#
# Elastic Compliance Matrix: (Units=1/GPa)
#
#
# Indices 1 2 3 4 5 6 
#
# 1 0.012074 -0.006128 -0.052444 0.000000 0.000000 0.000000
# 2 -0.006128 0.023188 -0.046291 0.000000 0.000000 0.000000
# 3 -0.052444 -0.046291 0.835322 0.000000 0.000000 0.000000
# 4 0.000000 0.000000 0.000000 0.036936 0.000000 0.000000
# 5 0.000000 0.000000 0.000000 0.000000 0.045574 0.000000
# 6 0.000000 0.000000 0.000000 0.000000 0.000000 0.037619
#
#
# Mechanical properties :
#
#
# Convention : Reuss Voigt Hill
#
# Bulk Modulus (GPa) = 1.51318 59.71090 30.61204
# Shear Modulus (GPa) = 3.51933 27.05571 15.28752
#
# Velocity S-wave (km/s) = 1.37268 3.80601 2.86094
# Velocity P-wave (km/s) = 1.82278 7.16126 5.22524
#
# Compressibility (1/GPa) = 0.66085891
#
# Stress axis : x y z
#
# Youngs Moduli (GPa) = 82.82341 43.12572 1.19714
#
# Poissons Ratio (x) = 0.26426 0.06278
# Poissons Ratio (y) = 0.50752 0.05542
# Poissons Ratio (z) = 4.34358 1.99632
#
# Static dielectric constant tensor:
#      x y z
#    x 1.674440 0.000000 0.000000 
#    y 0.000000 1.627480 0.000000 
#    z 0.000000 0.000000 1.640730 
# 
# From -- ./inp_files/18650.got.cif
#   From: 2010.05.17/outbox.cif.g08.bks.cpg/sg21_10_cif.got.tgz:18650.got - 2010.06.03 23:14:55.
