data_PCOD9322989
_publ_section_title
;
Structure prediction by ZEFSAII (Michael W. Deem and Ramdas Pophale) SiO2 
 PCOD9322989
Probable space group: C 2 2 2
;
_chemical_formula_sum "Si O2"
_cell_formula_units_Z 34
_cell_length_a 8.895995
_cell_length_b 19.862799
_cell_length_c 10.235858
_cell_angle_alpha 90.000000
_cell_angle_beta 90.000000
_cell_angle_gamma 90.000000
_cell_volume 1808.669564
_symmetry_space_group_name_H-M "C 2 2 2"
_symmetry_group_IT_number 21
_symmetry_cell_setting 'orthorhombic'
loop_
_space_group_symop_operation_xyz
x,y,z
-x,-y,z
x,-y,-z
-x,y,-z
1/2+x,1/2+y,z
1/2-x,1/2-y,z
1/2+x,1/2-y,-z
1/2-x,1/2+y,-z
loop_
_atom_site_type_symbol
_atom_site_label
_atom_site_fract_x
_atom_site_fract_y
_atom_site_fract_z
Si Si1 0.798452 0.328111 0.282931
Si Si2 0.000000 0.500000 0.000000
Si Si3 0.878363 0.615237 0.193687
Si Si4 0.680706 0.074936 0.520942
Si Si5 0.174543 0.178680 0.976092
O O1 0.750000 0.250000 0.308337
O O2 0.768903 0.371132 0.413291
O O3 0.705896 0.358782 0.160437
O O4 0.972200 0.341411 0.234691
O O5 0.078590 0.551076 0.896777
O O6 0.800804 0.595681 0.329351
O O7 0.763011 0.653423 0.101359
O O8 0.500000 0.071245 0.500000
O O9 0.742499 0.000000 0.500000
O O10 0.250000 0.250000 0.948895
O O11 0.000000 0.184012 0.000000
#
# Coordination Sequence:
#
# PCOD9322989 Si02
#       5
#     8   2   8   8   8
#     4  10  19  37  60  90 126 161 204 266 315 369
#     4  12  20  36  68  92 124 168 216 254 316 368
#     4  11  21  37  64  93 121 164 211 257 312 379
#     4   9  19  35  60  90 121 161 209 254 307 378
#     4  11  22  38  60  90 121 158 206 263 317 369
#
# _framework density 18.798348000000001
#
# number of rings (size 3 to 8) (size 9 to 14) (size 15 to 20)
#    0.000    1.647    2.353    5.647    0.000    0.941 
#    0.000    6.471    0.000    1.412    0.000    0.000 
#    0.000    0.000    0.000    0.000    0.000    0.000 
#
# Total GULP energy -94646.156547 kJ/mol
# GULP energy per Si atom -5567.420973 kJ/mol
# Density = 1.875556 g / cm^3
# Si number density = 18.798348 Si / 1000 Ang^3
#
#
#
# Elastic Constant Matrix: (Units=GPa)
#
#
# Indices 1 2 3 4 5 6 
#
# 1 73.3761 38.7888 37.9687 0.0000 0.0000 0.0000
# 2 38.7888 108.7674 76.8104 0.0000 0.0000 0.0000
# 3 37.9687 76.8104 212.0777 0.0000 0.0000 0.0000
# 4 0.0000 0.0000 0.0000 39.9112 0.0000 0.0000
# 5 0.0000 0.0000 0.0000 0.0000 36.7623 0.0000
# 6 0.0000 0.0000 0.0000 0.0000 0.0000 12.4846
#
#
#
# Elastic Compliance Matrix: (Units=1/GPa)
#
#
# Indices 1 2 3 4 5 6 
#
# 1 0.016997 -0.005257 -0.001139 0.000000 0.000000 0.000000
# 2 -0.005257 0.013980 -0.004122 0.000000 0.000000 0.000000
# 3 -0.001139 -0.004122 0.006412 0.000000 0.000000 0.000000
# 4 0.000000 0.000000 0.000000 0.025056 0.000000 0.000000
# 5 0.000000 0.000000 0.000000 0.000000 0.027202 0.000000
# 6 0.000000 0.000000 0.000000 0.000000 0.000000 0.080099
#
#
# Mechanical properties :
#
#
# Convention : Reuss Voigt Hill
#
# Bulk Modulus (GPa) = 61.15289 77.92855 69.54072
# Shear Modulus (GPa) = 25.48011 33.87516 29.67764
#
# Velocity S-wave (km/s) = 3.68563 4.24964 3.97764
# Velocity P-wave (km/s) = 7.12134 8.10088 7.62685
#
# Compressibility (1/GPa) = 0.01635246
#
# Stress axis : x y z
#
# Youngs Moduli (GPa) = 58.83448 71.53274 155.95629
#
# Poissons Ratio (x) = 0.37606 0.17763
# Poissons Ratio (y) = 0.30930 0.64284
# Poissons Ratio (z) = 0.06701 0.29485
#
# Static dielectric constant tensor:
#      x y z
#    x 1.573640 0.000000 0.000000 
#    y 0.000000 1.736680 0.000000 
#    z 0.000000 0.000000 1.743910 
# 
# From -- ./inp_files/10568.got.cif
#   From: 2010.05.17/outbox.cif.g08.bks.cpg/sg21_6_cif.got.tgz:10568.got - 2010.06.03 23:14:55.
