data_PCOD9322648
_publ_section_title
;
Structure prediction by ZEFSAII (Michael W. Deem and Ramdas Pophale) SiO2 
 PCOD9322648
Probable space group: C 2 2 2
;
_chemical_formula_sum "Si O2"
_cell_formula_units_Z 30
_cell_length_a 11.599690
_cell_length_b 16.143768
_cell_length_c 7.326738
_cell_angle_alpha 90.000000
_cell_angle_beta 90.000000
_cell_angle_gamma 90.000000
_cell_volume 1372.024771
_symmetry_space_group_name_H-M "C 2 2 2"
_symmetry_group_IT_number 21
_symmetry_cell_setting 'orthorhombic'
loop_
_space_group_symop_operation_xyz
x,y,z
-x,-y,z
x,-y,-z
-x,y,-z
1/2+x,1/2+y,z
1/2-x,1/2-y,z
1/2+x,1/2-y,-z
1/2-x,1/2+y,-z
loop_
_atom_site_type_symbol
_atom_site_label
_atom_site_fract_x
_atom_site_fract_y
_atom_site_fract_z
Si Si1 0.003634 0.729598 0.723334
Si Si2 0.824717 0.872025 0.343233
Si Si3 0.596535 0.945688 0.183486
Si Si4 0.000000 0.000000 0.500000
Si Si5 0.750000 0.750000 0.659364
O O1 0.869709 0.746852 0.769635
O O2 0.000000 0.721703 0.500000
O O3 0.102534 0.798787 0.756704
O O4 0.040745 0.645137 0.815971
O O5 0.722218 0.923586 0.254710
O O6 0.769096 0.828123 0.522711
O O7 0.920597 0.938986 0.387309
O O8 0.500000 0.000000 0.289442
O O9 0.612508 0.000000 0.000000
#
# Coordination Sequence:
#
# PCOD9322648 Si02
#       5
#     8   8   8   2   4
#     4  10  19  39  71 103 132 182 230 300 369 410
#     4  11  21  40  68 101 147 173 230 300 364 422
#     4  11  25  41  64  95 145 193 239 279 341 441
#     4  12  24  36  68 120 134 164 236 328 360 408
#     4  10  18  38  68 108 128 182 216 300 382 404
#
# _framework density 21.865494000000002
#
# number of rings (size 3 to 8) (size 9 to 14) (size 15 to 20)
#    0.000    1.333    9.333    0.000    3.733    0.533 
#    0.000    0.667   46.933    1.600    0.000    0.000 
#    0.000    0.000    0.000    0.000    0.000    0.000 
#
# Total GULP energy -83592.444228 kJ/mol
# GULP energy per Si atom -5572.829615 kJ/mol
# Density = 2.181573 g / cm^3
# Si number density = 21.865494 Si / 1000 Ang^3
#
#
#
# Elastic Constant Matrix: (Units=GPa)
#
#
# Indices 1 2 3 4 5 6 
#
# 1 255.8826 95.0238 40.4787 0.0000 0.0000 0.0000
# 2 95.0238 182.7028 41.1607 0.0000 0.0000 0.0000
# 3 40.4787 41.1607 58.1022 0.0000 0.0000 0.0000
# 4 0.0000 0.0000 0.0000 37.6215 0.0000 0.0000
# 5 0.0000 0.0000 0.0000 0.0000 18.5575 0.0000
# 6 0.0000 0.0000 0.0000 0.0000 0.0000 6.5350
#
#
#
# Elastic Compliance Matrix: (Units=1/GPa)
#
#
# Indices 1 2 3 4 5 6 
#
# 1 0.005025 -0.002171 -0.001963 0.000000 0.000000 0.000000
# 2 -0.002171 0.007451 -0.003766 0.000000 0.000000 0.000000
# 3 -0.001963 -0.003766 0.021246 0.000000 0.000000 0.000000
# 4 0.000000 0.000000 0.000000 0.026581 0.000000 0.000000
# 5 0.000000 0.000000 0.000000 0.000000 0.053887 0.000000
# 6 0.000000 0.000000 0.000000 0.000000 0.000000 0.153021
#
#
# Mechanical properties :
#
#
# Convention : Reuss Voigt Hill
#
# Bulk Modulus (GPa) = 55.79493 94.44599 75.12046
# Shear Modulus (GPa) = 17.30202 33.87774 25.58988
#
# Velocity S-wave (km/s) = 2.81605 3.94047 3.42472
# Velocity P-wave (km/s) = 6.01217 7.99944 7.07592
#
# Compressibility (1/GPa) = 0.01792277
#
# Stress axis : x y z
#
# Youngs Moduli (GPa) = 199.01214 134.20953 47.06753
#
# Poissons Ratio (x) = 0.29141 0.09237
# Poissons Ratio (y) = 0.43211 0.17725
# Poissons Ratio (z) = 0.39057 0.50540
#
# Static dielectric constant tensor:
#      x y z
#    x 1.837660 0.000000 0.000000 
#    y 0.000000 1.739960 0.000000 
#    z 0.000000 0.000000 1.983270 
# 
# From -- ./inp_files/12246.got.cif
#   From: 2010.05.17/outbox.cif.g08.bks.cpg/sg21_7_cif.got.tgz:12246.got - 2010.06.03 23:14:55.
