data_PCOD9322635
_publ_section_title
;
Structure prediction by ZEFSAII (Michael W. Deem and Ramdas Pophale) SiO2 
 PCOD9322635
Probable space group: C 2 2 2
;
_chemical_formula_sum "Si O2"
_cell_formula_units_Z 32
_cell_length_a 13.586090
_cell_length_b 9.058273
_cell_length_c 10.917814
_cell_angle_alpha 90.000000
_cell_angle_beta 90.000000
_cell_angle_gamma 90.000000
_cell_volume 1343.617290
_symmetry_space_group_name_H-M "C 2 2 2"
_symmetry_group_IT_number 21
_symmetry_cell_setting 'orthorhombic'
loop_
_space_group_symop_operation_xyz
x,y,z
-x,-y,z
x,-y,-z
-x,y,-z
1/2+x,1/2+y,z
1/2-x,1/2-y,z
1/2+x,1/2-y,-z
1/2-x,1/2+y,-z
loop_
_atom_site_type_symbol
_atom_site_label
_atom_site_fract_x
_atom_site_fract_y
_atom_site_fract_z
Si Si1 0.884540 0.340576 0.465282
Si Si2 0.111445 0.063383 0.879702
Si Si3 0.846544 0.165988 0.693758
Si Si4 0.038455 0.338648 0.795406
O O1 0.839438 0.500000 0.500000
O O2 0.850523 0.201863 0.547690
O O3 0.887015 0.338004 0.319807
O O4 0.000000 0.349971 0.500000
O O5 0.095784 0.237948 0.891595
O O6 0.152754 0.997143 0.752180
O O7 0.000000 0.000000 0.879853
O O8 0.163442 0.000000 0.000000
O O9 0.750000 0.250000 0.738596
O O10 0.941966 0.250066 0.748168
O O11 0.000000 0.500000 0.828464
#
# Coordination Sequence:
#
# PCOD9322635 Si02
#       4
#     8   8   8   8
#     4   9  15  32  58  78 111 147 186 227 282 360
#     4   9  20  39  59  83 116 153 206 244 275 351
#     4  10  20  36  58  85 122 151 186 249 299 334
#     4  10  18  37  64  81 112 158 196 237 291 354
#
# _framework density 23.816306999999998
#
# number of rings (size 3 to 8) (size 9 to 14) (size 15 to 20)
#    0.000    2.500    5.000    0.000    0.000    1.000 
#    4.500   18.750    0.000    0.000    0.000    0.000 
#    0.000    0.000    0.000    0.000    0.000    0.000 
#
# Total GULP energy -89096.442339 kJ/mol
# GULP energy per Si atom -5568.527646 kJ/mol
# Density = 2.376210 g / cm^3
# Si number density = 23.816307 Si / 1000 Ang^3
#
#
#
# Elastic Constant Matrix: (Units=GPa)
#
#
# Indices 1 2 3 4 5 6 
#
# 1 43.8611 7.2743 8.3344 0.0000 0.0000 0.0000
# 2 7.2743 177.5314 65.3342 0.0000 0.0000 0.0000
# 3 8.3344 65.3342 81.6096 0.0000 0.0000 0.0000
# 4 0.0000 0.0000 0.0000 18.1594 0.0000 0.0000
# 5 0.0000 0.0000 0.0000 0.0000 -1.3002 0.0000
# 6 0.0000 0.0000 0.0000 0.0000 0.0000 18.4817
#
#
#
# Elastic Compliance Matrix: (Units=1/GPa)
#
#
# Indices 1 2 3 4 5 6 
#
# 1 0.023252 -0.000112 -0.002285 0.000000 0.000000 0.000000
# 2 -0.000112 0.007986 -0.006382 0.000000 0.000000 0.000000
# 3 -0.002285 -0.006382 0.017596 0.000000 0.000000 0.000000
# 4 0.000000 0.000000 0.000000 0.055068 0.000000 0.000000
# 5 0.000000 0.000000 0.000000 0.000000 -0.769105 0.000000
# 6 0.000000 0.000000 0.000000 0.000000 0.000000 0.054108
#
#
# Mechanical properties :
#
#
# Convention : Reuss Voigt Hill
#
# Bulk Modulus (GPa) = 31.97307 51.65422 41.81364
# Shear Modulus (GPa) = -8.57468 21.87212 6.64872
#
# Velocity S-wave (km/s) = -1.89951 3.03375 1.67264
# Velocity P-wave (km/s) = 2.93992 5.83157 4.61792
#
# Compressibility (1/GPa) = 0.03127632
#
# Stress axis : x y z
#
# Youngs Moduli (GPa) = 43.00710 125.21832 56.83092
#
# Poissons Ratio (x) = 0.01400 0.12986
# Poissons Ratio (y) = 0.00481 0.36269
# Poissons Ratio (z) = 0.09828 0.79914
#
# Static dielectric constant tensor:
#      x y z
#    x 1.954670 0.000000 0.000000 
#    y 0.000000 1.960660 0.000000 
#    z 0.000000 0.000000 2.054190 
# 
# From -- ./inp_files/21960.got.cif
#   From: 2010.05.17/outbox.cif.g08.bks.cpg/sg21_11_cif.got.tgz:21960.got - 2010.06.03 23:14:55.
