data_PCOD9322604
_publ_section_title
;
Structure prediction by ZEFSAII (Michael W. Deem and Ramdas Pophale) SiO2 
 PCOD9322604
Probable space group: C 2 2 2
;
_chemical_formula_sum "Si O2"
_cell_formula_units_Z 32
_cell_length_a 22.470550
_cell_length_b 7.906662
_cell_length_c 7.581477
_cell_angle_alpha 90.000000
_cell_angle_beta 90.000000
_cell_angle_gamma 90.000000
_cell_volume 1346.978606
_symmetry_space_group_name_H-M "C 2 2 2"
_symmetry_group_IT_number 21
_symmetry_cell_setting 'orthorhombic'
loop_
_space_group_symop_operation_xyz
x,y,z
-x,-y,z
x,-y,-z
-x,y,-z
1/2+x,1/2+y,z
1/2-x,1/2-y,z
1/2+x,1/2-y,-z
1/2-x,1/2+y,-z
loop_
_atom_site_type_symbol
_atom_site_label
_atom_site_fract_x
_atom_site_fract_y
_atom_site_fract_z
Si Si1 0.653314 0.840512 0.737404
Si Si2 0.228633 0.998938 0.211451
Si Si3 0.875064 0.176420 0.597456
Si Si4 0.569077 0.298491 0.966872
O O1 0.701361 0.989402 0.748350
O O2 0.695115 0.673184 0.737988
O O3 0.621943 0.817866 0.551406
O O4 0.609577 0.812520 0.901786
O O5 0.190149 0.136403 0.316822
O O6 0.223709 0.000000 0.000000
O O7 0.914655 0.225672 0.763777
O O8 0.894024 0.000000 0.500000
O O9 0.580871 0.500000 0.000000
O O10 0.500000 0.266252 0.000000
#
# Coordination Sequence:
#
# PCOD9322604 Si02
#       4
#     8   8   8   8
#     4  10  20  35  53  81 115 149 185 223 282 339
#     4  10  18  36  54  78 118 148 181 230 280 341
#     4  10  18  36  50  80 116 145 183 226 280 337
#     4  11  20  35  55  80 115 149 189 231 284 337
#
# _framework density 23.756874
#
# number of rings (size 3 to 8) (size 9 to 14) (size 15 to 20)
#    0.000    1.750    7.500    0.000    0.000    1.000 
#   22.500    0.000    0.000    0.750    0.000    0.000 
#    0.000    0.000    0.000    0.000    0.000    0.000 
#
# Total GULP energy -89511.550028 kJ/mol
# GULP energy per Si atom -5594.471877 kJ/mol
# Density = 2.370280 g / cm^3
# Si number density = 23.756874 Si / 1000 Ang^3
#
#
#
# Elastic Constant Matrix: (Units=GPa)
#
#
# Indices 1 2 3 4 5 6 
#
# 1 151.2473 25.3246 72.5254 0.0000 0.0000 0.0000
# 2 25.3246 86.9887 25.1111 0.0000 0.0000 0.0000
# 3 72.5254 25.1111 234.6060 0.0000 0.0000 0.0000
# 4 0.0000 0.0000 0.0000 0.5261 0.0000 0.0000
# 5 0.0000 0.0000 0.0000 0.0000 -27.5524 0.0000
# 6 0.0000 0.0000 0.0000 0.0000 0.0000 16.1653
#
#
#
# Elastic Compliance Matrix: (Units=1/GPa)
#
#
# Indices 1 2 3 4 5 6 
#
# 1 0.007989 -0.001664 -0.002292 0.000000 0.000000 0.000000
# 2 -0.001664 0.012209 -0.000792 0.000000 0.000000 0.000000
# 3 -0.002292 -0.000792 0.005056 0.000000 0.000000 0.000000
# 4 0.000000 0.000000 0.000000 1.900628 0.000000 0.000000
# 5 0.000000 0.000000 0.000000 0.000000 -0.036294 0.000000
# 6 0.000000 0.000000 0.000000 0.000000 0.000000 0.061861
#
#
# Mechanical properties :
#
#
# Convention : Reuss Voigt Hill
#
# Bulk Modulus (GPa) = 63.46217 79.86269 71.66243
# Shear Modulus (GPa) = 2.54298 21.15319 11.84809
#
# Velocity S-wave (km/s) = 1.03573 2.98720 2.23563
# Velocity P-wave (km/s) = 5.31051 6.75185 6.07408
#
# Compressibility (1/GPa) = 0.01575742
#
# Stress axis : x y z
#
# Youngs Moduli (GPa) = 125.16854 81.90689 197.79680
#
# Poissons Ratio (x) = 0.13632 0.45328
# Poissons Ratio (y) = 0.20832 0.15671
# Poissons Ratio (z) = 0.28684 0.06489
#
# Static dielectric constant tensor:
#      x y z
#    x 1.898740 0.000000 0.000000 
#    y 0.000000 2.456670 0.000000 
#    z 0.000000 0.000000 2.045520 
# 
# From -- ./inp_files/17285.got.cif
#   From: 2010.05.17/outbox.cif.g08.bks.cpg/sg21_9_cif.got.tgz:17285.got - 2010.06.03 23:14:55.
