data_PCOD9322606
_publ_section_title
;
Structure prediction by ZEFSAII (Michael W. Deem and Ramdas Pophale) SiO2 
 PCOD9322606
Probable space group: C 2 2 2
;
_chemical_formula_sum "Si O2"
_cell_formula_units_Z 52
_cell_length_a 14.809977
_cell_length_b 19.490721
_cell_length_c 8.825507
_cell_angle_alpha 90.000000
_cell_angle_beta 90.000000
_cell_angle_gamma 90.000000
_cell_volume 2547.545519
_symmetry_space_group_name_H-M "C 2 2 2"
_symmetry_group_IT_number 21
_symmetry_cell_setting 'orthorhombic'
loop_
_space_group_symop_operation_xyz
x,y,z
-x,-y,z
x,-y,-z
-x,y,-z
1/2+x,1/2+y,z
1/2-x,1/2-y,z
1/2+x,1/2-y,-z
1/2-x,1/2+y,-z
loop_
_atom_site_type_symbol
_atom_site_label
_atom_site_fract_x
_atom_site_fract_y
_atom_site_fract_z
Si Si1 0.500000 0.293303 0.500000
Si Si2 0.495077 0.690250 0.167976
Si Si3 0.343492 0.822060 0.510310
Si Si4 0.387406 0.169757 0.812650
Si Si5 0.798084 0.812714 0.215779
Si Si6 0.797411 0.427020 0.938501
Si Si7 0.546846 0.071932 0.693457
O O1 0.524101 0.334503 0.343987
O O2 0.585010 0.240927 0.521112
O O3 0.429217 0.756007 0.146797
O O4 0.599132 0.707615 0.199152
O O5 0.500000 0.654935 0.000000
O O6 0.321909 0.824930 0.333150
O O7 0.258846 0.817879 0.625308
O O8 0.399836 0.889577 0.559475
O O9 0.474231 0.125422 0.759358
O O10 0.338793 0.125847 0.940325
O O11 0.750000 0.750000 0.130743
O O12 0.782246 0.885927 0.141647
O O13 0.878027 0.441051 0.821073
O O14 0.767911 0.500000 0.000000
O O15 0.500000 0.000000 0.660428
#
# Coordination Sequence:
#
# PCOD9322606 Si02
#       7
#     4   8   8   8   8   8   8
#     4  10  18  36  55  80 120 157 208 262 306 378
#     4  11  21  38  63  85 116 163 213 262 317 378
#     4  10  20  34  50  78 118 166 202 256 306 369
#     4  11  20  34  53  85 117 161 213 244 303 390
#     4  11  21  39  58  83 127 165 204 263 321 362
#     4  11  23  37  55  89 128 168 201 254 317 382
#     4  11  18  29  49  74 115 163 203 236 290 370
#
# _framework density 20.411804
#
# number of rings (size 3 to 8) (size 9 to 14) (size 15 to 20)
#    0.000    1.231    6.154    3.231    0.000    1.231 
#    2.769    0.769    0.000    0.462    0.000    0.000 
#    0.000    0.000    0.000    0.000    0.000    0.000 
#
# Total GULP energy -144751.367948 kJ/mol
# GULP energy per Si atom -5567.360306 kJ/mol
# Density = 2.036535 g / cm^3
# Si number density = 20.411804 Si / 1000 Ang^3
#
#
#
# Elastic Constant Matrix: (Units=GPa)
#
#
# Indices 1 2 3 4 5 6 
#
# 1 31.5196 -12.5859 8.7664 0.0000 0.0000 0.0000
# 2 -12.5859 46.8654 18.0673 0.0000 0.0000 0.0000
# 3 8.7664 18.0673 123.4934 0.0000 0.0000 0.0000
# 4 0.0000 0.0000 0.0000 -12.4334 0.0000 0.0000
# 5 0.0000 0.0000 0.0000 0.0000 9.7595 0.0000
# 6 0.0000 0.0000 0.0000 0.0000 0.0000 22.1026
#
#
#
# Elastic Compliance Matrix: (Units=1/GPa)
#
#
# Indices 1 2 3 4 5 6 
#
# 1 0.037668 0.011813 -0.004402 0.000000 0.000000 0.000000
# 2 0.011813 0.026318 -0.004689 0.000000 0.000000 0.000000
# 3 -0.004402 -0.004689 0.009096 0.000000 0.000000 0.000000
# 4 0.000000 0.000000 0.000000 -0.080429 0.000000 0.000000
# 5 0.000000 0.000000 0.000000 0.000000 0.102465 0.000000
# 6 0.000000 0.000000 0.000000 0.000000 0.000000 0.045243
#
#
# Mechanical properties :
#
#
# Convention : Reuss Voigt Hill
#
# Bulk Modulus (GPa) = 12.73481 25.59713 19.16597
# Shear Modulus (GPa) = 31.03813 16.39444 23.71628
#
# Velocity S-wave (km/s) = 3.90371 2.83713 3.41235
# Velocity P-wave (km/s) = 5.15472 4.82700 4.99355
#
# Compressibility (1/GPa) = 0.07852493
#
# Stress axis : x y z
#
# Youngs Moduli (GPa) = 26.54805 37.99725 109.93738
#
# Poissons Ratio (x) = -0.44885 0.48396
# Poissons Ratio (y) = -0.31361 0.51548
# Poissons Ratio (z) = 0.11687 0.17816
#
# Static dielectric constant tensor:
#      x y z
#    x 1.769620 0.000000 0.000000 
#    y 0.000000 1.718620 0.000000 
#    z 0.000000 0.000000 1.916990 
# 
# From -- ./inp_files/15233.got.cif
#   From: 2010.05.17/outbox.cif.g08.bks.cpg/sg21_8_cif.got.tgz:15233.got - 2010.06.03 23:14:55.
