data_PCOD9322703
_publ_section_title
;
Structure prediction by ZEFSAII (Michael W. Deem and Ramdas Pophale) SiO2 
 PCOD9322703
Probable space group: C 2 2 2
;
_chemical_formula_sum "Si O2"
_cell_formula_units_Z 40
_cell_length_a 5.235337
_cell_length_b 14.379621
_cell_length_c 22.726324
_cell_angle_alpha 90.000000
_cell_angle_beta 90.000000
_cell_angle_gamma 90.000000
_cell_volume 1710.886802
_symmetry_space_group_name_H-M "C 2 2 2"
_symmetry_group_IT_number 21
_symmetry_cell_setting 'orthorhombic'
loop_
_space_group_symop_operation_xyz
x,y,z
-x,-y,z
x,-y,-z
-x,y,-z
1/2+x,1/2+y,z
1/2-x,1/2-y,z
1/2+x,1/2-y,-z
1/2-x,1/2+y,-z
loop_
_atom_site_type_symbol
_atom_site_label
_atom_site_fract_x
_atom_site_fract_y
_atom_site_fract_z
Si Si1 0.501593 0.388783 0.135490
Si Si2 0.256808 0.864055 0.670590
Si Si3 0.992880 0.613898 0.932288
Si Si4 0.253112 0.863471 0.535895
Si Si5 0.764546 0.859817 0.735043
O O1 0.500000 0.500000 0.131136
O O2 0.224219 0.357468 0.111638
O O3 0.612645 0.370108 0.200343
O O4 0.722070 0.355022 0.092437
O O5 0.250000 0.750000 0.671168
O O6 0.285218 0.894292 0.603286
O O7 0.482784 0.893340 0.715756
O O8 0.981704 0.896874 0.692195
O O9 0.000000 0.500000 0.932674
O O10 0.000000 0.644079 0.000000
O O11 0.500000 0.892048 0.500000
O O12 0.250000 0.750000 0.537895
O O13 0.000000 0.891134 0.500000
O O14 0.750000 0.750000 0.725487
#
# Coordination Sequence:
#
# PCOD9322703 Si02
#       5
#     8   8   8   8   8
#     4  10  19  31  49  72  95 120 154 196 235 279
#     4   9  17  28  42  62  90 124 158 188 228 283
#     4   9  17  30  49  72  95 118 148 191 242 286
#     4   9  15  23  37  58  85 116 149 188 231 272
#     4  10  19  31  46  65  93 128 158 187 228 284
#
# _framework density 23.379687000000001
#
# number of rings (size 3 to 8) (size 9 to 14) (size 15 to 20)
#    0.000    2.600    0.000    3.000    0.000    7.200 
#    0.000    0.000    0.000    2.400    0.000    0.000 
#    0.000   12.000    0.000    0.000    0.000    0.000 
#
# Total GULP energy -111667.850351 kJ/mol
# GULP energy per Si atom -5583.392518 kJ/mol
# Density = 2.332647 g / cm^3
# Si number density = 23.379687 Si / 1000 Ang^3
#
#
#
# Elastic Constant Matrix: (Units=GPa)
#
#
# Indices 1 2 3 4 5 6 
#
# 1 170.4919 -5.8657 59.0528 0.0000 0.0000 0.0000
# 2 -5.8657 81.3115 -11.6951 0.0000 0.0000 0.0000
# 3 59.0528 -11.6951 152.5126 0.0000 0.0000 0.0000
# 4 0.0000 0.0000 0.0000 1.1553 0.0000 0.0000
# 5 0.0000 0.0000 0.0000 0.0000 47.9592 0.0000
# 6 0.0000 0.0000 0.0000 0.0000 0.0000 -22.3652
#
#
#
# Elastic Compliance Matrix: (Units=1/GPa)
#
#
# Indices 1 2 3 4 5 6 
#
# 1 0.006775 0.000113 -0.002615 0.000000 0.000000 0.000000
# 2 0.000113 0.012437 0.000910 0.000000 0.000000 0.000000
# 3 -0.002615 0.000910 0.007639 0.000000 0.000000 0.000000
# 4 0.000000 0.000000 0.000000 0.865611 0.000000 0.000000
# 5 0.000000 0.000000 0.000000 0.000000 0.020851 0.000000
# 6 0.000000 0.000000 0.000000 0.000000 0.000000 -0.044712
#
#
# Mechanical properties :
#
#
# Convention : Reuss Voigt Hill
#
# Bulk Modulus (GPa) = 42.25174 54.14444 48.19809
# Shear Modulus (GPa) = 5.68392 29.53810 17.61101
#
# Velocity S-wave (km/s) = 1.56090 3.55830 2.74754
# Velocity P-wave (km/s) = 4.62166 6.33175 5.54305
#
# Compressibility (1/GPa) = 0.02366766
#
# Stress axis : x y z
#
# Youngs Moduli (GPa) = 147.60440 80.40255 130.90734
#
# Poissons Ratio (x) = -0.00906 0.34227
# Poissons Ratio (y) = -0.01663 -0.11914
# Poissons Ratio (z) = 0.38592 -0.07318
#
# Static dielectric constant tensor:
#      x y z
#    x 1.841610 0.000000 0.000000 
#    y 0.000000 1.924740 0.000000 
#    z 0.000000 0.000000 1.990290 
# 
# From -- ./inp_files/34644.got.cif
#   From: 2010.05.17/outbox.cif.g08.bks.cpg/sg21_18_cif.got.tgz:34644.got - 2010.06.03 23:14:55.
