data_PCOD9322273
_publ_section_title
;
Structure prediction by ZEFSAII (Michael W. Deem and Ramdas Pophale) SiO2 
 PCOD9322273
Probable space group: C 2 2 2
;
_chemical_formula_sum "Si O2"
_cell_formula_units_Z 64
_cell_length_a 26.984245
_cell_length_b 5.256999
_cell_length_c 26.665271
_cell_angle_alpha 90.000000
_cell_angle_beta 90.000000
_cell_angle_gamma 90.000000
_cell_volume 3782.632656
_symmetry_space_group_name_H-M "C 2 2 2"
_symmetry_group_IT_number 21
_symmetry_cell_setting 'orthorhombic'
loop_
_space_group_symop_operation_xyz
x,y,z
-x,-y,z
x,-y,-z
-x,y,-z
1/2+x,1/2+y,z
1/2-x,1/2-y,z
1/2+x,1/2-y,-z
1/2-x,1/2+y,-z
loop_
_atom_site_type_symbol
_atom_site_label
_atom_site_fract_x
_atom_site_fract_y
_atom_site_fract_z
Si Si1 0.393712 0.947638 0.714319
Si Si2 0.558462 0.437339 0.240438
Si Si3 0.442980 0.245311 0.977639
Si Si4 0.554911 0.562967 0.558891
Si Si5 0.220477 0.501019 0.287799
Si Si6 0.220641 0.498984 0.589887
Si Si7 0.533350 0.251170 0.136459
Si Si8 0.107559 0.431009 0.406025
O O1 0.413422 0.691399 0.741254
O O2 0.336452 0.994960 0.728886
O O3 0.394531 0.929436 0.654187
O O4 0.426143 0.194522 0.727135
O O5 0.500000 0.500000 0.243962
O O6 0.566752 0.335340 0.183486
O O7 0.443084 0.215501 0.918029
O O8 0.420611 0.500000 0.000000
O O9 0.500000 0.245877 0.000000
O O10 0.417580 0.000000 0.000000
O O11 0.500000 0.500000 0.579472
O O12 0.553449 0.500000 0.500000
O O13 0.592646 0.354411 0.579849
O O14 0.571752 0.849518 0.571654
O O15 0.250000 0.250000 0.272182
O O16 0.220434 0.503726 0.348939
O O17 0.250000 0.750000 0.271137
O O18 0.250000 0.750000 0.573775
O O19 0.163095 0.507032 0.575609
O O20 0.250000 0.250000 0.572745
O O21 0.500000 0.500000 0.128414
O O22 0.500000 0.000000 0.148539
#
# Coordination Sequence:
#
# PCOD9322273 Si02
#       8
#     8   8   8   8   8   8   8   8
#     4  11  22  36  52  77 103 130 176 208 245 299
#     4  11  23  34  45  66 104 150 176 205 234 300
#     4  10  15  24  40  63  80 107 166 243 257 272
#     4  11  24  41  59  80 102 129 168 213 260 299
#     4   9  17  31  52  75  96 121 157 213 262 294
#     4   9  17  31  53  81 107 127 155 192 243 303
#     4  11  18  29  43  59  89 130 176 217 256 287
#     4  11  22  37  61  81 100 133 163 208 254 300
#
# _framework density 16.919435
#
# number of rings (size 3 to 8) (size 9 to 14) (size 15 to 20)
#    0.000    1.625    2.500    4.875    0.000    8.000 
#    0.000    0.000    0.000    7.500    0.000    0.000 
#    0.000    0.000    0.000    0.000    0.000   35.000 
#
# Total GULP energy -178397.809368 kJ/mol
# GULP energy per Si atom -5574.931543 kJ/mol
# Density = 1.688093 g / cm^3
# Si number density = 16.919435 Si / 1000 Ang^3
#
#
#
# Elastic Constant Matrix: (Units=GPa)
#
#
# Indices 1 2 3 4 5 6 
#
# 1 54.6459 12.1726 12.5032 0.0000 0.0000 0.0000
# 2 12.1726 122.1186 11.2913 0.0000 0.0000 0.0000
# 3 12.5032 11.2913 52.4903 0.0000 0.0000 0.0000
# 4 0.0000 0.0000 0.0000 29.2724 0.0000 0.0000
# 5 0.0000 0.0000 0.0000 0.0000 -23.6370 0.0000
# 6 0.0000 0.0000 0.0000 0.0000 0.0000 27.3380
#
#
#
# Elastic Compliance Matrix: (Units=1/GPa)
#
#
# Indices 1 2 3 4 5 6 
#
# 1 0.019640 -0.001556 -0.004344 0.000000 0.000000 0.000000
# 2 -0.001556 0.008478 -0.001453 0.000000 0.000000 0.000000
# 3 -0.004344 -0.001453 0.020398 0.000000 0.000000 0.000000
# 4 0.000000 0.000000 0.000000 0.034162 0.000000 0.000000
# 5 0.000000 0.000000 0.000000 0.000000 -0.042307 0.000000
# 6 0.000000 0.000000 0.000000 0.000000 0.000000 0.036579
#
#
# Mechanical properties :
#
#
# Convention : Reuss Voigt Hill
#
# Bulk Modulus (GPa) = 29.57601 33.46545 31.52073
# Shear Modulus (GPa) = 48.57823 19.48055 34.02939
#
# Velocity S-wave (km/s) = 5.36412 3.39687 4.48957
# Velocity P-wave (km/s) = 7.47553 5.93356 6.74873
#
# Compressibility (1/GPa) = 0.03381119
#
# Stress axis : x y z
#
# Youngs Moduli (GPa) = 50.91631 117.94921 49.02362
#
# Poissons Ratio (x) = 0.18354 0.21294
# Poissons Ratio (y) = 0.07923 0.07124
# Poissons Ratio (z) = 0.22116 0.17139
#
# Static dielectric constant tensor:
#      x y z
#    x 1.540820 0.000000 0.000000 
#    y 0.000000 1.651580 0.000000 
#    z 0.000000 0.000000 1.631370 
# 
# From -- ./inp_files/38918.got.cif
#   From: 2010.05.17/outbox.cif.g08.bks.cpg/sg21_20_cif.got.tgz:38918.got - 2010.06.03 23:14:55.
