data_PCOD9322632
_publ_section_title
;
Structure prediction by ZEFSAII (Michael W. Deem and Ramdas Pophale) SiO2 
 PCOD9322632
Probable space group: C 2 2 2
;
_chemical_formula_sum "Si O2"
_cell_formula_units_Z 38
_cell_length_a 26.311379
_cell_length_b 10.741470
_cell_length_c 6.339040
_cell_angle_alpha 90.000000
_cell_angle_beta 90.000000
_cell_angle_gamma 90.000000
_cell_volume 1791.557793
_symmetry_space_group_name_H-M "C 2 2 2"
_symmetry_group_IT_number 21
_symmetry_cell_setting 'orthorhombic'
loop_
_space_group_symop_operation_xyz
x,y,z
-x,-y,z
x,-y,-z
-x,y,-z
1/2+x,1/2+y,z
1/2-x,1/2-y,z
1/2+x,1/2-y,-z
1/2-x,1/2+y,-z
loop_
_atom_site_type_symbol
_atom_site_label
_atom_site_fract_x
_atom_site_fract_y
_atom_site_fract_z
Si Si1 0.219645 0.129042 0.394827
Si Si2 0.661031 0.208345 0.273952
Si Si3 0.408946 0.150671 0.336122
Si Si4 0.377737 0.376204 0.100701
Si Si5 0.500000 0.000000 0.500000
Si Si6 0.340804 0.000000 0.000000
O O1 0.250000 0.250000 0.296831
O O2 0.195412 0.201124 0.592194
O O3 0.174752 0.095820 0.229219
O O4 0.241364 0.000000 0.500000
O O5 0.621408 0.150538 0.442181
O O6 0.688590 0.098515 0.143593
O O7 0.633601 0.289544 0.098790
O O8 0.411049 0.293235 0.258927
O O9 0.462823 0.086168 0.363500
O O10 0.375515 0.076827 0.163639
O O11 0.400037 0.500000 0.000000
#
# Coordination Sequence:
#
# PCOD9322632 Si02
#       6
#     8   8   8   8   2   4
#     4  11  24  40  63  96 133 174 223 285 337 385
#     4  10  20  39  61  89 126 170 220 257 327 386
#     4  10  22  35  64  96 126 169 202 272 320 400
#     4  10  21  42  66  88 120 179 229 255 320 397
#     4  12  20  42  60 102 146 152 212 264 364 368
#     4  10  18  37  60  96 122 166 220 250 324 398
#
# _framework density 21.210588999999999
#
# number of rings (size 3 to 8) (size 9 to 14) (size 15 to 20)
#    0.000    1.684    4.211    0.000    0.000    6.316 
#    0.000    0.000    2.316    3.789    0.000    0.000 
#    0.000    0.000    0.000    0.000    0.000    0.000 
#
# Total GULP energy -105909.424398 kJ/mol
# GULP energy per Si atom -5574.180231 kJ/mol
# Density = 2.116231 g / cm^3
# Si number density = 21.210589 Si / 1000 Ang^3
#
#
#
# Elastic Constant Matrix: (Units=GPa)
#
#
# Indices 1 2 3 4 5 6 
#
# 1 44.6209 20.6866 16.5424 0.0000 0.0000 0.0000
# 2 20.6866 138.6295 40.8874 0.0000 0.0000 0.0000
# 3 16.5424 40.8874 113.9059 0.0000 0.0000 0.0000
# 4 0.0000 0.0000 0.0000 49.2310 0.0000 0.0000
# 5 0.0000 0.0000 0.0000 0.0000 12.6818 0.0000
# 6 0.0000 0.0000 0.0000 0.0000 0.0000 27.8412
#
#
#
# Elastic Compliance Matrix: (Units=1/GPa)
#
#
# Indices 1 2 3 4 5 6 
#
# 1 0.024714 -0.002941 -0.002534 0.000000 0.000000 0.000000
# 2 -0.002941 0.008417 -0.002594 0.000000 0.000000 0.000000
# 3 -0.002534 -0.002594 0.010078 0.000000 0.000000 0.000000
# 4 0.000000 0.000000 0.000000 0.020312 0.000000 0.000000
# 5 0.000000 0.000000 0.000000 0.000000 0.078853 0.000000
# 6 0.000000 0.000000 0.000000 0.000000 0.000000 0.035918
#
#
# Mechanical properties :
#
#
# Convention : Reuss Voigt Hill
#
# Bulk Modulus (GPa) = 36.93819 50.37659 43.65739
# Shear Modulus (GPa) = 24.57553 32.55345 28.56449
#
# Velocity S-wave (km/s) = 3.40758 3.92187 3.67373
# Velocity P-wave (km/s) = 5.73889 6.65660 6.21471
#
# Compressibility (1/GPa) = 0.02707225
#
# Stress axis : x y z
#
# Youngs Moduli (GPa) = 40.46360 118.80041 99.22182
#
# Poissons Ratio (x) = 0.34934 0.25139
# Poissons Ratio (y) = 0.11899 0.25743
# Poissons Ratio (z) = 0.10252 0.30822
#
# Static dielectric constant tensor:
#      x y z
#    x 1.783640 0.000000 0.000000 
#    y 0.000000 1.797500 0.000000 
#    z 0.000000 0.000000 1.770090 
# 
# From -- ./inp_files/2868.got.cif
#   From: 2010.05.17/outbox.cif.g08.bks.cpg/sg21_2_cif.got.tgz:2868.got - 2010.06.03 23:14:55.
