data_PCOD9322594
_publ_section_title
;
Structure prediction by ZEFSAII (Michael W. Deem and Ramdas Pophale) SiO2 
 PCOD9322594
Probable space group: C 2 2 2
;
_chemical_formula_sum "Si O2"
_cell_formula_units_Z 36
_cell_length_a 6.947409
_cell_length_b 14.813926
_cell_length_c 12.790119
_cell_angle_alpha 90.000000
_cell_angle_beta 90.000000
_cell_angle_gamma 90.000000
_cell_volume 1316.338619
_symmetry_space_group_name_H-M "C 2 2 2"
_symmetry_group_IT_number 21
_symmetry_cell_setting 'orthorhombic'
loop_
_space_group_symop_operation_xyz
x,y,z
-x,-y,z
x,-y,-z
-x,y,-z
1/2+x,1/2+y,z
1/2-x,1/2-y,z
1/2+x,1/2-y,-z
1/2-x,1/2+y,-z
loop_
_atom_site_type_symbol
_atom_site_label
_atom_site_fract_x
_atom_site_fract_y
_atom_site_fract_z
Si Si1 0.750000 0.250000 0.843909
Si Si2 0.292945 0.895132 0.252955
Si Si3 0.723878 0.854172 0.513538
Si Si4 0.228474 0.602790 0.019553
Si Si5 0.243195 0.902509 0.705727
O O1 0.853806 0.185273 0.754937
O O2 0.708358 0.327515 0.932290
O O3 0.220570 0.862809 0.365807
O O4 0.245633 0.860721 0.137446
O O5 0.526862 0.885860 0.266893
O O6 0.223379 0.998822 0.246904
O O7 0.500000 0.878627 0.500000
O O8 0.750000 0.750000 0.484989
O O9 0.808649 0.909281 0.416561
O O10 0.296077 0.500000 0.000000
O O11 0.000000 0.598559 0.000000
#
# Coordination Sequence:
#
# PCOD9322594 Si02
#       5
#     4   8   8   8   8
#     4  12  20  30  56  82 106 154 178 236 290 342
#     4  10  19  35  54  82 109 141 190 245 274 333
#     4  10  21  34  57  88 113 145 188 243 290 344
#     4  11  20  35  54  82 113 144 189 237 282 333
#     4  10  18  35  57  81 109 140 190 238 293 327
#
# _framework density 27.348583999999999
#
# number of rings (size 3 to 8) (size 9 to 14) (size 15 to 20)
#    0.000    1.556    5.556    2.000    1.556    2.667 
#    0.000    0.000    0.000    3.333   11.556    0.000 
#    0.000    0.000    0.000    0.000    0.000    0.000 
#
# Total GULP energy -100221.922926 kJ/mol
# GULP energy per Si atom -5567.884607 kJ/mol
# Density = 2.728634 g / cm^3
# Si number density = 27.348584 Si / 1000 Ang^3
#
#
#
# Elastic Constant Matrix: (Units=GPa)
#
#
# Indices 1 2 3 4 5 6 
#
# 1 122.8002 -23.6455 24.5099 0.0000 0.0000 0.0000
# 2 -23.6455 127.5051 49.7671 0.0000 0.0000 0.0000
# 3 24.5099 49.7671 291.4197 0.0000 0.0000 0.0000
# 4 0.0000 0.0000 0.0000 98.5491 0.0000 0.0000
# 5 0.0000 0.0000 0.0000 0.0000 20.3234 0.0000
# 6 0.0000 0.0000 0.0000 0.0000 0.0000 2.1047
#
#
#
# Elastic Compliance Matrix: (Units=1/GPa)
#
#
# Indices 1 2 3 4 5 6 
#
# 1 0.008754 0.002047 -0.001086 0.000000 0.000000 0.000000
# 2 0.002047 0.008882 -0.001689 0.000000 0.000000 0.000000
# 3 -0.001086 -0.001689 0.003811 0.000000 0.000000 0.000000
# 4 0.000000 0.000000 0.000000 0.010147 0.000000 0.000000
# 5 0.000000 0.000000 0.000000 0.000000 0.049204 0.000000
# 6 0.000000 0.000000 0.000000 0.000000 0.000000 0.475122
#
#
# Mechanical properties :
#
#
# Convention : Reuss Voigt Hill
#
# Bulk Modulus (GPa) = 50.01978 71.44311 60.73145
# Shear Modulus (GPa) = 8.86462 56.93500 32.89981
#
# Velocity S-wave (km/s) = 1.80233 4.56765 3.47216
# Velocity P-wave (km/s) = 4.76031 7.34832 6.19106
#
# Compressibility (1/GPa) = 0.01999209
#
# Stress axis : x y z
#
# Youngs Moduli (GPa) = 114.23009 112.59079 262.38176
#
# Poissons Ratio (x) = -0.23051 0.28492
# Poissons Ratio (y) = -0.23386 0.44315
# Poissons Ratio (z) = 0.12404 0.19016
#
# Static dielectric constant tensor:
#      x y z
#    x 2.131300 0.000000 0.000000 
#    y 0.000000 2.121680 0.000000 
#    z 0.000000 0.000000 2.043240 
# 
# From -- ./inp_files/23713.got.cif
#   From: 2010.05.17/outbox.cif.g08.bks.cpg/sg21_12_cif.got.tgz:23713.got - 2010.06.03 23:14:55.
