data_PCOD9322899
_publ_section_title
;
Structure prediction by ZEFSAII (Michael W. Deem and Ramdas Pophale) SiO2 
 PCOD9322899
Probable space group: C 2 2 2
;
_chemical_formula_sum "Si O2"
_cell_formula_units_Z 32
_cell_length_a 16.024207
_cell_length_b 11.479853
_cell_length_c 7.471602
_cell_angle_alpha 90.000000
_cell_angle_beta 90.000000
_cell_angle_gamma 90.000000
_cell_volume 1374.442587
_symmetry_space_group_name_H-M "C 2 2 2"
_symmetry_group_IT_number 21
_symmetry_cell_setting 'orthorhombic'
loop_
_space_group_symop_operation_xyz
x,y,z
-x,-y,z
x,-y,-z
-x,y,-z
1/2+x,1/2+y,z
1/2-x,1/2-y,z
1/2+x,1/2-y,-z
1/2-x,1/2+y,-z
loop_
_atom_site_type_symbol
_atom_site_label
_atom_site_fract_x
_atom_site_fract_y
_atom_site_fract_z
Si Si1 0.582485 0.719086 0.203706
Si Si2 0.295534 0.497479 0.207297
Si Si3 0.816685 0.645623 0.473727
Si Si4 0.885710 0.759480 0.804449
O O1 0.627995 0.594493 0.224214
O O2 0.606306 0.809457 0.355503
O O3 0.483159 0.707628 0.209817
O O4 0.620365 0.765905 0.015751
O O5 0.227539 0.453146 0.349564
O O6 0.331839 0.625772 0.243865
O O7 0.267635 0.500000 0.000000
O O8 0.750000 0.750000 0.461326
O O9 0.854558 0.657524 0.674806
#
# Coordination Sequence:
#
# PCOD9322899 Si02
#       4
#     8   8   8   8
#     4   9  19  35  57  88 125 163 209 267 324 378
#     4   9  19  36  59  91 129 168 213 268 329 390
#     4  10  21  34  53  89 129 165 206 261 325 384
#     4  10  19  35  60  88 123 164 213 269 323 383
#
# _framework density 23.282164999999999
#
# number of rings (size 3 to 8) (size 9 to 14) (size 15 to 20)
#    0.000    2.500    0.000    1.500    0.000   12.000 
#    0.000    7.500    0.000    0.000    0.000   89.250 
#    0.000   16.000    0.000    0.000    0.000    0.000 
#
# Total GULP energy -89273.954897 kJ/mol
# GULP energy per Si atom -5579.622181 kJ/mol
# Density = 2.322917 g / cm^3
# Si number density = 23.282165 Si / 1000 Ang^3
#
#
#
# Elastic Constant Matrix: (Units=GPa)
#
#
# Indices 1 2 3 4 5 6 
#
# 1 65.0443 53.6033 58.6450 0.0000 0.0000 0.0000
# 2 53.6033 93.0404 85.7197 0.0000 0.0000 0.0000
# 3 58.6450 85.7197 137.1108 0.0000 0.0000 0.0000
# 4 0.0000 0.0000 0.0000 17.2957 0.0000 0.0000
# 5 0.0000 0.0000 0.0000 0.0000 33.0450 0.0000
# 6 0.0000 0.0000 0.0000 0.0000 0.0000 32.0048
#
#
#
# Elastic Compliance Matrix: (Units=1/GPa)
#
#
# Indices 1 2 3 4 5 6 
#
# 1 0.030593 -0.013136 -0.004873 0.000000 0.000000 0.000000
# 2 -0.013136 0.030989 -0.013755 0.000000 0.000000 0.000000
# 3 -0.004873 -0.013755 0.017977 0.000000 0.000000 0.000000
# 4 0.000000 0.000000 0.000000 0.057818 0.000000 0.000000
# 5 0.000000 0.000000 0.000000 0.000000 0.030262 0.000000
# 6 0.000000 0.000000 0.000000 0.000000 0.000000 0.031245
#
#
# Mechanical properties :
#
#
# Convention : Reuss Voigt Hill
#
# Bulk Modulus (GPa) = 62.37971 76.79240 69.58606
# Shear Modulus (GPa) = 18.67362 22.95091 20.81227
#
# Velocity S-wave (km/s) = 2.83513 3.14311 2.99308
# Velocity P-wave (km/s) = 6.12931 6.79905 6.47285
#
# Compressibility (1/GPa) = 0.01603085
#
# Stress axis : x y z
#
# Youngs Moduli (GPa) = 32.68702 32.26907 55.62603
#
# Poissons Ratio (x) = 0.42390 0.27104
# Poissons Ratio (y) = 0.42939 0.76516
# Poissons Ratio (z) = 0.15927 0.44388
#
# Static dielectric constant tensor:
#      x y z
#    x 1.842910 0.000000 0.000000 
#    y 0.000000 2.418730 0.000000 
#    z 0.000000 0.000000 1.982220 
# 
# From -- ./inp_files/14041.got.cif
#   From: 2010.05.17/outbox.cif.g08.bks.cpg/sg21_8_cif.got.tgz:14041.got - 2010.06.03 23:14:55.
