data_PCOD9322012
_publ_section_title
;
Structure prediction by ZEFSAII (Michael W. Deem and Ramdas Pophale) SiO2 
 PCOD9322012
Probable space group: C 2 2 21
;
_chemical_formula_sum "Si O2"
_cell_formula_units_Z 32
_cell_length_a 12.752725
_cell_length_b 14.233644
_cell_length_c 7.495796
_cell_angle_alpha 90.000000
_cell_angle_beta 90.000000
_cell_angle_gamma 90.000000
_cell_volume 1360.620007
_symmetry_space_group_name_H-M "C 2 2 21"
_symmetry_group_IT_number 20
_symmetry_cell_setting 'orthorhombic'
loop_
_space_group_symop_operation_xyz
x,y,z
-x,-y,1/2+z
x,-y,-z
-x,y,1/2-z
1/2+x,1/2+y,z
1/2-x,1/2-y,1/2+z
1/2+x,1/2-y,-z
1/2-x,1/2+y,1/2-z
loop_
_atom_site_type_symbol
_atom_site_label
_atom_site_fract_x
_atom_site_fract_y
_atom_site_fract_z
Si Si1 0.119590 0.959914 0.201164
Si Si2 0.077817 0.500000 0.500000
Si Si3 0.222504 0.696075 0.845550
Si Si4 0.774653 0.607922 0.270828
Si Si5 0.500000 0.849114 0.250000
O O1 0.195730 0.871805 0.242618
O O2 0.000000 0.938347 0.250000
O O3 0.168743 0.048863 0.304011
O O4 0.124564 0.000000 0.000000
O O5 0.147552 0.462247 0.665816
O O6 0.009435 0.583453 0.578694
O O7 0.265253 0.801260 0.855034
O O8 0.108838 0.705383 0.753740
O O9 0.200121 0.650511 0.037245
#
# Coordination Sequence:
#
# PCOD9322012 Si02
#       5
#     8   4   8   8   4
#     4  12  25  49  74 105 144 191 239 297 357 424
#     4  12  24  46  74 102 152 186 238 298 354 436
#     4  12  27  47  73 109 146 189 239 296 356 431
#     4  12  25  50  72 107 145 189 243 293 360 422
#     4  12  24  44  72 108 142 192 232 296 356 426
#
# _framework density 23.518688999999998
#
# number of rings (size 3 to 8) (size 9 to 14) (size 15 to 20)
#    0.000    0.000    3.750    6.750    1.750    0.000 
#   15.750    0.000    0.000    0.000    0.000    0.000 
#    0.000    0.000    0.000    0.000    0.000    0.000 
#
# Total GULP energy -89525.170965 kJ/mol
# GULP energy per Si atom -5595.323185 kJ/mol
# Density = 2.346516 g / cm^3
# Si number density = 23.518689 Si / 1000 Ang^3
#
#
#
# Elastic Constant Matrix: (Units=GPa)
#
#
# Indices 1 2 3 4 5 6 
#
# 1 147.6796 53.3658 28.7743 0.0000 0.0000 0.0000
# 2 53.3658 114.0473 9.6540 0.0000 0.0000 0.0000
# 3 28.7743 9.6540 101.2432 0.0000 0.0000 0.0000
# 4 0.0000 0.0000 0.0000 32.4925 0.0000 0.0000
# 5 0.0000 0.0000 0.0000 0.0000 24.9805 0.0000
# 6 0.0000 0.0000 0.0000 0.0000 0.0000 13.7950
#
#
#
# Elastic Compliance Matrix: (Units=1/GPa)
#
#
# Indices 1 2 3 4 5 6 
#
# 1 0.008558 -0.003830 -0.002067 0.000000 0.000000 0.000000
# 2 -0.003830 0.010553 0.000082 0.000000 0.000000 0.000000
# 3 -0.002067 0.000082 0.010457 0.000000 0.000000 0.000000
# 4 0.000000 0.000000 0.000000 0.030776 0.000000 0.000000
# 5 0.000000 0.000000 0.000000 0.000000 0.040031 0.000000
# 6 0.000000 0.000000 0.000000 0.000000 0.000000 0.072490
#
#
# Mechanical properties :
#
#
# Convention : Reuss Voigt Hill
#
# Bulk Modulus (GPa) = 55.74431 60.72872 58.23651
# Shear Modulus (GPa) = 26.25023 32.33200 29.29112
#
# Velocity S-wave (km/s) = 3.34450 3.71177 3.53291
# Velocity P-wave (km/s) = 6.21834 6.65185 6.43875
#
# Compressibility (1/GPa) = 0.01793905
#
# Stress axis : x y z
#
# Youngs Moduli (GPa) = 116.84923 94.75713 95.63090
#
# Poissons Ratio (x) = 0.36288 0.19768
# Poissons Ratio (y) = 0.44748 -0.00785
# Poissons Ratio (z) = 0.24154 -0.00778
#
# Static dielectric constant tensor:
#      x y z
#    x 1.910610 0.000000 0.000000 
#    y 0.000000 1.826260 0.000000 
#    z 0.000000 0.000000 1.990520 
# 
# From -- ./inp_files/6912.got.cif
#   From: 2010.05.17/outbox.cif.g08.bks.cpg/sg20_4_cif.got.tgz:6912.got - 2010.06.03 22:52:26.
