data_PCOD9322727
_publ_section_title
;
Structure prediction by ZEFSAII (Michael W. Deem and Ramdas Pophale) SiO2 
 PCOD9322727
Probable space group: C 2 2 2
;
_chemical_formula_sum "Si O2"
_cell_formula_units_Z 34
_cell_length_a 4.973553
_cell_length_b 19.661203
_cell_length_c 15.430392
_cell_angle_alpha 90.000000
_cell_angle_beta 90.000000
_cell_angle_gamma 90.000000
_cell_volume 1508.876855
_symmetry_space_group_name_H-M "C 2 2 2"
_symmetry_group_IT_number 21
_symmetry_cell_setting 'orthorhombic'
loop_
_space_group_symop_operation_xyz
x,y,z
-x,-y,z
x,-y,-z
-x,y,-z
1/2+x,1/2+y,z
1/2-x,1/2-y,z
1/2+x,1/2-y,-z
1/2-x,1/2+y,-z
loop_
_atom_site_type_symbol
_atom_site_label
_atom_site_fract_x
_atom_site_fract_y
_atom_site_fract_z
Si Si1 0.514286 0.582355 0.208616
Si Si2 0.521850 0.082526 0.098541
Si Si3 0.629771 0.931075 0.644433
Si Si4 0.754475 0.677861 0.435140
Si Si5 0.000000 0.000000 0.500000
O O1 0.500000 0.500000 0.217203
O O2 0.804749 0.603395 0.172357
O O3 0.350689 0.605031 0.294714
O O4 0.314346 0.601090 0.131479
O O5 0.500000 0.000000 0.095202
O O6 0.500000 0.107203 0.000000
O O7 0.375376 0.884490 0.619979
O O8 0.500000 0.000000 0.683627
O O9 0.798233 0.957968 0.561779
O O10 0.500000 0.667661 0.500000
O O11 0.750000 0.750000 0.384696
O O12 0.000000 0.689594 0.500000
#
# Coordination Sequence:
#
# PCOD9322727 Si02
#       5
#     8   8   8   8   2
#     4  10  19  32  49  78 115 155 201 259 309 370
#     4   9  17  30  49  73 108 157 204 240 299 385
#     4  12  25  38  61  87 129 164 228 278 334 389
#     4  10  24  44  64  84 115 168 232 284 336 393
#     4  12  26  40  54  96 124 180 218 290 330 408
#
# _framework density 22.533318000000001
#
# number of rings (size 3 to 8) (size 9 to 14) (size 15 to 20)
#    0.000    1.647    1.176    4.588    6.588    2.824 
#    0.000    0.000    0.000    0.000    0.000    0.000 
#    0.000    0.000    0.000   36.000   19.765   14.588 
#
# Total GULP energy -94815.514322 kJ/mol
# GULP energy per Si atom -5577.383195 kJ/mol
# Density = 2.248203 g / cm^3
# Si number density = 22.533318 Si / 1000 Ang^3
#
#
#
# Elastic Constant Matrix: (Units=GPa)
#
#
# Indices 1 2 3 4 5 6 
#
# 1 160.9276 27.4616 30.1653 0.0000 0.0000 0.0000
# 2 27.4616 83.3061 12.6265 0.0000 0.0000 0.0000
# 3 30.1653 12.6265 109.8019 0.0000 0.0000 0.0000
# 4 0.0000 0.0000 0.0000 -0.4130 0.0000 0.0000
# 5 0.0000 0.0000 0.0000 0.0000 44.0929 0.0000
# 6 0.0000 0.0000 0.0000 0.0000 0.0000 28.9751
#
#
#
# Elastic Compliance Matrix: (Units=1/GPa)
#
#
# Indices 1 2 3 4 5 6 
#
# 1 0.006868 -0.002013 -0.001655 0.000000 0.000000 0.000000
# 2 -0.002013 0.012807 -0.000920 0.000000 0.000000 0.000000
# 3 -0.001655 -0.000920 0.009668 0.000000 0.000000 0.000000
# 4 0.000000 0.000000 0.000000 -2.421333 0.000000 0.000000
# 5 0.000000 0.000000 0.000000 0.000000 0.022679 0.000000
# 6 0.000000 0.000000 0.000000 0.000000 0.000000 0.034512
#
#
# Mechanical properties :
#
#
# Convention : Reuss Voigt Hill
#
# Bulk Modulus (GPa) = 49.58717 54.94917 52.26817
# Shear Modulus (GPa) = -2.15619 33.44980 15.64680
#
# Velocity S-wave (km/s) = -0.97927 3.85705 2.63798
# Velocity P-wave (km/s) = 4.55799 6.65390 5.70306
#
# Compressibility (1/GPa) = 0.02016651
#
# Stress axis : x y z
#
# Youngs Moduli (GPa) = 145.60777 78.08283 103.43606
#
# Poissons Ratio (x) = 0.15718 0.17121
# Poissons Ratio (y) = 0.29312 0.09513
# Poissons Ratio (z) = 0.24102 0.07181
#
# Static dielectric constant tensor:
#      x y z
#    x 1.854320 0.000000 0.000000 
#    y 0.000000 1.990870 0.000000 
#    z 0.000000 0.000000 1.897780 
# 
# From -- ./inp_files/28932.got.cif
#   From: 2010.05.17/outbox.cif.g08.bks.cpg/sg21_15_cif.got.tgz:28932.got - 2010.06.03 23:14:55.
