data_PCOD9322700
_publ_section_title
;
Structure prediction by ZEFSAII (Michael W. Deem and Ramdas Pophale) SiO2 
 PCOD9322700
Probable space group: C 2 2 2
;
_chemical_formula_sum "Si O2"
_cell_formula_units_Z 52
_cell_length_a 5.297262
_cell_length_b 14.198948
_cell_length_c 32.864036
_cell_angle_alpha 90.000000
_cell_angle_beta 90.000000
_cell_angle_gamma 90.000000
_cell_volume 2471.886467
_symmetry_space_group_name_H-M "C 2 2 2"
_symmetry_group_IT_number 21
_symmetry_cell_setting 'orthorhombic'
loop_
_space_group_symop_operation_xyz
x,y,z
-x,-y,z
x,-y,-z
-x,y,-z
1/2+x,1/2+y,z
1/2-x,1/2-y,z
1/2+x,1/2-y,-z
1/2-x,1/2+y,-z
loop_
_atom_site_type_symbol
_atom_site_label
_atom_site_fract_x
_atom_site_fract_y
_atom_site_fract_z
Si Si1 1.000000 0.815789 0.412338
Si Si2 0.500000 0.684050 0.500000
Si Si3 1.000000 0.185801 0.324339
Si Si4 1.000000 0.384593 0.188403
Si Si5 0.500001 0.614927 0.046483
Si Si6 0.500001 0.114818 0.095226
Si Si7 0.500000 0.611307 0.765279
O O1 0.250000 0.750000 0.412334
O O2 1.000000 0.866119 0.368370
O O3 0.750000 0.750000 0.412334
O O4 0.000000 0.867484 0.456154
O O5 0.750000 0.750000 0.500000
O O6 0.750000 0.250000 0.323481
O O7 1.000000 0.128673 0.282766
O O8 0.250000 0.250000 0.323481
O O9 0.000000 0.351903 0.141769
O O10 0.752342 0.354144 0.212775
O O11 0.000000 0.500000 0.187370
O O12 0.247657 0.354144 0.212776
O O13 0.500000 0.500000 0.044964
O O14 0.250041 0.642489 0.070876
O O15 0.749962 0.642489 0.070875
O O16 0.500000 0.648854 0.000000
O O17 0.500000 0.000000 0.096639
O O18 0.500000 0.500000 0.771603
#
# Coordination Sequence:
#
# PCOD9322700 Si02
#       7
#     8   4   8   8   8   8   8
#     4   8  14  23  37  57  82 109 138 173 212 256
#     4   8  12  20  34  54  79 106 135 170 210 248
#     4  10  19  31  46  66  91 118 147 181 225 270
#     4   9  17  28  42  59  79 107 147 188 218 250
#     4   9  15  21  30  46  69  98 133 169 204 247
#     4   9  15  23  34  48  69  98 134 174 208 241
#     4  10  19  31  46  64  86 114 151 189 220 257
#
# _framework density 21.036563999999998
#
# number of rings (size 3 to 8) (size 9 to 14) (size 15 to 20)
#    0.000    2.923    0.000    2.308    0.000    5.538 
#    0.000    0.000    0.000    0.000    0.000    0.538 
#    0.000    0.000    0.000   41.385    0.000  195.385 
#
# Total GULP energy -145028.070502 kJ/mol
# GULP energy per Si atom -5578.002712 kJ/mol
# Density = 2.098868 g / cm^3
# Si number density = 21.036564 Si / 1000 Ang^3
#
#
#
# Elastic Constant Matrix: (Units=GPa)
#
#
# Indices 1 2 3 4 5 6 
#
# 1 201.6739 10.6022 95.1188 0.0000 0.0000 0.0000
# 2 10.6022 52.7684 14.2375 0.0000 0.0000 0.0000
# 3 95.1188 14.2375 261.3715 0.0000 0.0000 0.0000
# 4 0.0000 0.0000 0.0000 15.7991 0.0000 0.0000
# 5 0.0000 0.0000 0.0000 0.0000 40.0186 0.0000
# 6 0.0000 0.0000 0.0000 0.0000 0.0000 -30.8040
#
#
#
# Elastic Compliance Matrix: (Units=1/GPa)
#
#
# Indices 1 2 3 4 5 6 
#
# 1 0.006006 -0.000626 -0.002152 0.000000 0.000000 0.000000
# 2 -0.000626 0.019299 -0.000823 0.000000 0.000000 0.000000
# 3 -0.002152 -0.000823 0.004654 0.000000 0.000000 0.000000
# 4 0.000000 0.000000 0.000000 0.063295 0.000000 0.000000
# 5 0.000000 0.000000 0.000000 0.000000 0.024988 0.000000
# 6 0.000000 0.000000 0.000000 0.000000 0.000000 -0.032463
#
#
# Mechanical properties :
#
#
# Convention : Reuss Voigt Hill
#
# Bulk Modulus (GPa) = 43.94387 83.97010 63.95698
# Shear Modulus (GPa) = 49.71824 31.39309 40.55567
#
# Velocity S-wave (km/s) = 4.86678 3.86723 4.39551
# Velocity P-wave (km/s) = 7.24674 7.74232 7.49863
#
# Compressibility (1/GPa) = 0.02275630
#
# Stress axis : x y z
#
# Youngs Moduli (GPa) = 166.49291 51.81695 214.87488
#
# Poissons Ratio (x) = 0.03245 0.46235
# Poissons Ratio (y) = 0.10426 0.17692
# Poissons Ratio (z) = 0.35824 0.04266
#
# Static dielectric constant tensor:
#      x y z
#    x 1.725110 0.000000 0.000000 
#    y 0.000000 1.813510 0.000000 
#    z 0.000000 0.000000 1.779570 
# 
# From -- ./inp_files/39520.got.cif
#   From: 2010.05.17/outbox.cif.g08.bks.cpg/sg21_20_cif.got.tgz:39520.got - 2010.06.03 23:14:55.
