data_PCOD9322923
_publ_section_title
;
Structure prediction by ZEFSAII (Michael W. Deem and Ramdas Pophale) SiO2 
 PCOD9322923
Probable space group: C 2 2 2
;
_chemical_formula_sum "Si O2"
_cell_formula_units_Z 60
_cell_length_a 13.121113
_cell_length_b 14.579167
_cell_length_c 15.589655
_cell_angle_alpha 90.000000
_cell_angle_beta 90.000000
_cell_angle_gamma 90.000000
_cell_volume 2982.221458
_symmetry_space_group_name_H-M "C 2 2 2"
_symmetry_group_IT_number 21
_symmetry_cell_setting 'orthorhombic'
loop_
_space_group_symop_operation_xyz
x,y,z
-x,-y,z
x,-y,-z
-x,y,-z
1/2+x,1/2+y,z
1/2-x,1/2-y,z
1/2+x,1/2-y,-z
1/2-x,1/2+y,-z
loop_
_atom_site_type_symbol
_atom_site_label
_atom_site_fract_x
_atom_site_fract_y
_atom_site_fract_z
Si Si1 0.032517 0.901484 0.360647
Si Si2 0.613104 0.686693 0.795195
Si Si3 0.350995 0.806427 0.962863
Si Si4 0.832904 0.374678 0.144858
Si Si5 0.445128 0.617796 0.914058
Si Si6 0.699155 0.350538 0.634459
Si Si7 0.239937 0.570892 0.821470
Si Si8 0.169212 0.000000 0.500000
O O1 0.109525 0.843870 0.302618
O O2 0.095772 0.934770 0.443143
O O3 0.925257 0.848185 0.370778
O O4 0.000000 0.000000 0.320580
O O5 0.715679 0.657933 0.843523
O O6 0.603429 0.795985 0.806553
O O7 0.524047 0.627641 0.837501
O O8 0.250000 0.750000 0.987642
O O9 0.422212 0.723520 0.937212
O O10 0.329268 0.861518 0.877078
O O11 0.370136 0.869217 0.045953
O O12 0.822678 0.476422 0.181690
O O13 0.343729 0.566968 0.880204
O O14 0.500000 0.585367 0.000000
O O15 0.750000 0.250000 0.621278
O O16 0.729912 0.387984 0.729219
O O17 0.726671 0.430126 0.564554
#
# Coordination Sequence:
#
# PCOD9322923 Si02
#       8
#     8   8   8   8   8   8   8   4
#     4  10  20  39  66  95 125 155 203 257 311 377
#     4  11  21  35  59  85 119 159 205 254 309 359
#     4  10  19  36  53  78 120 164 206 251 307 352
#     4  11  21  38  53  84 127 162 205 257 311 355
#     4  11  20  36  59  83 115 161 215 259 297 358
#     4  11  21  40  67  99 127 160 205 254 320 383
#     4  11  23  36  61  86 122 163 206 258 304 368
#     4  10  23  44  68  98 127 158 203 260 318 392
#
# _framework density 20.119230999999999
#
# number of rings (size 3 to 8) (size 9 to 14) (size 15 to 20)
#    0.000    1.333    4.000    5.800    0.000    0.000 
#    4.800    2.667    0.000    0.000    0.000    0.000 
#    0.000    0.000    0.000    0.000    0.000    0.000 
#
# Total GULP energy -167196.161133 kJ/mol
# GULP energy per Si atom -5573.205371 kJ/mol
# Density = 2.007344 g / cm^3
# Si number density = 20.119231 Si / 1000 Ang^3
#
#
#
# Elastic Constant Matrix: (Units=GPa)
#
#
# Indices 1 2 3 4 5 6 
#
# 1 25.1245 30.3065 17.7549 0.0000 0.0000 0.0000
# 2 30.3065 133.3974 67.1719 0.0000 0.0000 0.0000
# 3 17.7549 67.1719 146.0184 0.0000 0.0000 0.0000
# 4 0.0000 0.0000 0.0000 38.9403 0.0000 0.0000
# 5 0.0000 0.0000 0.0000 0.0000 19.0276 0.0000
# 6 0.0000 0.0000 0.0000 0.0000 0.0000 51.4061
#
#
#
# Elastic Compliance Matrix: (Units=1/GPa)
#
#
# Indices 1 2 3 4 5 6 
#
# 1 0.054994 -0.011879 -0.001223 0.000000 0.000000 0.000000
# 2 -0.011879 0.012322 -0.004224 0.000000 0.000000 0.000000
# 3 -0.001223 -0.004224 0.008940 0.000000 0.000000 0.000000
# 4 0.000000 0.000000 0.000000 0.025680 0.000000 0.000000
# 5 0.000000 0.000000 0.000000 0.000000 0.052555 0.000000
# 6 0.000000 0.000000 0.000000 0.000000 0.000000 0.019453
#
#
# Mechanical properties :
#
#
# Convention : Reuss Voigt Hill
#
# Bulk Modulus (GPa) = 24.03479 59.44522 41.74000
# Shear Modulus (GPa) = 22.47550 34.49526 28.48538
#
# Velocity S-wave (km/s) = 3.34595 4.14519 3.76683
# Velocity P-wave (km/s) = 5.18646 7.24712 6.30159
#
# Compressibility (1/GPa) = 0.04160636
#
# Stress axis : x y z
#
# Youngs Moduli (GPa) = 18.18368 81.15483 111.85303
#
# Poissons Ratio (x) = 0.96400 0.13675
# Poissons Ratio (y) = 0.21600 0.47248
# Poissons Ratio (z) = 0.02223 0.34281
#
# Static dielectric constant tensor:
#      x y z
#    x 1.679700 0.000000 0.000000 
#    y 0.000000 1.777160 0.000000 
#    z 0.000000 0.000000 1.701120 
# 
# From -- ./inp_files/32429.got.cif
#   From: 2010.05.17/outbox.cif.g08.bks.cpg/sg21_17_cif.got.tgz:32429.got - 2010.06.03 23:14:55.
