data_PCOD9322939
_publ_section_title
;
Structure prediction by ZEFSAII (Michael W. Deem and Ramdas Pophale) SiO2 
 PCOD9322939
Probable space group: C 2 2 2
;
_chemical_formula_sum "Si O2"
_cell_formula_units_Z 56
_cell_length_a 16.354219
_cell_length_b 8.147729
_cell_length_c 20.422765
_cell_angle_alpha 90.000000
_cell_angle_beta 90.000000
_cell_angle_gamma 90.000000
_cell_volume 2721.328217
_symmetry_space_group_name_H-M "C 2 2 2"
_symmetry_group_IT_number 21
_symmetry_cell_setting 'orthorhombic'
loop_
_space_group_symop_operation_xyz
x,y,z
-x,-y,z
x,-y,-z
-x,y,-z
1/2+x,1/2+y,z
1/2-x,1/2-y,z
1/2+x,1/2-y,-z
1/2-x,1/2+y,-z
loop_
_atom_site_type_symbol
_atom_site_label
_atom_site_fract_x
_atom_site_fract_y
_atom_site_fract_z
Si Si1 0.750000 0.750000 0.408784
Si Si2 0.367766 0.844669 0.251381
Si Si3 0.160645 0.830618 0.825932
Si Si4 0.922769 0.673693 0.462552
Si Si5 0.295386 0.501633 0.705953
Si Si6 0.735627 0.556616 0.929283
Si Si7 0.910239 0.484056 0.878718
Si Si8 0.000000 0.500000 0.343671
O O1 0.831805 0.742030 0.453098
O O2 0.731901 0.592296 0.360923
O O3 0.341363 0.672256 0.284701
O O4 0.397534 0.874349 0.176956
O O5 0.435920 0.913033 0.298310
O O6 0.288729 0.961602 0.256502
O O7 0.250000 0.750000 0.831425
O O8 0.151189 0.877451 0.750341
O O9 0.094884 0.696391 0.845986
O O10 0.174014 0.986606 0.873828
O O11 0.912653 0.500000 0.500000
O O12 0.000000 0.758925 0.500000
O O13 0.955294 0.629633 0.390709
O O14 0.750000 0.750000 0.924226
O O15 0.828188 0.487298 0.921717
O O16 0.704270 0.500000 0.000000
O O17 0.000000 0.500000 0.909237
#
# Coordination Sequence:
#
# PCOD9322939 Si02
#       8
#     4   8   8   8   8   8   8   4
#     4  12  20  42  70  98 126 168 218 282 336 392
#     4  11  20  35  60  96 129 163 207 259 333 390
#     4  10  19  36  59  89 130 159 206 270 323 378
#     4   9  22  43  64  86 121 170 210 258 324 394
#     4  11  21  34  64 100 122 160 216 271 317 390
#     4  11  22  40  63  87 118 172 230 270 319 389
#     4  11  22  37  60  88 130 172 204 265 336 390
#     4  10  19  40  62  84 125 166 200 248 322 396
#
# _framework density 20.578187
#
# number of rings (size 3 to 8) (size 9 to 14) (size 15 to 20)
#    0.000    1.571    5.714    2.143    0.000    0.286 
#    5.143    5.000    0.000    0.857    0.000    0.000 
#    0.000    0.000    0.000    0.000    0.000    0.000 
#
# Total GULP energy -155934.639062 kJ/mol
# GULP energy per Si atom -5569.094252 kJ/mol
# Density = 2.053135 g / cm^3
# Si number density = 20.578187 Si / 1000 Ang^3
#
#
#
# Elastic Constant Matrix: (Units=GPa)
#
#
# Indices 1 2 3 4 5 6 
#
# 1 108.0654 14.4534 20.4519 0.0000 0.0000 0.0000
# 2 14.4534 85.0138 6.4403 0.0000 0.0000 0.0000
# 3 20.4519 6.4403 65.6294 0.0000 0.0000 0.0000
# 4 0.0000 0.0000 0.0000 15.2963 0.0000 0.0000
# 5 0.0000 0.0000 0.0000 0.0000 17.4207 0.0000
# 6 0.0000 0.0000 0.0000 0.0000 0.0000 28.3017
#
#
#
# Elastic Compliance Matrix: (Units=1/GPa)
#
#
# Indices 1 2 3 4 5 6 
#
# 1 0.010014 -0.001477 -0.002976 0.000000 0.000000 0.000000
# 2 -0.001477 0.012069 -0.000724 0.000000 0.000000 0.000000
# 3 -0.002976 -0.000724 0.016235 0.000000 0.000000 0.000000
# 4 0.000000 0.000000 0.000000 0.065375 0.000000 0.000000
# 5 0.000000 0.000000 0.000000 0.000000 0.057403 0.000000
# 6 0.000000 0.000000 0.000000 0.000000 0.000000 0.035334
#
#
# Mechanical properties :
#
#
# Convention : Reuss Voigt Hill
#
# Bulk Modulus (GPa) = 35.75934 37.93332 36.84633
# Shear Modulus (GPa) = 23.13681 26.69462 24.91572
#
# Velocity S-wave (km/s) = 3.35675 3.60561 3.48341
# Velocity P-wave (km/s) = 5.69550 5.98395 5.84151
#
# Compressibility (1/GPa) = 0.02796472
#
# Stress axis : x y z
#
# Youngs Moduli (GPa) = 99.85616 82.85849 61.59356
#
# Poissons Ratio (x) = 0.12239 0.18329
# Poissons Ratio (y) = 0.14750 0.04459
# Poissons Ratio (z) = 0.29715 0.05999
#
# Static dielectric constant tensor:
#      x y z
#    x 1.712120 0.000000 0.000000 
#    y 0.000000 1.811390 0.000000 
#    z 0.000000 0.000000 1.758840 
# 
# From -- ./inp_files/37606.got.cif
#   From: 2010.05.17/outbox.cif.g08.bks.cpg/sg21_19_cif.got.tgz:37606.got - 2010.06.03 23:14:55.
