data_PCOD9322870
_publ_section_title
;
Structure prediction by ZEFSAII (Michael W. Deem and Ramdas Pophale) SiO2 
 PCOD9322870
Probable space group: C 2 2 2
;
_chemical_formula_sum "Si O2"
_cell_formula_units_Z 64
_cell_length_a 5.259756
_cell_length_b 25.317720
_cell_length_c 26.636668
_cell_angle_alpha 90.000000
_cell_angle_beta 90.000000
_cell_angle_gamma 90.000000
_cell_volume 3547.072685
_symmetry_space_group_name_H-M "C 2 2 2"
_symmetry_group_IT_number 21
_symmetry_cell_setting 'orthorhombic'
loop_
_space_group_symop_operation_xyz
x,y,z
-x,-y,z
x,-y,-z
-x,y,-z
1/2+x,1/2+y,z
1/2-x,1/2-y,z
1/2+x,1/2-y,-z
1/2-x,1/2+y,-z
loop_
_atom_site_type_symbol
_atom_site_label
_atom_site_fract_x
_atom_site_fract_y
_atom_site_fract_z
Si Si1 0.237978 0.362881 0.360766
Si Si2 0.749081 0.485387 0.636472
Si Si3 0.251677 0.969593 0.252094
Si Si4 0.751655 0.188783 0.533733
Si Si5 0.295592 0.150597 0.785202
Si Si6 0.740996 0.309839 0.321223
Si Si7 0.495501 0.712965 0.945387
Si Si8 0.294558 0.686741 0.841242
O O1 0.255455 0.424552 0.348699
O O2 0.275639 0.349556 0.419013
O O3 0.459628 0.333200 0.329673
O O4 0.954722 0.343451 0.349117
O O5 0.500000 0.500000 0.606914
O O6 0.750127 0.521767 0.687165
O O7 0.000000 0.500000 0.607470
O O8 0.273922 0.909250 0.235379
O O9 0.500000 0.000000 0.233516
O O10 0.000000 0.000000 0.234024
O O11 0.500000 0.180661 0.500000
O O12 0.750000 0.250000 0.552333
O O13 0.000000 0.183042 0.500000
O O14 0.330359 0.187196 0.736478
O O15 0.529139 0.159811 0.824003
O O16 0.023443 0.166932 0.806924
O O17 0.750000 0.250000 0.339697
O O18 0.750000 0.750000 0.936379
O O19 0.412218 0.678836 0.897299
O O20 0.250000 0.750000 0.951417
O O21 0.500000 0.685174 0.000000
O O22 0.250000 0.750000 0.836656
#
# Coordination Sequence:
#
# PCOD9322870 Si02
#       8
#     8   8   8   8   8   8   8   8
#     4  12  23  39  61  83 109 145 186 227 276 327
#     4  10  20  36  56  78 101 134 182 230 273 310
#     4  10  19  35  53  72  98 134 183 234 272 309
#     4  10  21  38  60  85 112 140 172 216 273 336
#     4  12  23  35  52  77 112 152 188 222 276 335
#     4  12  23  35  52  81 116 149 184 219 260 328
#     4   9  17  31  52  76 105 149 199 239 273 317
#     4  11  21  35  51  77 117 157 187 221 274 335
#
# _framework density 18.043047000000001
#
# number of rings (size 3 to 8) (size 9 to 14) (size 15 to 20)
#    0.000    1.250    0.000    9.750    0.000    1.000 
#    0.000    0.000    0.000    2.250    0.000    0.000 
#    0.000    7.500    0.000    0.125    0.000    0.000 
#
# Total GULP energy -178452.452785 kJ/mol
# GULP energy per Si atom -5576.639150 kJ/mol
# Density = 1.800198 g / cm^3
# Si number density = 18.043047 Si / 1000 Ang^3
#
#
#
# Elastic Constant Matrix: (Units=GPa)
#
#
# Indices 1 2 3 4 5 6 
#
# 1 135.5407 26.2050 11.2340 0.0000 0.0000 0.0000
# 2 26.2050 82.1768 19.3634 0.0000 0.0000 0.0000
# 3 11.2340 19.3634 69.2536 0.0000 0.0000 0.0000
# 4 0.0000 0.0000 0.0000 0.2897 0.0000 0.0000
# 5 0.0000 0.0000 0.0000 0.0000 28.2886 0.0000
# 6 0.0000 0.0000 0.0000 0.0000 0.0000 30.8428
#
#
#
# Elastic Compliance Matrix: (Units=1/GPa)
#
#
# Indices 1 2 3 4 5 6 
#
# 1 0.007887 -0.002370 -0.000617 0.000000 0.000000 0.000000
# 2 -0.002370 0.013739 -0.003457 0.000000 0.000000 0.000000
# 3 -0.000617 -0.003457 0.015506 0.000000 0.000000 0.000000
# 4 0.000000 0.000000 0.000000 3.451332 0.000000 0.000000
# 5 0.000000 0.000000 0.000000 0.000000 0.035350 0.000000
# 6 0.000000 0.000000 0.000000 0.000000 0.000000 0.032422
#
#
# Mechanical properties :
#
#
# Convention : Reuss Voigt Hill
#
# Bulk Modulus (GPa) = 41.24506 44.50844 42.87675
# Shear Modulus (GPa) = 1.39774 27.22882 14.31328
#
# Velocity S-wave (km/s) = 0.88111 3.88893 2.81959
# Velocity P-wave (km/s) = 4.89326 6.69974 5.86645
#
# Compressibility (1/GPa) = 0.02424533
#
# Stress axis : x y z
#
# Youngs Moduli (GPa) = 126.78864 72.78469 64.48978
#
# Poissons Ratio (x) = 0.17248 0.03978
# Poissons Ratio (y) = 0.30046 0.22295
# Poissons Ratio (z) = 0.07821 0.25162
#
# Static dielectric constant tensor:
#      x y z
#    x 1.694090 0.000000 0.000000 
#    y 0.000000 1.615100 0.000000 
#    z 0.000000 0.000000 1.640810 
# 
# From -- ./inp_files/38354.got.cif
#   From: 2010.05.17/outbox.cif.g08.bks.cpg/sg21_20_cif.got.tgz:38354.got - 2010.06.03 23:14:55.
