data_PCOD9322670
_publ_section_title
;
Structure prediction by ZEFSAII (Michael W. Deem and Ramdas Pophale) SiO2 
 PCOD9322670
Probable space group: C 2 2 2
;
_chemical_formula_sum "Si O2"
_cell_formula_units_Z 32
_cell_length_a 5.121874
_cell_length_b 28.344288
_cell_length_c 8.363083
_cell_angle_alpha 90.000000
_cell_angle_beta 90.000000
_cell_angle_gamma 90.000000
_cell_volume 1214.117865
_symmetry_space_group_name_H-M "C 2 2 2"
_symmetry_group_IT_number 21
_symmetry_cell_setting 'orthorhombic'
loop_
_space_group_symop_operation_xyz
x,y,z
-x,-y,z
x,-y,-z
-x,y,-z
1/2+x,1/2+y,z
1/2-x,1/2-y,z
1/2+x,1/2-y,-z
1/2-x,1/2+y,-z
loop_
_atom_site_type_symbol
_atom_site_label
_atom_site_fract_x
_atom_site_fract_y
_atom_site_fract_z
Si Si1 0.000000 0.500000 0.500000
Si Si2 0.709120 0.071311 0.257954
Si Si3 0.000000 0.784152 0.500000
Si Si4 0.500000 0.000000 0.000000
Si Si5 0.651889 0.160782 0.753842
Si Si6 0.000000 0.123812 0.000000
Si Si7 0.000000 0.282687 0.000000
O O1 0.191352 0.535458 0.404362
O O2 0.499403 0.112726 0.291445
O O3 0.948306 0.096484 0.167362
O O4 0.645913 0.035447 0.114423
O O5 0.250000 0.750000 0.469396
O O6 0.133017 0.819795 0.632431
O O7 0.444352 0.198716 0.812850
O O8 0.759848 0.153548 0.937181
O O9 0.250000 0.250000 0.035208
#
# Coordination Sequence:
#
# PCOD9322670 Si02
#       7
#     2   8   4   2   8   4   4
#     4  10  28  48  78 114 188 204 288 338 440 504
#     4  11  24  48  75 119 156 226 264 357 412 515
#     4  12  34  55  80 123 174 229 284 361 436 522
#     4  10  18  48  68 108 162 194 278 324 402 488
#     4  12  27  49  78 114 163 219 280 347 437 501
#     4  12  23  45  84 110 152 220 284 340 416 508
#     4  12  26  46  82 126 164 211 289 364 415 509
#
# _framework density 26.356584000000002
#
# number of rings (size 3 to 8) (size 9 to 14) (size 15 to 20)
#    0.000    0.500    5.000    1.500    7.000    4.500 
#    0.000    1.250    0.000    0.000    0.000    0.000 
#    0.000    0.000    0.000    0.000    0.000    0.000 
#
# Total GULP energy -89083.758317 kJ/mol
# GULP energy per Si atom -5567.734895 kJ/mol
# Density = 2.629660 g / cm^3
# Si number density = 26.356584 Si / 1000 Ang^3
#
#
#
# Elastic Constant Matrix: (Units=GPa)
#
#
# Indices 1 2 3 4 5 6 
#
# 1 95.7385 37.7963 56.4771 0.0000 0.0000 0.0000
# 2 37.7963 143.6562 72.1122 0.0000 0.0000 0.0000
# 3 56.4771 72.1122 158.4899 0.0000 0.0000 0.0000
# 4 0.0000 0.0000 0.0000 135.3106 0.0000 0.0000
# 5 0.0000 0.0000 0.0000 0.0000 61.1582 0.0000
# 6 0.0000 0.0000 0.0000 0.0000 0.0000 10.2998
#
#
#
# Elastic Compliance Matrix: (Units=1/GPa)
#
#
# Indices 1 2 3 4 5 6 
#
# 1 0.013460 -0.001469 -0.004128 0.000000 0.000000 0.000000
# 2 -0.001469 0.009182 -0.003654 0.000000 0.000000 0.000000
# 3 -0.004128 -0.003654 0.009443 0.000000 0.000000 0.000000
# 4 0.000000 0.000000 0.000000 0.007390 0.000000 0.000000
# 5 0.000000 0.000000 0.000000 0.000000 0.016351 0.000000
# 6 0.000000 0.000000 0.000000 0.000000 0.000000 0.097089
#
#
# Mechanical properties :
#
#
# Convention : Reuss Voigt Hill
#
# Bulk Modulus (GPa) = 73.62397 81.18398 77.40398
# Shear Modulus (GPa) = 28.41775 56.78701 42.60238
#
# Velocity S-wave (km/s) = 3.28716 4.64677 4.02479
# Velocity P-wave (km/s) = 6.51166 7.72392 7.14355
#
# Compressibility (1/GPa) = 0.01358253
#
# Stress axis : x y z
#
# Youngs Moduli (GPa) = 74.29245 108.90937 105.89657
#
# Poissons Ratio (x) = 0.16002 0.43714
# Poissons Ratio (y) = 0.10916 0.38696
# Poissons Ratio (z) = 0.30668 0.39797
#
# Static dielectric constant tensor:
#      x y z
#    x 1.670040 0.000000 0.000000 
#    y 0.000000 1.543440 0.000000 
#    z 0.000000 0.000000 2.119680 
# 
# From -- ./inp_files/9276.got.cif
#   From: 2010.05.17/outbox.cif.g08.bks.cpg/sg21_5_cif.got.tgz:9276.got - 2010.06.03 23:14:55.
