data_PCOD9322490
_publ_section_title
;
Structure prediction by ZEFSAII (Michael W. Deem and Ramdas Pophale) SiO2 
 PCOD9322490
Probable space group: C 2 2 2
;
_chemical_formula_sum "Si O2"
_cell_formula_units_Z 48
_cell_length_a 16.413974
_cell_length_b 10.182772
_cell_length_c 12.771786
_cell_angle_alpha 90.000000
_cell_angle_beta 90.000000
_cell_angle_gamma 90.000000
_cell_volume 2134.673181
_symmetry_space_group_name_H-M "C 2 2 2"
_symmetry_group_IT_number 21
_symmetry_cell_setting 'orthorhombic'
loop_
_space_group_symop_operation_xyz
x,y,z
-x,-y,z
x,-y,-z
-x,y,-z
1/2+x,1/2+y,z
1/2-x,1/2-y,z
1/2+x,1/2-y,-z
1/2-x,1/2+y,-z
loop_
_atom_site_type_symbol
_atom_site_label
_atom_site_fract_x
_atom_site_fract_y
_atom_site_fract_z
Si Si1 0.843736 0.465782 0.765836
Si Si2 0.409371 0.632775 0.540002
Si Si3 0.348981 0.249576 0.066533
Si Si4 0.849828 0.247388 0.174390
Si Si5 0.818371 0.361771 0.553976
Si Si6 0.644119 0.459626 0.763036
O O1 0.798815 0.500000 0.500000
O O2 0.869127 0.379570 0.865654
O O3 0.867897 0.399142 0.657735
O O4 0.743731 0.460202 0.756012
O O5 0.367428 0.500000 0.500000
O O6 0.500000 0.629452 0.500000
O O7 0.373779 0.763945 0.487874
O O8 0.396541 0.612894 0.664441
O O9 0.250000 0.250000 0.062633
O O10 0.375003 0.376846 0.132707
O O11 0.376677 0.251342 0.947092
O O12 0.750000 0.250000 0.175675
O O13 0.872928 0.385692 0.224789
O O14 0.878754 0.112578 0.227307
O O15 0.750000 0.250000 0.581244
#
# Coordination Sequence:
#
# PCOD9322490 Si02
#       6
#     8   8   8   8   8   8
#     4  10  18  31  51  86 126 163 197 258 310 379
#     4  11  25  44  62  84 120 168 222 278 325 377
#     4   9  15  29  48  80 128 167 199 244 310 372
#     4   9  18  26  49  87 127 167 199 245 312 388
#     4  12  24  39  63  92 125 164 216 270 322 385
#     4  10  18  33  54  81 124 164 209 252 312 371
#
# _framework density 22.485876999999999
#
# number of rings (size 3 to 8) (size 9 to 14) (size 15 to 20)
#    0.000    1.833    3.333    2.000    2.333    5.000 
#    0.000    0.000    0.000    0.000    0.000    9.333 
#    0.000    5.333    0.000    0.000    0.000    0.000 
#
# Total GULP energy -133778.179737 kJ/mol
# GULP energy per Si atom -5574.090822 kJ/mol
# Density = 2.243470 g / cm^3
# Si number density = 22.485877 Si / 1000 Ang^3
#
#
#
# Elastic Constant Matrix: (Units=GPa)
#
#
# Indices 1 2 3 4 5 6 
#
# 1 25.0411 25.9896 6.5406 0.0000 0.0000 0.0000
# 2 25.9896 235.4916 49.4759 0.0000 0.0000 0.0000
# 3 6.5406 49.4759 78.0704 0.0000 0.0000 0.0000
# 4 0.0000 0.0000 0.0000 65.4301 0.0000 0.0000
# 5 0.0000 0.0000 0.0000 0.0000 335.1955 0.0000
# 6 0.0000 0.0000 0.0000 0.0000 0.0000 32.3808
#
#
#
# Elastic Compliance Matrix: (Units=1/GPa)
#
#
# Indices 1 2 3 4 5 6 
#
# 1 0.045135 -0.004830 -0.000721 0.000000 0.000000 0.000000
# 2 -0.004830 0.005416 -0.003027 0.000000 0.000000 0.000000
# 3 -0.000721 -0.003027 0.014788 0.000000 0.000000 0.000000
# 4 0.000000 0.000000 0.000000 0.015283 0.000000 0.000000
# 5 0.000000 0.000000 0.000000 0.000000 0.002983 0.000000
# 6 0.000000 0.000000 0.000000 0.000000 0.000000 0.030882
#
#
# Mechanical properties :
#
#
# Convention : Reuss Voigt Hill
#
# Bulk Modulus (GPa) = 20.75409 55.84616 38.30013
# Shear Modulus (GPa) = 33.85130 103.70773 68.77951
#
# Velocity S-wave (km/s) = 3.88422 6.79863 5.53663
# Velocity P-wave (km/s) = 5.41905 9.30154 7.61198
#
# Compressibility (1/GPa) = 0.04818327
#
# Stress axis : x y z
#
# Youngs Moduli (GPa) = 22.15552 184.65454 67.62305
#
# Poissons Ratio (x) = 0.89187 0.04872
# Poissons Ratio (y) = 0.10701 0.20472
# Poissons Ratio (z) = 0.01596 0.55901
#
# Static dielectric constant tensor:
#      x y z
#    x -5.024990 0.000000 0.000000 
#    y 0.000000 -2.558370 0.000000 
#    z 0.000000 0.000000 1.617890 
# 
# From -- ./inp_files/26782.got.cif
#   From: 2010.05.17/outbox.cif.g08.bks.cpg/sg21_14_cif.got.tgz:26782.got - 2010.06.03 23:14:55.
