data_PCOD9322769
_publ_section_title
;
Structure prediction by ZEFSAII (Michael W. Deem and Ramdas Pophale) SiO2 
 PCOD9322769
Probable space group: C 2 2 2
;
_chemical_formula_sum "Si O2"
_cell_formula_units_Z 42
_cell_length_a 11.444885
_cell_length_b 16.131671
_cell_length_c 12.489063
_cell_angle_alpha 90.000000
_cell_angle_beta 90.000000
_cell_angle_gamma 90.000000
_cell_volume 2305.794748
_symmetry_space_group_name_H-M "C 2 2 2"
_symmetry_group_IT_number 21
_symmetry_cell_setting 'orthorhombic'
loop_
_space_group_symop_operation_xyz
x,y,z
-x,-y,z
x,-y,-z
-x,y,-z
1/2+x,1/2+y,z
1/2-x,1/2-y,z
1/2+x,1/2-y,-z
1/2-x,1/2+y,-z
loop_
_atom_site_type_symbol
_atom_site_label
_atom_site_fract_x
_atom_site_fract_y
_atom_site_fract_z
Si Si1 0.759366 0.408416 0.478631
Si Si2 0.000000 0.000000 0.000000
Si Si3 0.306377 0.837209 0.706672
Si Si4 0.578386 0.390936 0.311068
Si Si5 0.449323 0.208407 0.619938
Si Si6 0.646113 0.456928 0.805305
O O1 0.809071 0.500000 0.500000
O O2 0.754663 0.359914 0.589704
O O3 0.634009 0.418642 0.423468
O O4 0.843900 0.354886 0.402027
O O5 0.084310 0.949583 0.920027
O O6 0.250000 0.750000 0.740056
O O7 0.443819 0.830466 0.685921
O O8 0.264724 0.908405 0.786994
O O9 0.586902 0.292150 0.319405
O O10 0.651727 0.445956 0.225663
O O11 0.447053 0.416835 0.279215
O O12 0.500000 0.229232 0.500000
#
# Coordination Sequence:
#
# PCOD9322769 Si02
#       6
#     8   2   8   8   8   8
#     4  11  21  33  49  78 124 165 198 213 264 335
#     4   8  20  40  60  86 106 128 190 268 320 340
#     4  11  20  35  52  82 114 154 189 226 281 344
#     4  10  19  33  51  82 108 146 189 237 275 332
#     4  10  21  32  51  75 124 158 189 226 264 328
#     4  10  21  36  61  84 105 141 189 251 309 347
#
# _framework density 18.214977999999999
#
# number of rings (size 3 to 8) (size 9 to 14) (size 15 to 20)
#    0.000    1.905    3.810    2.857    0.000    3.429 
#    0.000    0.000    0.000    9.143    0.000    5.333 
#    0.000    0.000    0.000    0.000    0.000    0.000 
#
# Total GULP energy -117004.209967 kJ/mol
# GULP energy per Si atom -5571.629046 kJ/mol
# Density = 1.817352 g / cm^3
# Si number density = 18.214978 Si / 1000 Ang^3
#
#
#
# Elastic Constant Matrix: (Units=GPa)
#
#
# Indices 1 2 3 4 5 6 
#
# 1 75.2154 43.9998 42.9286 0.0000 0.0000 0.0000
# 2 43.9998 119.5127 36.7608 0.0000 0.0000 0.0000
# 3 42.9286 36.7608 60.3535 0.0000 0.0000 0.0000
# 4 0.0000 0.0000 0.0000 8.5725 0.0000 0.0000
# 5 0.0000 0.0000 0.0000 0.0000 27.7285 0.0000
# 6 0.0000 0.0000 0.0000 0.0000 0.0000 29.0962
#
#
#
# Elastic Compliance Matrix: (Units=1/GPa)
#
#
# Indices 1 2 3 4 5 6 
#
# 1 0.024155 -0.004440 -0.014477 0.000000 0.000000 0.000000
# 2 -0.004440 0.011112 -0.003610 0.000000 0.000000 0.000000
# 3 -0.014477 -0.003610 0.029065 0.000000 0.000000 0.000000
# 4 0.000000 0.000000 0.000000 0.116652 0.000000 0.000000
# 5 0.000000 0.000000 0.000000 0.000000 0.036064 0.000000
# 6 0.000000 0.000000 0.000000 0.000000 0.000000 0.034369
#
#
# Mechanical properties :
#
#
# Convention : Reuss Voigt Hill
#
# Bulk Modulus (GPa) = 51.87153 55.82887 53.85020
# Shear Modulus (GPa) = 16.50725 21.83895 19.17310
#
# Velocity S-wave (km/s) = 3.01366 3.46635 3.24790
# Velocity P-wave (km/s) = 6.37564 6.83647 6.61007
#
# Compressibility (1/GPa) = 0.01927840
#
# Stress axis : x y z
#
# Youngs Moduli (GPa) = 41.39938 89.98903 34.40542
#
# Poissons Ratio (x) = 0.39955 0.49808
# Poissons Ratio (y) = 0.18381 0.12422
# Poissons Ratio (z) = 0.59933 0.32489
#
# Static dielectric constant tensor:
#      x y z
#    x 1.660110 0.000000 0.000000 
#    y 0.000000 1.685170 0.000000 
#    z 0.000000 0.000000 1.609610 
# 
# From -- ./inp_files/23980.got.cif
#   From: 2010.05.17/outbox.cif.g08.bks.cpg/sg21_12_cif.got.tgz:23980.got - 2010.06.03 23:14:55.
