data_PCOD9322617
_publ_section_title
;
Structure prediction by ZEFSAII (Michael W. Deem and Ramdas Pophale) SiO2 
 PCOD9322617
Probable space group: C 2 2 2
;
_chemical_formula_sum "Si O2"
_cell_formula_units_Z 56
_cell_length_a 20.521504
_cell_length_b 15.954221
_cell_length_c 7.821802
_cell_angle_alpha 90.000000
_cell_angle_beta 90.000000
_cell_angle_gamma 90.000000
_cell_volume 2560.894034
_symmetry_space_group_name_H-M "C 2 2 2"
_symmetry_group_IT_number 21
_symmetry_cell_setting 'orthorhombic'
loop_
_space_group_symop_operation_xyz
x,y,z
-x,-y,z
x,-y,-z
-x,y,-z
1/2+x,1/2+y,z
1/2-x,1/2-y,z
1/2+x,1/2-y,-z
1/2-x,1/2+y,-z
loop_
_atom_site_type_symbol
_atom_site_label
_atom_site_fract_x
_atom_site_fract_y
_atom_site_fract_z
Si Si1 0.295307 0.669227 0.538105
Si Si2 0.697667 0.415113 0.904351
Si Si3 0.233433 0.654370 0.209124
Si Si4 0.072961 0.175494 0.051923
Si Si5 0.965207 0.410392 0.747460
Si Si6 0.904909 0.648268 0.906756
Si Si7 0.429369 0.245560 0.426844
O O1 0.250000 0.750000 0.587585
O O2 0.296616 0.608914 0.705409
O O3 0.269550 0.616145 0.374618
O O4 0.365540 0.712017 0.491440
O O5 0.622530 0.400132 0.952795
O O6 0.718541 0.500000 0.000000
O O7 0.740101 0.352360 0.017549
O O8 0.250000 0.750000 0.252961
O O9 0.159151 0.623993 0.196139
O O10 0.072443 0.214397 0.239699
O O11 0.101547 0.253409 0.945461
O O12 0.000000 0.155179 0.000000
O O13 0.929100 0.356121 0.601628
O O14 0.000000 0.500000 0.712865
O O15 0.028885 0.357646 0.800575
O O16 0.919617 0.404688 0.918472
O O17 0.500000 0.267557 0.500000
#
# Coordination Sequence:
#
# PCOD9322617 Si02
#       7
#     8   8   8   8   8   8   8
#     4  10  25  43  68 102 131 176 239 287 326 418
#     4  11  25  42  64  94 134 173 215 279 348 402
#     4  11  23  39  72  93 130 178 227 284 336 404
#     4  10  19  37  66  93 117 158 223 275 323 405
#     4  10  21  36  61  96 138 170 219 283 345 427
#     4  10  18  36  63  95 117 174 225 268 331 397
#     4  10  22  37  64  95 129 170 225 284 342 397
#
# _framework density 21.867363000000001
#
# number of rings (size 3 to 8) (size 9 to 14) (size 15 to 20)
#    0.000    1.714    4.286    1.286   10.000    2.286 
#    0.000    0.000    0.000    0.000    0.000    0.000 
#    0.000    0.000    0.000    0.000    0.000    0.000 
#
# Total GULP energy -155933.017894 kJ/mol
# GULP energy per Si atom -5569.036353 kJ/mol
# Density = 2.181759 g / cm^3
# Si number density = 21.867363 Si / 1000 Ang^3
#
#
#
# Elastic Constant Matrix: (Units=GPa)
#
#
# Indices 1 2 3 4 5 6 
#
# 1 118.0530 10.2963 36.4001 0.0000 0.0000 0.0000
# 2 10.2963 50.3207 17.1088 0.0000 0.0000 0.0000
# 3 36.4001 17.1088 99.3596 0.0000 0.0000 0.0000
# 4 0.0000 0.0000 0.0000 -1.4840 0.0000 0.0000
# 5 0.0000 0.0000 0.0000 0.0000 34.1716 0.0000
# 6 0.0000 0.0000 0.0000 0.0000 0.0000 12.3109
#
#
#
# Elastic Compliance Matrix: (Units=1/GPa)
#
#
# Indices 1 2 3 4 5 6 
#
# 1 0.009581 -0.000815 -0.003370 0.000000 0.000000 0.000000
# 2 -0.000815 0.021178 -0.003348 0.000000 0.000000 0.000000
# 3 -0.003370 -0.003348 0.011875 0.000000 0.000000 0.000000
# 4 0.000000 0.000000 0.000000 -0.673851 0.000000 0.000000
# 5 0.000000 0.000000 0.000000 0.000000 0.029264 0.000000
# 6 0.000000 0.000000 0.000000 0.000000 0.000000 0.081229
#
#
# Mechanical properties :
#
#
# Convention : Reuss Voigt Hill
#
# Bulk Modulus (GPa) = 36.27275 43.92709 40.09992
# Shear Modulus (GPa) = -10.07110 22.59489 6.26190
#
# Velocity S-wave (km/s) = -2.14838 3.21794 1.69405
# Velocity P-wave (km/s) = 3.23567 5.82567 4.71211
#
# Compressibility (1/GPa) = 0.02756891
#
# Stress axis : x y z
#
# Youngs Moduli (GPa) = 104.37530 47.21978 84.20758
#
# Poissons Ratio (x) = 0.03847 0.28375
# Poissons Ratio (y) = 0.08504 0.28194
# Poissons Ratio (z) = 0.35171 0.15810
#
# Static dielectric constant tensor:
#      x y z
#    x 1.870320 0.000000 0.000000 
#    y 0.000000 1.932860 0.000000 
#    z 0.000000 0.000000 1.900730 
# 
# From -- ./inp_files/17708.got.cif
#   From: 2010.05.17/outbox.cif.g08.bks.cpg/sg21_9_cif.got.tgz:17708.got - 2010.06.03 23:14:55.
