data_PCOD9322014
_publ_section_title
;
Structure prediction by ZEFSAII (Michael W. Deem and Ramdas Pophale) SiO2 
 PCOD9322014
Probable space group: C 2 2 21
;
_chemical_formula_sum "Si O2"
_cell_formula_units_Z 40
_cell_length_a 16.856737
_cell_length_b 12.798125
_cell_length_c 7.910983
_cell_angle_alpha 90.000000
_cell_angle_beta 90.000000
_cell_angle_gamma 90.000000
_cell_volume 1706.672968
_symmetry_space_group_name_H-M "C 2 2 21"
_symmetry_group_IT_number 20
_symmetry_cell_setting 'orthorhombic'
loop_
_space_group_symop_operation_xyz
x,y,z
-x,-y,1/2+z
x,-y,-z
-x,y,1/2-z
1/2+x,1/2+y,z
1/2-x,1/2-y,1/2+z
1/2+x,1/2-y,-z
1/2-x,1/2+y,1/2-z
loop_
_atom_site_type_symbol
_atom_site_label
_atom_site_fract_x
_atom_site_fract_y
_atom_site_fract_z
Si Si1 0.835431 0.300383 0.849028
Si Si2 0.673960 0.607659 0.115367
Si Si3 0.411209 0.621169 0.038525
Si Si4 0.564173 0.760885 0.959256
Si Si5 0.115112 0.500000 0.500000
Si Si6 0.500000 0.913937 0.250000
O O1 0.751620 0.347043 0.787253
O O2 0.909531 0.307669 0.720349
O O3 0.844194 0.187043 0.935800
O O4 0.844381 0.387748 0.995739
O O5 0.606688 0.615881 0.261189
O O6 0.679609 0.500000 0.000000
O O7 0.645594 0.697552 0.990312
O O8 0.413619 0.500000 0.000000
O O9 0.491966 0.678007 0.976665
O O10 0.540794 0.844031 0.103537
O O11 0.063189 0.487194 0.335903
#
# Coordination Sequence:
#
# PCOD9322014 Si02
#       6
#     8   8   8   8   4   4
#     4  12  26  47  74 108 156 201 253 318 390 471
#     4  12  25  47  73 112 157 202 252 318 391 474
#     4  12  26  48  74 111 147 199 263 317 392 456
#     4  12  24  46  76 108 148 201 258 326 381 465
#     4  12  24  46  70 106 148 194 254 308 398 462
#     4  12  24  44  74 106 146 192 262 328 382 470
#
# _framework density 23.437411999999998
#
# number of rings (size 3 to 8) (size 9 to 14) (size 15 to 20)
#    0.000    0.000    5.000    4.800    0.000    1.600 
#    7.200    0.000    0.000    0.000    0.000    0.000 
#    0.000    0.000    0.000    0.000    0.000    0.000 
#
# Total GULP energy -111340.873498 kJ/mol
# GULP energy per Si atom -5567.043675 kJ/mol
# Density = 2.338407 g / cm^3
# Si number density = 23.437412 Si / 1000 Ang^3
#
#
#
# Elastic Constant Matrix: (Units=GPa)
#
#
# Indices 1 2 3 4 5 6 
#
# 1 78.0024 32.3319 14.1910 0.0000 0.0000 0.0000
# 2 32.3319 163.2580 53.0338 0.0000 0.0000 0.0000
# 3 14.1910 53.0338 84.0459 0.0000 0.0000 0.0000
# 4 0.0000 0.0000 0.0000 37.7651 0.0000 0.0000
# 5 0.0000 0.0000 0.0000 0.0000 43.6846 0.0000
# 6 0.0000 0.0000 0.0000 0.0000 0.0000 45.0364
#
#
#
# Elastic Compliance Matrix: (Units=1/GPa)
#
#
# Indices 1 2 3 4 5 6 
#
# 1 0.014006 -0.002523 -0.000773 0.000000 0.000000 0.000000
# 2 -0.002523 0.008159 -0.004722 0.000000 0.000000 0.000000
# 3 -0.000773 -0.004722 0.015009 0.000000 0.000000 0.000000
# 4 0.000000 0.000000 0.000000 0.026479 0.000000 0.000000
# 5 0.000000 0.000000 0.000000 0.000000 0.022891 0.000000
# 6 0.000000 0.000000 0.000000 0.000000 0.000000 0.022204
#
#
# Mechanical properties :
#
#
# Convention : Reuss Voigt Hill
#
# Bulk Modulus (GPa) = 47.30909 58.26886 52.78897
# Shear Modulus (GPa) = 37.92719 40.34718 39.13719
#
# Velocity S-wave (km/s) = 4.02709 4.15358 4.09082
# Velocity P-wave (km/s) = 6.46934 6.92231 6.69966
#
# Compressibility (1/GPa) = 0.02113759
#
# Stress axis : x y z
#
# Youngs Moduli (GPa) = 71.39573 122.56491 66.62802
#
# Poissons Ratio (x) = 0.30920 0.05151
# Poissons Ratio (y) = 0.18011 0.31465
# Poissons Ratio (z) = 0.05520 0.57880
#
# Static dielectric constant tensor:
#      x y z
#    x 2.124580 0.000000 0.000000 
#    y 0.000000 1.882350 0.000000 
#    z 0.000000 0.000000 2.219810 
# 
# From -- ./inp_files/9174.got.cif
#   From: 2010.05.17/outbox.cif.g08.bks.cpg/sg20_5_cif.got.tgz:9174.got - 2010.06.03 22:52:26.
