data_PCOD9322969
_publ_section_title
;
Structure prediction by ZEFSAII (Michael W. Deem and Ramdas Pophale) SiO2 
 PCOD9322969
Probable space group: C 2 2 2
;
_chemical_formula_sum "Si O2"
_cell_formula_units_Z 32
_cell_length_a 14.709809
_cell_length_b 5.327115
_cell_length_c 18.076144
_cell_angle_alpha 90.000000
_cell_angle_beta 90.000000
_cell_angle_gamma 90.000000
_cell_volume 1416.461903
_symmetry_space_group_name_H-M "C 2 2 2"
_symmetry_group_IT_number 21
_symmetry_cell_setting 'orthorhombic'
loop_
_space_group_symop_operation_xyz
x,y,z
-x,-y,z
x,-y,-z
-x,y,-z
1/2+x,1/2+y,z
1/2-x,1/2-y,z
1/2+x,1/2-y,-z
1/2-x,1/2+y,-z
loop_
_atom_site_type_symbol
_atom_site_label
_atom_site_fract_x
_atom_site_fract_y
_atom_site_fract_z
Si Si1 0.856847 0.529941 0.350772
Si Si2 0.640566 0.253157 0.957732
Si Si3 0.439987 0.753644 0.796326
Si Si4 0.652456 0.512459 0.587179
O O1 0.875408 0.641941 0.269607
O O2 0.750150 0.506190 0.371371
O O3 0.892072 0.257401 0.375878
O O4 0.898263 0.752249 0.399538
O O5 0.750000 0.250000 0.960547
O O6 0.612423 0.283669 0.872792
O O7 0.607745 0.500000 0.000000
O O8 0.609516 0.000000 0.000000
O O9 0.500000 0.500000 0.779771
O O10 0.500000 0.000000 0.809435
O O11 0.671560 0.500000 0.500000
#
# Coordination Sequence:
#
# PCOD9322969 Si02
#       4
#     8   8   8   8
#     4  10  20  35  58  91 127 159 207 270 318 376
#     4  10  23  44  68  96 125 165 222 280 321 375
#     4  12  26  42  62  94 136 179 212 258 329 409
#     4  10  19  36  65  97 120 161 219 279 322 380
#
# _framework density 22.591501000000001
#
# number of rings (size 3 to 8) (size 9 to 14) (size 15 to 20)
#    0.000    1.500    0.000    6.750    3.500    3.000 
#    9.000    0.000    0.000   18.000    0.000    0.000 
#    0.000    0.000    0.000    0.000    0.000    0.000 
#
# Total GULP energy -89176.809143 kJ/mol
# GULP energy per Si atom -5573.550571 kJ/mol
# Density = 2.254008 g / cm^3
# Si number density = 22.591501 Si / 1000 Ang^3
#
#
#
# Elastic Constant Matrix: (Units=GPa)
#
#
# Indices 1 2 3 4 5 6 
#
# 1 84.6324 36.3931 43.6039 0.0000 0.0000 0.0000
# 2 36.3931 258.3955 82.8670 0.0000 0.0000 0.0000
# 3 43.6039 82.8670 185.6330 0.0000 0.0000 0.0000
# 4 0.0000 0.0000 0.0000 37.9594 0.0000 0.0000
# 5 0.0000 0.0000 0.0000 0.0000 116.2070 0.0000
# 6 0.0000 0.0000 0.0000 0.0000 0.0000 -2.0790
#
#
#
# Elastic Compliance Matrix: (Units=1/GPa)
#
#
# Indices 1 2 3 4 5 6 
#
# 1 0.013681 -0.001046 -0.002747 0.000000 0.000000 0.000000
# 2 -0.001046 0.004597 -0.001806 0.000000 0.000000 0.000000
# 3 -0.002747 -0.001806 0.006838 0.000000 0.000000 0.000000
# 4 0.000000 0.000000 0.000000 0.026344 0.000000 0.000000
# 5 0.000000 0.000000 0.000000 0.000000 0.008605 0.000000
# 6 0.000000 0.000000 0.000000 0.000000 0.000000 -0.480997
#
#
# Mechanical properties :
#
#
# Convention : Reuss Voigt Hill
#
# Bulk Modulus (GPa) = 71.84882 94.93211 83.39047
# Shear Modulus (GPa) = -12.34278 54.80393 21.23057
#
# Velocity S-wave (km/s) = -2.33994 4.93065 3.06887
# Velocity P-wave (km/s) = 4.95702 8.63293 7.03916
#
# Compressibility (1/GPa) = 0.01391811
#
# Stress axis : x y z
#
# Youngs Moduli (GPa) = 73.09582 217.55126 146.23237
#
# Poissons Ratio (x) = 0.22756 0.40164
# Poissons Ratio (y) = 0.07646 0.26413
# Poissons Ratio (z) = 0.20076 0.39295
#
# Static dielectric constant tensor:
#      x y z
#    x 1.803240 0.000000 0.000000 
#    y 0.000000 1.921890 0.000000 
#    z 0.000000 0.000000 1.890510 
# 
# From -- ./inp_files/32533.got.cif
#   From: 2010.05.17/outbox.cif.g08.bks.cpg/sg21_17_cif.got.tgz:32533.got - 2010.06.03 23:14:55.
