data_PCOD9322722
_publ_section_title
;
Structure prediction by ZEFSAII (Michael W. Deem and Ramdas Pophale) SiO2 
 PCOD9322722
Probable space group: C 2 2 2
;
_chemical_formula_sum "Si O2"
_cell_formula_units_Z 48
_cell_length_a 16.671507
_cell_length_b 14.318417
_cell_length_c 9.768554
_cell_angle_alpha 90.000000
_cell_angle_beta 90.000000
_cell_angle_gamma 90.000000
_cell_volume 2331.847513
_symmetry_space_group_name_H-M "C 2 2 2"
_symmetry_group_IT_number 21
_symmetry_cell_setting 'orthorhombic'
loop_
_space_group_symop_operation_xyz
x,y,z
-x,-y,z
x,-y,-z
-x,y,-z
1/2+x,1/2+y,z
1/2-x,1/2-y,z
1/2+x,1/2-y,-z
1/2-x,1/2+y,-z
loop_
_atom_site_type_symbol
_atom_site_label
_atom_site_fract_x
_atom_site_fract_y
_atom_site_fract_z
Si Si1 0.677853 0.993908 0.836364
Si Si2 0.631152 0.800318 0.756108
Si Si3 0.591453 0.300175 0.983355
Si Si4 0.797133 0.149870 0.750634
Si Si5 0.907914 0.772717 0.467497
Si Si6 0.052697 0.362381 0.224623
O O1 0.736291 0.064889 0.758289
O O2 0.590124 0.037131 0.800847
O O3 0.687147 0.887978 0.787065
O O4 0.688565 0.000000 0.000000
O O5 0.635491 0.757011 0.606382
O O6 0.541603 0.844086 0.770162
O O7 0.632855 0.722048 0.873197
O O8 0.646274 0.359615 0.883547
O O9 0.583348 0.201737 0.901346
O O10 0.500000 0.334966 0.000000
O O11 0.750000 0.250000 0.758185
O O12 0.854868 0.155335 0.619226
O O13 0.916206 0.683524 0.365991
O O14 0.000000 0.802592 0.500000
#
# Coordination Sequence:
#
# PCOD9322722 Si02
#       6
#     8   8   8   8   8   8
#     4  12  21  33  56  89 124 159 191 244 310 369
#     4  10  19  31  56  88 118 154 203 232 292 374
#     4   9  17  33  58  85 115 157 201 245 294 361
#     4  11  20  38  58  82 125 162 195 249 315 349
#     4   9  19  36  57  85 120 163 199 237 297 370
#     4   9  17  32  53  83 125 158 180 227 301 370
#
# _framework density 20.584536
#
# number of rings (size 3 to 8) (size 9 to 14) (size 15 to 20)
#    0.000    2.000    5.000    1.500    0.000    1.333 
#    0.000    5.000    0.000    0.500    0.000    2.333 
#    0.000    0.000    0.000    0.000    0.000    0.000 
#
# Total GULP energy -133958.064448 kJ/mol
# GULP energy per Si atom -5581.586019 kJ/mol
# Density = 2.053768 g / cm^3
# Si number density = 20.584536 Si / 1000 Ang^3
#
#
#
# Elastic Constant Matrix: (Units=GPa)
#
#
# Indices 1 2 3 4 5 6 
#
# 1 89.2698 30.0475 35.6372 0.0000 0.0000 0.0000
# 2 30.0475 24.9252 27.1794 0.0000 0.0000 0.0000
# 3 35.6372 27.1794 159.2197 0.0000 0.0000 0.0000
# 4 0.0000 0.0000 0.0000 8.3384 0.0000 0.0000
# 5 0.0000 0.0000 0.0000 0.0000 25.9384 0.0000
# 6 0.0000 0.0000 0.0000 0.0000 0.0000 26.2946
#
#
#
# Elastic Compliance Matrix: (Units=1/GPa)
#
#
# Indices 1 2 3 4 5 6 
#
# 1 0.018874 -0.022296 -0.000418 0.000000 0.000000 0.000000
# 2 -0.022296 0.075636 -0.007921 0.000000 0.000000 0.000000
# 3 -0.000418 -0.007921 0.007726 0.000000 0.000000 0.000000
# 4 0.000000 0.000000 0.000000 0.119927 0.000000 0.000000
# 5 0.000000 0.000000 0.000000 0.000000 0.038553 0.000000
# 6 0.000000 0.000000 0.000000 0.000000 0.000000 0.038031
#
#
# Mechanical properties :
#
#
# Convention : Reuss Voigt Hill
#
# Bulk Modulus (GPa) = 24.41117 51.01587 37.71352
# Shear Modulus (GPa) = 13.38071 24.15099 18.76585
#
# Velocity S-wave (km/s) = 2.55235 3.42900 3.02263
# Velocity P-wave (km/s) = 4.53549 6.36512 5.52655
#
# Compressibility (1/GPa) = 0.04096485
#
# Stress axis : x y z
#
# Youngs Moduli (GPa) = 52.98357 13.22126 129.42663
#
# Poissons Ratio (x) = 0.29479 0.05414
# Poissons Ratio (y) = 1.18134 1.02517
# Poissons Ratio (z) = 0.02216 0.10472
#
# Static dielectric constant tensor:
#      x y z
#    x 1.817620 0.000000 0.000000 
#    y 0.000000 1.690680 0.000000 
#    z 0.000000 0.000000 1.732400 
# 
# From -- ./inp_files/14970.got.cif
#   From: 2010.05.17/outbox.cif.g08.bks.cpg/sg21_8_cif.got.tgz:14970.got - 2010.06.03 23:14:55.
