data_PCOD9322829
_publ_section_title
;
Structure prediction by ZEFSAII (Michael W. Deem and Ramdas Pophale) SiO2 
 PCOD9322829
Probable space group: C 2 2 2
;
_chemical_formula_sum "Si O2"
_cell_formula_units_Z 48
_cell_length_a 8.963125
_cell_length_b 17.985809
_cell_length_c 16.299147
_cell_angle_alpha 90.000000
_cell_angle_beta 90.000000
_cell_angle_gamma 90.000000
_cell_volume 2627.570074
_symmetry_space_group_name_H-M "C 2 2 2"
_symmetry_group_IT_number 21
_symmetry_cell_setting 'orthorhombic'
loop_
_space_group_symop_operation_xyz
x,y,z
-x,-y,z
x,-y,-z
-x,y,-z
1/2+x,1/2+y,z
1/2-x,1/2-y,z
1/2+x,1/2-y,-z
1/2-x,1/2+y,-z
loop_
_atom_site_type_symbol
_atom_site_label
_atom_site_fract_x
_atom_site_fract_y
_atom_site_fract_z
Si Si1 0.172193 0.478880 0.737861
Si Si2 0.750000 0.250000 0.894566
Si Si3 0.500000 0.326491 0.000000
Si Si4 0.193073 0.139515 0.242807
Si Si5 0.000000 0.811236 0.500000
Si Si6 0.646776 0.547102 0.581173
Si Si7 0.417437 0.581015 0.155430
Si Si8 0.250000 0.750000 0.611471
O O1 0.252341 0.557157 0.748080
O O2 0.225744 0.449874 0.649117
O O3 0.252990 0.428517 0.806623
O O4 0.000000 0.500000 0.744627
O O5 0.615069 0.275077 0.951346
O O6 0.724780 0.181778 0.831773
O O7 0.421506 0.379127 0.932446
O O8 0.233028 0.181173 0.326371
O O9 0.019555 0.131551 0.216625
O O10 0.905205 0.870540 0.554625
O O11 0.892996 0.759514 0.446244
O O12 0.500000 0.500000 0.612073
O O13 0.692097 0.500000 0.500000
O O14 0.500000 0.500000 0.148676
#
# Coordination Sequence:
#
# PCOD9322829 Si02
#       8
#     8   4   4   8   4   8   8   4
#     4  11  21  32  54  83 108 133 170 229 277 306
#     4   9  20  34  56  79 104 138 174 209 252 316
#     4  10  19  34  56  82 107 140 174 212 260 314
#     4   9  19  37  54  72 101 144 179 204 256 324
#     4  10  21  32  50  76 101 140 182 220 268 308
#     4   9  18  36  56  73 100 142 185 221 262 318
#     4   9  18  35  57  77 102 139 180 213 257 321
#     4  11  20  34  52  71 104 140 178 221 256 316
#
# _framework density 18.267828000000002
#
# number of rings (size 3 to 8) (size 9 to 14) (size 15 to 20)
#    0.000    2.500    0.000    4.750    0.000    3.000 
#    0.000    0.000    0.000   14.000    0.000    0.000 
#    0.000    0.000    0.000    0.000    0.000    0.000 
#
# Total GULP energy -133685.676230 kJ/mol
# GULP energy per Si atom -5570.236510 kJ/mol
# Density = 1.822625 g / cm^3
# Si number density = 18.267828 Si / 1000 Ang^3
#
#
#
# Elastic Constant Matrix: (Units=GPa)
#
#
# Indices 1 2 3 4 5 6 
#
# 1 107.8731 21.6972 81.2038 0.0000 0.0000 0.0000
# 2 21.6972 53.8411 39.2991 0.0000 0.0000 0.0000
# 3 81.2038 39.2991 131.1810 0.0000 0.0000 0.0000
# 4 0.0000 0.0000 0.0000 -1.5577 0.0000 0.0000
# 5 0.0000 0.0000 0.0000 0.0000 22.9369 0.0000
# 6 0.0000 0.0000 0.0000 0.0000 0.0000 20.2300
#
#
#
# Elastic Compliance Matrix: (Units=1/GPa)
#
#
# Indices 1 2 3 4 5 6 
#
# 1 0.017409 0.001088 -0.011103 0.000000 0.000000 0.000000
# 2 0.001088 0.023839 -0.007815 0.000000 0.000000 0.000000
# 3 -0.011103 -0.007815 0.016837 0.000000 0.000000 0.000000
# 4 0.000000 0.000000 0.000000 -0.641970 0.000000 0.000000
# 5 0.000000 0.000000 0.000000 0.000000 0.043598 0.000000
# 6 0.000000 0.000000 0.000000 0.000000 0.000000 0.049432
#
#
# Mechanical properties :
#
#
# Convention : Reuss Voigt Hill
#
# Bulk Modulus (GPa) = 44.59132 64.14395 54.36763
# Shear Modulus (GPa) = -11.16766 18.36818 3.60026
#
# Velocity S-wave (km/s) = -2.47519 3.17439 1.40538
# Velocity P-wave (km/s) = 4.03658 6.97316 5.69732
#
# Compressibility (1/GPa) = 0.02242589
#
# Stress axis : x y z
#
# Youngs Moduli (GPa) = 57.44182 41.94782 59.39270
#
# Poissons Ratio (x) = -0.04565 0.65941
# Poissons Ratio (y) = -0.06251 0.46418
# Poissons Ratio (z) = 0.63775 0.32784
#
# Static dielectric constant tensor:
#      x y z
#    x 1.655820 0.000000 0.000000 
#    y 0.000000 1.622490 0.000000 
#    z 0.000000 0.000000 1.663580 
# 
# From -- ./inp_files/30583.got.cif
#   From: 2010.05.17/outbox.cif.g08.bks.cpg/sg21_16_cif.got.tgz:30583.got - 2010.06.03 23:14:55.
