data_PCOD9322576
_publ_section_title
;
Structure prediction by ZEFSAII (Michael W. Deem and Ramdas Pophale) SiO2 
 PCOD9322576
Probable space group: C 2 2 2
;
_chemical_formula_sum "Si O2"
_cell_formula_units_Z 52
_cell_length_a 7.963383
_cell_length_b 14.551608
_cell_length_c 20.117584
_cell_angle_alpha 90.000000
_cell_angle_beta 90.000000
_cell_angle_gamma 90.000000
_cell_volume 2331.226193
_symmetry_space_group_name_H-M "C 2 2 2"
_symmetry_group_IT_number 21
_symmetry_cell_setting 'orthorhombic'
loop_
_space_group_symop_operation_xyz
x,y,z
-x,-y,z
x,-y,-z
-x,y,-z
1/2+x,1/2+y,z
1/2-x,1/2-y,z
1/2+x,1/2-y,-z
1/2-x,1/2+y,-z
loop_
_atom_site_type_symbol
_atom_site_label
_atom_site_fract_x
_atom_site_fract_y
_atom_site_fract_z
Si Si1 0.678820 0.376927 0.610516
Si Si2 0.702145 0.355720 0.072067
Si Si3 0.250000 0.750000 0.489178
Si Si4 0.681834 0.959436 0.672467
Si Si5 0.298174 0.644513 0.925481
Si Si6 0.203756 0.999238 0.180552
Si Si7 0.528840 0.218170 0.364653
O O1 0.690995 0.334687 0.536025
O O2 0.693990 0.485532 0.622464
O O3 0.523285 0.324710 0.646187
O O4 0.849669 0.332481 0.640616
O O5 0.750000 0.250000 0.079276
O O6 0.500061 0.363963 0.072163
O O7 0.760872 0.414972 0.134059
O O8 0.762598 0.386718 0.998730
O O9 0.395084 0.783168 0.439050
O O10 0.658802 0.848852 0.672523
O O11 0.500000 0.000000 0.653278
O O12 0.726249 0.992372 0.746071
O O13 0.250000 0.750000 0.918527
O O14 0.240324 0.587091 0.862305
O O15 0.000000 0.000000 0.185205
#
# Coordination Sequence:
#
# PCOD9322576 Si02
#       7
#     8   8   4   8   8   8   8
#     4   9  18  37  59  83 115 151 192 244 298 359
#     4   9  18  35  58  83 113 148 193 244 300 353
#     4  10  18  34  60  90 112 148 196 240 306 354
#     4  10  22  39  56  82 118 159 202 242 299 364
#     4   9  18  35  58  84 111 149 194 243 299 355
#     4  10  21  38  55  83 117 155 198 242 298 358
#     4   9  19  36  58  84 113 150 193 243 297 358
#
# _framework density 22.305859000000002
#
# number of rings (size 3 to 8) (size 9 to 14) (size 15 to 20)
#    0.000    2.769    0.000    2.308    0.000    4.923 
#   13.846    3.846    0.000    8.308    0.000    0.000 
#    0.000    0.000    0.000    0.000    0.000    0.000 
#
# Total GULP energy -144870.340822 kJ/mol
# GULP energy per Si atom -5571.936185 kJ/mol
# Density = 2.225509 g / cm^3
# Si number density = 22.305859 Si / 1000 Ang^3
#
#
#
# Elastic Constant Matrix: (Units=GPa)
#
#
# Indices 1 2 3 4 5 6 
#
# 1 69.9394 19.0118 6.7007 0.0000 0.0000 0.0000
# 2 19.0118 121.2501 44.2687 0.0000 0.0000 0.0000
# 3 6.7007 44.2687 95.3876 0.0000 0.0000 0.0000
# 4 0.0000 0.0000 0.0000 1.1444 0.0000 0.0000
# 5 0.0000 0.0000 0.0000 0.0000 25.2000 0.0000
# 6 0.0000 0.0000 0.0000 0.0000 0.0000 24.7909
#
#
#
# Elastic Compliance Matrix: (Units=1/GPa)
#
#
# Indices 1 2 3 4 5 6 
#
# 1 0.014935 -0.002358 0.000045 0.000000 0.000000 0.000000
# 2 -0.002358 0.010302 -0.004616 0.000000 0.000000 0.000000
# 3 0.000045 -0.004616 0.012622 0.000000 0.000000 0.000000
# 4 0.000000 0.000000 0.000000 0.873783 0.000000 0.000000
# 5 0.000000 0.000000 0.000000 0.000000 0.039683 0.000000
# 6 0.000000 0.000000 0.000000 0.000000 0.000000 0.040337
#
#
# Mechanical properties :
#
#
# Convention : Reuss Voigt Hill
#
# Bulk Modulus (GPa) = 41.66236 47.39329 44.52783
# Shear Modulus (GPa) = 4.93330 24.66678 14.80004
#
# Velocity S-wave (km/s) = 1.48878 3.32903 2.57865
# Velocity P-wave (km/s) = 4.65549 6.00581 5.37324
#
# Compressibility (1/GPa) = 0.02400248
#
# Stress axis : x y z
#
# Youngs Moduli (GPa) = 66.95769 97.06510 79.22406
#
# Poissons Ratio (x) = 0.22891 -0.00359
# Poissons Ratio (y) = 0.15791 0.36567
# Poissons Ratio (z) = -0.00304 0.44801
#
# Static dielectric constant tensor:
#      x y z
#    x 1.902120 0.000000 0.000000 
#    y 0.000000 1.897780 0.000000 
#    z 0.000000 0.000000 1.786050 
# 
# From -- ./inp_files/37387.got.cif
#   From: 2010.05.17/outbox.cif.g08.bks.cpg/sg21_19_cif.got.tgz:37387.got - 2010.06.03 23:14:55.
