data_PCOD9322709
_publ_section_title
;
Structure prediction by ZEFSAII (Michael W. Deem and Ramdas Pophale) SiO2 
 PCOD9322709
Probable space group: C 2 2 2
;
_chemical_formula_sum "Si O2"
_cell_formula_units_Z 56
_cell_length_a 18.352155
_cell_length_b 7.373408
_cell_length_c 19.390210
_cell_angle_alpha 90.000000
_cell_angle_beta 90.000000
_cell_angle_gamma 90.000000
_cell_volume 2623.843011
_symmetry_space_group_name_H-M "C 2 2 2"
_symmetry_group_IT_number 21
_symmetry_cell_setting 'orthorhombic'
loop_
_space_group_symop_operation_xyz
x,y,z
-x,-y,z
x,-y,-z
-x,y,-z
1/2+x,1/2+y,z
1/2-x,1/2-y,z
1/2+x,1/2-y,-z
1/2-x,1/2+y,-z
loop_
_atom_site_type_symbol
_atom_site_label
_atom_site_fract_x
_atom_site_fract_y
_atom_site_fract_z
Si Si1 0.664248 0.283716 1.000000
Si Si2 0.915783 0.221798 0.862013
Si Si3 0.837224 0.783211 0.425813
Si Si4 0.336507 0.716928 0.724144
Si Si5 0.662776 0.716789 0.574187
Si Si6 0.084217 0.778201 0.137987
Si Si7 0.663492 0.283071 0.275856
O O1 0.750000 0.250000 0.000000
O O2 0.627135 0.215703 0.929886
O O3 0.653024 0.500000 0.000000
O O4 0.627135 0.215703 0.070113
O O5 0.878296 0.284801 0.791298
O O6 1.000000 0.274191 0.865350
O O7 0.913301 1.000000 0.861545
O O8 0.750000 0.750000 0.425816
O O9 0.862267 0.713607 0.351075
O O10 0.865113 0.713449 0.500000
O O11 0.848677 0.000000 0.426085
O O12 0.250000 0.750000 0.731035
O O13 0.346390 0.500000 0.722518
O O14 0.750000 0.750000 0.574184
O O15 0.637733 0.786393 0.648925
O O16 0.121705 0.715198 0.208702
O O17 0.750000 0.250000 0.268965
#
# Coordination Sequence:
#
# PCOD9322709 Si02
#       7
#     8   8   8   8   8   8   8
#     4  10  19  31  49  69  87 108 136 172 208 242
#     4   9  17  29  45  64  85 111 142 170 199 242
#     4   8  13  21  34  54  79 104 131 165 204 242
#     4   9  16  26  42  62  83 108 138 173 208 242
#     4   8  13  21  34  54  79 104 131 165 204 242
#     4   9  17  29  45  64  85 111 142 170 199 242
#     4   9  16  26  42  62  83 108 138 173 208 242
#
# _framework density 21.342739000000002
#
# number of rings (size 3 to 8) (size 9 to 14) (size 15 to 20)
#    0.000    3.143    0.000    1.286    0.000    1.714 
#    0.000    0.000    0.000    5.143    0.000    6.000 
#    0.000    0.000    0.000   46.286    0.000   21.714 
#
# Total GULP energy -156107.968822 kJ/mol
# GULP energy per Si atom -5575.284601 kJ/mol
# Density = 2.129416 g / cm^3
# Si number density = 21.342739 Si / 1000 Ang^3
#
#
#
# Elastic Constant Matrix: (Units=GPa)
#
#
# Indices 1 2 3 4 5 6 
#
# 1 101.4374 -3.9011 115.4860 0.0000 0.0000 0.0000
# 2 -3.9011 80.9115 14.4246 0.0000 0.0000 0.0000
# 3 115.4860 14.4246 313.5555 0.0000 0.0000 0.0000
# 4 0.0000 0.0000 0.0000 -52.7258 0.0000 0.0000
# 5 0.0000 0.0000 0.0000 0.0000 -11.4573 0.0000
# 6 0.0000 0.0000 0.0000 0.0000 0.0000 11.8884
#
#
#
# Elastic Compliance Matrix: (Units=1/GPa)
#
#
# Indices 1 2 3 4 5 6 
#
# 1 0.017288 0.001985 -0.006459 0.000000 0.000000 0.000000
# 2 0.001985 0.012689 -0.001315 0.000000 0.000000 0.000000
# 3 -0.006459 -0.001315 0.005628 0.000000 0.000000 0.000000
# 4 0.000000 0.000000 0.000000 -0.018966 0.000000 0.000000
# 5 0.000000 0.000000 0.000000 0.000000 -0.087281 0.000000
# 6 0.000000 0.000000 0.000000 0.000000 0.000000 0.084116
#
#
# Mechanical properties :
#
#
# Convention : Reuss Voigt Hill
#
# Bulk Modulus (GPa) = 41.61719 83.10261 62.35990
# Shear Modulus (GPa) = 151.23654 14.20072 82.71863
#
# Velocity S-wave (km/s) = 8.42702 2.58227 6.23229
# Velocity P-wave (km/s) = 10.68775 6.92189 9.00390
#
# Compressibility (1/GPa) = 0.02402853
#
# Stress axis : x y z
#
# Youngs Moduli (GPa) = 57.84471 78.80661 177.66805
#
# Poissons Ratio (x) = -0.15643 1.14748
# Poissons Ratio (y) = -0.11482 0.23360
# Poissons Ratio (z) = 0.37359 0.10362
#
# Static dielectric constant tensor:
#      x y z
#    x 1.694290 0.000000 0.000000 
#    y 0.000000 1.799670 0.000000 
#    z 0.000000 0.000000 1.824600 
# 
# From -- ./inp_files/37028.got.cif
#   From: 2010.05.17/outbox.cif.g08.bks.cpg/sg21_19_cif.got.tgz:37028.got - 2010.06.03 23:14:55.
