data_PCOD9322961
_publ_section_title
;
Structure prediction by ZEFSAII (Michael W. Deem and Ramdas Pophale) SiO2 
 PCOD9322961
Probable space group: C 2 2 2
;
_chemical_formula_sum "Si O2"
_cell_formula_units_Z 48
_cell_length_a 15.973095
_cell_length_b 14.519994
_cell_length_c 10.083436
_cell_angle_alpha 90.000000
_cell_angle_beta 90.000000
_cell_angle_gamma 90.000000
_cell_volume 2338.643684
_symmetry_space_group_name_H-M "C 2 2 2"
_symmetry_group_IT_number 21
_symmetry_cell_setting 'orthorhombic'
loop_
_space_group_symop_operation_xyz
x,y,z
-x,-y,z
x,-y,-z
-x,y,-z
1/2+x,1/2+y,z
1/2-x,1/2-y,z
1/2+x,1/2-y,-z
1/2-x,1/2+y,-z
loop_
_atom_site_type_symbol
_atom_site_label
_atom_site_fract_x
_atom_site_fract_y
_atom_site_fract_z
Si Si1 0.281771 0.000000 0.000000
Si Si2 0.578169 0.703035 0.151385
Si Si3 0.820431 0.902982 0.457874
Si Si4 0.250000 0.250000 0.305032
Si Si5 0.162575 0.699524 0.073931
Si Si6 0.371088 0.516267 0.810866
Si Si7 0.407588 0.684326 0.287396
O O1 0.220700 0.022308 0.124088
O O2 0.329939 0.908165 0.042865
O O3 0.665089 0.734196 0.223338
O O4 0.579024 0.594609 0.111002
O O5 0.502530 0.714333 0.255116
O O6 0.588398 0.758917 0.015405
O O7 0.749247 0.838149 0.399656
O O8 0.877470 0.940216 0.336637
O O9 0.874767 0.848325 0.568046
O O10 0.781648 0.000000 0.500000
O O11 0.250000 0.750000 0.037556
O O12 0.146154 0.732808 0.224057
O O13 0.392927 0.409854 0.797476
#
# Coordination Sequence:
#
# PCOD9322961 Si02
#       7
#     4   8   8   4   8   8   8
#     4  12  22  38  66  96 132 172 230 272 338 416
#     4  11  21  40  59  90 122 167 212 271 340 401
#     4   9  21  37  59  91 125 163 214 267 335 401
#     4  10  20  36  60  78 122 164 208 258 338 400
#     4  12  22  39  63  90 130 170 220 272 334 409
#     4  10  19  36  62  92 128 163 198 279 342 407
#     4  11  23  36  61  93 129 164 220 273 338 406
#
# _framework density 20.524718
#
# number of rings (size 3 to 8) (size 9 to 14) (size 15 to 20)
#    0.000    1.333    4.167    2.000    1.167    2.667 
#    0.000   10.833    0.000    0.000    0.000    1.167 
#    0.000    0.000    0.000    0.000    0.000    0.000 
#
# Total GULP energy -133632.118128 kJ/mol
# GULP energy per Si atom -5568.004922 kJ/mol
# Density = 2.047800 g / cm^3
# Si number density = 20.524718 Si / 1000 Ang^3
#
#
#
# Elastic Constant Matrix: (Units=GPa)
#
#
# Indices 1 2 3 4 5 6 
#
# 1 75.7056 18.0885 19.9640 0.0000 0.0000 0.0000
# 2 18.0885 109.5442 33.7971 0.0000 0.0000 0.0000
# 3 19.9640 33.7971 110.2379 0.0000 0.0000 0.0000
# 4 0.0000 0.0000 0.0000 39.3909 0.0000 0.0000
# 5 0.0000 0.0000 0.0000 0.0000 15.6394 0.0000
# 6 0.0000 0.0000 0.0000 0.0000 0.0000 12.1566
#
#
#
# Elastic Compliance Matrix: (Units=1/GPa)
#
#
# Indices 1 2 3 4 5 6 
#
# 1 0.014155 -0.001708 -0.002040 0.000000 0.000000 0.000000
# 2 -0.001708 0.010289 -0.002845 0.000000 0.000000 0.000000
# 3 -0.002040 -0.002845 0.010313 0.000000 0.000000 0.000000
# 4 0.000000 0.000000 0.000000 0.025387 0.000000 0.000000
# 5 0.000000 0.000000 0.000000 0.000000 0.063941 0.000000
# 6 0.000000 0.000000 0.000000 0.000000 0.000000 0.082260
#
#
# Mechanical properties :
#
#
# Convention : Reuss Voigt Hill
#
# Bulk Modulus (GPa) = 46.35880 48.79857 47.57868
# Shear Modulus (GPa) = 22.05364 28.34658 25.20011
#
# Velocity S-wave (km/s) = 3.28150 3.72034 3.50779
# Velocity P-wave (km/s) = 6.08223 6.50244 6.29584
#
# Compressibility (1/GPa) = 0.02157088
#
# Stress axis : x y z
#
# Youngs Moduli (GPa) = 70.64606 97.19574 96.96576
#
# Poissons Ratio (x) = 0.16601 0.19779
# Poissons Ratio (y) = 0.12067 0.27586
# Poissons Ratio (z) = 0.14411 0.27652
#
# Static dielectric constant tensor:
#      x y z
#    x 1.763190 0.000000 0.000000 
#    y 0.000000 1.774270 0.000000 
#    z 0.000000 0.000000 1.956530 
# 
# From -- ./inp_files/25247.got.cif
#   From: 2010.05.17/outbox.cif.g08.bks.cpg/sg21_13_cif.got.tgz:25247.got - 2010.06.03 23:14:55.
