data_PCOD9322823
_publ_section_title
;
Structure prediction by ZEFSAII (Michael W. Deem and Ramdas Pophale) SiO2 
 PCOD9322823
Probable space group: C 2 2 2
;
_chemical_formula_sum "Si O2"
_cell_formula_units_Z 58
_cell_length_a 14.632624
_cell_length_b 26.208041
_cell_length_c 9.146486
_cell_angle_alpha 90.000000
_cell_angle_beta 90.000000
_cell_angle_gamma 90.000000
_cell_volume 3507.607957
_symmetry_space_group_name_H-M "C 2 2 2"
_symmetry_group_IT_number 21
_symmetry_cell_setting 'orthorhombic'
loop_
_space_group_symop_operation_xyz
x,y,z
-x,-y,z
x,-y,-z
-x,y,-z
1/2+x,1/2+y,z
1/2-x,1/2-y,z
1/2+x,1/2-y,-z
1/2-x,1/2+y,-z
loop_
_atom_site_type_symbol
_atom_site_label
_atom_site_fract_x
_atom_site_fract_y
_atom_site_fract_z
Si Si1 0.500000 0.845555 0.324141
Si Si2 0.000000 0.500000 0.000000
Si Si3 0.190875 0.500000 0.840058
Si Si4 0.193366 0.603964 0.325454
Si Si5 0.316369 0.298151 0.674723
Si Si6 0.000000 0.765069 0.825315
Si Si7 0.816369 0.798151 0.325277
Si Si8 0.806634 0.396036 0.674546
O O1 0.500000 0.835847 0.500000
O O2 0.408652 0.876621 0.287080
O O3 0.500000 0.792096 0.240786
O O4 0.591348 0.876621 0.287080
O O5 0.082077 0.500000 0.124794
O O6 0.213972 0.448618 0.754448
O O7 0.213972 0.551382 0.754448
O O8 0.236104 0.500000 0.000000
O O9 0.262473 0.649969 0.290289
O O10 0.195399 0.596406 0.500000
O O11 0.250000 0.250000 0.705005
O O12 0.409216 0.291784 0.763429
O O13 0.335426 0.297141 0.500000
O O14 0.090784 0.791784 0.763429
O O15 0.000000 0.763670 0.000000
O O16 0.750000 0.750000 0.294995
O O17 0.762473 0.850031 0.290289
#
# Coordination Sequence:
#
# PCOD9322823 Si02
#       8
#     8   2   8   8   8   8   8   8
#     4  10  19  34  55  80 111 150 190 232 274 321
#     4   8  20  36  50  76 116 166 178 208 280 338
#     4  10  21  35  51  76 118 151 180 222 279 333
#     4  10  20  35  59  82 106 147 196 237 268 322
#     4  10  20  38  60  81 108 146 193 236 280 328
#     4  12  24  35  52  83 121 150 181 227 286 348
#     4  10  20  38  60  81 108 146 193 236 280 328
#     4  10  20  35  59  82 106 147 196 237 268 322
#
# _framework density 16.535485000000001
#
# number of rings (size 3 to 8) (size 9 to 14) (size 15 to 20)
#    0.414    1.379    2.759    2.483    0.000    2.759 
#    0.000    2.759    0.000    0.828    0.000    5.793 
#    0.000    0.000    0.000    0.000    0.000    0.000 
#
# Total GULP energy -161565.087322 kJ/mol
# GULP energy per Si atom -5571.209908 kJ/mol
# Density = 1.649785 g / cm^3
# Si number density = 16.535485 Si / 1000 Ang^3
#
#
#
# Elastic Constant Matrix: (Units=GPa)
#
#
# Indices 1 2 3 4 5 6 
#
# 1 103.1150 68.5331 60.8754 0.0000 0.0000 0.0000
# 2 68.5331 171.7149 78.1564 0.0000 0.0000 0.0000
# 3 60.8754 78.1564 61.0033 0.0000 0.0000 0.0000
# 4 0.0000 0.0000 0.0000 9.8850 0.0000 0.0000
# 5 0.0000 0.0000 0.0000 0.0000 14.0711 0.0000
# 6 0.0000 0.0000 0.0000 0.0000 0.0000 8.0019
#
#
#
# Elastic Compliance Matrix: (Units=1/GPa)
#
#
# Indices 1 2 3 4 5 6 
#
# 1 0.024321 0.003214 -0.028387 0.000000 0.000000 0.000000
# 2 0.003214 0.014395 -0.021649 0.000000 0.000000 0.000000
# 3 -0.028387 -0.021649 0.072457 0.000000 0.000000 0.000000
# 4 0.000000 0.000000 0.000000 0.101163 0.000000 0.000000
# 5 0.000000 0.000000 0.000000 0.000000 0.071068 0.000000
# 6 0.000000 0.000000 0.000000 0.000000 0.000000 0.124970
#
#
# Mechanical properties :
#
#
# Convention : Reuss Voigt Hill
#
# Bulk Modulus (GPa) = 57.05489 83.44034 70.24761
# Shear Modulus (GPa) = 9.84521 14.94283 12.39402
#
# Velocity S-wave (km/s) = 2.44273 3.00939 2.74074
# Velocity P-wave (km/s) = 6.52191 7.91493 7.25195
#
# Compressibility (1/GPa) = 0.01752698
#
# Stress axis : x y z
#
# Youngs Moduli (GPa) = 41.11719 69.47025 13.80124
#
# Poissons Ratio (x) = -0.22327 0.39178
# Poissons Ratio (y) = -0.13215 0.29879
# Poissons Ratio (z) = 1.16721 1.50399
#
# Static dielectric constant tensor:
#      x y z
#    x 1.539380 0.000000 0.000000 
#    y 0.000000 1.538430 0.000000 
#    z 0.000000 0.000000 1.555470 
# 
# From -- ./inp_files/15434.got.cif
#   From: 2010.05.17/outbox.cif.g08.bks.cpg/sg21_8_cif.got.tgz:15434.got - 2010.06.03 23:14:55.
