data_PCOD9322790
_publ_section_title
;
Structure prediction by ZEFSAII (Michael W. Deem and Ramdas Pophale) SiO2 
 PCOD9322790
Probable space group: C 2 2 2
;
_chemical_formula_sum "Si O2"
_cell_formula_units_Z 64
_cell_length_a 9.474366
_cell_length_b 22.576332
_cell_length_c 16.697006
_cell_angle_alpha 90.000000
_cell_angle_beta 90.000000
_cell_angle_gamma 90.000000
_cell_volume 3571.430014
_symmetry_space_group_name_H-M "C 2 2 2"
_symmetry_group_IT_number 21
_symmetry_cell_setting 'orthorhombic'
loop_
_space_group_symop_operation_xyz
x,y,z
-x,-y,z
x,-y,-z
-x,y,-z
1/2+x,1/2+y,z
1/2-x,1/2-y,z
1/2+x,1/2-y,-z
1/2-x,1/2+y,-z
loop_
_atom_site_type_symbol
_atom_site_label
_atom_site_fract_x
_atom_site_fract_y
_atom_site_fract_z
Si Si1 0.797105 0.123536 0.664624
Si Si2 0.329426 0.498058 0.594738
Si Si3 0.781497 0.375281 0.335142
Si Si4 0.669661 0.313311 0.824700
Si Si5 0.832961 0.188580 0.001386
Si Si6 0.328967 0.686272 0.178171
Si Si7 0.955683 0.811395 0.591375
Si Si8 0.536424 0.821495 0.406657
O O1 0.773209 0.056228 0.639749
O O2 0.777806 0.142478 0.756117
O O3 0.698581 0.165195 0.610341
O O4 0.956257 0.141181 0.641735
O O5 0.500000 0.500000 0.599722
O O6 0.292992 0.500000 0.500000
O O7 0.269097 0.439190 0.635596
O O8 0.731035 0.356345 0.246995
O O9 0.705851 0.326964 0.393417
O O10 0.946015 0.365545 0.351387
O O11 0.750000 0.250000 0.816580
O O12 0.499260 0.305225 0.814885
O O13 0.698098 0.338472 0.914204
O O14 0.750000 0.250000 0.001804
O O15 0.801845 0.161037 0.088324
O O16 0.000000 0.200728 0.000000
O O17 0.250000 0.750000 0.185777
O O18 0.997136 0.745509 0.616563
O O19 0.000000 0.818763 0.500000
O O20 0.500000 0.829839 0.500000
#
# Coordination Sequence:
#
# PCOD9322790 Si02
#       8
#     8   8   8   8   8   8   8   8
#     4  12  23  36  56  79 107 146 188 228 273 323
#     4  11  22  39  59  76 102 145 196 237 268 320
#     4  12  23  36  56  79 107 146 188 228 273 323
#     4  10  19  33  55  83 114 143 178 224 278 336
#     4   8  16  30  50  79 113 144 170 213 275 336
#     4  10  19  33  55  83 114 143 178 224 278 336
#     4  11  20  35  55  78 106 138 176 223 280 334
#     4  11  24  37  53  80 112 140 176 233 290 336
#
# _framework density 17.919993999999999
#
# number of rings (size 3 to 8) (size 9 to 14) (size 15 to 20)
#    0.000    1.375    2.500    4.500    1.750    2.500 
#    0.000    1.250    0.000    0.750    0.000    3.500 
#    0.000    2.000    0.000    0.000    0.000    0.000 
#
# Total GULP energy -178536.335424 kJ/mol
# GULP energy per Si atom -5579.260482 kJ/mol
# Density = 1.787921 g / cm^3
# Si number density = 17.919994 Si / 1000 Ang^3
#
#
#
# Elastic Constant Matrix: (Units=GPa)
#
#
# Indices 1 2 3 4 5 6 
#
# 1 31.0324 5.8013 12.1516 0.0000 0.0000 0.0000
# 2 5.8013 99.3091 54.3788 0.0000 0.0000 0.0000
# 3 12.1516 54.3788 148.4633 0.0000 0.0000 0.0000
# 4 0.0000 0.0000 0.0000 7.7279 0.0000 0.0000
# 5 0.0000 0.0000 0.0000 0.0000 23.5990 0.0000
# 6 0.0000 0.0000 0.0000 0.0000 0.0000 17.8731
#
#
#
# Elastic Compliance Matrix: (Units=1/GPa)
#
#
# Indices 1 2 3 4 5 6 
#
# 1 0.033317 -0.000567 -0.002519 0.000000 0.000000 0.000000
# 2 -0.000567 0.012605 -0.004571 0.000000 0.000000 0.000000
# 3 -0.002519 -0.004571 0.008616 0.000000 0.000000 0.000000
# 4 0.000000 0.000000 0.000000 0.129401 0.000000 0.000000
# 5 0.000000 0.000000 0.000000 0.000000 0.042375 0.000000
# 6 0.000000 0.000000 0.000000 0.000000 0.000000 0.055950
#
#
# Mechanical properties :
#
#
# Convention : Reuss Voigt Hill
#
# Bulk Modulus (GPa) = 25.49409 47.05200 36.27305
# Shear Modulus (GPa) = 16.09517 23.60488 19.85002
#
# Velocity S-wave (km/s) = 3.00020 3.63331 3.33183
# Velocity P-wave (km/s) = 5.12436 6.62684 5.92343
#
# Compressibility (1/GPa) = 0.03922478
#
# Stress axis : x y z
#
# Youngs Moduli (GPa) = 30.01479 79.33065 116.06275
#
# Poissons Ratio (x) = 0.04496 0.29241
# Poissons Ratio (y) = 0.01701 0.53049
# Poissons Ratio (z) = 0.07562 0.36260
#
# Static dielectric constant tensor:
#      x y z
#    x 1.602880 0.000000 0.000000 
#    y 0.000000 1.590960 0.000000 
#    z 0.000000 0.000000 1.660020 
# 
# From -- ./inp_files/35911.got.cif
#   From: 2010.05.17/outbox.cif.g08.bks.cpg/sg21_18_cif.got.tgz:35911.got - 2010.06.03 23:14:55.
