data_PCOD9322979
_publ_section_title
;
Structure prediction by ZEFSAII (Michael W. Deem and Ramdas Pophale) SiO2 
 PCOD9322979
Probable space group: C 2 2 2
;
_chemical_formula_sum "Si O2"
_cell_formula_units_Z 64
_cell_length_a 24.080075
_cell_length_b 8.024277
_cell_length_c 16.546009
_cell_angle_alpha 90.000000
_cell_angle_beta 90.000000
_cell_angle_gamma 90.000000
_cell_volume 3197.105766
_symmetry_space_group_name_H-M "C 2 2 2"
_symmetry_group_IT_number 21
_symmetry_cell_setting 'orthorhombic'
loop_
_space_group_symop_operation_xyz
x,y,z
-x,-y,z
x,-y,-z
-x,y,-z
1/2+x,1/2+y,z
1/2-x,1/2-y,z
1/2+x,1/2-y,-z
1/2-x,1/2+y,-z
loop_
_atom_site_type_symbol
_atom_site_label
_atom_site_fract_x
_atom_site_fract_y
_atom_site_fract_z
Si Si1 0.193769 0.646805 0.436545
Si Si2 0.807942 0.781769 0.731481
Si Si3 0.690195 0.664426 0.319075
Si Si4 0.904207 0.709888 0.215224
Si Si5 0.990589 0.299203 0.910172
Si Si6 0.986585 0.809888 0.352756
Si Si7 0.604047 0.314112 0.531971
Si Si8 0.573652 0.184267 0.232167
O O1 0.199753 0.500000 0.500000
O O2 0.250000 0.750000 0.451071
O O3 0.191030 0.640965 0.339518
O O4 0.134358 0.723192 0.459327
O O5 0.750000 0.750000 0.777171
O O6 0.866409 0.767371 0.774690
O O7 0.805519 0.965819 0.692870
O O8 0.750000 0.750000 0.330083
O O9 0.657721 0.742234 0.241748
O O10 0.651119 0.689559 0.397508
O O11 0.930048 0.742289 0.126871
O O12 0.916938 0.514210 0.228676
O O13 0.942467 0.808164 0.279222
O O14 0.000000 0.500000 0.914493
O O15 0.035232 0.251783 0.841383
O O16 0.000000 0.232260 0.000000
O O17 0.040545 0.723305 0.315070
O O18 0.951750 0.740425 0.428621
O O19 0.000000 0.000000 0.372139
O O20 0.593959 0.500000 0.500000
#
# Coordination Sequence:
#
# PCOD9322979 Si02
#       8
#     8   8   8   8   8   8   8   8
#     4  11  25  39  57  79 109 146 190 250 301 344
#     4  11  24  38  58  84 109 148 196 240 296 346
#     4  11  22  37  59  82 111 152 194 243 291 347
#     4   9  19  34  59  85 115 150 189 237 286 344
#     4   8  15  31  59  93 122 152 188 232 285 341
#     4  10  21  35  55  73 106 150 188 237 285 344
#     4  11  22  38  53  76 105 143 191 240 298 340
#     4  10  19  37  57  87 117 149 193 239 283 351
#
# _framework density 20.018104999999998
#
# number of rings (size 3 to 8) (size 9 to 14) (size 15 to 20)
#    0.000    1.875    1.250    4.125    8.750    0.250 
#    0.000    0.000    0.000   15.000    0.000    0.000 
#    0.000    0.000    0.000    0.000    0.000    0.000 
#
# Total GULP energy -178460.940681 kJ/mol
# GULP energy per Si atom -5576.904396 kJ/mol
# Density = 1.997254 g / cm^3
# Si number density = 20.018105 Si / 1000 Ang^3
#
#
#
# Elastic Constant Matrix: (Units=GPa)
#
#
# Indices 1 2 3 4 5 6 
#
# 1 134.8266 18.5632 62.1737 0.0000 0.0000 0.0000
# 2 18.5632 20.8873 9.4658 0.0000 0.0000 0.0000
# 3 62.1737 9.4658 87.0317 0.0000 0.0000 0.0000
# 4 0.0000 0.0000 0.0000 6.4483 0.0000 0.0000
# 5 0.0000 0.0000 0.0000 0.0000 20.7355 0.0000
# 6 0.0000 0.0000 0.0000 0.0000 0.0000 28.9333
#
#
#
# Elastic Compliance Matrix: (Units=1/GPa)
#
#
# Indices 1 2 3 4 5 6 
#
# 1 0.011991 -0.007126 -0.007791 0.000000 0.000000 0.000000
# 2 -0.007126 0.054593 -0.000847 0.000000 0.000000 0.000000
# 3 -0.007791 -0.000847 0.017148 0.000000 0.000000 0.000000
# 4 0.000000 0.000000 0.000000 0.155081 0.000000 0.000000
# 5 0.000000 0.000000 0.000000 0.000000 0.048226 0.000000
# 6 0.000000 0.000000 0.000000 0.000000 0.000000 0.034562
#
#
# Mechanical properties :
#
#
# Convention : Reuss Voigt Hill
#
# Bulk Modulus (GPa) = 19.15575 47.01681 33.08628
# Shear Modulus (GPa) = 13.49420 21.39294 17.44357
#
# Velocity S-wave (km/s) = 2.59916 3.27261 2.95513
# Velocity P-wave (km/s) = 4.31248 6.14964 5.31110
#
# Compressibility (1/GPa) = 0.05220364
#
# Stress axis : x y z
#
# Youngs Moduli (GPa) = 83.39787 18.31744 58.31626
#
# Poissons Ratio (x) = 0.13053 0.45434
# Poissons Ratio (y) = 0.59428 0.04940
# Poissons Ratio (z) = 0.64975 0.01552
#
# Static dielectric constant tensor:
#      x y z
#    x 1.774300 0.000000 0.000000 
#    y 0.000000 1.761380 0.000000 
#    z 0.000000 0.000000 1.720530 
# 
# From -- ./inp_files/35890.got.cif
#   From: 2010.05.17/outbox.cif.g08.bks.cpg/sg21_18_cif.got.tgz:35890.got - 2010.06.03 23:14:55.
