data_PCOD9322798
_publ_section_title
;
Structure prediction by ZEFSAII (Michael W. Deem and Ramdas Pophale) SiO2 
 PCOD9322798
Probable space group: C 2 2 2
;
_chemical_formula_sum "Si O2"
_cell_formula_units_Z 26
_cell_length_a 5.661687
_cell_length_b 14.152641
_cell_length_c 13.642001
_cell_angle_alpha 90.000000
_cell_angle_beta 90.000000
_cell_angle_gamma 90.000000
_cell_volume 1093.103849
_symmetry_space_group_name_H-M "C 2 2 2"
_symmetry_group_IT_number 21
_symmetry_cell_setting 'orthorhombic'
loop_
_space_group_symop_operation_xyz
x,y,z
-x,-y,z
x,-y,-z
-x,y,-z
1/2+x,1/2+y,z
1/2-x,1/2-y,z
1/2+x,1/2-y,-z
1/2-x,1/2+y,-z
loop_
_atom_site_type_symbol
_atom_site_label
_atom_site_fract_x
_atom_site_fract_y
_atom_site_fract_z
Si Si1 0.500000 0.000000 0.000000
Si Si2 0.996995 0.364539 0.384944
Si Si3 0.506663 0.651082 0.310888
Si Si4 0.392558 0.605067 0.899412
O O1 0.369106 0.073248 0.072507
O O2 0.248964 0.398635 0.342935
O O3 0.000000 0.384263 0.500000
O O4 0.747827 0.393803 0.335864
O O5 0.002358 0.251481 0.365911
O O6 0.542644 0.664859 0.194762
O O7 0.500000 0.500000 0.882499
O O8 0.500000 0.644807 0.000000
#
# Coordination Sequence:
#
# PCOD9322798 Si02
#       4
#     2   8   8   8
#     4   8  18  36  56  74 114 144 190 224 280 316
#     4  10  20  36  57  81 113 144 181 221 273 325
#     4  10  19  33  58  82 105 145 186 217 269 328
#     4   9  20  35  55  80 107 145 184 224 270 329
#
# _framework density 23.785478000000001
#
# number of rings (size 3 to 8) (size 9 to 14) (size 15 to 20)
#    0.000    2.769    0.000    4.615    8.615    0.000 
#    0.000    6.154    0.000   10.154    0.000    0.000 
#    0.000    0.000    0.000    0.000    0.000    0.000 
#
# Total GULP energy -72448.104337 kJ/mol
# GULP energy per Si atom -5572.931103 kJ/mol
# Density = 2.373134 g / cm^3
# Si number density = 23.785478 Si / 1000 Ang^3
#
#
#
# Elastic Constant Matrix: (Units=GPa)
#
#
# Indices 1 2 3 4 5 6 
#
# 1 233.7092 5.5324 72.7933 0.0000 0.0000 0.0000
# 2 5.5324 76.6320 -7.4157 0.0000 0.0000 0.0000
# 3 72.7933 -7.4157 190.0945 0.0000 0.0000 0.0000
# 4 0.0000 0.0000 0.0000 -180.9073 0.0000 0.0000
# 5 0.0000 0.0000 0.0000 0.0000 -586.4085 0.0000
# 6 0.0000 0.0000 0.0000 0.0000 0.0000 76.6262
#
#
#
# Elastic Compliance Matrix: (Units=1/GPa)
#
#
# Indices 1 2 3 4 5 6 
#
# 1 0.004880 -0.000535 -0.001890 0.000000 0.000000 0.000000
# 2 -0.000535 0.013158 0.000718 0.000000 0.000000 0.000000
# 3 -0.001890 0.000718 0.006012 0.000000 0.000000 0.000000
# 4 0.000000 0.000000 0.000000 -0.005528 0.000000 0.000000
# 5 0.000000 0.000000 0.000000 0.000000 -0.001705 0.000000
# 6 0.000000 0.000000 0.000000 0.000000 0.000000 0.013050
#
#
# Mechanical properties :
#
#
# Convention : Reuss Voigt Hill
#
# Bulk Modulus (GPa) = 48.45758 71.36172 59.90965
# Shear Modulus (GPa) = 124.50484 -109.50288 7.50098
#
# Velocity S-wave (km/s) = 7.24283 -6.79247 1.77776
# Velocity P-wave (km/s) = 9.50588 5.60799 5.42735
#
# Compressibility (1/GPa) = 0.02063661
#
# Stress axis : x y z
#
# Youngs Moduli (GPa) = 204.91613 76.00217 166.32981
#
# Poissons Ratio (x) = 0.04067 0.31430
# Poissons Ratio (y) = 0.10967 -0.11946
# Poissons Ratio (z) = 0.38721 -0.05459
#
# Static dielectric constant tensor:
#      x y z
#    x 2.054440 0.000000 0.000000 
#    y 0.000000 2.001470 0.000000 
#    z 0.000000 0.000000 1.693270 
# 
# From -- ./inp_files/20307.got.cif
#   From: 2010.05.17/outbox.cif.g08.bks.cpg/sg21_11_cif.got.tgz:20307.got - 2010.06.03 23:14:55.
