data_PCOD9322577
_publ_section_title
;
Structure prediction by ZEFSAII (Michael W. Deem and Ramdas Pophale) SiO2 
 PCOD9322577
Probable space group: C 2 2 2
;
_chemical_formula_sum "Si O2"
_cell_formula_units_Z 56
_cell_length_a 20.283448
_cell_length_b 15.034266
_cell_length_c 8.170030
_cell_angle_alpha 90.000000
_cell_angle_beta 90.000000
_cell_angle_gamma 90.000000
_cell_volume 2491.424117
_symmetry_space_group_name_H-M "C 2 2 2"
_symmetry_group_IT_number 21
_symmetry_cell_setting 'orthorhombic'
loop_
_space_group_symop_operation_xyz
x,y,z
-x,-y,z
x,-y,-z
-x,y,-z
1/2+x,1/2+y,z
1/2-x,1/2-y,z
1/2+x,1/2-y,-z
1/2-x,1/2+y,-z
loop_
_atom_site_type_symbol
_atom_site_label
_atom_site_fract_x
_atom_site_fract_y
_atom_site_fract_z
Si Si1 0.601048 0.873282 0.249471
Si Si2 0.859730 0.665401 0.579946
Si Si3 0.354928 0.323805 0.153157
Si Si4 0.250000 0.250000 0.360072
Si Si5 0.867504 0.005628 0.302633
Si Si6 0.405179 0.689127 0.188487
Si Si7 0.288533 0.989158 0.300200
Si Si8 0.500000 0.174307 0.000000
O O1 0.591024 0.878266 0.446613
O O2 0.613877 0.768240 0.216047
O O3 0.665266 0.934880 0.219916
O O4 0.542415 0.887375 0.122227
O O5 0.796792 0.694045 0.474917
O O6 0.884153 0.757173 0.652853
O O7 0.832662 0.600167 0.719369
O O8 0.285837 0.320036 0.244587
O O9 0.388614 0.413565 0.216395
O O10 0.352453 0.317875 0.959090
O O11 0.912571 0.087033 0.241353
O O12 0.870343 0.000000 0.500000
O O13 0.788974 0.019869 0.256795
O O14 0.459457 0.754894 0.111250
O O15 0.289253 0.000000 0.500000
#
# Coordination Sequence:
#
# PCOD9322577 Si02
#       8
#     8   8   8   4   8   8   8   4
#     4   9  19  39  63  85 119 165 211 265 320 371
#     4  10  19  36  62  94 124 163 218 264 320 387
#     4  10  20  35  54  86 126 164 200 251 325 381
#     4  10  18  34  60  90 136 174 200 260 324 398
#     4  11  20  36  64  97 129 161 206 264 330 400
#     4  11  24  40  60  87 123 170 219 267 321 382
#     4   9  18  34  61  95 126 154 195 259 327 389
#     4  10  24  46  62  82 128 178 224 274 314 370
#
# _framework density 22.477105000000002
#
# number of rings (size 3 to 8) (size 9 to 14) (size 15 to 20)
#    0.000    2.000    0.000    6.429    0.000    2.286 
#    0.000   12.857    0.000    6.000    0.000    0.000 
#    0.000    0.000    0.000    0.000    0.000    0.000 
#
# Total GULP energy -155979.594645 kJ/mol
# GULP energy per Si atom -5570.699809 kJ/mol
# Density = 2.242595 g / cm^3
# Si number density = 22.477105 Si / 1000 Ang^3
#
#
#
# Elastic Constant Matrix: (Units=GPa)
#
#
# Indices 1 2 3 4 5 6 
#
# 1 46.0716 -10.8844 25.5880 0.0000 0.0000 0.0000
# 2 -10.8844 50.0166 -6.3511 0.0000 0.0000 0.0000
# 3 25.5880 -6.3511 68.5632 0.0000 0.0000 0.0000
# 4 0.0000 0.0000 0.0000 8.3401 0.0000 0.0000
# 5 0.0000 0.0000 0.0000 0.0000 31.2733 0.0000
# 6 0.0000 0.0000 0.0000 0.0000 0.0000 15.2617
#
#
#
# Elastic Compliance Matrix: (Units=1/GPa)
#
#
# Indices 1 2 3 4 5 6 
#
# 1 0.028526 0.004914 -0.010191 0.000000 0.000000 0.000000
# 2 0.004914 0.021078 0.000119 0.000000 0.000000 0.000000
# 3 -0.010191 0.000119 0.018399 0.000000 0.000000 0.000000
# 4 0.000000 0.000000 0.000000 0.119903 0.000000 0.000000
# 5 0.000000 0.000000 0.000000 0.000000 0.031976 0.000000
# 6 0.000000 0.000000 0.000000 0.000000 0.000000 0.065524
#
#
# Mechanical properties :
#
#
# Convention : Reuss Voigt Hill
#
# Bulk Modulus (GPa) = 17.33517 20.15071 18.74294
# Shear Modulus (GPa) = 15.87543 21.39493 18.63518
#
# Velocity S-wave (km/s) = 2.66050 3.08856 2.88249
# Velocity P-wave (km/s) = 4.14328 4.65869 4.40853
#
# Compressibility (1/GPa) = 0.05768621
#
# Stress axis : x y z
#
# Youngs Moduli (GPa) = 35.05549 47.44343 54.34971
#
# Poissons Ratio (x) = -0.23312 0.55387
# Poissons Ratio (y) = -0.17225 -0.00645
# Poissons Ratio (z) = 0.35725 -0.00563
#
# Static dielectric constant tensor:
#      x y z
#    x 1.940120 0.000000 0.000000 
#    y 0.000000 1.874880 0.000000 
#    z 0.000000 0.000000 1.977780 
# 
# From -- ./inp_files/17752.got.cif
#   From: 2010.05.17/outbox.cif.g08.bks.cpg/sg21_9_cif.got.tgz:17752.got - 2010.06.03 23:14:55.
