data_PCOD9322674
_publ_section_title
;
Structure prediction by ZEFSAII (Michael W. Deem and Ramdas Pophale) SiO2 
 PCOD9322674
Probable space group: C 2 2 2
;
_chemical_formula_sum "Si O2"
_cell_formula_units_Z 52
_cell_length_a 5.618651
_cell_length_b 23.444526
_cell_length_c 16.639446
_cell_angle_alpha 90.000000
_cell_angle_beta 90.000000
_cell_angle_gamma 90.000000
_cell_volume 2191.857805
_symmetry_space_group_name_H-M "C 2 2 2"
_symmetry_group_IT_number 21
_symmetry_cell_setting 'orthorhombic'
loop_
_space_group_symop_operation_xyz
x,y,z
-x,-y,z
x,-y,-z
-x,y,-z
1/2+x,1/2+y,z
1/2-x,1/2-y,z
1/2+x,1/2-y,-z
1/2-x,1/2+y,-z
loop_
_atom_site_type_symbol
_atom_site_label
_atom_site_fract_x
_atom_site_fract_y
_atom_site_fract_z
Si Si1 0.000000 0.783573 0.909262
Si Si2 0.500000 0.064835 0.394691
Si Si3 0.000000 0.894509 0.810010
Si Si4 0.500000 0.784035 0.500000
Si Si5 0.000000 0.285527 0.687019
Si Si6 0.500000 0.569805 0.373985
Si Si7 0.500000 0.904017 0.786267
O O1 0.750000 0.750000 0.902618
O O2 0.000000 0.830872 0.841732
O O3 0.250000 0.750000 0.902618
O O4 0.000000 0.808539 0.000000
O O5 0.757864 0.087937 0.415754
O O6 0.500000 0.062858 0.297677
O O7 0.242136 0.087937 0.415754
O O8 0.500000 0.000000 0.421496
O O9 1.000000 0.901550 0.713605
O O10 0.741289 0.917790 0.833266
O O11 0.258711 0.917790 0.833266
O O12 0.750000 0.750000 0.500000
O O13 0.500000 0.807502 0.593456
O O14 0.750000 0.250000 0.696799
O O15 1.000000 0.338216 0.751215
O O16 0.250000 0.250000 0.696799
O O17 0.500000 0.500000 0.366233
#
# Coordination Sequence:
#
# PCOD9322674 Si02
#       7
#     8   8   8   4   8   8   8
#     4  10  21  35  48  61  81 114 150 175 201 247
#     4   8  14  25  39  57  83 110 135 163 198 246
#     4  10  19  30  45  65  88 110 137 175 214 249
#     4   8  16  30  44  56  77 114 149 170 196 242
#     4  10  19  30  43  61  87 115 142 172 206 248
#     4   8  14  25  41  60  82 107 132 162 204 250
#     4  10  19  28  43  68  89 109 137 172 217 251
#
# _framework density 23.724167000000001
#
# number of rings (size 3 to 8) (size 9 to 14) (size 15 to 20)
#    0.000    2.769    0.000    1.846    0.000    3.692 
#    0.000    0.000    0.000    0.462    0.000    0.538 
#    0.000   16.000    0.000   35.538    0.000    2.462 
#
# Total GULP energy -144844.507061 kJ/mol
# GULP energy per Si atom -5570.942579 kJ/mol
# Density = 2.367017 g / cm^3
# Si number density = 23.724167 Si / 1000 Ang^3
#
#
#
# Elastic Constant Matrix: (Units=GPa)
#
#
# Indices 1 2 3 4 5 6 
#
# 1 304.9880 33.5406 26.1329 0.0000 0.0000 0.0000
# 2 33.5406 75.3100 36.3381 0.0000 0.0000 0.0000
# 3 26.1329 36.3381 60.3826 0.0000 0.0000 0.0000
# 4 0.0000 0.0000 0.0000 19.4360 0.0000 0.0000
# 5 0.0000 0.0000 0.0000 0.0000 -361.0564 0.0000
# 6 0.0000 0.0000 0.0000 0.0000 0.0000 28.1018
#
#
#
# Elastic Compliance Matrix: (Units=1/GPa)
#
#
# Indices 1 2 3 4 5 6 
#
# 1 0.003475 -0.001158 -0.000807 0.000000 0.000000 0.000000
# 2 -0.001158 0.019098 -0.010992 0.000000 0.000000 0.000000
# 3 -0.000807 -0.010992 0.023525 0.000000 0.000000 0.000000
# 4 0.000000 0.000000 0.000000 0.051451 0.000000 0.000000
# 5 0.000000 0.000000 0.000000 0.000000 -0.002770 0.000000
# 6 0.000000 0.000000 0.000000 0.000000 0.000000 0.035585
#
#
# Mechanical properties :
#
#
# Convention : Reuss Voigt Hill
#
# Bulk Modulus (GPa) = 49.54378 70.30041 59.92209
# Shear Modulus (GPa) = 30.67350 -39.72577 -4.52614
#
# Velocity S-wave (km/s) = 3.59962 -4.09649 -1.38274
# Velocity P-wave (km/s) = 6.18102 2.70588 4.77110
#
# Compressibility (1/GPa) = 0.02018417
#
# Stress axis : x y z
#
# Youngs Moduli (GPa) = 287.74012 52.36137 42.50779
#
# Poissons Ratio (x) = 0.06066 0.03430
# Poissons Ratio (y) = 0.33333 0.46724
# Poissons Ratio (z) = 0.23219 0.57554
#
# Static dielectric constant tensor:
#      x y z
#    x 2.035290 0.000000 0.000000 
#    y 0.000000 1.926030 0.000000 
#    z 0.000000 0.000000 1.848030 
# 
# From -- ./inp_files/35217.got.cif
#   From: 2010.05.17/outbox.cif.g08.bks.cpg/sg21_18_cif.got.tgz:35217.got - 2010.06.03 23:14:55.
