data_PCOD9322467
_publ_section_title
;
Structure prediction by ZEFSAII (Michael W. Deem and Ramdas Pophale) SiO2 
 PCOD9322467
Probable space group: C 2 2 2
;
_chemical_formula_sum "Si O2"
_cell_formula_units_Z 44
_cell_length_a 17.627824
_cell_length_b 21.790076
_cell_length_c 4.922130
_cell_angle_alpha 90.000000
_cell_angle_beta 90.000000
_cell_angle_gamma 90.000000
_cell_volume 1890.647351
_symmetry_space_group_name_H-M "C 2 2 2"
_symmetry_group_IT_number 21
_symmetry_cell_setting 'orthorhombic'
loop_
_space_group_symop_operation_xyz
x,y,z
-x,-y,z
x,-y,-z
-x,y,-z
1/2+x,1/2+y,z
1/2-x,1/2-y,z
1/2+x,1/2-y,-z
1/2-x,1/2+y,-z
loop_
_atom_site_type_symbol
_atom_site_label
_atom_site_fract_x
_atom_site_fract_y
_atom_site_fract_z
Si Si1 0.250000 0.250000 0.888883
Si Si2 0.551069 0.330091 0.767824
Si Si3 0.613063 0.130875 0.599741
Si Si4 0.281090 0.627916 0.760465
Si Si5 0.735172 0.000000 0.000000
Si Si6 0.402267 0.788883 0.123146
Si Si7 0.873829 0.500000 0.500000
O O1 0.262553 0.311417 0.062543
O O2 0.327409 0.240503 0.735806
O O3 0.500000 0.318922 0.500000
O O4 0.630846 0.360955 0.678850
O O5 0.570892 0.267259 0.932087
O O6 0.500000 0.364383 0.000000
O O7 0.706760 0.126771 0.562959
O O8 0.605421 0.158356 0.898330
O O9 0.584412 0.061758 0.580965
O O10 0.571061 0.173204 0.381158
O O11 0.278790 0.562314 0.915525
O O12 0.680401 0.015623 0.248053
#
# Coordination Sequence:
#
# PCOD9322467 Si02
#       7
#     4   8   8   8   4   8   4
#     4   8  16  30  52  80 106 136 182 236 294 356
#     4  11  24  40  58  82 116 161 210 255 296 354
#     4  10  19  33  55  85 115 144 180 234 301 364
#     4   9  20  36  57  83 116 155 198 247 306 362
#     4  10  20  34  53  80 118 154 189 242 298 354
#     4  10  20  33  53  81 111 144 185 240 300 350
#     4  10  18  30  52  86 120 146 176 224 302 376
#
# _framework density 23.272451
#
# number of rings (size 3 to 8) (size 9 to 14) (size 15 to 20)
#    0.000    2.182    0.000    4.364    0.000   11.636 
#    0.000    0.455    0.000    1.091    0.000    9.545 
#    0.000    0.000    0.000    0.000    0.000    0.000 
#
# Total GULP energy -122479.495656 kJ/mol
# GULP energy per Si atom -5567.249803 kJ/mol
# Density = 2.321948 g / cm^3
# Si number density = 23.272451 Si / 1000 Ang^3
#
#
#
# Elastic Constant Matrix: (Units=GPa)
#
#
# Indices 1 2 3 4 5 6 
#
# 1 127.7134 42.5497 52.7715 0.0000 0.0000 0.0000
# 2 42.5497 139.2475 27.2993 0.0000 0.0000 0.0000
# 3 52.7715 27.2993 121.2729 0.0000 0.0000 0.0000
# 4 0.0000 0.0000 0.0000 30.3854 0.0000 0.0000
# 5 0.0000 0.0000 0.0000 0.0000 27.3447 0.0000
# 6 0.0000 0.0000 0.0000 0.0000 0.0000 -14.0108
#
#
#
# Elastic Compliance Matrix: (Units=1/GPa)
#
#
# Indices 1 2 3 4 5 6 
#
# 1 0.010237 -0.002359 -0.003924 0.000000 0.000000 0.000000
# 2 -0.002359 0.008057 -0.000787 0.000000 0.000000 0.000000
# 3 -0.003924 -0.000787 0.010130 0.000000 0.000000 0.000000
# 4 0.000000 0.000000 0.000000 0.032911 0.000000 0.000000
# 5 0.000000 0.000000 0.000000 0.000000 0.036570 0.000000
# 6 0.000000 0.000000 0.000000 0.000000 0.000000 -0.071373
#
#
# Mechanical properties :
#
#
# Convention : Reuss Voigt Hill
#
# Bulk Modulus (GPa) = 70.00459 70.38610 70.19534
# Shear Modulus (GPa) = 110.05330 26.45141 68.25236
#
# Velocity S-wave (km/s) = 6.88417 3.37500 5.42137
# Velocity P-wave (km/s) = 9.66099 6.74519 8.33164
#
# Compressibility (1/GPa) = 0.01428478
#
# Stress axis : x y z
#
# Youngs Moduli (GPa) = 97.68275 124.12208 98.71251
#
# Poissons Ratio (x) = 0.29280 0.38732
# Poissons Ratio (y) = 0.23043 0.07770
# Poissons Ratio (z) = 0.38328 0.09770
#
# Static dielectric constant tensor:
#      x y z
#    x 2.118180 0.000000 0.000000 
#    y 0.000000 1.901280 0.000000 
#    z 0.000000 0.000000 1.824530 
# 
# From -- ./inp_files/5930.got.cif
#   From: 2010.05.17/outbox.cif.g08.bks.cpg/sg21_3_cif.got.tgz:5930.got - 2010.06.03 23:14:55.
