data_PCOD9322282
_publ_section_title
;
Structure prediction by ZEFSAII (Michael W. Deem and Ramdas Pophale) SiO2 
 PCOD9322282
Probable space group: C 2 2 2
;
_chemical_formula_sum "Si O2"
_cell_formula_units_Z 44
_cell_length_a 26.485775
_cell_length_b 5.764296
_cell_length_c 14.579857
_cell_angle_alpha 90.000000
_cell_angle_beta 90.000000
_cell_angle_gamma 90.000000
_cell_volume 2225.933696
_symmetry_space_group_name_H-M "C 2 2 2"
_symmetry_group_IT_number 21
_symmetry_cell_setting 'orthorhombic'
loop_
_space_group_symop_operation_xyz
x,y,z
-x,-y,z
x,-y,-z
-x,y,-z
1/2+x,1/2+y,z
1/2-x,1/2-y,z
1/2+x,1/2-y,-z
1/2-x,1/2+y,-z
loop_
_atom_site_type_symbol
_atom_site_label
_atom_site_fract_x
_atom_site_fract_y
_atom_site_fract_z
Si Si1 0.676467 0.430965 0.202773
Si Si2 0.250000 0.250000 0.949460
Si Si3 0.924705 0.827112 0.580791
Si Si4 0.750000 0.250000 0.676046
Si Si5 0.500000 0.000000 0.680549
Si Si6 0.911556 0.196029 0.735315
Si Si7 0.337895 0.945856 0.362494
O O1 0.702564 0.321272 0.114351
O O2 0.715010 0.600477 0.256016
O O3 0.625272 0.582668 0.187959
O O4 0.669112 0.222781 0.275095
O O5 0.239062 0.500000 0.000000
O O6 0.965029 0.638230 0.609264
O O7 0.869568 0.709606 0.565874
O O8 0.937719 0.000000 0.500000
O O9 0.923961 0.979144 0.672245
O O10 0.785300 0.425194 0.618237
O O11 0.536951 0.157234 0.744051
O O12 0.875710 0.357452 0.673303
#
# Coordination Sequence:
#
# PCOD9322282 Si02
#       7
#     8   4   8   4   4   8   8
#     4  10  19  35  54  85 119 160 198 244 297 368
#     4  12  25  36  60  98 137 168 198 254 327 390
#     4  10  21  35  51  83 118 151 195 263 327 368
#     4  10  15  30  58  80 105 160 214 246 291 350
#     4  10  20  35  52  82 116 159 204 264 324 383
#     4   9  20  33  55  79 112 158 202 250 303 366
#     4   9  18  31  54  80 103 159 202 245 297 360
#
# _framework density 19.766984999999998
#
# number of rings (size 3 to 8) (size 9 to 14) (size 15 to 20)
#    0.000    2.182    1.818    1.091    2.545    5.091 
#    0.000    0.000    0.000    0.000  170.182    0.000 
#    0.000   42.182    0.000    0.000    0.000    0.000 
#
# Total GULP energy -122533.993688 kJ/mol
# GULP energy per Si atom -5569.726986 kJ/mol
# Density = 1.972199 g / cm^3
# Si number density = 19.766985 Si / 1000 Ang^3
#
#
#
# Elastic Constant Matrix: (Units=GPa)
#
#
# Indices 1 2 3 4 5 6 
#
# 1 142.0208 72.4843 33.9857 0.0000 0.0000 0.0000
# 2 72.4843 121.4145 35.9129 0.0000 0.0000 0.0000
# 3 33.9857 35.9129 49.1841 0.0000 0.0000 0.0000
# 4 0.0000 0.0000 0.0000 27.1283 0.0000 0.0000
# 5 0.0000 0.0000 0.0000 0.0000 12.2638 0.0000
# 6 0.0000 0.0000 0.0000 0.0000 0.0000 67.0633
#
#
#
# Elastic Compliance Matrix: (Units=1/GPa)
#
#
# Indices 1 2 3 4 5 6 
#
# 1 0.010563 -0.005290 -0.003437 0.000000 0.000000 0.000000
# 2 -0.005290 0.013154 -0.005950 0.000000 0.000000 0.000000
# 3 -0.003437 -0.005950 0.027051 0.000000 0.000000 0.000000
# 4 0.000000 0.000000 0.000000 0.036862 0.000000 0.000000
# 5 0.000000 0.000000 0.000000 0.000000 0.081541 0.000000
# 6 0.000000 0.000000 0.000000 0.000000 0.000000 0.014911
#
#
# Mechanical properties :
#
#
# Convention : Reuss Voigt Hill
#
# Bulk Modulus (GPa) = 46.69397 66.37613 56.53505
# Shear Modulus (GPa) = 22.66822 32.64018 27.65420
#
# Velocity S-wave (km/s) = 3.39008 4.06796 3.74439
# Velocity P-wave (km/s) = 6.24476 7.46436 6.88163
#
# Compressibility (1/GPa) = 0.02141604
#
# Stress axis : x y z
#
# Youngs Moduli (GPa) = 94.66604 76.02214 36.96759
#
# Poissons Ratio (x) = 0.40214 0.12705
# Poissons Ratio (y) = 0.50077 0.21994
# Poissons Ratio (z) = 0.32534 0.45230
#
# Static dielectric constant tensor:
#      x y z
#    x 1.690880 0.000000 0.000000 
#    y 0.000000 1.693260 0.000000 
#    z 0.000000 0.000000 1.685290 
# 
# From -- ./inp_files/33760.got.cif
#   From: 2010.05.17/outbox.cif.g08.bks.cpg/sg21_17_cif.got.tgz:33760.got - 2010.06.03 23:14:55.
