data_PCOD9322184
_publ_section_title
;
Structure prediction by ZEFSAII (Michael W. Deem and Ramdas Pophale) SiO2 
 PCOD9322184
Probable space group: C 2 2 21
;
_chemical_formula_sum "Si O2"
_cell_formula_units_Z 26
_cell_length_a 9.000000
_cell_length_b 18.000000
_cell_length_c 18.000000
_cell_angle_alpha 90.000000
_cell_angle_beta 90.000000
_cell_angle_gamma 90.000000
_cell_volume 2916.000000
_symmetry_space_group_name_H-M "C 2 2 21"
_symmetry_group_IT_number 20
_symmetry_cell_setting 'orthorhombic'
loop_
_space_group_symop_operation_xyz
x,y,z
-x,-y,1/2+z
x,-y,-z
-x,y,1/2-z
1/2+x,1/2+y,z
1/2-x,1/2-y,1/2+z
1/2+x,1/2-y,-z
1/2-x,1/2+y,1/2-z
loop_
_atom_site_type_symbol
_atom_site_label
_atom_site_fract_x
_atom_site_fract_y
_atom_site_fract_z
Si Si1 0.439104 0.000000 0.000000
Si Si2 0.493148 0.280843 0.931189
Si Si3 0.373223 0.828275 0.311737
Si Si4 0.091697 0.501862 0.169686
Si Si5 0.363305 0.388144 0.801779
Si Si6 0.851830 0.290922 0.798302
Si Si7 0.689983 0.834979 0.530874
O O1 0.518506 0.005198 0.084450
O O2 0.355455 0.081734 0.001849
O O3 0.570655 0.215863 0.883488
O O4 0.418187 0.338594 0.872436
O O5 0.630997 0.323387 0.970446
O O6 0.383409 0.233835 0.984712
O O7 0.500000 0.812834 0.250000
O O8 0.212396 0.792705 0.296617
O O9 0.367211 0.915717 0.321870
O O10 0.240044 0.552231 0.172149
O O11 0.000000 0.519124 0.250000
O O12 0.500000 0.417536 0.750000
O O13 0.275933 0.335597 0.744468
O O14 0.861711 0.322682 0.882546
O O15 0.000000 0.297619 0.750000
#
# Coordination Sequence:
#
# PCOD9322184 Si02
#       7
#     4   8   8   8   8   8   8
#     4  12  24  46  68  96 144 174 220 280 340 400
#     4  11  23  42  67  95 128 174 219 269 330 395
#     4  10  19  42  63  93 130 171 213 266 331 380
#     4  11  26  41  72 100 135 182 224 273 341 403
#     4  12  22  43  69  93 134 173 220 277 334 392
#     4  11  22  39  68  98 124 174 224 264 317 403
#     4  11  25  41  66  96 129 172 223 265 332 399
#
# _framework density 8.9163239999999995
#
# number of rings (size 3 to 8) (size 9 to 14) (size 15 to 20)
#    0.000    0.923    6.154    2.308    4.308    0.615 
#    0.000    3.846    0.000    0.000    0.000    0.000 
#    0.000    0.000    0.000    0.000    0.000    0.000 
#
# Total GULP energy -144749.369141 kJ/mol
# GULP energy per Si atom -5567.283429 kJ/mol
# Density = 0.889603 g / cm^3
# Si number density = 8.916324 Si / 1000 Ang^3
#
#
#
# Elastic Constant Matrix: (Units=GPa)
#
#
# Indices 1 2 3 4 5 6 
#
# 1 110.0588 62.5970 54.6715 0.0000 0.0000 0.0000
# 2 62.5970 133.5992 45.7144 0.0000 0.0000 0.0000
# 3 54.6715 45.7144 119.8113 0.0000 0.0000 0.0000
# 4 0.0000 0.0000 0.0000 30.9557 0.0000 0.0000
# 5 0.0000 0.0000 0.0000 0.0000 42.1851 0.0000
# 6 0.0000 0.0000 0.0000 0.0000 0.0000 35.4157
#
#
#
# Elastic Compliance Matrix: (Units=1/GPa)
#
#
# Indices 1 2 3 4 5 6 
#
# 1 0.014262 -0.005125 -0.004553 0.000000 0.000000 0.000000
# 2 -0.005125 0.010450 -0.001649 0.000000 0.000000 0.000000
# 3 -0.004553 -0.001649 0.011053 0.000000 0.000000 0.000000
# 4 0.000000 0.000000 0.000000 0.032304 0.000000 0.000000
# 5 0.000000 0.000000 0.000000 0.000000 0.023705 0.000000
# 6 0.000000 0.000000 0.000000 0.000000 0.000000 0.028236
#
#
# Mechanical properties :
#
#
# Convention : Reuss Voigt Hill
#
# Bulk Modulus (GPa) = 76.25948 76.60389 76.43169
# Shear Modulus (GPa) = 34.00554 35.07709 34.54131
#
# Velocity S-wave (km/s) = 4.37157 4.43992 4.40588
# Velocity P-wave (km/s) = 8.26666 8.32671 8.29674
#
# Compressibility (1/GPa) = 0.01311312
#
# Stress axis : x y z
#
# Youngs Moduli (GPa) = 70.11479 95.68979 90.47241
#
# Poissons Ratio (x) = 0.49038 0.41190
# Poissons Ratio (y) = 0.35932 0.14918
# Poissons Ratio (z) = 0.31922 0.15779
#
# Static dielectric constant tensor:
#      x y z
#    x 1.642830 0.000000 0.000000 
#    y 0.000000 1.620580 0.000000 
#    z 0.000000 0.000000 1.649190 
# 
# From -- ./inp_files/23690.got.cif
#   From: 2010.05.17/outbox.ucp.g08.bks.cvg/sg20_12_cif.got.tgz:23690.got - 2010.06.11 15:13:06.
