data_PCOD9322382
_publ_section_title
;
Structure prediction by ZEFSAII (Michael W. Deem and Ramdas Pophale) SiO2 
 PCOD9322382
Probable space group: C 2 2 2
;
_chemical_formula_sum "Si O2"
_cell_formula_units_Z 64
_cell_length_a 29.679416
_cell_length_b 8.195742
_cell_length_c 13.045694
_cell_angle_alpha 90.000000
_cell_angle_beta 90.000000
_cell_angle_gamma 90.000000
_cell_volume 3173.297701
_symmetry_space_group_name_H-M "C 2 2 2"
_symmetry_group_IT_number 21
_symmetry_cell_setting 'orthorhombic'
loop_
_space_group_symop_operation_xyz
x,y,z
-x,-y,z
x,-y,-z
-x,y,-z
1/2+x,1/2+y,z
1/2-x,1/2-y,z
1/2+x,1/2-y,-z
1/2-x,1/2+y,-z
loop_
_atom_site_type_symbol
_atom_site_label
_atom_site_fract_x
_atom_site_fract_y
_atom_site_fract_z
Si Si1 0.297283 0.198106 0.878608
Si Si2 0.641938 0.808879 0.696947
Si Si3 0.324856 0.821751 0.913874
Si Si4 0.550853 0.699962 0.773455
Si Si5 0.048221 0.812887 0.779988
Si Si6 0.855859 0.298063 0.701644
Si Si7 0.927679 0.683506 0.003267
Si Si8 0.697868 0.197727 0.500611
O O1 0.250000 0.250000 0.831885
O O2 0.336192 0.255319 0.802439
O O3 0.304321 0.002462 0.893286
O O4 0.299631 0.267331 0.993929
O O5 0.589586 0.766295 0.699433
O O6 0.670958 0.748479 0.601042
O O7 0.645998 0.004948 0.701003
O O8 0.329478 0.739205 0.803629
O O9 0.375377 0.832760 0.961183
O O10 0.549662 0.505702 0.764752
O O11 0.500286 0.758498 0.748703
O O12 0.564375 0.744470 0.890802
O O13 0.091889 0.744282 0.721292
O O14 0.051102 0.780610 0.902315
O O15 0.830478 0.242767 0.599475
O O16 0.945815 0.500000 0.000000
O O17 0.750000 0.250000 0.502596
O O18 0.697296 0.000000 0.500000
#
# Coordination Sequence:
#
# PCOD9322382 Si02
#       8
#     8   8   8   8   8   8   8   8
#     4  10  17  30  51  76 111 143 187 233 279 337
#     4  10  20  37  60  83 111 154 195 240 290 344
#     4   9  17  33  50  76 109 148 181 229 279 333
#     4  11  21  37  55  84 121 152 192 240 296 349
#     4  10  23  35  54  87 121 151 190 243 293 351
#     4   9  20  39  60  81 118 148 193 244 287 344
#     4  11  18  34  58  80 116 158 196 234 281 345
#     4  10  22  40  63  90 115 149 197 251 294 343
#
# _framework density 20.168295000000001
#
# number of rings (size 3 to 8) (size 9 to 14) (size 15 to 20)
#    0.000    2.000    2.500    2.625    0.000    5.000 
#    0.000    5.625    0.000    3.750    0.000    0.000 
#    0.000    0.000    0.000    0.000    0.000    0.000 
#
# Total GULP energy -178424.249962 kJ/mol
# GULP energy per Si atom -5575.757811 kJ/mol
# Density = 2.012239 g / cm^3
# Si number density = 20.168295 Si / 1000 Ang^3
#
#
#
# Elastic Constant Matrix: (Units=GPa)
#
#
# Indices 1 2 3 4 5 6 
#
# 1 142.5731 4.8427 67.9503 0.0000 0.0000 0.0000
# 2 4.8427 11.6205 12.0493 0.0000 0.0000 0.0000
# 3 67.9503 12.0493 136.5423 0.0000 0.0000 0.0000
# 4 0.0000 0.0000 0.0000 11.4959 0.0000 0.0000
# 5 0.0000 0.0000 0.0000 0.0000 3085.0604 0.0000
# 6 0.0000 0.0000 0.0000 0.0000 0.0000 26.9633
#
#
#
# Elastic Compliance Matrix: (Units=1/GPa)
#
#
# Indices 1 2 3 4 5 6 
#
# 1 0.009205 0.001006 -0.004670 0.000000 0.000000 0.000000
# 2 0.001006 0.094832 -0.008869 0.000000 0.000000 0.000000
# 3 -0.004670 -0.008869 0.010430 0.000000 0.000000 0.000000
# 4 0.000000 0.000000 0.000000 0.086988 0.000000 0.000000
# 5 0.000000 0.000000 0.000000 0.000000 0.000324 0.000000
# 6 0.000000 0.000000 0.000000 0.000000 0.000000 0.037088
#
#
# Mechanical properties :
#
#
# Convention : Reuss Voigt Hill
#
# Bulk Modulus (GPa) = 11.18550 51.15784 31.17167
# Shear Modulus (GPa) = 17.02224 638.43015 327.72619
#
# Velocity S-wave (km/s) = 2.90834 17.81119 12.76121
# Velocity P-wave (km/s) = 4.10317 21.17558 15.25191
#
# Compressibility (1/GPa) = 0.08940148
#
# Stress axis : x y z
#
# Youngs Moduli (GPa) = 108.63159 10.54499 95.87408
#
# Poissons Ratio (x) = -0.01061 0.44772
# Poissons Ratio (y) = -0.10928 0.85032
# Poissons Ratio (z) = 0.50729 0.09352
#
# Static dielectric constant tensor:
#      x y z
#    x 1.782450 0.000000 0.000000 
#    y 0.000000 1.484660 0.000000 
#    z 0.000000 0.000000 1.731160 
# 
# From -- ./inp_files/28082.got.cif
#   From: 2010.05.17/outbox.cif.g08.bks.cpg/sg21_15_cif.got.tgz:28082.got - 2010.06.03 23:14:55.
