data_PCOD9322501
_publ_section_title
;
Structure prediction by ZEFSAII (Michael W. Deem and Ramdas Pophale) SiO2 
 PCOD9322501
Probable space group: C 2 2 2
;
_chemical_formula_sum "Si O2"
_cell_formula_units_Z 64
_cell_length_a 14.245788
_cell_length_b 13.105479
_cell_length_c 14.758076
_cell_angle_alpha 90.000000
_cell_angle_beta 90.000000
_cell_angle_gamma 90.000000
_cell_volume 2755.301435
_symmetry_space_group_name_H-M "C 2 2 2"
_symmetry_group_IT_number 21
_symmetry_cell_setting 'orthorhombic'
loop_
_space_group_symop_operation_xyz
x,y,z
-x,-y,z
x,-y,-z
-x,y,-z
1/2+x,1/2+y,z
1/2-x,1/2-y,z
1/2+x,1/2-y,-z
1/2-x,1/2+y,-z
loop_
_atom_site_type_symbol
_atom_site_label
_atom_site_fract_x
_atom_site_fract_y
_atom_site_fract_z
Si Si1 0.114592 0.117657 0.010570
Si Si2 0.393242 0.897428 0.703184
Si Si3 0.133003 0.664137 0.502157
Si Si4 0.106657 0.805234 0.174537
Si Si5 0.347457 0.388282 0.527320
Si Si6 0.120602 0.808778 0.791323
Si Si7 0.388490 0.514828 0.291755
Si Si8 0.390488 0.883455 0.291075
O O1 0.148574 0.160659 0.107137
O O2 0.136230 0.196903 0.929684
O O3 0.000000 0.112494 0.000000
O O4 0.146935 0.000000 0.000000
O O5 0.402770 0.886671 0.593942
O O6 0.348259 0.798653 0.749417
O O7 0.500735 0.896159 0.736016
O O8 0.345806 0.005515 0.724720
O O9 0.242413 0.632789 0.505794
O O10 0.106031 0.784139 0.505526
O O11 0.109636 0.634842 0.399121
O O12 0.128893 0.921774 0.201396
O O13 0.146540 0.712400 0.234489
O O14 0.993964 0.804215 0.196720
O O15 0.383665 0.500000 0.500000
O O16 0.348832 0.406249 0.634384
O O17 0.145130 0.899361 0.720696
O O18 0.500000 0.500000 0.309232
#
# Coordination Sequence:
#
# PCOD9322501 Si02
#       8
#     8   8   8   8   8   8   8   8
#     4   9  14  24  45  73 108 143 167 206 277 351
#     4  10  20  33  51  73 100 142 185 229 269 319
#     4  11  22  37  54  71 106 143 188 230 264 336
#     4   9  16  28  47  75 105 138 174 215 274 334
#     4  11  23  36  50  76 108 139 182 225 280 329
#     4   9  17  28  48  76 109 137 171 217 275 338
#     4  10  18  32  50  74 110 141 171 220 278 336
#     4  10  19  34  52  72 100 139 189 227 269 319
#
# _framework density 23.227948999999999
#
# number of rings (size 3 to 8) (size 9 to 14) (size 15 to 20)
#    0.000    2.125    2.500    2.250    0.000    1.250 
#    2.250    0.625    0.000    3.750    0.000    0.000 
#   30.000    0.000    0.000    0.000    0.000    0.000 
#
# Total GULP energy -178380.253751 kJ/mol
# GULP energy per Si atom -5574.382930 kJ/mol
# Density = 2.317508 g / cm^3
# Si number density = 23.227949 Si / 1000 Ang^3
#
#
#
# Elastic Constant Matrix: (Units=GPa)
#
#
# Indices 1 2 3 4 5 6 
#
# 1 53.0837 13.6491 -5.8616 0.0000 0.0000 0.0000
# 2 13.6491 208.3080 57.4481 0.0000 0.0000 0.0000
# 3 -5.8616 57.4481 88.6765 0.0000 0.0000 0.0000
# 4 0.0000 0.0000 0.0000 -36.7545 0.0000 0.0000
# 5 0.0000 0.0000 0.0000 0.0000 49.7572 0.0000
# 6 0.0000 0.0000 0.0000 0.0000 0.0000 14.0009
#
#
#
# Elastic Compliance Matrix: (Units=1/GPa)
#
#
# Indices 1 2 3 4 5 6 
#
# 1 0.019640 -0.002003 0.002596 0.000000 0.000000 0.000000
# 2 -0.002003 0.006049 -0.004051 0.000000 0.000000 0.000000
# 3 0.002596 -0.004051 0.014073 0.000000 0.000000 0.000000
# 4 0.000000 0.000000 0.000000 -0.027208 0.000000 0.000000
# 5 0.000000 0.000000 0.000000 0.000000 0.020098 0.000000
# 6 0.000000 0.000000 0.000000 0.000000 0.000000 0.071424
#
#
# Mechanical properties :
#
#
# Convention : Reuss Voigt Hill
#
# Bulk Modulus (GPa) = 30.44573 53.39327 41.91950
# Shear Modulus (GPa) = 41.00347 24.38955 32.69651
#
# Velocity S-wave (km/s) = 4.20606 3.24390 3.75592
# Velocity P-wave (km/s) = 6.06001 6.08827 6.07416
#
# Compressibility (1/GPa) = 0.03284532
#
# Stress axis : x y z
#
# Youngs Moduli (GPa) = 50.91717 165.31472 71.05777
#
# Poissons Ratio (x) = 0.33108 -0.18444
# Poissons Ratio (y) = 0.10197 0.28787
# Poissons Ratio (z) = -0.13216 0.66972
#
# Static dielectric constant tensor:
#      x y z
#    x 1.963210 0.000000 0.000000 
#    y 0.000000 1.873740 0.000000 
#    z 0.000000 0.000000 1.985480 
# 
# From -- ./inp_files/31769.got.cif
#   From: 2010.05.17/outbox.cif.g08.bks.cpg/sg21_16_cif.got.tgz:31769.got - 2010.06.03 23:14:55.
