data_PCOD9322343
_publ_section_title
;
Structure prediction by ZEFSAII (Michael W. Deem and Ramdas Pophale) SiO2 
 PCOD9322343
Probable space group: C 2 2 2
;
_chemical_formula_sum "Si O2"
_cell_formula_units_Z 64
_cell_length_a 10.959065
_cell_length_b 15.264437
_cell_length_c 17.171480
_cell_angle_alpha 90.000000
_cell_angle_beta 90.000000
_cell_angle_gamma 90.000000
_cell_volume 2872.513127
_symmetry_space_group_name_H-M "C 2 2 2"
_symmetry_group_IT_number 21
_symmetry_cell_setting 'orthorhombic'
loop_
_space_group_symop_operation_xyz
x,y,z
-x,-y,z
x,-y,-z
-x,y,-z
1/2+x,1/2+y,z
1/2-x,1/2-y,z
1/2+x,1/2-y,-z
1/2-x,1/2+y,-z
loop_
_atom_site_type_symbol
_atom_site_label
_atom_site_fract_x
_atom_site_fract_y
_atom_site_fract_z
Si Si1 0.043614 0.284937 0.701120
Si Si2 0.891929 0.332249 0.549973
Si Si3 0.753334 0.345094 0.894804
Si Si4 0.200940 0.121554 0.676706
Si Si5 0.363244 0.505485 0.192145
Si Si6 0.761062 0.090172 0.049278
Si Si7 0.486737 0.102623 0.855415
Si Si8 0.359800 0.366390 0.503929
O O1 0.086593 0.183286 0.704119
O O2 0.171476 0.328432 0.676942
O O3 0.012443 0.331002 0.782700
O O4 0.943104 0.305989 0.635194
O O5 0.760442 0.380651 0.550130
O O6 0.873093 0.239778 0.503641
O O7 0.000000 0.378023 0.500000
O O8 0.750000 0.250000 0.858770
O O9 0.687380 0.414920 0.840537
O O10 0.893077 0.375025 0.904384
O O11 0.698384 0.343843 0.981988
O O12 0.214239 0.043413 0.737454
O O13 0.178265 0.099500 0.588069
O O14 0.500000 0.500000 0.219989
O O15 0.355597 0.571340 0.118330
O O16 0.636054 0.112004 0.094135
O O17 0.747206 0.000000 0.000000
O O18 0.500000 0.000000 0.831732
O O19 0.500000 0.397807 0.500000
#
# Coordination Sequence:
#
# PCOD9322343 Si02
#       8
#     8   8   8   8   8   8   8   8
#     4  11  21  34  65 102 133 178 236 302 345 439
#     4  10  16  33  56  96 134 177 233 297 357 418
#     4  11  26  45  68 104 139 180 240 297 353 441
#     4  11  20  38  64  99 136 181 237 286 356 438
#     4  11  25  45  67  97 147 190 228 296 381 429
#     4  10  21  43  73  95 129 185 234 285 358 433
#     4  12  22  43  69  98 137 181 235 291 370 419
#     4  10  18  33  59  94 137 186 232 283 367 437
#
# _framework density 22.280142999999999
#
# number of rings (size 3 to 8) (size 9 to 14) (size 15 to 20)
#    0.000    1.250    7.500    1.125    1.750    3.250 
#    6.750    0.000    0.000    0.750    0.000    0.000 
#    0.000    0.000    0.750    0.000    0.000    0.000 
#
# Total GULP energy -178515.465427 kJ/mol
# GULP energy per Si atom -5578.608295 kJ/mol
# Density = 2.222943 g / cm^3
# Si number density = 22.280143 Si / 1000 Ang^3
#
#
#
# Elastic Constant Matrix: (Units=GPa)
#
#
# Indices 1 2 3 4 5 6 
#
# 1 87.1873 11.1694 4.0777 0.0000 0.0000 0.0000
# 2 11.1694 69.0639 23.9050 0.0000 0.0000 0.0000
# 3 4.0777 23.9050 103.8807 0.0000 0.0000 0.0000
# 4 0.0000 0.0000 0.0000 8.2020 0.0000 0.0000
# 5 0.0000 0.0000 0.0000 0.0000 26.5982 0.0000
# 6 0.0000 0.0000 0.0000 0.0000 0.0000 8.1797
#
#
#
# Elastic Compliance Matrix: (Units=1/GPa)
#
#
# Indices 1 2 3 4 5 6 
#
# 1 0.011712 -0.001885 -0.000026 0.000000 0.000000 0.000000
# 2 -0.001885 0.016036 -0.003616 0.000000 0.000000 0.000000
# 3 -0.000026 -0.003616 0.010460 0.000000 0.000000 0.000000
# 4 0.000000 0.000000 0.000000 0.121921 0.000000 0.000000
# 5 0.000000 0.000000 0.000000 0.000000 0.037596 0.000000
# 6 0.000000 0.000000 0.000000 0.000000 0.000000 0.122253
#
#
# Mechanical properties :
#
#
# Convention : Reuss Voigt Hill
#
# Bulk Modulus (GPa) = 36.82810 37.60399 37.21604
# Shear Modulus (GPa) = 14.70223 23.32798 19.01511
#
# Velocity S-wave (km/s) = 2.57160 3.23930 2.92457
# Velocity P-wave (km/s) = 5.03815 5.55924 5.30510
#
# Compressibility (1/GPa) = 0.02715318
#
# Stress axis : x y z
#
# Youngs Moduli (GPa) = 85.38043 62.36010 95.60595
#
# Poissons Ratio (x) = 0.11756 0.00248
# Poissons Ratio (y) = 0.16096 0.34573
# Poissons Ratio (z) = 0.00221 0.22550
#
# Static dielectric constant tensor:
#      x y z
#    x 2.008220 0.000000 0.000000 
#    y 0.000000 1.960610 0.000000 
#    z 0.000000 0.000000 1.807210 
# 
# From -- ./inp_files/31757.got.cif
#   From: 2010.05.17/outbox.cif.g08.bks.cpg/sg21_16_cif.got.tgz:31757.got - 2010.06.03 23:14:55.
