data_PCOD9322016
_publ_section_title
;
Structure prediction by ZEFSAII (Michael W. Deem and Ramdas Pophale) SiO2 
 PCOD9322016
Probable space group: C 2 2 21
;
_chemical_formula_sum "Si O2"
_cell_formula_units_Z 24
_cell_length_a 6.921483
_cell_length_b 17.322722
_cell_length_c 6.893147
_cell_angle_alpha 90.000000
_cell_angle_beta 90.000000
_cell_angle_gamma 90.000000
_cell_volume 826.480921
_symmetry_space_group_name_H-M "C 2 2 21"
_symmetry_group_IT_number 20
_symmetry_cell_setting 'orthorhombic'
loop_
_space_group_symop_operation_xyz
x,y,z
-x,-y,1/2+z
x,-y,-z
-x,y,1/2-z
1/2+x,1/2+y,z
1/2-x,1/2-y,1/2+z
1/2+x,1/2-y,-z
1/2-x,1/2+y,1/2-z
loop_
_atom_site_type_symbol
_atom_site_label
_atom_site_fract_x
_atom_site_fract_y
_atom_site_fract_z
Si Si1 0.197051 0.670823 0.229770
Si Si2 0.018632 0.911243 0.446746
Si Si3 0.173022 0.655888 0.619664
O O1 0.337219 0.641766 0.436241
O O2 0.028373 0.670557 0.407629
O O3 0.272230 0.757427 0.191716
O O4 0.306822 0.613250 0.089119
O O5 0.847729 0.897726 0.262496
O O6 0.979638 0.000000 0.500000
O O7 0.000000 0.624334 0.750000
#
# Coordination Sequence:
#
# PCOD9322016 Si02
#       3
#     8   8   8
#     4  12  24  44  76 113 152 203 263 323 390 468
#     4  12  26  48  73 106 154 206 258 324 397 468
#     4  12  24  44  76 113 152 203 262 323 389 468
#
# _framework density 29.038786000000002
#
# number of rings (size 3 to 8) (size 9 to 14) (size 15 to 20)
#    0.000    0.000    0.000   14.000    0.000    0.000 
#    0.000   13.333    0.000    0.000    0.000    0.000 
#    0.000    0.000    0.000    0.000    0.000    0.000 
#
# Total GULP energy -67100.444967 kJ/mol
# GULP energy per Si atom -5591.703747 kJ/mol
# Density = 2.897269 g / cm^3
# Si number density = 29.038786 Si / 1000 Ang^3
#
#
#
# Elastic Constant Matrix: (Units=GPa)
#
#
# Indices 1 2 3 4 5 6 
#
# 1 355.8307 68.5582 72.6011 0.0000 0.0000 0.0000
# 2 68.5582 215.7509 78.0116 0.0000 0.0000 0.0000
# 3 72.6011 78.0116 432.9088 0.0000 0.0000 0.0000
# 4 0.0000 0.0000 0.0000 53.8709 0.0000 0.0000
# 5 0.0000 0.0000 0.0000 0.0000 82.4886 0.0000
# 6 0.0000 0.0000 0.0000 0.0000 0.0000 73.4225
#
#
#
# Elastic Compliance Matrix: (Units=1/GPa)
#
#
# Indices 1 2 3 4 5 6 
#
# 1 0.003045 -0.000838 -0.000360 0.000000 0.000000 0.000000
# 2 -0.000838 0.005188 -0.000795 0.000000 0.000000 0.000000
# 3 -0.000360 -0.000795 0.002513 0.000000 0.000000 0.000000
# 4 0.000000 0.000000 0.000000 0.018563 0.000000 0.000000
# 5 0.000000 0.000000 0.000000 0.000000 0.012123 0.000000
# 6 0.000000 0.000000 0.000000 0.000000 0.000000 0.013620
#
#
# Mechanical properties :
#
#
# Convention : Reuss Voigt Hill
#
# Bulk Modulus (GPa) = 147.85579 160.31471 154.08525
# Shear Modulus (GPa) = 81.57857 94.31103 87.94480
#
# Velocity S-wave (km/s) = 5.30603 5.70510 5.50918
# Velocity P-wave (km/s) = 9.41094 9.93602 9.67704
#
# Compressibility (1/GPa) = 0.00676335
#
# Stress axis : x y z
#
# Youngs Moduli (GPa) = 328.39679 192.73778 397.85799
#
# Poissons Ratio (x) = 0.16143 0.14313
# Poissons Ratio (y) = 0.27505 0.31610
# Poissons Ratio (z) = 0.11814 0.15313
#
# Static dielectric constant tensor:
#      x y z
#    x 2.670990 0.000000 0.000000 
#    y 0.000000 1.938040 0.000000 
#    z 0.000000 0.000000 2.244290 
# 
# From -- ./inp_files/5606.got.cif
#   From: 2010.05.17/outbox.cif.g08.bks.cpg/sg20_3_cif.got.tgz:5606.got - 2010.06.03 22:52:26.
