data_PCOD9322395
_publ_section_title
;
Structure prediction by ZEFSAII (Michael W. Deem and Ramdas Pophale) SiO2 
 PCOD9322395
Probable space group: C 2 2 2
;
_chemical_formula_sum "Si O2"
_cell_formula_units_Z 30
_cell_length_a 12.731474
_cell_length_b 11.448846
_cell_length_c 8.307976
_cell_angle_alpha 90.000000
_cell_angle_beta 90.000000
_cell_angle_gamma 90.000000
_cell_volume 1210.976274
_symmetry_space_group_name_H-M "C 2 2 2"
_symmetry_group_IT_number 21
_symmetry_cell_setting 'orthorhombic'
loop_
_space_group_symop_operation_xyz
x,y,z
-x,-y,z
x,-y,-z
-x,y,-z
1/2+x,1/2+y,z
1/2-x,1/2-y,z
1/2+x,1/2-y,-z
1/2-x,1/2+y,-z
loop_
_atom_site_type_symbol
_atom_site_label
_atom_site_fract_x
_atom_site_fract_y
_atom_site_fract_z
Si Si1 0.159303 0.500000 0.000000
Si Si2 0.867435 0.243050 0.080015
Si Si3 0.380563 0.052755 0.331365
Si Si4 0.573599 0.684261 0.259371
Si Si5 0.500000 0.500000 0.500000
O O1 0.106335 0.626777 0.018464
O O2 0.195050 0.485758 0.185356
O O3 0.750000 0.250000 0.142311
O O4 0.952049 0.201853 0.206287
O O5 0.871469 0.167342 0.915414
O O6 0.387768 0.193096 0.333654
O O7 0.500000 0.000000 0.302381
O O8 0.346861 0.000000 0.500000
O O9 0.571812 0.581335 0.386407
#
# Coordination Sequence:
#
# PCOD9322395 Si02
#       5
#     4   8   8   8   2
#     4  10  19  34  62  93 124 152 210 287 326 383
#     4  10  22  41  67  95 126 167 228 269 333 391
#     4  10  17  31  62  94 117 148 205 274 338 372
#     4  10  23  39  65  94 124 179 213 268 328 393
#     4  12  24  42  62  88 152 184 220 242 324 430
#
# _framework density 24.773401
#
# number of rings (size 3 to 8) (size 9 to 14) (size 15 to 20)
#    0.000    1.867    2.667    2.000    0.000    4.267 
#    0.000    1.333   17.600    0.000    0.000    0.000 
#    0.000    0.000    0.000    0.000    0.000    0.000 
#
# Total GULP energy -83693.478922 kJ/mol
# GULP energy per Si atom -5579.565261 kJ/mol
# Density = 2.471702 g / cm^3
# Si number density = 24.773401 Si / 1000 Ang^3
#
#
#
# Elastic Constant Matrix: (Units=GPa)
#
#
# Indices 1 2 3 4 5 6 
#
# 1 78.0420 -5.7369 8.6655 0.0000 0.0000 0.0000
# 2 -5.7369 133.4763 74.1407 0.0000 0.0000 0.0000
# 3 8.6655 74.1407 207.0684 0.0000 0.0000 0.0000
# 4 0.0000 0.0000 0.0000 59.6491 0.0000 0.0000
# 5 0.0000 0.0000 0.0000 0.0000 14.0700 0.0000
# 6 0.0000 0.0000 0.0000 0.0000 0.0000 1.3724
#
#
#
# Elastic Compliance Matrix: (Units=1/GPa)
#
#
# Indices 1 2 3 4 5 6 
#
# 1 0.012996 0.001074 -0.000929 0.000000 0.000000 0.000000
# 2 0.001074 0.009441 -0.003425 0.000000 0.000000 0.000000
# 3 -0.000929 -0.003425 0.006095 0.000000 0.000000 0.000000
# 4 0.000000 0.000000 0.000000 0.016765 0.000000 0.000000
# 5 0.000000 0.000000 0.000000 0.000000 0.071073 0.000000
# 6 0.000000 0.000000 0.000000 0.000000 0.000000 0.728633
#
#
# Mechanical properties :
#
#
# Convention : Reuss Voigt Hill
#
# Bulk Modulus (GPa) = 45.51213 63.63615 54.57414
# Shear Modulus (GPa) = 5.82150 37.78614 21.80382
#
# Velocity S-wave (km/s) = 1.53460 3.90971 2.96992
# Velocity P-wave (km/s) = 4.64233 6.79148 5.81702
#
# Compressibility (1/GPa) = 0.02197216
#
# Stress axis : x y z
#
# Youngs Moduli (GPa) = 76.94866 105.92435 164.08060
#
# Poissons Ratio (x) = -0.11380 0.15235
# Poissons Ratio (y) = -0.08267 0.56201
# Poissons Ratio (z) = 0.07145 0.36281
#
# Static dielectric constant tensor:
#      x y z
#    x 2.023880 0.000000 0.000000 
#    y 0.000000 1.972270 0.000000 
#    z 0.000000 0.000000 1.973670 
# 
# From -- ./inp_files/14058.got.cif
#   From: 2010.05.17/outbox.cif.g08.bks.cpg/sg21_8_cif.got.tgz:14058.got - 2010.06.03 23:14:55.
