data_PCOD9322982
_publ_section_title
;
Structure prediction by ZEFSAII (Michael W. Deem and Ramdas Pophale) SiO2 
 PCOD9322982
Probable space group: C 2 2 2
;
_chemical_formula_sum "Si O2"
_cell_formula_units_Z 48
_cell_length_a 18.492747
_cell_length_b 15.300069
_cell_length_c 9.347725
_cell_angle_alpha 90.000000
_cell_angle_beta 90.000000
_cell_angle_gamma 90.000000
_cell_volume 2644.848163
_symmetry_space_group_name_H-M "C 2 2 2"
_symmetry_group_IT_number 21
_symmetry_cell_setting 'orthorhombic'
loop_
_space_group_symop_operation_xyz
x,y,z
-x,-y,z
x,-y,-z
-x,y,-z
1/2+x,1/2+y,z
1/2-x,1/2-y,z
1/2+x,1/2-y,-z
1/2-x,1/2+y,-z
loop_
_atom_site_type_symbol
_atom_site_label
_atom_site_fract_x
_atom_site_fract_y
_atom_site_fract_z
Si Si1 0.588175 0.878724 0.119353
Si Si2 0.684190 0.683907 0.839413
Si Si3 0.946658 0.314053 0.184863
Si Si4 0.242870 0.154674 0.156696
Si Si5 0.396617 0.969957 0.341607
Si Si6 0.222903 0.986131 0.334747
O O1 0.533181 0.803203 0.175555
O O2 0.673531 0.865753 0.124476
O O3 0.575377 0.961013 0.223031
O O4 0.571409 0.877876 0.950710
O O5 0.750000 0.750000 0.796230
O O6 0.607412 0.733103 0.827094
O O7 0.687600 0.596455 0.744963
O O8 0.701126 0.663028 0.006066
O O9 0.925812 0.373058 0.318275
O O10 0.250000 0.250000 0.228683
O O11 0.211125 0.076803 0.250442
O O12 0.309442 0.968822 0.329290
O O13 0.415000 0.000000 0.500000
O O14 0.202090 0.000000 0.500000
#
# Coordination Sequence:
#
# PCOD9322982 Si02
#       6
#     8   8   8   8   8   8
#     4  10  20  33  53  78 111 140 185 225 270 324
#     4  11  19  35  56  81 112 147 182 221 275 325
#     4  11  20  33  53  80 111 147 180 225 269 329
#     4  10  19  37  58  82 104 141 183 233 276 316
#     4  10  20  34  51  79 118 152 180 212 272 335
#     4  10  21  35  55  83 112 145 183 227 270 322
#
# _framework density 18.148489999999999
#
# number of rings (size 3 to 8) (size 9 to 14) (size 15 to 20)
#    0.000    1.667    5.000    1.500    0.000    6.000 
#    3.000    0.000    0.000    1.000    0.000    1.167 
#    0.000    0.000    0.000    0.000    0.000    0.000 
#
# Total GULP energy -133714.360080 kJ/mol
# GULP energy per Si atom -5571.431670 kJ/mol
# Density = 1.810718 g / cm^3
# Si number density = 18.148490 Si / 1000 Ang^3
#
#
#
# Elastic Constant Matrix: (Units=GPa)
#
#
# Indices 1 2 3 4 5 6 
#
# 1 64.9519 29.5753 21.2182 0.0000 0.0000 0.0000
# 2 29.5753 122.6662 74.4006 0.0000 0.0000 0.0000
# 3 21.2182 74.4006 90.2169 0.0000 0.0000 0.0000
# 4 0.0000 0.0000 0.0000 22.5051 0.0000 0.0000
# 5 0.0000 0.0000 0.0000 0.0000 11.3276 0.0000
# 6 0.0000 0.0000 0.0000 0.0000 0.0000 25.9679
#
#
#
# Elastic Compliance Matrix: (Units=1/GPa)
#
#
# Indices 1 2 3 4 5 6 
#
# 1 0.017366 -0.003421 -0.001263 0.000000 0.000000 0.000000
# 2 -0.003421 0.016985 -0.013202 0.000000 0.000000 0.000000
# 3 -0.001263 -0.013202 0.022269 0.000000 0.000000 0.000000
# 4 0.000000 0.000000 0.000000 0.044434 0.000000 0.000000
# 5 0.000000 0.000000 0.000000 0.000000 0.088280 0.000000
# 6 0.000000 0.000000 0.000000 0.000000 0.000000 0.038509
#
#
# Mechanical properties :
#
#
# Convention : Reuss Voigt Hill
#
# Bulk Modulus (GPa) = 47.96804 58.69147 53.32976
# Shear Modulus (GPa) = 18.47976 22.13618 20.30797
#
# Velocity S-wave (km/s) = 3.19447 3.49625 3.34876
# Velocity P-wave (km/s) = 6.33202 6.97912 6.66343
#
# Compressibility (1/GPa) = 0.02084721
#
# Stress axis : x y z
#
# Youngs Moduli (GPa) = 57.58261 58.87661 44.90471
#
# Poissons Ratio (x) = 0.20141 0.05672
# Poissons Ratio (y) = 0.19699 0.59285
# Poissons Ratio (z) = 0.07274 0.77732
#
# Static dielectric constant tensor:
#      x y z
#    x 1.675300 0.000000 0.000000 
#    y 0.000000 1.643600 0.000000 
#    z 0.000000 0.000000 1.634510 
# 
# From -- ./inp_files/14996.got.cif
#   From: 2010.05.17/outbox.cif.g08.bks.cpg/sg21_8_cif.got.tgz:14996.got - 2010.06.03 23:14:55.
