data_PCOD9322253
_publ_section_title
;
Structure prediction by ZEFSAII (Michael W. Deem and Ramdas Pophale) SiO2 
 PCOD9322253
Probable space group: C 2 2 21
;
_chemical_formula_sum "Si O2"
_cell_formula_units_Z 24
_cell_length_a 15.000000
_cell_length_b 18.000000
_cell_length_c 9.000000
_cell_angle_alpha 90.000000
_cell_angle_beta 90.000000
_cell_angle_gamma 90.000000
_cell_volume 2430.000000
_symmetry_space_group_name_H-M "C 2 2 21"
_symmetry_group_IT_number 20
_symmetry_cell_setting 'orthorhombic'
loop_
_space_group_symop_operation_xyz
x,y,z
-x,-y,1/2+z
x,-y,-z
-x,y,1/2-z
1/2+x,1/2+y,z
1/2-x,1/2-y,1/2+z
1/2+x,1/2-y,-z
1/2-x,1/2+y,1/2-z
loop_
_atom_site_type_symbol
_atom_site_label
_atom_site_fract_x
_atom_site_fract_y
_atom_site_fract_z
Si Si1 0.654107 0.293611 0.527243
Si Si2 0.283579 0.575510 0.233942
Si Si3 0.421612 0.061050 0.371350
Si Si4 0.189735 0.168194 0.983481
Si Si5 0.023332 0.271243 0.927409
Si Si6 0.891544 0.078686 0.785852
O O1 0.686089 0.345742 0.661056
O O2 0.732894 0.231833 0.504152
O O3 0.565452 0.243192 0.522686
O O4 0.624555 0.362116 0.418010
O O5 0.180356 0.559493 0.190683
O O6 0.291507 0.601201 0.403247
O O7 0.347484 0.504252 0.196051
O O8 0.500000 0.047530 0.250000
O O9 0.440810 0.144542 0.430859
O O10 0.428230 0.000000 0.500000
O O11 0.098348 0.216058 0.990635
O O12 0.169562 0.120836 0.835515
O O13 0.000000 0.257138 0.750000
O O14 0.000000 0.073249 0.750000
#
# Coordination Sequence:
#
# PCOD9322253 Si02
#       6
#     8   8   8   8   8   8
#     4  12  23  44  71 100 136 183 232 291 351 415
#     4  12  28  41  69 110 142 174 232 297 357 423
#     4  11  25  50  73 101 145 188 239 300 361 424
#     4  12  23  44  70 101 135 183 235 281 351 431
#     4  11  22  45  72  97 138 187 237 292 348 422
#     4  12  26  47  70  97 145 187 226 292 363 422
#
# _framework density 9.8765429999999999
#
# number of rings (size 3 to 8) (size 9 to 14) (size 15 to 20)
#    0.000    0.333    5.000    5.000    2.333    4.000 
#    3.000    0.000    0.000    0.000    0.000    0.000 
#    0.000    0.000    0.000    0.000    0.000    0.000 
#
# Total GULP energy -133693.548527 kJ/mol
# GULP energy per Si atom -5570.564522 kJ/mol
# Density = 0.985406 g / cm^3
# Si number density = 9.876543 Si / 1000 Ang^3
#
#
#
# Elastic Constant Matrix: (Units=GPa)
#
#
# Indices 1 2 3 4 5 6 
#
# 1 161.6858 38.7559 13.9824 0.0000 0.0000 0.0000
# 2 38.7559 119.9706 3.6914 0.0000 0.0000 0.0000
# 3 13.9824 3.6914 19.0603 0.0000 0.0000 0.0000
# 4 0.0000 0.0000 0.0000 47.8515 0.0000 0.0000
# 5 0.0000 0.0000 0.0000 0.0000 30.3824 0.0000
# 6 0.0000 0.0000 0.0000 0.0000 0.0000 155.9434
#
#
#
# Elastic Compliance Matrix: (Units=1/GPa)
#
#
# Indices 1 2 3 4 5 6 
#
# 1 0.007116 -0.002151 -0.004804 0.000000 0.000000 0.000000
# 2 -0.002151 0.009036 -0.000172 0.000000 0.000000 0.000000
# 3 -0.004804 -0.000172 0.056022 0.000000 0.000000 0.000000
# 4 0.000000 0.000000 0.000000 0.020898 0.000000 0.000000
# 5 0.000000 0.000000 0.000000 0.000000 0.032914 0.000000
# 6 0.000000 0.000000 0.000000 0.000000 0.000000 0.006413
#
#
# Mechanical properties :
#
#
# Convention : Reuss Voigt Hill
#
# Bulk Modulus (GPa) = 17.26501 45.95291 31.60896
# Shear Modulus (GPa) = 30.12818 63.12125 46.62472
#
# Velocity S-wave (km/s) = 3.90967 5.65902 4.86364
# Velocity P-wave (km/s) = 5.39815 8.12487 6.89759
#
# Compressibility (1/GPa) = 0.05792060
#
# Stress axis : x y z
#
# Youngs Moduli (GPa) = 140.53208 110.67442 17.85008
#
# Poissons Ratio (x) = 0.23805 0.08574
# Poissons Ratio (y) = 0.30227 0.00307
# Poissons Ratio (z) = 0.67505 0.01903
#
# Static dielectric constant tensor:
#      x y z
#    x 1.692980 0.000000 0.000000 
#    y 0.000000 1.669590 0.000000 
#    z 0.000000 0.000000 1.810620 
# 
# From -- ./inp_files/8411.got.cif
#   From: 2010.05.17/outbox.ucp.g08.bks.cvg/sg20_5_cif.got.tgz:8411.got - 2010.06.11 15:13:06.
