data_PCOD9322762
_publ_section_title
;
Structure prediction by ZEFSAII (Michael W. Deem and Ramdas Pophale) SiO2 
 PCOD9322762
Probable space group: C 2 2 2
;
_chemical_formula_sum "Si O2"
_cell_formula_units_Z 52
_cell_length_a 23.218456
_cell_length_b 11.876396
_cell_length_c 9.604858
_cell_angle_alpha 90.000000
_cell_angle_beta 90.000000
_cell_angle_gamma 90.000000
_cell_volume 2648.554750
_symmetry_space_group_name_H-M "C 2 2 2"
_symmetry_group_IT_number 21
_symmetry_cell_setting 'orthorhombic'
loop_
_space_group_symop_operation_xyz
x,y,z
-x,-y,z
x,-y,-z
-x,y,-z
1/2+x,1/2+y,z
1/2-x,1/2-y,z
1/2+x,1/2-y,-z
1/2-x,1/2+y,-z
loop_
_atom_site_type_symbol
_atom_site_label
_atom_site_fract_x
_atom_site_fract_y
_atom_site_fract_z
Si Si1 0.601833 0.500000 0.500000
Si Si2 0.208226 0.598278 0.662283
Si Si3 0.827428 0.996596 0.227383
Si Si4 0.815417 0.234242 0.096530
Si Si5 0.665250 0.135758 0.382786
Si Si6 0.561871 0.749611 0.443318
Si Si7 0.872226 0.243240 0.825402
O O1 0.641927 0.468107 0.370246
O O2 0.568047 0.614185 0.463373
O O3 0.264383 0.548859 0.733765
O O4 0.215380 0.633155 0.500877
O O5 0.161703 0.495826 0.659086
O O6 0.181630 0.702102 0.743826
O O7 0.863813 0.890891 0.173432
O O8 0.823827 0.102468 0.127105
O O9 0.750000 0.250000 0.043155
O O10 0.820480 0.296742 0.244130
O O11 0.862362 0.278334 0.985166
O O12 0.610992 0.189124 0.463723
O O13 0.500000 0.785178 0.500000
O O14 0.575175 0.771204 0.279037
#
# Coordination Sequence:
#
# PCOD9322762 Si02
#       7
#     4   8   8   8   8   8   8
#     4  10  19  32  60  90 114 146 205 258 306 366
#     4  10  20  38  55  85 122 162 200 246 299 370
#     4  11  20  34  58  85 126 162 191 245 308 382
#     4  12  22  35  56  91 128 167 192 241 317 395
#     4  10  21  36  57  84 116 151 212 255 295 363
#     4  10  21  41  62  83 111 158 209 272 312 352
#     4  10  24  37  54  85 124 158 203 243 306 384
#
# _framework density 19.63335
#
# number of rings (size 3 to 8) (size 9 to 14) (size 15 to 20)
#    0.000    1.538    3.077    3.000    0.000    0.615 
#    0.000    6.923    0.000    0.000    0.000    6.462 
#    0.000    0.000    0.000    0.000    0.000    0.000 
#
# Total GULP energy -145016.538473 kJ/mol
# GULP energy per Si atom -5577.559172 kJ/mol
# Density = 1.958866 g / cm^3
# Si number density = 19.633350 Si / 1000 Ang^3
#
#
#
# Elastic Constant Matrix: (Units=GPa)
#
#
# Indices 1 2 3 4 5 6 
#
# 1 67.6709 1.5920 25.7365 0.0000 0.0000 0.0000
# 2 1.5920 70.8044 16.5419 0.0000 0.0000 0.0000
# 3 25.7365 16.5419 122.0107 0.0000 0.0000 0.0000
# 4 0.0000 0.0000 0.0000 15.1542 0.0000 0.0000
# 5 0.0000 0.0000 0.0000 0.0000 33.8151 0.0000
# 6 0.0000 0.0000 0.0000 0.0000 0.0000 16.1091
#
#
#
# Elastic Compliance Matrix: (Units=1/GPa)
#
#
# Indices 1 2 3 4 5 6 
#
# 1 0.016080 0.000445 -0.003452 0.000000 0.000000 0.000000
# 2 0.000445 0.014598 -0.002073 0.000000 0.000000 0.000000
# 3 -0.003452 -0.002073 0.009205 0.000000 0.000000 0.000000
# 4 0.000000 0.000000 0.000000 0.065988 0.000000 0.000000
# 5 0.000000 0.000000 0.000000 0.000000 0.029573 0.000000
# 6 0.000000 0.000000 0.000000 0.000000 0.000000 0.062077
#
#
# Mechanical properties :
#
#
# Convention : Reuss Voigt Hill
#
# Bulk Modulus (GPa) = 33.64455 38.69187 36.16821
# Shear Modulus (GPa) = 22.97914 27.45670 25.21792
#
# Velocity S-wave (km/s) = 3.42484 3.74367 3.58780
# Velocity P-wave (km/s) = 5.72827 6.19974 5.96866
#
# Compressibility (1/GPa) = 0.02972250
#
# Stress axis : x y z
#
# Youngs Moduli (GPa) = 62.18957 68.50381 108.63376
#
# Poissons Ratio (x) = -0.03048 0.37502
# Poissons Ratio (y) = -0.02767 0.22520
# Poissons Ratio (z) = 0.21469 0.14201
#
# Static dielectric constant tensor:
#      x y z
#    x 1.682080 0.000000 0.000000 
#    y 0.000000 1.726510 0.000000 
#    z 0.000000 0.000000 1.747550 
# 
# From -- ./inp_files/19118.got.cif
#   From: 2010.05.17/outbox.cif.g08.bks.cpg/sg21_10_cif.got.tgz:19118.got - 2010.06.03 23:14:55.
