data_PCOD9322673
_publ_section_title
;
Structure prediction by ZEFSAII (Michael W. Deem and Ramdas Pophale) SiO2 
 PCOD9322673
Probable space group: C 2 2 2
;
_chemical_formula_sum "Si O2"
_cell_formula_units_Z 40
_cell_length_a 14.548177
_cell_length_b 32.990963
_cell_length_c 4.988191
_cell_angle_alpha 90.000000
_cell_angle_beta 90.000000
_cell_angle_gamma 90.000000
_cell_volume 2394.124017
_symmetry_space_group_name_H-M "C 2 2 2"
_symmetry_group_IT_number 21
_symmetry_cell_setting 'orthorhombic'
loop_
_space_group_symop_operation_xyz
x,y,z
-x,-y,z
x,-y,-z
-x,y,-z
1/2+x,1/2+y,z
1/2-x,1/2-y,z
1/2+x,1/2-y,-z
1/2-x,1/2+y,-z
loop_
_atom_site_type_symbol
_atom_site_label
_atom_site_fract_x
_atom_site_fract_y
_atom_site_fract_z
Si Si1 0.215787 0.179294 0.619709
Si Si2 0.609623 0.598750 0.462373
Si Si3 0.558018 0.257113 0.234058
Si Si4 0.807505 0.291911 0.890130
Si Si5 0.610310 0.545385 0.962461
O O1 0.164855 0.139250 0.524544
O O2 0.139704 0.215001 0.647797
O O3 0.257641 0.176364 0.915136
O O4 0.295830 0.192215 0.410986
O O5 0.500000 0.607162 0.500000
O O6 0.630671 0.563181 0.673028
O O7 0.635049 0.579717 0.177352
O O8 0.500000 0.245757 0.500000
O O9 0.600827 0.221398 0.048201
O O10 0.500000 0.280563 0.000000
O O11 0.750000 0.250000 0.890900
O O12 0.647763 0.500000 0.000000
O O13 0.500000 0.542236 0.000000
#
# Coordination Sequence:
#
# PCOD9322673 Si02
#       5
#     8   8   8   8   8
#     4  11  20  32  46  65  92 117 149 195 239 268
#     4  10  19  28  43  64  84 112 152 190 223 257
#     4  11  21  33  50  68  87 118 162 201 231 269
#     4  10  20  33  46  62  88 120 148 185 238 283
#     4   9  17  29  42  58  83 113 146 184 221 260
#
# _framework density 16.707571000000002
#
# number of rings (size 3 to 8) (size 9 to 14) (size 15 to 20)
#    0.000    1.800    0.000    7.800    0.000    4.800 
#    0.000    0.000    0.000    0.000    0.000    0.000 
#    0.000    0.000    0.000    0.000    0.000  210.000 
#
# Total GULP energy -111410.139428 kJ/mol
# GULP energy per Si atom -5570.506971 kJ/mol
# Density = 1.666954 g / cm^3
# Si number density = 16.707571 Si / 1000 Ang^3
#
#
#
# Elastic Constant Matrix: (Units=GPa)
#
#
# Indices 1 2 3 4 5 6 
#
# 1 35.3066 7.2143 8.4448 0.0000 0.0000 0.0000
# 2 7.2143 55.9834 -10.8253 0.0000 0.0000 0.0000
# 3 8.4448 -10.8253 68.4402 0.0000 0.0000 0.0000
# 4 0.0000 0.0000 0.0000 449.9150 0.0000 0.0000
# 5 0.0000 0.0000 0.0000 0.0000 29.0014 0.0000
# 6 0.0000 0.0000 0.0000 0.0000 0.0000 7.0002
#
#
#
# Elastic Compliance Matrix: (Units=1/GPa)
#
#
# Indices 1 2 3 4 5 6 
#
# 1 0.030379 -0.004786 -0.004505 0.000000 0.000000 0.000000
# 2 -0.004786 0.019180 0.003624 0.000000 0.000000 0.000000
# 3 -0.004505 0.003624 0.015740 0.000000 0.000000 0.000000
# 4 0.000000 0.000000 0.000000 0.002223 0.000000 0.000000
# 5 0.000000 0.000000 0.000000 0.000000 0.034481 0.000000
# 6 0.000000 0.000000 0.000000 0.000000 0.000000 0.142854
#
#
# Mechanical properties :
#
#
# Convention : Reuss Voigt Hill
#
# Bulk Modulus (GPa) = 18.53051 18.82198 18.67625
# Shear Modulus (GPa) = 18.23622 107.50975 62.87298
#
# Velocity S-wave (km/s) = 3.30736 8.03042 6.14110
# Velocity P-wave (km/s) = 5.06952 9.86273 7.84135
#
# Compressibility (1/GPa) = 0.05396506
#
# Stress axis : x y z
#
# Youngs Moduli (GPa) = 32.91757 52.13769 63.53055
#
# Poissons Ratio (x) = 0.24953 0.28623
# Poissons Ratio (y) = 0.15754 -0.23025
# Poissons Ratio (z) = 0.14831 -0.18896
#
# Static dielectric constant tensor:
#      x y z
#    x 1.620080 0.000000 0.000000 
#    y 0.000000 1.548160 0.000000 
#    z 0.000000 0.000000 1.605110 
# 
# From -- ./inp_files/3972.got.cif
#   From: 2010.05.17/outbox.cif.g08.bks.cpg/sg21_2_cif.got.tgz:3972.got - 2010.06.03 23:14:55.
