data_PCOD9322918
_publ_section_title
;
Structure prediction by ZEFSAII (Michael W. Deem and Ramdas Pophale) SiO2 
 PCOD9322918
Probable space group: C 2 2 2
;
_chemical_formula_sum "Si O2"
_cell_formula_units_Z 52
_cell_length_a 20.601877
_cell_length_b 5.293222
_cell_length_c 22.635333
_cell_angle_alpha 90.000000
_cell_angle_beta 90.000000
_cell_angle_gamma 90.000000
_cell_volume 2468.390048
_symmetry_space_group_name_H-M "C 2 2 2"
_symmetry_group_IT_number 21
_symmetry_cell_setting 'orthorhombic'
loop_
_space_group_symop_operation_xyz
x,y,z
-x,-y,z
x,-y,-z
-x,y,-z
1/2+x,1/2+y,z
1/2-x,1/2-y,z
1/2+x,1/2-y,-z
1/2-x,1/2+y,-z
loop_
_atom_site_type_symbol
_atom_site_label
_atom_site_fract_x
_atom_site_fract_y
_atom_site_fract_z
Si Si1 0.426430 0.251709 0.025977
Si Si2 0.571522 0.412269 0.432543
Si Si3 0.380156 0.831775 0.219510
Si Si4 0.932624 0.850228 0.164723
Si Si5 0.575027 0.950448 0.662719
Si Si6 0.750000 0.250000 0.265732
Si Si7 0.183254 0.143530 0.355010
O O1 0.431378 0.272084 0.096103
O O2 0.393704 0.500000 0.000000
O O3 0.500000 0.250978 0.000000
O O4 0.395325 0.000000 0.000000
O O5 0.500000 0.500000 0.409062
O O6 0.571714 0.500000 0.500000
O O7 0.576739 0.129353 0.406534
O O8 0.635885 0.522119 0.402880
O O9 0.384460 0.580861 0.179692
O O10 0.408762 0.756569 0.284347
O O11 0.304276 0.887914 0.227350
O O12 0.417860 0.085705 0.198389
O O13 0.000000 0.000000 0.177742
O O14 0.500000 0.000000 0.673628
O O15 0.632947 0.151105 0.671370
O O16 0.712958 0.450772 0.307266
O O17 0.250000 0.250000 0.382558
#
# Coordination Sequence:
#
# PCOD9322918 Si02
#       7
#     8   8   8   8   8   4   8
#     4  10  19  35  64  92 145 190 227 288 360 447
#     4  11  25  46  71 103 138 185 245 310 379 466
#     4  12  27  41  68 100 150 191 243 309 360 450
#     4  12  24  41  64 112 148 186 238 296 372 443
#     4  12  24  43  71 102 140 193 236 305 390 452
#     4  12  26  46  70  98 140 208 252 298 372 448
#     4  12  23  46  73  98 139 186 259 299 376 455
#
# _framework density 21.066364
#
# number of rings (size 3 to 8) (size 9 to 14) (size 15 to 20)
#    0.000    0.462    6.154    3.231    2.154    1.231 
#    4.154    0.000    0.000    0.000    0.000   10.769 
#    0.000    0.000    0.000    0.000    0.000    0.000 
#
# Total GULP energy -144781.902121 kJ/mol
# GULP energy per Si atom -5568.534697 kJ/mol
# Density = 2.101842 g / cm^3
# Si number density = 21.066364 Si / 1000 Ang^3
#
#
#
# Elastic Constant Matrix: (Units=GPa)
#
#
# Indices 1 2 3 4 5 6 
#
# 1 155.7549 37.7187 38.0879 0.0000 0.0000 0.0000
# 2 37.7187 122.8781 36.4226 0.0000 0.0000 0.0000
# 3 38.0879 36.4226 105.3748 0.0000 0.0000 0.0000
# 4 0.0000 0.0000 0.0000 18.0593 0.0000 0.0000
# 5 0.0000 0.0000 0.0000 0.0000 -13.7663 0.0000
# 6 0.0000 0.0000 0.0000 0.0000 0.0000 37.1620
#
#
#
# Elastic Compliance Matrix: (Units=1/GPa)
#
#
# Indices 1 2 3 4 5 6 
#
# 1 0.007325 -0.001631 -0.002084 0.000000 0.000000 0.000000
# 2 -0.001631 0.009430 -0.002670 0.000000 0.000000 0.000000
# 3 -0.002084 -0.002670 0.011166 0.000000 0.000000 0.000000
# 4 0.000000 0.000000 0.000000 0.055373 0.000000 0.000000
# 5 0.000000 0.000000 0.000000 0.000000 -0.072641 0.000000
# 6 0.000000 0.000000 0.000000 0.000000 0.000000 0.026909
#
#
# Mechanical properties :
#
#
# Convention : Reuss Voigt Hill
#
# Bulk Modulus (GPa) = 65.99957 67.60735 66.80346
# Shear Modulus (GPa) = 90.28123 26.40956 58.34540
#
# Velocity S-wave (km/s) = 6.55352 3.54451 5.26841
# Velocity P-wave (km/s) = 9.41606 6.99383 8.29385
#
# Compressibility (1/GPa) = 0.01515161
#
# Stress axis : x y z
#
# Youngs Moduli (GPa) = 136.52154 106.04270 89.55692
#
# Poissons Ratio (x) = 0.17293 0.18663
# Poissons Ratio (y) = 0.22263 0.23912
# Poissons Ratio (z) = 0.28450 0.28314
#
# Static dielectric constant tensor:
#      x y z
#    x 1.775610 0.000000 0.000000 
#    y 0.000000 2.065350 0.000000 
#    z 0.000000 0.000000 1.795840 
# 
# From -- ./inp_files/37842.got.cif
#   From: 2010.05.17/outbox.cif.g08.bks.cpg/sg21_19_cif.got.tgz:37842.got - 2010.06.03 23:14:55.
