data_PCOD9322691
_publ_section_title
;
Structure prediction by ZEFSAII (Michael W. Deem and Ramdas Pophale) SiO2 
 PCOD9322691
Probable space group: C 2 2 2
;
_chemical_formula_sum "Si O2"
_cell_formula_units_Z 40
_cell_length_a 33.554970
_cell_length_b 4.995477
_cell_length_c 13.089679
_cell_angle_alpha 90.000000
_cell_angle_beta 90.000000
_cell_angle_gamma 90.000000
_cell_volume 2194.132322
_symmetry_space_group_name_H-M "C 2 2 2"
_symmetry_group_IT_number 21
_symmetry_cell_setting 'orthorhombic'
loop_
_space_group_symop_operation_xyz
x,y,z
-x,-y,z
x,-y,-z
-x,y,-z
1/2+x,1/2+y,z
1/2-x,1/2-y,z
1/2+x,1/2-y,-z
1/2-x,1/2+y,-z
loop_
_atom_site_type_symbol
_atom_site_label
_atom_site_fract_x
_atom_site_fract_y
_atom_site_fract_z
Si Si1 0.044096 0.909615 0.830345
Si Si2 0.092706 0.576168 0.110521
Si Si3 0.920936 0.026023 0.614725
Si Si4 0.371558 0.022129 0.676663
Si Si5 0.206737 0.253712 0.575483
O O1 0.055110 0.620455 0.872948
O O2 0.049741 0.898308 0.707165
O O3 0.076338 0.123555 0.873690
O O4 0.000000 0.000000 0.856804
O O5 0.122915 0.501708 0.201747
O O6 0.109133 0.500000 0.000000
O O7 0.884435 0.242112 0.623742
O O8 0.936822 0.000000 0.500000
O O9 0.904520 0.734057 0.641048
O O10 0.330061 0.157719 0.645497
O O11 0.211516 0.500000 0.500000
O O12 0.250000 0.250000 0.630172
O O13 0.199400 0.000000 0.500000
#
# Coordination Sequence:
#
# PCOD9322691 Si02
#       5
#     8   8   8   8   8
#     4  10  21  34  49  72  97 123 161 205 248 293
#     4  10  21  35  51  71  93 125 166 205 247 286
#     4  10  19  31  49  70  96 130 161 191 235 289
#     4  10  19  32  49  71  98 126 161 198 232 283
#     4  10  19  30  48  76 105 130 156 190 237 289
#
# _framework density 18.230442
#
# number of rings (size 3 to 8) (size 9 to 14) (size 15 to 20)
#    0.000    2.000    0.000    4.800    0.000    2.800 
#    0.000    0.000    0.000    7.200    0.000   12.600 
#    0.000    0.000    0.000    0.000    0.000    0.000 
#
# Total GULP energy -111484.452075 kJ/mol
# GULP energy per Si atom -5574.222604 kJ/mol
# Density = 1.818895 g / cm^3
# Si number density = 18.230442 Si / 1000 Ang^3
#
#
#
# Elastic Constant Matrix: (Units=GPa)
#
#
# Indices 1 2 3 4 5 6 
#
# 1 49.4569 -9.7778 -3.7735 0.0000 0.0000 0.0000
# 2 -9.7778 87.1575 8.2584 0.0000 0.0000 0.0000
# 3 -3.7735 8.2584 90.5071 0.0000 0.0000 0.0000
# 4 0.0000 0.0000 0.0000 17.9823 0.0000 0.0000
# 5 0.0000 0.0000 0.0000 0.0000 3.3136 0.0000
# 6 0.0000 0.0000 0.0000 0.0000 0.0000 19.9465
#
#
#
# Elastic Compliance Matrix: (Units=1/GPa)
#
#
# Indices 1 2 3 4 5 6 
#
# 1 0.020717 0.002262 0.000657 0.000000 0.000000 0.000000
# 2 0.002262 0.011820 -0.000984 0.000000 0.000000 0.000000
# 3 0.000657 -0.000984 0.011166 0.000000 0.000000 0.000000
# 4 0.000000 0.000000 0.000000 0.055610 0.000000 0.000000
# 5 0.000000 0.000000 0.000000 0.000000 0.301788 0.000000
# 6 0.000000 0.000000 0.000000 0.000000 0.000000 0.050134
#
#
# Mechanical properties :
#
#
# Convention : Reuss Voigt Hill
#
# Bulk Modulus (GPa) = 21.02015 24.05953 22.53984
# Shear Modulus (GPa) = 10.79392 23.74276 17.26834
#
# Velocity S-wave (km/s) = 2.43591 3.61275 3.08104
# Velocity P-wave (km/s) = 4.41213 5.53432 5.00478
#
# Compressibility (1/GPa) = 0.04757339
#
# Stress axis : x y z
#
# Youngs Moduli (GPa) = 48.26966 84.59887 89.55696
#
# Poissons Ratio (x) = -0.19135 -0.05887
# Poissons Ratio (y) = -0.10918 0.08815
# Poissons Ratio (z) = -0.03173 0.08327
#
# Static dielectric constant tensor:
#      x y z
#    x 1.684560 0.000000 0.000000 
#    y 0.000000 1.627380 0.000000 
#    z 0.000000 0.000000 1.674310 
# 
# From -- ./inp_files/33916.got.cif
#   From: 2010.05.17/outbox.cif.g08.bks.cpg/sg21_17_cif.got.tgz:33916.got - 2010.06.03 23:14:55.
