data_PCOD9322677
_publ_section_title
;
Structure prediction by ZEFSAII (Michael W. Deem and Ramdas Pophale) SiO2 
 PCOD9322677
Probable space group: C 2 2 2
;
_chemical_formula_sum "Si O2"
_cell_formula_units_Z 50
_cell_length_a 22.730607
_cell_length_b 26.068152
_cell_length_c 5.259121
_cell_angle_alpha 90.000000
_cell_angle_beta 90.000000
_cell_angle_gamma 90.000000
_cell_volume 3116.265423
_symmetry_space_group_name_H-M "C 2 2 2"
_symmetry_group_IT_number 21
_symmetry_cell_setting 'orthorhombic'
loop_
_space_group_symop_operation_xyz
x,y,z
-x,-y,z
x,-y,-z
-x,y,-z
1/2+x,1/2+y,z
1/2-x,1/2-y,z
1/2+x,1/2-y,-z
1/2-x,1/2+y,-z
loop_
_atom_site_type_symbol
_atom_site_label
_atom_site_fract_x
_atom_site_fract_y
_atom_site_fract_z
Si Si1 0.133307 0.837158 0.455974
Si Si2 0.225427 0.000000 0.500000
Si Si3 0.340251 0.280457 0.044439
Si Si4 0.500000 0.500000 0.500000
Si Si5 0.708800 0.828566 0.062719
Si Si6 0.355522 0.500000 0.000000
Si Si7 0.236150 0.387105 0.555321
Si Si8 0.058034 0.082906 0.845233
O O1 0.125463 0.810859 0.731421
O O2 0.195209 0.868333 0.455114
O O3 0.084211 0.874985 0.343770
O O4 0.138934 0.794228 0.237590
O O5 0.184340 0.000299 0.250742
O O6 0.262624 0.948058 0.473597
O O7 0.335511 0.219383 0.070976
O O8 0.273961 0.302896 0.065033
O O9 0.538519 0.535525 0.674361
O O10 0.704524 0.861820 0.315287
O O11 0.708811 0.864037 0.812977
O O12 0.392460 0.553757 0.987343
O O13 0.000000 0.099790 0.000000
#
# Coordination Sequence:
#
# PCOD9322677 Si02
#       8
#     8   4   8   2   8   4   8   8
#     4  10  21  31  48  66  83 110 150 194 245 283
#     4  12  23  32  49  68  96 120 156 198 227 290
#     4   9  18  32  48  66  84 105 139 190 237 292
#     4  12  24  40  48  62  88 126 164 206 256 300
#     4   9  17  31  47  65  87 110 138 177 239 287
#     4  12  23  36  48  60  86 126 164 198 242 292
#     4  10  19  29  46  67  89 117 143 182 230 284
#     4  12  25  35  49  64  86 122 165 208 253 298
#
# _framework density 16.044847000000001
#
# number of rings (size 3 to 8) (size 9 to 14) (size 15 to 20)
#    0.000    1.600    3.200    2.400    6.720    3.840 
#    0.000    0.000    0.000    0.000    0.000    0.000 
#    0.000    0.000    0.000    0.000    0.000    0.000 
#
# Total GULP energy -139477.793920 kJ/mol
# GULP energy per Si atom -5579.111757 kJ/mol
# Density = 1.600833 g / cm^3
# Si number density = 16.044847 Si / 1000 Ang^3
#
#
#
# Elastic Constant Matrix: (Units=GPa)
#
#
# Indices 1 2 3 4 5 6 
#
# 1 10.2776 17.2782 0.3038 0.0000 0.0000 0.0000
# 2 17.2782 122.0905 37.2817 0.0000 0.0000 0.0000
# 3 0.3038 37.2817 89.1112 0.0000 0.0000 0.0000
# 4 0.0000 0.0000 0.0000 36.7382 0.0000 0.0000
# 5 0.0000 0.0000 0.0000 0.0000 10.5163 0.0000
# 6 0.0000 0.0000 0.0000 0.0000 0.0000 21.2144
#
#
#
# Elastic Compliance Matrix: (Units=1/GPa)
#
#
# Indices 1 2 3 4 5 6 
#
# 1 0.133080 -0.021433 0.008513 0.000000 0.000000 0.000000
# 2 -0.021433 0.012842 -0.005300 0.000000 0.000000 0.000000
# 3 0.008513 -0.005300 0.013410 0.000000 0.000000 0.000000
# 4 0.000000 0.000000 0.000000 0.027220 0.000000 0.000000
# 5 0.000000 0.000000 0.000000 0.000000 0.095091 0.000000
# 6 0.000000 0.000000 0.000000 0.000000 0.000000 0.047138
#
#
# Mechanical properties :
#
#
# Convention : Reuss Voigt Hill
#
# Bulk Modulus (GPa) = 8.13713 36.80072 22.46893
# Shear Modulus (GPa) = 12.30970 24.80148 18.55559
#
# Velocity S-wave (km/s) = 2.77285 3.93588 3.40440
# Velocity P-wave (km/s) = 3.91588 6.60612 5.43024
#
# Compressibility (1/GPa) = 0.12289340
#
# Stress axis : x y z
#
# Youngs Moduli (GPa) = 7.51428 77.86851 74.57023
#
# Poissons Ratio (x) = 1.66896 -0.63484
# Poissons Ratio (y) = 0.16105 0.39520
# Poissons Ratio (z) = -0.06397 0.41268
#
# Static dielectric constant tensor:
#      x y z
#    x 1.527400 0.000000 0.000000 
#    y 0.000000 1.550750 0.000000 
#    z 0.000000 0.000000 1.510880 
# 
# From -- ./inp_files/6068.got.cif
#   From: 2010.05.17/outbox.cif.g08.bks.cpg/sg21_4_cif.got.tgz:6068.got - 2010.06.03 23:14:55.
