data_PCOD9322556
_publ_section_title
;
Structure prediction by ZEFSAII (Michael W. Deem and Ramdas Pophale) SiO2 
 PCOD9322556
Probable space group: C 2 2 2
;
_chemical_formula_sum "Si O2"
_cell_formula_units_Z 46
_cell_length_a 23.109690
_cell_length_b 12.865846
_cell_length_c 8.420290
_cell_angle_alpha 90.000000
_cell_angle_beta 90.000000
_cell_angle_gamma 90.000000
_cell_volume 2503.568725
_symmetry_space_group_name_H-M "C 2 2 2"
_symmetry_group_IT_number 21
_symmetry_cell_setting 'orthorhombic'
loop_
_space_group_symop_operation_xyz
x,y,z
-x,-y,z
x,-y,-z
-x,y,-z
1/2+x,1/2+y,z
1/2-x,1/2-y,z
1/2+x,1/2-y,-z
1/2-x,1/2+y,-z
loop_
_atom_site_type_symbol
_atom_site_label
_atom_site_fract_x
_atom_site_fract_y
_atom_site_fract_z
Si Si1 0.339125 0.060551 0.854139
Si Si2 0.433294 0.785868 0.998768
Si Si3 0.500000 0.164006 0.500000
Si Si4 0.073813 0.833511 0.304213
Si Si5 0.500000 0.500000 0.500000
Si Si6 0.106917 0.366591 0.318814
Si Si7 0.314739 0.225238 0.596202
O O1 0.392672 0.126359 0.924229
O O2 0.307945 0.143024 0.741209
O O3 0.364401 0.968359 0.750374
O O4 0.308154 0.000000 0.000000
O O5 0.430602 0.685345 0.114342
O O6 0.500000 0.819034 0.000000
O O7 0.409202 0.782429 0.818646
O O8 0.538515 0.237269 0.384379
O O9 0.453967 0.103888 0.396543
O O10 0.041725 0.930945 0.385556
O O11 0.141592 0.817249 0.347241
O O12 0.150005 0.322881 0.450100
O O13 0.250000 0.250000 0.545403
#
# Coordination Sequence:
#
# PCOD9322556 Si02
#       7
#     8   8   4   8   2   8   8
#     4   9  20  36  55  87 119 147 192 241 302 363
#     4  10  18  34  55  84 127 154 180 235 309 375
#     4   9  16  31  54  80 116 146 177 237 297 365
#     4   9  19  36  59  84 112 157 195 245 308 354
#     4  10  20  40  64  88 122 150 210 270 300 368
#     4  10  19  33  55  88 118 151 194 235 299 367
#     4  10  21  40  59  82 116 163 203 251 303 361
#
# _framework density 18.373771999999999
#
# number of rings (size 3 to 8) (size 9 to 14) (size 15 to 20)
#    0.000    2.435    1.739    0.522    0.000    3.130 
#    6.261    8.261    0.000    4.174    0.000    0.000 
#    0.000    0.000    0.000    0.000    0.000    0.000 
#
# Total GULP energy -128043.852354 kJ/mol
# GULP energy per Si atom -5567.124015 kJ/mol
# Density = 1.833195 g / cm^3
# Si number density = 18.373772 Si / 1000 Ang^3
#
#
#
# Elastic Constant Matrix: (Units=GPa)
#
#
# Indices 1 2 3 4 5 6 
#
# 1 94.2121 9.2653 27.4032 0.0000 0.0000 0.0000
# 2 9.2653 51.6551 28.1637 0.0000 0.0000 0.0000
# 3 27.4032 28.1637 95.9613 0.0000 0.0000 0.0000
# 4 0.0000 0.0000 0.0000 8.3012 0.0000 0.0000
# 5 0.0000 0.0000 0.0000 0.0000 13.9464 0.0000
# 6 0.0000 0.0000 0.0000 0.0000 0.0000 1.9993
#
#
#
# Elastic Compliance Matrix: (Units=1/GPa)
#
#
# Indices 1 2 3 4 5 6 
#
# 1 0.011580 -0.000326 -0.003211 0.000000 0.000000 0.000000
# 2 -0.000326 0.023056 -0.006674 0.000000 0.000000 0.000000
# 3 -0.003211 -0.006674 0.013297 0.000000 0.000000 0.000000
# 4 0.000000 0.000000 0.000000 0.120465 0.000000 0.000000
# 5 0.000000 0.000000 0.000000 0.000000 0.071703 0.000000
# 6 0.000000 0.000000 0.000000 0.000000 0.000000 0.500185
#
#
# Mechanical properties :
#
#
# Convention : Reuss Voigt Hill
#
# Bulk Modulus (GPa) = 36.34908 41.27698 38.81303
# Shear Modulus (GPa) = 6.49453 16.64912 11.57182
#
# Velocity S-wave (km/s) = 1.88211 3.01347 2.51231
# Velocity P-wave (km/s) = 4.95472 5.88404 5.43926
#
# Compressibility (1/GPa) = 0.02751101
#
# Stress axis : x y z
#
# Youngs Moduli (GPa) = 86.35226 43.37202 75.20771
#
# Poissons Ratio (x) = 0.01415 0.24151
# Poissons Ratio (y) = 0.02818 0.50191
# Poissons Ratio (z) = 0.27729 0.28945
#
# Static dielectric constant tensor:
#      x y z
#    x 1.598840 0.000000 0.000000 
#    y 0.000000 1.650340 0.000000 
#    z 0.000000 0.000000 1.733370 
# 
# From -- ./inp_files/17617.got.cif
#   From: 2010.05.17/outbox.cif.g08.bks.cpg/sg21_9_cif.got.tgz:17617.got - 2010.06.03 23:14:55.
