data_PCOD9322312
_publ_section_title
;
Structure prediction by ZEFSAII (Michael W. Deem and Ramdas Pophale) SiO2 
 PCOD9322312
Probable space group: C 2 2 2
;
_chemical_formula_sum "Si O2"
_cell_formula_units_Z 40
_cell_length_a 35.373759
_cell_length_b 5.209531
_cell_length_c 13.726585
_cell_angle_alpha 90.000000
_cell_angle_beta 90.000000
_cell_angle_gamma 90.000000
_cell_volume 2529.544611
_symmetry_space_group_name_H-M "C 2 2 2"
_symmetry_group_IT_number 21
_symmetry_cell_setting 'orthorhombic'
loop_
_space_group_symop_operation_xyz
x,y,z
-x,-y,z
x,-y,-z
-x,y,-z
1/2+x,1/2+y,z
1/2-x,1/2-y,z
1/2+x,1/2-y,-z
1/2-x,1/2+y,-z
loop_
_atom_site_type_symbol
_atom_site_label
_atom_site_fract_x
_atom_site_fract_y
_atom_site_fract_z
Si Si1 0.775501 0.500000 0.500000
Si Si2 0.322514 0.666850 0.188439
Si Si3 0.394571 0.248914 0.933118
Si Si4 0.982809 0.251539 0.110550
Si Si5 0.205774 0.323398 0.293313
Si Si6 0.774887 0.000000 0.000000
O O1 0.750000 0.250000 0.471883
O O2 0.798411 0.592377 0.405800
O O3 0.364985 0.727457 0.154367
O O4 0.317701 0.427897 0.262081
O O5 0.304365 0.927937 0.229518
O O6 0.300248 0.578601 0.091670
O O7 0.437946 0.239047 0.898118
O O8 0.390649 0.500000 0.000000
O O9 0.386668 0.000000 0.000000
O O10 0.000000 0.500000 0.159871
O O11 0.000000 0.000000 0.158025
O O12 0.000000 0.250961 0.000000
O O13 0.250000 0.250000 0.281377
O O14 0.750000 0.250000 0.975192
#
# Coordination Sequence:
#
# PCOD9322312 Si02
#       6
#     4   8   8   8   8   4
#     4  10  20  36  62  82  90 116 165 228 285 324
#     4  12  24  35  48  71 103 137 168 211 247 298
#     4  12  21  33  47  67  99 136 177 204 239 294
#     4  10  16  29  48  67  86 122 176 212 244 272
#     4  11  22  39  55  74  96 125 171 221 268 305
#     4  12  24  34  46  62  91 138 181 202 228 274
#
# _framework density 15.813122999999999
#
# number of rings (size 3 to 8) (size 9 to 14) (size 15 to 20)
#    0.000    0.800    5.000    7.200    1.400    0.000 
#    0.000    0.000    0.000    0.000    0.000    0.000 
#    0.000    0.000    0.000   13.500    0.000    1.200 
#
# Total GULP energy -111657.935880 kJ/mol
# GULP energy per Si atom -5582.896794 kJ/mol
# Density = 1.577713 g / cm^3
# Si number density = 15.813123 Si / 1000 Ang^3
#
#
#
# Elastic Constant Matrix: (Units=GPa)
#
#
# Indices 1 2 3 4 5 6 
#
# 1 113.6423 48.2168 51.3041 0.0000 0.0000 0.0000
# 2 48.2168 163.4286 40.4812 0.0000 0.0000 0.0000
# 3 51.3041 40.4812 72.5032 0.0000 0.0000 0.0000
# 4 0.0000 0.0000 0.0000 24.0285 0.0000 0.0000
# 5 0.0000 0.0000 0.0000 0.0000 -6.4848 0.0000
# 6 0.0000 0.0000 0.0000 0.0000 0.0000 -2.8024
#
#
#
# Elastic Compliance Matrix: (Units=1/GPa)
#
#
# Indices 1 2 3 4 5 6 
#
# 1 0.013401 -0.001863 -0.008443 0.000000 0.000000 0.000000
# 2 -0.001863 0.007360 -0.002791 0.000000 0.000000 0.000000
# 3 -0.008443 -0.002791 0.021325 0.000000 0.000000 0.000000
# 4 0.000000 0.000000 0.000000 0.041617 0.000000 0.000000
# 5 0.000000 0.000000 0.000000 0.000000 -0.154208 0.000000
# 6 0.000000 0.000000 0.000000 0.000000 0.000000 -0.356834
#
#
# Mechanical properties :
#
#
# Convention : Reuss Voigt Hill
#
# Bulk Modulus (GPa) = 62.92156 69.95315 66.43736
# Shear Modulus (GPa) = -12.63117 16.91972 2.14427
#
# Velocity S-wave (km/s) = -2.82933 3.27460 1.16574
# Velocity P-wave (km/s) = 5.40404 7.65708 6.62701
#
# Compressibility (1/GPa) = 0.01589280
#
# Stress axis : x y z
#
# Youngs Moduli (GPa) = 74.61878 135.87355 46.89239
#
# Poissons Ratio (x) = 0.25307 0.39592
# Poissons Ratio (y) = 0.13898 0.13089
# Poissons Ratio (z) = 0.63002 0.37926
#
# Static dielectric constant tensor:
#      x y z
#    x 1.539550 0.000000 0.000000 
#    y 0.000000 1.579210 0.000000 
#    z 0.000000 0.000000 1.512960 
# 
# From -- ./inp_files/27962.got.cif
#   From: 2010.05.17/outbox.cif.g08.bks.cpg/sg21_14_cif.got.tgz:27962.got - 2010.06.03 23:14:55.
