data_PCOD9322127
_publ_section_title
;
Structure prediction by ZEFSAII (Michael W. Deem and Ramdas Pophale) SiO2 
 PCOD9322127
Probable space group: C 2 2 21
;
_chemical_formula_sum "Si O2"
_cell_formula_units_Z 32
_cell_length_a 8.509354
_cell_length_b 32.583460
_cell_length_c 5.593351
_cell_angle_alpha 90.000000
_cell_angle_beta 90.000000
_cell_angle_gamma 90.000000
_cell_volume 1550.835966
_symmetry_space_group_name_H-M "C 2 2 21"
_symmetry_group_IT_number 20
_symmetry_cell_setting 'orthorhombic'
loop_
_space_group_symop_operation_xyz
x,y,z
-x,-y,1/2+z
x,-y,-z
-x,y,1/2-z
1/2+x,1/2+y,z
1/2-x,1/2-y,1/2+z
1/2+x,1/2-y,-z
1/2-x,1/2+y,1/2-z
loop_
_atom_site_type_symbol
_atom_site_label
_atom_site_fract_x
_atom_site_fract_y
_atom_site_fract_z
Si Si1 0.676753 0.847184 0.145233
Si Si2 0.402710 0.500000 0.500000
Si Si3 0.319855 0.265727 0.290940
Si Si4 0.500000 0.128912 0.250000
Si Si5 0.157989 0.430157 0.364699
O O1 0.500000 0.840581 0.250000
O O2 0.789902 0.814442 0.258428
O O3 0.722539 0.894692 0.187042
O O4 0.636043 0.843520 0.866565
O O5 0.500000 0.494055 0.750000
O O6 0.288007 0.461581 0.448239
O O7 0.500000 0.255478 0.250000
O O8 0.270953 0.252780 0.559070
O O9 0.589406 0.098135 0.425838
O O10 0.000000 0.450195 0.250000
#
# Coordination Sequence:
#
# PCOD9322127 Si02
#       5
#     8   4   8   4   8
#     4   9  20  40  67  99 129 174 226 282 333 401
#     4  12  30  44  64 106 148 176 218 292 350 382
#     4  12  27  45  68 102 138 181 225 280 338 401
#     4   8  18  38  72  94 124 174 238 272 328 396
#     4   9  22  42  71  95 129 186 231 269 330 420
#
# _framework density 20.634031
#
# number of rings (size 3 to 8) (size 9 to 14) (size 15 to 20)
#    0.000    2.500    0.000    2.250   17.500    1.000 
#    0.000    0.000    0.000    0.000    0.000    0.000 
#    0.000    0.000    0.000    0.000    0.000    0.000 
#
# Total GULP energy -89094.584065 kJ/mol
# GULP energy per Si atom -5568.411504 kJ/mol
# Density = 2.058707 g / cm^3
# Si number density = 20.634031 Si / 1000 Ang^3
#
#
#
# Elastic Constant Matrix: (Units=GPa)
#
#
# Indices 1 2 3 4 5 6 
#
# 1 64.6134 19.2749 13.9430 0.0000 0.0000 0.0000
# 2 19.2749 75.6121 10.0062 0.0000 0.0000 0.0000
# 3 13.9430 10.0062 77.0307 0.0000 0.0000 0.0000
# 4 0.0000 0.0000 0.0000 21.9401 0.0000 0.0000
# 5 0.0000 0.0000 0.0000 0.0000 29.7239 0.0000
# 6 0.0000 0.0000 0.0000 0.0000 0.0000 27.4018
#
#
#
# Elastic Compliance Matrix: (Units=1/GPa)
#
#
# Indices 1 2 3 4 5 6 
#
# 1 0.017246 -0.004053 -0.002595 0.000000 0.000000 0.000000
# 2 -0.004053 0.014409 -0.001138 0.000000 0.000000 0.000000
# 3 -0.002595 -0.001138 0.013599 0.000000 0.000000 0.000000
# 4 0.000000 0.000000 0.000000 0.045579 0.000000 0.000000
# 5 0.000000 0.000000 0.000000 0.000000 0.033643 0.000000
# 6 0.000000 0.000000 0.000000 0.000000 0.000000 0.036494
#
#
# Mechanical properties :
#
#
# Convention : Reuss Voigt Hill
#
# Bulk Modulus (GPa) = 33.69036 33.74494 33.71765
# Shear Modulus (GPa) = 26.81888 27.41531 27.11709
#
# Velocity S-wave (km/s) = 3.60910 3.64901 3.62911
# Velocity P-wave (km/s) = 5.80780 5.84322 5.82554
#
# Compressibility (1/GPa) = 0.02968208
#
# Stress axis : x y z
#
# Youngs Moduli (GPa) = 57.98563 69.40038 73.53255
#
# Poissons Ratio (x) = 0.28127 0.19083
# Poissons Ratio (y) = 0.23500 0.08369
# Poissons Ratio (z) = 0.15048 0.07899
#
# Static dielectric constant tensor:
#      x y z
#    x 1.716900 0.000000 0.000000 
#    y 0.000000 1.745700 0.000000 
#    z 0.000000 0.000000 1.991370 
# 
# From -- ./inp_files/722.got.cif
#   From: 2010.05.17/outbox.cif.g08.bks.cpg/sg20_1_cif.got.tgz:722.got - 2010.06.03 22:52:26.
