data_PCOD9322869
_publ_section_title
;
Structure prediction by ZEFSAII (Michael W. Deem and Ramdas Pophale) SiO2 
 PCOD9322869
Probable space group: C 2 2 2
;
_chemical_formula_sum "Si O2"
_cell_formula_units_Z 44
_cell_length_a 9.862871
_cell_length_b 16.122427
_cell_length_c 14.291323
_cell_angle_alpha 90.000000
_cell_angle_beta 90.000000
_cell_angle_gamma 90.000000
_cell_volume 2272.512114
_symmetry_space_group_name_H-M "C 2 2 2"
_symmetry_group_IT_number 21
_symmetry_cell_setting 'orthorhombic'
loop_
_space_group_symop_operation_xyz
x,y,z
-x,-y,z
x,-y,-z
-x,y,-z
1/2+x,1/2+y,z
1/2-x,1/2-y,z
1/2+x,1/2-y,-z
1/2-x,1/2+y,-z
loop_
_atom_site_type_symbol
_atom_site_label
_atom_site_fract_x
_atom_site_fract_y
_atom_site_fract_z
Si Si1 0.314087 0.136199 0.911512
Si Si2 0.351209 0.998483 0.777419
Si Si3 0.500000 0.500000 0.000000
Si Si4 0.402211 0.426074 0.681988
Si Si5 0.500000 0.500000 0.500000
Si Si6 0.546181 0.706490 0.828022
Si Si7 0.208440 0.124478 0.105031
O O1 0.357906 0.046964 0.876420
O O2 0.397654 0.202334 0.849939
O O3 0.155761 0.151638 0.886137
O O4 0.313617 0.145683 0.022462
O O5 0.247130 0.050109 0.714951
O O6 0.500000 0.000000 0.736007
O O7 0.287004 0.910977 0.805323
O O8 0.603104 0.445103 0.936486
O O9 0.500000 0.500000 0.721936
O O10 0.581827 0.559267 0.571250
O O11 0.443415 0.337676 0.726266
O O12 0.395041 0.696063 0.865310
#
# Coordination Sequence:
#
# PCOD9322869 Si02
#       7
#     8   8   2   8   2   8   8
#     4  10  21  33  49  77 114 156 204 247 287 338
#     4  11  22  37  53  82 118 161 194 246 306 355
#     4  12  16  30  54  72  88 150 232 268 270 320
#     4   9  17  36  66  88 110 139 198 251 310 366
#     4   8  16  34  70 108  94 128 208 260 282 392
#     4  10  19  35  52  80 112 154 196 255 305 340
#     4  12  18  34  55  71 113 165 226 253 284 345
#
# _framework density 19.361833000000001
#
# number of rings (size 3 to 8) (size 9 to 14) (size 15 to 20)
#    0.545    1.091    5.455    1.091    0.000    1.455 
#   16.364    0.455    0.000    0.000   18.909    0.000 
#    0.000    0.000    0.000    0.000    0.000    0.000 
#
# Total GULP energy -122661.419247 kJ/mol
# GULP energy per Si atom -5575.519057 kJ/mol
# Density = 1.931776 g / cm^3
# Si number density = 19.361833 Si / 1000 Ang^3
#
#
#
# Elastic Constant Matrix: (Units=GPa)
#
#
# Indices 1 2 3 4 5 6 
#
# 1 105.2608 29.4065 23.6757 0.0000 0.0000 0.0000
# 2 29.4065 54.8678 18.7112 0.0000 0.0000 0.0000
# 3 23.6757 18.7112 102.4226 0.0000 0.0000 0.0000
# 4 0.0000 0.0000 0.0000 23.5237 0.0000 0.0000
# 5 0.0000 0.0000 0.0000 0.0000 15.5247 0.0000
# 6 0.0000 0.0000 0.0000 0.0000 0.0000 28.3679
#
#
#
# Elastic Compliance Matrix: (Units=1/GPa)
#
#
# Indices 1 2 3 4 5 6 
#
# 1 0.011421 -0.005567 -0.001623 0.000000 0.000000 0.000000
# 2 -0.005567 0.022151 -0.002760 0.000000 0.000000 0.000000
# 3 -0.001623 -0.002760 0.010643 0.000000 0.000000 0.000000
# 4 0.000000 0.000000 0.000000 0.042510 0.000000 0.000000
# 5 0.000000 0.000000 0.000000 0.000000 0.064414 0.000000
# 6 0.000000 0.000000 0.000000 0.000000 0.000000 0.035251
#
#
# Mechanical properties :
#
#
# Convention : Reuss Voigt Hill
#
# Bulk Modulus (GPa) = 41.12849 45.12644 43.12747
# Shear Modulus (GPa) = 23.32158 26.20043 24.76101
#
# Velocity S-wave (km/s) = 3.47437 3.68258 3.57999
# Velocity P-wave (km/s) = 6.11418 6.43734 6.27784
#
# Compressibility (1/GPa) = 0.02431404
#
# Stress axis : x y z
#
# Youngs Moduli (GPa) = 87.56110 45.14546 93.96064
#
# Poissons Ratio (x) = 0.25135 0.15248
# Poissons Ratio (y) = 0.48749 0.25930
# Poissons Ratio (z) = 0.14210 0.12459
#
# Static dielectric constant tensor:
#      x y z
#    x 1.711450 0.000000 0.000000 
#    y 0.000000 1.748040 0.000000 
#    z 0.000000 0.000000 1.672930 
# 
# From -- ./inp_files/30420.got.cif
#   From: 2010.05.17/outbox.cif.g08.bks.cpg/sg21_16_cif.got.tgz:30420.got - 2010.06.03 23:14:55.
