data_PCOD9322164
_publ_section_title
;
Structure prediction by ZEFSAII (Michael W. Deem and Ramdas Pophale) SiO2 
 PCOD9322164
Probable space group: C 2 2 21
;
_chemical_formula_sum "Si O2"
_cell_formula_units_Z 36
_cell_length_a 21.595455
_cell_length_b 7.250650
_cell_length_c 9.376595
_cell_angle_alpha 90.000000
_cell_angle_beta 90.000000
_cell_angle_gamma 90.000000
_cell_volume 1468.197426
_symmetry_space_group_name_H-M "C 2 2 21"
_symmetry_group_IT_number 20
_symmetry_cell_setting 'orthorhombic'
loop_
_space_group_symop_operation_xyz
x,y,z
-x,-y,1/2+z
x,-y,-z
-x,y,1/2-z
1/2+x,1/2+y,z
1/2-x,1/2-y,1/2+z
1/2+x,1/2-y,-z
1/2-x,1/2+y,1/2-z
loop_
_atom_site_type_symbol
_atom_site_label
_atom_site_fract_x
_atom_site_fract_y
_atom_site_fract_z
Si Si1 0.561303 0.713272 0.335045
Si Si2 0.060121 0.236387 0.663666
Si Si3 0.185904 0.808672 0.239921
Si Si4 0.252322 0.500000 0.000000
Si Si5 0.814078 0.204075 0.325537
O O1 0.500000 0.771395 0.250000
O O2 0.559206 0.782332 0.497046
O O3 0.560724 0.488568 0.332558
O O4 0.625368 0.766029 0.258559
O O5 0.122797 0.300312 0.742918
O O6 0.000000 0.296816 0.750000
O O7 0.196657 0.900951 0.395897
O O8 0.251769 0.705893 0.221815
O O9 0.179287 0.988266 0.143796
O O10 0.201015 0.338922 0.044213
#
# Coordination Sequence:
#
# PCOD9322164 Si02
#       5
#     8   8   8   4   8
#     4   9  17  32  55  85 116 157 202 241 300 356
#     4   9  17  32  56  84 120 157 197 253 298 347
#     4   9  17  34  56  83 115 153 204 246 305 354
#     4   8  18  32  56  82 114 154 198 250 302 354
#     4   9  18  33  58  82 111 160 195 255 301 355
#
# _framework density 24.519863000000001
#
# number of rings (size 3 to 8) (size 9 to 14) (size 15 to 20)
#    1.333    1.778    0.000    2.667    0.000    0.000 
#    4.000    1.111    0.000    4.000    0.000    0.000 
#    0.000    0.000    0.000    0.000    0.000    0.000 
#
# Total GULP energy -100222.719841 kJ/mol
# GULP energy per Si atom -5567.928880 kJ/mol
# Density = 2.446405 g / cm^3
# Si number density = 24.519863 Si / 1000 Ang^3
#
#
#
# Elastic Constant Matrix: (Units=GPa)
#
#
# Indices 1 2 3 4 5 6 
#
# 1 246.3614 41.4735 91.7821 0.0000 0.0000 0.0000
# 2 41.4735 92.7180 -4.1292 0.0000 0.0000 0.0000
# 3 91.7821 -4.1292 98.8423 0.0000 0.0000 0.0000
# 4 0.0000 0.0000 0.0000 -8.5685 0.0000 0.0000
# 5 0.0000 0.0000 0.0000 0.0000 53.2776 0.0000
# 6 0.0000 0.0000 0.0000 0.0000 0.0000 19.7464
#
#
#
# Elastic Compliance Matrix: (Units=1/GPa)
#
#
# Indices 1 2 3 4 5 6 
#
# 1 0.007197 -0.003523 -0.006830 0.000000 0.000000 0.000000
# 2 -0.003523 0.012530 0.003795 0.000000 0.000000 0.000000
# 3 -0.006830 0.003795 0.016618 0.000000 0.000000 0.000000
# 4 0.000000 0.000000 0.000000 -0.116707 0.000000 0.000000
# 5 0.000000 0.000000 0.000000 0.000000 0.018770 0.000000
# 6 0.000000 0.000000 0.000000 0.000000 0.000000 0.050642
#
#
# Mechanical properties :
#
#
# Convention : Reuss Voigt Hill
#
# Bulk Modulus (GPa) = 43.05023 77.35274 60.20148
# Shear Modulus (GPa) = 504.62477 33.47745 269.05111
#
# Velocity S-wave (km/s) = 14.36138 3.69903 10.48647
# Velocity P-wave (km/s) = 17.10539 7.06111 13.08537
#
# Compressibility (1/GPa) = 0.02322868
#
# Stress axis : x y z
#
# Youngs Moduli (GPa) = 138.95366 79.80592 60.17715
#
# Poissons Ratio (x) = 0.28118 0.41100
# Poissons Ratio (y) = 0.48957 -0.22838
# Poissons Ratio (z) = 0.94902 -0.30287
#
# Static dielectric constant tensor:
#      x y z
#    x 1.949070 0.000000 0.000000 
#    y 0.000000 1.962560 0.000000 
#    z 0.000000 0.000000 1.664470 
# 
# From -- ./inp_files/10516.got.cif
#   From: 2010.05.17/outbox.cif.g08.bks.cpg/sg20_6_cif.got.tgz:10516.got - 2010.06.03 22:52:26.
