data_PCOD9322658
_publ_section_title
;
Structure prediction by ZEFSAII (Michael W. Deem and Ramdas Pophale) SiO2 
 PCOD9322658
Probable space group: C 2 2 2
;
_chemical_formula_sum "Si O2"
_cell_formula_units_Z 56
_cell_length_a 23.304890
_cell_length_b 9.566855
_cell_length_c 13.162876
_cell_angle_alpha 90.000000
_cell_angle_beta 90.000000
_cell_angle_gamma 90.000000
_cell_volume 2934.722482
_symmetry_space_group_name_H-M "C 2 2 2"
_symmetry_group_IT_number 21
_symmetry_cell_setting 'orthorhombic'
loop_
_space_group_symop_operation_xyz
x,y,z
-x,-y,z
x,-y,-z
-x,y,-z
1/2+x,1/2+y,z
1/2-x,1/2-y,z
1/2+x,1/2-y,-z
1/2-x,1/2+y,-z
loop_
_atom_site_type_symbol
_atom_site_label
_atom_site_fract_x
_atom_site_fract_y
_atom_site_fract_z
Si Si1 0.920648 0.757654 0.704248
Si Si2 0.755169 0.580955 0.103420
Si Si3 0.856540 0.963753 0.225912
Si Si4 0.451119 0.741057 0.747662
Si Si5 0.859437 0.469705 0.739721
Si Si6 0.923147 0.161792 0.513155
Si Si7 0.184823 0.756725 0.597104
O O1 0.880534 0.626064 0.725203
O O2 0.942030 0.756791 0.586631
O O3 0.981030 0.758008 0.765359
O O4 0.883103 0.895380 0.727779
O O5 0.750000 0.750000 0.092482
O O6 0.693672 0.522782 0.143667
O O7 0.807017 0.550372 0.182083
O O8 0.768542 0.500000 0.000000
O O9 0.913404 0.876233 0.194965
O O10 0.825450 0.865253 0.310177
O O11 0.416758 0.883073 0.769721
O O12 0.440786 0.707686 0.626463
O O13 0.837193 0.393111 0.637251
O O14 0.854983 0.184771 0.509680
O O15 0.937606 0.000000 0.500000
O O16 0.250000 0.750000 0.568810
#
# Coordination Sequence:
#
# PCOD9322658 Si02
#       7
#     8   8   8   8   8   8   8
#     4  12  22  35  57  98 120 157 228 246 274 360
#     4  12  24  45  72  93 121 147 190 254 313 383
#     4  10  20  38  63  87 119 160 198 242 307 363
#     4  10  21  38  63  78 128 181 192 249 305 336
#     4  10  22  40  61  87 123 157 194 251 313 361
#     4  10  20  35  53  89 117 165 222 258 287 330
#     4  10  18  40  58  72 125 181 186 242 326 349
#
# _framework density 19.081872000000001
#
# number of rings (size 3 to 8) (size 9 to 14) (size 15 to 20)
#    0.000    1.714    7.143    1.286    2.000    2.857 
#    5.143    2.857    0.000    5.143    0.000    0.000 
#    0.000    0.000    0.000    0.000    0.000    0.000 
#
# Total GULP energy -155998.296936 kJ/mol
# GULP energy per Si atom -5571.367748 kJ/mol
# Density = 1.903844 g / cm^3
# Si number density = 19.081872 Si / 1000 Ang^3
#
#
#
# Elastic Constant Matrix: (Units=GPa)
#
#
# Indices 1 2 3 4 5 6 
#
# 1 140.6074 29.3770 15.5107 0.0000 0.0000 0.0000
# 2 29.3770 103.9528 9.3903 0.0000 0.0000 0.0000
# 3 15.5107 9.3903 36.9914 0.0000 0.0000 0.0000
# 4 0.0000 0.0000 0.0000 0.3893 0.0000 0.0000
# 5 0.0000 0.0000 0.0000 0.0000 6.6317 0.0000
# 6 0.0000 0.0000 0.0000 0.0000 0.0000 -34.0925
#
#
#
# Elastic Compliance Matrix: (Units=1/GPa)
#
#
# Indices 1 2 3 4 5 6 
#
# 1 0.007829 -0.001961 -0.002785 0.000000 0.000000 0.000000
# 2 -0.001961 0.010337 -0.001802 0.000000 0.000000 0.000000
# 3 -0.002785 -0.001802 0.028658 0.000000 0.000000 0.000000
# 4 0.000000 0.000000 0.000000 2.569010 0.000000 0.000000
# 5 0.000000 0.000000 0.000000 0.000000 0.150790 0.000000
# 6 0.000000 0.000000 0.000000 0.000000 0.000000 -0.029332
#
#
# Mechanical properties :
#
#
# Convention : Reuss Voigt Hill
#
# Bulk Modulus (GPa) = 29.64820 43.34527 36.49674
# Shear Modulus (GPa) = 1.81052 9.73728 5.77390
#
# Velocity S-wave (km/s) = 0.97513 2.26141 1.74139
# Velocity P-wave (km/s) = 4.10353 5.43906 4.81780
#
# Compressibility (1/GPa) = 0.03372886
#
# Stress axis : x y z
#
# Youngs Moduli (GPa) = 127.73193 96.74322 34.89375
#
# Poissons Ratio (x) = 0.18970 0.09718
# Poissons Ratio (y) = 0.25047 0.06287
# Poissons Ratio (z) = 0.35573 0.17431
#
# Static dielectric constant tensor:
#      x y z
#    x 1.773750 0.000000 0.000000 
#    y 0.000000 1.665900 0.000000 
#    z 0.000000 0.000000 1.760660 
# 
# From -- ./inp_files/33288.got.cif
#   From: 2010.05.17/outbox.cif.g08.bks.cpg/sg21_17_cif.got.tgz:33288.got - 2010.06.03 23:14:55.
