data_PCOD9322516
_publ_section_title
;
Structure prediction by ZEFSAII (Michael W. Deem and Ramdas Pophale) SiO2 
 PCOD9322516
Probable space group: C 2 2 2
;
_chemical_formula_sum "Si O2"
_cell_formula_units_Z 40
_cell_length_a 8.518619
_cell_length_b 16.104509
_cell_length_c 15.198840
_cell_angle_alpha 90.000000
_cell_angle_beta 90.000000
_cell_angle_gamma 90.000000
_cell_volume 2085.101142
_symmetry_space_group_name_H-M "C 2 2 2"
_symmetry_group_IT_number 21
_symmetry_cell_setting 'orthorhombic'
loop_
_space_group_symop_operation_xyz
x,y,z
-x,-y,z
x,-y,-z
-x,y,-z
1/2+x,1/2+y,z
1/2-x,1/2-y,z
1/2+x,1/2-y,-z
1/2-x,1/2+y,-z
loop_
_atom_site_type_symbol
_atom_site_label
_atom_site_fract_x
_atom_site_fract_y
_atom_site_fract_z
Si Si1 0.680272 0.843610 0.898660
Si Si2 0.616485 0.421483 0.747016
Si Si3 0.313113 0.990228 0.398080
Si Si4 0.804143 0.346116 0.906905
Si Si5 0.190515 0.156706 0.714851
O O1 0.750000 0.750000 0.899579
O O2 0.491985 0.845551 0.894492
O O3 0.745652 0.879720 0.808126
O O4 0.728221 0.878873 0.993874
O O5 0.500000 0.500000 0.760285
O O6 0.727961 0.444261 0.665722
O O7 0.715106 0.397554 0.832627
O O8 0.497111 0.347748 0.721778
O O9 0.255598 0.901549 0.361669
O O10 0.500000 0.000000 0.390036
O O11 0.269190 0.000000 0.500000
O O12 0.750000 0.250000 0.902396
O O13 0.250000 0.250000 0.705525
#
# Coordination Sequence:
#
# PCOD9322516 Si02
#       5
#     8   8   8   8   8
#     4   9  18  31  53  84 117 149 189 239 279 319
#     4  10  22  37  58  85 116 153 186 231 289 338
#     4  10  22  42  62  82 113 148 182 233 296 344
#     4  10  18  32  55  83 115 154 194 232 277 332
#     4  10  20  37  59  85 115 149 190 233 272 332
#
# _framework density 19.183720999999998
#
# number of rings (size 3 to 8) (size 9 to 14) (size 15 to 20)
#    0.000    2.200    0.000    3.600    0.000    6.000 
#    0.000   12.000    0.000   10.800    0.000    0.000 
#    0.000    0.000    0.000    0.000    0.000    0.000 
#
# Total GULP energy -111610.362458 kJ/mol
# GULP energy per Si atom -5580.518123 kJ/mol
# Density = 1.914006 g / cm^3
# Si number density = 19.183721 Si / 1000 Ang^3
#
#
#
# Elastic Constant Matrix: (Units=GPa)
#
#
# Indices 1 2 3 4 5 6 
#
# 1 104.2145 36.0513 84.9443 0.0000 0.0000 0.0000
# 2 36.0513 52.6731 59.2844 0.0000 0.0000 0.0000
# 3 84.9443 59.2844 210.4175 0.0000 0.0000 0.0000
# 4 0.0000 0.0000 0.0000 33.3013 0.0000 0.0000
# 5 0.0000 0.0000 0.0000 0.0000 24.6246 0.0000
# 6 0.0000 0.0000 0.0000 0.0000 0.0000 33.3120
#
#
#
# Elastic Compliance Matrix: (Units=1/GPa)
#
#
# Indices 1 2 3 4 5 6 
#
# 1 0.015188 -0.005117 -0.004690 0.000000 0.000000 0.000000
# 2 -0.005117 0.029525 -0.006253 0.000000 0.000000 0.000000
# 3 -0.004690 -0.006253 0.008407 0.000000 0.000000 0.000000
# 4 0.000000 0.000000 0.000000 0.030029 0.000000 0.000000
# 5 0.000000 0.000000 0.000000 0.000000 0.040610 0.000000
# 6 0.000000 0.000000 0.000000 0.000000 0.000000 0.030019
#
#
# Mechanical properties :
#
#
# Convention : Reuss Voigt Hill
#
# Bulk Modulus (GPa) = 47.61575 80.87389 64.24482
# Shear Modulus (GPa) = 25.92041 30.71593 28.31817
#
# Velocity S-wave (km/s) = 3.67981 4.00577 3.84625
# Velocity P-wave (km/s) = 6.55206 7.97772 7.29978
#
# Compressibility (1/GPa) = 0.02100145
#
# Stress axis : x y z
#
# Youngs Moduli (GPa) = 65.84013 33.86961 118.94304
#
# Poissons Ratio (x) = 0.17331 0.55781
# Poissons Ratio (y) = 0.33691 0.74373
# Poissons Ratio (z) = 0.30877 0.21178
#
# Static dielectric constant tensor:
#      x y z
#    x 1.668220 0.000000 0.000000 
#    y 0.000000 1.681240 0.000000 
#    z 0.000000 0.000000 1.668490 
# 
# From -- ./inp_files/22278.got.cif
#   From: 2010.05.17/outbox.cif.g08.bks.cpg/sg21_12_cif.got.tgz:22278.got - 2010.06.03 23:14:55.
