data_PCOD9322431
_publ_section_title
;
Structure prediction by ZEFSAII (Michael W. Deem and Ramdas Pophale) SiO2 
 PCOD9322431
Probable space group: C 2 2 2
;
_chemical_formula_sum "Si O2"
_cell_formula_units_Z 36
_cell_length_a 8.604018
_cell_length_b 23.948080
_cell_length_c 9.446345
_cell_angle_alpha 90.000000
_cell_angle_beta 90.000000
_cell_angle_gamma 90.000000
_cell_volume 1946.416661
_symmetry_space_group_name_H-M "C 2 2 2"
_symmetry_group_IT_number 21
_symmetry_cell_setting 'orthorhombic'
loop_
_space_group_symop_operation_xyz
x,y,z
-x,-y,z
x,-y,-z
-x,y,-z
1/2+x,1/2+y,z
1/2-x,1/2-y,z
1/2+x,1/2-y,-z
1/2-x,1/2+y,-z
loop_
_atom_site_type_symbol
_atom_site_label
_atom_site_fract_x
_atom_site_fract_y
_atom_site_fract_z
Si Si1 0.750000 0.750000 0.046803
Si Si2 0.316559 0.809842 0.484924
Si Si3 0.151538 0.835068 0.190177
Si Si4 0.783873 0.149577 0.765049
Si Si5 0.188569 0.063249 0.002465
O O1 0.695349 0.798893 0.155242
O O2 0.841871 0.788329 0.933227
O O3 0.500000 0.807514 0.500000
O O4 0.250000 0.750000 0.530282
O O5 0.251036 0.820341 0.328279
O O6 0.259392 0.853575 0.601841
O O7 0.969485 0.839577 0.227169
O O8 0.218111 0.892695 0.123996
O O9 0.755987 0.094390 0.856143
O O10 0.000000 0.060633 0.000000
O O11 0.247396 0.000000 0.000000
#
# Coordination Sequence:
#
# PCOD9322431 Si02
#       5
#     4   8   8   8   8
#     4  10  18  28  52  78 110 138 176 220 270 324
#     4  12  24  36  53  78 113 149 182 222 272 331
#     4  10  20  34  55  82 112 144 181 225 270 323
#     4  10  20  34  55  82 112 144 181 225 270 323
#     4   8  16  34  60  86 108 137 183 233 271 310
#
# _framework density 18.495526000000002
#
# number of rings (size 3 to 8) (size 9 to 14) (size 15 to 20)
#    0.000    2.000    2.222    4.000    0.000    1.778 
#    0.000    4.444    0.000    9.333    0.000    0.000 
#    0.000    0.000    0.000    0.000    0.000    0.000 
#
# Total GULP energy -100237.395493 kJ/mol
# GULP energy per Si atom -5568.744194 kJ/mol
# Density = 1.845343 g / cm^3
# Si number density = 18.495526 Si / 1000 Ang^3
#
#
#
# Elastic Constant Matrix: (Units=GPa)
#
#
# Indices 1 2 3 4 5 6 
#
# 1 55.9384 19.8581 36.4922 0.0000 0.0000 0.0000
# 2 19.8581 125.9780 41.5319 0.0000 0.0000 0.0000
# 3 36.4922 41.5319 133.1880 0.0000 0.0000 0.0000
# 4 0.0000 0.0000 0.0000 14.6081 0.0000 0.0000
# 5 0.0000 0.0000 0.0000 0.0000 -50.1937 0.0000
# 6 0.0000 0.0000 0.0000 0.0000 0.0000 13.6392
#
#
#
# Elastic Compliance Matrix: (Units=1/GPa)
#
#
# Indices 1 2 3 4 5 6 
#
# 1 0.022073 -0.001656 -0.005531 0.000000 0.000000 0.000000
# 2 -0.001656 0.008972 -0.002344 0.000000 0.000000 0.000000
# 3 -0.005531 -0.002344 0.009755 0.000000 0.000000 0.000000
# 4 0.000000 0.000000 0.000000 0.068455 0.000000 0.000000
# 5 0.000000 0.000000 0.000000 0.000000 -0.019923 0.000000
# 6 0.000000 0.000000 0.000000 0.000000 0.000000 0.073318
#
#
# Mechanical properties :
#
#
# Convention : Reuss Voigt Hill
#
# Bulk Modulus (GPa) = 46.00458 56.76318 51.38388
# Shear Modulus (GPa) = 26.46085 10.09219 18.27652
#
# Velocity S-wave (km/s) = 3.78651 2.33846 3.14691
# Velocity P-wave (km/s) = 6.63659 6.16831 6.40673
#
# Compressibility (1/GPa) = 0.02173696
#
# Stress axis : x y z
#
# Youngs Moduli (GPa) = 45.30387 111.46223 102.51505
#
# Poissons Ratio (x) = 0.18456 0.56706
# Poissons Ratio (y) = 0.07502 0.24029
# Poissons Ratio (z) = 0.25060 0.26126
#
# Static dielectric constant tensor:
#      x y z
#    x 1.673500 0.000000 0.000000 
#    y 0.000000 1.654320 0.000000 
#    z 0.000000 0.000000 1.664630 
# 
# From -- ./inp_files/11106.got.cif
#   From: 2010.05.17/outbox.cif.g08.bks.cpg/sg21_6_cif.got.tgz:11106.got - 2010.06.03 23:14:55.
