data_PCOD9322481
_publ_section_title
;
Structure prediction by ZEFSAII (Michael W. Deem and Ramdas Pophale) SiO2 
 PCOD9322481
Probable space group: C 2 2 2
;
_chemical_formula_sum "Si O2"
_cell_formula_units_Z 56
_cell_length_a 24.478564
_cell_length_b 12.260122
_cell_length_c 7.149621
_cell_angle_alpha 90.000000
_cell_angle_beta 90.000000
_cell_angle_gamma 90.000000
_cell_volume 2145.674053
_symmetry_space_group_name_H-M "C 2 2 2"
_symmetry_group_IT_number 21
_symmetry_cell_setting 'orthorhombic'
loop_
_space_group_symop_operation_xyz
x,y,z
-x,-y,z
x,-y,-z
-x,y,-z
1/2+x,1/2+y,z
1/2-x,1/2-y,z
1/2+x,1/2-y,-z
1/2-x,1/2+y,-z
loop_
_atom_site_type_symbol
_atom_site_label
_atom_site_fract_x
_atom_site_fract_y
_atom_site_fract_z
Si Si1 0.572578 0.399412 0.217083
Si Si2 0.667746 0.547542 0.210914
Si Si3 0.134157 0.681158 0.218573
Si Si4 0.022566 0.608279 0.291429
Si Si5 0.462224 0.316824 0.201363
Si Si6 0.646392 0.792314 0.220958
Si Si7 0.715063 0.994436 0.771070
O O1 0.608059 0.505209 0.278294
O O2 0.614814 0.302207 0.272079
O O3 0.510644 0.390163 0.290470
O O4 0.559973 0.624833 0.008734
O O5 0.678492 0.677318 0.213981
O O6 0.722624 0.497997 0.294653
O O7 0.665988 0.500000 0.000000
O O8 0.087122 0.603376 0.294365
O O9 0.189553 0.623127 0.276904
O O10 0.132231 0.679043 0.993716
O O11 0.000000 0.500000 0.204678
O O12 0.000000 0.617150 0.500000
O O13 0.001683 0.711678 0.182049
O O14 0.410933 0.255980 0.301181
O O15 0.678954 0.899234 0.290439
O O16 0.715839 0.000000 0.000000
#
# Coordination Sequence:
#
# PCOD9322481 Si02
#       7
#     8   8   8   8   8   8   8
#     4   9  18  30  46  75 103 144 168 201 259 333
#     4  11  18  29  44  71 109 139 178 207 245 306
#     4   9  17  32  47  69 106 135 166 205 268 320
#     4  10  20  33  51  73 101 133 180 230 274 320
#     4   9  17  31  47  69 105 133 167 210 266 326
#     4  10  18  31  46  73 104 142 171 206 260 323
#     4   9  19  28  45  69 108 141 165 209 252 313
#
# _framework density 26.099025999999999
#
# number of rings (size 3 to 8) (size 9 to 14) (size 15 to 20)
#    0.000    2.429    2.857    2.143    0.000    2.286 
#    0.000    8.571    0.000    0.000    0.000   18.000 
#   60.000    0.000    0.000    0.000    0.000    0.000 
#
# Total GULP energy -155985.038223 kJ/mol
# GULP energy per Si atom -5570.894222 kJ/mol
# Density = 2.603962 g / cm^3
# Si number density = 26.099026 Si / 1000 Ang^3
#
#
#
# Elastic Constant Matrix: (Units=GPa)
#
#
# Indices 1 2 3 4 5 6 
#
# 1 175.6727 49.7743 11.2719 0.0000 0.0000 0.0000
# 2 49.7743 150.1682 6.0930 0.0000 0.0000 0.0000
# 3 11.2719 6.0930 113.0602 0.0000 0.0000 0.0000
# 4 0.0000 0.0000 0.0000 -34.2426 0.0000 0.0000
# 5 0.0000 0.0000 0.0000 0.0000 -11.9755 0.0000
# 6 0.0000 0.0000 0.0000 0.0000 0.0000 228.0041
#
#
#
# Elastic Compliance Matrix: (Units=1/GPa)
#
#
# Indices 1 2 3 4 5 6 
#
# 1 0.006312 -0.002071 -0.000518 0.000000 0.000000 0.000000
# 2 -0.002071 0.007353 -0.000190 0.000000 0.000000 0.000000
# 3 -0.000518 -0.000190 0.008907 0.000000 0.000000 0.000000
# 4 0.000000 0.000000 0.000000 -0.029203 0.000000 0.000000
# 5 0.000000 0.000000 0.000000 0.000000 -0.083504 0.000000
# 6 0.000000 0.000000 0.000000 0.000000 0.000000 0.004386
#
#
# Mechanical properties :
#
#
# Convention : Reuss Voigt Hill
#
# Bulk Modulus (GPa) = 58.77165 63.68660 61.22912
# Shear Modulus (GPa) = -67.09645 61.14133 -2.97756
#
# Velocity S-wave (km/s) = -5.07585 4.84536 -1.06927
# Velocity P-wave (km/s) = 3.43289 7.46714 4.68901
#
# Compressibility (1/GPa) = 0.01701501
#
# Stress axis : x y z
#
# Youngs Moduli (GPa) = 158.41585 135.99055 112.27517
#
# Poissons Ratio (x) = 0.28168 0.05813
# Poissons Ratio (y) = 0.32813 0.02131
# Poissons Ratio (z) = 0.08202 0.02581
#
# Static dielectric constant tensor:
#      x y z
#    x 2.141420 0.000000 0.000000 
#    y 0.000000 2.125190 0.000000 
#    z 0.000000 0.000000 1.715980 
# 
# From -- ./inp_files/24244.got.cif
#   From: 2010.05.17/outbox.cif.g08.bks.cpg/sg21_13_cif.got.tgz:24244.got - 2010.06.03 23:14:55.
