data_PCOD9322624
_publ_section_title
;
Structure prediction by ZEFSAII (Michael W. Deem and Ramdas Pophale) SiO2 
 PCOD9322624
Probable space group: C 2 2 2
;
_chemical_formula_sum "Si O2"
_cell_formula_units_Z 30
_cell_length_a 5.115981
_cell_length_b 14.902550
_cell_length_c 19.223969
_cell_angle_alpha 90.000000
_cell_angle_beta 90.000000
_cell_angle_gamma 90.000000
_cell_volume 1465.657747
_symmetry_space_group_name_H-M "C 2 2 2"
_symmetry_group_IT_number 21
_symmetry_cell_setting 'orthorhombic'
loop_
_space_group_symop_operation_xyz
x,y,z
-x,-y,z
x,-y,-z
-x,y,-z
1/2+x,1/2+y,z
1/2-x,1/2-y,z
1/2+x,1/2-y,-z
1/2-x,1/2+y,-z
loop_
_atom_site_type_symbol
_atom_site_label
_atom_site_fract_x
_atom_site_fract_y
_atom_site_fract_z
Si Si1 0.000000 0.500000 0.241152
Si Si2 0.000000 0.500000 0.000000
Si Si3 0.750000 0.750000 0.949904
Si Si4 0.500000 0.500000 0.338537
Si Si5 0.198833 0.081039 0.873912
Si Si6 0.498151 0.690055 0.416212
O O1 0.753136 0.514315 0.290358
O O2 0.913141 0.421805 0.187277
O O3 0.178996 0.446234 0.947678
O O4 0.884769 0.820413 0.895434
O O5 0.500000 0.773674 0.000000
O O6 0.479623 0.591278 0.383219
O O7 0.000000 0.000000 0.856964
O O8 0.500000 0.679661 0.500000
O O9 0.750000 0.750000 0.396681
O O10 0.250000 0.750000 0.396277
#
# Coordination Sequence:
#
# PCOD9322624 Si02
#       6
#     4   2   4   4   8   8
#     4  11  26  43  65  94 133 184 226 250 335 402
#     4  10  18  36  68  86 116 158 206 270 342 366
#     4  12  26  42  68 102 118 156 226 278 340 406
#     4  12  23  46  66  97 138 182 222 268 318 399
#     4  11  23  44  64  92 130 168 211 281 330 394
#     4  10  22  42  71 105 135 171 222 277 331 380
#
# _framework density 20.468624999999999
#
# number of rings (size 3 to 8) (size 9 to 14) (size 15 to 20)
#    0.000    1.067    2.667    4.000    3.733    0.000 
#    7.200    5.333    0.000    0.000    0.000    0.000 
#    0.000    0.000    0.000    0.000    0.000    0.000 
#
# Total GULP energy -83533.912456 kJ/mol
# GULP energy per Si atom -5568.927497 kJ/mol
# Density = 2.042204 g / cm^3
# Si number density = 20.468625 Si / 1000 Ang^3
#
#
#
# Elastic Constant Matrix: (Units=GPa)
#
#
# Indices 1 2 3 4 5 6 
#
# 1 149.9991 56.1617 51.0360 0.0000 0.0000 0.0000
# 2 56.1617 151.1162 63.0787 0.0000 0.0000 0.0000
# 3 51.0360 63.0787 88.9955 0.0000 0.0000 0.0000
# 4 0.0000 0.0000 0.0000 0.3834 0.0000 0.0000
# 5 0.0000 0.0000 0.0000 0.0000 19.1665 0.0000
# 6 0.0000 0.0000 0.0000 0.0000 0.0000 16.4566
#
#
#
# Elastic Compliance Matrix: (Units=1/GPa)
#
#
# Indices 1 2 3 4 5 6 
#
# 1 0.008549 -0.001606 -0.003764 0.000000 0.000000 0.000000
# 2 -0.001606 0.009700 -0.005954 0.000000 0.000000 0.000000
# 3 -0.003764 -0.005954 0.017615 0.000000 0.000000 0.000000
# 4 0.000000 0.000000 0.000000 2.608330 0.000000 0.000000
# 5 0.000000 0.000000 0.000000 0.000000 0.052174 0.000000
# 6 0.000000 0.000000 0.000000 0.000000 0.000000 0.060766
#
#
# Mechanical properties :
#
#
# Convention : Reuss Voigt Hill
#
# Bulk Modulus (GPa) = 75.66909 81.18486 78.42697
# Shear Modulus (GPa) = 1.79586 21.85693 11.82639
#
# Velocity S-wave (km/s) = 0.93770 3.27131 2.40632
# Velocity P-wave (km/s) = 6.18231 7.34968 6.79112
#
# Compressibility (1/GPa) = 0.01321544
#
# Stress axis : x y z
#
# Youngs Moduli (GPa) = 116.97693 103.09774 56.76893
#
# Poissons Ratio (x) = 0.16556 0.21369
# Poissons Ratio (y) = 0.18785 0.33800
# Poissons Ratio (z) = 0.44032 0.61384
#
# Static dielectric constant tensor:
#      x y z
#    x 1.782980 0.000000 0.000000 
#    y 0.000000 1.893440 0.000000 
#    z 0.000000 0.000000 1.707260 
# 
# From -- ./inp_files/34387.got.cif
#   From: 2010.05.17/outbox.cif.g08.bks.cpg/sg21_18_cif.got.tgz:34387.got - 2010.06.03 23:14:55.
