data_PCOD9322580
_publ_section_title
;
Structure prediction by ZEFSAII (Michael W. Deem and Ramdas Pophale) SiO2 
 PCOD9322580
Probable space group: C 2 2 2
;
_chemical_formula_sum "Si O2"
_cell_formula_units_Z 32
_cell_length_a 14.438412
_cell_length_b 5.485318
_cell_length_c 17.802133
_cell_angle_alpha 90.000000
_cell_angle_beta 90.000000
_cell_angle_gamma 90.000000
_cell_volume 1409.916138
_symmetry_space_group_name_H-M "C 2 2 2"
_symmetry_group_IT_number 21
_symmetry_cell_setting 'orthorhombic'
loop_
_space_group_symop_operation_xyz
x,y,z
-x,-y,z
x,-y,-z
-x,y,-z
1/2+x,1/2+y,z
1/2-x,1/2-y,z
1/2+x,1/2-y,-z
1/2-x,1/2+y,-z
loop_
_atom_site_type_symbol
_atom_site_label
_atom_site_fract_x
_atom_site_fract_y
_atom_site_fract_z
Si Si1 0.348400 0.110015 0.660301
Si Si2 0.402156 0.380691 0.802429
Si Si3 0.250000 0.750000 0.761819
Si Si4 0.361263 0.755802 0.039251
Si Si5 0.187915 0.500000 0.500000
O O1 0.250000 0.250000 0.654123
O O2 0.406855 0.266733 0.718893
O O3 0.372064 0.050134 0.574816
O O4 0.325177 0.869890 0.706882
O O5 0.500000 0.500000 0.816337
O O6 0.311076 0.554613 0.805893
O O7 0.386575 0.209528 0.873313
O O8 0.250000 0.750000 0.033543
O O9 0.392651 0.500000 0.000000
O O10 0.394959 0.000000 0.000000
O O11 0.250000 0.250000 0.487054
#
# Coordination Sequence:
#
# PCOD9322580 Si02
#       5
#     8   8   4   8   4
#     4   9  19  36  63 100 134 176 233 283 342 414
#     4  11  25  42  67 103 139 183 235 286 355 431
#     4  10  20  40  70  94 132 182 228 286 350 404
#     4  10  23  43  71  97 133 181 228 289 349 411
#     4  10  18  34  64 105 133 182 240 290 345 412
#
# _framework density 22.696386
#
# number of rings (size 3 to 8) (size 9 to 14) (size 15 to 20)
#    0.000    2.000    1.250    2.250    8.750    1.500 
#    0.000    1.250    0.000    4.500    0.000    0.000 
#    0.000    0.000    0.000    0.000    0.000    0.000 
#
# Total GULP energy -89265.140114 kJ/mol
# GULP energy per Si atom -5579.071257 kJ/mol
# Density = 2.264473 g / cm^3
# Si number density = 22.696386 Si / 1000 Ang^3
#
#
#
# Elastic Constant Matrix: (Units=GPa)
#
#
# Indices 1 2 3 4 5 6 
#
# 1 67.1549 17.6219 34.8298 0.0000 0.0000 0.0000
# 2 17.6219 106.7861 54.2474 0.0000 0.0000 0.0000
# 3 34.8298 54.2474 163.6288 0.0000 0.0000 0.0000
# 4 0.0000 0.0000 0.0000 -13.8167 0.0000 0.0000
# 5 0.0000 0.0000 0.0000 0.0000 33.9393 0.0000
# 6 0.0000 0.0000 0.0000 0.0000 0.0000 1.5960
#
#
#
# Elastic Compliance Matrix: (Units=1/GPa)
#
#
# Indices 1 2 3 4 5 6 
#
# 1 0.016856 -0.001153 -0.003206 0.000000 0.000000 0.000000
# 2 -0.001153 0.011340 -0.003514 0.000000 0.000000 0.000000
# 3 -0.003206 -0.003514 0.007959 0.000000 0.000000 0.000000
# 4 0.000000 0.000000 0.000000 -0.072376 0.000000 0.000000
# 5 0.000000 0.000000 0.000000 0.000000 0.029464 0.000000
# 6 0.000000 0.000000 0.000000 0.000000 0.000000 0.626574
#
#
# Mechanical properties :
#
#
# Convention : Reuss Voigt Hill
#
# Bulk Modulus (GPa) = 48.99764 61.21866 55.10815
# Shear Modulus (GPa) = 7.78373 19.73510 13.75941
#
# Velocity S-wave (km/s) = 1.85390 2.95197 2.46486
# Velocity P-wave (km/s) = 5.12033 6.21693 5.69509
#
# Compressibility (1/GPa) = 0.02040915
#
# Stress axis : x y z
#
# Youngs Moduli (GPa) = 59.32547 88.18390 125.64790
#
# Poissons Ratio (x) = 0.10169 0.40279
# Poissons Ratio (y) = 0.06841 0.44153
# Poissons Ratio (z) = 0.19018 0.30988
#
# Static dielectric constant tensor:
#      x y z
#    x 1.774220 0.000000 0.000000 
#    y 0.000000 1.864050 0.000000 
#    z 0.000000 0.000000 1.852430 
# 
# From -- ./inp_files/32626.got.cif
#   From: 2010.05.17/outbox.cif.g08.bks.cpg/sg21_17_cif.got.tgz:32626.got - 2010.06.03 23:14:55.
