data_PCOD9322243
_publ_section_title
;
Structure prediction by ZEFSAII (Michael W. Deem and Ramdas Pophale) SiO2 
 PCOD9322243
Probable space group: C 2 2 21
;
_chemical_formula_sum "Si O2"
_cell_formula_units_Z 28
_cell_length_a 9.000000
_cell_length_b 15.000000
_cell_length_c 21.000000
_cell_angle_alpha 90.000000
_cell_angle_beta 90.000000
_cell_angle_gamma 90.000000
_cell_volume 2835.000000
_symmetry_space_group_name_H-M "C 2 2 21"
_symmetry_group_IT_number 20
_symmetry_cell_setting 'orthorhombic'
loop_
_space_group_symop_operation_xyz
x,y,z
-x,-y,1/2+z
x,-y,-z
-x,y,1/2-z
1/2+x,1/2+y,z
1/2-x,1/2-y,1/2+z
1/2+x,1/2-y,-z
1/2-x,1/2+y,1/2-z
loop_
_atom_site_type_symbol
_atom_site_label
_atom_site_fract_x
_atom_site_fract_y
_atom_site_fract_z
Si Si1 0.576601 0.380018 0.660514
Si Si2 0.316303 0.094930 0.867545
Si Si3 0.834041 0.729999 0.047159
Si Si4 0.840537 0.049850 0.441701
Si Si5 0.312478 0.774665 0.581067
Si Si6 0.619152 0.197983 0.842122
Si Si7 0.832918 0.938149 0.236713
O O1 0.464771 0.425867 0.610084
O O2 0.729729 0.341932 0.629910
O O3 0.472818 0.290363 0.679474
O O4 0.631848 0.463380 0.705476
O O5 0.211934 0.177956 0.887027
O O6 0.482380 0.134252 0.863469
O O7 0.256793 0.052438 0.802245
O O8 0.285624 0.017522 0.917242
O O9 0.749995 0.636468 0.038078
O O10 0.735746 0.773898 0.103204
O O11 0.010956 0.718629 0.062759
O O12 0.794288 0.780124 0.981429
O O13 0.918211 0.000000 0.500000
O O14 0.726482 0.135483 0.798183
O O15 0.000000 0.901272 0.250000
#
# Coordination Sequence:
#
# PCOD9322243 Si02
#       7
#     8   8   8   8   8   8   8
#     4  10  25  44  68 103 140 184 234 294 354 433
#     4  11  23  43  67  94 136 179 232 285 359 417
#     4  11  23  42  69  99 139 177 237 286 366 435
#     4  11  22  40  67  98 138 176 224 292 347 426
#     4  11  23  43  68 101 136 182 227 295 359 430
#     4  10  25  46  69 100 137 186 235 298 361 426
#     4  12  24  44  72  97 138 186 237 290 355 437
#
# _framework density 9.8765429999999999
#
# number of rings (size 3 to 8) (size 9 to 14) (size 15 to 20)
#    0.000    1.143    2.857    3.857    2.000    2.286 
#    0.000    0.714    0.000    0.000    0.000    0.000 
#    0.000    0.000    0.000    0.000    0.000    0.000 
#
# Total GULP energy -155927.920972 kJ/mol
# GULP energy per Si atom -5568.854320 kJ/mol
# Density = 0.985406 g / cm^3
# Si number density = 9.876543 Si / 1000 Ang^3
#
#
#
# Elastic Constant Matrix: (Units=GPa)
#
#
# Indices 1 2 3 4 5 6 
#
# 1 141.8038 14.1088 23.4226 0.0000 0.0000 0.0000
# 2 14.1088 84.0298 37.6766 0.0000 0.0000 0.0000
# 3 23.4226 37.6766 85.1525 0.0000 0.0000 0.0000
# 4 0.0000 0.0000 0.0000 27.8141 0.0000 0.0000
# 5 0.0000 0.0000 0.0000 0.0000 38.0672 0.0000
# 6 0.0000 0.0000 0.0000 0.0000 0.0000 34.6616
#
#
#
# Elastic Compliance Matrix: (Units=1/GPa)
#
#
# Indices 1 2 3 4 5 6 
#
# 1 0.007399 -0.000411 -0.001853 0.000000 0.000000 0.000000
# 2 -0.000411 0.014869 -0.006466 0.000000 0.000000 0.000000
# 3 -0.001853 -0.006466 0.015114 0.000000 0.000000 0.000000
# 4 0.000000 0.000000 0.000000 0.035953 0.000000 0.000000
# 5 0.000000 0.000000 0.000000 0.000000 0.026269 0.000000
# 6 0.000000 0.000000 0.000000 0.000000 0.000000 0.028850
#
#
# Mechanical properties :
#
#
# Convention : Reuss Voigt Hill
#
# Bulk Modulus (GPa) = 50.19727 51.26690 50.73208
# Shear Modulus (GPa) = 32.77499 35.82713 34.30106
#
# Velocity S-wave (km/s) = 4.07779 4.26343 4.17164
# Velocity P-wave (km/s) = 6.90208 7.08844 6.99588
#
# Compressibility (1/GPa) = 0.01992140
#
# Stress axis : x y z
#
# Youngs Moduli (GPa) = 135.15276 67.25577 66.16306
#
# Poissons Ratio (x) = 0.02767 0.12261
# Poissons Ratio (y) = 0.05560 0.42778
# Poissons Ratio (z) = 0.25047 0.43485
#
# Static dielectric constant tensor:
#      x y z
#    x 1.639170 0.000000 0.000000 
#    y 0.000000 1.725800 0.000000 
#    z 0.000000 0.000000 1.814590 
# 
# From -- ./inp_files/26734.got.cif
#   From: 2010.05.17/outbox.ucp.g08.bks.cvg/sg20_14_cif.got.tgz:26734.got - 2010.06.11 15:13:06.
