data_PCOD9322275
_publ_section_title
;
Structure prediction by ZEFSAII (Michael W. Deem and Ramdas Pophale) SiO2 
 PCOD9322275
Probable space group: C 2 2 2
;
_chemical_formula_sum "Si O2"
_cell_formula_units_Z 48
_cell_length_a 5.770930
_cell_length_b 19.178081
_cell_length_c 23.135685
_cell_angle_alpha 90.000000
_cell_angle_beta 90.000000
_cell_angle_gamma 90.000000
_cell_volume 2560.550335
_symmetry_space_group_name_H-M "C 2 2 2"
_symmetry_group_IT_number 21
_symmetry_cell_setting 'orthorhombic'
loop_
_space_group_symop_operation_xyz
x,y,z
-x,-y,z
x,-y,-z
-x,y,-z
1/2+x,1/2+y,z
1/2-x,1/2-y,z
1/2+x,1/2-y,-z
1/2-x,1/2+y,-z
loop_
_atom_site_type_symbol
_atom_site_label
_atom_site_fract_x
_atom_site_fract_y
_atom_site_fract_z
Si Si1 0.513725 0.421931 0.112497
Si Si2 0.252213 0.540217 0.350698
Si Si3 0.328654 0.177347 0.954749
Si Si4 0.750334 0.581755 0.521573
Si Si5 0.376531 0.178666 0.158516
Si Si6 0.350528 0.071624 0.776574
O O1 0.500000 0.500000 0.089918
O O2 0.627402 0.373154 0.064624
O O3 0.285265 0.382184 0.132665
O O4 0.670081 0.428422 0.170548
O O5 0.500000 0.500000 0.355070
O O6 0.247467 0.584717 0.409089
O O7 0.256681 0.573772 0.287093
O O8 0.000000 0.500000 0.352328
O O9 0.250000 0.250000 0.982551
O O10 0.454473 0.196656 0.894625
O O11 0.500000 0.142080 0.000000
O O12 0.750499 0.500000 0.500000
O O13 0.500000 0.610038 0.500000
O O14 0.000000 0.610378 0.500000
O O15 0.250000 0.250000 0.174457
O O16 0.500947 0.140892 0.211547
O O17 0.500000 0.000000 0.780678
#
# Coordination Sequence:
#
# PCOD9322275 Si02
#       6
#     8   8   8   8   8   8
#     4  11  22  41  63  85 120 150 190 245 302 357
#     4  11  19  29  48  76 113 160 207 240 304 367
#     4  11  24  40  66  89 111 150 198 242 294 367
#     4  10  15  26  40  67 106 157 202 242 294 364
#     4  11  22  41  62  86 112 155 196 240 302 355
#     4  10  22  34  57  85 114 159 197 244 296 365
#
# _framework density 18.745971000000001
#
# number of rings (size 3 to 8) (size 9 to 14) (size 15 to 20)
#    0.000    1.333    6.667    1.000    2.333    0.000 
#    0.000    2.500    0.000    0.000    0.000    0.000 
#    0.000    0.000    5.667    0.333    0.000    0.000 
#
# Total GULP energy -133764.854585 kJ/mol
# GULP energy per Si atom -5573.535608 kJ/mol
# Density = 1.870330 g / cm^3
# Si number density = 18.745971 Si / 1000 Ang^3
#
#
#
# Elastic Constant Matrix: (Units=GPa)
#
#
# Indices 1 2 3 4 5 6 
#
# 1 108.2334 15.3048 23.6800 0.0000 0.0000 0.0000
# 2 15.3048 69.2091 0.5928 0.0000 0.0000 0.0000
# 3 23.6800 0.5928 96.9533 0.0000 0.0000 0.0000
# 4 0.0000 0.0000 0.0000 -1.2086 0.0000 0.0000
# 5 0.0000 0.0000 0.0000 0.0000 30.7419 0.0000
# 6 0.0000 0.0000 0.0000 0.0000 0.0000 22.8882
#
#
#
# Elastic Compliance Matrix: (Units=1/GPa)
#
#
# Indices 1 2 3 4 5 6 
#
# 1 0.010088 -0.002210 -0.002450 0.000000 0.000000 0.000000
# 2 -0.002210 0.014934 0.000448 0.000000 0.000000 0.000000
# 3 -0.002450 0.000448 0.010910 0.000000 0.000000 0.000000
# 4 0.000000 0.000000 0.000000 -0.827421 0.000000 0.000000
# 5 0.000000 0.000000 0.000000 0.000000 0.032529 0.000000
# 6 0.000000 0.000000 0.000000 0.000000 0.000000 0.043691
#
#
# Mechanical properties :
#
#
# Convention : Reuss Voigt Hill
#
# Bulk Modulus (GPa) = 36.35293 39.28348 37.81820
# Shear Modulus (GPa) = -7.16664 26.13886 9.48611
#
# Velocity S-wave (km/s) = -1.95738 3.73818 2.25196
# Velocity P-wave (km/s) = 3.78498 6.29549 5.19419
#
# Compressibility (1/GPa) = 0.02750810
#
# Stress axis : x y z
#
# Youngs Moduli (GPa) = 99.12887 66.96217 91.65920
#
# Poissons Ratio (x) = 0.14798 0.22460
# Poissons Ratio (y) = 0.21906 -0.04110
# Poissons Ratio (z) = 0.24290 -0.03003
#
# Static dielectric constant tensor:
#      x y z
#    x 1.769500 0.000000 0.000000 
#    y 0.000000 1.589580 0.000000 
#    z 0.000000 0.000000 1.620230 
# 
# From -- ./inp_files/38235.got.cif
#   From: 2010.05.17/outbox.cif.g08.bks.cpg/sg21_20_cif.got.tgz:38235.got - 2010.06.03 23:14:55.
