data_PCOD9322721
_publ_section_title
;
Structure prediction by ZEFSAII (Michael W. Deem and Ramdas Pophale) SiO2 
 PCOD9322721
Probable space group: C 2 2 2
;
_chemical_formula_sum "Si O2"
_cell_formula_units_Z 48
_cell_length_a 11.392323
_cell_length_b 29.863318
_cell_length_c 8.054686
_cell_angle_alpha 90.000000
_cell_angle_beta 90.000000
_cell_angle_gamma 90.000000
_cell_volume 2740.305380
_symmetry_space_group_name_H-M "C 2 2 2"
_symmetry_group_IT_number 21
_symmetry_cell_setting 'orthorhombic'
loop_
_space_group_symop_operation_xyz
x,y,z
-x,-y,z
x,-y,-z
-x,y,-z
1/2+x,1/2+y,z
1/2-x,1/2-y,z
1/2+x,1/2-y,-z
1/2-x,1/2+y,-z
loop_
_atom_site_type_symbol
_atom_site_label
_atom_site_fract_x
_atom_site_fract_y
_atom_site_fract_z
Si Si1 0.091728 0.280559 0.786228
Si Si2 0.671691 0.794284 0.169483
Si Si3 0.666315 0.636442 0.355853
Si Si4 0.175949 0.182995 0.698295
Si Si5 0.063638 0.102937 0.835186
Si Si6 0.139679 0.950581 0.458355
O O1 0.111788 0.227895 0.756225
O O2 0.186692 0.306390 0.677344
O O3 0.957662 0.292012 0.750706
O O4 0.136396 0.291868 0.973743
O O5 0.750000 0.750000 0.204045
O O6 0.744350 0.836780 0.237667
O O7 0.638751 0.666046 0.517817
O O8 0.546203 0.624880 0.262504
O O9 0.702455 0.588229 0.434658
O O10 0.151924 0.145007 0.836679
O O11 0.132481 0.065012 0.732778
O O12 0.000000 0.086377 0.000000
O O13 0.000000 0.950156 0.500000
O O14 0.183808 0.000000 0.500000
#
# Coordination Sequence:
#
# PCOD9322721 Si02
#       6
#     8   8   8   8   8   8
#     4  10  22  34  50  70 104 147 178 227 256 309
#     4  11  21  34  50  73 103 143 182 216 269 311
#     4  10  21  33  51  77 104 143 175 221 271 320
#     4  10  19  35  46  72 106 139 185 212 265 313
#     4  10  19  31  56  80 106 141 176 221 270 322
#     4   8  16  34  53  76 110 139 171 221 275 327
#
# _framework density 17.516296000000001
#
# number of rings (size 3 to 8) (size 9 to 14) (size 15 to 20)
#    0.000    2.167    1.667    3.500    4.667    0.667 
#    0.000    6.667    0.000    0.000    0.000    9.333 
#    0.000   10.667    0.000    0.000    0.000    0.000 
#
# Total GULP energy -133610.738994 kJ/mol
# GULP energy per Si atom -5567.114125 kJ/mol
# Density = 1.747643 g / cm^3
# Si number density = 17.516296 Si / 1000 Ang^3
#
#
#
# Elastic Constant Matrix: (Units=GPa)
#
#
# Indices 1 2 3 4 5 6 
#
# 1 81.7491 39.5868 17.5029 0.0000 0.0000 0.0000
# 2 39.5868 128.0203 48.0675 0.0000 0.0000 0.0000
# 3 17.5029 48.0675 63.8982 0.0000 0.0000 0.0000
# 4 0.0000 0.0000 0.0000 11.0366 0.0000 0.0000
# 5 0.0000 0.0000 0.0000 0.0000 23.0522 0.0000
# 6 0.0000 0.0000 0.0000 0.0000 0.0000 15.6332
#
#
#
# Elastic Compliance Matrix: (Units=1/GPa)
#
#
# Indices 1 2 3 4 5 6 
#
# 1 0.014418 -0.004147 -0.000830 0.000000 0.000000 0.000000
# 2 -0.004147 0.012079 -0.007950 0.000000 0.000000 0.000000
# 3 -0.000830 -0.007950 0.021858 0.000000 0.000000 0.000000
# 4 0.000000 0.000000 0.000000 0.090608 0.000000 0.000000
# 5 0.000000 0.000000 0.000000 0.000000 0.043380 0.000000
# 6 0.000000 0.000000 0.000000 0.000000 0.000000 0.063967
#
#
# Mechanical properties :
#
#
# Convention : Reuss Voigt Hill
#
# Bulk Modulus (GPa) = 44.44320 53.77576 49.10948
# Shear Modulus (GPa) = 17.87864 21.17843 19.52853
#
# Velocity S-wave (km/s) = 3.19828 3.48094 3.34260
# Velocity P-wave (km/s) = 6.25030 6.85004 6.55703
#
# Compressibility (1/GPa) = 0.02250063
#
# Stress axis : x y z
#
# Youngs Moduli (GPa) = 69.35603 82.79093 45.75024
#
# Poissons Ratio (x) = 0.34332 0.03797
# Poissons Ratio (y) = 0.28761 0.36373
# Poissons Ratio (z) = 0.05756 0.65821
#
# Static dielectric constant tensor:
#      x y z
#    x 1.616760 0.000000 0.000000 
#    y 0.000000 1.613400 0.000000 
#    z 0.000000 0.000000 1.696710 
# 
# From -- ./inp_files/13452.got.cif
#   From: 2010.05.17/outbox.cif.g08.bks.cpg/sg21_7_cif.got.tgz:13452.got - 2010.06.03 23:14:55.
