data_PCOD9322892
_publ_section_title
;
Structure prediction by ZEFSAII (Michael W. Deem and Ramdas Pophale) SiO2 
 PCOD9322892
Probable space group: C 2 2 2
;
_chemical_formula_sum "Si O2"
_cell_formula_units_Z 48
_cell_length_a 17.000526
_cell_length_b 8.780252
_cell_length_c 17.246974
_cell_angle_alpha 90.000000
_cell_angle_beta 90.000000
_cell_angle_gamma 90.000000
_cell_volume 2574.436879
_symmetry_space_group_name_H-M "C 2 2 2"
_symmetry_group_IT_number 21
_symmetry_cell_setting 'orthorhombic'
loop_
_space_group_symop_operation_xyz
x,y,z
-x,-y,z
x,-y,-z
-x,y,-z
1/2+x,1/2+y,z
1/2-x,1/2-y,z
1/2+x,1/2-y,-z
1/2-x,1/2+y,-z
loop_
_atom_site_type_symbol
_atom_site_label
_atom_site_fract_x
_atom_site_fract_y
_atom_site_fract_z
Si Si1 0.662793 0.300644 0.827859
Si Si2 0.082795 0.692663 0.343245
Si Si3 0.894961 0.340423 0.667950
Si Si4 0.079767 0.098054 0.796175
Si Si5 0.335521 0.183472 0.499733
Si Si6 0.989787 0.322586 0.908412
O O1 0.750000 0.250000 0.849107
O O2 0.643697 0.239911 0.741278
O O3 0.644552 0.480458 0.826766
O O4 0.596964 0.227680 0.882866
O O5 0.116859 0.523349 0.327717
O O6 0.109265 0.815099 0.280091
O O7 0.106294 0.732166 0.431182
O O8 0.988835 0.682788 0.332899
O O9 0.862702 0.276013 0.586866
O O10 0.050835 0.220715 0.859419
O O11 0.000000 0.000000 0.778334
O O12 0.250000 0.250000 0.515751
O O13 0.333442 0.000000 0.500000
O O14 0.000000 0.500000 0.888839
O O15 0.000000 0.300965 0.000000
#
# Coordination Sequence:
#
# PCOD9322892 Si02
#       6
#     8   8   8   8   8   8
#     4  11  23  38  61  93 128 155 196 253 304 347
#     4  10  19  35  59  82 109 157 209 246 290 376
#     4  10  19  36  59  80 115 156 203 248 304 357
#     4  10  20  36  60  89 119 153 200 239 297 361
#     4  10  22  36  51  78 114 157 199 253 310 348
#     4  10  21  42  68  91 119 162 199 237 294 371
#
# _framework density 18.644853000000001
#
# number of rings (size 3 to 8) (size 9 to 14) (size 15 to 20)
#    0.000    1.833    3.333    2.000    0.000    9.000 
#    0.000    5.833    0.000    0.000    0.000    0.000 
#    0.000    0.000    0.000    0.000    0.000    0.000 
#
# Total GULP energy -134001.633352 kJ/mol
# GULP energy per Si atom -5583.401390 kJ/mol
# Density = 1.860242 g / cm^3
# Si number density = 18.644853 Si / 1000 Ang^3
#
#
#
# Elastic Constant Matrix: (Units=GPa)
#
#
# Indices 1 2 3 4 5 6 
#
# 1 79.5398 38.1137 33.1397 0.0000 0.0000 0.0000
# 2 38.1137 95.3976 65.9497 0.0000 0.0000 0.0000
# 3 33.1397 65.9497 101.2424 0.0000 0.0000 0.0000
# 4 0.0000 0.0000 0.0000 -69.9969 0.0000 0.0000
# 5 0.0000 0.0000 0.0000 0.0000 -30.6961 0.0000
# 6 0.0000 0.0000 0.0000 0.0000 0.0000 21.2078
#
#
#
# Elastic Compliance Matrix: (Units=1/GPa)
#
#
# Indices 1 2 3 4 5 6 
#
# 1 0.015752 -0.004964 -0.001922 0.000000 0.000000 0.000000
# 2 -0.004964 0.020635 -0.011817 0.000000 0.000000 0.000000
# 3 -0.001922 -0.011817 0.018204 0.000000 0.000000 0.000000
# 4 0.000000 0.000000 0.000000 -0.014286 0.000000 0.000000
# 5 0.000000 0.000000 0.000000 0.000000 -0.032577 0.000000
# 6 0.000000 0.000000 0.000000 0.000000 0.000000 0.047152
#
#
# Mechanical properties :
#
#
# Convention : Reuss Voigt Hill
#
# Bulk Modulus (GPa) = 58.19315 61.17623 59.68469
# Shear Modulus (GPa) = 51.01296 -6.63193 22.19052
#
# Velocity S-wave (km/s) = 5.23639 -1.88804 3.45362
# Velocity P-wave (km/s) = 8.23643 5.30374 6.92706
#
# Compressibility (1/GPa) = 0.01718415
#
# Stress axis : x y z
#
# Youngs Moduli (GPa) = 63.48372 48.46168 54.93326
#
# Poissons Ratio (x) = 0.24059 0.10560
# Poissons Ratio (y) = 0.31516 0.64913
# Poissons Ratio (z) = 0.12203 0.57265
#
# Static dielectric constant tensor:
#      x y z
#    x 1.621590 0.000000 0.000000 
#    y 0.000000 1.659770 0.000000 
#    z 0.000000 0.000000 1.638520 
# 
# From -- ./inp_files/32854.got.cif
#   From: 2010.05.17/outbox.cif.g08.bks.cpg/sg21_17_cif.got.tgz:32854.got - 2010.06.03 23:14:55.
