data_PCOD9322399
_publ_section_title
;
Structure prediction by ZEFSAII (Michael W. Deem and Ramdas Pophale) SiO2 
 PCOD9322399
Probable space group: C 2 2 2
;
_chemical_formula_sum "Si O2"
_cell_formula_units_Z 64
_cell_length_a 16.675798
_cell_length_b 21.037457
_cell_length_c 9.203613
_cell_angle_alpha 90.000000
_cell_angle_beta 90.000000
_cell_angle_gamma 90.000000
_cell_volume 3228.778227
_symmetry_space_group_name_H-M "C 2 2 2"
_symmetry_group_IT_number 21
_symmetry_cell_setting 'orthorhombic'
loop_
_space_group_symop_operation_xyz
x,y,z
-x,-y,z
x,-y,-z
-x,y,-z
1/2+x,1/2+y,z
1/2-x,1/2-y,z
1/2+x,1/2-y,-z
1/2-x,1/2+y,-z
loop_
_atom_site_type_symbol
_atom_site_label
_atom_site_fract_x
_atom_site_fract_y
_atom_site_fract_z
Si Si1 0.604116 0.119560 0.164931
Si Si2 0.167095 0.856236 0.993074
Si Si3 0.748557 0.534125 0.849957
Si Si4 0.238968 0.595747 0.717797
Si Si5 0.074330 0.633977 0.824753
Si Si6 0.634471 0.734601 0.768035
Si Si7 0.552203 0.285168 0.788726
Si Si8 0.184785 0.199073 0.448342
O O1 0.676066 0.073669 0.207863
O O2 0.513585 0.109260 0.220405
O O3 0.628763 0.190415 0.210024
O O4 0.594378 0.115323 0.990255
O O5 0.229419 0.866284 0.861674
O O6 0.087156 0.834507 0.907284
O O7 0.177632 0.918818 0.094869
O O8 0.182056 0.798750 0.102269
O O9 0.731885 0.476127 0.741811
O O10 0.775012 0.500000 0.000000
O O11 0.143845 0.606198 0.723479
O O12 0.277583 0.630333 0.580986
O O13 0.069817 0.711173 0.828409
O O14 0.542740 0.709270 0.773672
O O15 0.669858 0.715302 0.614244
O O16 0.602622 0.296101 0.642018
O O17 0.250000 0.250000 0.389365
#
# Coordination Sequence:
#
# PCOD9322399 Si02
#       8
#     8   8   8   8   8   8   8   8
#     4  10  20  31  55  90 123 153 195 254 306 359
#     4  10  20  33  60  84 115 150 196 250 305 343
#     4  10  20  35  52  85 124 161 199 247 294 366
#     4  10  21  38  56  81 123 162 202 237 300 371
#     4  10  17  32  55  85 122 159 191 240 311 366
#     4  11  23  36  58  91 121 144 202 257 306 352
#     4  10  20  38  58  87 120 156 184 250 311 368
#     4  11  23  36  61  86 118 158 202 242 306 356
#
# _framework density 19.821739000000001
#
# number of rings (size 3 to 8) (size 9 to 14) (size 15 to 20)
#    0.000    1.750    5.000    0.750    1.750    1.500 
#    0.000    0.625    0.000   23.250    0.000    7.000 
#    0.000    0.000    0.000    0.000    0.000    0.000 
#
# Total GULP energy -178537.489266 kJ/mol
# GULP energy per Si atom -5579.296540 kJ/mol
# Density = 1.977662 g / cm^3
# Si number density = 19.821739 Si / 1000 Ang^3
#
#
#
# Elastic Constant Matrix: (Units=GPa)
#
#
# Indices 1 2 3 4 5 6 
#
# 1 91.8564 36.3907 14.2062 0.0000 0.0000 0.0000
# 2 36.3907 91.1558 21.4352 0.0000 0.0000 0.0000
# 3 14.2062 21.4352 44.1803 0.0000 0.0000 0.0000
# 4 0.0000 0.0000 0.0000 -2.9932 0.0000 0.0000
# 5 0.0000 0.0000 0.0000 0.0000 16.7380 0.0000
# 6 0.0000 0.0000 0.0000 0.0000 0.0000 23.7356
#
#
#
# Elastic Compliance Matrix: (Units=1/GPa)
#
#
# Indices 1 2 3 4 5 6 
#
# 1 0.013070 -0.004774 -0.001886 0.000000 0.000000 0.000000
# 2 -0.004774 0.014127 -0.005319 0.000000 0.000000 0.000000
# 3 -0.001886 -0.005319 0.025822 0.000000 0.000000 0.000000
# 4 0.000000 0.000000 0.000000 -0.334087 0.000000 0.000000
# 5 0.000000 0.000000 0.000000 0.000000 0.059744 0.000000
# 6 0.000000 0.000000 0.000000 0.000000 0.000000 0.042131
#
#
# Mechanical properties :
#
#
# Convention : Reuss Voigt Hill
#
# Bulk Modulus (GPa) = 34.41193 41.25070 37.83132
# Shear Modulus (GPa) = -34.35288 17.84009 -8.25639
#
# Velocity S-wave (km/s) = -4.16756 3.00330 -2.04313
# Velocity P-wave (km/s) = 2.39993 5.73432 3.68258
#
# Compressibility (1/GPa) = 0.02905969
#
# Stress axis : x y z
#
# Youngs Moduli (GPa) = 76.51343 70.78735 38.72714
#
# Poissons Ratio (x) = 0.33794 0.07305
# Poissons Ratio (y) = 0.36528 0.20599
# Poissons Ratio (z) = 0.14433 0.37651
#
# Static dielectric constant tensor:
#      x y z
#    x 1.748770 0.000000 0.000000 
#    y 0.000000 1.710790 0.000000 
#    z 0.000000 0.000000 1.708150 
# 
# From -- ./inp_files/16848.got.cif
#   From: 2010.05.17/outbox.cif.g08.bks.cpg/sg21_9_cif.got.tgz:16848.got - 2010.06.03 23:14:55.
