data_PCOD9322409
_publ_section_title
;
Structure prediction by ZEFSAII (Michael W. Deem and Ramdas Pophale) SiO2 
 PCOD9322409
Probable space group: C 2 2 2
;
_chemical_formula_sum "Si O2"
_cell_formula_units_Z 64
_cell_length_a 17.571789
_cell_length_b 20.095861
_cell_length_c 9.551250
_cell_angle_alpha 90.000000
_cell_angle_beta 90.000000
_cell_angle_gamma 90.000000
_cell_volume 3372.739590
_symmetry_space_group_name_H-M "C 2 2 2"
_symmetry_group_IT_number 21
_symmetry_cell_setting 'orthorhombic'
loop_
_space_group_symop_operation_xyz
x,y,z
-x,-y,z
x,-y,-z
-x,y,-z
1/2+x,1/2+y,z
1/2-x,1/2-y,z
1/2+x,1/2-y,-z
1/2-x,1/2+y,-z
loop_
_atom_site_type_symbol
_atom_site_label
_atom_site_fract_x
_atom_site_fract_y
_atom_site_fract_z
Si Si1 0.178597 0.377307 0.898559
Si Si2 0.974099 0.796384 0.160705
Si Si3 0.193177 0.884984 0.305357
Si Si4 0.516498 0.072217 0.166760
Si Si5 0.520507 0.575677 0.663761
Si Si6 0.873157 0.260935 0.273650
Si Si7 0.621295 0.832995 0.193386
Si Si8 0.294685 0.179712 0.477673
O O1 0.255057 0.405470 0.827840
O O2 0.169339 0.302413 0.844095
O O3 0.105518 0.412182 0.827507
O O4 0.163422 0.369787 0.063329
O O5 0.902487 0.744905 0.164875
O O6 0.977614 0.867096 0.243825
O O7 0.041383 0.754515 0.233155
O O8 0.000000 0.807411 0.000000
O O9 0.112220 0.920083 0.320816
O O10 0.168527 0.808807 0.283944
O O11 0.244898 0.877282 0.445001
O O12 0.457315 0.126962 0.219644
O O13 0.500000 0.000000 0.227694
O O14 0.500000 0.070818 0.000000
O O15 0.500000 0.500000 0.701953
O O16 0.500000 0.587186 0.500000
O O17 0.862950 0.301631 0.416293
O O18 0.674070 0.838293 0.327610
O O19 0.250000 0.250000 0.464911
#
# Coordination Sequence:
#
# PCOD9322409 Si02
#       8
#     8   8   8   8   8   8   8   8
#     4  10  17  34  57  86 121 159 198 241 308 367
#     4  11  20  35  61  93 125 157 204 263 316 373
#     4   9  20  38  60  85 116 158 196 246 321 378
#     4   9  18  34  55  78 119 164 203 236 281 367
#     4  10  24  45  68  88 114 166 225 272 321 388
#     4   9  17  34  54  81 118 158 189 237 299 364
#     4  11  20  32  58  95 124 155 206 254 300 369
#     4   9  20  33  51  86 124 155 193 254 304 361
#
# _framework density 18.975671999999999
#
# number of rings (size 3 to 8) (size 9 to 14) (size 15 to 20)
#    0.000    2.250    2.500    1.500    5.250    1.250 
#    0.000    2.500    0.000   11.250    0.000    0.000 
#    0.000    0.000    0.000    0.000    0.000    0.000 
#
# Total GULP energy -178136.158208 kJ/mol
# GULP energy per Si atom -5566.754944 kJ/mol
# Density = 1.893248 g / cm^3
# Si number density = 18.975672 Si / 1000 Ang^3
#
#
#
# Elastic Constant Matrix: (Units=GPa)
#
#
# Indices 1 2 3 4 5 6 
#
# 1 100.7230 41.7873 45.9932 0.0000 0.0000 0.0000
# 2 41.7873 90.7896 32.7210 0.0000 0.0000 0.0000
# 3 45.9932 32.7210 97.7819 0.0000 0.0000 0.0000
# 4 0.0000 0.0000 0.0000 1833.4697 0.0000 0.0000
# 5 0.0000 0.0000 0.0000 0.0000 31.8748 0.0000
# 6 0.0000 0.0000 0.0000 0.0000 0.0000 2.1643
#
#
#
# Elastic Compliance Matrix: (Units=1/GPa)
#
#
# Indices 1 2 3 4 5 6 
#
# 1 0.014212 -0.004699 -0.005113 0.000000 0.000000 0.000000
# 2 -0.004699 0.014079 -0.002501 0.000000 0.000000 0.000000
# 3 -0.005113 -0.002501 0.013469 0.000000 0.000000 0.000000
# 4 0.000000 0.000000 0.000000 0.000545 0.000000 0.000000
# 5 0.000000 0.000000 0.000000 0.000000 0.031373 0.000000
# 6 0.000000 0.000000 0.000000 0.000000 0.000000 0.462049
#
#
# Mechanical properties :
#
#
# Convention : Reuss Voigt Hill
#
# Bulk Modulus (GPa) = 58.36151 58.92195 58.64173
# Shear Modulus (GPa) = 8.83295 384.75462 196.79378
#
# Velocity S-wave (km/s) = 2.15986 14.25490 10.19478
# Velocity P-wave (km/s) = 6.08627 17.37973 13.02109
#
# Compressibility (1/GPa) = 0.01713458
#
# Stress axis : x y z
#
# Youngs Moduli (GPa) = 70.36225 71.03017 74.24717
#
# Poissons Ratio (x) = 0.33375 0.37959
# Poissons Ratio (y) = 0.33062 0.18569
# Poissons Ratio (z) = 0.35973 0.17765
#
# Static dielectric constant tensor:
#      x y z
#    x 1.721410 0.000000 0.000000 
#    y 0.000000 1.694390 0.000000 
#    z 0.000000 0.000000 1.687640 
# 
# From -- ./inp_files/16863.got.cif
#   From: 2010.05.17/outbox.cif.g08.bks.cpg/sg21_9_cif.got.tgz:16863.got - 2010.06.03 23:14:55.
