data_PCOD9322529
_publ_section_title
;
Structure prediction by ZEFSAII (Michael W. Deem and Ramdas Pophale) SiO2 
 PCOD9322529
Probable space group: C 2 2 2
;
_chemical_formula_sum "Si O2"
_cell_formula_units_Z 58
_cell_length_a 5.201128
_cell_length_b 31.604798
_cell_length_c 19.369624
_cell_angle_alpha 90.000000
_cell_angle_beta 90.000000
_cell_angle_gamma 90.000000
_cell_volume 3183.990411
_symmetry_space_group_name_H-M "C 2 2 2"
_symmetry_group_IT_number 21
_symmetry_cell_setting 'orthorhombic'
loop_
_space_group_symop_operation_xyz
x,y,z
-x,-y,z
x,-y,-z
-x,y,-z
1/2+x,1/2+y,z
1/2-x,1/2-y,z
1/2+x,1/2-y,-z
1/2-x,1/2+y,-z
loop_
_atom_site_type_symbol
_atom_site_label
_atom_site_fract_x
_atom_site_fract_y
_atom_site_fract_z
Si Si1 0.872027 0.343620 0.186001
Si Si2 0.251508 0.800967 0.042512
Si Si3 0.126369 0.111715 0.221666
Si Si4 0.500000 0.500000 0.500000
Si Si5 0.738755 0.971922 0.292264
Si Si6 0.863412 0.843286 0.371326
Si Si7 0.320082 0.072435 0.433051
Si Si8 0.358364 0.202372 0.664723
O O1 0.782490 0.317191 0.120128
O O2 0.658777 0.379838 0.195347
O O3 0.868080 0.315294 0.256292
O O4 0.152283 0.364543 0.178583
O O5 0.250000 0.750000 0.044890
O O6 0.500000 0.814918 0.000000
O O7 0.000000 0.814583 0.000000
O O8 0.181642 0.063020 0.236400
O O9 0.139529 0.134925 0.296073
O O10 0.654515 0.532011 0.453573
O O11 0.609065 0.944178 0.356109
O O12 0.500000 0.000000 0.268594
O O13 0.000000 0.000000 0.307721
O O14 0.809912 0.882065 0.422600
O O15 0.636490 0.808251 0.368361
O O16 0.144939 0.823802 0.377902
O O17 0.500000 0.076648 0.500000
O O18 0.250000 0.250000 0.665929
#
# Coordination Sequence:
#
# PCOD9322529 Si02
#       8
#     8   8   8   2   8   8   8   8
#     4  10  18  33  51  77 109 142 177 223 258 308
#     4  10  20  32  48  75 112 150 179 208 253 308
#     4   9  19  32  51  75 105 139 177 215 270 317
#     4  12  22  36  56  82 100 140 186 200 240 348
#     4  11  21  36  54  78 111 140 169 216 272 324
#     4   9  21  35  54  78 109 136 170 229 276 309
#     4  11  24  37  54  81 110 143 180 211 263 331
#     4  10  19  35  58  82 101 138 185 226 271 315
#
# _framework density 18.216137
#
# number of rings (size 3 to 8) (size 9 to 14) (size 15 to 20)
#    0.000    1.931    0.690    3.517    1.931    2.207 
#    0.000    4.138    0.000    1.655    0.000    0.000 
#    0.000   38.621    0.000    0.000    0.000    0.000 
#
# Total GULP energy -161496.386992 kJ/mol
# GULP energy per Si atom -5568.840931 kJ/mol
# Density = 1.817468 g / cm^3
# Si number density = 18.216137 Si / 1000 Ang^3
#
#
#
# Elastic Constant Matrix: (Units=GPa)
#
#
# Indices 1 2 3 4 5 6 
#
# 1 59.6100 -9.2999 6.8741 0.0000 0.0000 0.0000
# 2 -9.2999 49.9931 7.1658 0.0000 0.0000 0.0000
# 3 6.8741 7.1658 39.2852 0.0000 0.0000 0.0000
# 4 0.0000 0.0000 0.0000 0.4307 0.0000 0.0000
# 5 0.0000 0.0000 0.0000 0.0000 24.4107 0.0000
# 6 0.0000 0.0000 0.0000 0.0000 0.0000 25.2261
#
#
#
# Elastic Compliance Matrix: (Units=1/GPa)
#
#
# Indices 1 2 3 4 5 6 
#
# 1 0.017819 0.003863 -0.003823 0.000000 0.000000 0.000000
# 2 0.003863 0.021377 -0.004575 0.000000 0.000000 0.000000
# 3 -0.003823 -0.004575 0.026958 0.000000 0.000000 0.000000
# 4 0.000000 0.000000 0.000000 2.321574 0.000000 0.000000
# 5 0.000000 0.000000 0.000000 0.000000 0.040966 0.000000
# 6 0.000000 0.000000 0.000000 0.000000 0.000000 0.039641
#
#
# Mechanical properties :
#
#
# Convention : Reuss Voigt Hill
#
# Bulk Modulus (GPa) = 17.51791 17.59649 17.55720
# Shear Modulus (GPa) = 2.00286 19.62339 10.81313
#
# Velocity S-wave (km/s) = 1.04971 3.28571 2.43904
# Velocity P-wave (km/s) = 3.33268 4.90667 4.19417
#
# Compressibility (1/GPa) = 0.05708442
#
# Stress axis : x y z
#
# Youngs Moduli (GPa) = 56.11938 46.77901 37.09431
#
# Poissons Ratio (x) = -0.18069 0.14180
# Poissons Ratio (y) = -0.21677 0.16971
# Poissons Ratio (z) = 0.21452 0.21402
#
# Static dielectric constant tensor:
#      x y z
#    x 1.680640 0.000000 0.000000 
#    y 0.000000 1.619930 0.000000 
#    z 0.000000 0.000000 1.647770 
# 
# From -- ./inp_files/35256.got.cif
#   From: 2010.05.17/outbox.cif.g08.bks.cpg/sg21_18_cif.got.tgz:35256.got - 2010.06.03 23:14:55.
