data_PCOD9322810
_publ_section_title
;
Structure prediction by ZEFSAII (Michael W. Deem and Ramdas Pophale) SiO2 
 PCOD9322810
Probable space group: C 2 2 2
;
_chemical_formula_sum "Si O2"
_cell_formula_units_Z 38
_cell_length_a 24.163623
_cell_length_b 9.156455
_cell_length_c 8.145814
_cell_angle_alpha 90.000000
_cell_angle_beta 90.000000
_cell_angle_gamma 90.000000
_cell_volume 1802.286816
_symmetry_space_group_name_H-M "C 2 2 2"
_symmetry_group_IT_number 21
_symmetry_cell_setting 'orthorhombic'
loop_
_space_group_symop_operation_xyz
x,y,z
-x,-y,z
x,-y,-z
-x,y,-z
1/2+x,1/2+y,z
1/2-x,1/2-y,z
1/2+x,1/2-y,-z
1/2-x,1/2+y,-z
loop_
_atom_site_type_symbol
_atom_site_label
_atom_site_fract_x
_atom_site_fract_y
_atom_site_fract_z
Si Si1 0.590837 0.828194 0.322130
Si Si2 0.500000 0.000000 0.500000
Si Si3 0.153919 0.229226 0.638781
Si Si4 0.750000 0.250000 0.591404
Si Si5 0.436014 0.495159 0.301070
Si Si6 0.810524 0.489344 0.816338
O O1 0.619136 0.818551 0.502351
O O2 0.586392 0.664139 0.256241
O O3 0.627524 0.923201 0.200272
O O4 0.533201 0.896985 0.374565
O O5 0.203697 0.173022 0.523209
O O6 0.111203 0.118807 0.727718
O O7 0.183242 0.346585 0.752987
O O8 0.775863 0.377554 0.703855
O O9 0.500000 0.500000 0.240337
O O10 0.439691 0.500000 0.500000
O O11 0.789185 0.500000 0.000000
#
# Coordination Sequence:
#
# PCOD9322810 Si02
#       6
#     8   2   8   4   8   8
#     4  10  19  33  61  90 123 169 217 271 316 392
#     4  12  16  32  68  92 128 172 228 276 326 372
#     4  10  20  40  63  93 126 165 217 274 328 398
#     4  10  22  40  68  96 124 170 226 274 332 406
#     4   9  18  32  58  94 124 159 211 272 323 372
#     4  11  24  42  61  93 133 169 213 271 350 407
#
# _framework density 21.084325
#
# number of rings (size 3 to 8) (size 9 to 14) (size 15 to 20)
#    0.000    1.895    2.105    4.421    0.000    9.263 
#    0.000    1.579    0.000    1.263    0.000    0.000 
#    0.000    0.000    0.000    0.000    0.000    0.000 
#
# Total GULP energy -105878.484732 kJ/mol
# GULP energy per Si atom -5572.551828 kJ/mol
# Density = 2.103634 g / cm^3
# Si number density = 21.084325 Si / 1000 Ang^3
#
#
#
# Elastic Constant Matrix: (Units=GPa)
#
#
# Indices 1 2 3 4 5 6 
#
# 1 105.4359 55.1528 29.8404 0.0000 0.0000 0.0000
# 2 55.1528 134.9625 46.8863 0.0000 0.0000 0.0000
# 3 29.8404 46.8863 41.8348 0.0000 0.0000 0.0000
# 4 0.0000 0.0000 0.0000 -4.4244 0.0000 0.0000
# 5 0.0000 0.0000 0.0000 0.0000 1.4004 0.0000
# 6 0.0000 0.0000 0.0000 0.0000 0.0000 38.1623
#
#
#
# Elastic Compliance Matrix: (Units=1/GPa)
#
#
# Indices 1 2 3 4 5 6 
#
# 1 0.012750 -0.003358 -0.005330 0.000000 0.000000 0.000000
# 2 -0.003358 0.013018 -0.012195 0.000000 0.000000 0.000000
# 3 -0.005330 -0.012195 0.041373 0.000000 0.000000 0.000000
# 4 0.000000 0.000000 0.000000 -0.226020 0.000000 0.000000
# 5 0.000000 0.000000 0.000000 0.000000 0.714068 0.000000
# 6 0.000000 0.000000 0.000000 0.000000 0.000000 0.026204
#
#
# Mechanical properties :
#
#
# Convention : Reuss Voigt Hill
#
# Bulk Modulus (GPa) = 39.41050 60.66581 50.03816
# Shear Modulus (GPa) = 7.91618 17.05125 12.48371
#
# Velocity S-wave (km/s) = 1.93976 2.84688 2.43592
# Velocity P-wave (km/s) = 4.87333 6.29617 5.62988
#
# Compressibility (1/GPa) = 0.02537395
#
# Stress axis : x y z
#
# Youngs Moduli (GPa) = 78.43246 76.81412 24.17036
#
# Poissons Ratio (x) = 0.25798 0.12884
# Poissons Ratio (y) = 0.26341 0.29475
# Poissons Ratio (z) = 0.41807 0.93674
#
# Static dielectric constant tensor:
#      x y z
#    x 1.884380 0.000000 0.000000 
#    y 0.000000 1.805350 0.000000 
#    z 0.000000 0.000000 1.751820 
# 
# From -- ./inp_files/18261.got.cif
#   From: 2010.05.17/outbox.cif.g08.bks.cpg/sg21_10_cif.got.tgz:18261.got - 2010.06.03 23:14:55.
