data_PCOD9322137
_publ_section_title
;
Structure prediction by ZEFSAII (Michael W. Deem and Ramdas Pophale) SiO2 
 PCOD9322137
Probable space group: C 2 2 21
;
_chemical_formula_sum "Si O2"
_cell_formula_units_Z 36
_cell_length_a 10.106367
_cell_length_b 13.140205
_cell_length_c 11.085093
_cell_angle_alpha 90.000000
_cell_angle_beta 90.000000
_cell_angle_gamma 90.000000
_cell_volume 1472.097404
_symmetry_space_group_name_H-M "C 2 2 21"
_symmetry_group_IT_number 20
_symmetry_cell_setting 'orthorhombic'
loop_
_space_group_symop_operation_xyz
x,y,z
-x,-y,1/2+z
x,-y,-z
-x,y,1/2-z
1/2+x,1/2+y,z
1/2-x,1/2-y,1/2+z
1/2+x,1/2-y,-z
1/2-x,1/2+y,1/2-z
loop_
_atom_site_type_symbol
_atom_site_label
_atom_site_fract_x
_atom_site_fract_y
_atom_site_fract_z
Si Si1 0.500000 0.412071 0.250000
Si Si2 0.500000 0.978463 0.750000
Si Si3 0.431076 0.166727 0.028494
Si Si4 0.448530 0.500000 0.500000
Si Si5 0.198001 0.639904 0.720859
Si Si6 0.660564 0.710999 0.090902
O O1 0.526882 0.466447 0.379515
O O2 0.643466 0.362730 0.219419
O O3 0.542815 0.906622 0.639701
O O4 0.624122 0.049032 0.792292
O O5 0.311034 0.240919 0.062925
O O6 0.368690 0.119148 0.908213
O O7 0.560619 0.226643 0.991259
O O8 0.364131 0.406600 0.558638
O O9 0.148018 0.748126 0.772663
#
# Coordination Sequence:
#
# PCOD9322137 Si02
#       6
#     4   4   8   4   8   8
#     4  12  28  52  82 130 162 230 274 354 434 504
#     4  12  28  52  88 116 172 220 282 342 440 492
#     4  12  28  51  81 124 163 229 280 355 409 523
#     4  12  28  52  82 120 170 214 292 346 416 516
#     4  12  27  53  82 123 170 219 286 351 425 514
#     4  12  28  48  82 116 168 219 278 344 423 485
#
# _framework density 24.454905
#
# number of rings (size 3 to 8) (size 9 to 14) (size 15 to 20)
#    0.000    0.000    4.444    3.333    6.222    4.444 
#    0.000    0.000    0.000    0.000    0.000    0.000 
#    0.000    0.000    0.000    0.000    0.000    0.000 
#
# Total GULP energy -100460.825234 kJ/mol
# GULP energy per Si atom -5581.156957 kJ/mol
# Density = 2.439924 g / cm^3
# Si number density = 24.454905 Si / 1000 Ang^3
#
#
#
# Elastic Constant Matrix: (Units=GPa)
#
#
# Indices 1 2 3 4 5 6 
#
# 1 165.1165 62.1105 49.5695 0.0000 0.0000 0.0000
# 2 62.1105 107.2121 55.8746 0.0000 0.0000 0.0000
# 3 49.5695 55.8746 164.0219 0.0000 0.0000 0.0000
# 4 0.0000 0.0000 0.0000 49.4427 0.0000 0.0000
# 5 0.0000 0.0000 0.0000 0.0000 41.1013 0.0000
# 6 0.0000 0.0000 0.0000 0.0000 0.0000 27.0578
#
#
#
# Elastic Compliance Matrix: (Units=1/GPa)
#
#
# Indices 1 2 3 4 5 6 
#
# 1 0.007878 -0.004040 -0.001004 0.000000 0.000000 0.000000
# 2 -0.004040 0.013413 -0.003348 0.000000 0.000000 0.000000
# 3 -0.001004 -0.003348 0.007541 0.000000 0.000000 0.000000
# 4 0.000000 0.000000 0.000000 0.020225 0.000000 0.000000
# 5 0.000000 0.000000 0.000000 0.000000 0.024330 0.000000
# 6 0.000000 0.000000 0.000000 0.000000 0.000000 0.036958
#
#
# Mechanical properties :
#
#
# Convention : Reuss Voigt Hill
#
# Bulk Modulus (GPa) = 83.01661 85.71774 84.36717
# Shear Modulus (GPa) = 38.12558 41.44010 39.78284
#
# Velocity S-wave (km/s) = 3.95272 4.12096 4.03772
# Velocity P-wave (km/s) = 7.40625 7.60069 7.50410
#
# Compressibility (1/GPa) = 0.01204578
#
# Stress axis : x y z
#
# Youngs Moduli (GPa) = 126.94148 74.55557 132.61136
#
# Poissons Ratio (x) = 0.30122 0.13320
# Poissons Ratio (y) = 0.51288 0.44400
# Poissons Ratio (z) = 0.12750 0.24962
#
# Static dielectric constant tensor:
#      x y z
#    x 1.984750 0.000000 0.000000 
#    y 0.000000 2.049210 0.000000 
#    z 0.000000 0.000000 2.096800 
# 
# From -- ./inp_files/13637.got.cif
#   From: 2010.05.17/outbox.cif.g08.bks.cpg/sg20_7_cif.got.tgz:13637.got - 2010.06.03 22:52:26.
