data_PCOD9322376
_publ_section_title
;
Structure prediction by ZEFSAII (Michael W. Deem and Ramdas Pophale) SiO2 
 PCOD9322376
Probable space group: C 2 2 2
;
_chemical_formula_sum "Si O2"
_cell_formula_units_Z 60
_cell_length_a 20.895844
_cell_length_b 15.009141
_cell_length_c 11.366934
_cell_angle_alpha 90.000000
_cell_angle_beta 90.000000
_cell_angle_gamma 90.000000
_cell_volume 3564.996380
_symmetry_space_group_name_H-M "C 2 2 2"
_symmetry_group_IT_number 21
_symmetry_cell_setting 'orthorhombic'
loop_
_space_group_symop_operation_xyz
x,y,z
-x,-y,z
x,-y,-z
-x,y,-z
1/2+x,1/2+y,z
1/2-x,1/2-y,z
1/2+x,1/2-y,-z
1/2-x,1/2+y,-z
loop_
_atom_site_type_symbol
_atom_site_label
_atom_site_fract_x
_atom_site_fract_y
_atom_site_fract_z
Si Si1 0.646917 0.500000 0.500000
Si Si2 0.462095 0.752342 0.186111
Si Si3 0.656468 0.550690 0.107421
Si Si4 0.851553 0.310664 0.716379
Si Si5 0.099623 0.756645 0.943433
Si Si6 0.290389 0.371247 0.333486
Si Si7 0.934958 0.054742 0.273059
Si Si8 0.514249 0.895211 0.361984
O O1 0.691337 0.577174 0.449669
O O2 0.604989 0.464177 0.391388
O O3 0.531255 0.740500 0.123365
O O4 0.445678 0.659085 0.249064
O O5 0.470630 0.832063 0.279135
O O6 0.413372 0.770237 0.078066
O O7 0.629209 0.644812 0.062529
O O8 0.701009 0.568889 0.217997
O O9 0.600506 0.488812 0.160686
O O10 0.688308 0.500000 0.000000
O O11 0.858082 0.306833 0.858823
O O12 0.783208 0.343712 0.670752
O O13 0.844313 0.206292 0.681007
O O14 0.912628 0.363294 0.665760
O O15 0.000000 0.000000 0.286403
O O16 0.500000 0.880236 0.500000
O O17 0.500000 0.000000 0.337541
#
# Coordination Sequence:
#
# PCOD9322376 Si02
#       8
#     4   8   8   8   8   8   8   8
#     4  10  23  32  48  84 117 138 194 224 270 340
#     4  10  19  31  53  80 114 144 175 224 290 336
#     4  10  17  29  49  80 114 142 188 216 264 348
#     4   9  19  39  61  76 106 147 196 230 286 343
#     4   9  17  31  52  82 107 141 182 223 271 348
#     4   9  20  37  56  80 107 154 188 230 279 334
#     4  11  20  29  47  81 120 155 169 216 286 355
#     4  10  23  39  57  83 107 143 192 239 285 339
#
# _framework density 16.830310999999998
#
# number of rings (size 3 to 8) (size 9 to 14) (size 15 to 20)
#    0.000    2.267    2.667    0.200    3.733    1.333 
#    0.000    6.667    0.000    0.000    0.000    0.000 
#    0.000    0.000    0.000    0.000    0.000    0.000 
#
# Total GULP energy -167019.318633 kJ/mol
# GULP energy per Si atom -5567.310621 kJ/mol
# Density = 1.679200 g / cm^3
# Si number density = 16.830311 Si / 1000 Ang^3
#
#
#
# Elastic Constant Matrix: (Units=GPa)
#
#
# Indices 1 2 3 4 5 6 
#
# 1 50.9736 29.5590 22.1236 0.0000 0.0000 0.0000
# 2 29.5590 90.6987 47.8743 0.0000 0.0000 0.0000
# 3 22.1236 47.8743 91.3947 0.0000 0.0000 0.0000
# 4 0.0000 0.0000 0.0000 25.1398 0.0000 0.0000
# 5 0.0000 0.0000 0.0000 0.0000 11.9911 0.0000
# 6 0.0000 0.0000 0.0000 0.0000 0.0000 15.2222
#
#
#
# Elastic Compliance Matrix: (Units=1/GPa)
#
#
# Indices 1 2 3 4 5 6 
#
# 1 0.024572 -0.006729 -0.002423 0.000000 0.000000 0.000000
# 2 -0.006729 0.017082 -0.007319 0.000000 0.000000 0.000000
# 3 -0.002423 -0.007319 0.015362 0.000000 0.000000 0.000000
# 4 0.000000 0.000000 0.000000 0.039778 0.000000 0.000000
# 5 0.000000 0.000000 0.000000 0.000000 0.083395 0.000000
# 6 0.000000 0.000000 0.000000 0.000000 0.000000 0.065694
#
#
# Mechanical properties :
#
#
# Convention : Reuss Voigt Hill
#
# Bulk Modulus (GPa) = 41.53989 48.02007 44.77998
# Shear Modulus (GPa) = 17.43084 19.37130 18.40107
#
# Velocity S-wave (km/s) = 3.22169 3.39629 3.31014
# Velocity P-wave (km/s) = 6.21082 6.63125 6.42447
#
# Compressibility (1/GPa) = 0.02407325
#
# Stress axis : x y z
#
# Youngs Moduli (GPa) = 40.69718 58.54231 65.09607
#
# Poissons Ratio (x) = 0.39393 0.15774
# Poissons Ratio (y) = 0.27385 0.47643
# Poissons Ratio (z) = 0.09862 0.42846
#
# Static dielectric constant tensor:
#      x y z
#    x 1.569690 0.000000 0.000000 
#    y 0.000000 1.586740 0.000000 
#    z 0.000000 0.000000 1.580850 
# 
# From -- ./inp_files/26961.got.cif
#   From: 2010.05.17/outbox.cif.g08.bks.cpg/sg21_14_cif.got.tgz:26961.got - 2010.06.03 23:14:55.
