data_PCOD9322325
_publ_section_title
;
Structure prediction by ZEFSAII (Michael W. Deem and Ramdas Pophale) SiO2 
 PCOD9322325
Probable space group: C 2 2 2
;
_chemical_formula_sum "Si O2"
_cell_formula_units_Z 32
_cell_length_a 7.183135
_cell_length_b 35.806611
_cell_length_c 5.354849
_cell_angle_alpha 90.000000
_cell_angle_beta 90.000000
_cell_angle_gamma 90.000000
_cell_volume 1377.287087
_symmetry_space_group_name_H-M "C 2 2 2"
_symmetry_group_IT_number 21
_symmetry_cell_setting 'orthorhombic'
loop_
_space_group_symop_operation_xyz
x,y,z
-x,-y,z
x,-y,-z
-x,y,-z
1/2+x,1/2+y,z
1/2-x,1/2-y,z
1/2+x,1/2-y,-z
1/2-x,1/2+y,-z
loop_
_atom_site_type_symbol
_atom_site_label
_atom_site_fract_x
_atom_site_fract_y
_atom_site_fract_z
Si Si1 0.713661 0.016252 0.247888
Si Si2 0.219683 0.792394 0.945579
Si Si3 0.623124 0.898411 0.749872
Si Si4 0.715484 0.324173 0.441734
O O1 0.712919 0.060761 0.231245
O O2 0.500000 0.000000 0.248703
O O3 0.795647 0.000000 0.500000
O O4 0.799792 0.000000 0.000000
O O5 0.250000 0.750000 0.862073
O O6 0.294374 0.818849 0.722304
O O7 0.299344 0.797793 0.225361
O O8 0.000000 0.799177 0.000000
O O9 0.500000 0.900171 0.500000
O O10 0.762194 0.864636 0.685933
O O11 0.500000 0.892381 0.000000
O O12 0.500000 0.315776 0.500000
#
# Coordination Sequence:
#
# PCOD9322325 Si02
#       4
#     8   8   8   8
#     4  10  16  30  49  78 114 143 181 232 305 334
#     4  10  21  39  61  81 110 153 192 237 291 358
#     4  12  21  33  57  88 113 147 197 251 283 344
#     4  10  23  40  55  82 121 157 186 230 313 362
#
# _framework density 23.234081
#
# number of rings (size 3 to 8) (size 9 to 14) (size 15 to 20)
#    0.000    1.500    5.000    2.250    0.000    3.000 
#    0.000    0.000    0.000    0.750    0.000    3.500 
#    0.000    0.000    0.000    0.000    0.000    0.000 
#
# Total GULP energy -89268.130648 kJ/mol
# GULP energy per Si atom -5579.258165 kJ/mol
# Density = 2.318120 g / cm^3
# Si number density = 23.234081 Si / 1000 Ang^3
#
#
#
# Elastic Constant Matrix: (Units=GPa)
#
#
# Indices 1 2 3 4 5 6 
#
# 1 57.0691 -21.1310 20.9870 0.0000 0.0000 0.0000
# 2 -21.1310 118.1477 48.5053 0.0000 0.0000 0.0000
# 3 20.9870 48.5053 258.1601 0.0000 0.0000 0.0000
# 4 0.0000 0.0000 0.0000 46.3728 0.0000 0.0000
# 5 0.0000 0.0000 0.0000 0.0000 -5.9771 0.0000
# 6 0.0000 0.0000 0.0000 0.0000 0.0000 -8.0141
#
#
#
# Elastic Compliance Matrix: (Units=1/GPa)
#
#
# Indices 1 2 3 4 5 6 
#
# 1 0.020163 0.004637 -0.002510 0.000000 0.000000 0.000000
# 2 0.004637 0.010238 -0.002300 0.000000 0.000000 0.000000
# 3 -0.002510 -0.002300 0.004510 0.000000 0.000000 0.000000
# 4 0.000000 0.000000 0.000000 0.021564 0.000000 0.000000
# 5 0.000000 0.000000 0.000000 0.000000 -0.167307 0.000000
# 6 0.000000 0.000000 0.000000 0.000000 0.000000 -0.124780
#
#
# Mechanical properties :
#
#
# Convention : Reuss Voigt Hill
#
# Bulk Modulus (GPa) = 28.93340 58.89994 43.91667
# Shear Modulus (GPa) = -22.34707 32.14403 4.89848
#
# Velocity S-wave (km/s) = -3.10469 3.72356 1.45358
# Velocity P-wave (km/s) = 0.61001 6.62512 4.66477
#
# Compressibility (1/GPa) = 0.03456213
#
# Stress axis : x y z
#
# Youngs Moduli (GPa) = 49.59669 97.67786 221.73561
#
# Poissons Ratio (x) = -0.45291 0.55662
# Poissons Ratio (y) = -0.22997 0.51010
# Poissons Ratio (z) = 0.12450 0.22471
#
# Static dielectric constant tensor:
#      x y z
#    x 1.889140 0.000000 0.000000 
#    y 0.000000 2.183980 0.000000 
#    z 0.000000 0.000000 1.958950 
# 
# From -- ./inp_files/1466.got.cif
#   From: 2010.05.17/outbox.cif.g08.bks.cpg/sg21_1_cif.got.tgz:1466.got - 2010.06.03 23:14:55.
