data_PCOD9322964
_publ_section_title
;
Structure prediction by ZEFSAII (Michael W. Deem and Ramdas Pophale) SiO2 
 PCOD9322964
Probable space group: C 2 2 2
;
_chemical_formula_sum "Si O2"
_cell_formula_units_Z 32
_cell_length_a 10.493590
_cell_length_b 17.521506
_cell_length_c 7.063770
_cell_angle_alpha 90.000000
_cell_angle_beta 90.000000
_cell_angle_gamma 90.000000
_cell_volume 1298.769476
_symmetry_space_group_name_H-M "C 2 2 2"
_symmetry_group_IT_number 21
_symmetry_cell_setting 'orthorhombic'
loop_
_space_group_symop_operation_xyz
x,y,z
-x,-y,z
x,-y,-z
-x,y,-z
1/2+x,1/2+y,z
1/2-x,1/2-y,z
1/2+x,1/2-y,-z
1/2-x,1/2+y,-z
loop_
_atom_site_type_symbol
_atom_site_label
_atom_site_fract_x
_atom_site_fract_y
_atom_site_fract_z
Si Si1 0.117852 0.231790 0.702472
Si Si2 0.653559 0.680755 0.274994
Si Si3 0.952803 0.393046 0.211349
Si Si4 0.711263 0.027405 0.704920
O O1 0.250000 0.250000 0.809790
O O2 0.147829 0.188806 0.505931
O O3 0.076427 0.318635 0.671418
O O4 0.992198 0.193791 0.788241
O O5 0.750000 0.750000 0.221487
O O6 0.701149 0.596241 0.221913
O O7 0.830947 0.449199 0.190675
O O8 0.073021 0.433021 0.308406
O O9 0.000000 0.373268 0.000000
O O10 0.758206 0.000000 0.500000
#
# Coordination Sequence:
#
# PCOD9322964 Si02
#       4
#     8   8   8   8
#     4  10  21  38  62  94 135 174 216 278 338 407
#     4  10  19  36  63  96 130 162 224 286 330 387
#     4  11  23  40  63  96 136 183 232 267 337 431
#     4  11  21  36  67  97 126 173 225 292 328 385
#
# _framework density 24.638705999999999
#
# number of rings (size 3 to 8) (size 9 to 14) (size 15 to 20)
#    0.000    1.500    2.500    6.000    3.500    0.000 
#    4.500    8.750    0.000    0.000    0.000   14.000 
#    0.000    0.000    0.000    0.000    0.000    0.000 
#
# Total GULP energy -89269.360989 kJ/mol
# GULP energy per Si atom -5579.335062 kJ/mol
# Density = 2.458263 g / cm^3
# Si number density = 24.638706 Si / 1000 Ang^3
#
#
#
# Elastic Constant Matrix: (Units=GPa)
#
#
# Indices 1 2 3 4 5 6 
#
# 1 175.6696 43.6860 19.1003 0.0000 0.0000 0.0000
# 2 43.6860 134.6643 12.6614 0.0000 0.0000 0.0000
# 3 19.1003 12.6614 87.5868 0.0000 0.0000 0.0000
# 4 0.0000 0.0000 0.0000 -12.1174 0.0000 0.0000
# 5 0.0000 0.0000 0.0000 0.0000 -6.2240 0.0000
# 6 0.0000 0.0000 0.0000 0.0000 0.0000 30.3121
#
#
#
# Elastic Compliance Matrix: (Units=1/GPa)
#
#
# Indices 1 2 3 4 5 6 
#
# 1 0.006293 -0.001939 -0.001092 0.000000 0.000000 0.000000
# 2 -0.001939 0.008126 -0.000752 0.000000 0.000000 0.000000
# 3 -0.001092 -0.000752 0.011764 0.000000 0.000000 0.000000
# 4 0.000000 0.000000 0.000000 -0.082526 0.000000 0.000000
# 5 0.000000 0.000000 0.000000 0.000000 -0.160669 0.000000
# 6 0.000000 0.000000 0.000000 0.000000 0.000000 0.032990
#
#
# Mechanical properties :
#
#
# Convention : Reuss Voigt Hill
#
# Bulk Modulus (GPa) = 53.71334 60.97956 57.34645
# Shear Modulus (GPa) = -29.36858 23.89235 -2.73811
#
# Velocity S-wave (km/s) = -3.45624 3.11739 -1.05533
# Velocity P-wave (km/s) = 2.43316 6.14498 4.67338
#
# Compressibility (1/GPa) = 0.01861735
#
# Stress axis : x y z
#
# Youngs Moduli (GPa) = 158.89583 123.06842 85.00448
#
# Poissons Ratio (x) = 0.23862 0.09284
# Poissons Ratio (y) = 0.30809 0.06390
# Poissons Ratio (z) = 0.17354 0.09252
#
# Static dielectric constant tensor:
#      x y z
#    x 2.092300 0.000000 0.000000 
#    y 0.000000 1.962450 0.000000 
#    z 0.000000 0.000000 2.020900 
# 
# From -- ./inp_files/12571.got.cif
#   From: 2010.05.17/outbox.cif.g08.bks.cpg/sg21_7_cif.got.tgz:12571.got - 2010.06.03 23:14:55.
