data_PCOD9322155
_publ_section_title
;
Structure prediction by ZEFSAII (Michael W. Deem and Ramdas Pophale) SiO2 
 PCOD9322155
Probable space group: C 2 2 21
;
_chemical_formula_sum "Si O2"
_cell_formula_units_Z 24
_cell_length_a 8.778181
_cell_length_b 12.322078
_cell_length_c 8.533743
_cell_angle_alpha 90.000000
_cell_angle_beta 90.000000
_cell_angle_gamma 90.000000
_cell_volume 923.055989
_symmetry_space_group_name_H-M "C 2 2 21"
_symmetry_group_IT_number 20
_symmetry_cell_setting 'orthorhombic'
loop_
_space_group_symop_operation_xyz
x,y,z
-x,-y,1/2+z
x,-y,-z
-x,y,1/2-z
1/2+x,1/2+y,z
1/2-x,1/2-y,1/2+z
1/2+x,1/2-y,-z
1/2-x,1/2+y,1/2-z
loop_
_atom_site_type_symbol
_atom_site_label
_atom_site_fract_x
_atom_site_fract_y
_atom_site_fract_z
Si Si1 0.003220 0.500000 0.500000
Si Si2 0.226438 0.103194 0.329634
Si Si3 0.744483 0.825867 0.470473
Si Si4 0.500000 0.417285 0.250000
O O1 0.891364 0.437499 0.616697
O O2 0.275453 0.351340 0.652197
O O3 0.188866 0.204513 0.440600
O O4 0.114777 0.001134 0.333828
O O5 0.385464 0.911655 0.077612
O O6 0.893613 0.848331 0.365740
#
# Coordination Sequence:
#
# PCOD9322155 Si02
#       4
#     4   8   8   4
#     4  12  30  54  82 122 168 212 274 340 412 494
#     4  12  32  51  86 123 165 219 276 342 412 492
#     4  12  31  53  86 122 165 219 278 338 419 485
#     4  12  30  54  78 120 168 216 274 334 410 492
#
# _framework density 26.000591
#
# number of rings (size 3 to 8) (size 9 to 14) (size 15 to 20)
#    0.000    0.000    3.333    1.000   18.667    0.000 
#    0.000    0.000    0.000    0.000    0.000    0.000 
#    0.000    0.000    0.000    0.000    0.000    0.000 
#
# Total GULP energy -67435.525649 kJ/mol
# GULP energy per Si atom -5619.627137 kJ/mol
# Density = 2.594141 g / cm^3
# Si number density = 26.000591 Si / 1000 Ang^3
#
#
#
# Elastic Constant Matrix: (Units=GPa)
#
#
# Indices 1 2 3 4 5 6 
#
# 1 171.1042 48.2078 42.3122 0.0000 0.0000 0.0000
# 2 48.2078 141.8055 23.0538 0.0000 0.0000 0.0000
# 3 42.3122 23.0538 145.3515 0.0000 0.0000 0.0000
# 4 0.0000 0.0000 0.0000 50.7351 0.0000 0.0000
# 5 0.0000 0.0000 0.0000 0.0000 63.6857 0.0000
# 6 0.0000 0.0000 0.0000 0.0000 0.0000 -6.3751
#
#
#
# Elastic Compliance Matrix: (Units=1/GPa)
#
#
# Indices 1 2 3 4 5 6 
#
# 1 0.006834 -0.002053 -0.001664 0.000000 0.000000 0.000000
# 2 -0.002053 0.007855 -0.000648 0.000000 0.000000 0.000000
# 3 -0.001664 -0.000648 0.007467 0.000000 0.000000 0.000000
# 4 0.000000 0.000000 0.000000 0.019710 0.000000 0.000000
# 5 0.000000 0.000000 0.000000 0.000000 0.015702 0.000000
# 6 0.000000 0.000000 0.000000 0.000000 0.000000 -0.156859
#
#
# Mechanical properties :
#
#
# Convention : Reuss Voigt Hill
#
# Bulk Modulus (GPa) = 74.47987 76.15654 75.31821
# Shear Modulus (GPa) = -58.08214 44.58829 -6.74692
#
# Velocity S-wave (km/s) = -4.73152 4.14562 -1.61262
# Velocity P-wave (km/s) = 1.06867 7.22972 5.05602
#
# Compressibility (1/GPa) = 0.01342645
#
# Stress axis : x y z
#
# Youngs Moduli (GPa) = 146.32230 127.30440 133.92163
#
# Poissons Ratio (x) = 0.26134 0.22283
# Poissons Ratio (y) = 0.30038 0.08682
# Poissons Ratio (z) = 0.24346 0.08253
#
# Static dielectric constant tensor:
#      x y z
#    x 2.011490 0.000000 0.000000 
#    y 0.000000 1.950130 0.000000 
#    z 0.000000 0.000000 2.077440 
# 
# From -- ./inp_files/12606.got.cif
#   From: 2010.05.17/outbox.cif.g08.bks.cpg/sg20_7_cif.got.tgz:12606.got - 2010.06.03 22:52:26.
