data_PCOD9322029
_publ_section_title
;
Structure prediction by ZEFSAII (Michael W. Deem and Ramdas Pophale) SiO2 
 PCOD9322029
Probable space group: C 2 2 21
;
_chemical_formula_sum "Si O2"
_cell_formula_units_Z 32
_cell_length_a 5.695726
_cell_length_b 32.460293
_cell_length_c 7.555670
_cell_angle_alpha 90.000000
_cell_angle_beta 90.000000
_cell_angle_gamma 90.000000
_cell_volume 1396.929555
_symmetry_space_group_name_H-M "C 2 2 21"
_symmetry_group_IT_number 20
_symmetry_cell_setting 'orthorhombic'
loop_
_space_group_symop_operation_xyz
x,y,z
-x,-y,1/2+z
x,-y,-z
-x,y,1/2-z
1/2+x,1/2+y,z
1/2-x,1/2-y,1/2+z
1/2+x,1/2-y,-z
1/2-x,1/2+y,1/2-z
loop_
_atom_site_type_symbol
_atom_site_label
_atom_site_fract_x
_atom_site_fract_y
_atom_site_fract_z
Si Si1 0.823371 0.347422 0.395103
Si Si2 0.500000 0.584158 0.750000
Si Si3 0.500000 0.109092 0.250000
Si Si4 0.667573 0.460961 0.908482
Si Si5 0.587184 0.735598 0.562268
O O1 0.718258 0.386071 0.289084
O O2 0.627644 0.313475 0.438565
O O3 0.000000 0.327993 0.250000
O O4 0.925203 0.363293 0.581714
O O5 0.470891 0.558125 0.573176
O O6 0.691473 0.076992 0.325096
O O7 0.500000 0.475716 0.750000
O O8 0.800221 0.500000 0.000000
O O9 0.500000 0.751056 0.750000
O O10 0.350610 0.746080 0.454588
#
# Coordination Sequence:
#
# PCOD9322029 Si02
#       5
#     8   4   4   8   8
#     4  12  26  49  78 111 153 205 258 329 390 467
#     4  12  24  46  77 102 148 200 258 312 389 470
#     4  12  28  46  77 116 144 202 266 314 389 470
#     4  12  26  45  74 109 150 198 253 321 391 470
#     4  12  28  53  80 116 160 212 264 324 403 476
#
# _framework density 22.907384
#
# number of rings (size 3 to 8) (size 9 to 14) (size 15 to 20)
#    0.000    0.000    7.500    2.250    1.750    3.000 
#    9.000    0.000    0.000    0.000    0.000    0.000 
#    0.000    0.000    0.000    0.000    0.000    0.000 
#
# Total GULP energy -89307.459673 kJ/mol
# GULP energy per Si atom -5581.716230 kJ/mol
# Density = 2.285525 g / cm^3
# Si number density = 22.907384 Si / 1000 Ang^3
#
#
#
# Elastic Constant Matrix: (Units=GPa)
#
#
# Indices 1 2 3 4 5 6 
#
# 1 99.0798 49.2894 66.8290 0.0000 0.0000 0.0000
# 2 49.2894 87.3976 46.3462 0.0000 0.0000 0.0000
# 3 66.8290 46.3462 171.0504 0.0000 0.0000 0.0000
# 4 0.0000 0.0000 0.0000 30.8349 0.0000 0.0000
# 5 0.0000 0.0000 0.0000 0.0000 50.4800 0.0000
# 6 0.0000 0.0000 0.0000 0.0000 0.0000 70.8536
#
#
#
# Elastic Compliance Matrix: (Units=1/GPa)
#
#
# Indices 1 2 3 4 5 6 
#
# 1 0.016673 -0.006947 -0.004632 0.000000 0.000000 0.000000
# 2 -0.006947 0.016256 -0.001691 0.000000 0.000000 0.000000
# 3 -0.004632 -0.001691 0.008114 0.000000 0.000000 0.000000
# 4 0.000000 0.000000 0.000000 0.032431 0.000000 0.000000
# 5 0.000000 0.000000 0.000000 0.000000 0.019810 0.000000
# 6 0.000000 0.000000 0.000000 0.000000 0.000000 0.014114
#
#
# Mechanical properties :
#
#
# Convention : Reuss Voigt Hill
#
# Bulk Modulus (GPa) = 68.94294 75.82855 72.38574
# Shear Modulus (GPa) = 36.03080 43.43792 39.73436
#
# Velocity S-wave (km/s) = 3.97027 4.35931 4.16933
# Velocity P-wave (km/s) = 7.15396 7.64933 7.40579
#
# Compressibility (1/GPa) = 0.01450475
#
# Stress axis : x y z
#
# Youngs Moduli (GPa) = 59.97790 61.51509 123.24490
#
# Poissons Ratio (x) = 0.42733 0.57085
# Poissons Ratio (y) = 0.41665 0.20835
# Poissons Ratio (z) = 0.27781 0.10399
#
# Static dielectric constant tensor:
#      x y z
#    x 0.901360 0.000000 0.000000 
#    y 0.000000 1.866610 0.000000 
#    z 0.000000 0.000000 1.770350 
# 
# From -- ./inp_files/5258.got.cif
#   From: 2010.05.17/outbox.cif.g08.bks.cpg/sg20_3_cif.got.tgz:5258.got - 2010.06.03 22:52:26.
