data_PCOD9322875
_publ_section_title
;
Structure prediction by ZEFSAII (Michael W. Deem and Ramdas Pophale) SiO2 
 PCOD9322875
Probable space group: C 2 2 2
;
_chemical_formula_sum "Si O2"
_cell_formula_units_Z 48
_cell_length_a 27.257638
_cell_length_b 16.576590
_cell_length_c 5.291268
_cell_angle_alpha 90.000000
_cell_angle_beta 90.000000
_cell_angle_gamma 90.000000
_cell_volume 2390.799599
_symmetry_space_group_name_H-M "C 2 2 2"
_symmetry_group_IT_number 21
_symmetry_cell_setting 'orthorhombic'
loop_
_space_group_symop_operation_xyz
x,y,z
-x,-y,z
x,-y,-z
-x,y,-z
1/2+x,1/2+y,z
1/2-x,1/2-y,z
1/2+x,1/2-y,-z
1/2-x,1/2+y,-z
loop_
_atom_site_type_symbol
_atom_site_label
_atom_site_fract_x
_atom_site_fract_y
_atom_site_fract_z
Si Si1 0.297894 0.703488 0.331244
Si Si2 0.941792 0.588747 0.463629
Si Si3 0.557781 0.817408 0.968085
Si Si4 0.199528 0.018634 0.750504
Si Si5 0.307835 0.951298 0.753241
Si Si6 0.844844 0.267280 0.818710
O O1 0.250000 0.750000 0.422297
O O2 0.285368 0.611141 0.272197
O O3 0.335112 0.716327 0.564655
O O4 0.314065 0.741085 0.064323
O O5 0.921422 0.500000 0.500000
O O6 0.927701 0.652038 0.686096
O O7 0.000000 0.585129 0.500000
O O8 0.935795 0.610880 0.171489
O O9 0.500000 0.793291 0.000000
O O10 0.599241 0.758992 0.080982
O O11 0.170478 0.000000 0.500000
O O12 0.247857 0.960596 0.761135
O O13 0.170289 0.000000 0.000000
O O14 0.328323 0.860283 0.756700
O O15 0.319986 0.000000 0.500000
O O16 0.325308 0.000000 0.000000
#
# Coordination Sequence:
#
# PCOD9322875 Si02
#       6
#     8   8   8   8   8   8
#     4  12  23  38  58  83 116 151 192 242 292 346
#     4   9  17  31  50  72 100 140 189 238 288 330
#     4  10  21  36  53  76 110 149 191 244 291 336
#     4  10  19  35  55  77 107 146 182 222 279 337
#     4  10  20  35  51  74 107 146 191 232 278 333
#     4  12  24  38  57  84 114 153 199 241 291 349
#
# _framework density 20.076965999999999
#
# number of rings (size 3 to 8) (size 9 to 14) (size 15 to 20)
#    0.000    1.500    0.000    8.000    0.000    4.000 
#    0.000    0.000    0.000    0.000    0.000    0.000 
#    0.000   10.000    0.000    0.000    0.000    0.000 
#
# Total GULP energy -133799.279917 kJ/mol
# GULP energy per Si atom -5574.969997 kJ/mol
# Density = 2.003127 g / cm^3
# Si number density = 20.076966 Si / 1000 Ang^3
#
#
#
# Elastic Constant Matrix: (Units=GPa)
#
#
# Indices 1 2 3 4 5 6 
#
# 1 65.1124 14.1328 15.4358 0.0000 0.0000 0.0000
# 2 14.1328 55.9271 27.4902 0.0000 0.0000 0.0000
# 3 15.4358 27.4902 154.0584 0.0000 0.0000 0.0000
# 4 0.0000 0.0000 0.0000 30.9286 0.0000 0.0000
# 5 0.0000 0.0000 0.0000 0.0000 10.5647 0.0000
# 6 0.0000 0.0000 0.0000 0.0000 0.0000 -13.3465
#
#
#
# Elastic Compliance Matrix: (Units=1/GPa)
#
#
# Indices 1 2 3 4 5 6 
#
# 1 0.016386 -0.003654 -0.000990 0.000000 0.000000 0.000000
# 2 -0.003654 0.020414 -0.003277 0.000000 0.000000 0.000000
# 3 -0.000990 -0.003277 0.007175 0.000000 0.000000 0.000000
# 4 0.000000 0.000000 0.000000 0.032333 0.000000 0.000000
# 5 0.000000 0.000000 0.000000 0.000000 0.094655 0.000000
# 6 0.000000 0.000000 0.000000 0.000000 0.000000 -0.074926
#
#
# Mechanical properties :
#
#
# Convention : Reuss Voigt Hill
#
# Bulk Modulus (GPa) = 35.54414 43.24618 39.39516
# Shear Modulus (GPa) = 41.23517 20.16529 30.70023
#
# Velocity S-wave (km/s) = 4.53686 3.17266 3.91465
# Velocity P-wave (km/s) = 6.72209 5.91676 6.33224
#
# Compressibility (1/GPa) = 0.02813403
#
# Stress axis : x y z
#
# Youngs Moduli (GPa) = 61.02824 48.98495 139.37497
#
# Poissons Ratio (x) = 0.17900 0.13794
# Poissons Ratio (y) = 0.22301 0.45668
# Poissons Ratio (z) = 0.06040 0.16051
#
# Static dielectric constant tensor:
#      x y z
#    x 1.796380 0.000000 0.000000 
#    y 0.000000 2.002230 0.000000 
#    z 0.000000 0.000000 1.869520 
# 
# From -- ./inp_files/4114.got.cif
#   From: 2010.05.17/outbox.cif.g08.bks.cpg/sg21_3_cif.got.tgz:4114.got - 2010.06.03 23:14:55.
