data_PCOD9322553
_publ_section_title
;
Structure prediction by ZEFSAII (Michael W. Deem and Ramdas Pophale) SiO2 
 PCOD9322553
Probable space group: C 2 2 2
;
_chemical_formula_sum "Si O2"
_cell_formula_units_Z 52
_cell_length_a 22.414049
_cell_length_b 12.061751
_cell_length_c 10.452942
_cell_angle_alpha 90.000000
_cell_angle_beta 90.000000
_cell_angle_gamma 90.000000
_cell_volume 2825.980862
_symmetry_space_group_name_H-M "C 2 2 2"
_symmetry_group_IT_number 21
_symmetry_cell_setting 'orthorhombic'
loop_
_space_group_symop_operation_xyz
x,y,z
-x,-y,z
x,-y,-z
-x,y,-z
1/2+x,1/2+y,z
1/2-x,1/2-y,z
1/2+x,1/2-y,-z
1/2-x,1/2+y,-z
loop_
_atom_site_type_symbol
_atom_site_label
_atom_site_fract_x
_atom_site_fract_y
_atom_site_fract_z
Si Si1 0.637317 0.143958 0.850860
Si Si2 0.810226 0.316514 0.376780
Si Si3 0.760014 0.000000 0.500000
Si Si4 0.980005 0.873415 0.359326
Si Si5 0.874773 0.613175 0.860867
Si Si6 0.499615 0.206374 0.142814
Si Si7 0.342989 0.310886 0.371863
O O1 0.565998 0.158699 0.830586
O O2 0.668292 0.230724 0.752351
O O3 0.647944 0.012147 0.838572
O O4 0.647086 0.161889 0.003030
O O5 0.750000 0.250000 0.349996
O O6 0.784115 0.436667 0.405834
O O7 0.852689 0.314349 0.256574
O O8 0.840622 0.269273 0.504635
O O9 0.798912 0.910944 0.417418
O O10 0.908455 0.862088 0.352035
O O11 0.000000 0.835191 0.500000
O O12 0.009204 0.798103 0.250603
O O13 0.000000 0.000000 0.344930
O O14 0.946813 0.618003 0.860703
O O15 0.500000 0.256756 0.000000
#
# Coordination Sequence:
#
# PCOD9322553 Si02
#       7
#     8   8   4   8   8   8   8
#     4   9  19  33  54  81 104 135 172 212 271 331
#     4  10  21  35  53  75  99 136 181 222 268 315
#     4  10  20  36  57  76 101 142 186 230 276 322
#     4  10  19  31  50  78 106 138 173 213 268 324
#     4  10  18  34  54  76 108 138 170 219 268 320
#     4   9  18  32  52  77 106 138 171 209 261 327
#     4  10  20  36  55  77 106 138 181 227 268 326
#
# _framework density 18.400690999999998
#
# number of rings (size 3 to 8) (size 9 to 14) (size 15 to 20)
#    0.000    2.308    0.000    3.231    0.000    3.385 
#    0.000    5.385    0.000    9.231    0.000    0.000 
#    0.000    0.000    0.000    0.000    0.000    0.000 
#
# Total GULP energy -144766.797666 kJ/mol
# GULP energy per Si atom -5567.953756 kJ/mol
# Density = 1.835881 g / cm^3
# Si number density = 18.400691 Si / 1000 Ang^3
#
#
#
# Elastic Constant Matrix: (Units=GPa)
#
#
# Indices 1 2 3 4 5 6 
#
# 1 44.6558 15.6759 25.8573 0.0000 0.0000 0.0000
# 2 15.6759 76.3515 68.9562 0.0000 0.0000 0.0000
# 3 25.8573 68.9562 135.4049 0.0000 0.0000 0.0000
# 4 0.0000 0.0000 0.0000 24.6198 0.0000 0.0000
# 5 0.0000 0.0000 0.0000 0.0000 23.2931 0.0000
# 6 0.0000 0.0000 0.0000 0.0000 0.0000 9.9100
#
#
#
# Elastic Compliance Matrix: (Units=1/GPa)
#
#
# Indices 1 2 3 4 5 6 
#
# 1 0.025275 -0.001537 -0.004044 0.000000 0.000000 0.000000
# 2 -0.001537 0.024345 -0.012104 0.000000 0.000000 0.000000
# 3 -0.004044 -0.012104 0.014322 0.000000 0.000000 0.000000
# 4 0.000000 0.000000 0.000000 0.040618 0.000000 0.000000
# 5 0.000000 0.000000 0.000000 0.000000 0.042931 0.000000
# 6 0.000000 0.000000 0.000000 0.000000 0.000000 0.100908
#
#
# Mechanical properties :
#
#
# Convention : Reuss Voigt Hill
#
# Bulk Modulus (GPa) = 35.00085 53.04346 44.02216
# Shear Modulus (GPa) = 17.04787 21.29278 19.17032
#
# Velocity S-wave (km/s) = 3.04712 3.40541 3.23123
# Velocity P-wave (km/s) = 5.60738 6.65972 6.15608
#
# Compressibility (1/GPa) = 0.02857074
#
# Stress axis : x y z
#
# Youngs Moduli (GPa) = 39.56552 41.07666 69.82446
#
# Poissons Ratio (x) = 0.06314 0.28235
# Poissons Ratio (y) = 0.06082 0.84517
# Poissons Ratio (z) = 0.15999 0.49720
#
# Static dielectric constant tensor:
#      x y z
#    x 1.633870 0.000000 0.000000 
#    y 0.000000 1.632060 0.000000 
#    z 0.000000 0.000000 1.643910 
# 
# From -- ./inp_files/19141.got.cif
#   From: 2010.05.17/outbox.cif.g08.bks.cpg/sg21_10_cif.got.tgz:19141.got - 2010.06.03 23:14:55.
