data_PCOD9322942
_publ_section_title
;
Structure prediction by ZEFSAII (Michael W. Deem and Ramdas Pophale) SiO2 
 PCOD9322942
Probable space group: C 2 2 2
;
_chemical_formula_sum "Si O2"
_cell_formula_units_Z 48
_cell_length_a 16.428390
_cell_length_b 17.780952
_cell_length_c 7.967359
_cell_angle_alpha 90.000000
_cell_angle_beta 90.000000
_cell_angle_gamma 90.000000
_cell_volume 2327.364471
_symmetry_space_group_name_H-M "C 2 2 2"
_symmetry_group_IT_number 21
_symmetry_cell_setting 'orthorhombic'
loop_
_space_group_symop_operation_xyz
x,y,z
-x,-y,z
x,-y,-z
-x,y,-z
1/2+x,1/2+y,z
1/2-x,1/2-y,z
1/2+x,1/2-y,-z
1/2-x,1/2+y,-z
loop_
_atom_site_type_symbol
_atom_site_label
_atom_site_fract_x
_atom_site_fract_y
_atom_site_fract_z
Si Si1 0.208647 0.142641 0.207853
Si Si2 0.967371 0.726338 0.811075
Si Si3 0.139727 0.288610 0.331551
Si Si4 0.197749 0.673471 0.300879
Si Si5 0.285821 0.521098 0.192084
Si Si6 0.582371 0.617917 0.902667
O O1 0.161021 0.200198 0.327221
O O2 0.299873 0.176210 0.190198
O O3 0.219112 0.059170 0.280368
O O4 0.152831 0.140599 0.039608
O O5 0.887702 0.676703 0.795951
O O6 0.936965 0.812018 0.781621
O O7 0.044425 0.702630 0.700323
O O8 0.000000 0.727356 0.000000
O O9 0.170999 0.321728 0.505154
O O10 0.250000 0.750000 0.264310
O O11 0.241210 0.594876 0.259988
O O12 0.379850 0.545947 0.185024
O O13 0.259014 0.500000 0.000000
O O14 0.500000 0.601232 0.000000
#
# Coordination Sequence:
#
# PCOD9322942 Si02
#       6
#     8   8   8   8   8   8
#     4  10  21  38  64  93 133 175 215 267 341 392
#     4  11  23  38  69  96 127 176 228 278 329 399
#     4  11  23  43  64  97 133 182 218 276 334 408
#     4  12  24  42  67  98 132 173 224 274 340 409
#     4  10  24  39  64 101 134 172 224 281 333 409
#     4  10  19  36  60 101 135 170 219 277 341 397
#
# _framework density 20.624186999999999
#
# number of rings (size 3 to 8) (size 9 to 14) (size 15 to 20)
#    0.000    1.333    6.667    0.500    4.667    3.667 
#    0.000    0.833    0.000    2.000    4.333    0.000 
#    0.000    0.000    0.000    0.000    0.000    0.000 
#
# Total GULP energy -133887.699417 kJ/mol
# GULP energy per Si atom -5578.654142 kJ/mol
# Density = 2.057725 g / cm^3
# Si number density = 20.624187 Si / 1000 Ang^3
#
#
#
# Elastic Constant Matrix: (Units=GPa)
#
#
# Indices 1 2 3 4 5 6 
#
# 1 146.9654 62.3034 24.3738 0.0000 0.0000 0.0000
# 2 62.3034 146.6031 24.2299 0.0000 0.0000 0.0000
# 3 24.3738 24.2299 47.0718 0.0000 0.0000 0.0000
# 4 0.0000 0.0000 0.0000 26.4706 0.0000 0.0000
# 5 0.0000 0.0000 0.0000 0.0000 27.8741 0.0000
# 6 0.0000 0.0000 0.0000 0.0000 0.0000 29.9535
#
#
#
# Elastic Compliance Matrix: (Units=1/GPa)
#
#
# Indices 1 2 3 4 5 6 
#
# 1 0.008629 -0.003201 -0.002820 0.000000 0.000000 0.000000
# 2 -0.003201 0.008643 -0.002791 0.000000 0.000000 0.000000
# 3 -0.002820 -0.002791 0.024141 0.000000 0.000000 0.000000
# 4 0.000000 0.000000 0.000000 0.037778 0.000000 0.000000
# 5 0.000000 0.000000 0.000000 0.000000 0.035876 0.000000
# 6 0.000000 0.000000 0.000000 0.000000 0.000000 0.033385
#
#
# Mechanical properties :
#
#
# Convention : Reuss Voigt Hill
#
# Bulk Modulus (GPa) = 42.03855 62.49498 52.26676
# Shear Modulus (GPa) = 28.73452 32.17519 30.45485
#
# Velocity S-wave (km/s) = 3.73667 3.95406 3.84690
# Velocity P-wave (km/s) = 6.24854 7.15637 6.71781
#
# Compressibility (1/GPa) = 0.02378769
#
# Stress axis : x y z
#
# Youngs Moduli (GPa) = 115.88674 115.70234 41.42258
#
# Poissons Ratio (x) = 0.37037 0.11683
# Poissons Ratio (y) = 0.37096 0.11563
# Poissons Ratio (z) = 0.32685 0.32297
#
# Static dielectric constant tensor:
#      x y z
#    x 1.757750 0.000000 0.000000 
#    y 0.000000 1.784490 0.000000 
#    z 0.000000 0.000000 1.849090 
# 
# From -- ./inp_files/15011.got.cif
#   From: 2010.05.17/outbox.cif.g08.bks.cpg/sg21_8_cif.got.tgz:15011.got - 2010.06.03 23:14:55.
