data_PCOD9322216
_publ_section_title
;
Structure prediction by ZEFSAII (Michael W. Deem and Ramdas Pophale) SiO2 
 PCOD9322216
Probable space group: C 2 2 21
;
_chemical_formula_sum "Si O2"
_cell_formula_units_Z 20
_cell_length_a 9.000000
_cell_length_b 9.000000
_cell_length_c 24.000000
_cell_angle_alpha 90.000000
_cell_angle_beta 90.000000
_cell_angle_gamma 90.000000
_cell_volume 1944.000000
_symmetry_space_group_name_H-M "C 2 2 21"
_symmetry_group_IT_number 20
_symmetry_cell_setting 'orthorhombic'
loop_
_space_group_symop_operation_xyz
x,y,z
-x,-y,1/2+z
x,-y,-z
-x,y,1/2-z
1/2+x,1/2+y,z
1/2-x,1/2-y,1/2+z
1/2+x,1/2-y,-z
1/2-x,1/2+y,1/2-z
loop_
_atom_site_type_symbol
_atom_site_label
_atom_site_fract_x
_atom_site_fract_y
_atom_site_fract_z
Si Si1 0.269450 0.255914 0.920886
Si Si2 0.328068 0.066428 0.130805
Si Si3 0.162254 0.569395 0.180029
Si Si4 0.332628 0.263453 0.725416
Si Si5 0.534049 0.170733 0.479706
O O1 0.253976 0.388993 0.876100
O O2 0.115088 0.257911 0.955180
O O3 0.292095 0.103176 0.886287
O O4 0.397503 0.257711 0.967745
O O5 0.488098 0.075820 0.162582
O O6 0.204550 0.135269 0.171498
O O7 0.352186 0.154199 0.072474
O O8 0.216976 0.686150 0.226658
O O9 0.189165 0.406243 0.205475
O O10 0.500000 0.280677 0.750000
O O11 0.504704 0.000000 0.500000
#
# Coordination Sequence:
#
# PCOD9322216 Si02
#       5
#     8   8   8   8   8
#     4  10  21  43  69  93 129 170 209 260 316 373
#     4  10  23  45  64  91 132 168 207 262 319 375
#     4  11  24  43  65  91 130 169 209 264 320 376
#     4  12  25  41  65  95 126 165 216 264 315 378
#     4   9  21  40  65  96 131 166 207 260 316 374
#
# _framework density 10.288066000000001
#
# number of rings (size 3 to 8) (size 9 to 14) (size 15 to 20)
#    0.000    1.600    0.000    4.200    0.000   11.200 
#    0.000   14.000    0.000    0.000    0.000    0.000 
#    0.000    0.000    0.000    0.000    0.000    0.000 
#
# Total GULP energy -111853.116691 kJ/mol
# GULP energy per Si atom -5592.655835 kJ/mol
# Density = 1.026465 g / cm^3
# Si number density = 10.288066 Si / 1000 Ang^3
#
#
#
# Elastic Constant Matrix: (Units=GPa)
#
#
# Indices 1 2 3 4 5 6 
#
# 1 94.8541 59.7731 63.3118 0.0000 0.0000 0.0000
# 2 59.7731 88.9661 70.5391 0.0000 0.0000 0.0000
# 3 63.3118 70.5391 157.1029 0.0000 0.0000 0.0000
# 4 0.0000 0.0000 0.0000 42.5455 0.0000 0.0000
# 5 0.0000 0.0000 0.0000 0.0000 58.7302 0.0000
# 6 0.0000 0.0000 0.0000 0.0000 0.0000 30.7376
#
#
#
# Elastic Compliance Matrix: (Units=1/GPa)
#
#
# Indices 1 2 3 4 5 6 
#
# 1 0.019161 -0.010483 -0.003015 0.000000 0.000000 0.000000
# 2 -0.010483 0.023189 -0.006187 0.000000 0.000000 0.000000
# 3 -0.003015 -0.006187 0.010358 0.000000 0.000000 0.000000
# 4 0.000000 0.000000 0.000000 0.023504 0.000000 0.000000
# 5 0.000000 0.000000 0.000000 0.000000 0.017027 0.000000
# 6 0.000000 0.000000 0.000000 0.000000 0.000000 0.032533
#
#
# Mechanical properties :
#
#
# Convention : Reuss Voigt Hill
#
# Bulk Modulus (GPa) = 74.97426 80.90790 77.94108
# Shear Modulus (GPa) = 29.48300 36.22261 32.85281
#
# Velocity S-wave (km/s) = 3.78944 4.20029 4.00014
# Velocity P-wave (km/s) = 7.46077 7.93283 7.70042
#
# Compressibility (1/GPa) = 0.01333791
#
# Stress axis : x y z
#
# Youngs Moduli (GPa) = 52.18998 43.12357 96.54079
#
# Poissons Ratio (x) = 0.45207 0.29105
# Poissons Ratio (y) = 0.54711 0.59733
# Poissons Ratio (z) = 0.15734 0.26682
#
# Static dielectric constant tensor:
#      x y z
#    x 1.721060 0.000000 0.000000 
#    y 0.000000 1.716910 0.000000 
#    z 0.000000 0.000000 1.757250 
# 
# From -- ./inp_files/28593.got.cif
#   From: 2010.05.17/outbox.ucp.g08.bks.cvg/sg20_15_cif.got.tgz:28593.got - 2010.06.11 15:13:06.
