data_PCOD9322278
_publ_section_title
;
Structure prediction by ZEFSAII (Michael W. Deem and Ramdas Pophale) SiO2 
 PCOD9322278
Probable space group: C 2 2 2
;
_chemical_formula_sum "Si O2"
_cell_formula_units_Z 42
_cell_length_a 13.162337
_cell_length_b 23.492386
_cell_length_c 5.523791
_cell_angle_alpha 90.000000
_cell_angle_beta 90.000000
_cell_angle_gamma 90.000000
_cell_volume 1708.037385
_symmetry_space_group_name_H-M "C 2 2 2"
_symmetry_group_IT_number 21
_symmetry_cell_setting 'orthorhombic'
loop_
_space_group_symop_operation_xyz
x,y,z
-x,-y,z
x,-y,-z
-x,y,-z
1/2+x,1/2+y,z
1/2-x,1/2-y,z
1/2+x,1/2-y,-z
1/2-x,1/2+y,-z
loop_
_atom_site_type_symbol
_atom_site_label
_atom_site_fract_x
_atom_site_fract_y
_atom_site_fract_z
Si Si1 0.665828 0.910976 0.623078
Si Si2 0.136617 0.278677 0.602923
Si Si3 0.500000 0.000000 0.500000
Si Si4 0.368960 0.264836 0.101400
Si Si5 0.860265 0.891824 0.907202
Si Si6 0.869106 0.062068 0.593927
O O1 0.636769 0.846272 0.557294
O O2 0.574928 0.956058 0.641371
O O3 0.741004 0.905334 0.854892
O O4 0.746333 0.931201 0.419122
O O5 0.250000 0.250000 0.624395
O O6 0.091324 0.247913 0.368334
O O7 0.093589 0.270353 0.871082
O O8 0.250000 0.250000 0.127162
O O9 0.376481 0.329532 0.014877
O O10 0.902934 0.897899 0.633163
O O11 0.898593 0.929934 0.128925
O O12 0.893113 0.000000 0.500000
#
# Coordination Sequence:
#
# PCOD9322278 Si02
#       6
#     8   8   2   8   8   8
#     4  10  21  34  52  66  99 133 192 221 261 313
#     4  10  17  28  52  71  89 107 156 234 293 313
#     4  12  24  44  50  72 110 176 198 224 246 308
#     4  10  15  27  46  75  83 105 137 227 302 314
#     4  10  18  30  49  67  91 111 164 229 275 319
#     4  10  18  30  46  61  90 129 166 210 247 309
#
# _framework density 24.589627
#
# number of rings (size 3 to 8) (size 9 to 14) (size 15 to 20)
#    1.143    0.762    4.762    4.000    0.000    0.000 
#    0.000    1.905    0.000    0.000    0.000    0.000 
#    0.000    0.000    0.000    0.000    0.000    0.952 
#
# Total GULP energy -117131.305157 kJ/mol
# GULP energy per Si atom -5577.681198 kJ/mol
# Density = 2.453366 g / cm^3
# Si number density = 24.589627 Si / 1000 Ang^3
#
#
#
# Elastic Constant Matrix: (Units=GPa)
#
#
# Indices 1 2 3 4 5 6 
#
# 1 120.4597 31.9111 58.6440 0.0000 0.0000 0.0000
# 2 31.9111 162.1077 50.8537 0.0000 0.0000 0.0000
# 3 58.6440 50.8537 210.4441 0.0000 0.0000 0.0000
# 4 0.0000 0.0000 0.0000 29.7340 0.0000 0.0000
# 5 0.0000 0.0000 0.0000 0.0000 38.4867 0.0000
# 6 0.0000 0.0000 0.0000 0.0000 0.0000 -37.6874
#
#
#
# Elastic Compliance Matrix: (Units=1/GPa)
#
#
# Indices 1 2 3 4 5 6 
#
# 1 0.009802 -0.001161 -0.002451 0.000000 0.000000 0.000000
# 2 -0.001161 0.006812 -0.001323 0.000000 0.000000 0.000000
# 3 -0.002451 -0.001323 0.005755 0.000000 0.000000 0.000000
# 4 0.000000 0.000000 0.000000 0.033631 0.000000 0.000000
# 5 0.000000 0.000000 0.000000 0.000000 0.025983 0.000000
# 6 0.000000 0.000000 0.000000 0.000000 0.000000 -0.026534
#
#
# Mechanical properties :
#
#
# Convention : Reuss Voigt Hill
#
# Bulk Modulus (GPa) = 79.99999 86.20320 83.10159
# Shear Modulus (GPa) = 71.95793 29.54685 50.75239
#
# Velocity S-wave (km/s) = 5.41545 3.47017 4.54803
# Velocity P-wave (km/s) = 8.46802 7.15464 7.83889
#
# Compressibility (1/GPa) = 0.01250000
#
# Stress axis : x y z
#
# Youngs Moduli (GPa) = 102.01694 146.79636 173.77607
#
# Poissons Ratio (x) = 0.17038 0.42594
# Poissons Ratio (y) = 0.11841 0.22986
# Poissons Ratio (z) = 0.25005 0.19417
#
# Static dielectric constant tensor:
#      x y z
#    x 2.021440 0.000000 0.000000 
#    y 0.000000 1.969400 0.000000 
#    z 0.000000 0.000000 1.501650 
# 
# From -- ./inp_files/5919.got.cif
#   From: 2010.05.17/outbox.cif.g08.bks.cpg/sg21_3_cif.got.tgz:5919.got - 2010.06.03 23:14:55.
