data_PCOD9322340
_publ_section_title
;
Structure prediction by ZEFSAII (Michael W. Deem and Ramdas Pophale) SiO2 
 PCOD9322340
Probable space group: C 2 2 2
;
_chemical_formula_sum "Si O2"
_cell_formula_units_Z 44
_cell_length_a 5.334584
_cell_length_b 25.902510
_cell_length_c 16.251746
_cell_angle_alpha 90.000000
_cell_angle_beta 90.000000
_cell_angle_gamma 90.000000
_cell_volume 2245.651886
_symmetry_space_group_name_H-M "C 2 2 2"
_symmetry_group_IT_number 21
_symmetry_cell_setting 'orthorhombic'
loop_
_space_group_symop_operation_xyz
x,y,z
-x,-y,z
x,-y,-z
-x,y,-z
1/2+x,1/2+y,z
1/2-x,1/2-y,z
1/2+x,1/2-y,-z
1/2-x,1/2+y,-z
loop_
_atom_site_type_symbol
_atom_site_label
_atom_site_fract_x
_atom_site_fract_y
_atom_site_fract_z
Si Si1 0.534398 0.941372 0.805217
Si Si2 0.531272 0.586947 0.093548
Si Si3 0.452905 0.843301 0.709713
Si Si4 0.354137 0.300717 0.140241
Si Si5 0.750000 0.250000 0.263629
Si Si6 0.248031 0.188044 0.449609
O O1 0.291988 0.930246 0.863897
O O2 0.541918 0.900371 0.730504
O O3 0.791882 0.932546 0.855216
O O4 0.500000 0.000000 0.777369
O O5 0.537751 0.649836 0.094310
O O6 0.500000 0.569053 0.000000
O O7 0.357249 0.823437 0.798704
O O8 0.641215 0.797286 0.684087
O O9 0.249504 0.840521 0.638288
O O10 0.250000 0.250000 0.093082
O O11 0.554510 0.277900 0.203730
O O12 0.500000 0.174456 0.500000
O O13 0.250000 0.250000 0.435448
O O14 0.000000 0.175326 0.500000
#
# Coordination Sequence:
#
# PCOD9322340 Si02
#       6
#     8   8   8   8   4   8
#     4  11  24  42  64  88 115 159 213 261 305 360
#     4  11  23  41  59  88 123 156 202 259 320 369
#     4  10  21  35  59  84 119 156 202 244 292 357
#     4   9  19  34  53  83 114 159 197 241 292 362
#     4  10  16  32  60  78 116 154 200 238 290 352
#     4  10  22  34  53  87 127 155 184 229 296 359
#
# _framework density 19.593420999999999
#
# number of rings (size 3 to 8) (size 9 to 14) (size 15 to 20)
#    0.000    1.818    1.818    2.727    6.364    2.182 
#    1.636    0.000    0.000    0.545    0.000    1.273 
#    0.000    0.000    0.000    0.000    0.000    0.000 
#
# Total GULP energy -122700.916467 kJ/mol
# GULP energy per Si atom -5577.314385 kJ/mol
# Density = 1.954883 g / cm^3
# Si number density = 19.593421 Si / 1000 Ang^3
#
#
#
# Elastic Constant Matrix: (Units=GPa)
#
#
# Indices 1 2 3 4 5 6 
#
# 1 86.9556 14.7334 12.1491 0.0000 0.0000 0.0000
# 2 14.7334 113.2220 19.8300 0.0000 0.0000 0.0000
# 3 12.1491 19.8300 63.6804 0.0000 0.0000 0.0000
# 4 0.0000 0.0000 0.0000 -4.2985 0.0000 0.0000
# 5 0.0000 0.0000 0.0000 0.0000 15.8900 0.0000
# 6 0.0000 0.0000 0.0000 0.0000 0.0000 22.2196
#
#
#
# Elastic Compliance Matrix: (Units=1/GPa)
#
#
# Indices 1 2 3 4 5 6 
#
# 1 0.011974 -0.001225 -0.001903 0.000000 0.000000 0.000000
# 2 -0.001225 0.009467 -0.002714 0.000000 0.000000 0.000000
# 3 -0.001903 -0.002714 0.016912 0.000000 0.000000 0.000000
# 4 0.000000 0.000000 0.000000 -0.232639 0.000000 0.000000
# 5 0.000000 0.000000 0.000000 0.000000 0.062933 0.000000
# 6 0.000000 0.000000 0.000000 0.000000 0.000000 0.045005
#
#
# Mechanical properties :
#
#
# Convention : Reuss Voigt Hill
#
# Bulk Modulus (GPa) = 37.49804 39.69810 38.59807
# Shear Modulus (GPa) = -76.01615 21.23858 -27.38878
#
# Velocity S-wave (km/s) = -6.23546 3.29593 -3.74285
# Velocity P-wave (km/s) = 5.71504 5.89823 1.03137
#
# Compressibility (1/GPa) = 0.02666806
#
# Stress axis : x y z
#
# Youngs Moduli (GPa) = 83.51769 105.63021 59.13062
#
# Poissons Ratio (x) = 0.12938 0.11252
# Poissons Ratio (y) = 0.10229 0.16050
# Poissons Ratio (z) = 0.15893 0.28672
#
# Static dielectric constant tensor:
#      x y z
#    x 1.848540 0.000000 0.000000 
#    y 0.000000 1.738860 0.000000 
#    z 0.000000 0.000000 1.675160 
# 
# From -- ./inp_files/29312.got.cif
#   From: 2010.05.17/outbox.cif.g08.bks.cpg/sg21_15_cif.got.tgz:29312.got - 2010.06.03 23:14:55.
