data_PCOD9322987
_publ_section_title
;
Structure prediction by ZEFSAII (Michael W. Deem and Ramdas Pophale) SiO2 
 PCOD9322987
Probable space group: C 2 2 2
;
_chemical_formula_sum "Si O2"
_cell_formula_units_Z 64
_cell_length_a 25.945949
_cell_length_b 8.246102
_cell_length_c 15.918474
_cell_angle_alpha 90.000000
_cell_angle_beta 90.000000
_cell_angle_gamma 90.000000
_cell_volume 3405.804344
_symmetry_space_group_name_H-M "C 2 2 2"
_symmetry_group_IT_number 21
_symmetry_cell_setting 'orthorhombic'
loop_
_space_group_symop_operation_xyz
x,y,z
-x,-y,z
x,-y,-z
-x,y,-z
1/2+x,1/2+y,z
1/2-x,1/2-y,z
1/2+x,1/2-y,-z
1/2-x,1/2+y,-z
loop_
_atom_site_type_symbol
_atom_site_label
_atom_site_fract_x
_atom_site_fract_y
_atom_site_fract_z
Si Si1 0.308958 0.307286 0.016298
Si Si2 0.552601 0.097438 0.264554
Si Si3 0.364792 0.764386 0.147905
Si Si4 0.386872 0.201399 0.338048
Si Si5 0.207116 0.387330 0.421340
Si Si6 0.725393 0.924601 0.748708
Si Si7 0.828172 0.904221 0.194686
Si Si8 0.496359 0.692683 0.596329
O O1 0.250000 0.250000 0.002575
O O2 0.326601 0.291544 0.112349
O O3 0.308192 0.500000 0.000000
O O4 0.349344 0.232312 0.950270
O O5 0.580226 0.181064 0.184806
O O6 0.536366 0.220815 0.339654
O O7 0.500000 0.000000 0.242943
O O8 0.594198 0.969750 0.300310
O O9 0.321266 0.878554 0.190371
O O10 0.355999 0.576766 0.176619
O O11 0.349940 0.185728 0.418579
O O12 0.355461 0.308675 0.270209
O O13 0.440100 0.277509 0.366422
O O14 0.216361 0.500000 0.500000
O O15 0.250000 0.250000 0.417395
O O16 0.208730 0.491420 0.336573
O O17 0.750000 0.750000 0.728649
O O18 0.769388 0.040273 0.787290
O O19 0.500000 0.500000 0.594196
O O20 0.500000 0.755457 0.500000
#
# Coordination Sequence:
#
# PCOD9322987 Si02
#       8
#     8   8   8   8   8   8   8   8
#     4  10  21  34  56  93 129 162 202 247 290 358
#     4  10  22  38  62  87 116 150 200 255 310 358
#     4  10  19  37  60  87 123 165 199 246 306 360
#     4  11  23  38  63  88 116 158 200 247 310 358
#     4  12  25  41  57  87 124 167 203 243 296 372
#     4  10  20  37  59  82 122 166 203 240 297 361
#     4  10  21  36  60  90 125 162 200 241 301 370
#     4  10  23  43  64  91 114 146 202 265 315 366
#
# _framework density 18.791449
#
# number of rings (size 3 to 8) (size 9 to 14) (size 15 to 20)
#    0.000    1.625    2.500    3.000    3.500    2.750 
#    2.250    0.000    0.000    5.250    0.000   11.375 
#    0.000    0.000    0.000    0.000    0.000    0.000 
#
# Total GULP energy -178561.199148 kJ/mol
# GULP energy per Si atom -5580.037473 kJ/mol
# Density = 1.874868 g / cm^3
# Si number density = 18.791449 Si / 1000 Ang^3
#
#
#
# Elastic Constant Matrix: (Units=GPa)
#
#
# Indices 1 2 3 4 5 6 
#
# 1 104.9695 44.0110 46.8535 0.0000 0.0000 0.0000
# 2 44.0110 75.7213 48.0982 0.0000 0.0000 0.0000
# 3 46.8535 48.0982 114.2850 0.0000 0.0000 0.0000
# 4 0.0000 0.0000 0.0000 25.4574 0.0000 0.0000
# 5 0.0000 0.0000 0.0000 0.0000 13.3982 0.0000
# 6 0.0000 0.0000 0.0000 0.0000 0.0000 22.1291
#
#
#
# Elastic Compliance Matrix: (Units=1/GPa)
#
#
# Indices 1 2 3 4 5 6 
#
# 1 0.013311 -0.005829 -0.003004 0.000000 0.000000 0.000000
# 2 -0.005829 0.020577 -0.006271 0.000000 0.000000 0.000000
# 3 -0.003004 -0.006271 0.012621 0.000000 0.000000 0.000000
# 4 0.000000 0.000000 0.000000 0.039281 0.000000 0.000000
# 5 0.000000 0.000000 0.000000 0.000000 0.074637 0.000000
# 6 0.000000 0.000000 0.000000 0.000000 0.000000 0.045189
#
#
# Mechanical properties :
#
#
# Convention : Reuss Voigt Hill
#
# Bulk Modulus (GPa) = 61.34060 63.65571 62.49816
# Shear Modulus (GPa) = 20.72475 22.59781 21.66128
#
# Velocity S-wave (km/s) = 3.32457 3.47155 3.39886
# Velocity P-wave (km/s) = 6.88845 7.07229 6.98097
#
# Compressibility (1/GPa) = 0.01630242
#
# Stress axis : x y z
#
# Youngs Moduli (GPa) = 75.12423 48.59770 79.23456
#
# Poissons Ratio (x) = 0.28325 0.23804
# Poissons Ratio (y) = 0.43787 0.49685
# Poissons Ratio (z) = 0.22569 0.30474
#
# Static dielectric constant tensor:
#      x y z
#    x 1.654780 0.000000 0.000000 
#    y 0.000000 1.639960 0.000000 
#    z 0.000000 0.000000 1.667070 
# 
# From -- ./inp_files/33606.got.cif
#   From: 2010.05.17/outbox.cif.g08.bks.cpg/sg21_17_cif.got.tgz:33606.got - 2010.06.03 23:14:55.
