data_PCOD9322178
_publ_section_title
;
Structure prediction by ZEFSAII (Michael W. Deem and Ramdas Pophale) SiO2 
 PCOD9322178
Probable space group: C 2 2 21
;
_chemical_formula_sum "Si O2"
_cell_formula_units_Z 24
_cell_length_a 9.000000
_cell_length_b 15.000000
_cell_length_c 18.000000
_cell_angle_alpha 90.000000
_cell_angle_beta 90.000000
_cell_angle_gamma 90.000000
_cell_volume 2430.000000
_symmetry_space_group_name_H-M "C 2 2 21"
_symmetry_group_IT_number 20
_symmetry_cell_setting 'orthorhombic'
loop_
_space_group_symop_operation_xyz
x,y,z
-x,-y,1/2+z
x,-y,-z
-x,y,1/2-z
1/2+x,1/2+y,z
1/2-x,1/2-y,1/2+z
1/2+x,1/2-y,-z
1/2-x,1/2+y,1/2-z
loop_
_atom_site_type_symbol
_atom_site_label
_atom_site_fract_x
_atom_site_fract_y
_atom_site_fract_z
Si Si1 0.583283 0.013795 0.326912
Si Si2 0.937486 0.667858 0.912109
Si Si3 0.433082 0.479063 0.321590
Si Si4 0.403290 0.906395 0.544264
Si Si5 0.136912 0.902793 0.026961
Si Si6 0.416994 0.639267 0.107520
O O1 0.500000 0.032670 0.250000
O O2 0.539546 0.916160 0.358494
O O3 0.760706 0.007762 0.316220
O O4 0.528296 0.080253 0.392028
O O5 0.777800 0.656033 0.952381
O O6 0.936576 0.759469 0.868349
O O7 0.051903 0.662910 0.980354
O O8 0.500000 0.431418 0.250000
O O9 0.447538 0.420980 0.395997
O O10 0.531075 0.566822 0.333813
O O11 0.249640 0.881392 0.582533
O O12 0.388871 0.000000 0.500000
O O13 0.025532 0.872425 0.963576
O O14 0.196353 0.000000 0.000000
#
# Coordination Sequence:
#
# PCOD9322178 Si02
#       6
#     8   8   8   8   8   8
#     4  10  21  37  55  74 102 140 178 211 252 311
#     4  10  20  34  54  79 108 136 167 216 264 303
#     4  10  20  35  56  76 102 138 177 214 255 307
#     4  10  19  33  54  79 104 137 177 210 251 310
#     4   9  18  35  54  75 103 139 176 209 253 309
#     4  11  20  32  55  83 107 132 169 218 263 304
#
# _framework density 9.8765429999999999
#
# number of rings (size 3 to 8) (size 9 to 14) (size 15 to 20)
#    0.000    2.000    0.000    7.000    0.000    2.000 
#    0.000    0.000    0.000   23.000    0.000    0.000 
#    0.000    0.000    0.000    0.000    0.000    0.000 
#
# Total GULP energy -133926.851898 kJ/mol
# GULP energy per Si atom -5580.285496 kJ/mol
# Density = 0.985406 g / cm^3
# Si number density = 9.876543 Si / 1000 Ang^3
#
#
#
# Elastic Constant Matrix: (Units=GPa)
#
#
# Indices 1 2 3 4 5 6 
#
# 1 30.9293 2.0675 -9.6145 0.0000 0.0000 0.0000
# 2 2.0675 28.2702 -5.2002 0.0000 0.0000 0.0000
# 3 -9.6145 -5.2002 66.3228 0.0000 0.0000 0.0000
# 4 0.0000 0.0000 0.0000 8.0557 0.0000 0.0000
# 5 0.0000 0.0000 0.0000 0.0000 23.2560 0.0000
# 6 0.0000 0.0000 0.0000 0.0000 0.0000 46.9352
#
#
#
# Elastic Compliance Matrix: (Units=1/GPa)
#
#
# Indices 1 2 3 4 5 6 
#
# 1 0.033929 -0.001600 0.004793 0.000000 0.000000 0.000000
# 2 -0.001600 0.035966 0.002588 0.000000 0.000000 0.000000
# 3 0.004793 0.002588 0.015976 0.000000 0.000000 0.000000
# 4 0.000000 0.000000 0.000000 0.124135 0.000000 0.000000
# 5 0.000000 0.000000 0.000000 0.000000 0.043000 0.000000
# 6 0.000000 0.000000 0.000000 0.000000 0.000000 0.021306
#
#
# Mechanical properties :
#
#
# Convention : Reuss Voigt Hill
#
# Bulk Modulus (GPa) = 10.26343 11.11420 10.68882
# Shear Modulus (GPa) = 16.93622 24.86736 20.90179
#
# Velocity S-wave (km/s) = 2.93131 3.55196 3.25646
# Velocity P-wave (km/s) = 4.08214 4.73927 4.42293
#
# Compressibility (1/GPa) = 0.09743329
#
# Stress axis : x y z
#
# Youngs Moduli (GPa) = 29.47361 27.80406 62.59578
#
# Poissons Ratio (x) = 0.04448 -0.30003
# Poissons Ratio (y) = 0.04715 -0.16200
# Poissons Ratio (z) = -0.14127 -0.07196
#
# Static dielectric constant tensor:
#      x y z
#    x 1.681790 0.000000 0.000000 
#    y 0.000000 1.731210 0.000000 
#    z 0.000000 0.000000 1.696030 
# 
# From -- ./inp_files/23460.got.cif
#   From: 2010.05.17/outbox.ucp.g08.bks.cvg/sg20_12_cif.got.tgz:23460.got - 2010.06.11 15:13:06.
