data_PCOD9322667
_publ_section_title
;
Structure prediction by ZEFSAII (Michael W. Deem and Ramdas Pophale) SiO2 
 PCOD9322667
Probable space group: C 2 2 2
;
_chemical_formula_sum "Si O2"
_cell_formula_units_Z 14
_cell_length_a 21.427903
_cell_length_b 4.965315
_cell_length_c 5.985315
_cell_angle_alpha 90.000000
_cell_angle_beta 90.000000
_cell_angle_gamma 90.000000
_cell_volume 636.815300
_symmetry_space_group_name_H-M "C 2 2 2"
_symmetry_group_IT_number 21
_symmetry_cell_setting 'orthorhombic'
loop_
_space_group_symop_operation_xyz
x,y,z
-x,-y,z
x,-y,-z
-x,y,-z
1/2+x,1/2+y,z
1/2-x,1/2-y,z
1/2+x,1/2-y,-z
1/2-x,1/2+y,-z
loop_
_atom_site_type_symbol
_atom_site_label
_atom_site_fract_x
_atom_site_fract_y
_atom_site_fract_z
Si Si1 0.500000 0.500000 0.500000
Si Si2 0.909223 0.735606 0.847131
Si Si3 0.791856 0.500000 0.000000
O O1 0.453807 0.316455 0.646945
O O2 0.936524 0.500000 0.000000
O O3 0.839362 0.617719 0.810979
O O4 0.902488 0.000000 0.000000
O O5 0.750000 0.250000 0.924234
#
# Coordination Sequence:
#
# PCOD9322667 Si02
#       3
#     2   8   4
#     4  12  26  46  76 112 152 182 246 292 384 432
#     4  10  24  43  70 111 141 192 232 303 359 427
#     4  10  18  44  77  97 144 192 240 296 360 416
#
# _framework density 21.984396
#
# number of rings (size 3 to 8) (size 9 to 14) (size 15 to 20)
#    1.714    0.000    2.857    0.857    0.000    9.143 
#    0.000    0.000   12.571    0.000    0.000    0.000 
#    0.000    0.000    0.000    0.000    0.000    0.000 
#
# Total GULP energy -39009.340827 kJ/mol
# GULP energy per Si atom -5572.762975 kJ/mol
# Density = 2.193436 g / cm^3
# Si number density = 21.984396 Si / 1000 Ang^3
#
#
#
# Elastic Constant Matrix: (Units=GPa)
#
#
# Indices 1 2 3 4 5 6 
#
# 1 204.4155 95.7843 73.9684 0.0000 0.0000 0.0000
# 2 95.7843 205.2596 66.0864 0.0000 0.0000 0.0000
# 3 73.9684 66.0864 90.4477 0.0000 0.0000 0.0000
# 4 0.0000 0.0000 0.0000 37.1314 0.0000 0.0000
# 5 0.0000 0.0000 0.0000 0.0000 -7.8657 0.0000
# 6 0.0000 0.0000 0.0000 0.0000 0.0000 10.2593
#
#
#
# Elastic Compliance Matrix: (Units=1/GPa)
#
#
# Indices 1 2 3 4 5 6 
#
# 1 0.007529 -0.002002 -0.004694 0.000000 0.000000 0.000000
# 2 -0.002002 0.006903 -0.003406 0.000000 0.000000 0.000000
# 3 -0.004694 -0.003406 0.017384 0.000000 0.000000 0.000000
# 4 0.000000 0.000000 0.000000 0.026931 0.000000 0.000000
# 5 0.000000 0.000000 0.000000 0.000000 -0.127134 0.000000
# 6 0.000000 0.000000 0.000000 0.000000 0.000000 0.097473
#
#
# Mechanical properties :
#
#
# Convention : Reuss Voigt Hill
#
# Bulk Modulus (GPa) = 86.13025 107.97788 97.05406
# Shear Modulus (GPa) = 94.05352 25.52390 59.78871
#
# Velocity S-wave (km/s) = 6.54789 3.41104 5.22063
# Velocity P-wave (km/s) = 9.81985 8.04586 8.97678
#
# Compressibility (1/GPa) = 0.01161032
#
# Stress axis : x y z
#
# Youngs Moduli (GPa) = 132.82571 144.86864 57.52385
#
# Poissons Ratio (x) = 0.29001 0.27003
# Poissons Ratio (y) = 0.26590 0.19595
# Poissons Ratio (z) = 0.62352 0.49349
#
# Static dielectric constant tensor:
#      x y z
#    x 1.890200 0.000000 0.000000 
#    y 0.000000 1.760990 0.000000 
#    z 0.000000 0.000000 1.796770 
# 
# From -- ./inp_files/346.got.cif
#   From: 2010.05.17/outbox.cif.g08.bks.cpg/sg21_1_cif.got.tgz:346.got - 2010.06.03 23:14:55.
