data_PCOD9322185
_publ_section_title
;
Structure prediction by ZEFSAII (Michael W. Deem and Ramdas Pophale) SiO2 
 PCOD9322185
Probable space group: C 2 2 21
;
_chemical_formula_sum "Si O2"
_cell_formula_units_Z 30
_cell_length_a 12.000000
_cell_length_b 21.000000
_cell_length_c 12.000000
_cell_angle_alpha 90.000000
_cell_angle_beta 90.000000
_cell_angle_gamma 90.000000
_cell_volume 3024.000000
_symmetry_space_group_name_H-M "C 2 2 21"
_symmetry_group_IT_number 20
_symmetry_cell_setting 'orthorhombic'
loop_
_space_group_symop_operation_xyz
x,y,z
-x,-y,1/2+z
x,-y,-z
-x,y,1/2-z
1/2+x,1/2+y,z
1/2-x,1/2-y,1/2+z
1/2+x,1/2-y,-z
1/2-x,1/2+y,1/2-z
loop_
_atom_site_type_symbol
_atom_site_label
_atom_site_fract_x
_atom_site_fract_y
_atom_site_fract_z
Si Si1 0.787740 0.868515 0.245770
Si Si2 0.405900 0.436908 0.437561
Si Si3 0.681817 0.675505 0.086050
Si Si4 0.186557 0.829255 0.647234
Si Si5 0.340956 0.431083 0.029046
Si Si6 0.416366 0.796519 0.535756
Si Si7 0.500000 0.725771 0.750000
Si Si8 0.621478 0.188397 0.581319
O O1 0.837455 0.923068 0.326143
O O2 0.771179 0.892377 0.120684
O O3 0.680818 0.841317 0.310310
O O4 0.886909 0.815913 0.244412
O O5 0.368125 0.500000 0.500000
O O6 0.387338 0.378550 0.522078
O O7 0.537547 0.441478 0.415407
O O8 0.682082 0.668605 0.218942
O O9 0.633865 0.742573 0.044743
O O10 0.800972 0.672782 0.024949
O O11 0.139970 0.890262 0.582530
O O12 0.313652 0.826395 0.602513
O O13 0.126412 0.764630 0.604590
O O14 0.293305 0.500000 0.000000
O O15 0.488859 0.764659 0.635463
O O16 0.499787 0.834166 0.455349
#
# Coordination Sequence:
#
# PCOD9322185 Si02
#       8
#     8   8   8   8   8   8   4   8
#     4  11  20  38  59  87 121 157 201 246 303 365
#     4  10  20  35  59  84 117 157 197 242 293 371
#     4  10  21  38  54  93 121 151 197 246 304 352
#     4  11  23  37  58  86 126 152 190 259 292 365
#     4  11  24  38  57  85 119 168 203 244 309 366
#     4  11  22  37  61  90 121 160 200 238 312 367
#     4  12  16  36  62  88 126 166 184 248 296 382
#     4  10  22  36  61  91 116 160 197 250 304 367
#
# _framework density 9.9206350000000008
#
# number of rings (size 3 to 8) (size 9 to 14) (size 15 to 20)
#    0.000    1.333    5.333    2.400    5.600    2.133 
#    0.000    0.000    0.000    3.200    3.467    0.000 
#    0.000    0.000    0.000    0.000    0.000    0.000 
#
# Total GULP energy -167521.374995 kJ/mol
# GULP energy per Si atom -5584.045833 kJ/mol
# Density = 0.989806 g / cm^3
# Si number density = 9.920635 Si / 1000 Ang^3
#
#
#
# Elastic Constant Matrix: (Units=GPa)
#
#
# Indices 1 2 3 4 5 6 
#
# 1 64.6819 -11.4805 3.7783 0.0000 0.0000 0.0000
# 2 -11.4805 36.9569 13.5093 0.0000 0.0000 0.0000
# 3 3.7783 13.5093 135.9991 0.0000 0.0000 0.0000
# 4 0.0000 0.0000 0.0000 19.9204 0.0000 0.0000
# 5 0.0000 0.0000 0.0000 0.0000 27.5832 0.0000
# 6 0.0000 0.0000 0.0000 0.0000 0.0000 7.6733
#
#
#
# Elastic Compliance Matrix: (Units=1/GPa)
#
#
# Indices 1 2 3 4 5 6 
#
# 1 0.016493 0.005490 -0.001004 0.000000 0.000000 0.000000
# 2 0.005490 0.029906 -0.003123 0.000000 0.000000 0.000000
# 3 -0.001004 -0.003123 0.007691 0.000000 0.000000 0.000000
# 4 0.000000 0.000000 0.000000 0.050200 0.000000 0.000000
# 5 0.000000 0.000000 0.000000 0.000000 0.036254 0.000000
# 6 0.000000 0.000000 0.000000 0.000000 0.000000 0.130322
#
#
# Mechanical properties :
#
#
# Convention : Reuss Voigt Hill
#
# Bulk Modulus (GPa) = 17.60017 27.69469 22.64743
# Shear Modulus (GPa) = 17.41690 26.49076 21.95383
#
# Velocity S-wave (km/s) = 2.96600 3.65791 3.32998
# Velocity P-wave (km/s) = 4.54085 5.64171 5.12095
#
# Compressibility (1/GPa) = 0.05681764
#
# Stress axis : x y z
#
# Youngs Moduli (GPa) = 60.63021 33.43836 130.02017
#
# Poissons Ratio (x) = -0.18359 0.13049
# Poissons Ratio (y) = -0.33289 0.40608
# Poissons Ratio (z) = 0.06085 0.10443
#
# Static dielectric constant tensor:
#      x y z
#    x 1.763370 0.000000 0.000000 
#    y 0.000000 1.709220 0.000000 
#    z 0.000000 0.000000 1.688580 
# 
# From -- ./inp_files/14396.got.cif
#   From: 2010.05.17/outbox.ucp.g08.bks.cvg/sg20_8_cif.got.tgz:14396.got - 2010.06.11 15:13:06.
