data_PCOD9322741
_publ_section_title
;
Structure prediction by ZEFSAII (Michael W. Deem and Ramdas Pophale) SiO2 
 PCOD9322741
Probable space group: C 2 2 2
;
_chemical_formula_sum "Si O2"
_cell_formula_units_Z 30
_cell_length_a 17.328946
_cell_length_b 14.539919
_cell_length_c 4.990725
_cell_angle_alpha 90.000000
_cell_angle_beta 90.000000
_cell_angle_gamma 90.000000
_cell_volume 1257.470413
_symmetry_space_group_name_H-M "C 2 2 2"
_symmetry_group_IT_number 21
_symmetry_cell_setting 'orthorhombic'
loop_
_space_group_symop_operation_xyz
x,y,z
-x,-y,z
x,-y,-z
-x,y,-z
1/2+x,1/2+y,z
1/2-x,1/2-y,z
1/2+x,1/2-y,-z
1/2-x,1/2+y,-z
loop_
_atom_site_type_symbol
_atom_site_label
_atom_site_fract_x
_atom_site_fract_y
_atom_site_fract_z
Si Si1 0.609918 0.561122 0.246095
Si Si2 0.377195 0.873138 0.285283
Si Si3 0.241585 0.500000 0.000000
Si Si4 0.500000 0.000000 0.000000
Si Si5 0.844130 0.741499 0.212866
O O1 0.591909 0.500000 0.500000
O O2 0.601891 0.669805 0.278455
O O3 0.579174 0.500000 0.000000
O O4 0.701529 0.559449 0.181068
O O5 0.371572 0.840276 0.589448
O O6 0.449892 0.932664 0.189175
O O7 0.307116 0.938221 0.197511
O O8 0.364248 0.785098 0.092394
O O9 0.750000 0.750000 0.244480
#
# Coordination Sequence:
#
# PCOD9322741 Si02
#       5
#     8   8   4   2   8
#     4  10  19  32  52  83 128 155 193 257 354 410
#     4  11  24  38  63  86 131 179 230 271 310 417
#     4   9  20  33  52  82 124 169 195 264 330 389
#     4  10  28  50  64  94 138 202 238 244 340 400
#     4  12  21  36  60  96 125 167 222 284 347 384
#
# _framework density 23.857417999999999
#
# number of rings (size 3 to 8) (size 9 to 14) (size 15 to 20)
#    0.800    0.533    2.667    4.000    0.000    5.333 
#    0.000    0.000    0.000    0.000    0.000   14.000 
#    0.000    0.000    0.000    0.000    0.000    0.000 
#
# Total GULP energy -83749.982317 kJ/mol
# GULP energy per Si atom -5583.332154 kJ/mol
# Density = 2.380312 g / cm^3
# Si number density = 23.857418 Si / 1000 Ang^3
#
#
#
# Elastic Constant Matrix: (Units=GPa)
#
#
# Indices 1 2 3 4 5 6 
#
# 1 89.5897 12.4203 4.2390 0.0000 0.0000 0.0000
# 2 12.4203 97.0502 0.8559 0.0000 0.0000 0.0000
# 3 4.2390 0.8559 100.9567 0.0000 0.0000 0.0000
# 4 0.0000 0.0000 0.0000 49.3688 0.0000 0.0000
# 5 0.0000 0.0000 0.0000 0.0000 7.6722 0.0000
# 6 0.0000 0.0000 0.0000 0.0000 0.0000 10.7382
#
#
#
# Elastic Compliance Matrix: (Units=1/GPa)
#
#
# Indices 1 2 3 4 5 6 
#
# 1 0.011385 -0.001453 -0.000466 0.000000 0.000000 0.000000
# 2 -0.001453 0.010490 -0.000028 0.000000 0.000000 0.000000
# 3 -0.000466 -0.000028 0.009925 0.000000 0.000000 0.000000
# 4 0.000000 0.000000 0.000000 0.020256 0.000000 0.000000
# 5 0.000000 0.000000 0.000000 0.000000 0.130341 0.000000
# 6 0.000000 0.000000 0.000000 0.000000 0.000000 0.093125
#
#
# Mechanical properties :
#
#
# Convention : Reuss Voigt Hill
#
# Bulk Modulus (GPa) = 35.83285 35.84744 35.84014
# Shear Modulus (GPa) = 17.31793 31.56126 24.43960
#
# Velocity S-wave (km/s) = 2.69716 3.64113 3.20410
# Velocity P-wave (km/s) = 4.97512 5.72149 5.36131
#
# Compressibility (1/GPa) = 0.02790735
#
# Stress axis : x y z
#
# Youngs Moduli (GPa) = 87.83123 95.32757 100.75540
#
# Poissons Ratio (x) = 0.13851 0.04693
# Poissons Ratio (y) = 0.12762 0.00281
# Poissons Ratio (z) = 0.04091 0.00266
#
# Static dielectric constant tensor:
#      x y z
#    x 1.945810 0.000000 0.000000 
#    y 0.000000 1.094040 0.000000 
#    z 0.000000 0.000000 1.850550 
# 
# From -- ./inp_files/4627.got.cif
#   From: 2010.05.17/outbox.cif.g08.bks.cpg/sg21_3_cif.got.tgz:4627.got - 2010.06.03 23:14:55.
