data_PCOD9322262
_publ_section_title
;
Structure prediction by ZEFSAII (Michael W. Deem and Ramdas Pophale) SiO2 
 PCOD9322262
Probable space group: C 2 2 21
;
_chemical_formula_sum "Si O2"
_cell_formula_units_Z 32
_cell_length_a 12.000000
_cell_length_b 9.000000
_cell_length_c 30.000000
_cell_angle_alpha 90.000000
_cell_angle_beta 90.000000
_cell_angle_gamma 90.000000
_cell_volume 3240.000000
_symmetry_space_group_name_H-M "C 2 2 21"
_symmetry_group_IT_number 20
_symmetry_cell_setting 'orthorhombic'
loop_
_space_group_symop_operation_xyz
x,y,z
-x,-y,1/2+z
x,-y,-z
-x,y,1/2-z
1/2+x,1/2+y,z
1/2-x,1/2-y,1/2+z
1/2+x,1/2-y,-z
1/2-x,1/2+y,1/2-z
loop_
_atom_site_type_symbol
_atom_site_label
_atom_site_fract_x
_atom_site_fract_y
_atom_site_fract_z
Si Si1 0.760983 0.370553 0.467085
Si Si2 0.044478 0.824129 0.416674
Si Si3 0.316297 0.377513 0.464137
Si Si4 0.852669 0.493292 0.886543
Si Si5 0.751543 0.555270 0.301760
Si Si6 0.780951 0.912405 0.295552
Si Si7 0.004948 0.951381 0.836069
Si Si8 0.902585 0.637637 0.625658
O O1 0.802944 0.500000 0.500000
O O2 0.636457 0.398863 0.448757
O O3 0.755264 0.233500 0.501615
O O4 0.837024 0.350453 0.422155
O O5 0.925233 0.801007 0.441450
O O6 0.110057 0.677263 0.398027
O O7 0.012816 0.936780 0.377308
O O8 0.357507 0.500000 0.500000
O O9 0.231639 0.442859 0.425622
O O10 0.791586 0.524636 0.838393
O O11 0.974434 0.570420 0.883991
O O12 0.783465 0.731244 0.297822
O O13 0.760548 0.473423 0.253050
O O14 0.620142 0.562919 0.315988
O O15 0.827203 0.463862 0.339179
O O16 0.905948 0.974003 0.302882
O O17 0.064952 0.798521 0.852928
#
# Coordination Sequence:
#
# PCOD9322262 Si02
#       8
#     8   8   8   8   8   8   8   8
#     4  12  27  42  72 107 146 197 253 304 373 448
#     4  12  25  46  75 104 150 198 251 308 376 445
#     4  12  26  48  73 108 149 197 255 310 373 446
#     4  12  27  47  75 108 152 197 249 312 377 450
#     4  12  28  51  77 113 152 195 251 313 380 457
#     4  12  27  51  79 111 153 195 249 312 381 455
#     4  12  25  49  80 109 148 199 250 309 378 449
#     4  12  27  49  77 108 154 199 250 313 380 445
#
# _framework density 9.8765429999999999
#
# number of rings (size 3 to 8) (size 9 to 14) (size 15 to 20)
#    0.000    0.000    5.000    4.500    7.000    1.000 
#    2.250    0.000    0.000    0.000    0.000    0.000 
#    0.000    0.000    0.000    0.000    0.000    0.000 
#
# Total GULP energy -178718.385577 kJ/mol
# GULP energy per Si atom -5584.949549 kJ/mol
# Density = 0.985406 g / cm^3
# Si number density = 9.876543 Si / 1000 Ang^3
#
#
#
# Elastic Constant Matrix: (Units=GPa)
#
#
# Indices 1 2 3 4 5 6 
#
# 1 148.3808 30.9882 52.1659 0.0000 0.0000 0.0000
# 2 30.9882 133.0153 55.2836 0.0000 0.0000 0.0000
# 3 52.1659 55.2836 165.6713 0.0000 0.0000 0.0000
# 4 0.0000 0.0000 0.0000 43.1725 0.0000 0.0000
# 5 0.0000 0.0000 0.0000 0.0000 46.3236 0.0000
# 6 0.0000 0.0000 0.0000 0.0000 0.0000 45.3169
#
#
#
# Elastic Compliance Matrix: (Units=1/GPa)
#
#
# Indices 1 2 3 4 5 6 
#
# 1 0.007672 -0.000909 -0.002112 0.000000 0.000000 0.000000
# 2 -0.000909 0.008836 -0.002662 0.000000 0.000000 0.000000
# 3 -0.002112 -0.002662 0.007590 0.000000 0.000000 0.000000
# 4 0.000000 0.000000 0.000000 0.023163 0.000000 0.000000
# 5 0.000000 0.000000 0.000000 0.000000 0.021587 0.000000
# 6 0.000000 0.000000 0.000000 0.000000 0.000000 0.022067
#
#
# Mechanical properties :
#
#
# Convention : Reuss Voigt Hill
#
# Bulk Modulus (GPa) = 78.55525 80.43809 79.49667
# Shear Modulus (GPa) = 46.93697 47.53793 47.23745
#
# Velocity S-wave (km/s) = 4.87990 4.91104 4.89550
# Velocity P-wave (km/s) = 8.46204 8.54213 8.50218
#
# Compressibility (1/GPa) = 0.01272989
#
# Stress axis : x y z
#
# Youngs Moduli (GPa) = 130.34521 113.16975 131.76057
#
# Poissons Ratio (x) = 0.10292 0.27831
# Poissons Ratio (y) = 0.11854 0.35078
# Poissons Ratio (z) = 0.27532 0.30129
#
# Static dielectric constant tensor:
#      x y z
#    x 1.688950 0.000000 0.000000 
#    y 0.000000 1.775260 0.000000 
#    z 0.000000 0.000000 1.690190 
# 
# From -- ./inp_files/31191.got.cif
#   From: 2010.05.17/outbox.ucp.g08.bks.cvg/sg20_16_cif.got.tgz:31191.got - 2010.06.11 15:13:06.
