data_PCOD9322912
_publ_section_title
;
Structure prediction by ZEFSAII (Michael W. Deem and Ramdas Pophale) SiO2 
 PCOD9322912
Probable space group: C 2 2 2
;
_chemical_formula_sum "Si O2"
_cell_formula_units_Z 26
_cell_length_a 13.599944
_cell_length_b 10.935625
_cell_length_c 7.223167
_cell_angle_alpha 90.000000
_cell_angle_beta 90.000000
_cell_angle_gamma 90.000000
_cell_volume 1074.257477
_symmetry_space_group_name_H-M "C 2 2 2"
_symmetry_group_IT_number 21
_symmetry_cell_setting 'orthorhombic'
loop_
_space_group_symop_operation_xyz
x,y,z
-x,-y,z
x,-y,-z
-x,y,-z
1/2+x,1/2+y,z
1/2-x,1/2-y,z
1/2+x,1/2-y,-z
1/2-x,1/2+y,-z
loop_
_atom_site_type_symbol
_atom_site_label
_atom_site_fract_x
_atom_site_fract_y
_atom_site_fract_z
Si Si1 0.155438 0.832286 0.165057
Si Si2 0.532391 0.818002 0.306199
Si Si3 0.000000 0.500000 0.000000
Si Si4 0.604815 0.427054 0.754348
O O1 0.250000 0.750000 0.158046
O O2 0.064242 0.750865 0.229603
O O3 0.174698 0.957390 0.280635
O O4 0.125125 0.878929 0.961112
O O5 0.500000 0.873610 0.500000
O O6 0.603674 0.702083 0.350634
O O7 0.560271 0.913358 0.143932
O O8 0.500000 0.500000 0.737706
#
# Coordination Sequence:
#
# PCOD9322912 Si02
#       4
#     8   8   2   8
#     4  10  19  35  63  96 129 163 210 274 326 374
#     4  11  22  40  69  91 124 174 222 261 321 396
#     4  12  22  40  66  94 120 168 224 282 304 386
#     4   9  18  39  65  91 124 176 222 252 319 399
#
# _framework density 24.202764999999999
#
# number of rings (size 3 to 8) (size 9 to 14) (size 15 to 20)
#    0.000    1.846    3.077    6.000    0.000    8.000 
#    0.000    1.538    6.769    0.000    0.000    0.000 
#    0.000    0.000    0.000    0.000    0.000    0.000 
#
# Total GULP energy -72452.143557 kJ/mol
# GULP energy per Si atom -5573.241812 kJ/mol
# Density = 2.414768 g / cm^3
# Si number density = 24.202765 Si / 1000 Ang^3
#
#
#
# Elastic Constant Matrix: (Units=GPa)
#
#
# Indices 1 2 3 4 5 6 
#
# 1 23.6513 24.5596 -8.7629 0.0000 0.0000 0.0000
# 2 24.5596 202.0116 62.4494 0.0000 0.0000 0.0000
# 3 -8.7629 62.4494 111.8949 0.0000 0.0000 0.0000
# 4 0.0000 0.0000 0.0000 31.2641 0.0000 0.0000
# 5 0.0000 0.0000 0.0000 0.0000 -4.6522 0.0000
# 6 0.0000 0.0000 0.0000 0.0000 0.0000 18.6569
#
#
#
# Elastic Compliance Matrix: (Units=1/GPa)
#
#
# Indices 1 2 3 4 5 6 
#
# 1 0.056254 -0.009911 0.009937 0.000000 0.000000 0.000000
# 2 -0.009911 0.007728 -0.005089 0.000000 0.000000 0.000000
# 3 0.009937 -0.005089 0.012556 0.000000 0.000000 0.000000
# 4 0.000000 0.000000 0.000000 0.031986 0.000000 0.000000
# 5 0.000000 0.000000 0.000000 0.000000 -0.214954 0.000000
# 6 0.000000 0.000000 0.000000 0.000000 0.000000 0.053599
#
#
# Mechanical properties :
#
#
# Convention : Reuss Voigt Hill
#
# Bulk Modulus (GPa) = 15.05775 54.89444 34.97610
# Shear Modulus (GPa) = -243.11380 26.34123 -108.38629
#
# Velocity S-wave (km/s) = -10.03329 3.30260 -6.69924
# Velocity P-wave (km/s) = 11.31315 6.10518 6.73477
#
# Compressibility (1/GPa) = 0.06641098
#
# Stress axis : x y z
#
# Youngs Moduli (GPa) = 17.77649 129.39143 79.64559
#
# Poissons Ratio (x) = 1.28239 -0.79142
# Poissons Ratio (y) = 0.17618 0.40536
# Poissons Ratio (z) = -0.17664 0.65854
#
# Static dielectric constant tensor:
#      x y z
#    x 1.975110 0.000000 0.000000 
#    y 0.000000 2.088120 0.000000 
#    z 0.000000 0.000000 2.013860 
# 
# From -- ./inp_files/13909.got.cif
#   From: 2010.05.17/outbox.cif.g08.bks.cpg/sg21_7_cif.got.tgz:13909.got - 2010.06.03 23:14:55.
