data_PCOD9322640
_publ_section_title
;
Structure prediction by ZEFSAII (Michael W. Deem and Ramdas Pophale) SiO2 
 PCOD9322640
Probable space group: C 2 2 2
;
_chemical_formula_sum "Si O2"
_cell_formula_units_Z 48
_cell_length_a 8.192360
_cell_length_b 12.966470
_cell_length_c 18.991916
_cell_angle_alpha 90.000000
_cell_angle_beta 90.000000
_cell_angle_gamma 90.000000
_cell_volume 2017.435082
_symmetry_space_group_name_H-M "C 2 2 2"
_symmetry_group_IT_number 21
_symmetry_cell_setting 'orthorhombic'
loop_
_space_group_symop_operation_xyz
x,y,z
-x,-y,z
x,-y,-z
-x,y,-z
1/2+x,1/2+y,z
1/2-x,1/2-y,z
1/2+x,1/2-y,-z
1/2-x,1/2+y,-z
loop_
_atom_site_type_symbol
_atom_site_label
_atom_site_fract_x
_atom_site_fract_y
_atom_site_fract_z
Si Si1 0.180307 0.452405 0.402902
Si Si2 0.532459 0.673120 0.921156
Si Si3 0.701999 0.070680 0.257432
Si Si4 0.500000 0.000000 0.000000
Si Si5 0.251237 0.988870 0.892016
Si Si6 0.485309 0.736530 0.230350
Si Si7 0.500000 0.500000 0.500000
Si Si8 0.750000 0.750000 0.334480
O O1 0.214840 0.514575 0.331114
O O2 0.354449 0.454904 0.447194
O O3 0.160663 0.332388 0.383816
O O4 0.000000 0.500000 0.426435
O O5 0.699562 0.605334 0.916890
O O6 0.399160 0.586200 0.902855
O O7 0.510919 0.746381 0.854139
O O8 0.500000 0.711150 0.000000
O O9 0.700382 0.998828 0.188871
O O10 0.550707 0.149103 0.257966
O O11 0.847813 0.151347 0.244271
O O12 0.384779 0.055783 0.055458
O O13 0.631123 0.695816 0.278309
#
# Coordination Sequence:
#
# PCOD9322640 Si02
#       8
#     8   8   8   2   8   8   2   4
#     4  12  26  52  83 118 166 201 256 313 384 466
#     4  10  18  38  55  81 125 192 238 313 382 463
#     4  10  22  44  69 100 143 200 244 324 367 460
#     4  12  20  30  52  92 128 168 240 330 376 438
#     4  10  20  33  59  88 129 179 255 306 388 442
#     4  10  22  39  68 102 141 189 265 305 385 448
#     4  12  30  56  84 126 162 206 238 300 400 458
#     4  12  24  46  78 124 144 204 252 312 370 460
#
# _framework density 23.792586
#
# number of rings (size 3 to 8) (size 9 to 14) (size 15 to 20)
#    0.000    1.333    3.333    2.750    1.167    4.000 
#    4.500    1.667    0.000    0.000    0.000    0.000 
#    0.000    0.000    0.000    0.000    0.000    0.000 
#
# Total GULP energy -133755.525778 kJ/mol
# GULP energy per Si atom -5573.146907 kJ/mol
# Density = 2.373843 g / cm^3
# Si number density = 23.792586 Si / 1000 Ang^3
#
#
#
# Elastic Constant Matrix: (Units=GPa)
#
#
# Indices 1 2 3 4 5 6 
#
# 1 126.4105 21.1751 34.3049 0.0000 0.0000 0.0000
# 2 21.1751 72.9006 43.3103 0.0000 0.0000 0.0000
# 3 34.3049 43.3103 152.3479 0.0000 0.0000 0.0000
# 4 0.0000 0.0000 0.0000 -41.0225 0.0000 0.0000
# 5 0.0000 0.0000 0.0000 0.0000 57.8295 0.0000
# 6 0.0000 0.0000 0.0000 0.0000 0.0000 27.8097
#
#
#
# Elastic Compliance Matrix: (Units=1/GPa)
#
#
# Indices 1 2 3 4 5 6 
#
# 1 0.008581 -0.001618 -0.001472 0.000000 0.000000 0.000000
# 2 -0.001618 0.016810 -0.004415 0.000000 0.000000 0.000000
# 3 -0.001472 -0.004415 0.008150 0.000000 0.000000 0.000000
# 4 0.000000 0.000000 0.000000 -0.024377 0.000000 0.000000
# 5 0.000000 0.000000 0.000000 0.000000 0.017292 0.000000
# 6 0.000000 0.000000 0.000000 0.000000 0.000000 0.035959
#
#
# Mechanical properties :
#
#
# Convention : Reuss Voigt Hill
#
# Bulk Modulus (GPa) = 53.96008 61.02662 57.49335
# Shear Modulus (GPa) = 59.80680 25.78126 42.79403
#
# Velocity S-wave (km/s) = 5.01909 3.29535 4.24563
# Velocity P-wave (km/s) = 7.50447 6.33911 6.94627
#
# Compressibility (1/GPa) = 0.01853222
#
# Stress axis : x y z
#
# Youngs Moduli (GPa) = 116.53240 59.48872 122.69263
#
# Poissons Ratio (x) = 0.09624 0.18065
# Poissons Ratio (y) = 0.18853 0.54163
# Poissons Ratio (z) = 0.17158 0.26261
#
# Static dielectric constant tensor:
#      x y z
#    x 2.088640 0.000000 0.000000 
#    y 0.000000 1.903340 0.000000 
#    z 0.000000 0.000000 1.896100 
# 
# From -- ./inp_files/35737.got.cif
#   From: 2010.05.17/outbox.cif.g08.bks.cpg/sg21_18_cif.got.tgz:35737.got - 2010.06.03 23:14:55.
