data_PCOD9322440
_publ_section_title
;
Structure prediction by ZEFSAII (Michael W. Deem and Ramdas Pophale) SiO2 
 PCOD9322440
Probable space group: C 2 2 2
;
_chemical_formula_sum "Si O2"
_cell_formula_units_Z 54
_cell_length_a 5.556210
_cell_length_b 37.755574
_cell_length_c 14.072444
_cell_angle_alpha 90.000000
_cell_angle_beta 90.000000
_cell_angle_gamma 90.000000
_cell_volume 2952.087719
_symmetry_space_group_name_H-M "C 2 2 2"
_symmetry_group_IT_number 21
_symmetry_cell_setting 'orthorhombic'
loop_
_space_group_symop_operation_xyz
x,y,z
-x,-y,z
x,-y,-z
-x,y,-z
1/2+x,1/2+y,z
1/2-x,1/2-y,z
1/2+x,1/2-y,-z
1/2-x,1/2+y,-z
loop_
_atom_site_type_symbol
_atom_site_label
_atom_site_fract_x
_atom_site_fract_y
_atom_site_fract_z
Si Si1 0.000000 0.500000 0.000000
Si Si2 0.262398 0.177270 0.327825
Si Si3 0.250000 0.250000 0.442066
Si Si4 0.753697 0.543045 0.162642
Si Si5 0.754530 0.074696 0.220837
Si Si6 0.250080 0.379958 0.497617
Si Si7 0.736611 0.346612 0.296176
Si Si8 0.250748 0.490563 0.651690
O O1 0.175274 0.522349 0.932079
O O2 0.274891 0.214336 0.381489
O O3 0.253334 0.144751 0.404244
O O4 0.509898 0.171365 0.271404
O O5 0.006655 0.174653 0.275412
O O6 0.500000 0.253375 0.500000
O O7 0.491720 0.561581 0.163084
O O8 0.750523 0.515045 0.250820
O O9 0.987993 0.568021 0.178483
O O10 0.782267 0.115200 0.248434
O O11 0.755980 0.049905 0.314272
O O12 0.500000 0.400627 0.500000
O O13 0.253382 0.353980 0.589275
O O14 0.000000 0.400623 0.500000
O O15 0.500000 0.500000 0.603567
O O16 0.000000 0.500000 0.604445
#
# Coordination Sequence:
#
# PCOD9322440 Si02
#       8
#     2   8   4   8   8   8   8   8
#     4  12  20  34  52  70 100 134 146 202 248 258
#     4  10  19  30  43  67  89 121 161 196 237 285
#     4  12  20  30  48  68  98 130 156 204 250 284
#     4  10  20  30  46  67  91 120 156 192 221 286
#     4  10  18  31  42  64  89 118 159 193 228 272
#     4   8  14  25  38  56  80 103 141 185 221 266
#     4  10  18  29  45  59  89 123 153 198 237 272
#     4   8  14  27  39  57  82 105 136 190 206 257
#
# _framework density 18.292138999999999
#
# number of rings (size 3 to 8) (size 9 to 14) (size 15 to 20)
#    0.000    2.370    2.222    4.444    0.000    1.185 
#    0.000    0.000    0.000    0.000    0.000    0.000 
#    0.000  288.000    0.000    0.000    0.000   41.481 
#
# Total GULP energy -150433.716683 kJ/mol
# GULP energy per Si atom -5571.619136 kJ/mol
# Density = 1.825050 g / cm^3
# Si number density = 18.292139 Si / 1000 Ang^3
#
#
#
# Elastic Constant Matrix: (Units=GPa)
#
#
# Indices 1 2 3 4 5 6 
#
# 1 228.3559 46.8875 16.6585 0.0000 0.0000 0.0000
# 2 46.8875 76.5932 11.2792 0.0000 0.0000 0.0000
# 3 16.6585 11.2792 34.0654 0.0000 0.0000 0.0000
# 4 0.0000 0.0000 0.0000 15.6469 0.0000 0.0000
# 5 0.0000 0.0000 0.0000 0.0000 -21.2679 0.0000
# 6 0.0000 0.0000 0.0000 0.0000 0.0000 22.4927
#
#
#
# Elastic Compliance Matrix: (Units=1/GPa)
#
#
# Indices 1 2 3 4 5 6 
#
# 1 0.005083 -0.002887 -0.001530 0.000000 0.000000 0.000000
# 2 -0.002887 0.015364 -0.003676 0.000000 0.000000 0.000000
# 3 -0.001530 -0.003676 0.031321 0.000000 0.000000 0.000000
# 4 0.000000 0.000000 0.000000 0.063910 0.000000 0.000000
# 5 0.000000 0.000000 0.000000 0.000000 -0.047019 0.000000
# 6 0.000000 0.000000 0.000000 0.000000 0.000000 0.044459
#
#
# Mechanical properties :
#
#
# Convention : Reuss Voigt Hill
#
# Bulk Modulus (GPa) = 28.10273 54.29610 41.19941
# Shear Modulus (GPa) = 35.41970 20.98695 28.20332
#
# Velocity S-wave (km/s) = 4.40515 3.39089 3.93087
# Velocity P-wave (km/s) = 6.42421 6.71402 6.57071
#
# Compressibility (1/GPa) = 0.03558373
#
# Stress axis : x y z
#
# Youngs Moduli (GPa) = 196.71718 65.08590 31.92790
#
# Poissons Ratio (x) = 0.18787 0.04885
# Poissons Ratio (y) = 0.56784 0.11735
# Poissons Ratio (z) = 0.30100 0.23923
#
# Static dielectric constant tensor:
#      x y z
#    x 1.779220 0.000000 0.000000 
#    y 0.000000 1.590090 0.000000 
#    z 0.000000 0.000000 1.620860 
# 
# From -- ./inp_files/29611.got.cif
#   From: 2010.05.17/outbox.cif.g08.bks.cpg/sg21_15_cif.got.tgz:29611.got - 2010.06.03 23:14:55.
