data_PCOD9322752
_publ_section_title
;
Structure prediction by ZEFSAII (Michael W. Deem and Ramdas Pophale) SiO2 
 PCOD9322752
Probable space group: C 2 2 2
;
_chemical_formula_sum "Si O2"
_cell_formula_units_Z 52
_cell_length_a 9.339891
_cell_length_b 24.117001
_cell_length_c 11.319280
_cell_angle_alpha 90.000000
_cell_angle_beta 90.000000
_cell_angle_gamma 90.000000
_cell_volume 2549.669638
_symmetry_space_group_name_H-M "C 2 2 2"
_symmetry_group_IT_number 21
_symmetry_cell_setting 'orthorhombic'
loop_
_space_group_symop_operation_xyz
x,y,z
-x,-y,z
x,-y,-z
-x,y,-z
1/2+x,1/2+y,z
1/2-x,1/2-y,z
1/2+x,1/2-y,-z
1/2-x,1/2+y,-z
loop_
_atom_site_type_symbol
_atom_site_label
_atom_site_fract_x
_atom_site_fract_y
_atom_site_fract_z
Si Si1 0.470622 0.602827 0.634542
Si Si2 0.592159 0.775333 0.120088
Si Si3 0.202034 0.466995 0.316178
Si Si4 0.088978 0.229702 0.378855
Si Si5 0.000000 0.596732 0.500000
Si Si6 0.970868 0.402012 0.870897
Si Si7 0.791558 0.401207 0.309445
O O1 0.500000 0.584934 0.500000
O O2 0.361021 0.558271 0.685864
O O3 0.400829 0.663215 0.632899
O O4 0.625507 0.612103 0.692087
O O5 0.750000 0.750000 0.106165
O O6 0.537146 0.753875 0.250306
O O7 0.604138 0.842042 0.127650
O O8 0.500000 0.763113 0.000000
O O9 0.119806 0.446454 0.200743
O O10 0.202428 0.532510 0.331441
O O11 0.107250 0.438832 0.418851
O O12 0.250000 0.250000 0.395744
O O13 0.000000 0.241271 0.500000
O O14 0.110367 0.626934 0.411540
O O15 0.123174 0.390918 0.809369
O O16 0.000000 0.422708 0.000000
#
# Coordination Sequence:
#
# PCOD9322752 Si02
#       7
#     8   8   8   8   4   8   8
#     4  11  23  38  59  93 130 163 199 256 318 371
#     4  10  22  42  66  91 120 160 208 268 322 376
#     4  11  20  36  60  88 126 161 202 249 297 363
#     4  10  23  42  61  90 126 163 208 259 321 377
#     4  10  19  32  54  86 116 154 198 238 290 352
#     4  10  23  42  62  88 121 164 213 257 306 366
#     4  11  22  36  59  90 122 163 203 247 302 364
#
# _framework density 20.3948
#
# number of rings (size 3 to 8) (size 9 to 14) (size 15 to 20)
#    0.000    1.538    1.538    5.077    0.000    7.385 
#    6.923    0.769    0.000    1.846    0.000    0.000 
#    0.000    0.000    0.000    0.000    0.000    0.000 
#
# Total GULP energy -145168.363530 kJ/mol
# GULP energy per Si atom -5583.398597 kJ/mol
# Density = 2.034838 g / cm^3
# Si number density = 20.394800 Si / 1000 Ang^3
#
#
#
# Elastic Constant Matrix: (Units=GPa)
#
#
# Indices 1 2 3 4 5 6 
#
# 1 136.6230 22.5883 32.7017 0.0000 0.0000 0.0000
# 2 22.5883 42.3914 9.3679 0.0000 0.0000 0.0000
# 3 32.7017 9.3679 138.2325 0.0000 0.0000 0.0000
# 4 0.0000 0.0000 0.0000 30.4082 0.0000 0.0000
# 5 0.0000 0.0000 0.0000 0.0000 14.3936 0.0000
# 6 0.0000 0.0000 0.0000 0.0000 0.0000 18.5919
#
#
#
# Elastic Compliance Matrix: (Units=1/GPa)
#
#
# Indices 1 2 3 4 5 6 
#
# 1 0.008407 -0.004102 -0.001711 0.000000 0.000000 0.000000
# 2 -0.004102 0.025949 -0.000788 0.000000 0.000000 0.000000
# 3 -0.001711 -0.000788 0.007692 0.000000 0.000000 0.000000
# 4 0.000000 0.000000 0.000000 0.032886 0.000000 0.000000
# 5 0.000000 0.000000 0.000000 0.000000 0.069476 0.000000
# 6 0.000000 0.000000 0.000000 0.000000 0.000000 0.053787
#
#
# Mechanical properties :
#
#
# Convention : Reuss Voigt Hill
#
# Bulk Modulus (GPa) = 34.66527 49.61807 42.14167
# Shear Modulus (GPa) = 22.62295 29.51799 26.07047
#
# Velocity S-wave (km/s) = 3.33415 3.80851 3.57920
# Velocity P-wave (km/s) = 5.64412 6.61220 6.14725
#
# Compressibility (1/GPa) = 0.02884732
#
# Stress axis : x y z
#
# Youngs Moduli (GPa) = 118.94764 38.53646 129.99921
#
# Poissons Ratio (x) = 0.15806 0.22241
# Poissons Ratio (y) = 0.48788 0.10247
# Poissons Ratio (z) = 0.20351 0.03038
#
# Static dielectric constant tensor:
#      x y z
#    x 1.679030 0.000000 0.000000 
#    y 0.000000 1.732250 0.000000 
#    z 0.000000 0.000000 1.761320 
# 
# From -- ./inp_files/22945.got.cif
#   From: 2010.05.17/outbox.cif.g08.bks.cpg/sg21_12_cif.got.tgz:22945.got - 2010.06.03 23:14:55.
