data_PCOD9322254
_publ_section_title
;
Structure prediction by ZEFSAII (Michael W. Deem and Ramdas Pophale) SiO2 
 PCOD9322254
Probable space group: C 2 2 21
;
_chemical_formula_sum "Si O2"
_cell_formula_units_Z 32
_cell_length_a 12.000000
_cell_length_b 15.000000
_cell_length_c 18.000000
_cell_angle_alpha 90.000000
_cell_angle_beta 90.000000
_cell_angle_gamma 90.000000
_cell_volume 3240.000000
_symmetry_space_group_name_H-M "C 2 2 21"
_symmetry_group_IT_number 20
_symmetry_cell_setting 'orthorhombic'
loop_
_space_group_symop_operation_xyz
x,y,z
-x,-y,1/2+z
x,-y,-z
-x,y,1/2-z
1/2+x,1/2+y,z
1/2-x,1/2-y,1/2+z
1/2+x,1/2-y,-z
1/2-x,1/2+y,1/2-z
loop_
_atom_site_type_symbol
_atom_site_label
_atom_site_fract_x
_atom_site_fract_y
_atom_site_fract_z
Si Si1 0.379071 0.011449 0.219930
Si Si2 0.401337 0.168490 0.554821
Si Si3 0.633101 0.922741 0.442312
Si Si4 0.435721 0.323570 0.671067
Si Si5 0.281895 0.403261 0.169798
Si Si6 0.420076 0.451278 0.920055
Si Si7 0.301868 0.210529 0.242298
Si Si8 0.245402 0.224529 0.419198
O O1 0.500000 0.982921 0.250000
O O2 0.373249 0.119888 0.228140
O O3 0.365711 0.972179 0.137331
O O4 0.286377 0.961435 0.269904
O O5 0.505121 0.104001 0.537802
O O6 0.449422 0.243580 0.611553
O O7 0.304159 0.122678 0.603709
O O8 0.344153 0.206683 0.479573
O O9 0.695706 0.824804 0.437038
O O10 0.673404 0.000000 0.500000
O O11 0.500000 0.313562 0.750000
O O12 0.475103 0.410396 0.625400
O O13 0.309830 0.318510 0.698755
O O14 0.368491 0.471600 0.132413
O O15 0.327289 0.309574 0.206531
O O16 0.338342 0.362682 0.927737
O O17 0.439862 0.500000 0.000000
O O18 0.282025 0.222185 0.331606
#
# Coordination Sequence:
#
# PCOD9322254 Si02
#       8
#     8   8   8   8   8   8   8   8
#     4  12  25  44  71 106 136 181 236 292 354 417
#     4  11  25  41  71 103 135 181 233 292 349 417
#     4  12  28  43  67 103 144 182 229 289 361 418
#     4  11  22  46  74  97 133 186 238 280 343 427
#     4  11  23  42  73 101 133 186 235 289 343 422
#     4  12  24  43  72 104 138 183 240 287 353 422
#     4  11  25  45  73 101 138 180 238 296 345 413
#     4  12  24  47  70 100 143 184 237 288 349 426
#
# _framework density 9.8765429999999999
#
# number of rings (size 3 to 8) (size 9 to 14) (size 15 to 20)
#    0.000    0.500    7.500    0.000    8.750    0.000 
#    2.250    1.875    0.000    0.000    0.000    0.000 
#    0.000    0.000    0.000    0.000    0.000    0.000 
#
# Total GULP energy -178604.860465 kJ/mol
# GULP energy per Si atom -5581.401890 kJ/mol
# Density = 0.985406 g / cm^3
# Si number density = 9.876543 Si / 1000 Ang^3
#
#
#
# Elastic Constant Matrix: (Units=GPa)
#
#
# Indices 1 2 3 4 5 6 
#
# 1 38.8480 31.9723 38.3765 0.0000 0.0000 0.0000
# 2 31.9723 166.6820 64.7556 0.0000 0.0000 0.0000
# 3 38.3765 64.7556 160.7618 0.0000 0.0000 0.0000
# 4 0.0000 0.0000 0.0000 47.1781 0.0000 0.0000
# 5 0.0000 0.0000 0.0000 0.0000 26.9771 0.0000
# 6 0.0000 0.0000 0.0000 0.0000 0.0000 39.8356
#
#
#
# Elastic Compliance Matrix: (Units=1/GPa)
#
#
# Indices 1 2 3 4 5 6 
#
# 1 0.036040 -0.004233 -0.006898 0.000000 0.000000 0.000000
# 2 -0.004233 0.007610 -0.002055 0.000000 0.000000 0.000000
# 3 -0.006898 -0.002055 0.008695 0.000000 0.000000 0.000000
# 4 0.000000 0.000000 0.000000 0.021196 0.000000 0.000000
# 5 0.000000 0.000000 0.000000 0.000000 0.037068 0.000000
# 6 0.000000 0.000000 0.000000 0.000000 0.000000 0.025103
#
#
# Mechanical properties :
#
#
# Convention : Reuss Voigt Hill
#
# Bulk Modulus (GPa) = 38.50271 70.72229 54.61250
# Shear Modulus (GPa) = 29.28408 38.21067 33.74737
#
# Velocity S-wave (km/s) = 3.85451 4.40297 4.13784
# Velocity P-wave (km/s) = 6.27248 7.85679 7.10890
#
# Compressibility (1/GPa) = 0.02597220
#
# Stress axis : x y z
#
# Youngs Moduli (GPa) = 27.74718 131.41179 115.01207
#
# Poissons Ratio (x) = 0.55628 0.79337
# Poissons Ratio (y) = 0.11746 0.23632
# Poissons Ratio (z) = 0.19141 0.27001
#
# Static dielectric constant tensor:
#      x y z
#    x 1.749990 0.000000 0.000000 
#    y 0.000000 1.707660 0.000000 
#    z 0.000000 0.000000 1.679320 
# 
# From -- ./inp_files/24440.got.cif
#   From: 2010.05.17/outbox.ucp.g08.bks.cvg/sg20_13_cif.got.tgz:24440.got - 2010.06.11 15:13:06.
