data_PCOD9322050
_publ_section_title
;
Structure prediction by ZEFSAII (Michael W. Deem and Ramdas Pophale) SiO2 
 PCOD9322050
Probable space group: C 2 2 21
;
_chemical_formula_sum "Si O2"
_cell_formula_units_Z 40
_cell_length_a 23.237385
_cell_length_b 9.139695
_cell_length_c 8.219899
_cell_angle_alpha 90.000000
_cell_angle_beta 90.000000
_cell_angle_gamma 90.000000
_cell_volume 1745.763616
_symmetry_space_group_name_H-M "C 2 2 21"
_symmetry_group_IT_number 20
_symmetry_cell_setting 'orthorhombic'
loop_
_space_group_symop_operation_xyz
x,y,z
-x,-y,1/2+z
x,-y,-z
-x,y,1/2-z
1/2+x,1/2+y,z
1/2-x,1/2-y,1/2+z
1/2+x,1/2-y,-z
1/2-x,1/2+y,1/2-z
loop_
_atom_site_type_symbol
_atom_site_label
_atom_site_fract_x
_atom_site_fract_y
_atom_site_fract_z
Si Si1 0.920088 0.169827 0.020289
Si Si2 0.479930 0.845064 0.561910
Si Si3 0.280273 0.333288 0.491049
Si Si4 0.371262 0.845076 0.324941
Si Si5 0.831867 0.662170 0.189005
O O1 0.898908 0.247518 0.183905
O O2 0.887070 0.251447 0.874137
O O3 0.987288 0.205763 0.009454
O O4 0.907719 0.000000 0.000000
O O5 0.500000 0.845388 0.750000
O O6 0.416403 0.844867 0.478006
O O7 0.505356 0.000000 0.500000
O O8 0.302123 0.500000 0.500000
O O9 0.313563 0.234317 0.620113
O O10 0.213340 0.342355 0.539435
O O11 0.297626 0.254461 0.324549
O O12 0.353288 0.005347 0.257272
#
# Coordination Sequence:
#
# PCOD9322050 Si02
#       5
#     8   8   8   8   8
#     4  12  26  44  70 104 143 190 250 323 393 466
#     4  12  25  45  72 104 143 196 256 319 393 477
#     4  12  25  42  68 103 142 187 246 317 381 456
#     4  12  26  47  73 105 147 201 258 319 394 481
#     4  12  25  46  72 104 147 200 256 314 394 480
#
# _framework density 22.912607999999999
#
# number of rings (size 3 to 8) (size 9 to 14) (size 15 to 20)
#    0.000    0.000    0.000   12.600    0.000    4.000 
#    0.000    0.000    0.000    0.000    0.000    0.000 
#    0.000    0.000    0.000    0.000    0.000    0.000 
#
# Total GULP energy -111801.183713 kJ/mol
# GULP energy per Si atom -5590.059186 kJ/mol
# Density = 2.286046 g / cm^3
# Si number density = 22.912608 Si / 1000 Ang^3
#
#
#
# Elastic Constant Matrix: (Units=GPa)
#
#
# Indices 1 2 3 4 5 6 
#
# 1 145.7922 61.3924 49.8312 0.0000 0.0000 0.0000
# 2 61.3924 178.7049 42.4340 0.0000 0.0000 0.0000
# 3 49.8312 42.4340 113.6358 0.0000 0.0000 0.0000
# 4 0.0000 0.0000 0.0000 38.4722 0.0000 0.0000
# 5 0.0000 0.0000 0.0000 0.0000 25.4844 0.0000
# 6 0.0000 0.0000 0.0000 0.0000 0.0000 36.1529
#
#
#
# Elastic Compliance Matrix: (Units=1/GPa)
#
#
# Indices 1 2 3 4 5 6 
#
# 1 0.008873 -0.002331 -0.003021 0.000000 0.000000 0.000000
# 2 -0.002331 0.006753 -0.001499 0.000000 0.000000 0.000000
# 3 -0.003021 -0.001499 0.010684 0.000000 0.000000 0.000000
# 4 0.000000 0.000000 0.000000 0.025993 0.000000 0.000000
# 5 0.000000 0.000000 0.000000 0.000000 0.039240 0.000000
# 6 0.000000 0.000000 0.000000 0.000000 0.000000 0.027660
#
#
# Mechanical properties :
#
#
# Convention : Reuss Voigt Hill
#
# Bulk Modulus (GPa) = 79.31266 82.82755 81.07011
# Shear Modulus (GPa) = 36.46770 38.98693 37.72732
#
# Velocity S-wave (km/s) = 3.99381 4.12946 4.06220
# Velocity P-wave (km/s) = 7.48050 7.67883 7.58031
#
# Compressibility (1/GPa) = 0.01260833
#
# Stress axis : x y z
#
# Youngs Moduli (GPa) = 112.70068 148.08998 93.59353
#
# Poissons Ratio (x) = 0.34520 0.28270
# Poissons Ratio (y) = 0.26271 0.14033
# Poissons Ratio (z) = 0.34042 0.22204
#
# Static dielectric constant tensor:
#      x y z
#    x 1.864790 0.000000 0.000000 
#    y 0.000000 1.769570 0.000000 
#    z 0.000000 0.000000 1.949150 
# 
# From -- ./inp_files/10499.got.cif
#   From: 2010.05.17/outbox.cif.g08.bks.cpg/sg20_6_cif.got.tgz:10499.got - 2010.06.03 22:52:26.
