data_PCOD9322645
_publ_section_title
;
Structure prediction by ZEFSAII (Michael W. Deem and Ramdas Pophale) SiO2 
 PCOD9322645
Probable space group: C 2 2 2
;
_chemical_formula_sum "Si O2"
_cell_formula_units_Z 60
_cell_length_a 19.552730
_cell_length_b 24.067873
_cell_length_c 5.504520
_cell_angle_alpha 90.000000
_cell_angle_beta 90.000000
_cell_angle_gamma 90.000000
_cell_volume 2590.386502
_symmetry_space_group_name_H-M "C 2 2 2"
_symmetry_group_IT_number 21
_symmetry_cell_setting 'orthorhombic'
loop_
_space_group_symop_operation_xyz
x,y,z
-x,-y,z
x,-y,-z
-x,y,-z
1/2+x,1/2+y,z
1/2-x,1/2-y,z
1/2+x,1/2-y,-z
1/2-x,1/2+y,-z
loop_
_atom_site_type_symbol
_atom_site_label
_atom_site_fract_x
_atom_site_fract_y
_atom_site_fract_z
Si Si1 0.106296 0.945409 0.394650
Si Si2 0.067005 0.172384 0.663417
Si Si3 0.348550 0.936306 0.513018
Si Si4 0.183641 0.217060 0.337264
Si Si5 0.582031 0.900617 0.976215
Si Si6 0.222754 0.896742 0.723993
Si Si7 0.705843 0.500000 0.000000
Si Si8 0.579866 0.776369 0.005949
O O1 0.064377 0.893526 0.287062
O O2 0.152182 0.920421 0.613516
O O3 0.070378 0.000000 0.500000
O O4 0.157936 0.969613 0.196237
O O5 0.138813 0.185245 0.533892
O O6 0.073233 0.216512 0.876136
O O7 0.000000 0.185805 0.500000
O O8 0.393007 0.930263 0.269050
O O9 0.281743 0.896561 0.520602
O O10 0.323931 0.000000 0.500000
O O11 0.389069 0.921126 0.762029
O O12 0.250000 0.250000 0.422871
O O13 0.210126 0.164906 0.173433
O O14 0.129121 0.259930 0.226738
O O15 0.607210 0.836681 0.927359
O O16 0.500000 0.905841 0.000000
O O17 0.246540 0.946933 0.898654
O O18 0.500000 0.790918 0.000000
#
# Coordination Sequence:
#
# PCOD9322645 Si02
#       8
#     8   8   8   8   8   8   4   8
#     4   9  20  38  61  97 132 182 230 296 353 427
#     4  11  23  41  71  95 138 185 237 291 362 441
#     4  12  26  46  73 105 142 189 236 296 372 447
#     4  11  24  44  65 102 138 180 237 302 358 427
#     4  11  28  46  73 103 141 186 244 302 363 440
#     4  10  23  38  66  97 137 176 235 284 364 428
#     4  10  18  38  64  89 139 174 226 288 360 424
#     4  11  24  44  71 100 138 192 241 293 372 445
#
# _framework density 23.162566999999999
#
# number of rings (size 3 to 8) (size 9 to 14) (size 15 to 20)
#    0.000    1.333    1.333    3.600    7.467    2.400 
#    2.400    0.000    0.000    0.800    0.000    0.000 
#    0.000    0.000    0.000    0.000    0.000    0.000 
#
# Total GULP energy -167015.203188 kJ/mol
# GULP energy per Si atom -5567.173440 kJ/mol
# Density = 2.310985 g / cm^3
# Si number density = 23.162567 Si / 1000 Ang^3
#
#
#
# Elastic Constant Matrix: (Units=GPa)
#
#
# Indices 1 2 3 4 5 6 
#
# 1 91.2510 19.9722 11.2051 0.0000 0.0000 0.0000
# 2 19.9722 97.6735 10.9292 0.0000 0.0000 0.0000
# 3 11.2051 10.9292 47.6175 0.0000 0.0000 0.0000
# 4 0.0000 0.0000 0.0000 19.4094 0.0000 0.0000
# 5 0.0000 0.0000 0.0000 0.0000 18.5834 0.0000
# 6 0.0000 0.0000 0.0000 0.0000 0.0000 36.3000
#
#
#
# Elastic Compliance Matrix: (Units=1/GPa)
#
#
# Indices 1 2 3 4 5 6 
#
# 1 0.011705 -0.002140 -0.002263 0.000000 0.000000 0.000000
# 2 -0.002140 0.010899 -0.001998 0.000000 0.000000 0.000000
# 3 -0.002263 -0.001998 0.021992 0.000000 0.000000 0.000000
# 4 0.000000 0.000000 0.000000 0.051522 0.000000 0.000000
# 5 0.000000 0.000000 0.000000 0.000000 0.053811 0.000000
# 6 0.000000 0.000000 0.000000 0.000000 0.000000 0.027548
#
#
# Mechanical properties :
#
#
# Convention : Reuss Voigt Hill
#
# Bulk Modulus (GPa) = 31.45291 35.63944 33.54618
# Shear Modulus (GPa) = 24.89072 27.82093 26.35583
#
# Velocity S-wave (km/s) = 3.28168 3.46947 3.37688
# Velocity P-wave (km/s) = 5.28847 5.60979 5.45150
#
# Compressibility (1/GPa) = 0.03179356
#
# Stress axis : x y z
#
# Youngs Moduli (GPa) = 85.43275 91.74826 45.47143
#
# Poissons Ratio (x) = 0.19636 0.10291
# Poissons Ratio (y) = 0.18284 0.09085
# Poissons Ratio (z) = 0.19335 0.18331
#
# Static dielectric constant tensor:
#      x y z
#    x 1.898730 0.000000 0.000000 
#    y 0.000000 1.967090 0.000000 
#    z 0.000000 0.000000 0.805450 
# 
# From -- ./inp_files/6130.got.cif
#   From: 2010.05.17/outbox.cif.g08.bks.cpg/sg21_4_cif.got.tgz:6130.got - 2010.06.03 23:14:55.
