data_PCOD9322230
_publ_section_title
;
Structure prediction by ZEFSAII (Michael W. Deem and Ramdas Pophale) SiO2 
 PCOD9322230
Probable space group: C 2 2 21
;
_chemical_formula_sum "Si O2"
_cell_formula_units_Z 24
_cell_length_a 9.000000
_cell_length_b 18.000000
_cell_length_c 15.000000
_cell_angle_alpha 90.000000
_cell_angle_beta 90.000000
_cell_angle_gamma 90.000000
_cell_volume 2430.000000
_symmetry_space_group_name_H-M "C 2 2 21"
_symmetry_group_IT_number 20
_symmetry_cell_setting 'orthorhombic'
loop_
_space_group_symop_operation_xyz
x,y,z
-x,-y,1/2+z
x,-y,-z
-x,y,1/2-z
1/2+x,1/2+y,z
1/2-x,1/2-y,1/2+z
1/2+x,1/2-y,-z
1/2-x,1/2+y,1/2-z
loop_
_atom_site_type_symbol
_atom_site_label
_atom_site_fract_x
_atom_site_fract_y
_atom_site_fract_z
Si Si1 0.149244 0.913288 0.301088
Si Si2 0.613235 0.196738 0.178984
Si Si3 0.630525 0.814842 0.313416
Si Si4 0.872603 0.150218 0.994215
Si Si5 0.145764 0.086789 0.307057
Si Si6 0.959074 0.700347 0.512160
O O1 0.285852 0.873208 0.250771
O O2 0.113455 0.896510 0.404444
O O3 0.000000 0.892578 0.250000
O O4 0.171574 0.000592 0.293658
O O5 0.500000 0.227895 0.250000
O O6 0.742357 0.256347 0.159461
O O7 0.706706 0.130213 0.221553
O O8 0.526230 0.172639 0.089860
O O9 0.500000 0.782563 0.250000
O O10 0.551643 0.836635 0.407117
O O11 0.715558 0.190364 0.973871
O O12 0.869216 0.105573 0.087206
O O13 0.994312 0.213846 0.007310
O O14 0.000000 0.107993 0.250000
#
# Coordination Sequence:
#
# PCOD9322230 Si02
#       6
#     8   8   8   8   8   8
#     4  11  24  41  64  92 126 173 216 259 316 388
#     4  11  24  40  64  94 127 164 208 271 322 378
#     4  12  22  38  65  94 124 165 211 267 315 375
#     4  11  22  40  64  94 127 162 211 266 319 382
#     4  10  23  43  64  90 127 173 212 257 326 379
#     4  11  22  37  61  95 119 159 207 261 324 366
#
# _framework density 9.8765429999999999
#
# number of rings (size 3 to 8) (size 9 to 14) (size 15 to 20)
#    0.000    1.000    5.000    3.500    0.000    0.667 
#    0.000    0.000    0.000    0.000    0.000    0.000 
#    0.000    0.000    0.000    0.000    0.000    0.000 
#
# Total GULP energy -133739.708409 kJ/mol
# GULP energy per Si atom -5572.487850 kJ/mol
# Density = 0.985406 g / cm^3
# Si number density = 9.876543 Si / 1000 Ang^3
#
#
#
# Elastic Constant Matrix: (Units=GPa)
#
#
# Indices 1 2 3 4 5 6 
#
# 1 77.8315 35.2104 69.1468 0.0000 0.0000 0.0000
# 2 35.2104 87.5493 26.4951 0.0000 0.0000 0.0000
# 3 69.1468 26.4951 111.5314 0.0000 0.0000 0.0000
# 4 0.0000 0.0000 0.0000 25.2271 0.0000 0.0000
# 5 0.0000 0.0000 0.0000 0.0000 46.8606 0.0000
# 6 0.0000 0.0000 0.0000 0.0000 0.0000 6.7160
#
#
#
# Elastic Compliance Matrix: (Units=1/GPa)
#
#
# Indices 1 2 3 4 5 6 
#
# 1 0.032659 -0.007550 -0.018454 0.000000 0.000000 0.000000
# 2 -0.007550 0.014052 0.001342 0.000000 0.000000 0.000000
# 3 -0.018454 0.001342 0.020088 0.000000 0.000000 0.000000
# 4 0.000000 0.000000 0.000000 0.039640 0.000000 0.000000
# 5 0.000000 0.000000 0.000000 0.000000 0.021340 0.000000
# 6 0.000000 0.000000 0.000000 0.000000 0.000000 0.148899
#
#
# Mechanical properties :
#
#
# Convention : Reuss Voigt Hill
#
# Bulk Modulus (GPa) = 57.22022 59.84633 58.53327
# Shear Modulus (GPa) = 15.06815 25.49807 20.28311
#
# Velocity S-wave (km/s) = 2.76492 3.59672 3.20790
# Velocity P-wave (km/s) = 6.26288 6.90011 6.58920
#
# Compressibility (1/GPa) = 0.01747634
#
# Stress axis : x y z
#
# Youngs Moduli (GPa) = 30.61979 71.16309 49.78043
#
# Poissons Ratio (x) = 0.53727 0.91865
# Poissons Ratio (y) = 0.23117 -0.06683
# Poissons Ratio (z) = 0.56506 -0.09554
#
# Static dielectric constant tensor:
#      x y z
#    x 1.704940 0.000000 0.000000 
#    y 0.000000 1.704730 0.000000 
#    z 0.000000 0.000000 1.731060 
# 
# From -- ./inp_files/18868.got.cif
#   From: 2010.05.17/outbox.ucp.g08.bks.cvg/sg20_10_cif.got.tgz:18868.got - 2010.06.11 15:13:06.
