data_PCOD9322276
_publ_section_title
;
Structure prediction by ZEFSAII (Michael W. Deem and Ramdas Pophale) SiO2 
 PCOD9322276
Probable space group: C 2 2 2
;
_chemical_formula_sum "Si O2"
_cell_formula_units_Z 38
_cell_length_a 16.767825
_cell_length_b 13.667985
_cell_length_c 9.490973
_cell_angle_alpha 90.000000
_cell_angle_beta 90.000000
_cell_angle_gamma 90.000000
_cell_volume 2175.163786
_symmetry_space_group_name_H-M "C 2 2 2"
_symmetry_group_IT_number 21
_symmetry_cell_setting 'orthorhombic'
loop_
_space_group_symop_operation_xyz
x,y,z
-x,-y,z
x,-y,-z
-x,y,-z
1/2+x,1/2+y,z
1/2-x,1/2-y,z
1/2+x,1/2-y,-z
1/2-x,1/2+y,-z
loop_
_atom_site_type_symbol
_atom_site_label
_atom_site_fract_x
_atom_site_fract_y
_atom_site_fract_z
Si Si1 0.280991 0.354560 0.115067
Si Si2 0.205600 0.023474 0.661999
Si Si3 0.112700 0.592369 0.275323
Si Si4 0.500000 0.000000 0.500000
Si Si5 0.851988 0.500000 0.000000
Si Si6 0.160057 0.205249 0.830055
O O1 0.250000 0.250000 0.169533
O O2 0.304921 0.428367 0.238654
O O3 0.207834 0.410291 0.035869
O O4 0.345231 0.331499 0.992019
O O5 0.297643 0.060541 0.677129
O O6 0.155393 0.112303 0.728130
O O7 0.188830 0.000000 0.500000
O O8 0.054310 0.566515 0.400393
O O9 0.108236 0.704377 0.224061
O O10 0.098674 0.526883 0.136894
O O11 0.250000 0.250000 0.823286
#
# Coordination Sequence:
#
# PCOD9322276 Si02
#       6
#     8   8   8   2   4   8
#     4  10  15  26  49  76 104 138 164 214 278 329
#     4  10  18  29  46  78 113 135 162 222 282 338
#     4  10  20  33  51  69 107 148 186 213 266 316
#     4  12  24  38  48  72 114 162 184 222 252 318
#     4  10  16  31  50  74 104 140 175 224 262 326
#     4   9  15  30  49  71 100 139 171 219 271 321
#
# _framework density 17.469947999999999
#
# number of rings (size 3 to 8) (size 9 to 14) (size 15 to 20)
#    0.000    2.105    9.474    0.000    0.000    2.947 
#    0.000    0.000    0.000    0.000    0.000    0.737 
#    0.000    0.000    1.263    0.000    0.000    0.000 
#
# Total GULP energy -105827.835430 kJ/mol
# GULP energy per Si atom -5569.886075 kJ/mol
# Density = 1.743019 g / cm^3
# Si number density = 17.469948 Si / 1000 Ang^3
#
#
#
# Elastic Constant Matrix: (Units=GPa)
#
#
# Indices 1 2 3 4 5 6 
#
# 1 24.0849 21.0467 22.9171 0.0000 0.0000 0.0000
# 2 21.0467 155.1935 78.9037 0.0000 0.0000 0.0000
# 3 22.9171 78.9037 163.2039 0.0000 0.0000 0.0000
# 4 0.0000 0.0000 0.0000 27.8851 0.0000 0.0000
# 5 0.0000 0.0000 0.0000 0.0000 14.6444 0.0000
# 6 0.0000 0.0000 0.0000 0.0000 0.0000 2.1465
#
#
#
# Elastic Compliance Matrix: (Units=1/GPa)
#
#
# Indices 1 2 3 4 5 6 
#
# 1 0.049955 -0.004254 -0.004958 0.000000 0.000000 0.000000
# 2 -0.004254 0.008906 -0.003708 0.000000 0.000000 0.000000
# 3 -0.004958 -0.003708 0.008616 0.000000 0.000000 0.000000
# 4 0.000000 0.000000 0.000000 0.035861 0.000000 0.000000
# 5 0.000000 0.000000 0.000000 0.000000 0.068286 0.000000
# 6 0.000000 0.000000 0.000000 0.000000 0.000000 0.465867
#
#
# Mechanical properties :
#
#
# Convention : Reuss Voigt Hill
#
# Bulk Modulus (GPa) = 24.01744 65.35748 44.68746
# Shear Modulus (GPa) = 7.38324 23.57620 15.47972
#
# Velocity S-wave (km/s) = 2.05801 3.67758 2.97993
# Velocity P-wave (km/s) = 4.40737 7.45153 6.12170
#
# Compressibility (1/GPa) = 0.04163641
#
# Stress axis : x y z
#
# Youngs Moduli (GPa) = 20.01815 112.28545 116.05793
#
# Poissons Ratio (x) = 0.47765 0.57542
# Poissons Ratio (y) = 0.08515 0.43039
# Poissons Ratio (z) = 0.09925 0.41640
#
# Static dielectric constant tensor:
#      x y z
#    x 1.589700 0.000000 0.000000 
#    y 0.000000 1.615040 0.000000 
#    z 0.000000 0.000000 1.611250 
# 
# From -- ./inp_files/16309.got.cif
#   From: 2010.05.17/outbox.cif.g08.bks.cpg/sg21_9_cif.got.tgz:16309.got - 2010.06.03 23:14:55.
