data_PCOD9322851
_publ_section_title
;
Structure prediction by ZEFSAII (Michael W. Deem and Ramdas Pophale) SiO2 
 PCOD9322851
Probable space group: C 2 2 2
;
_chemical_formula_sum "Si O2"
_cell_formula_units_Z 52
_cell_length_a 22.121156
_cell_length_b 18.016580
_cell_length_c 6.123541
_cell_angle_alpha 90.000000
_cell_angle_beta 90.000000
_cell_angle_gamma 90.000000
_cell_volume 2440.522427
_symmetry_space_group_name_H-M "C 2 2 2"
_symmetry_group_IT_number 21
_symmetry_cell_setting 'orthorhombic'
loop_
_space_group_symop_operation_xyz
x,y,z
-x,-y,z
x,-y,-z
-x,y,-z
1/2+x,1/2+y,z
1/2-x,1/2-y,z
1/2+x,1/2-y,-z
1/2-x,1/2+y,-z
loop_
_atom_site_type_symbol
_atom_site_label
_atom_site_fract_x
_atom_site_fract_y
_atom_site_fract_z
Si Si1 0.587924 0.233998 0.293394
Si Si2 0.649192 0.171676 0.664286
Si Si3 0.567503 0.618510 0.455291
Si Si4 0.985640 0.616136 0.243761
Si Si5 0.248499 0.068368 0.143138
Si Si6 0.839965 0.000000 0.500000
Si Si7 0.853140 0.822841 0.093960
O O1 0.637195 0.180607 0.406297
O O2 0.569012 0.297370 0.462402
O O3 0.529897 0.186548 0.236321
O O4 0.616181 0.278944 0.098924
O O5 0.584041 0.142523 0.752203
O O6 0.699144 0.113829 0.738216
O O7 0.666018 0.254597 0.746859
O O8 0.500000 0.590966 0.500000
O O9 0.615295 0.565582 0.576850
O O10 0.595852 0.626278 0.212816
O O11 0.000000 0.586015 0.500000
O O12 0.000000 0.580301 0.000000
O O13 0.203385 0.031537 0.316352
O O14 0.204460 0.128190 0.026532
O O15 0.272148 0.000000 0.000000
#
# Coordination Sequence:
#
# PCOD9322851 Si02
#       7
#     8   8   8   8   8   4   8
#     4  10  19  34  60  93 124 155 196 267 345 389
#     4  10  21  37  61  92 120 163 210 268 327 394
#     4  10  20  33  57  87 123 162 210 258 320 386
#     4  10  19  35  62  99 133 158 200 271 341 401
#     4  11  24  42  60  85 124 172 224 263 320 387
#     4  10  23  42  54  76 121 178 220 266 306 380
#     4  10  20  37  61  91 124 160 208 267 320 393
#
# _framework density 21.306912000000001
#
# number of rings (size 3 to 8) (size 9 to 14) (size 15 to 20)
#    0.000    1.846    1.538    3.923    0.000    1.231 
#    0.000    4.615    0.000    3.231    0.000    0.000 
#    0.000    0.000    0.000    0.000    0.000    0.000 
#
# Total GULP energy -144849.721567 kJ/mol
# GULP energy per Si atom -5571.143137 kJ/mol
# Density = 2.125842 g / cm^3
# Si number density = 21.306912 Si / 1000 Ang^3
#
#
#
# Elastic Constant Matrix: (Units=GPa)
#
#
# Indices 1 2 3 4 5 6 
#
# 1 132.8203 58.6520 38.4856 0.0000 0.0000 0.0000
# 2 58.6520 100.2472 17.1635 0.0000 0.0000 0.0000
# 3 38.4856 17.1635 72.3750 0.0000 0.0000 0.0000
# 4 0.0000 0.0000 0.0000 -15.4469 0.0000 0.0000
# 5 0.0000 0.0000 0.0000 0.0000 20.0543 0.0000
# 6 0.0000 0.0000 0.0000 0.0000 0.0000 -4.6879
#
#
#
# Elastic Compliance Matrix: (Units=1/GPa)
#
#
# Indices 1 2 3 4 5 6 
#
# 1 0.011514 -0.005929 -0.004716 0.000000 0.000000 0.000000
# 2 -0.005929 0.013451 -0.000037 0.000000 0.000000 0.000000
# 3 -0.004716 -0.000037 0.016334 0.000000 0.000000 0.000000
# 4 0.000000 0.000000 0.000000 -0.064738 0.000000 0.000000
# 5 0.000000 0.000000 0.000000 0.000000 0.049865 0.000000
# 6 0.000000 0.000000 0.000000 0.000000 0.000000 -0.213316
#
#
# Mechanical properties :
#
#
# Convention : Reuss Voigt Hill
#
# Bulk Modulus (GPa) = 50.16756 59.33832 54.75294
# Shear Modulus (GPa) = -31.46975 12.72667 -9.37154
#
# Velocity S-wave (km/s) = -3.84731 2.44663 -2.09950
# Velocity P-wave (km/s) = 1.96484 5.99092 4.45823
#
# Compressibility (1/GPa) = 0.01993320
#
# Stress axis : x y z
#
# Youngs Moduli (GPa) = 86.85293 74.34666 61.22313
#
# Poissons Ratio (x) = 0.44079 0.28876
# Poissons Ratio (y) = 0.51494 0.00227
# Poissons Ratio (z) = 0.40964 0.00275
#
# Static dielectric constant tensor:
#      x y z
#    x 1.746770 0.000000 0.000000 
#    y 0.000000 1.786520 0.000000 
#    z 0.000000 0.000000 1.887960 
# 
# From -- ./inp_files/5996.got.cif
#   From: 2010.05.17/outbox.cif.g08.bks.cpg/sg21_3_cif.got.tgz:5996.got - 2010.06.03 23:14:55.
