data_PCOD9322372
_publ_section_title
;
Structure prediction by ZEFSAII (Michael W. Deem and Ramdas Pophale) SiO2 
 PCOD9322372
Probable space group: C 2 2 2
;
_chemical_formula_sum "Si O2"
_cell_formula_units_Z 56
_cell_length_a 24.370735
_cell_length_b 17.440862
_cell_length_c 5.465417
_cell_angle_alpha 90.000000
_cell_angle_beta 90.000000
_cell_angle_gamma 90.000000
_cell_volume 2323.057055
_symmetry_space_group_name_H-M "C 2 2 2"
_symmetry_group_IT_number 21
_symmetry_cell_setting 'orthorhombic'
loop_
_space_group_symop_operation_xyz
x,y,z
-x,-y,z
x,-y,-z
-x,y,-z
1/2+x,1/2+y,z
1/2-x,1/2-y,z
1/2+x,1/2-y,-z
1/2-x,1/2+y,-z
loop_
_atom_site_type_symbol
_atom_site_label
_atom_site_fract_x
_atom_site_fract_y
_atom_site_fract_z
Si Si1 0.564812 0.256634 0.438791
Si Si2 0.201649 0.453018 0.251885
Si Si3 0.799675 0.156538 0.758157
Si Si4 0.427627 0.045539 0.252141
Si Si5 0.557331 0.795387 0.061011
Si Si6 0.338335 0.658992 0.261396
Si Si7 0.623174 0.505943 0.250092
O O1 0.500000 0.262928 0.500000
O O2 0.588334 0.246307 0.715839
O O3 0.597135 0.325981 0.310167
O O4 0.578400 0.194189 0.219755
O O5 0.215777 0.500000 0.500000
O O6 0.239303 0.378767 0.233267
O O7 0.137069 0.435221 0.268533
O O8 0.209931 0.500000 0.000000
O O9 0.807954 0.193703 0.494910
O O10 0.842308 0.084090 0.747956
O O11 0.815269 0.194748 0.013590
O O12 0.457106 0.125722 0.201368
O O13 0.441587 0.000000 0.500000
O O14 0.435749 0.000000 0.000000
O O15 0.500000 0.753406 0.000000
O O16 0.334224 0.566235 0.247458
O O17 0.590810 0.500000 0.500000
O O18 0.590780 0.500000 0.000000
#
# Coordination Sequence:
#
# PCOD9322372 Si02
#       7
#     8   8   8   8   8   8   8
#     4  10  21  37  57  77 100 140 190 230 268 317
#     4  10  18  30  50  79 113 145 176 213 265 331
#     4  10  17  28  48  76 107 138 176 221 268 315
#     4  10  21  36  58  87 114 139 169 214 276 335
#     4  10  21  39  59  79 106 140 178 222 271 327
#     4  10  18  29  49  75 101 135 184 229 261 308
#     4   8  14  23  39  65  95 124 160 211 260 297
#
# _framework density 24.106168
#
# number of rings (size 3 to 8) (size 9 to 14) (size 15 to 20)
#    0.000    2.286    0.000    5.143    0.000    0.286 
#    0.000    0.714    0.000    9.000    0.000   13.000 
#    0.000    0.000    0.000    0.000    0.000    0.000 
#
# Total GULP energy -155891.371563 kJ/mol
# GULP energy per Si atom -5567.548984 kJ/mol
# Density = 2.405130 g / cm^3
# Si number density = 24.106168 Si / 1000 Ang^3
#
#
#
# Elastic Constant Matrix: (Units=GPa)
#
#
# Indices 1 2 3 4 5 6 
#
# 1 87.4861 17.3733 48.7127 0.0000 0.0000 0.0000
# 2 17.3733 30.1513 14.2147 0.0000 0.0000 0.0000
# 3 48.7127 14.2147 290.9242 0.0000 0.0000 0.0000
# 4 0.0000 0.0000 0.0000 27.5981 0.0000 0.0000
# 5 0.0000 0.0000 0.0000 0.0000 316.3578 0.0000
# 6 0.0000 0.0000 0.0000 0.0000 0.0000 6.8658
#
#
#
# Elastic Compliance Matrix: (Units=1/GPa)
#
#
# Indices 1 2 3 4 5 6 
#
# 1 0.013947 -0.007099 -0.001988 0.000000 0.000000 0.000000
# 2 -0.007099 0.037561 -0.000647 0.000000 0.000000 0.000000
# 3 -0.001988 -0.000647 0.003802 0.000000 0.000000 0.000000
# 4 0.000000 0.000000 0.000000 0.036234 0.000000 0.000000
# 5 0.000000 0.000000 0.000000 0.000000 0.003161 0.000000
# 6 0.000000 0.000000 0.000000 0.000000 0.000000 0.145650
#
#
# Mechanical properties :
#
#
# Convention : Reuss Voigt Hill
#
# Bulk Modulus (GPa) = 27.89999 63.24033 45.57016
# Shear Modulus (GPa) = 18.39779 92.04839 55.22309
#
# Velocity S-wave (km/s) = 2.76560 6.18607 4.79145
# Velocity P-wave (km/s) = 4.66872 8.79286 7.03958
#
# Compressibility (1/GPa) = 0.03584231
#
# Stress axis : x y z
#
# Youngs Moduli (GPa) = 71.69818 26.62311 263.02841
#
# Poissons Ratio (x) = 0.18900 0.52303
# Poissons Ratio (y) = 0.50899 0.17007
# Poissons Ratio (z) = 0.14257 0.01721
#
# Static dielectric constant tensor:
#      x y z
#    x 1.918330 0.000000 0.000000 
#    y 0.000000 1.941140 0.000000 
#    z 0.000000 0.000000 2.107910 
# 
# From -- ./inp_files/6794.got.cif
#   From: 2010.05.17/outbox.cif.g08.bks.cpg/sg21_4_cif.got.tgz:6794.got - 2010.06.03 23:14:55.
