data_PCOD9322473
_publ_section_title
;
Structure prediction by ZEFSAII (Michael W. Deem and Ramdas Pophale) SiO2 
 PCOD9322473
Probable space group: C 2 2 2
;
_chemical_formula_sum "Si O2"
_cell_formula_units_Z 60
_cell_length_a 13.971004
_cell_length_b 18.763552
_cell_length_c 12.384371
_cell_angle_alpha 90.000000
_cell_angle_beta 90.000000
_cell_angle_gamma 90.000000
_cell_volume 3246.509110
_symmetry_space_group_name_H-M "C 2 2 2"
_symmetry_group_IT_number 21
_symmetry_cell_setting 'orthorhombic'
loop_
_space_group_symop_operation_xyz
x,y,z
-x,-y,z
x,-y,-z
-x,y,-z
1/2+x,1/2+y,z
1/2-x,1/2-y,z
1/2+x,1/2-y,-z
1/2-x,1/2+y,-z
loop_
_atom_site_type_symbol
_atom_site_label
_atom_site_fract_x
_atom_site_fract_y
_atom_site_fract_z
Si Si1 0.208259 0.366873 0.167022
Si Si2 0.619840 0.715843 0.238833
Si Si3 0.575883 0.113582 0.417860
Si Si4 0.112395 0.764978 0.513330
Si Si5 0.899776 0.599623 0.951689
Si Si6 0.562913 0.791024 0.777183
Si Si7 0.116164 0.494490 0.745556
Si Si8 0.750000 0.750000 0.658809
O O1 0.319651 0.346921 0.183678
O O2 0.156041 0.292069 0.193647
O O3 0.168974 0.430219 0.243383
O O4 0.175626 0.388338 0.046616
O O5 0.641449 0.715597 0.366531
O O6 0.505227 0.722501 0.224547
O O7 0.500000 0.080963 0.500000
O O8 0.619457 0.179861 0.485740
O O9 0.525054 0.154984 0.316585
O O10 0.639461 0.054308 0.358787
O O11 0.182569 0.796097 0.422058
O O12 0.000000 0.782462 0.500000
O O13 0.931415 0.672116 0.891877
O O14 0.863148 0.548943 0.855886
O O15 0.000000 0.572740 0.000000
O O16 0.671109 0.782882 0.736754
O O17 0.000000 0.500000 0.741843
#
# Coordination Sequence:
#
# PCOD9322473 Si02
#       8
#     8   8   8   8   8   8   8   4
#     4  11  23  33  53  82 113 170 194 236 316 363
#     4  11  20  37  53  78 126 153 204 242 294 384
#     4   9  17  32  54  79 117 155 197 235 300 358
#     4  10  18  34  57  81 119 164 191 243 305 357
#     4  11  20  36  55  76 116 162 202 256 308 358
#     4  10  19  34  55  82 115 157 208 248 299 370
#     4  11  21  32  52  83 117 159 200 245 304 375
#     4  10  18  30  54  82 110 156 200 244 300 364
#
# _framework density 18.481390000000001
#
# number of rings (size 3 to 8) (size 9 to 14) (size 15 to 20)
#    0.000    1.600    6.667    2.000    0.000    1.333 
#    0.000    0.000    0.000    0.000    0.000    8.400 
#    0.000   22.400    0.800    0.000    0.000    0.000 
#
# Total GULP energy -167046.591029 kJ/mol
# GULP energy per Si atom -5568.219701 kJ/mol
# Density = 1.843933 g / cm^3
# Si number density = 18.481390 Si / 1000 Ang^3
#
#
#
# Elastic Constant Matrix: (Units=GPa)
#
#
# Indices 1 2 3 4 5 6 
#
# 1 107.7455 38.8082 34.4317 0.0000 0.0000 0.0000
# 2 38.8082 65.9150 29.5795 0.0000 0.0000 0.0000
# 3 34.4317 29.5795 101.0449 0.0000 0.0000 0.0000
# 4 0.0000 0.0000 0.0000 5.2627 0.0000 0.0000
# 5 0.0000 0.0000 0.0000 0.0000 29.5347 0.0000
# 6 0.0000 0.0000 0.0000 0.0000 0.0000 23.3939
#
#
#
# Elastic Compliance Matrix: (Units=1/GPa)
#
#
# Indices 1 2 3 4 5 6 
#
# 1 0.012255 -0.006149 -0.002376 0.000000 0.000000 0.000000
# 2 -0.006149 0.020551 -0.003921 0.000000 0.000000 0.000000
# 3 -0.002376 -0.003921 0.011854 0.000000 0.000000 0.000000
# 4 0.000000 0.000000 0.000000 0.190016 0.000000 0.000000
# 5 0.000000 0.000000 0.000000 0.000000 0.033858 0.000000
# 6 0.000000 0.000000 0.000000 0.000000 0.000000 0.042746
#
#
# Mechanical properties :
#
#
# Convention : Reuss Voigt Hill
#
# Bulk Modulus (GPa) = 50.58557 53.37160 51.97858
# Shear Modulus (GPa) = 14.58740 23.09734 18.84237
#
# Velocity S-wave (km/s) = 2.81250 3.53903 3.19648
# Velocity P-wave (km/s) = 6.16258 6.75581 6.46600
#
# Compressibility (1/GPa) = 0.01976848
#
# Stress axis : x y z
#
# Youngs Moduli (GPa) = 81.59775 48.65982 84.36032
#
# Poissons Ratio (x) = 0.29922 0.20044
# Poissons Ratio (y) = 0.50176 0.33074
# Poissons Ratio (z) = 0.19387 0.19078
#
# Static dielectric constant tensor:
#      x y z
#    x 1.728980 0.000000 0.000000 
#    y 0.000000 1.702700 0.000000 
#    z 0.000000 0.000000 1.678700 
# 
# From -- ./inp_files/25548.got.cif
#   From: 2010.05.17/outbox.cif.g08.bks.cpg/sg21_13_cif.got.tgz:25548.got - 2010.06.03 23:14:55.
