data_PCOD9322718
_publ_section_title
;
Structure prediction by ZEFSAII (Michael W. Deem and Ramdas Pophale) SiO2 
 PCOD9322718
Probable space group: C 2 2 2
;
_chemical_formula_sum "Si O2"
_cell_formula_units_Z 40
_cell_length_a 16.238765
_cell_length_b 8.689996
_cell_length_c 15.231408
_cell_angle_alpha 90.000000
_cell_angle_beta 90.000000
_cell_angle_gamma 90.000000
_cell_volume 2149.377138
_symmetry_space_group_name_H-M "C 2 2 2"
_symmetry_group_IT_number 21
_symmetry_cell_setting 'orthorhombic'
loop_
_space_group_symop_operation_xyz
x,y,z
-x,-y,z
x,-y,-z
-x,y,-z
1/2+x,1/2+y,z
1/2-x,1/2-y,z
1/2+x,1/2-y,-z
1/2-x,1/2+y,-z
loop_
_atom_site_type_symbol
_atom_site_label
_atom_site_fract_x
_atom_site_fract_y
_atom_site_fract_z
Si Si1 0.406610 0.444811 0.283585
Si Si2 0.263124 0.432021 0.597547
Si Si3 0.592943 0.436199 0.911963
Si Si4 0.671700 0.864296 0.266551
Si Si5 0.408204 0.931056 0.908571
O O1 0.500000 0.500000 0.290684
O O2 0.348576 0.524237 0.354522
O O3 0.374212 0.480314 0.184214
O O4 0.399033 0.259289 0.291176
O O5 0.262261 0.500000 0.500000
O O6 0.250000 0.250000 0.596175
O O7 0.195082 0.519906 0.656392
O O8 0.500000 0.500000 0.911317
O O9 0.587769 0.252855 0.918610
O O10 0.634936 0.500000 0.000000
O O11 0.750000 0.750000 0.252249
O O12 0.646381 0.952839 0.178197
O O13 0.500000 0.000000 0.895824
O O14 0.375925 0.000000 0.000000
#
# Coordination Sequence:
#
# PCOD9322718 Si02
#       5
#     8   8   8   8   8
#     4   9  19  36  59  84 110 145 186 230 276 327
#     4  11  23  40  61  81 108 145 183 229 287 343
#     4   9  16  28  48  75 111 145 175 213 264 322
#     4   9  20  39  56  78 114 150 183 225 277 338
#     4  10  19  31  53  82 112 145 184 230 269 309
#
# _framework density 18.610043000000001
#
# number of rings (size 3 to 8) (size 9 to 14) (size 15 to 20)
#    0.000    2.400    0.000    4.200    0.000    6.800 
#    0.000   10.000    0.000    4.200    0.000    0.000 
#    0.000    0.000    0.000    0.000    0.000    0.000 
#
# Total GULP energy -111497.600646 kJ/mol
# GULP energy per Si atom -5574.880032 kJ/mol
# Density = 1.856769 g / cm^3
# Si number density = 18.610043 Si / 1000 Ang^3
#
#
#
# Elastic Constant Matrix: (Units=GPa)
#
#
# Indices 1 2 3 4 5 6 
#
# 1 52.0547 44.5081 58.6114 0.0000 0.0000 0.0000
# 2 44.5081 101.9655 93.2217 0.0000 0.0000 0.0000
# 3 58.6114 93.2217 214.2300 0.0000 0.0000 0.0000
# 4 0.0000 0.0000 0.0000 35.8430 0.0000 0.0000
# 5 0.0000 0.0000 0.0000 0.0000 51.3529 0.0000
# 6 0.0000 0.0000 0.0000 0.0000 0.0000 31.3407
#
#
#
# Elastic Compliance Matrix: (Units=1/GPa)
#
#
# Indices 1 2 3 4 5 6 
#
# 1 0.033181 -0.010270 -0.004609 0.000000 0.000000 0.000000
# 2 -0.010270 0.019465 -0.005660 0.000000 0.000000 0.000000
# 3 -0.004609 -0.005660 0.008392 0.000000 0.000000 0.000000
# 4 0.000000 0.000000 0.000000 0.027899 0.000000 0.000000
# 5 0.000000 0.000000 0.000000 0.000000 0.019473 0.000000
# 6 0.000000 0.000000 0.000000 0.000000 0.000000 0.031907
#
#
# Mechanical properties :
#
#
# Convention : Reuss Voigt Hill
#
# Bulk Modulus (GPa) = 50.10138 84.54808 67.32473
# Shear Modulus (GPa) = 26.58866 35.16791 30.87829
#
# Velocity S-wave (km/s) = 3.78395 4.35182 4.07778
# Velocity P-wave (km/s) = 6.78758 8.41315 7.64370
#
# Compressibility (1/GPa) = 0.01995953
#
# Stress axis : x y z
#
# Youngs Moduli (GPa) = 30.13760 51.37428 119.15994
#
# Poissons Ratio (x) = 0.52759 0.54924
# Poissons Ratio (y) = 0.30950 0.67450
# Poissons Ratio (z) = 0.13891 0.29080
#
# Static dielectric constant tensor:
#      x y z
#    x 1.660570 0.000000 0.000000 
#    y 0.000000 1.591300 0.000000 
#    z 0.000000 0.000000 1.681430 
# 
# From -- ./inp_files/32691.got.cif
#   From: 2010.05.17/outbox.cif.g08.bks.cpg/sg21_17_cif.got.tgz:32691.got - 2010.06.03 23:14:55.
