data_PCOD9322959
_publ_section_title
;
Structure prediction by ZEFSAII (Michael W. Deem and Ramdas Pophale) SiO2 
 PCOD9322959
Probable space group: C 2 2 2
;
_chemical_formula_sum "Si O2"
_cell_formula_units_Z 64
_cell_length_a 19.153366
_cell_length_b 18.189294
_cell_length_c 10.422613
_cell_angle_alpha 90.000000
_cell_angle_beta 90.000000
_cell_angle_gamma 90.000000
_cell_volume 3631.094592
_symmetry_space_group_name_H-M "C 2 2 2"
_symmetry_group_IT_number 21
_symmetry_cell_setting 'orthorhombic'
loop_
_space_group_symop_operation_xyz
x,y,z
-x,-y,z
x,-y,-z
-x,y,-z
1/2+x,1/2+y,z
1/2-x,1/2-y,z
1/2+x,1/2-y,-z
1/2-x,1/2+y,-z
loop_
_atom_site_type_symbol
_atom_site_label
_atom_site_fract_x
_atom_site_fract_y
_atom_site_fract_z
Si Si1 0.235486 0.447436 0.121130
Si Si2 0.046647 0.789005 0.877298
Si Si3 0.098430 0.952909 0.873299
Si Si4 0.320438 0.799288 0.281472
Si Si5 0.456736 0.714947 0.372503
Si Si6 0.231470 0.543720 0.370460
Si Si7 0.899443 0.049420 0.376399
Si Si8 0.820937 0.296482 0.975738
O O1 0.318898 0.433572 0.126789
O O2 0.217264 0.490065 0.250726
O O3 0.194114 0.373350 0.093454
O O4 0.223782 0.500000 0.000000
O O5 0.058759 0.876451 0.872855
O O6 0.118898 0.747627 0.902873
O O7 0.006471 0.769148 0.748200
O O8 0.000000 0.771435 0.000000
O O9 0.083365 0.002999 0.750393
O O10 0.084231 0.000000 0.000000
O O11 0.250000 0.750000 0.292549
O O12 0.384968 0.759151 0.350347
O O13 0.305655 0.878807 0.343418
O O14 0.336015 0.806554 0.128275
O O15 0.500000 0.733018 0.500000
O O16 0.436068 0.628397 0.376692
O O17 0.212944 0.500000 0.500000
O O18 0.315088 0.559611 0.374999
O O19 0.916634 0.000000 0.500000
O O20 0.750000 0.250000 0.970342
#
# Coordination Sequence:
#
# PCOD9322959 Si02
#       8
#     8   8   8   8   8   8   8   8
#     4  10  19  36  62  92 119 157 209 264 316 362
#     4  12  24  39  57  91 128 166 210 261 318 370
#     4  10  21  33  56  88 125 162 208 252 307 375
#     4  11  22  41  69  92 122 172 217 258 322 380
#     4  12  26  41  62  91 131 176 211 254 320 381
#     4  10  21  38  65  96 124 157 211 268 312 371
#     4  10  21  39  58  88 128 174 210 242 306 388
#     4  11  22  39  67  94 125 168 216 270 317 368
#
# _framework density 17.625537999999999
#
# number of rings (size 3 to 8) (size 9 to 14) (size 15 to 20)
#    0.000    1.250    5.000    1.500    0.000    4.000 
#    0.000    1.250    0.000    4.500    0.000    0.000 
#    0.000    0.000    0.000    0.000    0.000    0.000 
#
# Total GULP energy -178837.342152 kJ/mol
# GULP energy per Si atom -5588.666942 kJ/mol
# Density = 1.758542 g / cm^3
# Si number density = 17.625538 Si / 1000 Ang^3
#
#
#
# Elastic Constant Matrix: (Units=GPa)
#
#
# Indices 1 2 3 4 5 6 
#
# 1 109.1336 56.7740 63.6433 0.0000 0.0000 0.0000
# 2 56.7740 93.3459 57.7061 0.0000 0.0000 0.0000
# 3 63.6433 57.7061 170.1554 0.0000 0.0000 0.0000
# 4 0.0000 0.0000 0.0000 -17.3963 0.0000 0.0000
# 5 0.0000 0.0000 0.0000 0.0000 29.2239 0.0000
# 6 0.0000 0.0000 0.0000 0.0000 0.0000 39.7583
#
#
#
# Elastic Compliance Matrix: (Units=1/GPa)
#
#
# Indices 1 2 3 4 5 6 
#
# 1 0.014589 -0.006959 -0.003097 0.000000 0.000000 0.000000
# 2 -0.006959 0.016874 -0.003120 0.000000 0.000000 0.000000
# 3 -0.003097 -0.003120 0.008093 0.000000 0.000000 0.000000
# 4 0.000000 0.000000 0.000000 -0.057483 0.000000 0.000000
# 5 0.000000 0.000000 0.000000 0.000000 0.034219 0.000000
# 6 0.000000 0.000000 0.000000 0.000000 0.000000 0.025152
#
#
# Mechanical properties :
#
#
# Convention : Reuss Voigt Hill
#
# Bulk Modulus (GPa) = 75.72553 80.98687 78.35620
# Shear Modulus (GPa) = 69.25550 23.28459 46.27004
#
# Velocity S-wave (km/s) = 6.27519 3.63860 5.12920
# Velocity P-wave (km/s) = 9.77552 7.98128 8.92361
#
# Compressibility (1/GPa) = 0.01320559
#
# Stress axis : x y z
#
# Youngs Moduli (GPa) = 68.54373 59.26297 123.55902
#
# Poissons Ratio (x) = 0.41241 0.38264
# Poissons Ratio (y) = 0.47699 0.38547
# Poissons Ratio (z) = 0.21227 0.18489
#
# Static dielectric constant tensor:
#      x y z
#    x 1.604890 0.000000 0.000000 
#    y 0.000000 1.569610 0.000000 
#    z 0.000000 0.000000 1.589550 
# 
# From -- ./inp_files/17871.got.cif
#   From: 2010.05.17/outbox.cif.g08.bks.cpg/sg21_9_cif.got.tgz:17871.got - 2010.06.03 23:14:55.
