data_PCOD9322841
_publ_section_title
;
Structure prediction by ZEFSAII (Michael W. Deem and Ramdas Pophale) SiO2 
 PCOD9322841
Probable space group: C 2 2 2
;
_chemical_formula_sum "Si O2"
_cell_formula_units_Z 32
_cell_length_a 5.825637
_cell_length_b 30.163901
_cell_length_c 8.288081
_cell_angle_alpha 90.000000
_cell_angle_beta 90.000000
_cell_angle_gamma 90.000000
_cell_volume 1456.414230
_symmetry_space_group_name_H-M "C 2 2 2"
_symmetry_group_IT_number 21
_symmetry_cell_setting 'orthorhombic'
loop_
_space_group_symop_operation_xyz
x,y,z
-x,-y,z
x,-y,-z
-x,y,-z
1/2+x,1/2+y,z
1/2-x,1/2-y,z
1/2+x,1/2-y,-z
1/2-x,1/2+y,-z
loop_
_atom_site_type_symbol
_atom_site_label
_atom_site_fract_x
_atom_site_fract_y
_atom_site_fract_z
Si Si1 0.883736 0.043550 0.178023
Si Si2 0.000000 0.646210 0.500000
Si Si3 0.000000 0.581783 0.000000
Si Si4 0.842874 0.126101 0.764715
Si Si5 0.631383 0.706864 0.667682
O O1 0.963032 0.089094 0.257674
O O2 0.616763 0.050154 0.134816
O O3 0.000000 0.000000 0.255654
O O4 0.000000 0.043819 0.000000
O O5 0.826841 0.620985 0.385522
O O6 0.842730 0.676271 0.614547
O O7 0.192750 0.613154 0.920640
O O8 0.955000 0.175014 0.763070
O O9 0.500000 0.720034 0.500000
O O10 0.750000 0.750000 0.744394
#
# Coordination Sequence:
#
# PCOD9322841 Si02
#       5
#     8   4   4   8   8
#     4   9  19  35  59  91 120 157 206 243 291 361
#     4  10  20  36  58  91 116 148 195 256 300 352
#     4  10  20  39  60  92 122 166 194 256 296 365
#     4  10  21  34  60  93 120 158 201 246 309 352
#     4  10  19  34  58  91 114 150 206 259 299 355
#
# _framework density 21.971768000000001
#
# number of rings (size 3 to 8) (size 9 to 14) (size 15 to 20)
#    0.000    2.250    1.250    1.500    0.000    8.000 
#    0.000    0.000    0.000   30.750  146.250    0.000 
#    0.000    0.000    0.000    0.000    0.000    0.000 
#
# Total GULP energy -89186.730798 kJ/mol
# GULP energy per Si atom -5574.170675 kJ/mol
# Density = 2.192176 g / cm^3
# Si number density = 21.971768 Si / 1000 Ang^3
#
#
#
# Elastic Constant Matrix: (Units=GPa)
#
#
# Indices 1 2 3 4 5 6 
#
# 1 114.3532 56.4272 20.5087 0.0000 0.0000 0.0000
# 2 56.4272 136.8200 33.9526 0.0000 0.0000 0.0000
# 3 20.5087 33.9526 27.4051 0.0000 0.0000 0.0000
# 4 0.0000 0.0000 0.0000 24.6340 0.0000 0.0000
# 5 0.0000 0.0000 0.0000 0.0000 46.1433 0.0000
# 6 0.0000 0.0000 0.0000 0.0000 0.0000 24.1039
#
#
#
# Elastic Compliance Matrix: (Units=1/GPa)
#
#
# Indices 1 2 3 4 5 6 
#
# 1 0.011255 -0.003684 -0.003858 0.000000 0.000000 0.000000
# 2 -0.003684 0.011760 -0.011812 0.000000 0.000000 0.000000
# 3 -0.003858 -0.011812 0.054011 0.000000 0.000000 0.000000
# 4 0.000000 0.000000 0.000000 0.040594 0.000000 0.000000
# 5 0.000000 0.000000 0.000000 0.000000 0.021672 0.000000
# 6 0.000000 0.000000 0.000000 0.000000 0.000000 0.041487
#
#
# Mechanical properties :
#
#
# Convention : Reuss Voigt Hill
#
# Bulk Modulus (GPa) = 26.09835 55.59504 40.84669
# Shear Modulus (GPa) = 21.52771 30.15555 25.84163
#
# Velocity S-wave (km/s) = 3.13355 3.70870 3.43319
# Velocity P-wave (km/s) = 4.99961 6.61038 5.86060
#
# Compressibility (1/GPa) = 0.03831660
#
# Stress axis : x y z
#
# Youngs Moduli (GPa) = 88.85134 85.03723 18.51481
#
# Poissons Ratio (x) = 0.31330 0.07143
# Poissons Ratio (y) = 0.32735 0.21870
# Poissons Ratio (z) = 0.34279 1.00446
#
# Static dielectric constant tensor:
#      x y z
#    x 1.884090 0.000000 0.000000 
#    y 0.000000 1.856610 0.000000 
#    z 0.000000 0.000000 1.876970 
# 
# From -- ./inp_files/9187.got.cif
#   From: 2010.05.17/outbox.cif.g08.bks.cpg/sg21_5_cif.got.tgz:9187.got - 2010.06.03 23:14:55.
