data_PCOD9322738
_publ_section_title
;
Structure prediction by ZEFSAII (Michael W. Deem and Ramdas Pophale) SiO2 
 PCOD9322738
Probable space group: C 2 2 2
;
_chemical_formula_sum "Si O2"
_cell_formula_units_Z 64
_cell_length_a 22.446646
_cell_length_b 17.836399
_cell_length_c 8.912372
_cell_angle_alpha 90.000000
_cell_angle_beta 90.000000
_cell_angle_gamma 90.000000
_cell_volume 3568.222620
_symmetry_space_group_name_H-M "C 2 2 2"
_symmetry_group_IT_number 21
_symmetry_cell_setting 'orthorhombic'
loop_
_space_group_symop_operation_xyz
x,y,z
-x,-y,z
x,-y,-z
-x,y,-z
1/2+x,1/2+y,z
1/2-x,1/2-y,z
1/2+x,1/2-y,-z
1/2-x,1/2+y,-z
loop_
_atom_site_type_symbol
_atom_site_label
_atom_site_fract_x
_atom_site_fract_y
_atom_site_fract_z
Si Si1 0.027016 0.576013 0.669158
Si Si2 0.995205 0.254731 0.679952
Si Si3 0.127619 0.218561 0.188587
Si Si4 0.206204 0.916135 0.175853
Si Si5 0.296240 0.183167 0.646042
Si Si6 0.839936 0.375318 0.668302
Si Si7 0.116486 0.214104 0.832102
Si Si8 0.718232 0.414833 0.820745
O O1 0.099035 0.577016 0.672255
O O2 0.000000 0.500000 0.739491
O O3 0.000000 0.577188 0.500000
O O4 0.009330 0.657844 0.732300
O O5 0.052394 0.219606 0.757599
O O6 0.000000 0.254605 0.500000
O O7 0.935032 0.212531 0.726367
O O8 0.152634 0.299076 0.236881
O O9 0.174500 0.152783 0.225752
O O10 0.115309 0.219585 0.011290
O O11 0.258820 0.882544 0.276309
O O12 0.149550 0.863634 0.203287
O O13 0.192318 0.002523 0.205599
O O14 0.225258 0.907328 0.001108
O O15 0.250000 0.250000 0.603411
O O16 0.329288 0.151375 0.501533
O O17 0.342377 0.220609 0.761562
O O18 0.781002 0.412824 0.735089
#
# Coordination Sequence:
#
# PCOD9322738 Si02
#       8
#     8   8   8   8   8   8   8   8
#     4   9  19  34  50  74 107 138 171 211 256 308
#     4  10  20  35  56  79 105 139 179 225 272 321
#     4  10  20  35  56  79 103 140 182 224 271 324
#     4   9  21  36  53  79 108 140 177 227 281 320
#     4  10  19  32  52  80 109 138 176 222 268 322
#     4  11  21  33  55  81 106 144 181 217 272 326
#     4  10  19  35  57  77 105 142 182 220 268 332
#     4  10  20  37  55  77 109 138 178 230 274 327
#
# _framework density 17.936101000000001
#
# number of rings (size 3 to 8) (size 9 to 14) (size 15 to 20)
#    0.000    2.125    0.000    4.500    0.000    6.500 
#    0.000    0.625    0.000    9.000    0.000    0.875 
#    0.000    0.000    0.000    0.000    0.000    0.000 
#
# Total GULP energy -178528.470835 kJ/mol
# GULP energy per Si atom -5579.014714 kJ/mol
# Density = 1.789528 g / cm^3
# Si number density = 17.936101 Si / 1000 Ang^3
#
#
#
# Elastic Constant Matrix: (Units=GPa)
#
#
# Indices 1 2 3 4 5 6 
#
# 1 117.2242 53.1024 39.1082 0.0000 0.0000 0.0000
# 2 53.1024 92.6269 33.2976 0.0000 0.0000 0.0000
# 3 39.1082 33.2976 47.0725 0.0000 0.0000 0.0000
# 4 0.0000 0.0000 0.0000 13.8449 0.0000 0.0000
# 5 0.0000 0.0000 0.0000 0.0000 34.2719 0.0000
# 6 0.0000 0.0000 0.0000 0.0000 0.0000 15.7630
#
#
#
# Elastic Compliance Matrix: (Units=1/GPa)
#
#
# Indices 1 2 3 4 5 6 
#
# 1 0.013269 -0.004887 -0.007567 0.000000 0.000000 0.000000
# 2 -0.004887 0.016277 -0.007454 0.000000 0.000000 0.000000
# 3 -0.007567 -0.007454 0.032803 0.000000 0.000000 0.000000
# 4 0.000000 0.000000 0.000000 0.072229 0.000000 0.000000
# 5 0.000000 0.000000 0.000000 0.000000 0.029178 0.000000
# 6 0.000000 0.000000 0.000000 0.000000 0.000000 0.063440
#
#
# Mechanical properties :
#
#
# Convention : Reuss Voigt Hill
#
# Bulk Modulus (GPa) = 44.37811 56.43776 50.40794
# Shear Modulus (GPa) = 18.21340 21.53700 19.87520
#
# Velocity S-wave (km/s) = 3.19009 3.46896 3.33244
# Velocity P-wave (km/s) = 6.19394 6.89777 6.55531
#
# Compressibility (1/GPa) = 0.02253363
#
# Stress axis : x y z
#
# Youngs Moduli (GPa) = 75.36425 61.43609 30.48462
#
# Poissons Ratio (x) = 0.30022 0.23068
# Poissons Ratio (y) = 0.36828 0.22723
# Poissons Ratio (z) = 0.57030 0.45794
#
# Static dielectric constant tensor:
#      x y z
#    x 1.613170 0.000000 0.000000 
#    y 0.000000 1.614430 0.000000 
#    z 0.000000 0.000000 1.608130 
# 
# From -- ./inp_files/16839.got.cif
#   From: 2010.05.17/outbox.cif.g08.bks.cpg/sg21_9_cif.got.tgz:16839.got - 2010.06.03 23:14:55.
