data_PCOD9322083
_publ_section_title
;
Structure prediction by ZEFSAII (Michael W. Deem and Ramdas Pophale) SiO2 
 PCOD9322083
Probable space group: C 2 2 21
;
_chemical_formula_sum "Si O2"
_cell_formula_units_Z 28
_cell_length_a 17.818685
_cell_length_b 8.873390
_cell_length_c 7.122422
_cell_angle_alpha 90.000000
_cell_angle_beta 90.000000
_cell_angle_gamma 90.000000
_cell_volume 1126.141394
_symmetry_space_group_name_H-M "C 2 2 21"
_symmetry_group_IT_number 20
_symmetry_cell_setting 'orthorhombic'
loop_
_space_group_symop_operation_xyz
x,y,z
-x,-y,1/2+z
x,-y,-z
-x,y,1/2-z
1/2+x,1/2+y,z
1/2-x,1/2-y,1/2+z
1/2+x,1/2-y,-z
1/2-x,1/2+y,1/2-z
loop_
_atom_site_type_symbol
_atom_site_label
_atom_site_fract_x
_atom_site_fract_y
_atom_site_fract_z
Si Si1 0.110615 0.500000 0.500000
Si Si2 0.074057 0.277964 0.172752
Si Si3 0.837947 0.708856 0.313881
Si Si4 0.812737 0.039432 0.189655
O O1 0.075176 0.417311 0.318984
O O2 0.148839 0.358779 0.605351
O O3 0.144808 0.171113 0.205910
O O4 0.000000 0.194049 0.250000
O O5 0.090074 0.313503 0.952913
O O6 0.766716 0.609224 0.371630
O O7 0.812432 0.882942 0.301784
O O8 0.856671 0.000000 0.000000
#
# Coordination Sequence:
#
# PCOD9322083 Si02
#       4
#     4   8   8   8
#     4  12  26  50  78 112 162 206 264 328 388 478
#     4  12  30  50  77 115 163 212 264 324 399 477
#     4  12  27  50  82 117 159 204 267 329 397 471
#     4  12  25  49  79 117 157 204 265 333 394 472
#
# _framework density 24.863664
#
# number of rings (size 3 to 8) (size 9 to 14) (size 15 to 20)
#    0.000    0.000    2.857    6.857    8.000    2.286 
#    0.000    0.000    0.000    0.000    0.000    0.000 
#    0.000    0.000    0.000    0.000    0.000    0.000 
#
# Total GULP energy -78075.793869 kJ/mol
# GULP energy per Si atom -5576.842419 kJ/mol
# Density = 2.480707 g / cm^3
# Si number density = 24.863664 Si / 1000 Ang^3
#
#
#
# Elastic Constant Matrix: (Units=GPa)
#
#
# Indices 1 2 3 4 5 6 
#
# 1 85.6852 24.9885 33.5969 0.0000 0.0000 0.0000
# 2 24.9885 124.4250 50.4025 0.0000 0.0000 0.0000
# 3 33.5969 50.4025 126.4748 0.0000 0.0000 0.0000
# 4 0.0000 0.0000 0.0000 40.7442 0.0000 0.0000
# 5 0.0000 0.0000 0.0000 0.0000 33.2609 0.0000
# 6 0.0000 0.0000 0.0000 0.0000 0.0000 -2.1823
#
#
#
# Elastic Compliance Matrix: (Units=1/GPa)
#
#
# Indices 1 2 3 4 5 6 
#
# 1 0.013250 -0.001473 -0.002933 0.000000 0.000000 0.000000
# 2 -0.001473 0.009748 -0.003493 0.000000 0.000000 0.000000
# 3 -0.002933 -0.003493 0.010078 0.000000 0.000000 0.000000
# 4 0.000000 0.000000 0.000000 0.024543 0.000000 0.000000
# 5 0.000000 0.000000 0.000000 0.000000 0.030065 0.000000
# 6 0.000000 0.000000 0.000000 0.000000 0.000000 -0.458227
#
#
# Mechanical properties :
#
#
# Convention : Reuss Voigt Hill
#
# Bulk Modulus (GPa) = 57.87840 61.61788 59.74814
# Shear Modulus (GPa) = -14.32727 29.53768 7.60521
#
# Velocity S-wave (km/s) = -2.40309 3.45046 1.75083
# Velocity P-wave (km/s) = 3.95336 6.38046 5.30751
#
# Compressibility (1/GPa) = 0.01727760
#
# Stress axis : x y z
#
# Youngs Moduli (GPa) = 75.47090 102.58588 99.22633
#
# Poissons Ratio (x) = 0.15111 0.29101
# Poissons Ratio (y) = 0.11117 0.34664
# Poissons Ratio (z) = 0.22134 0.35838
#
# Static dielectric constant tensor:
#      x y z
#    x 2.156960 0.000000 0.000000 
#    y 0.000000 2.034530 0.000000 
#    z 0.000000 0.000000 2.068110 
# 
# From -- ./inp_files/9033.got.cif
#   From: 2010.05.17/outbox.cif.g08.bks.cpg/sg20_5_cif.got.tgz:9033.got - 2010.06.03 22:52:26.
