data_PCOD9322090
_publ_section_title
;
Structure prediction by ZEFSAII (Michael W. Deem and Ramdas Pophale) SiO2 
 PCOD9322090
Probable space group: C 2 2 21
;
_chemical_formula_sum "Si O2"
_cell_formula_units_Z 32
_cell_length_a 4.865401
_cell_length_b 14.179795
_cell_length_c 16.907659
_cell_angle_alpha 90.000000
_cell_angle_beta 90.000000
_cell_angle_gamma 90.000000
_cell_volume 1166.465968
_symmetry_space_group_name_H-M "C 2 2 21"
_symmetry_group_IT_number 20
_symmetry_cell_setting 'orthorhombic'
loop_
_space_group_symop_operation_xyz
x,y,z
-x,-y,1/2+z
x,-y,-z
-x,y,1/2-z
1/2+x,1/2+y,z
1/2-x,1/2-y,1/2+z
1/2+x,1/2-y,-z
1/2-x,1/2+y,1/2-z
loop_
_atom_site_type_symbol
_atom_site_label
_atom_site_fract_x
_atom_site_fract_y
_atom_site_fract_z
Si Si1 0.740132 0.232261 0.551203
Si Si2 0.000000 0.085008 0.750000
Si Si3 0.900654 0.639798 0.163151
Si Si4 0.428092 0.477821 0.415207
Si Si5 0.000000 0.277873 0.250000
O O1 0.927590 0.254453 0.474363
O O2 0.865815 0.301908 0.617135
O O3 0.795849 0.123788 0.569943
O O4 0.081788 0.030177 0.669565
O O5 0.255347 0.151090 0.771648
O O6 0.793312 0.557738 0.106425
O O7 0.654758 0.710606 0.187978
O O8 0.000000 0.605512 0.250000
O O9 0.570293 0.500000 0.500000
#
# Coordination Sequence:
#
# PCOD9322090 Si02
#       5
#     8   4   8   8   4
#     4  12  29  56  83 121 174 224 280 352 430 503
#     4  12  29  50  85 122 166 226 284 347 429 514
#     4  12  28  52  86 123 170 226 283 354 429 506
#     4  12  28  54  84 129 164 228 287 352 423 514
#     4  12  25  54  83 116 176 226 270 359 429 490
#
# _framework density 27.433294
#
# number of rings (size 3 to 8) (size 9 to 14) (size 15 to 20)
#    0.000    0.000    6.250    0.750    8.750    2.000 
#    9.000    0.000    0.000    0.000    0.000    0.000 
#    0.000    0.000    0.000    0.000    0.000    0.000 
#
# Total GULP energy -89683.859667 kJ/mol
# GULP energy per Si atom -5605.241229 kJ/mol
# Density = 2.737085 g / cm^3
# Si number density = 27.433294 Si / 1000 Ang^3
#
#
#
# Elastic Constant Matrix: (Units=GPa)
#
#
# Indices 1 2 3 4 5 6 
#
# 1 59.9607 -23.1075 -12.8023 0.0000 0.0000 0.0000
# 2 -23.1075 112.0354 33.1670 0.0000 0.0000 0.0000
# 3 -12.8023 33.1670 217.8636 0.0000 0.0000 0.0000
# 4 0.0000 0.0000 0.0000 -30.8505 0.0000 0.0000
# 5 0.0000 0.0000 0.0000 0.0000 43.0664 0.0000
# 6 0.0000 0.0000 0.0000 0.0000 0.0000 21.3017
#
#
#
# Elastic Compliance Matrix: (Units=1/GPa)
#
#
# Indices 1 2 3 4 5 6 
#
# 1 0.018174 0.003594 0.000521 0.000000 0.000000 0.000000
# 2 0.003594 0.010058 -0.001320 0.000000 0.000000 0.000000
# 3 0.000521 -0.001320 0.004822 0.000000 0.000000 0.000000
# 4 0.000000 0.000000 0.000000 -0.032414 0.000000 0.000000
# 5 0.000000 0.000000 0.000000 0.000000 0.023220 0.000000
# 6 0.000000 0.000000 0.000000 0.000000 0.000000 0.046945
#
#
# Mechanical properties :
#
#
# Convention : Reuss Voigt Hill
#
# Bulk Modulus (GPa) = 25.87764 42.70823 34.29293
# Shear Modulus (GPa) = 64.02506 32.87705 48.45105
#
# Velocity S-wave (km/s) = 4.83623 3.46560 4.20711
# Velocity P-wave (km/s) = 6.37486 5.62278 6.01060
#
# Compressibility (1/GPa) = 0.03864340
#
# Stress axis : x y z
#
# Youngs Moduli (GPa) = 55.02393 99.42502 207.40096
#
# Poissons Ratio (x) = -0.35736 -0.10801
# Poissons Ratio (y) = -0.19777 0.27376
# Poissons Ratio (z) = -0.02866 0.13124
#
# Static dielectric constant tensor:
#      x y z
#    x 2.206780 0.000000 0.000000 
#    y 0.000000 2.076380 0.000000 
#    z 0.000000 0.000000 3.476300 
# 
# From -- ./inp_files/22505.got.cif
#   From: 2010.05.17/outbox.cif.g08.bks.cpg/sg20_12_cif.got.tgz:22505.got - 2010.06.03 22:52:26.
