data_PCOD9322424
_publ_section_title
;
Structure prediction by ZEFSAII (Michael W. Deem and Ramdas Pophale) SiO2 
 PCOD9322424
Probable space group: C 2 2 2
;
_chemical_formula_sum "Si O2"
_cell_formula_units_Z 30
_cell_length_a 7.024089
_cell_length_b 17.034280
_cell_length_c 10.577705
_cell_angle_alpha 90.000000
_cell_angle_beta 90.000000
_cell_angle_gamma 90.000000
_cell_volume 1265.625564
_symmetry_space_group_name_H-M "C 2 2 2"
_symmetry_group_IT_number 21
_symmetry_cell_setting 'orthorhombic'
loop_
_space_group_symop_operation_xyz
x,y,z
-x,-y,z
x,-y,-z
-x,y,-z
1/2+x,1/2+y,z
1/2-x,1/2-y,z
1/2+x,1/2-y,-z
1/2-x,1/2+y,-z
loop_
_atom_site_type_symbol
_atom_site_label
_atom_site_fract_x
_atom_site_fract_y
_atom_site_fract_z
Si Si1 0.731983 0.487984 0.645323
Si Si2 0.500000 0.500000 0.000000
Si Si3 0.750000 0.250000 0.006574
Si Si4 0.761359 0.116980 0.181378
Si Si5 0.357137 0.324252 0.247866
O O1 0.500000 0.500000 0.651903
O O2 0.782474 0.500000 0.500000
O O3 0.834776 0.556462 0.724222
O O4 0.747976 0.402556 0.708217
O O5 0.369955 0.556256 0.086887
O O6 0.658135 0.184573 0.100325
O O7 0.647596 0.305630 0.903225
O O8 0.918920 0.162784 0.266245
O O9 0.250000 0.250000 0.306837
#
# Coordination Sequence:
#
# PCOD9322424 Si02
#       5
#     8   2   4   8   8
#     4   9  17  31  50  71  95 127 167 199 234 280
#     4  12  12  28  50  68  90 122 160 202 240 270
#     4  10  18  26  44  78 104 118 154 200 252 282
#     4  11  17  29  49  73  97 125 157 200 242 288
#     4   9  17  29  47  73  99 123 151 206 245 275
#
# _framework density 23.703693999999999
#
# number of rings (size 3 to 8) (size 9 to 14) (size 15 to 20)
#    0.800    1.333    6.667    0.000    0.000    0.000 
#    2.400    0.000    0.000    1.600    6.933    1.867 
#    0.000    0.000    0.000    0.000    0.000    0.000 
#
# Total GULP energy -83509.511063 kJ/mol
# GULP energy per Si atom -5567.300738 kJ/mol
# Density = 2.364974 g / cm^3
# Si number density = 23.703694 Si / 1000 Ang^3
#
#
#
# Elastic Constant Matrix: (Units=GPa)
#
#
# Indices 1 2 3 4 5 6 
#
# 1 75.5698 36.6628 5.2429 0.0000 0.0000 0.0000
# 2 36.6628 225.3889 95.6181 0.0000 0.0000 0.0000
# 3 5.2429 95.6181 129.1924 0.0000 0.0000 0.0000
# 4 0.0000 0.0000 0.0000 17.2813 0.0000 0.0000
# 5 0.0000 0.0000 0.0000 0.0000 5.8728 0.0000
# 6 0.0000 0.0000 0.0000 0.0000 0.0000 39.0604
#
#
#
# Elastic Compliance Matrix: (Units=1/GPa)
#
#
# Indices 1 2 3 4 5 6 
#
# 1 0.014618 -0.003099 0.001701 0.000000 0.000000 0.000000
# 2 -0.003099 0.007125 -0.005147 0.000000 0.000000 0.000000
# 3 0.001701 -0.005147 0.011481 0.000000 0.000000 0.000000
# 4 0.000000 0.000000 0.000000 0.057866 0.000000 0.000000
# 5 0.000000 0.000000 0.000000 0.000000 0.170276 0.000000
# 6 0.000000 0.000000 0.000000 0.000000 0.000000 0.025601
#
#
# Mechanical properties :
#
#
# Convention : Reuss Voigt Hill
#
# Bulk Modulus (GPa) = 49.67195 78.35540 64.01367
# Shear Modulus (GPa) = 16.29885 31.95137 24.12511
#
# Velocity S-wave (km/s) = 2.62507 3.67543 3.19373
# Velocity P-wave (km/s) = 5.49444 7.15120 6.37685
#
# Compressibility (1/GPa) = 0.02013209
#
# Stress axis : x y z
#
# Youngs Moduli (GPa) = 68.40648 140.35846 87.10033
#
# Poissons Ratio (x) = 0.43503 -0.14813
# Poissons Ratio (y) = 0.21202 0.44833
# Poissons Ratio (z) = -0.11634 0.72247
#
# Static dielectric constant tensor:
#      x y z
#    x 2.099940 0.000000 0.000000 
#    y 0.000000 1.895200 0.000000 
#    z 0.000000 0.000000 1.896580 
# 
# From -- ./inp_files/23659.got.cif
#   From: 2010.05.17/outbox.cif.g08.bks.cpg/sg21_12_cif.got.tgz:23659.got - 2010.06.03 23:14:55.
