data_PCOD9322005
_publ_section_title
;
Structure prediction by ZEFSAII (Michael W. Deem and Ramdas Pophale) SiO2 
 PCOD9322005
Probable space group: C 2 2 21
;
_chemical_formula_sum "Si O2"
_cell_formula_units_Z 36
_cell_length_a 20.250711
_cell_length_b 13.858204
_cell_length_c 5.333739
_cell_angle_alpha 90.000000
_cell_angle_beta 90.000000
_cell_angle_gamma 90.000000
_cell_volume 1496.852428
_symmetry_space_group_name_H-M "C 2 2 21"
_symmetry_group_IT_number 20
_symmetry_cell_setting 'orthorhombic'
loop_
_space_group_symop_operation_xyz
x,y,z
-x,-y,1/2+z
x,-y,-z
-x,y,1/2-z
1/2+x,1/2+y,z
1/2-x,1/2-y,1/2+z
1/2+x,1/2-y,-z
1/2-x,1/2+y,1/2-z
loop_
_atom_site_type_symbol
_atom_site_label
_atom_site_fract_x
_atom_site_fract_y
_atom_site_fract_z
Si Si1 0.500000 0.664027 0.250000
Si Si2 0.161093 0.000000 0.500000
Si Si3 0.000000 0.722605 0.250000
Si Si4 0.912694 0.000000 0.500000
Si Si5 0.648383 0.163992 0.182939
Si Si6 0.762697 0.841377 0.150011
Si Si7 0.289930 0.000000 0.000000
O O1 0.523290 0.724925 0.490424
O O2 0.450428 0.592218 0.391973
O O3 0.120258 0.032918 0.739941
O O4 0.205493 0.092196 0.432508
O O5 0.930239 0.674483 0.330104
O O6 0.689975 0.249964 0.322380
O O7 0.665415 0.060560 0.305382
O O8 0.686432 0.176671 0.918453
O O9 0.755273 0.918026 0.373291
#
# Coordination Sequence:
#
# PCOD9322005 Si02
#       7
#     4   4   4   4   8   8   4
#     4  12  25  50  69 116 156 224 260 328 414 508
#     4  12  25  42  73 119 149 202 260 342 400 472
#     4  12  31  50  79 110 172 216 276 326 420 480
#     4  12  24  42  74 108 159 199 260 330 407 494
#     4  12  27  51  78 117 157 219 263 347 397 502
#     4  12  25  45  81 114 158 203 275 337 413 481
#     4  12  25  50  79 119 152 213 280 336 413 482
#
# _framework density 24.050467999999999
#
# number of rings (size 3 to 8) (size 9 to 14) (size 15 to 20)
#    0.000    0.000    4.444    6.000    3.111    1.778 
#    4.000    0.000    0.000    0.000    0.000    0.000 
#    0.000    0.000    0.000    0.000    0.000    0.000 
#
# Total GULP energy -100347.246331 kJ/mol
# GULP energy per Si atom -5574.847018 kJ/mol
# Density = 2.399573 g / cm^3
# Si number density = 24.050468 Si / 1000 Ang^3
#
#
#
# Elastic Constant Matrix: (Units=GPa)
#
#
# Indices 1 2 3 4 5 6 
#
# 1 153.7809 31.7695 49.4039 0.0000 0.0000 0.0000
# 2 31.7695 93.8000 34.2065 0.0000 0.0000 0.0000
# 3 49.4039 34.2065 149.5507 0.0000 0.0000 0.0000
# 4 0.0000 0.0000 0.0000 49.8284 0.0000 0.0000
# 5 0.0000 0.0000 0.0000 0.0000 29.0916 0.0000
# 6 0.0000 0.0000 0.0000 0.0000 0.0000 6.7925
#
#
#
# Elastic Compliance Matrix: (Units=1/GPa)
#
#
# Indices 1 2 3 4 5 6 
#
# 1 0.007542 -0.001796 -0.002081 0.000000 0.000000 0.000000
# 2 -0.001796 0.012059 -0.002165 0.000000 0.000000 0.000000
# 3 -0.002081 -0.002165 0.007869 0.000000 0.000000 0.000000
# 4 0.000000 0.000000 0.000000 0.020069 0.000000 0.000000
# 5 0.000000 0.000000 0.000000 0.000000 0.034374 0.000000
# 6 0.000000 0.000000 0.000000 0.000000 0.000000 0.147221
#
#
# Mechanical properties :
#
#
# Convention : Reuss Voigt Hill
#
# Bulk Modulus (GPa) = 64.98899 69.76571 67.37735
# Shear Modulus (GPa) = 20.29666 35.92596 28.11131
#
# Velocity S-wave (km/s) = 2.90818 3.86913 3.42255
# Velocity P-wave (km/s) = 6.19332 7.00223 6.61016
#
# Compressibility (1/GPa) = 0.01538722
#
# Stress axis : x y z
#
# Youngs Moduli (GPa) = 132.58694 82.92789 127.07635
#
# Poissons Ratio (x) = 0.14891 0.26443
# Poissons Ratio (y) = 0.23808 0.27512
# Poissons Ratio (z) = 0.27589 0.17954
#
# Static dielectric constant tensor:
#      x y z
#    x 2.050080 0.000000 0.000000 
#    y 0.000000 2.085230 0.000000 
#    z 0.000000 0.000000 2.155130 
# 
# From -- ./inp_files/1813.got.cif
#   From: 2010.05.17/outbox.cif.g08.bks.cpg/sg20_1_cif.got.tgz:1813.got - 2010.06.03 22:52:26.
