data_PCOD9322188
_publ_section_title
;
Structure prediction by ZEFSAII (Michael W. Deem and Ramdas Pophale) SiO2 
 PCOD9322188
Probable space group: C 2 2 21
;
_chemical_formula_sum "Si O2"
_cell_formula_units_Z 20
_cell_length_a 9.000000
_cell_length_b 24.000000
_cell_length_c 9.000000
_cell_angle_alpha 90.000000
_cell_angle_beta 90.000000
_cell_angle_gamma 90.000000
_cell_volume 1944.000000
_symmetry_space_group_name_H-M "C 2 2 21"
_symmetry_group_IT_number 20
_symmetry_cell_setting 'orthorhombic'
loop_
_space_group_symop_operation_xyz
x,y,z
-x,-y,1/2+z
x,-y,-z
-x,y,1/2-z
1/2+x,1/2+y,z
1/2-x,1/2-y,1/2+z
1/2+x,1/2-y,-z
1/2-x,1/2+y,1/2-z
loop_
_atom_site_type_symbol
_atom_site_label
_atom_site_fract_x
_atom_site_fract_y
_atom_site_fract_z
Si Si1 0.820319 0.581933 0.285854
Si Si2 0.157275 0.326757 0.000748
Si Si3 0.827584 0.226668 0.713988
Si Si4 0.650247 0.971654 0.338017
Si Si5 0.807980 0.359331 0.013880
O O1 0.792661 0.611619 0.443041
O O2 0.767468 0.518688 0.259563
O O3 0.000000 0.579730 0.250000
O O4 0.766033 0.618823 0.148239
O O5 0.192495 0.288159 0.856587
O O6 0.230785 0.298003 0.146843
O O7 0.978550 0.335961 0.019234
O O8 0.793624 0.188941 0.572379
O O9 0.000000 0.222552 0.750000
O O10 0.500000 0.959674 0.250000
O O11 0.714616 0.911818 0.376688
O O12 0.620301 0.000000 0.500000
#
# Coordination Sequence:
#
# PCOD9322188 Si02
#       5
#     8   8   8   8   8
#     4   8  16  32  56  83 109 138 185 242 288 333
#     4  11  21  38  58  80 110 149 190 235 284 337
#     4  12  24  36  54  81 113 148 187 232 278 338
#     4   9  16  28  52  84 111 138 182 241 291 333
#     4  10  20  36  57  82 112 147 187 232 286 341
#
# _framework density 10.288066000000001
#
# number of rings (size 3 to 8) (size 9 to 14) (size 15 to 20)
#    0.000    2.000    0.000    7.200    0.000    0.000 
#    0.000    3.000    0.000    7.200    0.000    0.000 
#    0.000    0.000    0.000    0.000    0.000    0.000 
#
# Total GULP energy -111409.767689 kJ/mol
# GULP energy per Si atom -5570.488384 kJ/mol
# Density = 1.026465 g / cm^3
# Si number density = 10.288066 Si / 1000 Ang^3
#
#
#
# Elastic Constant Matrix: (Units=GPa)
#
#
# Indices 1 2 3 4 5 6 
#
# 1 -11.7836 -11.2133 -11.0370 0.0000 0.0000 0.0000
# 2 -11.2133 112.6678 10.8635 0.0000 0.0000 0.0000
# 3 -11.0370 10.8635 34.6078 0.0000 0.0000 0.0000
# 4 0.0000 0.0000 0.0000 21.9379 0.0000 0.0000
# 5 0.0000 0.0000 0.0000 0.0000 25.3242 0.0000
# 6 0.0000 0.0000 0.0000 0.0000 0.0000 15.4646
#
#
#
# Elastic Compliance Matrix: (Units=1/GPa)
#
#
# Indices 1 2 3 4 5 6 
#
# 1 -0.063079 -0.004474 -0.018713 0.000000 0.000000 0.000000
# 2 -0.004474 0.008835 -0.004200 0.000000 0.000000 0.000000
# 3 -0.018713 -0.004200 0.024246 0.000000 0.000000 0.000000
# 4 0.000000 0.000000 0.000000 0.045583 0.000000 0.000000
# 5 0.000000 0.000000 0.000000 0.000000 0.039488 0.000000
# 6 0.000000 0.000000 0.000000 0.000000 0.000000 0.064664
#
#
# Mechanical properties :
#
#
# Convention : Reuss Voigt Hill
#
# Bulk Modulus (GPa) = -11.79646 12.52426 0.36390
# Shear Modulus (GPa) = 34.18729 22.33726 28.26227
#
# Velocity S-wave (km/s) = 4.08057 3.29840 3.71016
# Velocity P-wave (km/s) = 4.05659 4.53938 4.30476
#
# Compressibility (1/GPa) = -0.08477121
#
# Stress axis : x y z
#
# Youngs Moduli (GPa) = -15.85306 113.18123 41.24405
#
# Poissons Ratio (x) = 0.50634 0.77179
# Poissons Ratio (y) = -0.07092 0.17323
# Poissons Ratio (z) = -0.29665 0.47538
#
# Static dielectric constant tensor:
#      x y z
#    x 1.730440 0.000000 0.000000 
#    y 0.000000 1.816090 0.000000 
#    z 0.000000 0.000000 1.782600 
# 
# From -- ./inp_files/6118.got.cif
#   From: 2010.05.17/outbox.ucp.g08.bks.cvg/sg20_4_cif.got.tgz:6118.got - 2010.06.11 15:13:06.
