data_PCOD9322080
_publ_section_title
;
Structure prediction by ZEFSAII (Michael W. Deem and Ramdas Pophale) SiO2 
 PCOD9322080
Probable space group: C 2 2 21
;
_chemical_formula_sum "Si O2"
_cell_formula_units_Z 36
_cell_length_a 8.829810
_cell_length_b 19.657477
_cell_length_c 8.197831
_cell_angle_alpha 90.000000
_cell_angle_beta 90.000000
_cell_angle_gamma 90.000000
_cell_volume 1422.912176
_symmetry_space_group_name_H-M "C 2 2 21"
_symmetry_group_IT_number 20
_symmetry_cell_setting 'orthorhombic'
loop_
_space_group_symop_operation_xyz
x,y,z
-x,-y,1/2+z
x,-y,-z
-x,y,1/2-z
1/2+x,1/2+y,z
1/2-x,1/2-y,1/2+z
1/2+x,1/2-y,-z
1/2-x,1/2+y,1/2-z
loop_
_atom_site_type_symbol
_atom_site_label
_atom_site_fract_x
_atom_site_fract_y
_atom_site_fract_z
Si Si1 0.205019 0.387104 0.817660
Si Si2 0.016579 0.728225 0.993235
Si Si3 0.500000 0.333541 0.250000
Si Si4 0.295040 0.114570 0.923332
Si Si5 0.500000 0.996601 0.250000
Si Si6 0.000000 0.164702 0.250000
O O1 0.124027 0.323076 0.905596
O O2 0.207782 0.391304 0.619544
O O3 0.104882 0.452573 0.857874
O O4 0.382952 0.380747 0.851449
O O5 0.935670 0.779735 0.118386
O O6 0.895675 0.682050 0.900221
O O7 0.087781 0.782741 0.868655
O O8 0.365597 0.375613 0.334032
O O9 0.384398 0.051958 0.845138
#
# Coordination Sequence:
#
# PCOD9322080 Si02
#       6
#     8   8   4   8   4   4
#     4  12  26  50  77 113 162 210 261 342 390 486
#     4  12  25  48  80 120 160 203 260 330 421 480
#     4  12  25  49  82 119 161 204 266 338 416 478
#     4  12  26  48  76 118 155 214 264 331 397 486
#     4  12  28  50  80 104 156 226 282 316 410 478
#     4  12  29  45  84 119 161 206 270 340 414 482
#
# _framework density 25.300225999999999
#
# number of rings (size 3 to 8) (size 9 to 14) (size 15 to 20)
#    0.000    0.000    6.667    2.667    0.000    4.444 
#    0.000    0.000    0.000    0.000    0.000    0.000 
#    0.000    0.000    0.000    0.000    0.000    0.000 
#
# Total GULP energy -100635.474627 kJ/mol
# GULP energy per Si atom -5590.859701 kJ/mol
# Density = 2.524264 g / cm^3
# Si number density = 25.300226 Si / 1000 Ang^3
#
#
#
# Elastic Constant Matrix: (Units=GPa)
#
#
# Indices 1 2 3 4 5 6 
#
# 1 200.2689 92.4536 51.4622 0.0000 0.0000 0.0000
# 2 92.4536 159.0034 52.1346 0.0000 0.0000 0.0000
# 3 51.4622 52.1346 78.6027 0.0000 0.0000 0.0000
# 4 0.0000 0.0000 0.0000 55.7919 0.0000 0.0000
# 5 0.0000 0.0000 0.0000 0.0000 47.8331 0.0000
# 6 0.0000 0.0000 0.0000 0.0000 0.0000 37.1302
#
#
#
# Elastic Compliance Matrix: (Units=1/GPa)
#
#
# Indices 1 2 3 4 5 6 
#
# 1 0.007182 -0.003366 -0.002469 0.000000 0.000000 0.000000
# 2 -0.003366 0.009615 -0.004173 0.000000 0.000000 0.000000
# 3 -0.002469 -0.004173 0.017107 0.000000 0.000000 0.000000
# 4 0.000000 0.000000 0.000000 0.017924 0.000000 0.000000
# 5 0.000000 0.000000 0.000000 0.000000 0.020906 0.000000
# 6 0.000000 0.000000 0.000000 0.000000 0.000000 0.026932
#
#
# Mechanical properties :
#
#
# Convention : Reuss Voigt Hill
#
# Bulk Modulus (GPa) = 72.01560 92.21954 82.11757
# Shear Modulus (GPa) = 40.22138 44.27268 42.24703
#
# Velocity S-wave (km/s) = 3.99151 4.18771 4.09079
# Velocity P-wave (km/s) = 7.05472 7.74027 7.40543
#
# Compressibility (1/GPa) = 0.01388588
#
# Stress axis : x y z
#
# Youngs Moduli (GPa) = 139.23982 104.00548 58.45600
#
# Poissons Ratio (x) = 0.35011 0.14435
# Poissons Ratio (y) = 0.46872 0.24395
# Poissons Ratio (z) = 0.34382 0.43404
#
# Static dielectric constant tensor:
#      x y z
#    x 2.031770 0.000000 0.000000 
#    y 0.000000 1.932860 0.000000 
#    z 0.000000 0.000000 2.145140 
# 
# From -- ./inp_files/5960.got.cif
#   From: 2010.05.17/outbox.cif.g08.bks.cpg/sg20_3_cif.got.tgz:5960.got - 2010.06.03 22:52:26.
