data_PCOD9322176
_publ_section_title
;
Structure prediction by ZEFSAII (Michael W. Deem and Ramdas Pophale) SiO2 
 PCOD9322176
Probable space group: C 2 2 21
;
_chemical_formula_sum "Si O2"
_cell_formula_units_Z 20
_cell_length_a 12.000000
_cell_length_b 15.000000
_cell_length_c 12.000000
_cell_angle_alpha 90.000000
_cell_angle_beta 90.000000
_cell_angle_gamma 90.000000
_cell_volume 2160.000000
_symmetry_space_group_name_H-M "C 2 2 21"
_symmetry_group_IT_number 20
_symmetry_cell_setting 'orthorhombic'
loop_
_space_group_symop_operation_xyz
x,y,z
-x,-y,1/2+z
x,-y,-z
-x,y,1/2-z
1/2+x,1/2+y,z
1/2-x,1/2-y,1/2+z
1/2+x,1/2-y,-z
1/2-x,1/2+y,1/2-z
loop_
_atom_site_type_symbol
_atom_site_label
_atom_site_fract_x
_atom_site_fract_y
_atom_site_fract_z
Si Si1 0.500000 0.057239 0.250000
Si Si2 0.807286 0.590653 0.079235
Si Si3 0.874513 0.300480 0.129488
Si Si4 0.384695 0.107926 0.641447
Si Si5 0.628331 0.403295 0.714986
Si Si6 0.228908 0.000000 0.500000
O O1 0.416137 0.101579 0.160473
O O2 0.573579 0.990509 0.175415
O O3 0.706572 0.590007 0.171990
O O4 0.811788 0.500000 0.000000
O O5 0.811355 0.667441 0.983029
O O6 0.835797 0.351770 0.243158
O O7 0.866494 0.196849 0.162313
O O8 0.004533 0.333332 0.115170
O O9 0.301711 0.085895 0.541118
O O10 0.500000 0.419736 0.750000
O O11 0.664516 0.468673 0.612794
#
# Coordination Sequence:
#
# PCOD9322176 Si02
#       6
#     4   8   8   8   8   4
#     4  10  18  36  66 108 120 150 226 274 326 368
#     4  12  22  41  72  99 130 175 222 274 329 398
#     4  10  22  40  69  94 138 162 215 284 333 372
#     4  10  18  40  69  97 124 164 215 281 334 358
#     4  12  28  44  61  98 136 188 215 261 335 401
#     4  12  24  42  72  92 130 174 232 272 320 398
#
# _framework density 9.2592590000000001
#
# number of rings (size 3 to 8) (size 9 to 14) (size 15 to 20)
#    0.000    1.200    8.000    1.200    4.200    0.000 
#    0.000    0.000    2.200    0.000    0.000    0.000 
#    0.000    0.000    0.000    0.000    0.000    0.000 
#
# Total GULP energy -111437.970165 kJ/mol
# GULP energy per Si atom -5571.898508 kJ/mol
# Density = 0.923818 g / cm^3
# Si number density = 9.259259 Si / 1000 Ang^3
#
#
#
# Elastic Constant Matrix: (Units=GPa)
#
#
# Indices 1 2 3 4 5 6 
#
# 1 83.1940 19.3978 66.2101 0.0000 0.0000 0.0000
# 2 19.3978 68.6150 34.0695 0.0000 0.0000 0.0000
# 3 66.2101 34.0695 159.0323 0.0000 0.0000 0.0000
# 4 0.0000 0.0000 0.0000 34.5877 0.0000 0.0000
# 5 0.0000 0.0000 0.0000 0.0000 40.9642 0.0000
# 6 0.0000 0.0000 0.0000 0.0000 0.0000 15.0179
#
#
#
# Elastic Compliance Matrix: (Units=1/GPa)
#
#
# Indices 1 2 3 4 5 6 
#
# 1 0.018121 -0.001541 -0.007214 0.000000 0.000000 0.000000
# 2 -0.001541 0.016440 -0.002880 0.000000 0.000000 0.000000
# 3 -0.007214 -0.002880 0.009909 0.000000 0.000000 0.000000
# 4 0.000000 0.000000 0.000000 0.028912 0.000000 0.000000
# 5 0.000000 0.000000 0.000000 0.000000 0.024412 0.000000
# 6 0.000000 0.000000 0.000000 0.000000 0.000000 0.066587
#
#
# Mechanical properties :
#
#
# Convention : Reuss Voigt Hill
#
# Bulk Modulus (GPa) = 47.17317 61.13290 54.15303
# Shear Modulus (GPa) = 25.67831 30.85822 28.26827
#
# Velocity S-wave (km/s) = 3.72779 4.08652 3.91127
# Velocity P-wave (km/s) = 6.63757 7.43973 7.05007
#
# Compressibility (1/GPa) = 0.02119849
#
# Stress axis : x y z
#
# Youngs Moduli (GPa) = 55.18538 60.82763 100.92258
#
# Poissons Ratio (x) = 0.09372 0.72807
# Poissons Ratio (y) = 0.08503 0.29070
# Poissons Ratio (z) = 0.39812 0.17521
#
# Static dielectric constant tensor:
#      x y z
#    x 1.705380 0.000000 0.000000 
#    y 0.000000 1.666210 0.000000 
#    z 0.000000 0.000000 1.660230 
# 
# From -- ./inp_files/13941.got.cif
#   From: 2010.05.17/outbox.ucp.g08.bks.cvg/sg20_7_cif.got.tgz:13941.got - 2010.06.11 15:13:06.
