data_PCOD9322668
_publ_section_title
;
Structure prediction by ZEFSAII (Michael W. Deem and Ramdas Pophale) SiO2 
 PCOD9322668
Probable space group: C 2 2 2
;
_chemical_formula_sum "Si O2"
_cell_formula_units_Z 32
_cell_length_a 5.263273
_cell_length_b 28.156245
_cell_length_c 8.972160
_cell_angle_alpha 90.000000
_cell_angle_beta 90.000000
_cell_angle_gamma 90.000000
_cell_volume 1329.620316
_symmetry_space_group_name_H-M "C 2 2 2"
_symmetry_group_IT_number 21
_symmetry_cell_setting 'orthorhombic'
loop_
_space_group_symop_operation_xyz
x,y,z
-x,-y,z
x,-y,-z
-x,y,-z
1/2+x,1/2+y,z
1/2-x,1/2-y,z
1/2+x,1/2-y,-z
1/2-x,1/2+y,-z
loop_
_atom_site_type_symbol
_atom_site_label
_atom_site_fract_x
_atom_site_fract_y
_atom_site_fract_z
Si Si1 0.500000 0.000000 0.500000
Si Si2 0.153495 0.340588 0.230958
Si Si3 0.000000 0.103175 0.000000
Si Si4 0.604219 0.064974 0.241654
Si Si5 0.000000 0.500000 0.000000
Si Si6 0.750000 0.250000 0.593092
Si Si7 0.500000 0.779177 0.000000
O O1 0.657800 0.032905 0.385546
O O2 0.296326 0.300513 0.323948
O O3 0.940392 0.310233 0.144805
O O4 0.018787 0.386322 0.300005
O O5 0.322212 0.362989 0.099695
O O6 0.164862 0.074918 0.873539
O O7 0.406668 0.037475 0.128355
O O8 0.500000 0.240077 0.500000
O O9 0.250000 0.750000 0.965058
#
# Coordination Sequence:
#
# PCOD9322668 Si02
#       7
#     2   8   4   8   2   4   4
#     4  10  28  50  74 110 172 208 260 338 450 500
#     4  12  26  44  77 111 152 203 270 334 398 483
#     4  12  23  45  81 117 146 206 282 341 405 486
#     4  11  24  46  75 112 155 208 259 346 406 504
#     4  10  18  48  66 106 154 196 268 330 396 482
#     4  12  34  50  72 110 170 222 266 330 422 510
#     4  12  24  40  72 118 154 192 260 341 385 460
#
# _framework density 24.067019999999999
#
# number of rings (size 3 to 8) (size 9 to 14) (size 15 to 20)
#    0.000    0.500    6.250    0.750    7.000    0.500 
#    0.000    1.250    0.000    0.000    0.000    0.000 
#    0.000    0.000    0.000    0.000    0.000    0.000 
#
# Total GULP energy -89099.788117 kJ/mol
# GULP energy per Si atom -5568.736757 kJ/mol
# Density = 2.401224 g / cm^3
# Si number density = 24.067020 Si / 1000 Ang^3
#
#
#
# Elastic Constant Matrix: (Units=GPa)
#
#
# Indices 1 2 3 4 5 6 
#
# 1 78.9105 30.5275 36.0996 0.0000 0.0000 0.0000
# 2 30.5275 163.2094 71.1228 0.0000 0.0000 0.0000
# 3 36.0996 71.1228 135.9179 0.0000 0.0000 0.0000
# 4 0.0000 0.0000 0.0000 75.7089 0.0000 0.0000
# 5 0.0000 0.0000 0.0000 0.0000 16.7314 0.0000
# 6 0.0000 0.0000 0.0000 0.0000 0.0000 4.8311
#
#
#
# Elastic Compliance Matrix: (Units=1/GPa)
#
#
# Indices 1 2 3 4 5 6 
#
# 1 0.014653 -0.001353 -0.003183 0.000000 0.000000 0.000000
# 2 -0.001353 0.008062 -0.003859 0.000000 0.000000 0.000000
# 3 -0.003183 -0.003859 0.010222 0.000000 0.000000 0.000000
# 4 0.000000 0.000000 0.000000 0.013208 0.000000 0.000000
# 5 0.000000 0.000000 0.000000 0.000000 0.059768 0.000000
# 6 0.000000 0.000000 0.000000 0.000000 0.000000 0.206992
#
#
# Mechanical properties :
#
#
# Convention : Reuss Voigt Hill
#
# Bulk Modulus (GPa) = 61.93984 72.61529 67.27756
# Shear Modulus (GPa) = 14.92186 35.47347 25.19767
#
# Velocity S-wave (km/s) = 2.49271 3.84336 3.23922
# Velocity P-wave (km/s) = 5.83756 7.06632 6.48112
#
# Compressibility (1/GPa) = 0.01614470
#
# Stress axis : x y z
#
# Youngs Moduli (GPa) = 68.24755 124.03883 97.82491
#
# Poissons Ratio (x) = 0.16787 0.31143
# Poissons Ratio (y) = 0.09237 0.37753
# Poissons Ratio (z) = 0.21727 0.47869
#
# Static dielectric constant tensor:
#      x y z
#    x 1.963460 0.000000 0.000000 
#    y 0.000000 2.058900 0.000000 
#    z 0.000000 0.000000 1.987610 
# 
# From -- ./inp_files/9280.got.cif
#   From: 2010.05.17/outbox.cif.g08.bks.cpg/sg21_5_cif.got.tgz:9280.got - 2010.06.03 23:14:55.
