data_PCOD9322114
_publ_section_title
;
Structure prediction by ZEFSAII (Michael W. Deem and Ramdas Pophale) SiO2 
 PCOD9322114
Probable space group: C 2 2 21
;
_chemical_formula_sum "Si O2"
_cell_formula_units_Z 40
_cell_length_a 18.494300
_cell_length_b 8.421500
_cell_length_c 10.390439
_cell_angle_alpha 90.000000
_cell_angle_beta 90.000000
_cell_angle_gamma 90.000000
_cell_volume 1618.308250
_symmetry_space_group_name_H-M "C 2 2 21"
_symmetry_group_IT_number 20
_symmetry_cell_setting 'orthorhombic'
loop_
_space_group_symop_operation_xyz
x,y,z
-x,-y,1/2+z
x,-y,-z
-x,y,1/2-z
1/2+x,1/2+y,z
1/2-x,1/2-y,1/2+z
1/2+x,1/2-y,-z
1/2-x,1/2+y,1/2-z
loop_
_atom_site_type_symbol
_atom_site_label
_atom_site_fract_x
_atom_site_fract_y
_atom_site_fract_z
Si Si1 0.419358 0.706393 0.778979
Si Si2 0.042101 0.327592 0.453992
Si Si3 0.701800 0.899420 0.872897
Si Si4 0.408035 0.605194 0.374242
Si Si5 0.180883 0.316769 0.288521
O O1 0.500000 0.765766 0.750000
O O2 0.363779 0.798760 0.687882
O O3 0.417709 0.520915 0.741669
O O4 0.414826 0.740435 0.930014
O O5 0.014727 0.500000 0.500000
O O6 0.103246 0.359128 0.347803
O O7 0.977196 0.216600 0.404626
O O8 0.769306 0.781955 0.884489
O O9 0.720613 0.028886 0.763307
O O10 0.684946 0.000000 0.000000
O O11 0.396178 0.500000 0.500000
O O12 0.340454 0.711522 0.335049
#
# Coordination Sequence:
#
# PCOD9322114 Si02
#       5
#     8   8   8   8   8
#     4  12  26  50  79 114 160 199 271 334 399 485
#     4  12  28  49  80 116 162 211 265 333 411 476
#     4  12  30  51  79 114 160 217 272 338 406 484
#     4  12  27  47  79 117 155 208 265 335 403 480
#     4  12  29  49  77 113 160 214 268 328 409 479
#
# _framework density 24.717169999999999
#
# number of rings (size 3 to 8) (size 9 to 14) (size 15 to 20)
#    0.000    0.000    4.000    4.200    8.400    0.000 
#    0.000    0.000    0.000    0.000    0.000    0.000 
#    0.000    0.000    0.000    0.000    0.000    0.000 
#
# Total GULP energy -112090.458158 kJ/mol
# GULP energy per Si atom -5604.522908 kJ/mol
# Density = 2.466091 g / cm^3
# Si number density = 24.717170 Si / 1000 Ang^3
#
#
#
# Elastic Constant Matrix: (Units=GPa)
#
#
# Indices 1 2 3 4 5 6 
#
# 1 98.3661 40.3458 11.9844 0.0000 0.0000 0.0000
# 2 40.3458 155.0273 43.6444 0.0000 0.0000 0.0000
# 3 11.9844 43.6444 67.1809 0.0000 0.0000 0.0000
# 4 0.0000 0.0000 0.0000 45.2679 0.0000 0.0000
# 5 0.0000 0.0000 0.0000 0.0000 34.6793 0.0000
# 6 0.0000 0.0000 0.0000 0.0000 0.0000 46.6079
#
#
#
# Elastic Compliance Matrix: (Units=1/GPa)
#
#
# Indices 1 2 3 4 5 6 
#
# 1 0.011382 -0.002926 -0.000130 0.000000 0.000000 0.000000
# 2 -0.002926 0.008646 -0.005095 0.000000 0.000000 0.000000
# 3 -0.000130 -0.005095 0.018218 0.000000 0.000000 0.000000
# 4 0.000000 0.000000 0.000000 0.022091 0.000000 0.000000
# 5 0.000000 0.000000 0.000000 0.000000 0.028836 0.000000
# 6 0.000000 0.000000 0.000000 0.000000 0.000000 0.021456
#
#
# Mechanical properties :
#
#
# Convention : Reuss Voigt Hill
#
# Bulk Modulus (GPa) = 45.56753 56.94706 51.25730
# Shear Modulus (GPa) = 37.24534 40.28432 38.76483
#
# Velocity S-wave (km/s) = 3.88604 4.04147 3.96452
# Velocity P-wave (km/s) = 6.21375 6.69832 6.46058
#
# Compressibility (1/GPa) = 0.02194545
#
# Stress axis : x y z
#
# Youngs Moduli (GPa) = 87.85893 115.65634 54.88937
#
# Poissons Ratio (x) = 0.33836 0.00712
# Poissons Ratio (y) = 0.25704 0.27967
# Poissons Ratio (z) = 0.01140 0.58929
#
# Static dielectric constant tensor:
#      x y z
#    x 1.900360 0.000000 0.000000 
#    y 0.000000 1.955550 0.000000 
#    z 0.000000 0.000000 2.057030 
# 
# From -- ./inp_files/15565.got.cif
#   From: 2010.05.17/outbox.cif.g08.bks.cpg/sg20_8_cif.got.tgz:15565.got - 2010.06.03 22:52:26.
