data_PCOD9322876
_publ_section_title
;
Structure prediction by ZEFSAII (Michael W. Deem and Ramdas Pophale) SiO2 
 PCOD9322876
Probable space group: C 2 2 2
;
_chemical_formula_sum "Si O2"
_cell_formula_units_Z 64
_cell_length_a 24.609889
_cell_length_b 12.048702
_cell_length_c 11.917887
_cell_angle_alpha 90.000000
_cell_angle_beta 90.000000
_cell_angle_gamma 90.000000
_cell_volume 3533.858707
_symmetry_space_group_name_H-M "C 2 2 2"
_symmetry_group_IT_number 21
_symmetry_cell_setting 'orthorhombic'
loop_
_space_group_symop_operation_xyz
x,y,z
-x,-y,z
x,-y,-z
-x,y,-z
1/2+x,1/2+y,z
1/2-x,1/2-y,z
1/2+x,1/2-y,-z
1/2-x,1/2+y,-z
loop_
_atom_site_type_symbol
_atom_site_label
_atom_site_fract_x
_atom_site_fract_y
_atom_site_fract_z
Si Si1 0.844553 0.605582 0.752517
Si Si2 0.691042 0.696894 0.174851
Si Si3 0.149635 0.821040 0.398891
Si Si4 0.720076 0.542579 0.742469
Si Si5 0.888822 0.767722 0.352988
Si Si6 0.562354 0.033553 0.629954
Si Si7 0.061424 0.997737 0.363884
Si Si8 0.814018 0.780089 0.922982
O O1 0.841564 0.705234 0.662624
O O2 0.785183 0.548232 0.753438
O O3 0.894205 0.527778 0.712217
O O4 0.846334 0.675614 0.869680
O O5 0.750000 0.750000 0.167055
O O6 0.699645 0.579869 0.235543
O O7 0.652758 0.766318 0.256266
O O8 0.668552 0.688554 0.048287
O O9 0.200080 0.902630 0.373740
O O10 0.139528 0.792870 0.528033
O O11 0.098332 0.888953 0.345960
O O12 0.689517 0.618348 0.835928
O O13 0.930506 0.666554 0.365332
O O14 0.913848 0.886821 0.321892
O O15 0.500000 0.000000 0.654540
O O16 0.574093 0.000000 0.500000
O O17 0.059912 0.000000 0.500000
O O18 0.000000 0.000000 0.322369
O O19 0.750000 0.750000 0.928634
#
# Coordination Sequence:
#
# PCOD9322876 Si02
#       8
#     8   8   8   8   8   8   8   8
#     4  10  20  38  58  85 117 157 200 238 302 358
#     4  11  21  34  54  85 119 152 192 242 293 348
#     4  10  19  35  55  85 115 156 189 240 302 365
#     4  10  19  35  57  85 120 152 197 237 298 362
#     4  11  22  37  53  86 119 147 195 240 301 355
#     4  11  24  40  60  86 118 158 200 249 294 360
#     4   9  19  32  54  78 110 149 194 243 290 345
#     4   8  18  35  59  82 110 152 198 241 285 351
#
# _framework density 18.110514999999999
#
# number of rings (size 3 to 8) (size 9 to 14) (size 15 to 20)
#    0.000    2.000    2.500    2.250    1.750    2.000 
#    2.250    1.875    0.000    1.500    0.000    3.500 
#    0.000    0.000    0.000    0.000    0.000    0.000 
#
# Total GULP energy -178221.254106 kJ/mol
# GULP energy per Si atom -5569.414191 kJ/mol
# Density = 1.806929 g / cm^3
# Si number density = 18.110515 Si / 1000 Ang^3
#
#
#
# Elastic Constant Matrix: (Units=GPa)
#
#
# Indices 1 2 3 4 5 6 
#
# 1 86.0981 27.6739 37.8667 0.0000 0.0000 0.0000
# 2 27.6739 74.9673 21.8899 0.0000 0.0000 0.0000
# 3 37.8667 21.8899 68.5330 0.0000 0.0000 0.0000
# 4 0.0000 0.0000 0.0000 4.1965 0.0000 0.0000
# 5 0.0000 0.0000 0.0000 0.0000 7.5409 0.0000
# 6 0.0000 0.0000 0.0000 0.0000 0.0000 29.9180
#
#
#
# Elastic Compliance Matrix: (Units=1/GPa)
#
#
# Indices 1 2 3 4 5 6 
#
# 1 0.016232 -0.003720 -0.007781 0.000000 0.000000 0.000000
# 2 -0.003720 0.015564 -0.002916 0.000000 0.000000 0.000000
# 3 -0.007781 -0.002916 0.019822 0.000000 0.000000 0.000000
# 4 0.000000 0.000000 0.000000 0.238294 0.000000 0.000000
# 5 0.000000 0.000000 0.000000 0.000000 0.132610 0.000000
# 6 0.000000 0.000000 0.000000 0.000000 0.000000 0.033425
#
#
# Mechanical properties :
#
#
# Convention : Reuss Voigt Hill
#
# Bulk Modulus (GPa) = 43.88852 44.93994 44.41423
# Shear Modulus (GPa) = 10.15485 17.80895 13.98190
#
# Velocity S-wave (km/s) = 2.37051 3.13924 2.78156
# Velocity P-wave (km/s) = 5.63727 6.16506 5.90706
#
# Compressibility (1/GPa) = 0.02278500
#
# Stress axis : x y z
#
# Youngs Moduli (GPa) = 61.60507 64.25167 50.44940
#
# Poissons Ratio (x) = 0.23903 0.39253
# Poissons Ratio (y) = 0.22919 0.14709
# Poissons Ratio (z) = 0.47933 0.18733
#
# Static dielectric constant tensor:
#      x y z
#    x 1.652140 0.000000 0.000000 
#    y 0.000000 1.638650 0.000000 
#    z 0.000000 0.000000 1.642240 
# 
# From -- ./inp_files/27501.got.cif
#   From: 2010.05.17/outbox.cif.g08.bks.cpg/sg21_14_cif.got.tgz:27501.got - 2010.06.03 23:14:55.
