data_PCOD9322124
_publ_section_title
;
Structure prediction by ZEFSAII (Michael W. Deem and Ramdas Pophale) SiO2 
 PCOD9322124
Probable space group: C 2 2 21
;
_chemical_formula_sum "Si O2"
_cell_formula_units_Z 32
_cell_length_a 5.141142
_cell_length_b 14.055771
_cell_length_c 17.314654
_cell_angle_alpha 90.000000
_cell_angle_beta 90.000000
_cell_angle_gamma 90.000000
_cell_volume 1251.203901
_symmetry_space_group_name_H-M "C 2 2 21"
_symmetry_group_IT_number 20
_symmetry_cell_setting 'orthorhombic'
loop_
_space_group_symop_operation_xyz
x,y,z
-x,-y,1/2+z
x,-y,-z
-x,y,1/2-z
1/2+x,1/2+y,z
1/2-x,1/2-y,1/2+z
1/2+x,1/2-y,-z
1/2-x,1/2+y,1/2-z
loop_
_atom_site_type_symbol
_atom_site_label
_atom_site_fract_x
_atom_site_fract_y
_atom_site_fract_z
Si Si1 0.873632 0.125794 0.665813
Si Si2 0.500000 0.630141 0.250000
Si Si3 0.543794 0.273600 0.598003
Si Si4 0.000000 0.497112 0.750000
Si Si5 0.762130 0.903723 0.030259
O O1 0.811654 0.228289 0.629593
O O2 0.611435 0.065667 0.682727
O O3 0.000000 0.134694 0.750000
O O4 0.053114 0.075453 0.603043
O O5 0.587326 0.692842 0.177230
O O6 0.249602 0.566495 0.228384
O O7 0.414187 0.185419 0.554309
O O8 0.571635 0.360738 0.540479
O O9 0.630202 0.000000 0.000000
#
# Coordination Sequence:
#
# PCOD9322124 Si02
#       5
#     8   4   8   4   8
#     4  12  26  53  81 123 168 221 292 352 415 516
#     4  12  29  50  89 124 168 224 291 348 433 502
#     4  12  28  52  81 123 172 219 285 357 425 515
#     4  12  27  50  85 128 162 224 285 350 419 508
#     4  12  28  53  83 125 171 226 277 355 431 509
#
# _framework density 25.575367
#
# number of rings (size 3 to 8) (size 9 to 14) (size 15 to 20)
#    0.000    0.000    3.750    5.250    8.750    1.000 
#    0.000    0.000    0.000    0.000    0.000    0.000 
#    0.000    0.000    0.000    0.000    0.000    0.000 
#
# Total GULP energy -89665.125628 kJ/mol
# GULP energy per Si atom -5604.070352 kJ/mol
# Density = 2.551716 g / cm^3
# Si number density = 25.575367 Si / 1000 Ang^3
#
#
#
# Elastic Constant Matrix: (Units=GPa)
#
#
# Indices 1 2 3 4 5 6 
#
# 1 96.3461 26.7581 27.5200 0.0000 0.0000 0.0000
# 2 26.7581 123.5155 52.8104 0.0000 0.0000 0.0000
# 3 27.5200 52.8104 173.9929 0.0000 0.0000 0.0000
# 4 0.0000 0.0000 0.0000 56.6234 0.0000 0.0000
# 5 0.0000 0.0000 0.0000 0.0000 30.1399 0.0000
# 6 0.0000 0.0000 0.0000 0.0000 0.0000 47.5030
#
#
#
# Elastic Compliance Matrix: (Units=1/GPa)
#
#
# Indices 1 2 3 4 5 6 
#
# 1 0.011256 -0.001927 -0.001195 0.000000 0.000000 0.000000
# 2 -0.001927 0.009634 -0.002619 0.000000 0.000000 0.000000
# 3 -0.001195 -0.002619 0.006731 0.000000 0.000000 0.000000
# 4 0.000000 0.000000 0.000000 0.017661 0.000000 0.000000
# 5 0.000000 0.000000 0.000000 0.000000 0.033179 0.000000
# 6 0.000000 0.000000 0.000000 0.000000 0.000000 0.021051
#
#
# Mechanical properties :
#
#
# Convention : Reuss Voigt Hill
#
# Bulk Modulus (GPa) = 61.96858 67.55902 64.76380
# Shear Modulus (GPa) = 42.96487 45.97098 44.46792
#
# Velocity S-wave (km/s) = 4.10314 4.24426 4.17430
# Velocity P-wave (km/s) = 6.83594 7.10572 6.97214
#
# Compressibility (1/GPa) = 0.01613721
#
# Stress axis : x y z
#
# Youngs Moduli (GPa) = 88.84173 103.80408 148.55794
#
# Poissons Ratio (x) = 0.20007 0.17757
# Poissons Ratio (y) = 0.17123 0.38909
# Poissons Ratio (z) = 0.10619 0.27188
#
# Static dielectric constant tensor:
#      x y z
#    x 2.100160 0.000000 0.000000 
#    y 0.000000 2.012820 0.000000 
#    z 0.000000 0.000000 2.025700 
# 
# From -- ./inp_files/22516.got.cif
#   From: 2010.05.17/outbox.cif.g08.bks.cpg/sg20_12_cif.got.tgz:22516.got - 2010.06.03 22:52:26.
