data_PCOD9322891
_publ_section_title
;
Structure prediction by ZEFSAII (Michael W. Deem and Ramdas Pophale) SiO2 
 PCOD9322891
Probable space group: C 2 2 2
;
_chemical_formula_sum "Si O2"
_cell_formula_units_Z 56
_cell_length_a 11.192801
_cell_length_b 14.750925
_cell_length_c 16.321398
_cell_angle_alpha 90.000000
_cell_angle_beta 90.000000
_cell_angle_gamma 90.000000
_cell_volume 2694.730839
_symmetry_space_group_name_H-M "C 2 2 2"
_symmetry_group_IT_number 21
_symmetry_cell_setting 'orthorhombic'
loop_
_space_group_symop_operation_xyz
x,y,z
-x,-y,z
x,-y,-z
-x,y,-z
1/2+x,1/2+y,z
1/2-x,1/2-y,z
1/2+x,1/2-y,-z
1/2-x,1/2+y,-z
loop_
_atom_site_type_symbol
_atom_site_label
_atom_site_fract_x
_atom_site_fract_y
_atom_site_fract_z
Si Si1 0.461629 0.899381 0.832020
Si Si2 0.215643 0.347804 0.842416
Si Si3 0.372163 0.471963 0.154940
Si Si4 0.807882 0.603114 0.026744
Si Si5 0.385851 0.250051 0.441236
Si Si6 0.613389 0.563309 0.341328
Si Si7 0.118771 0.437006 0.342256
O O1 0.585394 0.859257 0.804588
O O2 0.405351 0.855139 0.912038
O O3 0.377567 0.910058 0.754143
O O4 0.500000 0.000000 0.858001
O O5 0.250000 0.250000 0.812053
O O6 0.297726 0.435391 0.826872
O O7 0.207321 0.346620 0.941709
O O8 0.500000 0.500000 0.120117
O O9 0.303892 0.412506 0.087477
O O10 0.393729 0.426179 0.242748
O O11 0.839412 0.500000 0.000000
O O12 0.500000 0.255441 0.500000
O O13 0.250000 0.250000 0.478031
O O14 0.392251 0.338499 0.383189
O O15 0.396178 0.155416 0.392473
O O16 0.500000 0.500000 0.365364
O O17 0.747700 0.524812 0.361294
O O18 0.000000 0.500000 0.353162
#
# Coordination Sequence:
#
# PCOD9322891 Si02
#       7
#     8   8   8   8   8   8   8
#     4  11  18  36  63  82 113 162 215 255 314 381
#     4  11  24  37  52  88 124 159 215 280 324 376
#     4  10  20  38  61  81 121 169 211 263 328 390
#     4  10  19  35  59  81 115 167 215 255 318 378
#     4  10  24  45  68  99 138 170 213 268 334 406
#     4  10  21  41  67  95 128 170 219 263 328 398
#     4  10  21  40  67 100 127 169 217 268 322 403
#
# _framework density 20.781296000000001
#
# number of rings (size 3 to 8) (size 9 to 14) (size 15 to 20)
#    0.000    1.714    4.286    1.286    0.000    6.571 
#    7.714    3.571    0.000    0.000    0.000    0.000 
#    0.000    0.000    0.000    0.000    0.000    0.000 
#
# Total GULP energy -156062.074207 kJ/mol
# GULP energy per Si atom -5573.645507 kJ/mol
# Density = 2.073400 g / cm^3
# Si number density = 20.781296 Si / 1000 Ang^3
#
#
#
# Elastic Constant Matrix: (Units=GPa)
#
#
# Indices 1 2 3 4 5 6 
#
# 1 151.2228 38.8597 33.9679 0.0000 0.0000 0.0000
# 2 38.8597 51.7056 13.2617 0.0000 0.0000 0.0000
# 3 33.9679 13.2617 59.1889 0.0000 0.0000 0.0000
# 4 0.0000 0.0000 0.0000 4.1394 0.0000 0.0000
# 5 0.0000 0.0000 0.0000 0.0000 35.0693 0.0000
# 6 0.0000 0.0000 0.0000 0.0000 0.0000 23.5736
#
#
#
# Elastic Compliance Matrix: (Units=1/GPa)
#
#
# Indices 1 2 3 4 5 6 
#
# 1 0.008953 -0.005741 -0.003852 0.000000 0.000000 0.000000
# 2 -0.005741 0.024201 -0.002128 0.000000 0.000000 0.000000
# 3 -0.003852 -0.002128 0.019582 0.000000 0.000000 0.000000
# 4 0.000000 0.000000 0.000000 0.241581 0.000000 0.000000
# 5 0.000000 0.000000 0.000000 0.000000 0.028515 0.000000
# 6 0.000000 0.000000 0.000000 0.000000 0.000000 0.042420
#
#
# Mechanical properties :
#
#
# Convention : Reuss Voigt Hill
#
# Bulk Modulus (GPa) = 34.13523 48.25511 41.19517
# Shear Modulus (GPa) = 12.54835 24.29164 18.42000
#
# Velocity S-wave (km/s) = 2.45996 3.42265 2.98043
# Velocity P-wave (km/s) = 4.95279 6.23621 5.63118
#
# Compressibility (1/GPa) = 0.02929525
#
# Stress axis : x y z
#
# Youngs Moduli (GPa) = 111.69176 41.32125 51.06647
#
# Poissons Ratio (x) = 0.23722 0.19670
# Poissons Ratio (y) = 0.64121 0.10865
# Poissons Ratio (z) = 0.43022 0.08792
#
# Static dielectric constant tensor:
#      x y z
#    x 1.791730 0.000000 0.000000 
#    y 0.000000 1.799700 0.000000 
#    z 0.000000 0.000000 1.729880 
# 
# From -- ./inp_files/31602.got.cif
#   From: 2010.05.17/outbox.cif.g08.bks.cpg/sg21_16_cif.got.tgz:31602.got - 2010.06.03 23:14:55.
