data_PCOD9322181
_publ_section_title
;
Structure prediction by ZEFSAII (Michael W. Deem and Ramdas Pophale) SiO2 
 PCOD9322181
Probable space group: C 2 2 21
;
_chemical_formula_sum "Si O2"
_cell_formula_units_Z 24
_cell_length_a 18.000000
_cell_length_b 12.000000
_cell_length_c 12.000000
_cell_angle_alpha 90.000000
_cell_angle_beta 90.000000
_cell_angle_gamma 90.000000
_cell_volume 2592.000000
_symmetry_space_group_name_H-M "C 2 2 21"
_symmetry_group_IT_number 20
_symmetry_cell_setting 'orthorhombic'
loop_
_space_group_symop_operation_xyz
x,y,z
-x,-y,1/2+z
x,-y,-z
-x,y,1/2-z
1/2+x,1/2+y,z
1/2-x,1/2-y,1/2+z
1/2+x,1/2-y,-z
1/2-x,1/2+y,1/2-z
loop_
_atom_site_type_symbol
_atom_site_label
_atom_site_fract_x
_atom_site_fract_y
_atom_site_fract_z
Si Si1 0.951511 0.627662 0.475324
Si Si2 0.688256 0.319345 0.671018
Si Si3 0.834218 0.946360 0.120708
Si Si4 0.855612 0.382457 0.733983
Si Si5 0.601983 0.242578 0.453380
Si Si6 0.829684 0.630495 0.663227
O O1 0.975104 0.500000 0.500000
O O2 0.922758 0.647591 0.349664
O O3 0.878717 0.640660 0.552596
O O4 0.022525 0.704012 0.498311
O O5 0.656804 0.443390 0.692693
O O6 0.777602 0.333870 0.685143
O O7 0.659817 0.268094 0.553542
O O8 0.657491 0.236584 0.762259
O O9 0.900673 0.860107 0.112562
O O10 0.758618 0.881166 0.146263
O O11 0.820816 0.000000 0.000000
O O12 0.869486 0.343518 0.859871
O O13 0.851113 0.515896 0.724318
#
# Coordination Sequence:
#
# PCOD9322181 Si02
#       6
#     8   8   8   8   8   8
#     4  10  22  37  59  88 120 154 190 243 305 357
#     4  10  21  35  64  85 112 156 197 246 291 351
#     4   9  18  37  60  81 112 158 197 230 285 355
#     4  10  21  37  61  87 115 154 197 248 296 344
#     4  11  21  36  59  86 118 153 196 235 295 357
#     4  10  19  37  61  87 118 149 193 247 300 345
#
# _framework density 9.2592590000000001
#
# number of rings (size 3 to 8) (size 9 to 14) (size 15 to 20)
#    0.000    2.000    1.667    4.000    2.333    0.667 
#    0.000    0.000   22.000    0.000    0.000    0.000 
#    0.000    0.000    0.000    0.000    0.000    0.000 
#
# Total GULP energy -133645.907739 kJ/mol
# GULP energy per Si atom -5568.579489 kJ/mol
# Density = 0.923818 g / cm^3
# Si number density = 9.259259 Si / 1000 Ang^3
#
#
#
# Elastic Constant Matrix: (Units=GPa)
#
#
# Indices 1 2 3 4 5 6 
#
# 1 44.7685 38.7085 15.2540 0.0000 0.0000 0.0000
# 2 38.7085 84.8430 43.5624 0.0000 0.0000 0.0000
# 3 15.2540 43.5624 29.0554 0.0000 0.0000 0.0000
# 4 0.0000 0.0000 0.0000 31.8381 0.0000 0.0000
# 5 0.0000 0.0000 0.0000 0.0000 -5.2117 0.0000
# 6 0.0000 0.0000 0.0000 0.0000 0.0000 25.8060
#
#
#
# Elastic Compliance Matrix: (Units=1/GPa)
#
#
# Indices 1 2 3 4 5 6 
#
# 1 0.041813 -0.033908 0.028887 0.000000 0.000000 0.000000
# 2 -0.033908 0.078700 -0.100192 0.000000 0.000000 0.000000
# 3 0.028887 -0.100192 0.169468 0.000000 0.000000 0.000000
# 4 0.000000 0.000000 0.000000 0.031409 0.000000 0.000000
# 5 0.000000 0.000000 0.000000 0.000000 -0.191874 0.000000
# 6 0.000000 0.000000 0.000000 0.000000 0.000000 0.038751
#
#
# Mechanical properties :
#
#
# Convention : Reuss Voigt Hill
#
# Bulk Modulus (GPa) = 12.57015 39.30185 25.93600
# Shear Modulus (GPa) = 12.33925 14.56261 13.45093
#
# Velocity S-wave (km/s) = 2.58412 2.80729 2.69801
# Velocity P-wave (km/s) = 3.96310 5.63710 4.87253
#
# Compressibility (1/GPa) = 0.07955357
#
# Stress axis : x y z
#
# Youngs Moduli (GPa) = 23.91603 12.70649 5.90083
#
# Poissons Ratio (x) = 0.43086 -0.17046
# Poissons Ratio (y) = 0.81095 0.59121
# Poissons Ratio (z) = -0.69086 1.27309
#
# Static dielectric constant tensor:
#      x y z
#    x 1.623230 0.000000 0.000000 
#    y 0.000000 1.689100 0.000000 
#    z 0.000000 0.000000 1.672900 
# 
# From -- ./inp_files/14097.got.cif
#   From: 2010.05.17/outbox.ucp.g08.bks.cvg/sg20_8_cif.got.tgz:14097.got - 2010.06.11 15:13:06.
