data_PCOD9322208
_publ_section_title
;
Structure prediction by ZEFSAII (Michael W. Deem and Ramdas Pophale) SiO2 
 PCOD9322208
Probable space group: C 2 2 21
;
_chemical_formula_sum "Si O2"
_cell_formula_units_Z 32
_cell_length_a 9.000000
_cell_length_b 24.000000
_cell_length_c 15.000000
_cell_angle_alpha 90.000000
_cell_angle_beta 90.000000
_cell_angle_gamma 90.000000
_cell_volume 3240.000000
_symmetry_space_group_name_H-M "C 2 2 21"
_symmetry_group_IT_number 20
_symmetry_cell_setting 'orthorhombic'
loop_
_space_group_symop_operation_xyz
x,y,z
-x,-y,1/2+z
x,-y,-z
-x,y,1/2-z
1/2+x,1/2+y,z
1/2-x,1/2-y,1/2+z
1/2+x,1/2-y,-z
1/2-x,1/2+y,1/2-z
loop_
_atom_site_type_symbol
_atom_site_label
_atom_site_fract_x
_atom_site_fract_y
_atom_site_fract_z
Si Si1 0.607064 0.870757 0.833555
Si Si2 0.324632 0.409189 0.233154
Si Si3 0.800700 0.392293 0.910099
Si Si4 0.209218 0.222654 0.428638
Si Si5 0.178004 0.039898 0.245643
Si Si6 0.406538 0.294664 0.663304
Si Si7 0.675958 0.148459 0.598787
Si Si8 0.829725 0.677779 0.615182
O O1 0.500000 0.859471 0.750000
O O2 0.479973 0.889522 0.902783
O O3 0.694986 0.816200 0.863125
O O4 0.725719 0.918722 0.808530
O O5 0.500000 0.402772 0.250000
O O6 0.293712 0.475446 0.229775
O O7 0.234439 0.381298 0.313698
O O8 0.271351 0.372566 0.149550
O O9 0.736843 0.443895 0.853456
O O10 0.719129 0.338496 0.864660
O O11 0.769763 0.387208 0.014217
O O12 0.233714 0.288113 0.412706
O O13 0.261383 0.203800 0.525778
O O14 0.034265 0.211147 0.412127
O O15 0.000000 0.049682 0.250000
O O16 0.500000 0.312674 0.750000
O O17 0.342637 0.232392 0.679189
O O18 0.497213 0.155349 0.602562
#
# Coordination Sequence:
#
# PCOD9322208 Si02
#       8
#     8   8   8   8   8   8   8   8
#     4  10  21  38  66  95 125 163 213 262 312 375
#     4  11  27  45  67  89 123 174 219 266 320 383
#     4  11  21  37  66  98 125 163 214 265 314 376
#     4  11  22  39  63  98 134 171 204 257 319 387
#     4  10  23  46  65  91 125 168 219 265 319 378
#     4  11  22  38  62  96 134 177 209 257 323 381
#     4  11  24  41  64  97 134 166 210 264 323 382
#     4  11  23  42  64  94 135 169 211 260 323 386
#
# _framework density 9.8765429999999999
#
# number of rings (size 3 to 8) (size 9 to 14) (size 15 to 20)
#    0.000    1.250    2.500    4.500    1.750    5.000 
#    0.000    0.625    0.000    0.000    0.000    0.000 
#    0.000    0.000    0.000    0.000    0.000    0.000 
#
# Total GULP energy -178762.564344 kJ/mol
# GULP energy per Si atom -5586.330136 kJ/mol
# Density = 0.985406 g / cm^3
# Si number density = 9.876543 Si / 1000 Ang^3
#
#
#
# Elastic Constant Matrix: (Units=GPa)
#
#
# Indices 1 2 3 4 5 6 
#
# 1 105.3128 45.7524 8.5147 0.0000 0.0000 0.0000
# 2 45.7524 107.0468 18.2479 0.0000 0.0000 0.0000
# 3 8.5147 18.2479 46.7101 0.0000 0.0000 0.0000
# 4 0.0000 0.0000 0.0000 29.0097 0.0000 0.0000
# 5 0.0000 0.0000 0.0000 0.0000 27.1703 0.0000
# 6 0.0000 0.0000 0.0000 0.0000 0.0000 31.1709
#
#
#
# Elastic Compliance Matrix: (Units=1/GPa)
#
#
# Indices 1 2 3 4 5 6 
#
# 1 0.011662 -0.004952 -0.000191 0.000000 0.000000 0.000000
# 2 -0.004952 0.012111 -0.003829 0.000000 0.000000 0.000000
# 3 -0.000191 -0.003829 0.022939 0.000000 0.000000 0.000000
# 4 0.000000 0.000000 0.000000 0.034471 0.000000 0.000000
# 5 0.000000 0.000000 0.000000 0.000000 0.036805 0.000000
# 6 0.000000 0.000000 0.000000 0.000000 0.000000 0.032081
#
#
# Mechanical properties :
#
#
# Convention : Reuss Voigt Hill
#
# Bulk Modulus (GPa) = 34.76012 44.89999 39.83005
# Shear Modulus (GPa) = 28.15269 29.90716 29.02993
#
# Velocity S-wave (km/s) = 3.77932 3.89530 3.83775
# Velocity P-wave (km/s) = 6.05639 6.55829 6.31233
#
# Compressibility (1/GPa) = 0.02876860
#
# Stress axis : x y z
#
# Youngs Moduli (GPa) = 85.74619 82.57072 43.59352
#
# Poissons Ratio (x) = 0.40888 0.00834
# Poissons Ratio (y) = 0.42461 0.16690
# Poissons Ratio (z) = 0.01641 0.31613
#
# Static dielectric constant tensor:
#      x y z
#    x 1.681220 0.000000 0.000000 
#    y 0.000000 1.668320 0.000000 
#    z 0.000000 0.000000 1.787890 
# 
# From -- ./inp_files/19376.got.cif
#   From: 2010.05.17/outbox.ucp.g08.bks.cvg/sg20_10_cif.got.tgz:19376.got - 2010.06.11 15:13:06.
