data_PCOD9322512
_publ_section_title
;
Structure prediction by ZEFSAII (Michael W. Deem and Ramdas Pophale) SiO2 
 PCOD9322512
Probable space group: C 2 2 2
;
_chemical_formula_sum "Si O2"
_cell_formula_units_Z 52
_cell_length_a 18.762726
_cell_length_b 7.815410
_cell_length_c 17.135369
_cell_angle_alpha 90.000000
_cell_angle_beta 90.000000
_cell_angle_gamma 90.000000
_cell_volume 2512.703032
_symmetry_space_group_name_H-M "C 2 2 2"
_symmetry_group_IT_number 21
_symmetry_cell_setting 'orthorhombic'
loop_
_space_group_symop_operation_xyz
x,y,z
-x,-y,z
x,-y,-z
-x,y,-z
1/2+x,1/2+y,z
1/2-x,1/2-y,z
1/2+x,1/2-y,-z
1/2-x,1/2+y,-z
loop_
_atom_site_type_symbol
_atom_site_label
_atom_site_fract_x
_atom_site_fract_y
_atom_site_fract_z
Si Si1 0.390987 0.164375 0.214977
Si Si2 0.324449 0.450206 0.791268
Si Si3 0.542878 0.181604 0.430719
Si Si4 0.325888 0.000000 0.500000
Si Si5 0.534524 0.688394 0.743160
Si Si6 0.284899 0.061136 0.086920
Si Si7 0.779859 0.562052 0.331356
O O1 0.360023 0.359540 0.212186
O O2 0.475303 0.185226 0.221721
O O3 0.355250 0.075108 0.140437
O O4 0.357975 0.069377 0.291296
O O5 0.389404 0.319117 0.785824
O O6 0.273586 0.448224 0.866416
O O7 0.272664 0.439444 0.716204
O O8 0.500000 0.274572 0.500000
O O9 0.620096 0.144207 0.467408
O O10 0.545375 0.272008 0.348090
O O11 0.500000 0.000000 0.419450
O O12 0.281591 0.958114 0.576526
O O13 0.500000 0.500000 0.748714
O O14 0.250000 0.250000 0.083894
O O15 0.298651 0.000000 0.000000
O O16 0.750000 0.750000 0.314776
#
# Coordination Sequence:
#
# PCOD9322512 Si02
#       7
#     8   8   8   4   8   8   8
#     4   8  15  31  54  74 102 141 171 208 270 329
#     4   8  17  31  51  79 104 131 174 223 269 314
#     4   9  19  33  46  67 103 146 182 216 270 327
#     4  10  19  30  46  66 101 144 178 216 270 322
#     4  10  18  32  55  79 102 136 183 227 266 317
#     4   9  17  33  56  82 109 138 173 213 265 331
#     4   9  17  31  47  68  99 139 179 215 264 320
#
# _framework density 20.694845000000001
#
# number of rings (size 3 to 8) (size 9 to 14) (size 15 to 20)
#    0.000    3.231    0.000    3.692    0.000    1.538 
#    0.000    4.615    0.000   11.538    0.000    9.692 
#    0.000    0.000    0.000    0.000    0.000    0.000 
#
# Total GULP energy -145045.288779 kJ/mol
# GULP energy per Si atom -5578.664953 kJ/mol
# Density = 2.064774 g / cm^3
# Si number density = 20.694845 Si / 1000 Ang^3
#
#
#
# Elastic Constant Matrix: (Units=GPa)
#
#
# Indices 1 2 3 4 5 6 
#
# 1 141.6353 34.7215 77.5635 0.0000 0.0000 0.0000
# 2 34.7215 54.7334 26.7933 0.0000 0.0000 0.0000
# 3 77.5635 26.7933 161.3151 0.0000 0.0000 0.0000
# 4 0.0000 0.0000 0.0000 28.0454 0.0000 0.0000
# 5 0.0000 0.0000 0.0000 0.0000 -14.7736 0.0000
# 6 0.0000 0.0000 0.0000 0.0000 0.0000 11.5424
#
#
#
# Elastic Compliance Matrix: (Units=1/GPa)
#
#
# Indices 1 2 3 4 5 6 
#
# 1 0.010542 -0.004579 -0.004308 0.000000 0.000000 0.000000
# 2 -0.004579 0.021876 -0.001432 0.000000 0.000000 0.000000
# 3 -0.004308 -0.001432 0.008508 0.000000 0.000000 0.000000
# 4 0.000000 0.000000 0.000000 0.035656 0.000000 0.000000
# 5 0.000000 0.000000 0.000000 0.000000 -0.067688 0.000000
# 6 0.000000 0.000000 0.000000 0.000000 0.000000 0.086637
#
#
# Mechanical properties :
#
#
# Convention : Reuss Voigt Hill
#
# Bulk Modulus (GPa) = 49.28877 70.64892 59.96885
# Shear Modulus (GPa) = 40.67258 19.53654 30.10456
#
# Velocity S-wave (km/s) = 4.43803 3.07584 3.81818
# Velocity P-wave (km/s) = 7.08027 6.84302 6.96265
#
# Compressibility (1/GPa) = 0.02028860
#
# Stress axis : x y z
#
# Youngs Moduli (GPa) = 94.85636 45.71233 117.53009
#
# Poissons Ratio (x) = 0.20930 0.50637
# Poissons Ratio (y) = 0.43432 0.16829
# Poissons Ratio (z) = 0.40868 0.06546
#
# Static dielectric constant tensor:
#      x y z
#    x 1.789140 0.000000 0.000000 
#    y 0.000000 1.790370 0.000000 
#    z 0.000000 0.000000 1.703480 
# 
# From -- ./inp_files/33225.got.cif
#   From: 2010.05.17/outbox.cif.g08.bks.cpg/sg21_17_cif.got.tgz:33225.got - 2010.06.03 23:14:55.
