data_PCOD9322689
_publ_section_title
;
Structure prediction by ZEFSAII (Michael W. Deem and Ramdas Pophale) SiO2 
 PCOD9322689
Probable space group: C 2 2 2
;
_chemical_formula_sum "Si O2"
_cell_formula_units_Z 42
_cell_length_a 19.508329
_cell_length_b 7.415320
_cell_length_c 13.563570
_cell_angle_alpha 90.000000
_cell_angle_beta 90.000000
_cell_angle_gamma 90.000000
_cell_volume 1962.112848
_symmetry_space_group_name_H-M "C 2 2 2"
_symmetry_group_IT_number 21
_symmetry_cell_setting 'orthorhombic'
loop_
_space_group_symop_operation_xyz
x,y,z
-x,-y,z
x,-y,-z
-x,y,-z
1/2+x,1/2+y,z
1/2-x,1/2-y,z
1/2+x,1/2-y,-z
1/2-x,1/2+y,-z
loop_
_atom_site_type_symbol
_atom_site_label
_atom_site_fract_x
_atom_site_fract_y
_atom_site_fract_z
Si Si1 0.500000 0.000000 0.000000
Si Si2 0.579765 0.779132 0.497202
Si Si3 0.170141 0.719837 0.103610
Si Si4 0.331570 0.213782 0.309415
Si Si5 0.880704 0.690687 0.099651
Si Si6 0.668580 0.781947 0.682408
O O1 0.457303 0.872020 0.926624
O O2 0.500000 0.724363 0.500000
O O3 0.622293 0.720281 0.400514
O O4 0.622249 0.716519 0.592761
O O5 0.579948 0.000000 0.500000
O O6 0.250000 0.750000 0.103825
O O7 0.156993 0.504598 0.102378
O O8 0.145275 0.788623 0.210029
O O9 0.142004 0.790374 0.999981
O O10 0.250000 0.250000 0.317995
O O11 0.361167 0.276797 0.203524
O O12 0.339261 0.997610 0.312729
O O13 0.750000 0.750000 0.667231
#
# Coordination Sequence:
#
# PCOD9322689 Si02
#       6
#     2   8   8   8   8   8
#     4   8  16  28  40  64  94 122 152 186 224 268
#     4   9  18  30  46  68  91 118 153 192 231 271
#     4   8  14  25  40  60  85 112 142 176 216 262
#     4  10  19  30  47  70  95 119 148 192 236 269
#     4   9  17  26  42  66  92 116 146 187 229 268
#     4   9  17  30  48  67  90 121 154 186 223 274
#
# _framework density 21.405497
#
# number of rings (size 3 to 8) (size 9 to 14) (size 15 to 20)
#    0.000    3.238    0.000    1.143    0.000    6.095 
#    0.000    0.000    0.000    2.286    0.000    0.000 
#    0.000  196.571    0.000    0.000    0.000    0.000 
#
# Total GULP energy -116979.151676 kJ/mol
# GULP energy per Si atom -5570.435794 kJ/mol
# Density = 2.135678 g / cm^3
# Si number density = 21.405497 Si / 1000 Ang^3
#
#
#
# Elastic Constant Matrix: (Units=GPa)
#
#
# Indices 1 2 3 4 5 6 
#
# 1 137.0038 3.3287 120.8591 0.0000 0.0000 0.0000
# 2 3.3287 66.4099 10.1325 0.0000 0.0000 0.0000
# 3 120.8591 10.1325 282.4051 0.0000 0.0000 0.0000
# 4 0.0000 0.0000 0.0000 -22.8553 0.0000 0.0000
# 5 0.0000 0.0000 0.0000 0.0000 51.8997 0.0000
# 6 0.0000 0.0000 0.0000 0.0000 0.0000 50.4458
#
#
#
# Elastic Compliance Matrix: (Units=1/GPa)
#
#
# Indices 1 2 3 4 5 6 
#
# 1 0.011728 0.000179 -0.005026 0.000000 0.000000 0.000000
# 2 0.000179 0.015144 -0.000620 0.000000 0.000000 0.000000
# 3 -0.005026 -0.000620 0.005714 0.000000 0.000000 0.000000
# 4 0.000000 0.000000 0.000000 -0.043753 0.000000 0.000000
# 5 0.000000 0.000000 0.000000 0.000000 0.019268 0.000000
# 6 0.000000 0.000000 0.000000 0.000000 0.000000 0.019823
#
#
# Mechanical properties :
#
#
# Convention : Reuss Voigt Hill
#
# Bulk Modulus (GPa) = 46.18397 83.82881 65.00639
# Shear Modulus (GPa) = 108.52060 39.33127 73.92594
#
# Velocity S-wave (km/s) = 7.12794 4.29119 5.88311
# Velocity P-wave (km/s) = 9.45336 7.98747 8.75116
#
# Compressibility (1/GPa) = 0.02165253
#
# Stress axis : x y z
#
# Youngs Moduli (GPa) = 85.26512 66.03450 175.00754
#
# Poissons Ratio (x) = -0.01182 0.87952
# Poissons Ratio (y) = -0.01526 0.10849
# Poissons Ratio (z) = 0.42851 0.04094
#
# Static dielectric constant tensor:
#      x y z
#    x 1.743890 0.000000 0.000000 
#    y 0.000000 1.779660 0.000000 
#    z 0.000000 0.000000 1.618490 
# 
# From -- ./inp_files/26739.got.cif
#   From: 2010.05.17/outbox.cif.g08.bks.cpg/sg21_14_cif.got.tgz:26739.got - 2010.06.03 23:14:55.
