data_PCOD9322157
_publ_section_title
;
Structure prediction by ZEFSAII (Michael W. Deem and Ramdas Pophale) SiO2 
 PCOD9322157
Probable space group: C 2 2 21
;
_chemical_formula_sum "Si O2"
_cell_formula_units_Z 32
_cell_length_a 9.507461
_cell_length_b 14.742101
_cell_length_c 7.975050
_cell_angle_alpha 90.000000
_cell_angle_beta 90.000000
_cell_angle_gamma 90.000000
_cell_volume 1117.782612
_symmetry_space_group_name_H-M "C 2 2 21"
_symmetry_group_IT_number 20
_symmetry_cell_setting 'orthorhombic'
loop_
_space_group_symop_operation_xyz
x,y,z
-x,-y,1/2+z
x,-y,-z
-x,y,1/2-z
1/2+x,1/2+y,z
1/2-x,1/2-y,1/2+z
1/2+x,1/2-y,-z
1/2-x,1/2+y,1/2-z
loop_
_atom_site_type_symbol
_atom_site_label
_atom_site_fract_x
_atom_site_fract_y
_atom_site_fract_z
Si Si1 0.318536 0.437915 0.840710
Si Si2 0.456521 0.905653 0.458366
Si Si3 0.977599 0.203682 0.994067
Si Si4 0.294207 0.384012 0.302444
O O1 0.337585 0.509746 0.693860
O O2 0.367066 0.500000 0.000000
O O3 0.159454 0.415267 0.891464
O O4 0.398203 0.344491 0.853236
O O5 0.529407 0.810857 0.491051
O O6 0.361501 0.894718 0.286008
O O7 0.537773 0.000000 0.500000
O O8 0.137239 0.166877 0.962302
O O9 0.879133 0.170957 0.840793
#
# Coordination Sequence:
#
# PCOD9322157 Si02
#       4
#     8   8   8   8
#     4   7  14  28  44  66  91 115 150 192 227 269
#     4   8  15  28  45  66  93 122 151 189 234 275
#     4   9  14  27  50  64  88 127 151 183 236 278
#     4   8  16  29  45  69  89 117 159 190 228 280
#
# _framework density 28.628105999999999
#
# number of rings (size 3 to 8) (size 9 to 14) (size 15 to 20)
#    0.000    5.000    0.000    0.000    0.000    0.000 
#    0.000   27.500    0.000   43.500    0.000    0.000 
#    0.000    0.000    0.000    0.000    0.000    0.000 
#
# Total GULP energy -89257.078151 kJ/mol
# GULP energy per Si atom -5578.567384 kJ/mol
# Density = 2.856295 g / cm^3
# Si number density = 28.628106 Si / 1000 Ang^3
#
#
#
# Elastic Constant Matrix: (Units=GPa)
#
#
# Indices 1 2 3 4 5 6 
#
# 1 103.1749 36.9223 14.0960 0.0000 0.0000 0.0000
# 2 36.9223 277.3181 44.2961 0.0000 0.0000 0.0000
# 3 14.0960 44.2961 94.4582 0.0000 0.0000 0.0000
# 4 0.0000 0.0000 0.0000 23.2085 0.0000 0.0000
# 5 0.0000 0.0000 0.0000 0.0000 32.9111 0.0000
# 6 0.0000 0.0000 0.0000 0.0000 0.0000 63.7163
#
#
#
# Elastic Compliance Matrix: (Units=1/GPa)
#
#
# Indices 1 2 3 4 5 6 
#
# 1 0.010257 -0.001212 -0.000962 0.000000 0.000000 0.000000
# 2 -0.001212 0.004041 -0.001714 0.000000 0.000000 0.000000
# 3 -0.000962 -0.001714 0.011534 0.000000 0.000000 0.000000
# 4 0.000000 0.000000 0.000000 0.043088 0.000000 0.000000
# 5 0.000000 0.000000 0.000000 0.000000 0.030385 0.000000
# 6 0.000000 0.000000 0.000000 0.000000 0.000000 0.015695
#
#
# Mechanical properties :
#
#
# Convention : Reuss Voigt Hill
#
# Bulk Modulus (GPa) = 55.38423 73.95332 64.66878
# Shear Modulus (GPa) = 38.82122 49.27632 44.04877
#
# Velocity S-wave (km/s) = 3.68646 4.15330 3.92682
# Velocity P-wave (km/s) = 6.12438 6.99202 6.57254
#
# Compressibility (1/GPa) = 0.01805568
#
# Stress axis : x y z
#
# Youngs Moduli (GPa) = 97.48984 247.45467 86.69872
#
# Poissons Ratio (x) = 0.29991 0.08344
# Poissons Ratio (y) = 0.11815 0.14862
# Poissons Ratio (z) = 0.09382 0.42419
#
# Static dielectric constant tensor:
#      x y z
#    x 2.509230 0.000000 0.000000 
#    y 0.000000 2.123580 0.000000 
#    z 0.000000 0.000000 2.349460 
# 
# From -- ./inp_files/18364.got.cif
#   From: 2010.05.17/outbox.cif.g08.bks.cpg/sg20_10_cif.got.tgz:18364.got - 2010.06.03 22:52:26.
