data_PCOD9322779
_publ_section_title
;
Structure prediction by ZEFSAII (Michael W. Deem and Ramdas Pophale) SiO2 
 PCOD9322779
Probable space group: C 2 2 2
;
_chemical_formula_sum "Si O2"
_cell_formula_units_Z 64
_cell_length_a 7.542729
_cell_length_b 25.112221
_cell_length_c 15.187431
_cell_angle_alpha 90.000000
_cell_angle_beta 90.000000
_cell_angle_gamma 90.000000
_cell_volume 2876.722346
_symmetry_space_group_name_H-M "C 2 2 2"
_symmetry_group_IT_number 21
_symmetry_cell_setting 'orthorhombic'
loop_
_space_group_symop_operation_xyz
x,y,z
-x,-y,z
x,-y,-z
-x,y,-z
1/2+x,1/2+y,z
1/2-x,1/2-y,z
1/2+x,1/2-y,-z
1/2-x,1/2+y,-z
loop_
_atom_site_type_symbol
_atom_site_label
_atom_site_fract_x
_atom_site_fract_y
_atom_site_fract_z
Si Si1 0.116080 0.329485 0.703117
Si Si2 0.211221 0.131932 0.339252
Si Si3 0.326300 0.304270 0.048272
Si Si4 0.762984 0.543488 0.200438
Si Si5 0.800988 0.414916 0.981692
Si Si6 0.209716 0.312408 0.510960
Si Si7 0.567393 0.725414 0.245053
Si Si8 0.685573 0.073146 0.179434
O O1 0.228475 0.323921 0.614116
O O2 0.201590 0.371424 0.769654
O O3 0.916643 0.351428 0.682239
O O4 0.075726 0.271194 0.742810
O O5 0.194600 0.077301 0.283737
O O6 0.199974 0.146069 0.443441
O O7 0.066575 0.170301 0.295248
O O8 0.250000 0.250000 0.006723
O O9 0.189947 0.352837 0.047763
O O10 0.392290 0.287996 0.144468
O O11 0.500000 0.324341 0.000000
O O12 0.702240 0.557242 0.099937
O O13 0.733826 0.481198 0.217240
O O14 0.972959 0.559261 0.186837
O O15 0.734965 0.419094 0.081673
O O16 0.000000 0.436127 0.000000
O O17 0.250000 0.250000 0.492338
O O18 0.000000 0.317756 0.500000
O O19 0.750000 0.750000 0.282255
#
# Coordination Sequence:
#
# PCOD9322779 Si02
#       8
#     8   8   8   8   8   8   8   8
#     4   9  18  30  46  73 108 137 169 220 278 327
#     4   9  15  29  52  73  99 135 182 219 260 330
#     4  11  23  34  51  78 112 147 185 223 275 335
#     4   9  16  30  50  80 100 142 189 228 269 331
#     4  10  19  33  54  78 109 143 184 229 271 328
#     4  10  19  33  53  78 106 138 174 218 276 337
#     4   9  17  31  50  71 104 147 176 211 268 341
#     4   9  18  29  50  74 112 141 180 230 280 320
#
# _framework density 22.247540000000001
#
# number of rings (size 3 to 8) (size 9 to 14) (size 15 to 20)
#    0.000    2.500    1.250    2.625    7.000    1.500 
#    2.250    0.625    0.000    5.250    0.000    0.000 
#    0.000    1.250    0.000    0.000    0.000    0.000 
#
# Total GULP energy -178277.279781 kJ/mol
# GULP energy per Si atom -5571.164993 kJ/mol
# Density = 2.219690 g / cm^3
# Si number density = 22.247540 Si / 1000 Ang^3
#
#
#
# Elastic Constant Matrix: (Units=GPa)
#
#
# Indices 1 2 3 4 5 6 
#
# 1 48.8908 24.6547 25.9063 0.0000 0.0000 0.0000
# 2 24.6547 157.6187 87.3250 0.0000 0.0000 0.0000
# 3 25.9063 87.3250 149.2712 0.0000 0.0000 0.0000
# 4 0.0000 0.0000 0.0000 9.2060 0.0000 0.0000
# 5 0.0000 0.0000 0.0000 0.0000 1.6363 0.0000
# 6 0.0000 0.0000 0.0000 0.0000 0.0000 8.9979
#
#
#
# Elastic Compliance Matrix: (Units=1/GPa)
#
#
# Indices 1 2 3 4 5 6 
#
# 1 0.022963 -0.002048 -0.002787 0.000000 0.000000 0.000000
# 2 -0.002048 0.009569 -0.005243 0.000000 0.000000 0.000000
# 3 -0.002787 -0.005243 0.010250 0.000000 0.000000 0.000000
# 4 0.000000 0.000000 0.000000 0.108625 0.000000 0.000000
# 5 0.000000 0.000000 0.000000 0.000000 0.611138 0.000000
# 6 0.000000 0.000000 0.000000 0.000000 0.000000 0.111137
#
#
# Mechanical properties :
#
#
# Convention : Reuss Voigt Hill
#
# Bulk Modulus (GPa) = 44.19487 70.17252 57.18369
# Shear Modulus (GPa) = 5.54705 18.49436 12.02070
#
# Velocity S-wave (km/s) = 1.58074 2.88635 2.32699
# Velocity P-wave (km/s) = 4.82077 6.53592 5.74274
#
# Compressibility (1/GPa) = 0.02262706
#
# Stress axis : x y z
#
# Youngs Moduli (GPa) = 43.54766 104.50018 97.56031
#
# Poissons Ratio (x) = 0.21397 0.27195
# Poissons Ratio (y) = 0.08917 0.51149
# Poissons Ratio (z) = 0.12139 0.54787
#
# Static dielectric constant tensor:
#      x y z
#    x 1.932490 0.000000 0.000000 
#    y 0.000000 1.836800 0.000000 
#    z 0.000000 0.000000 1.885170 
# 
# From -- ./inp_files/30921.got.cif
#   From: 2010.05.17/outbox.cif.g08.bks.cpg/sg21_16_cif.got.tgz:30921.got - 2010.06.03 23:14:55.
