data_PCOD9322551
_publ_section_title
;
Structure prediction by ZEFSAII (Michael W. Deem and Ramdas Pophale) SiO2 
 PCOD9322551
Probable space group: C 2 2 2
;
_chemical_formula_sum "Si O2"
_cell_formula_units_Z 54
_cell_length_a 28.164278
_cell_length_b 5.849053
_cell_length_c 15.643206
_cell_angle_alpha 90.000000
_cell_angle_beta 90.000000
_cell_angle_gamma 90.000000
_cell_volume 2576.973446
_symmetry_space_group_name_H-M "C 2 2 2"
_symmetry_group_IT_number 21
_symmetry_cell_setting 'orthorhombic'
loop_
_space_group_symop_operation_xyz
x,y,z
-x,-y,z
x,-y,-z
-x,y,-z
1/2+x,1/2+y,z
1/2-x,1/2-y,z
1/2+x,1/2-y,-z
1/2-x,1/2+y,-z
loop_
_atom_site_type_symbol
_atom_site_label
_atom_site_fract_x
_atom_site_fract_y
_atom_site_fract_z
Si Si1 0.888511 0.110317 0.091319
Si Si2 0.430133 0.849970 0.585657
Si Si3 0.290919 0.096784 0.911000
Si Si4 0.500000 0.500000 0.500000
Si Si5 0.725072 0.500000 0.500000
Si Si6 0.336619 0.761544 0.797516
Si Si7 0.651321 0.515472 0.360220
Si Si8 0.409534 0.854288 0.260174
O O1 0.841518 0.270310 0.075499
O O2 0.920685 0.244720 0.164686
O O3 0.869451 0.894094 0.143257
O O4 0.906065 0.000000 0.000000
O O5 0.468870 0.660235 0.561576
O O6 0.380641 0.715828 0.598957
O O7 0.426670 0.000000 0.500000
O O8 0.441015 0.999194 0.671555
O O9 0.250000 0.250000 0.872365
O O10 0.298076 0.879638 0.853228
O O11 0.273125 0.000000 0.000000
O O12 0.750000 0.750000 0.477593
O O13 0.689304 0.422493 0.425095
O O14 0.319610 0.613075 0.719441
O O15 0.368525 0.966679 0.762154
O O16 0.613618 0.341257 0.319115
#
# Coordination Sequence:
#
# PCOD9322551 Si02
#       8
#     8   8   8   2   4   8   8   8
#     4  10  18  34  53  76 109 151 207 262 319 380
#     4  11  22  39  67  90 130 166 208 245 315 405
#     4  11  21  31  46  70 104 147 198 259 340 400
#     4  12  24  36  60 110 128 168 196 248 314 406
#     4  12  29  44  62  85 114 159 232 304 337 386
#     4   9  20  36  54  76 103 148 208 256 320 391
#     4  10  22  44  62  81 115 168 211 267 329 378
#     4   9  20  36  60  84 113 164 206 255 321 393
#
# _framework density 20.954813999999999
#
# number of rings (size 3 to 8) (size 9 to 14) (size 15 to 20)
#    0.000    1.778    1.481    2.889    5.185    0.000 
#    8.000    0.000    0.000    0.000    0.000    0.000 
#    0.000    0.000    0.000  778.667    0.000    0.000 
#
# Total GULP energy -150312.801019 kJ/mol
# GULP energy per Si atom -5567.140778 kJ/mol
# Density = 2.090712 g / cm^3
# Si number density = 20.954814 Si / 1000 Ang^3
#
#
#
# Elastic Constant Matrix: (Units=GPa)
#
#
# Indices 1 2 3 4 5 6 
#
# 1 36.4614 17.6620 27.6887 0.0000 0.0000 0.0000
# 2 17.6620 83.5741 32.8434 0.0000 0.0000 0.0000
# 3 27.6887 32.8434 135.7158 0.0000 0.0000 0.0000
# 4 0.0000 0.0000 0.0000 42.1961 0.0000 0.0000
# 5 0.0000 0.0000 0.0000 0.0000 8.8672 0.0000
# 6 0.0000 0.0000 0.0000 0.0000 0.0000 46.5016
#
#
#
# Elastic Compliance Matrix: (Units=1/GPa)
#
#
# Indices 1 2 3 4 5 6 
#
# 1 0.034219 -0.004960 -0.005781 0.000000 0.000000 0.000000
# 2 -0.004960 0.013942 -0.002362 0.000000 0.000000 0.000000
# 3 -0.005781 -0.002362 0.009119 0.000000 0.000000 0.000000
# 4 0.000000 0.000000 0.000000 0.023699 0.000000 0.000000
# 5 0.000000 0.000000 0.000000 0.000000 0.112775 0.000000
# 6 0.000000 0.000000 0.000000 0.000000 0.000000 0.021505
#
#
# Mechanical properties :
#
#
# Convention : Reuss Voigt Hill
#
# Bulk Modulus (GPa) = 32.18077 45.79328 38.98703
# Shear Modulus (GPa) = 19.85522 31.35014 25.60268
#
# Velocity S-wave (km/s) = 3.08153 3.87212 3.49922
# Velocity P-wave (km/s) = 5.29638 6.47239 5.91369
#
# Compressibility (1/GPa) = 0.03107446
#
# Stress axis : x y z
#
# Youngs Moduli (GPa) = 29.22361 71.72659 109.65622
#
# Poissons Ratio (x) = 0.35574 0.63393
# Poissons Ratio (y) = 0.14494 0.25901
# Poissons Ratio (z) = 0.16894 0.16942
#
# Static dielectric constant tensor:
#      x y z
#    x 1.756970 0.000000 0.000000 
#    y 0.000000 1.808780 0.000000 
#    z 0.000000 0.000000 1.869890 
# 
# From -- ./inp_files/34045.got.cif
#   From: 2010.05.17/outbox.cif.g08.bks.cpg/sg21_18_cif.got.tgz:34045.got - 2010.06.03 23:14:55.
