data_PCOD9322818
_publ_section_title
;
Structure prediction by ZEFSAII (Michael W. Deem and Ramdas Pophale) SiO2 
 PCOD9322818
Probable space group: C 2 2 2
;
_chemical_formula_sum "Si O2"
_cell_formula_units_Z 64
_cell_length_a 7.950539
_cell_length_b 16.521026
_cell_length_c 22.809593
_cell_angle_alpha 90.000000
_cell_angle_beta 90.000000
_cell_angle_gamma 90.000000
_cell_volume 2996.064254
_symmetry_space_group_name_H-M "C 2 2 2"
_symmetry_group_IT_number 21
_symmetry_cell_setting 'orthorhombic'
loop_
_space_group_symop_operation_xyz
x,y,z
-x,-y,z
x,-y,-z
-x,y,-z
1/2+x,1/2+y,z
1/2-x,1/2-y,z
1/2+x,1/2-y,-z
1/2-x,1/2+y,-z
loop_
_atom_site_type_symbol
_atom_site_label
_atom_site_fract_x
_atom_site_fract_y
_atom_site_fract_z
Si Si1 0.570024 0.289526 0.061440
Si Si2 0.138242 0.677947 0.858231
Si Si3 0.343515 0.668726 0.265506
Si Si4 0.660174 0.838812 0.355948
Si Si5 0.466253 0.594394 0.839292
Si Si6 0.489212 0.906944 0.243997
Si Si7 0.736067 0.832521 0.610797
Si Si8 0.203456 0.492945 0.431143
O O1 0.750000 0.250000 0.053411
O O2 0.444362 0.219187 0.085472
O O3 0.573501 0.358000 0.111544
O O4 0.500000 0.321264 0.000000
O O5 0.250000 0.750000 0.830955
O O6 0.275959 0.607734 0.862001
O O7 0.000965 0.646495 0.813950
O O8 0.250000 0.750000 0.243060
O O9 0.487210 0.637691 0.222547
O O10 0.364317 0.684666 0.334388
O O11 0.197202 0.602493 0.268574
O O12 0.750000 0.750000 0.356263
O O13 0.628544 0.874593 0.289956
O O14 0.465275 0.834677 0.377010
O O15 0.745325 0.909471 0.396389
O O16 0.500000 0.500000 0.834326
O O17 0.500000 0.000000 0.229582
O O18 0.750000 0.750000 0.572371
O O19 0.779466 0.923307 0.592604
O O20 0.241116 0.500000 0.500000
O O21 0.000000 0.500000 0.424846
#
# Coordination Sequence:
#
# PCOD9322818 Si02
#       8
#     8   8   8   8   8   8   8   8
#     4  11  23  43  66  86 117 161 207 252 306 375
#     4  10  21  36  57  87 115 150 198 243 298 361
#     4  10  19  34  53  77 112 154 191 233 297 367
#     4  10  20  34  54  82 111 149 196 245 299 359
#     4  11  22  36  57  88 121 152 194 249 302 351
#     4  11  20  33  54  80 114 149 190 242 297 361
#     4   9  19  35  55  80 111 149 195 243 301 365
#     4   9  18  35  57  80 111 154 203 252 306 373
#
# _framework density 21.361357000000002
#
# number of rings (size 3 to 8) (size 9 to 14) (size 15 to 20)
#    0.000    1.875    0.000    6.750    0.000    2.750 
#    0.000    0.625    0.000    3.375    0.000    0.000 
#    0.000    0.000    0.000    0.000    0.000    0.000 
#
# Total GULP energy -178182.942641 kJ/mol
# GULP energy per Si atom -5568.216958 kJ/mol
# Density = 2.131274 g / cm^3
# Si number density = 21.361357 Si / 1000 Ang^3
#
#
#
# Elastic Constant Matrix: (Units=GPa)
#
#
# Indices 1 2 3 4 5 6 
#
# 1 53.2974 23.9779 14.1681 0.0000 0.0000 0.0000
# 2 23.9779 126.3338 43.4614 0.0000 0.0000 0.0000
# 3 14.1681 43.4614 72.7000 0.0000 0.0000 0.0000
# 4 0.0000 0.0000 0.0000 28.5708 0.0000 0.0000
# 5 0.0000 0.0000 0.0000 0.0000 12.8577 0.0000
# 6 0.0000 0.0000 0.0000 0.0000 0.0000 29.4520
#
#
#
# Elastic Compliance Matrix: (Units=1/GPa)
#
#
# Indices 1 2 3 4 5 6 
#
# 1 0.020773 -0.003210 -0.002129 0.000000 0.000000 0.000000
# 2 -0.003210 0.010461 -0.005628 0.000000 0.000000 0.000000
# 3 -0.002129 -0.005628 0.017535 0.000000 0.000000 0.000000
# 4 0.000000 0.000000 0.000000 0.035001 0.000000 0.000000
# 5 0.000000 0.000000 0.000000 0.000000 0.077775 0.000000
# 6 0.000000 0.000000 0.000000 0.000000 0.000000 0.033954
#
#
# Mechanical properties :
#
#
# Convention : Reuss Voigt Hill
#
# Bulk Modulus (GPa) = 37.26683 46.17179 41.71931
# Shear Modulus (GPa) = 22.08704 25.55769 23.82237
#
# Velocity S-wave (km/s) = 3.21903 3.46272 3.34310
# Velocity P-wave (km/s) = 5.59464 6.13586 5.87149
#
# Compressibility (1/GPa) = 0.02683351
#
# Stress axis : x y z
#
# Youngs Moduli (GPa) = 48.13971 95.59293 57.02966
#
# Poissons Ratio (x) = 0.30687 0.12143
# Poissons Ratio (y) = 0.15454 0.32097
# Poissons Ratio (z) = 0.10250 0.53801
#
# Static dielectric constant tensor:
#      x y z
#    x 1.836050 0.000000 0.000000 
#    y 0.000000 1.825650 0.000000 
#    z 0.000000 0.000000 1.827580 
# 
# From -- ./inp_files/38546.got.cif
#   From: 2010.05.17/outbox.cif.g08.bks.cpg/sg21_20_cif.got.tgz:38546.got - 2010.06.03 23:14:55.
