data_PCOD9322091
_publ_section_title
;
Structure prediction by ZEFSAII (Michael W. Deem and Ramdas Pophale) SiO2 
 PCOD9322091
Probable space group: C 2 2 21
;
_chemical_formula_sum "Si O2"
_cell_formula_units_Z 36
_cell_length_a 26.830627
_cell_length_b 9.884700
_cell_length_c 6.998675
_cell_angle_alpha 90.000000
_cell_angle_beta 90.000000
_cell_angle_gamma 90.000000
_cell_volume 1856.137484
_symmetry_space_group_name_H-M "C 2 2 21"
_symmetry_group_IT_number 20
_symmetry_cell_setting 'orthorhombic'
loop_
_space_group_symop_operation_xyz
x,y,z
-x,-y,1/2+z
x,-y,-z
-x,y,1/2-z
1/2+x,1/2+y,z
1/2-x,1/2-y,1/2+z
1/2+x,1/2-y,-z
1/2-x,1/2+y,1/2-z
loop_
_atom_site_type_symbol
_atom_site_label
_atom_site_fract_x
_atom_site_fract_y
_atom_site_fract_z
Si Si1 0.552396 0.624919 0.653808
Si Si2 0.806411 0.180465 0.288978
Si Si3 0.134056 0.340629 0.533717
Si Si4 0.114105 0.000000 0.000000
Si Si5 0.707756 0.124053 0.118875
O O1 0.546688 0.500000 0.500000
O O2 0.500000 0.667729 0.750000
O O3 0.585291 0.745620 0.560065
O O4 0.582205 0.573769 0.839229
O O5 0.761849 0.090026 0.205102
O O6 0.782410 0.260824 0.464241
O O7 0.850706 0.097080 0.379311
O O8 0.831493 0.280546 0.135504
O O9 0.122840 0.500000 0.500000
O O10 0.168443 0.332127 0.722531
O O11 0.686281 0.000000 0.000000
#
# Coordination Sequence:
#
# PCOD9322091 Si02
#       5
#     8   8   8   4   8
#     4  12  26  48  75 104 133 176 239 301 358 416
#     4  12  26  40  65 102 142 188 231 281 343 419
#     4  12  26  46  67 102 146 186 227 285 356 428
#     4  12  26  42  70 104 136 176 238 294 348 412
#     4  12  26  40  62  99 145 189 232 278 341 419
#
# _framework density 19.395116000000002
#
# number of rings (size 3 to 8) (size 9 to 14) (size 15 to 20)
#    0.000    0.000   10.000    0.000    7.778    0.000 
#    0.000    4.444    0.000    0.000    0.000    0.000 
#    0.000    0.000    0.000    0.000    0.000    0.000 
#
# Total GULP energy -100523.642430 kJ/mol
# GULP energy per Si atom -5584.646802 kJ/mol
# Density = 1.935097 g / cm^3
# Si number density = 19.395116 Si / 1000 Ang^3
#
#
#
# Elastic Constant Matrix: (Units=GPa)
#
#
# Indices 1 2 3 4 5 6 
#
# 1 105.1958 26.4503 42.5127 0.0000 0.0000 0.0000
# 2 26.4503 67.4428 34.4694 0.0000 0.0000 0.0000
# 3 42.5127 34.4694 109.6274 0.0000 0.0000 0.0000
# 4 0.0000 0.0000 0.0000 44.9044 0.0000 0.0000
# 5 0.0000 0.0000 0.0000 0.0000 30.4233 0.0000
# 6 0.0000 0.0000 0.0000 0.0000 0.0000 21.5533
#
#
#
# Elastic Compliance Matrix: (Units=1/GPa)
#
#
# Indices 1 2 3 4 5 6 
#
# 1 0.011671 -0.002697 -0.003678 0.000000 0.000000 0.000000
# 2 -0.002697 0.018290 -0.004705 0.000000 0.000000 0.000000
# 3 -0.003678 -0.004705 0.012027 0.000000 0.000000 0.000000
# 4 0.000000 0.000000 0.000000 0.022270 0.000000 0.000000
# 5 0.000000 0.000000 0.000000 0.000000 0.032870 0.000000
# 6 0.000000 0.000000 0.000000 0.000000 0.000000 0.046397
#
#
# Mechanical properties :
#
#
# Convention : Reuss Voigt Hill
#
# Bulk Modulus (GPa) = 50.43356 54.34787 52.39072
# Shear Modulus (GPa) = 29.02046 31.29842 30.15944
#
# Velocity S-wave (km/s) = 3.87237 4.02148 3.94763
# Velocity P-wave (km/s) = 6.78626 7.04594 6.91732
#
# Compressibility (1/GPa) = 0.01982807
#
# Stress axis : x y z
#
# Youngs Moduli (GPa) = 85.68563 54.67530 83.14480
#
# Poissons Ratio (x) = 0.14749 0.30577
# Poissons Ratio (y) = 0.23113 0.39117
# Poissons Ratio (z) = 0.31512 0.25723
#
# Static dielectric constant tensor:
#      x y z
#    x 1.685080 0.000000 0.000000 
#    y 0.000000 1.702080 0.000000 
#    z 0.000000 0.000000 1.678700 
# 
# From -- ./inp_files/1214.got.cif
#   From: 2010.05.17/outbox.cif.g08.bks.cpg/sg20_1_cif.got.tgz:1214.got - 2010.06.03 22:52:26.
