data_PCOD9322550
_publ_section_title
;
Structure prediction by ZEFSAII (Michael W. Deem and Ramdas Pophale) SiO2 
 PCOD9322550
Probable space group: C 2 2 2
;
_chemical_formula_sum "Si O2"
_cell_formula_units_Z 48
_cell_length_a 22.387669
_cell_length_b 9.451329
_cell_length_c 11.758939
_cell_angle_alpha 90.000000
_cell_angle_beta 90.000000
_cell_angle_gamma 90.000000
_cell_volume 2488.111829
_symmetry_space_group_name_H-M "C 2 2 2"
_symmetry_group_IT_number 21
_symmetry_cell_setting 'orthorhombic'
loop_
_space_group_symop_operation_xyz
x,y,z
-x,-y,z
x,-y,-z
-x,y,-z
1/2+x,1/2+y,z
1/2-x,1/2-y,z
1/2+x,1/2-y,-z
1/2-x,1/2+y,-z
loop_
_atom_site_type_symbol
_atom_site_label
_atom_site_fract_x
_atom_site_fract_y
_atom_site_fract_z
Si Si1 0.939886 0.754315 0.440139
Si Si2 0.355608 0.520961 0.680578
Si Si3 0.994591 0.342466 0.797048
Si Si4 0.388868 0.196583 0.665463
Si Si5 0.941372 0.073097 0.878720
Si Si6 0.769317 0.584522 0.615264
O O1 0.889882 0.867388 0.400254
O O2 0.914669 0.657736 0.541395
O O3 0.000000 0.818111 0.500000
O O4 0.959988 0.673624 0.325021
O O5 0.374702 0.362025 0.651265
O O6 0.382810 0.554012 0.803874
O O7 0.284250 0.506645 0.670964
O O8 0.062289 0.305823 0.763434
O O9 0.000000 0.500000 0.839641
O O10 0.961389 0.235494 0.880444
O O11 0.329874 0.104980 0.686729
O O12 0.000000 0.000000 0.819892
O O13 0.934999 0.000000 0.000000
O O14 0.782447 0.500000 0.500000
O O15 0.750000 0.750000 0.592875
#
# Coordination Sequence:
#
# PCOD9322550 Si02
#       6
#     8   8   8   8   8   8
#     4   9  19  29  53  82 121 153 195 235 277 338
#     4  10  18  34  52  81 106 147 199 242 278 331
#     4  10  21  34  53  88 117 148 180 229 298 352
#     4  10  19  31  50  79 119 159 189 222 271 337
#     4  10  20  38  63  85 104 135 191 254 305 347
#     4  10  21  34  51  78 116 162 200 228 268 335
#
# _framework density 19.291737000000001
#
# number of rings (size 3 to 8) (size 9 to 14) (size 15 to 20)
#    0.000    2.167    1.667    2.500    2.333    4.333 
#    0.000    1.667    0.000    0.000   13.000    0.000 
#    0.000    0.000    0.000    0.000    0.000    0.000 
#
# Total GULP energy -133725.792218 kJ/mol
# GULP energy per Si atom -5571.908009 kJ/mol
# Density = 1.924783 g / cm^3
# Si number density = 19.291737 Si / 1000 Ang^3
#
#
#
# Elastic Constant Matrix: (Units=GPa)
#
#
# Indices 1 2 3 4 5 6 
#
# 1 126.6332 36.8755 33.8375 0.0000 0.0000 0.0000
# 2 36.8755 90.2442 32.1258 0.0000 0.0000 0.0000
# 3 33.8375 32.1258 81.8139 0.0000 0.0000 0.0000
# 4 0.0000 0.0000 0.0000 17.1143 0.0000 0.0000
# 5 0.0000 0.0000 0.0000 0.0000 14.1932 0.0000
# 6 0.0000 0.0000 0.0000 0.0000 0.0000 21.4227
#
#
#
# Elastic Compliance Matrix: (Units=1/GPa)
#
#
# Indices 1 2 3 4 5 6 
#
# 1 0.009481 -0.002881 -0.002790 0.000000 0.000000 0.000000
# 2 -0.002881 0.013757 -0.004210 0.000000 0.000000 0.000000
# 3 -0.002790 -0.004210 0.015030 0.000000 0.000000 0.000000
# 4 0.000000 0.000000 0.000000 0.058431 0.000000 0.000000
# 5 0.000000 0.000000 0.000000 0.000000 0.070456 0.000000
# 6 0.000000 0.000000 0.000000 0.000000 0.000000 0.046679
#
#
# Mechanical properties :
#
#
# Convention : Reuss Voigt Hill
#
# Bulk Modulus (GPa) = 54.03805 56.04099 55.03952
# Shear Modulus (GPa) = 20.85359 23.60286 22.22823
#
# Velocity S-wave (km/s) = 3.29136 3.50161 3.39811
# Velocity P-wave (km/s) = 6.52042 6.74245 6.63236
#
# Compressibility (1/GPa) = 0.01850548
#
# Stress axis : x y z
#
# Youngs Moduli (GPa) = 105.47070 72.68952 66.53295
#
# Poissons Ratio (x) = 0.20942 0.18563
# Poissons Ratio (y) = 0.30386 0.28013
# Poissons Ratio (z) = 0.29427 0.30606
#
# Static dielectric constant tensor:
#      x y z
#    x 1.741940 0.000000 0.000000 
#    y 0.000000 1.732960 0.000000 
#    z 0.000000 0.000000 1.685760 
# 
# From -- ./inp_files/27324.got.cif
#   From: 2010.05.17/outbox.cif.g08.bks.cpg/sg21_14_cif.got.tgz:27324.got - 2010.06.03 23:14:55.
