data_PCOD9322006
_publ_section_title
;
Structure prediction by ZEFSAII (Michael W. Deem and Ramdas Pophale) SiO2 
 PCOD9322006
Probable space group: C 2 2 21
;
_chemical_formula_sum "Si O2"
_cell_formula_units_Z 36
_cell_length_a 15.092249
_cell_length_b 5.147677
_cell_length_c 19.596311
_cell_angle_alpha 90.000000
_cell_angle_beta 90.000000
_cell_angle_gamma 90.000000
_cell_volume 1522.437853
_symmetry_space_group_name_H-M "C 2 2 21"
_symmetry_group_IT_number 20
_symmetry_cell_setting 'orthorhombic'
loop_
_space_group_symop_operation_xyz
x,y,z
-x,-y,1/2+z
x,-y,-z
-x,y,1/2-z
1/2+x,1/2+y,z
1/2-x,1/2-y,1/2+z
1/2+x,1/2-y,-z
1/2-x,1/2+y,1/2-z
loop_
_atom_site_type_symbol
_atom_site_label
_atom_site_fract_x
_atom_site_fract_y
_atom_site_fract_z
Si Si1 0.250273 0.812394 0.293894
Si Si2 0.809642 0.500000 0.500000
Si Si3 0.498079 0.500000 0.000000
Si Si4 0.415628 0.870106 0.386314
Si Si5 0.090869 0.369226 0.612701
Si Si6 0.697982 0.000000 0.500000
O O1 0.249076 0.606989 0.232250
O O2 0.342259 0.766150 0.334742
O O3 0.160866 0.757851 0.336679
O O4 0.865066 0.580590 0.433354
O O5 0.753569 0.749330 0.520498
O O6 0.553295 0.327747 0.945757
O O7 0.441906 0.680184 0.948291
O O8 0.503807 0.998822 0.355209
O O9 0.143736 0.579784 0.567475
#
# Coordination Sequence:
#
# PCOD9322006 Si02
#       6
#     8   4   4   8   8   4
#     4  12  34  56  76 110 162 228 272 310 380 486
#     4  12  24  42  78 118 154 196 247 341 413 459
#     4  12  24  48  80 130 150 190 262 352 424 452
#     4  12  27  46  82 117 159 199 267 334 408 467
#     4  12  27  46  82 117 159 199 267 334 408 467
#     4  12  24  42  78 118 154 196 247 341 413 459
#
# _framework density 23.646287999999998
#
# number of rings (size 3 to 8) (size 9 to 14) (size 15 to 20)
#    0.000    0.000    6.667    1.333    9.333    0.889 
#    0.000    0.000    0.000    0.000    0.000    0.000 
#    0.000    0.000    0.000    0.000    0.000    0.000 
#
# Total GULP energy -100633.679842 kJ/mol
# GULP energy per Si atom -5590.759991 kJ/mol
# Density = 2.359247 g / cm^3
# Si number density = 23.646288 Si / 1000 Ang^3
#
#
#
# Elastic Constant Matrix: (Units=GPa)
#
#
# Indices 1 2 3 4 5 6 
#
# 1 167.4033 19.6025 45.0208 0.0000 0.0000 0.0000
# 2 19.6025 49.0650 -1.8443 0.0000 0.0000 0.0000
# 3 45.0208 -1.8443 62.4383 0.0000 0.0000 0.0000
# 4 0.0000 0.0000 0.0000 30.8779 0.0000 0.0000
# 5 0.0000 0.0000 0.0000 0.0000 44.4254 0.0000
# 6 0.0000 0.0000 0.0000 0.0000 0.0000 37.5396
#
#
#
# Elastic Compliance Matrix: (Units=1/GPa)
#
#
# Indices 1 2 3 4 5 6 
#
# 1 0.007936 -0.003390 -0.005823 0.000000 0.000000 0.000000
# 2 -0.003390 0.021851 0.003090 0.000000 0.000000 0.000000
# 3 -0.005823 0.003090 0.020305 0.000000 0.000000 0.000000
# 4 0.000000 0.000000 0.000000 0.032386 0.000000 0.000000
# 5 0.000000 0.000000 0.000000 0.000000 0.022510 0.000000
# 6 0.000000 0.000000 0.000000 0.000000 0.000000 0.026639
#
#
# Mechanical properties :
#
#
# Convention : Reuss Voigt Hill
#
# Bulk Modulus (GPa) = 26.42159 44.94051 35.68105
# Shear Modulus (GPa) = 31.95121 36.97710 34.46416
#
# Velocity S-wave (km/s) = 3.67988 3.95873 3.82185
# Velocity P-wave (km/s) = 5.40863 6.31996 5.88197
#
# Compressibility (1/GPa) = 0.03784783
#
# Stress axis : x y z
#
# Youngs Moduli (GPa) = 126.00118 45.76351 49.24788
#
# Poissons Ratio (x) = 0.15512 0.28675
# Poissons Ratio (y) = 0.42710 -0.15215
# Poissons Ratio (z) = 0.73366 -0.14139
#
# Static dielectric constant tensor:
#      x y z
#    x 2.140640 0.000000 0.000000 
#    y 0.000000 1.950370 0.000000 
#    z 0.000000 0.000000 1.848660 
# 
# From -- ./inp_files/25950.got.cif
#   From: 2010.05.17/outbox.cif.g08.bks.cpg/sg20_13_cif.got.tgz:25950.got - 2010.06.03 22:52:26.
