data_PCOD9322994
_publ_section_title
;
Structure prediction by ZEFSAII (Michael W. Deem and Ramdas Pophale) SiO2 
 PCOD9322994
Probable space group: C 2 2 2
;
_chemical_formula_sum "Si O2"
_cell_formula_units_Z 64
_cell_length_a 12.613163
_cell_length_b 18.076662
_cell_length_c 14.459880
_cell_angle_alpha 90.000000
_cell_angle_beta 90.000000
_cell_angle_gamma 90.000000
_cell_volume 3296.908807
_symmetry_space_group_name_H-M "C 2 2 2"
_symmetry_group_IT_number 21
_symmetry_cell_setting 'orthorhombic'
loop_
_space_group_symop_operation_xyz
x,y,z
-x,-y,z
x,-y,-z
-x,y,-z
1/2+x,1/2+y,z
1/2-x,1/2-y,z
1/2+x,1/2-y,-z
1/2-x,1/2+y,-z
loop_
_atom_site_type_symbol
_atom_site_label
_atom_site_fract_x
_atom_site_fract_y
_atom_site_fract_z
Si Si1 0.891303 0.322620 0.451381
Si Si2 0.875739 0.327276 0.231456
Si Si3 0.530841 0.415007 0.856285
Si Si4 0.159143 0.152185 0.516599
Si Si5 0.013619 0.914265 0.638227
Si Si6 0.820078 0.170771 0.134894
Si Si7 0.534775 0.086494 0.896499
Si Si8 0.255924 0.336476 0.074351
O O1 0.897276 0.321055 0.339976
O O2 0.866454 0.239323 0.485086
O O3 0.783214 0.364909 0.477055
O O4 0.000000 0.347670 0.500000
O O5 0.857688 0.247666 0.182252
O O6 0.762190 0.365357 0.207792
O O7 0.969014 0.369252 0.179773
O O8 0.500000 0.500000 0.877152
O O9 0.537445 0.405709 0.745477
O O10 0.427735 0.370621 0.886516
O O11 0.637005 0.379288 0.897097
O O12 0.105217 0.117532 0.426764
O O13 0.095032 0.123962 0.605944
O O14 0.000000 0.000000 0.617618
O O15 0.757959 0.170763 0.037359
O O16 0.657119 0.112927 0.892535
O O17 0.500000 0.000000 0.887489
O O18 0.500000 0.109054 0.000000
O O19 0.250000 0.250000 0.108253
#
# Coordination Sequence:
#
# PCOD9322994 Si02
#       8
#     8   8   8   8   8   8   8   8
#     4  11  22  36  63  94 126 159 210 272 326 387
#     4  11  22  41  67  90 126 174 216 272 330 410
#     4  11  26  39  62  98 137 168 213 278 345 395
#     4  10  19  37  61  90 120 157 212 260 320 390
#     4  10  20  40  64  90 121 169 212 260 326 406
#     4  11  21  40  66  92 125 172 217 266 332 401
#     4  11  24  42  66  92 128 180 229 267 324 401
#     4  12  24  43  64  98 133 173 227 284 331 387
#
# _framework density 19.412123000000001
#
# number of rings (size 3 to 8) (size 9 to 14) (size 15 to 20)
#    0.000    1.125    3.750    4.875    1.750    2.000 
#    2.250    0.000    2.750    0.000    0.000    0.000 
#    0.000    0.000    0.000    0.000    0.000    0.000 
#
# Total GULP energy -178502.271301 kJ/mol
# GULP energy per Si atom -5578.195978 kJ/mol
# Density = 1.936794 g / cm^3
# Si number density = 19.412123 Si / 1000 Ang^3
#
#
#
# Elastic Constant Matrix: (Units=GPa)
#
#
# Indices 1 2 3 4 5 6 
#
# 1 190.4712 54.8776 63.1647 0.0000 0.0000 0.0000
# 2 54.8776 63.6820 30.6765 0.0000 0.0000 0.0000
# 3 63.1647 30.6765 99.9012 0.0000 0.0000 0.0000
# 4 0.0000 0.0000 0.0000 19.5473 0.0000 0.0000
# 5 0.0000 0.0000 0.0000 0.0000 13.1843 0.0000
# 6 0.0000 0.0000 0.0000 0.0000 0.0000 32.8545
#
#
#
# Elastic Compliance Matrix: (Units=1/GPa)
#
#
# Indices 1 2 3 4 5 6 
#
# 1 0.007853 -0.005135 -0.003389 0.000000 0.000000 0.000000
# 2 -0.005135 0.021787 -0.003443 0.000000 0.000000 0.000000
# 3 -0.003389 -0.003443 0.013210 0.000000 0.000000 0.000000
# 4 0.000000 0.000000 0.000000 0.051158 0.000000 0.000000
# 5 0.000000 0.000000 0.000000 0.000000 0.075848 0.000000
# 6 0.000000 0.000000 0.000000 0.000000 0.000000 0.030437
#
#
# Mechanical properties :
#
#
# Convention : Reuss Voigt Hill
#
# Bulk Modulus (GPa) = 52.86551 72.38799 62.62675
# Shear Modulus (GPa) = 21.68892 26.80627 24.24760
#
# Velocity S-wave (km/s) = 3.34621 3.72008 3.53809
# Velocity P-wave (km/s) = 6.49784 7.47148 7.00160
#
# Compressibility (1/GPa) = 0.01891592
#
# Stress axis : x y z
#
# Youngs Moduli (GPa) = 127.33265 45.89892 75.70190
#
# Poissons Ratio (x) = 0.23571 0.25652
# Poissons Ratio (y) = 0.65389 0.26065
# Poissons Ratio (z) = 0.43148 0.15804
#
# Static dielectric constant tensor:
#      x y z
#    x 1.766870 0.000000 0.000000 
#    y 0.000000 1.744910 0.000000 
#    z 0.000000 0.000000 1.641080 
# 
# From -- ./inp_files/31741.got.cif
#   From: 2010.05.17/outbox.cif.g08.bks.cpg/sg21_16_cif.got.tgz:31741.got - 2010.06.03 23:14:55.
