data_PCOD9322949
_publ_section_title
;
Structure prediction by ZEFSAII (Michael W. Deem and Ramdas Pophale) SiO2 
 PCOD9322949
Probable space group: C 2 2 2
;
_chemical_formula_sum "Si O2"
_cell_formula_units_Z 32
_cell_length_a 5.255381
_cell_length_b 15.218529
_cell_length_c 16.846643
_cell_angle_alpha 90.000000
_cell_angle_beta 90.000000
_cell_angle_gamma 90.000000
_cell_volume 1347.380493
_symmetry_space_group_name_H-M "C 2 2 2"
_symmetry_group_IT_number 21
_symmetry_cell_setting 'orthorhombic'
loop_
_space_group_symop_operation_xyz
x,y,z
-x,-y,z
x,-y,-z
-x,y,-z
1/2+x,1/2+y,z
1/2-x,1/2-y,z
1/2+x,1/2-y,-z
1/2-x,1/2+y,-z
loop_
_atom_site_type_symbol
_atom_site_label
_atom_site_fract_x
_atom_site_fract_y
_atom_site_fract_z
Si Si1 0.250400 0.599737 0.534935
Si Si2 0.870362 0.095355 0.718691
Si Si3 0.339812 0.156986 0.798228
Si Si4 0.750924 0.598385 0.964900
O O1 0.250256 0.500000 0.500000
O O2 0.500000 0.643331 0.500000
O O3 0.266336 0.594270 0.629310
O O4 0.000000 0.642346 0.500000
O O5 0.628079 0.132487 0.770089
O O6 0.126704 0.152192 0.728924
O O7 0.000000 0.000000 0.735763
O O8 0.250000 0.250000 0.835213
O O9 0.270310 0.092408 0.870500
O O10 0.750159 0.500000 0.000000
O O11 0.500000 0.641237 0.000000
O O12 0.000000 0.643080 0.000000
#
# Coordination Sequence:
#
# PCOD9322949 Si02
#       4
#     8   8   8   8
#     4  10  19  36  61 104 137 166 233 307 359 398
#     4  12  25  42  75 107 136 190 249 303 360 438
#     4  12  28  46  68 103 153 192 233 299 387 450
#     4  10  23  42  67 100 136 175 242 301 350 428
#
# _framework density 23.749787999999999
#
# number of rings (size 3 to 8) (size 9 to 14) (size 15 to 20)
#    0.000    1.000    2.500    4.500   14.000    1.000 
#    0.000    0.000    0.000   15.000    0.000    0.000 
#    0.000    0.000    0.000    0.000    0.000    0.000 
#
# Total GULP energy -89158.728212 kJ/mol
# GULP energy per Si atom -5572.420513 kJ/mol
# Density = 2.369573 g / cm^3
# Si number density = 23.749788 Si / 1000 Ang^3
#
#
#
# Elastic Constant Matrix: (Units=GPa)
#
#
# Indices 1 2 3 4 5 6 
#
# 1 271.5088 25.2005 49.6807 0.0000 0.0000 0.0000
# 2 25.2005 80.4998 19.3842 0.0000 0.0000 0.0000
# 3 49.6807 19.3842 123.8831 0.0000 0.0000 0.0000
# 4 0.0000 0.0000 0.0000 -18.3182 0.0000 0.0000
# 5 0.0000 0.0000 0.0000 0.0000 42.0481 0.0000
# 6 0.0000 0.0000 0.0000 0.0000 0.0000 11.3257
#
#
#
# Elastic Compliance Matrix: (Units=1/GPa)
#
#
# Indices 1 2 3 4 5 6 
#
# 1 0.004038 -0.000908 -0.001477 0.000000 0.000000 0.000000
# 2 -0.000908 0.013113 -0.001688 0.000000 0.000000 0.000000
# 3 -0.001477 -0.001688 0.008929 0.000000 0.000000 0.000000
# 4 0.000000 0.000000 0.000000 -0.054590 0.000000 0.000000
# 5 0.000000 0.000000 0.000000 0.000000 0.023782 0.000000
# 6 0.000000 0.000000 0.000000 0.000000 0.000000 0.088295
#
#
# Mechanical properties :
#
#
# Convention : Reuss Voigt Hill
#
# Bulk Modulus (GPa) = 55.76199 73.82472 64.79335
# Shear Modulus (GPa) = 51.18257 32.45288 41.81772
#
# Velocity S-wave (km/s) = 4.64731 3.70056 4.20070
# Velocity P-wave (km/s) = 7.23371 7.02928 7.13223
#
# Compressibility (1/GPa) = 0.01793336
#
# Stress axis : x y z
#
# Youngs Moduli (GPa) = 247.66508 76.25956 112.00025
#
# Poissons Ratio (x) = 0.06927 0.16544
# Poissons Ratio (y) = 0.22496 0.18901
# Poissons Ratio (z) = 0.36583 0.12869
#
# Static dielectric constant tensor:
#      x y z
#    x 1.890900 0.000000 0.000000 
#    y 0.000000 2.101120 0.000000 
#    z 0.000000 0.000000 1.893750 
# 
# From -- ./inp_files/28622.got.cif
#   From: 2010.05.17/outbox.cif.g08.bks.cpg/sg21_15_cif.got.tgz:28622.got - 2010.06.03 23:14:55.
