data_PCOD9322813
_publ_section_title
;
Structure prediction by ZEFSAII (Michael W. Deem and Ramdas Pophale) SiO2 
 PCOD9322813
Probable space group: C 2 2 2
;
_chemical_formula_sum "Si O2"
_cell_formula_units_Z 38
_cell_length_a 7.524536
_cell_length_b 13.785543
_cell_length_c 14.213674
_cell_angle_alpha 90.000000
_cell_angle_beta 90.000000
_cell_angle_gamma 90.000000
_cell_volume 1474.381769
_symmetry_space_group_name_H-M "C 2 2 2"
_symmetry_group_IT_number 21
_symmetry_cell_setting 'orthorhombic'
loop_
_space_group_symop_operation_xyz
x,y,z
-x,-y,z
x,-y,-z
-x,y,-z
1/2+x,1/2+y,z
1/2-x,1/2-y,z
1/2+x,1/2-y,-z
1/2-x,1/2+y,-z
loop_
_atom_site_type_symbol
_atom_site_label
_atom_site_fract_x
_atom_site_fract_y
_atom_site_fract_z
Si Si1 0.009153 0.169669 0.887514
Si Si2 0.791363 0.857908 0.535470
Si Si3 0.601396 0.137232 0.837747
Si Si4 0.198130 0.445266 0.351867
Si Si5 0.500000 0.500000 0.770716
Si Si6 0.500000 0.000000 0.000000
O O1 0.808785 0.164641 0.847395
O O2 0.046824 0.280231 0.857747
O O3 0.100505 0.076910 0.838237
O O4 0.000000 0.161926 0.000000
O O5 0.750000 0.750000 0.572917
O O6 0.682897 0.872757 0.438289
O O7 0.000000 0.869026 0.500000
O O8 0.718992 0.946493 0.601597
O O9 0.575949 0.088976 0.735584
O O10 0.598423 0.067709 0.927327
O O11 0.386906 0.437464 0.301196
#
# Coordination Sequence:
#
# PCOD9322813 Si02
#       6
#     8   8   8   8   4   2
#     4  10  21  39  61  95 124 172 230 272 325 397
#     4  11  23  44  72 100 137 176 227 292 351 412
#     4  10  24  40  64  92 132 179 218 278 343 408
#     4  10  21  43  65  96 126 180 226 266 342 418
#     4  10  19  33  70  88 122 168 228 272 314 404
#     4  12  24  48  58  92 148 176 208 294 364 380
#
# _framework density 25.773513999999999
#
# number of rings (size 3 to 8) (size 9 to 14) (size 15 to 20)
#    0.000    1.684    3.158    0.947   11.789    0.000 
#    7.579    1.053    0.000    0.000    0.000    0.000 
#    0.000    0.000    0.000    0.000    0.000    0.000 
#
# Total GULP energy -105775.400388 kJ/mol
# GULP energy per Si atom -5567.126336 kJ/mol
# Density = 2.571485 g / cm^3
# Si number density = 25.773514 Si / 1000 Ang^3
#
#
#
# Elastic Constant Matrix: (Units=GPa)
#
#
# Indices 1 2 3 4 5 6 
#
# 1 31.5259 -12.8052 7.2583 0.0000 0.0000 0.0000
# 2 -12.8052 101.1104 51.2444 0.0000 0.0000 0.0000
# 3 7.2583 51.2444 207.4613 0.0000 0.0000 0.0000
# 4 0.0000 0.0000 0.0000 28.7525 0.0000 0.0000
# 5 0.0000 0.0000 0.0000 0.0000 29.0489 0.0000
# 6 0.0000 0.0000 0.0000 0.0000 0.0000 23.3564
#
#
#
# Elastic Compliance Matrix: (Units=1/GPa)
#
#
# Indices 1 2 3 4 5 6 
#
# 1 0.034647 0.005718 -0.002625 0.000000 0.000000 0.000000
# 2 0.005718 0.012249 -0.003226 0.000000 0.000000 0.000000
# 3 -0.002625 -0.003226 0.005709 0.000000 0.000000 0.000000
# 4 0.000000 0.000000 0.000000 0.034780 0.000000 0.000000
# 5 0.000000 0.000000 0.000000 0.000000 0.034425 0.000000
# 6 0.000000 0.000000 0.000000 0.000000 0.000000 0.042815
#
#
# Mechanical properties :
#
#
# Convention : Reuss Voigt Hill
#
# Bulk Modulus (GPa) = 19.10575 47.94361 33.52468
# Shear Modulus (GPa) = 27.42207 35.85825 31.64016
#
# Velocity S-wave (km/s) = 3.26538 3.73404 3.50755
# Velocity P-wave (km/s) = 4.65253 6.10188 5.42582
#
# Compressibility (1/GPa) = 0.05234028
#
# Stress axis : x y z
#
# Youngs Moduli (GPa) = 28.86274 81.63818 175.16919
#
# Poissons Ratio (x) = -0.46681 0.45974
# Poissons Ratio (y) = -0.16504 0.56504
# Poissons Ratio (z) = 0.07575 0.26334
#
# Static dielectric constant tensor:
#      x y z
#    x 2.248100 0.000000 0.000000 
#    y 0.000000 2.609140 0.000000 
#    z 0.000000 0.000000 1.937030 
# 
# From -- ./inp_files/23860.got.cif
#   From: 2010.05.17/outbox.cif.g08.bks.cpg/sg21_12_cif.got.tgz:23860.got - 2010.06.03 23:14:55.
