data_PCOD9322497
_publ_section_title
;
Structure prediction by ZEFSAII (Michael W. Deem and Ramdas Pophale) SiO2 
 PCOD9322497
Probable space group: C 2 2 2
;
_chemical_formula_sum "Si O2"
_cell_formula_units_Z 48
_cell_length_a 9.615043
_cell_length_b 14.851522
_cell_length_c 17.190292
_cell_angle_alpha 90.000000
_cell_angle_beta 90.000000
_cell_angle_gamma 90.000000
_cell_volume 2454.739706
_symmetry_space_group_name_H-M "C 2 2 2"
_symmetry_group_IT_number 21
_symmetry_cell_setting 'orthorhombic'
loop_
_space_group_symop_operation_xyz
x,y,z
-x,-y,z
x,-y,-z
-x,y,-z
1/2+x,1/2+y,z
1/2-x,1/2-y,z
1/2+x,1/2-y,-z
1/2-x,1/2+y,-z
loop_
_atom_site_type_symbol
_atom_site_label
_atom_site_fract_x
_atom_site_fract_y
_atom_site_fract_z
Si Si1 0.138084 0.444313 0.355978
Si Si2 0.250000 0.250000 0.606811
Si Si3 0.553507 0.262489 0.663151
Si Si4 0.750000 0.250000 0.904574
Si Si5 0.154816 0.119168 0.477685
Si Si6 0.000000 0.000000 0.889381
Si Si7 0.500000 0.657505 0.000000
Si Si8 0.210294 0.105122 0.216524
O O1 0.100939 0.340259 0.337813
O O2 0.248642 0.446160 0.426290
O O3 0.211567 0.463975 0.274152
O O4 0.000000 0.500000 0.372167
O O5 0.387628 0.258509 0.657928
O O6 0.239479 0.163697 0.548814
O O7 0.611542 0.302125 0.582548
O O8 0.616962 0.326502 0.729880
O O9 0.708502 0.169018 0.844892
O O10 0.620510 0.284680 0.957274
O O11 0.000000 0.087491 0.500000
O O12 0.885323 0.044537 0.836500
O O13 0.060566 0.084060 0.938877
#
# Coordination Sequence:
#
# PCOD9322497 Si02
#       8
#     8   4   8   4   8   4   4   8
#     4  11  21  35  56  90 124 153 214 264 316 364
#     4  10  18  31  59  82 110 148 222 262 300 362
#     4  10  19  34  58  86 111 159 218 244 306 384
#     4  10  18  39  67  88 126 160 198 240 288 368
#     4   9  17  34  59  81 110 160 211 260 320 372
#     4   9  20  38  64  88 127 160 196 244 297 356
#     4   9  20  38  64 101 120 158 205 238 290 362
#     4  10  19  39  62  83 122 170 195 244 310 358
#
# _framework density 19.554008
#
# number of rings (size 3 to 8) (size 9 to 14) (size 15 to 20)
#    0.000    2.167    3.333    1.000    0.000    1.333 
#    3.000    5.000    0.000    7.000    0.000    0.000 
#    0.000    0.000    0.000    0.000    0.000    0.000 
#
# Total GULP energy -133714.118657 kJ/mol
# GULP energy per Si atom -5571.421611 kJ/mol
# Density = 1.950950 g / cm^3
# Si number density = 19.554008 Si / 1000 Ang^3
#
#
#
# Elastic Constant Matrix: (Units=GPa)
#
#
# Indices 1 2 3 4 5 6 
#
# 1 135.6231 35.5548 54.8872 0.0000 0.0000 0.0000
# 2 35.5548 68.1344 29.0329 0.0000 0.0000 0.0000
# 3 54.8872 29.0329 92.5012 0.0000 0.0000 0.0000
# 4 0.0000 0.0000 0.0000 -33.0337 0.0000 0.0000
# 5 0.0000 0.0000 0.0000 0.0000 17.4632 0.0000
# 6 0.0000 0.0000 0.0000 0.0000 0.0000 30.8606
#
#
#
# Elastic Compliance Matrix: (Units=1/GPa)
#
#
# Indices 1 2 3 4 5 6 
#
# 1 0.010271 -0.003189 -0.005093 0.000000 0.000000 0.000000
# 2 -0.003189 0.017933 -0.003736 0.000000 0.000000 0.000000
# 3 -0.005093 -0.003736 0.015006 0.000000 0.000000 0.000000
# 4 0.000000 0.000000 0.000000 -0.030272 0.000000 0.000000
# 5 0.000000 0.000000 0.000000 0.000000 0.057263 0.000000
# 6 0.000000 0.000000 0.000000 0.000000 0.000000 0.032404
#
#
# Mechanical properties :
#
#
# Convention : Reuss Voigt Hill
#
# Bulk Modulus (GPa) = 52.15969 59.46762 55.81365
# Shear Modulus (GPa) = 37.58474 14.84359 26.21417
#
# Velocity S-wave (km/s) = 4.38893 2.75818 3.66540
# Velocity P-wave (km/s) = 7.23990 6.37349 6.82047
#
# Compressibility (1/GPa) = 0.01917189
#
# Stress axis : x y z
#
# Youngs Moduli (GPa) = 97.36360 55.76248 66.64198
#
# Poissons Ratio (x) = 0.17784 0.33943
# Poissons Ratio (y) = 0.31052 0.24899
# Poissons Ratio (z) = 0.49591 0.20834
#
# Static dielectric constant tensor:
#      x y z
#    x 1.976820 0.000000 0.000000 
#    y 0.000000 1.756900 0.000000 
#    z 0.000000 0.000000 1.736080 
# 
# From -- ./inp_files/35733.got.cif
#   From: 2010.05.17/outbox.cif.g08.bks.cpg/sg21_18_cif.got.tgz:35733.got - 2010.06.03 23:14:55.
