data_PCOD9322941
_publ_section_title
;
Structure prediction by ZEFSAII (Michael W. Deem and Ramdas Pophale) SiO2 
 PCOD9322941
Probable space group: C 2 2 2
;
_chemical_formula_sum "Si O2"
_cell_formula_units_Z 48
_cell_length_a 28.467858
_cell_length_b 9.960684
_cell_length_c 7.224151
_cell_angle_alpha 90.000000
_cell_angle_beta 90.000000
_cell_angle_gamma 90.000000
_cell_volume 2048.475473
_symmetry_space_group_name_H-M "C 2 2 2"
_symmetry_group_IT_number 21
_symmetry_cell_setting 'orthorhombic'
loop_
_space_group_symop_operation_xyz
x,y,z
-x,-y,z
x,-y,-z
-x,y,-z
1/2+x,1/2+y,z
1/2-x,1/2-y,z
1/2+x,1/2-y,-z
1/2-x,1/2+y,-z
loop_
_atom_site_type_symbol
_atom_site_label
_atom_site_fract_x
_atom_site_fract_y
_atom_site_fract_z
Si Si1 0.646730 0.484119 0.278995
Si Si2 0.299592 0.264785 0.191294
Si Si3 0.455394 0.429407 0.296657
Si Si4 0.363340 0.963183 0.784643
Si Si5 0.697715 0.789816 0.768722
Si Si6 0.971665 0.622636 0.202685
O O1 0.649812 0.500000 0.500000
O O2 0.684634 0.582594 0.188039
O O3 0.595401 0.533395 0.214887
O O4 0.660960 0.332396 0.243258
O O5 0.250000 0.250000 0.288373
O O6 0.340696 0.177064 0.278373
O O7 0.293799 0.199095 0.989600
O O8 0.500000 0.500000 0.204838
O O9 0.452697 0.500000 0.500000
O O10 0.466509 0.270677 0.291205
O O11 0.419050 0.938473 0.780741
O O12 0.330895 0.080735 0.696558
O O13 0.358117 0.000000 0.000000
O O14 0.750000 0.750000 0.695699
O O15 0.000000 0.500000 0.291823
O O16 0.000000 0.640983 0.000000
#
# Coordination Sequence:
#
# PCOD9322941 Si02
#       6
#     8   8   8   8   8   8
#     4  11  23  40  63  90 130 170 215 266 313 390
#     4  10  20  38  63  89 123 167 211 264 326 385
#     4  10  24  45  64  87 135 179 217 270 336 413
#     4  10  19  36  59  92 130 156 207 271 320 384
#     4  10  22  39  64  95 131 173 213 262 327 386
#     4  11  22  39  66 103 130 163 219 284 341 389
#
# _framework density 23.432058999999999
#
# number of rings (size 3 to 8) (size 9 to 14) (size 15 to 20)
#    0.000    1.667    3.333    1.500    2.333    3.667 
#    3.000    2.500    0.000    0.000    0.000    0.000 
#    0.000    0.000    0.000    0.000    0.000    0.000 
#
# Total GULP energy -133637.415196 kJ/mol
# GULP energy per Si atom -5568.225633 kJ/mol
# Density = 2.337873 g / cm^3
# Si number density = 23.432059 Si / 1000 Ang^3
#
#
#
# Elastic Constant Matrix: (Units=GPa)
#
#
# Indices 1 2 3 4 5 6 
#
# 1 194.3312 64.9066 13.3583 0.0000 0.0000 0.0000
# 2 64.9066 177.2348 4.5995 0.0000 0.0000 0.0000
# 3 13.3583 4.5995 83.3699 0.0000 0.0000 0.0000
# 4 0.0000 0.0000 0.0000 43.6845 0.0000 0.0000
# 5 0.0000 0.0000 0.0000 0.0000 -24.9805 0.0000
# 6 0.0000 0.0000 0.0000 0.0000 0.0000 53.1683
#
#
#
# Elastic Compliance Matrix: (Units=1/GPa)
#
#
# Indices 1 2 3 4 5 6 
#
# 1 0.005920 -0.002146 -0.000830 0.000000 0.000000 0.000000
# 2 -0.002146 0.006429 -0.000011 0.000000 0.000000 0.000000
# 3 -0.000830 -0.000011 0.012128 0.000000 0.000000 0.000000
# 4 0.000000 0.000000 0.000000 0.022891 0.000000 0.000000
# 5 0.000000 0.000000 0.000000 0.000000 -0.040031 0.000000
# 6 0.000000 0.000000 0.000000 0.000000 0.000000 0.018808
#
#
# Mechanical properties :
#
#
# Convention : Reuss Voigt Hill
#
# Bulk Modulus (GPa) = 54.04764 68.96276 61.50520
# Shear Modulus (GPa) = 130.59247 39.17923 84.88585
#
# Velocity S-wave (km/s) = 7.47351 4.09349 6.02536
# Velocity P-wave (km/s) = 9.87861 7.19979 8.64361
#
# Compressibility (1/GPa) = 0.01850219
#
# Stress axis : x y z
#
# Youngs Moduli (GPa) = 168.92416 155.55577 82.45154
#
# Poissons Ratio (x) = 0.33389 0.06844
# Poissons Ratio (y) = 0.36258 0.00089
# Poissons Ratio (z) = 0.14023 0.00167
#
# Static dielectric constant tensor:
#      x y z
#    x 1.905220 0.000000 0.000000 
#    y 0.000000 1.883510 0.000000 
#    z 0.000000 0.000000 2.007850 
# 
# From -- ./inp_files/19685.got.cif
#   From: 2010.05.17/outbox.cif.g08.bks.cpg/sg21_10_cif.got.tgz:19685.got - 2010.06.03 23:14:55.
