data_PCOD9322392
_publ_section_title
;
Structure prediction by ZEFSAII (Michael W. Deem and Ramdas Pophale) SiO2 
 PCOD9322392
Probable space group: C 2 2 2
;
_chemical_formula_sum "Si O2"
_cell_formula_units_Z 58
_cell_length_a 15.820152
_cell_length_b 15.141780
_cell_length_c 11.003198
_cell_angle_alpha 90.000000
_cell_angle_beta 90.000000
_cell_angle_gamma 90.000000
_cell_volume 2635.763938
_symmetry_space_group_name_H-M "C 2 2 2"
_symmetry_group_IT_number 21
_symmetry_cell_setting 'orthorhombic'
loop_
_space_group_symop_operation_xyz
x,y,z
-x,-y,z
x,-y,-z
-x,y,-z
1/2+x,1/2+y,z
1/2-x,1/2-y,z
1/2+x,1/2-y,-z
1/2-x,1/2+y,-z
loop_
_atom_site_type_symbol
_atom_site_label
_atom_site_fract_x
_atom_site_fract_y
_atom_site_fract_z
Si Si1 0.956049 0.841440 0.372435
Si Si2 0.005924 0.344728 0.628509
Si Si3 0.939356 0.361109 0.111554
Si Si4 0.000000 0.000000 0.000000
Si Si5 0.732988 0.918289 0.791824
Si Si6 0.585199 0.651055 0.845396
Si Si7 0.721017 0.560206 0.379098
Si Si8 0.181669 0.674285 0.455617
O O1 0.865006 0.885415 0.363945
O O2 0.000000 0.864033 0.500000
O O3 0.941477 0.735740 0.358280
O O4 0.022927 0.865667 0.268369
O O5 0.018533 0.387965 0.758313
O O6 0.092237 0.291426 0.593121
O O7 0.000000 0.397010 0.500000
O O8 0.845164 0.402876 0.117311
O O9 0.930356 0.253104 0.113905
O O10 0.000000 0.385366 0.000000
O O11 0.939923 0.929936 0.931923
O O12 0.815482 0.860920 0.821057
O O13 0.702574 0.886631 0.659340
O O14 0.761097 0.015911 0.751608
O O15 0.703573 0.500000 0.500000
O O16 0.802868 0.615503 0.424833
O O17 0.250000 0.750000 0.463191
#
# Coordination Sequence:
#
# PCOD9322392 Si02
#       8
#     8   8   8   2   8   8   8   8
#     4  10  18  31  54  90 133 172 209 255 332 419
#     4   9  18  32  57  90 124 160 206 267 325 377
#     4  10  20  38  64  90 122 168 235 275 319 402
#     4  12  24  36  54  88 130 164 204 272 348 412
#     4  10  20  35  59  89 124 175 224 272 336 409
#     4  11  21  36  58  89 129 171 211 268 344 416
#     4  10  20  31  51  90 138 172 209 263 335 406
#     4  10  17  31  55  87 129 172 217 262 317 398
#
# _framework density 22.005005000000001
#
# number of rings (size 3 to 8) (size 9 to 14) (size 15 to 20)
#    0.000    1.931    0.690    7.034    0.000    1.379 
#    0.000    0.000    6.069   10.345    0.000    0.000 
#    0.000    0.000    0.000    0.000    0.000    0.000 
#
# Total GULP energy -161487.510085 kJ/mol
# GULP energy per Si atom -5568.534831 kJ/mol
# Density = 2.195492 g / cm^3
# Si number density = 22.005005 Si / 1000 Ang^3
#
#
#
# Elastic Constant Matrix: (Units=GPa)
#
#
# Indices 1 2 3 4 5 6 
#
# 1 121.1933 44.9893 60.4337 0.0000 0.0000 0.0000
# 2 44.9893 63.6105 13.5402 0.0000 0.0000 0.0000
# 3 60.4337 13.5402 100.4198 0.0000 0.0000 0.0000
# 4 0.0000 0.0000 0.0000 20.9522 0.0000 0.0000
# 5 0.0000 0.0000 0.0000 0.0000 14.2849 0.0000
# 6 0.0000 0.0000 0.0000 0.0000 0.0000 21.4549
#
#
#
# Elastic Compliance Matrix: (Units=1/GPa)
#
#
# Indices 1 2 3 4 5 6 
#
# 1 0.015909 -0.009486 -0.008295 0.000000 0.000000 0.000000
# 2 -0.009486 0.021842 0.002764 0.000000 0.000000 0.000000
# 3 -0.008295 0.002764 0.014578 0.000000 0.000000 0.000000
# 4 0.000000 0.000000 0.000000 0.047728 0.000000 0.000000
# 5 0.000000 0.000000 0.000000 0.000000 0.070004 0.000000
# 6 0.000000 0.000000 0.000000 0.000000 0.000000 0.046609
#
#
# Mechanical properties :
#
#
# Convention : Reuss Voigt Hill
#
# Bulk Modulus (GPa) = 44.85653 58.12779 51.49216
# Shear Modulus (GPa) = 19.67448 22.42240 21.04844
#
# Velocity S-wave (km/s) = 2.99338 3.19559 3.09614
# Velocity P-wave (km/s) = 5.69000 6.33157 6.01934
#
# Compressibility (1/GPa) = 0.02229330
#
# Stress axis : x y z
#
# Youngs Moduli (GPa) = 62.85652 45.78413 68.59794
#
# Poissons Ratio (x) = 0.43432 0.56904
# Poissons Ratio (y) = 0.59627 -0.18960
# Poissons Ratio (z) = 0.52141 -0.12654
#
# Static dielectric constant tensor:
#      x y z
#    x 1.946360 0.000000 0.000000 
#    y 0.000000 2.002290 0.000000 
#    z 0.000000 0.000000 1.874120 
# 
# From -- ./inp_files/25454.got.cif
#   From: 2010.05.17/outbox.cif.g08.bks.cpg/sg21_13_cif.got.tgz:25454.got - 2010.06.03 23:14:55.
