data_PCOD9322671
_publ_section_title
;
Structure prediction by ZEFSAII (Michael W. Deem and Ramdas Pophale) SiO2 
 PCOD9322671
Probable space group: C 2 2 2
;
_chemical_formula_sum "Si O2"
_cell_formula_units_Z 64
_cell_length_a 26.442990
_cell_length_b 20.176624
_cell_length_c 5.431290
_cell_angle_alpha 90.000000
_cell_angle_beta 90.000000
_cell_angle_gamma 90.000000
_cell_volume 2897.757602
_symmetry_space_group_name_H-M "C 2 2 2"
_symmetry_group_IT_number 21
_symmetry_cell_setting 'orthorhombic'
loop_
_space_group_symop_operation_xyz
x,y,z
-x,-y,z
x,-y,-z
-x,y,-z
1/2+x,1/2+y,z
1/2-x,1/2-y,z
1/2+x,1/2-y,-z
1/2-x,1/2+y,-z
loop_
_atom_site_type_symbol
_atom_site_label
_atom_site_fract_x
_atom_site_fract_y
_atom_site_fract_z
Si Si1 0.670511 0.424880 0.474156
Si Si2 0.388341 0.907361 0.070095
Si Si3 0.214640 0.621745 0.966189
Si Si4 0.264457 0.823906 0.470036
Si Si5 0.111845 0.245910 0.932617
Si Si6 0.556380 0.746920 0.430357
Si Si7 0.833371 0.880366 0.026181
Si Si8 0.056775 0.592381 0.570010
O O1 0.689039 0.500000 0.500000
O O2 0.715910 0.371539 0.462800
O O3 0.642041 0.404847 0.721672
O O4 0.644132 0.415660 0.212778
O O5 0.330201 0.927674 0.031798
O O6 0.386624 0.826031 0.059656
O O7 0.422883 0.928434 0.838584
O O8 0.408533 0.926747 0.337738
O O9 0.202025 0.650102 0.695850
O O10 0.273485 0.599938 0.957480
O O11 0.213749 0.672174 0.197101
O O12 0.250000 0.750000 0.532689
O O13 0.074153 0.227005 0.157580
O O14 0.159824 0.198670 0.992045
O O15 0.093261 0.228393 0.656924
O O16 0.500000 0.724894 0.500000
O O17 0.556146 0.827311 0.425913
O O18 0.000000 0.572053 0.500000
#
# Coordination Sequence:
#
# PCOD9322671 Si02
#       8
#     8   8   8   8   8   8   8   8
#     4  10  21  36  52  70  97 136 178 210 250 294
#     4  10  19  27  44  65  91 128 166 204 248 300
#     4  10  21  32  44  69 101 133 168 200 252 287
#     4  10  21  32  50  70  97 137 170 209 245 291
#     4  10  19  28  44  69  92 122 162 200 250 309
#     4   9  17  30  44  61  90 122 156 207 257 301
#     4  10  21  34  50  71 100 131 164 207 247 299
#     4   9  17  30  42  59  85 125 172 211 245 294
#
# _framework density 22.086044999999999
#
# number of rings (size 3 to 8) (size 9 to 14) (size 15 to 20)
#    0.000    2.250    0.000    3.000    7.000    3.000 
#    0.000    0.000    0.000    0.000    0.000    0.000 
#    0.000   35.000    0.000    0.000    0.000  700.000 
#
# Total GULP energy -178473.248437 kJ/mol
# GULP energy per Si atom -5577.289014 kJ/mol
# Density = 2.203578 g / cm^3
# Si number density = 22.086045 Si / 1000 Ang^3
#
#
#
# Elastic Constant Matrix: (Units=GPa)
#
#
# Indices 1 2 3 4 5 6 
#
# 1 38.2523 -3.8197 -3.5796 0.0000 0.0000 0.0000
# 2 -3.8197 90.1862 -1.3345 0.0000 0.0000 0.0000
# 3 -3.5796 -1.3345 159.1439 0.0000 0.0000 0.0000
# 4 0.0000 0.0000 0.0000 -2.4231 0.0000 0.0000
# 5 0.0000 0.0000 0.0000 0.0000 30.0399 0.0000
# 6 0.0000 0.0000 0.0000 0.0000 0.0000 -25.5800
#
#
#
# Elastic Compliance Matrix: (Units=1/GPa)
#
#
# Indices 1 2 3 4 5 6 
#
# 1 0.026311 0.001123 0.000601 0.000000 0.000000 0.000000
# 2 0.001123 0.011138 0.000119 0.000000 0.000000 0.000000
# 3 0.000601 0.000119 0.006298 0.000000 0.000000 0.000000
# 4 0.000000 0.000000 0.000000 -0.412688 0.000000 0.000000
# 5 0.000000 0.000000 0.000000 0.000000 0.033289 0.000000
# 6 0.000000 0.000000 0.000000 0.000000 0.000000 -0.039093
#
#
# Mechanical properties :
#
#
# Convention : Reuss Voigt Hill
#
# Bulk Modulus (GPa) = 21.08258 30.01276 25.54767
# Shear Modulus (GPa) = -13.78849 20.16176 3.18663
#
# Velocity S-wave (km/s) = -2.50133 3.02466 1.20248
# Velocity P-wave (km/s) = 1.10644 5.08100 3.67701
#
# Compressibility (1/GPa) = 0.04743253
#
# Stress axis : x y z
#
# Youngs Moduli (GPa) = 38.00739 89.78673 158.77703
#
# Poissons Ratio (x) = -0.10085 -0.09546
# Poissons Ratio (y) = -0.04269 -0.01884
# Poissons Ratio (z) = -0.02285 -0.01065
#
# Static dielectric constant tensor:
#      x y z
#    x 1.854160 0.000000 0.000000 
#    y 0.000000 1.804980 0.000000 
#    z 0.000000 0.000000 1.913790 
# 
# From -- ./inp_files/7530.got.cif
#   From: 2010.05.17/outbox.cif.g08.bks.cpg/sg21_4_cif.got.tgz:7530.got - 2010.06.03 23:14:55.
