data_PCOD9322288
_publ_section_title
;
Structure prediction by ZEFSAII (Michael W. Deem and Ramdas Pophale) SiO2 
 PCOD9322288
Probable space group: C 2 2 2
;
_chemical_formula_sum "Si O2"
_cell_formula_units_Z 40
_cell_length_a 5.322971
_cell_length_b 13.884148
_cell_length_c 21.685818
_cell_angle_alpha 90.000000
_cell_angle_beta 90.000000
_cell_angle_gamma 90.000000
_cell_volume 1602.688583
_symmetry_space_group_name_H-M "C 2 2 2"
_symmetry_group_IT_number 21
_symmetry_cell_setting 'orthorhombic'
loop_
_space_group_symop_operation_xyz
x,y,z
-x,-y,z
x,-y,-z
-x,y,-z
1/2+x,1/2+y,z
1/2-x,1/2-y,z
1/2+x,1/2-y,-z
1/2-x,1/2+y,-z
loop_
_atom_site_type_symbol
_atom_site_label
_atom_site_fract_x
_atom_site_fract_y
_atom_site_fract_z
Si Si1 0.265807 0.097921 0.823898
Si Si2 0.747519 0.134668 0.039102
Si Si3 0.495493 0.616254 0.358395
Si Si4 0.988238 0.617351 0.429586
Si Si5 0.778040 0.118010 0.774258
O O1 0.291497 0.080733 0.896173
O O2 0.499740 0.150516 0.791781
O O3 0.995541 0.147630 0.820733
O O4 0.245875 0.997930 0.785439
O O5 0.750000 0.250000 0.052811
O O6 0.500000 0.115793 0.000000
O O7 0.000000 0.112804 0.000000
O O8 0.500000 0.500000 0.356624
O O9 0.220388 0.644590 0.384174
O O10 0.603103 0.644496 0.291485
O O11 0.715897 0.644867 0.404635
O O12 0.000000 0.500000 0.430988
O O13 0.000000 0.651464 0.500000
#
# Coordination Sequence:
#
# PCOD9322288 Si02
#       5
#     8   8   8   8   8
#     4  10  19  32  49  69  93 118 152 192 223 277
#     4  10  21  38  56  72  91 118 152 189 234 284
#     4  10  16  25  40  53  83 121 157 189 222 263
#     4   9  17  24  34  53  78 116 167 200 215 247
#     4  10  19  30  45  70  96 124 157 185 229 283
#
# _framework density 24.958062000000002
#
# number of rings (size 3 to 8) (size 9 to 14) (size 15 to 20)
#    0.000    2.200    2.000    3.000    5.600    2.400 
#    0.000   12.000    0.000    0.000    0.000    0.000 
#    0.000    0.000    0.000    0.000    0.000  100.000 
#
# Total GULP energy -111700.156321 kJ/mol
# GULP energy per Si atom -5585.007816 kJ/mol
# Density = 2.490126 g / cm^3
# Si number density = 24.958062 Si / 1000 Ang^3
#
#
#
# Elastic Constant Matrix: (Units=GPa)
#
#
# Indices 1 2 3 4 5 6 
#
# 1 216.2395 -20.0187 51.7915 0.0000 0.0000 0.0000
# 2 -20.0187 99.6133 -19.6064 0.0000 0.0000 0.0000
# 3 51.7915 -19.6064 163.5153 0.0000 0.0000 0.0000
# 4 0.0000 0.0000 0.0000 -7.4241 0.0000 0.0000
# 5 0.0000 0.0000 0.0000 0.0000 53.0329 0.0000
# 6 0.0000 0.0000 0.0000 0.0000 0.0000 -42.0637
#
#
#
# Elastic Compliance Matrix: (Units=1/GPa)
#
#
# Indices 1 2 3 4 5 6 
#
# 1 0.005054 0.000717 -0.001515 0.000000 0.000000 0.000000
# 2 0.000717 0.010383 0.001018 0.000000 0.000000 0.000000
# 3 -0.001515 0.001018 0.006717 0.000000 0.000000 0.000000
# 4 0.000000 0.000000 0.000000 -0.134696 0.000000 0.000000
# 5 0.000000 0.000000 0.000000 0.000000 0.018856 0.000000
# 6 0.000000 0.000000 0.000000 0.000000 0.000000 -0.023773
#
#
# Mechanical properties :
#
#
# Convention : Reuss Voigt Hill
#
# Bulk Modulus (GPa) = 44.25636 55.96677 50.11156
# Shear Modulus (GPa) = -45.30276 31.85579 -6.72348
#
# Velocity S-wave (km/s) = -4.26509 3.57651 -1.64309
# Velocity P-wave (km/s) = 2.54634 6.28715 4.06475
#
# Compressibility (1/GPa) = 0.02259562
#
# Stress axis : x y z
#
# Youngs Moduli (GPa) = 197.87472 96.30819 148.86661
#
# Poissons Ratio (x) = -0.06910 0.22548
# Poissons Ratio (y) = -0.14197 -0.15151
# Poissons Ratio (z) = 0.29971 -0.09802
#
# Static dielectric constant tensor:
#      x y z
#    x 1.985800 0.000000 0.000000 
#    y 0.000000 2.094500 0.000000 
#    z 0.000000 0.000000 1.977110 
# 
# From -- ./inp_files/34688.got.cif
#   From: 2010.05.17/outbox.cif.g08.bks.cpg/sg21_18_cif.got.tgz:34688.got - 2010.06.03 23:14:55.
