data_PCOD9322867
_publ_section_title
;
Structure prediction by ZEFSAII (Michael W. Deem and Ramdas Pophale) SiO2 
 PCOD9322867
Probable space group: C 2 2 2
;
_chemical_formula_sum "Si O2"
_cell_formula_units_Z 56
_cell_length_a 19.203283
_cell_length_b 17.916978
_cell_length_c 9.692811
_cell_angle_alpha 90.000000
_cell_angle_beta 90.000000
_cell_angle_gamma 90.000000
_cell_volume 3334.955069
_symmetry_space_group_name_H-M "C 2 2 2"
_symmetry_group_IT_number 21
_symmetry_cell_setting 'orthorhombic'
loop_
_space_group_symop_operation_xyz
x,y,z
-x,-y,z
x,-y,-z
-x,y,-z
1/2+x,1/2+y,z
1/2-x,1/2-y,z
1/2+x,1/2-y,-z
1/2-x,1/2+y,-z
loop_
_atom_site_type_symbol
_atom_site_label
_atom_site_fract_x
_atom_site_fract_y
_atom_site_fract_z
Si Si1 0.178049 0.705138 0.761094
Si Si2 0.126085 0.832813 0.962771
Si Si3 0.418930 0.751989 0.526409
Si Si4 0.447829 0.607444 0.706262
Si Si5 0.254442 0.935029 0.896078
Si Si6 0.666834 0.488777 0.344989
Si Si7 0.102650 0.839134 0.276914
O O1 0.250000 0.750000 0.723644
O O2 0.143886 0.758442 0.877316
O O3 0.128356 0.698332 0.627167
O O4 0.193701 0.625890 0.831571
O O5 0.071544 0.876189 0.865434
O O6 0.194399 0.885264 0.969434
O O7 0.101831 0.818262 0.116923
O O8 0.500000 0.773947 0.500000
O O9 0.417346 0.672998 0.609516
O O10 0.389329 0.731572 0.376498
O O11 0.407657 0.532404 0.666107
O O12 0.529492 0.619661 0.689293
O O13 0.216056 0.973290 0.766921
O O14 0.279431 0.000000 0.000000
O O15 0.692243 0.500000 0.500000
O O16 0.658719 0.402265 0.309715
#
# Coordination Sequence:
#
# PCOD9322867 Si02
#       7
#     8   8   8   8   8   8   8
#     4   9  19  35  54  69 104 146 177 214 275 313
#     4   9  18  32  45  70  98 138 180 222 256 296
#     4   9  18  32  49  75 106 144 174 209 257 319
#     4   9  18  28  43  66 105 146 175 203 250 307
#     4  10  19  35  52  69  96 141 183 225 265 310
#     4  11  20  29  44  68 108 145 177 210 257 306
#     4  11  18  27  46  72 104 136 182 211 244 309
#
# _framework density 16.791830000000001
#
# number of rings (size 3 to 8) (size 9 to 14) (size 15 to 20)
#    0.000    2.286    2.857    1.714    0.000    0.571 
#    0.000    5.000    0.000    0.000    0.000    0.000 
#    0.000   38.286    0.000    0.000    0.000    0.000 
#
# Total GULP energy -155949.019089 kJ/mol
# GULP energy per Si atom -5569.607825 kJ/mol
# Density = 1.675361 g / cm^3
# Si number density = 16.791830 Si / 1000 Ang^3
#
#
#
# Elastic Constant Matrix: (Units=GPa)
#
#
# Indices 1 2 3 4 5 6 
#
# 1 26.9423 25.6461 19.3332 0.0000 0.0000 0.0000
# 2 25.6461 63.5168 26.8266 0.0000 0.0000 0.0000
# 3 19.3332 26.8266 124.6978 0.0000 0.0000 0.0000
# 4 0.0000 0.0000 0.0000 20.8771 0.0000 0.0000
# 5 0.0000 0.0000 0.0000 0.0000 18.4884 0.0000
# 6 0.0000 0.0000 0.0000 0.0000 0.0000 16.3747
#
#
#
# Elastic Compliance Matrix: (Units=1/GPa)
#
#
# Indices 1 2 3 4 5 6 
#
# 1 0.062697 -0.023329 -0.004702 0.000000 0.000000 0.000000
# 2 -0.023329 0.025998 -0.001976 0.000000 0.000000 0.000000
# 3 -0.004702 -0.001976 0.009173 0.000000 0.000000 0.000000
# 4 0.000000 0.000000 0.000000 0.047899 0.000000 0.000000
# 5 0.000000 0.000000 0.000000 0.000000 0.054088 0.000000
# 6 0.000000 0.000000 0.000000 0.000000 0.000000 0.061070
#
#
# Mechanical properties :
#
#
# Convention : Reuss Voigt Hill
#
# Bulk Modulus (GPa) = 26.41688 39.86317 33.14003
# Shear Modulus (GPa) = 14.98989 20.70480 17.84735
#
# Velocity S-wave (km/s) = 2.99103 3.51526 3.26369
# Velocity P-wave (km/s) = 5.26256 6.34565 5.82931
#
# Compressibility (1/GPa) = 0.03785458
#
# Stress axis : x y z
#
# Youngs Moduli (GPa) = 15.94967 38.46432 109.01021
#
# Poissons Ratio (x) = 0.89735 0.51253
# Poissons Ratio (y) = 0.37210 0.21541
# Poissons Ratio (z) = 0.07499 0.07601
#
# Static dielectric constant tensor:
#      x y z
#    x 1.595170 0.000000 0.000000 
#    y 0.000000 1.560080 0.000000 
#    z 0.000000 0.000000 1.580830 
# 
# From -- ./inp_files/16786.got.cif
#   From: 2010.05.17/outbox.cif.g08.bks.cpg/sg21_9_cif.got.tgz:16786.got - 2010.06.03 23:14:55.
