data_PCOD9322726
_publ_section_title
;
Structure prediction by ZEFSAII (Michael W. Deem and Ramdas Pophale) SiO2 
 PCOD9322726
Probable space group: C 2 2 2
;
_chemical_formula_sum "Si O2"
_cell_formula_units_Z 32
_cell_length_a 5.260407
_cell_length_b 35.385121
_cell_length_c 7.179502
_cell_angle_alpha 90.000000
_cell_angle_beta 90.000000
_cell_angle_gamma 90.000000
_cell_volume 1336.393495
_symmetry_space_group_name_H-M "C 2 2 2"
_symmetry_group_IT_number 21
_symmetry_cell_setting 'orthorhombic'
loop_
_space_group_symop_operation_xyz
x,y,z
-x,-y,z
x,-y,-z
-x,y,-z
1/2+x,1/2+y,z
1/2-x,1/2-y,z
1/2+x,1/2-y,-z
1/2-x,1/2+y,-z
loop_
_atom_site_type_symbol
_atom_site_label
_atom_site_fract_x
_atom_site_fract_y
_atom_site_fract_z
Si Si1 0.016549 0.401709 0.725058
Si Si2 0.994102 0.140769 0.726188
Si Si3 0.257325 0.982775 0.208411
Si Si4 0.503688 0.272671 0.726750
O O1 0.219428 0.369967 0.779136
O O2 0.164456 0.439026 0.797655
O O3 0.000000 0.405856 0.500000
O O4 0.732402 0.388377 0.783864
O O5 0.000000 0.139220 0.500000
O O6 0.957966 0.183901 0.784420
O O7 0.500000 0.000000 0.306433
O O8 0.000000 0.000000 0.291616
O O9 0.252240 0.000000 0.000000
O O10 0.500000 0.273537 0.500000
O O11 0.250000 0.250000 0.782157
O O12 0.750000 0.250000 0.786544
#
# Coordination Sequence:
#
# PCOD9322726 Si02
#       4
#     8   8   8   8
#     4  10  19  32  49  71  99 133 172 215 264 314
#     4   9  17  28  43  66  98 134 173 214 254 300
#     4  10  21  37  55  74  98 132 170 220 273 319
#     4   9  15  23  37  59  90 132 175 207 241 290
#
# _framework density 23.945042999999998
#
# number of rings (size 3 to 8) (size 9 to 14) (size 15 to 20)
#    0.000    2.500    0.000    3.000    0.000    6.500 
#    0.000    1.250    0.000    0.000    0.000    0.000 
#    0.000    0.000    0.000  252.000    0.000  112.000 
#
# Total GULP energy -89218.344346 kJ/mol
# GULP energy per Si atom -5576.146522 kJ/mol
# Density = 2.389054 g / cm^3
# Si number density = 23.945043 Si / 1000 Ang^3
#
#
#
# Elastic Constant Matrix: (Units=GPa)
#
#
# Indices 1 2 3 4 5 6 
#
# 1 228.3790 66.0266 9.0058 0.0000 0.0000 0.0000
# 2 66.0266 163.2711 5.8493 0.0000 0.0000 0.0000
# 3 9.0058 5.8493 122.0900 0.0000 0.0000 0.0000
# 4 0.0000 0.0000 0.0000 2.1612 0.0000 0.0000
# 5 0.0000 0.0000 0.0000 0.0000 -35.5080 0.0000
# 6 0.0000 0.0000 0.0000 0.0000 0.0000 47.5882
#
#
#
# Elastic Compliance Matrix: (Units=1/GPa)
#
#
# Indices 1 2 3 4 5 6 
#
# 1 0.004967 -0.001999 -0.000271 0.000000 0.000000 0.000000
# 2 -0.001999 0.006940 -0.000185 0.000000 0.000000 0.000000
# 3 -0.000271 -0.000185 0.008220 0.000000 0.000000 0.000000
# 4 0.000000 0.000000 0.000000 0.462716 0.000000 0.000000
# 5 0.000000 0.000000 0.000000 0.000000 -0.028163 0.000000
# 6 0.000000 0.000000 0.000000 0.000000 0.000000 0.021014
#
#
# Mechanical properties :
#
#
# Convention : Reuss Voigt Hill
#
# Bulk Modulus (GPa) = 65.71520 75.05594 70.38557
# Shear Modulus (GPa) = 10.29494 31.70552 21.00023
#
# Velocity S-wave (km/s) = 2.07575 3.64276 2.96466
# Velocity P-wave (km/s) = 5.76617 7.00757 6.41696
#
# Compressibility (1/GPa) = 0.01521718
#
# Stress axis : x y z
#
# Youngs Moduli (GPa) = 201.31615 144.09567 121.66186
#
# Poissons Ratio (x) = 0.28806 0.03293
# Poissons Ratio (y) = 0.40245 0.02251
# Poissons Ratio (z) = 0.05448 0.02666
#
# Static dielectric constant tensor:
#      x y z
#    x 1.895520 0.000000 0.000000 
#    y 0.000000 2.030490 0.000000 
#    z 0.000000 0.000000 1.931220 
# 
# From -- ./inp_files/9036.got.cif
#   From: 2010.05.17/outbox.cif.g08.bks.cpg/sg21_5_cif.got.tgz:9036.got - 2010.06.03 23:14:55.
