data_PCOD9322995
_publ_section_title
;
Structure prediction by ZEFSAII (Michael W. Deem and Ramdas Pophale) SiO2 
 PCOD9322995
Probable space group: C 2 2 2
;
_chemical_formula_sum "Si O2"
_cell_formula_units_Z 60
_cell_length_a 19.720199
_cell_length_b 9.367061
_cell_length_c 16.815852
_cell_angle_alpha 90.000000
_cell_angle_beta 90.000000
_cell_angle_gamma 90.000000
_cell_volume 3106.229343
_symmetry_space_group_name_H-M "C 2 2 2"
_symmetry_group_IT_number 21
_symmetry_cell_setting 'orthorhombic'
loop_
_space_group_symop_operation_xyz
x,y,z
-x,-y,z
x,-y,-z
-x,y,-z
1/2+x,1/2+y,z
1/2-x,1/2-y,z
1/2+x,1/2-y,-z
1/2-x,1/2+y,-z
loop_
_atom_site_type_symbol
_atom_site_label
_atom_site_fract_x
_atom_site_fract_y
_atom_site_fract_z
Si Si1 0.819727 0.674634 0.359396
Si Si2 0.875884 0.721186 0.811176
Si Si3 0.624506 0.779644 0.188833
Si Si4 0.000000 0.500000 0.795493
Si Si5 0.077023 0.327711 0.500028
Si Si6 0.874109 0.000062 0.906928
Si Si7 0.180249 0.674611 0.359290
Si Si8 0.211020 0.499187 0.908020
O O1 0.750000 0.750000 0.385084
O O2 0.840304 0.739129 0.274217
O O3 0.879041 0.707897 0.422355
O O4 0.813225 0.500013 0.353318
O O5 0.940605 0.622592 0.796972
O O6 0.840402 0.739066 0.725885
O O7 0.821943 0.636775 0.865725
O O8 0.896656 0.861722 0.858520
O O9 0.559634 0.877840 0.203040
O O10 0.604085 0.639465 0.140975
O O11 0.678526 0.864915 0.134839
O O12 0.072127 0.500000 0.500000
O O13 0.120950 0.292120 0.577718
O O14 0.000000 0.271437 0.500000
O O15 0.791821 0.998913 0.903430
O O16 0.893943 0.000000 0.000000
O O17 0.250000 0.750000 0.384885
O O18 0.190688 0.500000 0.000000
#
# Coordination Sequence:
#
# PCOD9322995 Si02
#       8
#     8   8   8   4   8   8   8   8
#     4  11  22  38  65  98 131 168 213 266 317 377
#     4  11  23  38  64  90 126 168 215 259 320 381
#     4  11  23  38  64  90 126 168 215 259 320 381
#     4  10  24  44  59  87 118 168 212 270 308 393
#     4   9  21  38  65  97 130 171 214 256 311 382
#     4  11  23  40  63  94 127 162 213 271 324 374
#     4  11  22  38  65  98 131 168 213 266 317 377
#     4  10  19  37  61  91 126 160 203 262 320 372
#
# _framework density 19.316022
#
# number of rings (size 3 to 8) (size 9 to 14) (size 15 to 20)
#    0.000    1.467    2.667    3.600    3.733    2.667 
#    0.000   12.667    0.000    1.600    0.000    0.000 
#    0.000    0.000    0.000    0.000    0.000    0.000 
#
# Total GULP energy -167039.253808 kJ/mol
# GULP energy per Si atom -5567.975127 kJ/mol
# Density = 1.927206 g / cm^3
# Si number density = 19.316022 Si / 1000 Ang^3
#
#
#
# Elastic Constant Matrix: (Units=GPa)
#
#
# Indices 1 2 3 4 5 6 
#
# 1 114.1562 7.0131 32.3565 0.0000 0.0000 0.0000
# 2 7.0131 77.5446 12.6922 0.0000 0.0000 0.0000
# 3 32.3565 12.6922 122.2082 0.0000 0.0000 0.0000
# 4 0.0000 0.0000 0.0000 -0.4671 0.0000 0.0000
# 5 0.0000 0.0000 0.0000 0.0000 11.3539 0.0000
# 6 0.0000 0.0000 0.0000 0.0000 0.0000 -1.9929
#
#
#
# Elastic Compliance Matrix: (Units=1/GPa)
#
#
# Indices 1 2 3 4 5 6 
#
# 1 0.009486 -0.000455 -0.002464 0.000000 0.000000 0.000000
# 2 -0.000455 0.013141 -0.001244 0.000000 0.000000 0.000000
# 3 -0.002464 -0.001244 0.008964 0.000000 0.000000 0.000000
# 4 0.000000 0.000000 0.000000 -2.141074 0.000000 0.000000
# 5 0.000000 0.000000 0.000000 0.000000 0.088076 0.000000
# 6 0.000000 0.000000 0.000000 0.000000 0.000000 -0.501780
#
#
# Mechanical properties :
#
#
# Convention : Reuss Voigt Hill
#
# Bulk Modulus (GPa) = 42.98366 46.44804 44.71585
# Shear Modulus (GPa) = -1.99433 19.23526 8.62046
#
# Velocity S-wave (km/s) = -1.01721 3.15908 2.11484
# Velocity P-wave (km/s) = 4.57401 6.11596 5.40030
#
# Compressibility (1/GPa) = 0.02326465
#
# Stress axis : x y z
#
# Youngs Moduli (GPa) = 105.41425 76.10005 111.55114
#
# Poissons Ratio (x) = 0.03459 0.27491
# Poissons Ratio (y) = 0.04792 0.13881
# Poissons Ratio (z) = 0.25979 0.09470
#
# Static dielectric constant tensor:
#      x y z
#    x 1.668930 0.000000 0.000000 
#    y 0.000000 1.676990 0.000000 
#    z 0.000000 0.000000 1.671910 
# 
# From -- ./inp_files/36917.got.cif
#   From: 2010.05.17/outbox.cif.g08.bks.cpg/sg21_19_cif.got.tgz:36917.got - 2010.06.03 23:14:55.
