data_PCOD9322428
_publ_section_title
;
Structure prediction by ZEFSAII (Michael W. Deem and Ramdas Pophale) SiO2 
 PCOD9322428
Probable space group: C 2 2 2
;
_chemical_formula_sum "Si O2"
_cell_formula_units_Z 40
_cell_length_a 7.294076
_cell_length_b 25.141920
_cell_length_c 8.646057
_cell_angle_alpha 90.000000
_cell_angle_beta 90.000000
_cell_angle_gamma 90.000000
_cell_volume 1585.575106
_symmetry_space_group_name_H-M "C 2 2 2"
_symmetry_group_IT_number 21
_symmetry_cell_setting 'orthorhombic'
loop_
_space_group_symop_operation_xyz
x,y,z
-x,-y,z
x,-y,-z
-x,y,-z
1/2+x,1/2+y,z
1/2-x,1/2-y,z
1/2+x,1/2-y,-z
1/2-x,1/2+y,-z
loop_
_atom_site_type_symbol
_atom_site_label
_atom_site_fract_x
_atom_site_fract_y
_atom_site_fract_z
Si Si1 0.541890 0.225855 0.826422
Si Si2 0.687862 0.427262 0.396566
Si Si3 0.222940 0.014638 0.172439
Si Si4 0.539028 0.339839 0.182762
Si Si5 0.665600 0.124664 0.684098
O O1 0.750000 0.250000 0.828451
O O2 0.417110 0.277806 0.795737
O O3 0.529520 0.173033 0.723106
O O4 0.500000 0.207145 0.000000
O O5 0.500000 0.437131 0.500000
O O6 0.776246 0.478820 0.319146
O O7 0.657376 0.387512 0.251689
O O8 0.818848 0.397889 0.513906
O O9 0.304402 0.073177 0.205027
O O10 0.000000 0.000000 0.174600
O O11 0.280875 0.000000 0.000000
O O12 0.359301 0.346601 0.285991
O O13 0.500000 0.347912 0.000000
#
# Coordination Sequence:
#
# PCOD9322428 Si02
#       5
#     8   8   8   8   8
#     4   9  19  36  59  87 120 162 205 253 303 365
#     4  10  18  27  47  80 121 159 191 250 310 361
#     4  11  19  28  47  80 119 160 201 254 308 364
#     4   9  16  29  51  78 113 155 199 243 294 356
#     4  10  19  29  50  80 120 158 193 249 316 361
#
# _framework density 25.227439
#
# number of rings (size 3 to 8) (size 9 to 14) (size 15 to 20)
#    0.000    2.200    4.000    1.800    0.000    0.000 
#    0.000    0.000    0.000  106.200    0.000    0.000 
#    0.000   12.800    0.000    0.000    0.000    0.000 
#
# Total GULP energy -111539.174020 kJ/mol
# GULP energy per Si atom -5576.958701 kJ/mol
# Density = 2.517002 g / cm^3
# Si number density = 25.227439 Si / 1000 Ang^3
#
#
#
# Elastic Constant Matrix: (Units=GPa)
#
#
# Indices 1 2 3 4 5 6 
#
# 1 56.8172 6.0339 -2.4309 0.0000 0.0000 0.0000
# 2 6.0339 194.0957 91.7771 0.0000 0.0000 0.0000
# 3 -2.4309 91.7771 148.3601 0.0000 0.0000 0.0000
# 4 0.0000 0.0000 0.0000 59.8867 0.0000 0.0000
# 5 0.0000 0.0000 0.0000 0.0000 1.1272 0.0000
# 6 0.0000 0.0000 0.0000 0.0000 0.0000 59.9974
#
#
#
# Elastic Compliance Matrix: (Units=1/GPa)
#
#
# Indices 1 2 3 4 5 6 
#
# 1 0.017742 -0.000974 0.000893 0.000000 0.000000 0.000000
# 2 -0.000974 0.007336 -0.004554 0.000000 0.000000 0.000000
# 3 0.000893 -0.004554 0.009572 0.000000 0.000000 0.000000
# 4 0.000000 0.000000 0.000000 0.016698 0.000000 0.000000
# 5 0.000000 0.000000 0.000000 0.000000 0.887135 0.000000
# 6 0.000000 0.000000 0.000000 0.000000 0.000000 0.016667
#
#
# Mechanical properties :
#
#
# Convention : Reuss Voigt Hill
#
# Bulk Modulus (GPa) = 39.40036 65.55924 52.47980
# Shear Modulus (GPa) = 5.13938 44.46179 24.80059
#
# Velocity S-wave (km/s) = 1.42886 4.20269 3.13881
# Velocity P-wave (km/s) = 4.28651 7.04229 5.82958
#
# Compressibility (1/GPa) = 0.02538048
#
# Stress axis : x y z
#
# Youngs Moduli (GPa) = 56.36361 136.32073 104.47074
#
# Poissons Ratio (x) = 0.13276 -0.09331
# Poissons Ratio (y) = 0.05489 0.47575
# Poissons Ratio (z) = -0.05034 0.62079
#
# Static dielectric constant tensor:
#      x y z
#    x 2.188630 0.000000 0.000000 
#    y 0.000000 2.104100 0.000000 
#    z 0.000000 0.000000 1.838680 
# 
# From -- ./inp_files/13025.got.cif
#   From: 2010.05.17/outbox.cif.g08.bks.cpg/sg21_7_cif.got.tgz:13025.got - 2010.06.03 23:14:55.
