data_PCOD9322992
_publ_section_title
;
Structure prediction by ZEFSAII (Michael W. Deem and Ramdas Pophale) SiO2 
 PCOD9322992
Probable space group: C 2 2 2
;
_chemical_formula_sum "Si O2"
_cell_formula_units_Z 56
_cell_length_a 22.339953
_cell_length_b 8.288627
_cell_length_c 13.248010
_cell_angle_alpha 90.000000
_cell_angle_beta 90.000000
_cell_angle_gamma 90.000000
_cell_volume 2453.101390
_symmetry_space_group_name_H-M "C 2 2 2"
_symmetry_group_IT_number 21
_symmetry_cell_setting 'orthorhombic'
loop_
_space_group_symop_operation_xyz
x,y,z
-x,-y,z
x,-y,-z
-x,y,-z
1/2+x,1/2+y,z
1/2-x,1/2-y,z
1/2+x,1/2-y,-z
1/2-x,1/2+y,-z
loop_
_atom_site_type_symbol
_atom_site_label
_atom_site_fract_x
_atom_site_fract_y
_atom_site_fract_z
Si Si1 0.910643 0.168656 0.943849
Si Si2 0.508747 0.690846 0.251442
Si Si3 0.312732 0.989396 0.741935
Si Si4 0.894130 0.684878 0.853460
Si Si5 0.315703 0.178839 0.546746
Si Si6 0.324859 0.504623 0.800723
Si Si7 0.877724 0.798476 0.367817
O O1 0.955689 0.201281 0.853626
O O2 0.848225 0.130889 0.885527
O O3 0.913778 0.299186 0.031296
O O4 0.926816 0.000000 0.000000
O O5 0.500000 0.500000 0.270372
O O6 0.447386 0.782415 0.226633
O O7 0.554583 0.748551 0.338188
O O8 0.359880 0.021547 0.829710
O O9 0.321371 0.140262 0.664704
O O10 0.245082 0.985695 0.779138
O O11 0.332086 0.829897 0.682969
O O12 0.847109 0.832974 0.841332
O O13 0.250000 0.250000 0.528216
O O14 0.362796 0.288995 0.486058
O O15 0.319678 0.000000 0.500000
O O16 0.359540 0.542784 0.695278
#
# Coordination Sequence:
#
# PCOD9322992 Si02
#       7
#     8   8   8   8   8   8   8
#     4   9  18  33  61  91 108 157 207 249 294 357
#     4  11  19  37  64  86 114 154 213 253 296 364
#     4  11  23  38  57  91 131 156 195 251 318 375
#     4  11  21  35  61  91 119 161 203 252 304 361
#     4  10  20  37  62  89 120 162 202 250 306 377
#     4  10  19  37  61  87 119 158 206 247 300 365
#     4  10  21  38  62  89 115 160 207 252 306 363
#
# _framework density 22.828246
#
# number of rings (size 3 to 8) (size 9 to 14) (size 15 to 20)
#    0.000    1.714    4.286    3.857    0.000    0.571 
#    0.000   19.286    0.000    6.857    0.000    0.000 
#    0.000    0.000    0.000    0.000    0.000    0.000 
#
# Total GULP energy -156445.991510 kJ/mol
# GULP energy per Si atom -5587.356840 kJ/mol
# Density = 2.277629 g / cm^3
# Si number density = 22.828246 Si / 1000 Ang^3
#
#
#
# Elastic Constant Matrix: (Units=GPa)
#
#
# Indices 1 2 3 4 5 6 
#
# 1 140.2927 0.6514 26.7619 0.0000 0.0000 0.0000
# 2 0.6514 29.3359 3.4595 0.0000 0.0000 0.0000
# 3 26.7619 3.4595 66.2579 0.0000 0.0000 0.0000
# 4 0.0000 0.0000 0.0000 10.1848 0.0000 0.0000
# 5 0.0000 0.0000 0.0000 0.0000 17.6987 0.0000
# 6 0.0000 0.0000 0.0000 0.0000 0.0000 -8.1935
#
#
#
# Elastic Compliance Matrix: (Units=1/GPa)
#
#
# Indices 1 2 3 4 5 6 
#
# 1 0.007724 0.000198 -0.003130 0.000000 0.000000 0.000000
# 2 0.000198 0.034304 -0.001871 0.000000 0.000000 0.000000
# 3 -0.003130 -0.001871 0.016454 0.000000 0.000000 0.000000
# 4 0.000000 0.000000 0.000000 0.098185 0.000000 0.000000
# 5 0.000000 0.000000 0.000000 0.000000 0.056501 0.000000
# 6 0.000000 0.000000 0.000000 0.000000 0.000000 -0.122048
#
#
# Mechanical properties :
#
#
# Convention : Reuss Voigt Hill
#
# Bulk Modulus (GPa) = 20.46000 33.07023 26.76512
# Shear Modulus (GPa) = 42.72778 17.60559 30.16668
#
# Velocity S-wave (km/s) = 4.33102 2.78010 3.63914
# Velocity P-wave (km/s) = 5.83029 4.98229 5.42289
#
# Compressibility (1/GPa) = 0.04887586
#
# Stress axis : x y z
#
# Youngs Moduli (GPa) = 129.46436 29.15102 60.77367
#
# Poissons Ratio (x) = -0.00576 0.19023
# Poissons Ratio (y) = -0.02558 0.11370
# Poissons Ratio (z) = 0.40524 0.05454
#
# Static dielectric constant tensor:
#      x y z
#    x 1.856550 0.000000 0.000000 
#    y 0.000000 1.905420 0.000000 
#    z 0.000000 0.000000 1.955670 
# 
# From -- ./inp_files/33296.got.cif
#   From: 2010.05.17/outbox.cif.g08.bks.cpg/sg21_17_cif.got.tgz:33296.got - 2010.06.03 23:14:55.
