data_PCOD9322685
_publ_section_title
;
Structure prediction by ZEFSAII (Michael W. Deem and Ramdas Pophale) SiO2 
 PCOD9322685
Probable space group: C 2 2 2
;
_chemical_formula_sum "Si O2"
_cell_formula_units_Z 48
_cell_length_a 18.059544
_cell_length_b 15.669187
_cell_length_c 9.474204
_cell_angle_alpha 90.000000
_cell_angle_beta 90.000000
_cell_angle_gamma 90.000000
_cell_volume 2680.994825
_symmetry_space_group_name_H-M "C 2 2 2"
_symmetry_group_IT_number 21
_symmetry_cell_setting 'orthorhombic'
loop_
_space_group_symop_operation_xyz
x,y,z
-x,-y,z
x,-y,-z
-x,y,-z
1/2+x,1/2+y,z
1/2-x,1/2-y,z
1/2+x,1/2-y,-z
1/2-x,1/2+y,-z
loop_
_atom_site_type_symbol
_atom_site_label
_atom_site_fract_x
_atom_site_fract_y
_atom_site_fract_z
Si Si1 0.239603 0.086785 0.911758
Si Si2 0.096563 0.622692 0.122733
Si Si3 0.179757 0.187259 0.170663
Si Si4 0.786257 0.022828 0.659026
Si Si5 0.946962 0.322545 0.820492
Si Si6 0.107558 0.527596 0.657099
O O1 0.315355 0.135761 0.871925
O O2 0.199320 0.052426 0.772287
O O3 0.192933 0.143905 0.018287
O O4 0.260971 0.000000 0.000000
O O5 0.083823 0.541308 0.224193
O O6 0.035014 0.690833 0.172510
O O7 0.077547 0.619283 0.956289
O O8 0.250000 0.250000 0.195752
O O9 0.180628 0.110766 0.283191
O O10 0.104702 0.240687 0.173928
O O11 0.696823 0.033311 0.664647
O O12 0.807580 0.000000 0.500000
O O13 0.926034 0.380723 0.689098
O O14 0.087795 0.500000 0.500000
#
# Coordination Sequence:
#
# PCOD9322685 Si02
#       6
#     8   8   8   8   8   8
#     4   9  17  32  53  74 101 141 173 202 250 310
#     4  10  19  30  46  70 102 135 172 201 249 309
#     4  11  18  32  52  73 105 139 173 216 263 292
#     4   9  18  33  52  74 100 138 180 211 248 310
#     4  11  20  30  47  73 102 141 172 213 251 295
#     4  10  19  31  47  71 107 148 175 193 240 317
#
# _framework density 17.903801999999999
#
# number of rings (size 3 to 8) (size 9 to 14) (size 15 to 20)
#    0.000    2.000    3.333    3.000    0.000    4.000 
#    0.000    2.500    0.000    0.000    0.000   21.000 
#    0.000    5.333    0.000    0.333    0.000    0.333 
#
# Total GULP energy -133747.840187 kJ/mol
# GULP energy per Si atom -5572.826674 kJ/mol
# Density = 1.786305 g / cm^3
# Si number density = 17.903802 Si / 1000 Ang^3
#
#
#
# Elastic Constant Matrix: (Units=GPa)
#
#
# Indices 1 2 3 4 5 6 
#
# 1 76.1320 57.6178 27.3153 0.0000 0.0000 0.0000
# 2 57.6178 93.2578 65.6346 0.0000 0.0000 0.0000
# 3 27.3153 65.6346 129.8170 0.0000 0.0000 0.0000
# 4 0.0000 0.0000 0.0000 20.5504 0.0000 0.0000
# 5 0.0000 0.0000 0.0000 0.0000 9.5585 0.0000
# 6 0.0000 0.0000 0.0000 0.0000 0.0000 23.5703
#
#
#
# Elastic Compliance Matrix: (Units=1/GPa)
#
#
# Indices 1 2 3 4 5 6 
#
# 1 0.026015 -0.018971 0.004118 0.000000 0.000000 0.000000
# 2 -0.018971 0.030481 -0.011419 0.000000 0.000000 0.000000
# 3 0.004118 -0.011419 0.012610 0.000000 0.000000 0.000000
# 4 0.000000 0.000000 0.000000 0.048661 0.000000 0.000000
# 5 0.000000 0.000000 0.000000 0.000000 0.104619 0.000000
# 6 0.000000 0.000000 0.000000 0.000000 0.000000 0.042426
#
#
# Mechanical properties :
#
#
# Convention : Reuss Voigt Hill
#
# Bulk Modulus (GPa) = 60.38229 66.70469 63.54349
# Shear Modulus (GPa) = 15.48572 20.64511 18.06541
#
# Velocity S-wave (km/s) = 2.94418 3.39944 3.17996
# Velocity P-wave (km/s) = 6.73474 7.26267 7.00368
#
# Compressibility (1/GPa) = 0.01656115
#
# Stress axis : x y z
#
# Youngs Moduli (GPa) = 38.43878 32.80765 79.30147
#
# Poissons Ratio (x) = 0.62240 -0.32654
# Poissons Ratio (y) = 0.72923 0.90555
# Poissons Ratio (z) = -0.15828 0.37463
#
# Static dielectric constant tensor:
#      x y z
#    x 1.627100 0.000000 0.000000 
#    y 0.000000 1.607570 0.000000 
#    z 0.000000 0.000000 1.636690 
# 
# From -- ./inp_files/16587.got.cif
#   From: 2010.05.17/outbox.cif.g08.bks.cpg/sg21_9_cif.got.tgz:16587.got - 2010.06.03 23:14:55.
