data_PCOD9322039
_publ_section_title
;
Structure prediction by ZEFSAII (Michael W. Deem and Ramdas Pophale) SiO2 
 PCOD9322039
Probable space group: C 2 2 21
;
_chemical_formula_sum "Si O2"
_cell_formula_units_Z 48
_cell_length_a 5.923219
_cell_length_b 17.012009
_cell_length_c 24.030029
_cell_angle_alpha 90.000000
_cell_angle_beta 90.000000
_cell_angle_gamma 90.000000
_cell_volume 2421.406416
_symmetry_space_group_name_H-M "C 2 2 21"
_symmetry_group_IT_number 20
_symmetry_cell_setting 'orthorhombic'
loop_
_space_group_symop_operation_xyz
x,y,z
-x,-y,1/2+z
x,-y,-z
-x,y,1/2-z
1/2+x,1/2+y,z
1/2-x,1/2-y,1/2+z
1/2+x,1/2-y,-z
1/2-x,1/2+y,1/2-z
loop_
_atom_site_type_symbol
_atom_site_label
_atom_site_fract_x
_atom_site_fract_y
_atom_site_fract_z
Si Si1 0.649302 0.325852 0.831547
Si Si2 0.000000 0.046176 0.250000
Si Si3 0.857392 0.669251 0.829476
Si Si4 0.149841 0.582759 0.559114
Si Si5 0.242114 0.500000 0.000000
Si Si6 0.366224 0.415294 0.557740
Si Si7 0.500000 0.962223 0.250000
Si Si8 0.500000 0.750073 0.750000
O O1 0.511665 0.396444 0.803076
O O2 0.511027 0.245806 0.830085
O O3 0.682257 0.353153 0.894570
O O4 0.862437 0.306107 0.792348
O O5 0.750344 0.003995 0.249054
O O6 0.806005 0.643568 0.892131
O O7 0.653428 0.693935 0.788749
O O8 0.986605 0.595376 0.802964
O O9 0.258196 0.498800 0.575384
O O10 0.258514 0.609303 0.500965
O O11 0.900176 0.556547 0.540701
O O12 0.383977 0.442129 0.960100
#
# Coordination Sequence:
#
# PCOD9322039 Si02
#       8
#     8   4   8   8   4   8   4   4
#     4  12  25  44  67  98 142 182 230 298 357 426
#     4  12  26  44  73 109 136 188 248 290 364 430
#     4  12  25  44  67  98 142 182 230 298 357 426
#     4   9  21  42  65 101 127 179 230 282 351 417
#     4   8  18  40  72  94 140 156 232 284 350 418
#     4   9  21  42  65 101 127 179 230 282 351 417
#     4  12  26  44  73 109 136 188 248 290 364 430
#     4  12  24  48  64  92 152 182 234 288 366 426
#
# _framework density 19.823188999999999
#
# number of rings (size 3 to 8) (size 9 to 14) (size 15 to 20)
#    0.000    1.667    3.333    2.000    2.333    5.333 
#    6.000    0.000    0.000    0.000    0.000    0.000 
#    0.000    0.000    0.000    0.000    0.000    0.000 
#
# Total GULP energy -133731.079084 kJ/mol
# GULP energy per Si atom -5572.128295 kJ/mol
# Density = 1.977807 g / cm^3
# Si number density = 19.823189 Si / 1000 Ang^3
#
#
#
# Elastic Constant Matrix: (Units=GPa)
#
#
# Indices 1 2 3 4 5 6 
#
# 1 63.8995 22.2584 16.8735 0.0000 0.0000 0.0000
# 2 22.2584 71.0725 27.6260 0.0000 0.0000 0.0000
# 3 16.8735 27.6260 98.5790 0.0000 0.0000 0.0000
# 4 0.0000 0.0000 0.0000 59.7901 0.0000 0.0000
# 5 0.0000 0.0000 0.0000 0.0000 -32.9052 0.0000
# 6 0.0000 0.0000 0.0000 0.0000 0.0000 32.8129
#
#
#
# Elastic Compliance Matrix: (Units=1/GPa)
#
#
# Indices 1 2 3 4 5 6 
#
# 1 0.017807 -0.004929 -0.001667 0.000000 0.000000 0.000000
# 2 -0.004929 0.017154 -0.003964 0.000000 0.000000 0.000000
# 3 -0.001667 -0.003964 0.011540 0.000000 0.000000 0.000000
# 4 0.000000 0.000000 0.000000 0.016725 0.000000 0.000000
# 5 0.000000 0.000000 0.000000 0.000000 -0.030390 0.000000
# 6 0.000000 0.000000 0.000000 0.000000 0.000000 0.030476
#
#
# Mechanical properties :
#
#
# Convention : Reuss Voigt Hill
#
# Bulk Modulus (GPa) = 39.39669 40.78519 40.09094
# Shear Modulus (GPa) = 53.82637 23.05911 38.44274
#
# Velocity S-wave (km/s) = 5.21653 3.41433 4.40850
# Velocity P-wave (km/s) = 7.49667 6.01354 6.79569
#
# Compressibility (1/GPa) = 0.02538284
#
# Stress axis : x y z
#
# Youngs Moduli (GPa) = 56.15908 58.29384 86.65334
#
# Poissons Ratio (x) = 0.28732 0.14442
# Poissons Ratio (y) = 0.27680 0.34347
# Poissons Ratio (z) = 0.09360 0.23106
#
# Static dielectric constant tensor:
#      x y z
#    x 1.790420 0.000000 0.000000 
#    y 0.000000 1.691640 0.000000 
#    z 0.000000 0.000000 1.568820 
# 
# From -- ./inp_files/2094.got.cif
#   From: 2010.05.17/outbox.cif.g08.bks.cpg/sg20_2_cif.got.tgz:2094.got - 2010.06.03 22:52:26.
