data_PCOD9322401
_publ_section_title
;
Structure prediction by ZEFSAII (Michael W. Deem and Ramdas Pophale) SiO2 
 PCOD9322401
Probable space group: C 2 2 2
;
_chemical_formula_sum "Si O2"
_cell_formula_units_Z 56
_cell_length_a 19.138026
_cell_length_b 16.290596
_cell_length_c 9.004141
_cell_angle_alpha 90.000000
_cell_angle_beta 90.000000
_cell_angle_gamma 90.000000
_cell_volume 2807.219687
_symmetry_space_group_name_H-M "C 2 2 2"
_symmetry_group_IT_number 21
_symmetry_cell_setting 'orthorhombic'
loop_
_space_group_symop_operation_xyz
x,y,z
-x,-y,z
x,-y,-z
-x,y,-z
1/2+x,1/2+y,z
1/2-x,1/2-y,z
1/2+x,1/2-y,-z
1/2-x,1/2+y,-z
loop_
_atom_site_type_symbol
_atom_site_label
_atom_site_fract_x
_atom_site_fract_y
_atom_site_fract_z
Si Si1 0.434968 0.954303 0.662929
Si Si2 0.929439 0.728876 0.423258
Si Si3 0.710819 0.011184 0.321261
Si Si4 0.633367 0.490923 0.321916
Si Si5 0.593694 0.669895 0.851189
Si Si6 0.070502 0.856130 0.816794
Si Si7 0.321932 0.799077 0.311707
O O1 0.451199 0.858769 0.644871
O O2 0.500000 0.000000 0.738892
O O3 0.429908 0.000000 0.500000
O O4 0.358194 0.963798 0.731790
O O5 0.900296 0.792158 0.303200
O O6 0.870339 0.708811 0.543154
O O7 0.000000 0.763696 0.500000
O O8 0.787896 0.985364 0.270948
O O9 0.696650 0.106397 0.286334
O O10 0.714358 0.000000 0.500000
O O11 0.628045 0.500000 0.500000
O O12 0.620738 0.398996 0.263847
O O13 0.579165 0.552923 0.247177
O O14 0.510191 0.670575 0.832483
O O15 0.631861 0.754668 0.813709
O O16 0.605700 0.646781 0.022253
O O17 0.250000 0.750000 0.330144
#
# Coordination Sequence:
#
# PCOD9322401 Si02
#       7
#     8   8   8   8   8   8   8
#     4  10  17  32  57  93 121 155 198 263 327 371
#     4  12  21  36  64 101 124 159 220 275 322 380
#     4  10  20  36  59  95 125 157 209 268 326 370
#     4  11  23  40  66  94 126 166 219 272 320 385
#     4  11  24  45  62  91 134 176 215 258 332 398
#     4  11  26  40  65  95 132 173 211 272 325 390
#     4  12  22  38  67  94 128 168 213 269 322 384
#
# _framework density 19.948564999999999
#
# number of rings (size 3 to 8) (size 9 to 14) (size 15 to 20)
#    0.000    1.000    7.143    1.714    2.000    1.714 
#    0.000    2.143    0.000    0.000    0.000    0.000 
#    0.000    0.000    0.000    0.000    0.000    0.000 
#
# Total GULP energy -156293.018211 kJ/mol
# GULP energy per Si atom -5581.893508 kJ/mol
# Density = 1.990316 g / cm^3
# Si number density = 19.948565 Si / 1000 Ang^3
#
#
#
# Elastic Constant Matrix: (Units=GPa)
#
#
# Indices 1 2 3 4 5 6 
#
# 1 83.6308 -9.8267 5.9588 0.0000 0.0000 0.0000
# 2 -9.8267 74.0749 23.7124 0.0000 0.0000 0.0000
# 3 5.9588 23.7124 68.6768 0.0000 0.0000 0.0000
# 4 0.0000 0.0000 0.0000 6.9672 0.0000 0.0000
# 5 0.0000 0.0000 0.0000 0.0000 -2.2406 0.0000
# 6 0.0000 0.0000 0.0000 0.0000 0.0000 16.4698
#
#
#
# Elastic Compliance Matrix: (Units=1/GPa)
#
#
# Indices 1 2 3 4 5 6 
#
# 1 0.012350 0.002228 -0.001841 0.000000 0.000000 0.000000
# 2 0.002228 0.015579 -0.005572 0.000000 0.000000 0.000000
# 3 -0.001841 -0.005572 0.016645 0.000000 0.000000 0.000000
# 4 0.000000 0.000000 0.000000 0.143529 0.000000 0.000000
# 5 0.000000 0.000000 0.000000 0.000000 -0.446302 0.000000
# 6 0.000000 0.000000 0.000000 0.000000 0.000000 0.060717
#
#
# Mechanical properties :
#
#
# Convention : Reuss Voigt Hill
#
# Bulk Modulus (GPa) = 29.23715 29.56352 29.40034
# Shear Modulus (GPa) = -28.45605 18.00848 -5.22378
#
# Velocity S-wave (km/s) = -3.78096 3.00783 -1.61997
# Velocity P-wave (km/s) = 2.09113 5.18795 3.35723
#
# Compressibility (1/GPa) = 0.03420305
#
# Stress axis : x y z
#
# Youngs Moduli (GPa) = 80.97025 64.18829 60.07924
#
# Poissons Ratio (x) = -0.14299 0.11059
# Poissons Ratio (y) = -0.18037 0.33479
# Poissons Ratio (z) = 0.14904 0.35768
#
# Static dielectric constant tensor:
#      x y z
#    x 1.749840 0.000000 0.000000 
#    y 0.000000 1.705540 0.000000 
#    z 0.000000 0.000000 1.720650 
# 
# From -- ./inp_files/17685.got.cif
#   From: 2010.05.17/outbox.cif.g08.bks.cpg/sg21_9_cif.got.tgz:17685.got - 2010.06.03 23:14:55.
