data_PCOD9322429
_publ_section_title
;
Structure prediction by ZEFSAII (Michael W. Deem and Ramdas Pophale) SiO2 
 PCOD9322429
Probable space group: C 2 2 2
;
_chemical_formula_sum "Si O2"
_cell_formula_units_Z 38
_cell_length_a 24.990623
_cell_length_b 8.701969
_cell_length_c 8.638750
_cell_angle_alpha 90.000000
_cell_angle_beta 90.000000
_cell_angle_gamma 90.000000
_cell_volume 1878.648460
_symmetry_space_group_name_H-M "C 2 2 2"
_symmetry_group_IT_number 21
_symmetry_cell_setting 'orthorhombic'
loop_
_space_group_symop_operation_xyz
x,y,z
-x,-y,z
x,-y,-z
-x,y,-z
1/2+x,1/2+y,z
1/2-x,1/2-y,z
1/2+x,1/2-y,-z
1/2-x,1/2+y,-z
loop_
_atom_site_type_symbol
_atom_site_label
_atom_site_fract_x
_atom_site_fract_y
_atom_site_fract_z
Si Si1 0.115696 0.500000 0.000000
Si Si2 0.812803 0.224693 0.901344
Si Si3 0.334575 0.414196 0.756271
Si Si4 0.086677 0.664223 0.294249
Si Si5 0.000000 0.500000 0.500000
Si Si6 0.750000 0.750000 0.531595
Si Si7 0.326084 0.000000 0.500000
O O1 0.153498 0.380824 0.091925
O O2 0.081731 0.598937 0.121246
O O3 0.750000 0.250000 0.881410
O O4 0.833904 0.096720 0.780888
O O5 0.820528 0.156274 0.075452
O O6 0.391597 0.339057 0.708984
O O7 0.288825 0.354121 0.639455
O O8 0.036572 0.611348 0.394975
O O9 0.136734 0.574977 0.371707
O O10 0.787963 0.635134 0.439460
#
# Coordination Sequence:
#
# PCOD9322429 Si02
#       7
#     4   8   8   8   2   4   4
#     4  10  20  33  54  88 120 140 206 247 296 358
#     4  10  18  27  50  84 124 170 189 228 286 357
#     4   9  18  31  48  78 122 155 202 239 290 344
#     4   9  20  37  56  82 109 148 202 265 297 365
#     4  10  20  42  68  78 104 158 212 260 332 352
#     4  10  18  32  44  70 114 166 202 242 272 364
#     4   9  20  31  48  72 114 155 196 237 292 348
#
# _framework density 20.227308000000001
#
# number of rings (size 3 to 8) (size 9 to 14) (size 15 to 20)
#    0.000    2.526    1.053    1.263    5.895    2.105 
#    0.000    0.000    0.000    2.526    0.000    5.895 
#    0.000    0.000    0.000    0.000    0.000    0.000 
#
# Total GULP energy -106069.419237 kJ/mol
# GULP energy per Si atom -5582.601012 kJ/mol
# Density = 2.018127 g / cm^3
# Si number density = 20.227308 Si / 1000 Ang^3
#
#
#
# Elastic Constant Matrix: (Units=GPa)
#
#
# Indices 1 2 3 4 5 6 
#
# 1 108.4344 53.1414 38.2016 0.0000 0.0000 0.0000
# 2 53.1414 132.4954 25.0065 0.0000 0.0000 0.0000
# 3 38.2016 25.0065 52.0300 0.0000 0.0000 0.0000
# 4 0.0000 0.0000 0.0000 34.3680 0.0000 0.0000
# 5 0.0000 0.0000 0.0000 0.0000 13.0635 0.0000
# 6 0.0000 0.0000 0.0000 0.0000 0.0000 19.6204
#
#
#
# Elastic Compliance Matrix: (Units=1/GPa)
#
#
# Indices 1 2 3 4 5 6 
#
# 1 0.014216 -0.004104 -0.008465 0.000000 0.000000 0.000000
# 2 -0.004104 0.009485 -0.001545 0.000000 0.000000 0.000000
# 3 -0.008465 -0.001545 0.026178 0.000000 0.000000 0.000000
# 4 0.000000 0.000000 0.000000 0.029097 0.000000 0.000000
# 5 0.000000 0.000000 0.000000 0.000000 0.076549 0.000000
# 6 0.000000 0.000000 0.000000 0.000000 0.000000 0.050967
#
#
# Mechanical properties :
#
#
# Convention : Reuss Voigt Hill
#
# Bulk Modulus (GPa) = 46.19045 58.40656 52.29850
# Shear Modulus (GPa) = 20.66651 25.18440 22.92545
#
# Velocity S-wave (km/s) = 3.19989 3.53238 3.37024
# Velocity P-wave (km/s) = 6.04464 6.75091 6.40751
#
# Compressibility (1/GPa) = 0.02164950
#
# Stress axis : x y z
#
# Youngs Moduli (GPa) = 70.34477 105.42792 38.20050
#
# Poissons Ratio (x) = 0.43268 0.32337
# Poissons Ratio (y) = 0.28869 0.05904
# Poissons Ratio (z) = 0.59547 0.16294
#
# Static dielectric constant tensor:
#      x y z
#    x 1.683080 0.000000 0.000000 
#    y 0.000000 1.772970 0.000000 
#    z 0.000000 0.000000 1.764260 
# 
# From -- ./inp_files/11038.got.cif
#   From: 2010.05.17/outbox.cif.g08.bks.cpg/sg21_6_cif.got.tgz:11038.got - 2010.06.03 23:14:55.
