data_PCOD9322474
_publ_section_title
;
Structure prediction by ZEFSAII (Michael W. Deem and Ramdas Pophale) SiO2 
 PCOD9322474
Probable space group: C 2 2 2
;
_chemical_formula_sum "Si O2"
_cell_formula_units_Z 40
_cell_length_a 9.089285
_cell_length_b 21.009204
_cell_length_c 10.796129
_cell_angle_alpha 90.000000
_cell_angle_beta 90.000000
_cell_angle_gamma 90.000000
_cell_volume 2061.614141
_symmetry_space_group_name_H-M "C 2 2 2"
_symmetry_group_IT_number 21
_symmetry_cell_setting 'orthorhombic'
loop_
_space_group_symop_operation_xyz
x,y,z
-x,-y,z
x,-y,-z
-x,y,-z
1/2+x,1/2+y,z
1/2-x,1/2-y,z
1/2+x,1/2-y,-z
1/2-x,1/2+y,-z
loop_
_atom_site_type_symbol
_atom_site_label
_atom_site_fract_x
_atom_site_fract_y
_atom_site_fract_z
Si Si1 0.677853 0.318583 0.659407
Si Si2 0.247796 0.443922 0.659110
Si Si3 0.326963 0.684084 0.365182
Si Si4 0.750998 0.062405 0.839657
Si Si5 0.500000 0.000000 0.500000
Si Si6 0.500000 0.000000 0.000000
Si Si7 0.500000 0.500000 0.500000
Si Si8 0.000000 0.000000 0.000000
O O1 0.750000 0.250000 0.689781
O O2 0.707962 0.330286 0.511788
O O3 0.500505 0.313303 0.660895
O O4 0.732686 0.374546 0.753032
O O5 0.258008 0.373846 0.711676
O O6 0.247668 0.502040 0.750256
O O7 0.104171 0.454547 0.578270
O O8 0.395272 0.455328 0.579707
O O9 0.250000 0.750000 0.336195
O O10 0.605758 0.047944 0.921828
O O11 0.894995 0.047214 0.921762
#
# Coordination Sequence:
#
# PCOD9322474 Si02
#       8
#     8   8   8   8   2   2   2   2
#     4  10  21  38  59  85 122 160 187 225 284 348
#     4  11  20  34  56  84 118 156 189 229 284 343
#     4  10  21  34  54  90 128 156 186 221 271 355
#     4  11  22  40  61  83 113 151 198 249 296 332
#     4  10  22  30  50  88 116 146 194 228 268 352
#     4  10  26  42  58  84 108 142 206 268 292 320
#     4  10  18  30  54  88 116 142 194 228 264 356
#     4  10  22  38  62  84 104 142 206 264 292 324
#
# _framework density 19.402273000000001
#
# number of rings (size 3 to 8) (size 9 to 14) (size 15 to 20)
#    0.000    1.600    0.000    7.200    0.000    6.400 
#    0.000    1.000    0.000    4.800    0.000    0.000 
#    0.000    0.000    0.000    0.000    0.000    0.000 
#
# Total GULP energy -111561.663791 kJ/mol
# GULP energy per Si atom -5578.083190 kJ/mol
# Density = 1.935811 g / cm^3
# Si number density = 19.402273 Si / 1000 Ang^3
#
#
#
# Elastic Constant Matrix: (Units=GPa)
#
#
# Indices 1 2 3 4 5 6 
#
# 1 129.0272 66.3418 53.1401 0.0000 0.0000 0.0000
# 2 66.3418 197.2527 56.2209 0.0000 0.0000 0.0000
# 3 53.1401 56.2209 70.2864 0.0000 0.0000 0.0000
# 4 0.0000 0.0000 0.0000 37.7303 0.0000 0.0000
# 5 0.0000 0.0000 0.0000 0.0000 100.0105 0.0000
# 6 0.0000 0.0000 0.0000 0.0000 0.0000 4.5686
#
#
#
# Elastic Compliance Matrix: (Units=1/GPa)
#
#
# Indices 1 2 3 4 5 6 
#
# 1 0.011748 -0.001839 -0.007411 0.000000 0.000000 0.000000
# 2 -0.001839 0.006855 -0.004093 0.000000 0.000000 0.000000
# 3 -0.007411 -0.004093 0.023104 0.000000 0.000000 0.000000
# 4 0.000000 0.000000 0.000000 0.026504 0.000000 0.000000
# 5 0.000000 0.000000 0.000000 0.000000 0.009999 0.000000
# 6 0.000000 0.000000 0.000000 0.000000 0.000000 0.218886
#
#
# Mechanical properties :
#
#
# Convention : Reuss Voigt Hill
#
# Bulk Modulus (GPa) = 66.57074 83.10798 74.83936
# Shear Modulus (GPa) = 15.20733 43.18611 29.19672
#
# Velocity S-wave (km/s) = 2.80266 4.72299 3.88340
# Velocity P-wave (km/s) = 6.69765 8.52463 7.66576
#
# Compressibility (1/GPa) = 0.01502161
#
# Stress axis : x y z
#
# Youngs Moduli (GPa) = 85.11956 145.88815 43.28171
#
# Poissons Ratio (x) = 0.26827 0.32078
# Poissons Ratio (y) = 0.15652 0.17713
# Poissons Ratio (z) = 0.63085 0.59706
#
# Static dielectric constant tensor:
#      x y z
#    x 1.658940 0.000000 0.000000 
#    y 0.000000 1.698420 0.000000 
#    z 0.000000 0.000000 1.784210 
# 
# From -- ./inp_files/22641.got.cif
#   From: 2010.05.17/outbox.cif.g08.bks.cpg/sg21_12_cif.got.tgz:22641.got - 2010.06.03 23:14:55.
