data_PCOD9322104
_publ_section_title
;
Structure prediction by ZEFSAII (Michael W. Deem and Ramdas Pophale) SiO2 
 PCOD9322104
Probable space group: C 2 2 21
;
_chemical_formula_sum "Si O2"
_cell_formula_units_Z 32
_cell_length_a 8.308826
_cell_length_b 5.046839
_cell_length_c 28.891605
_cell_angle_alpha 90.000000
_cell_angle_beta 90.000000
_cell_angle_gamma 90.000000
_cell_volume 1211.520545
_symmetry_space_group_name_H-M "C 2 2 21"
_symmetry_group_IT_number 20
_symmetry_cell_setting 'orthorhombic'
loop_
_space_group_symop_operation_xyz
x,y,z
-x,-y,1/2+z
x,-y,-z
-x,y,1/2-z
1/2+x,1/2+y,z
1/2-x,1/2-y,1/2+z
1/2+x,1/2-y,-z
1/2-x,1/2+y,1/2-z
loop_
_atom_site_type_symbol
_atom_site_label
_atom_site_fract_x
_atom_site_fract_y
_atom_site_fract_z
Si Si1 0.266100 0.549246 0.814341
Si Si2 0.735129 0.550833 0.878269
Si Si3 0.000000 0.752134 0.750000
Si Si4 0.055320 0.200159 0.562172
Si Si5 0.670352 0.000000 0.000000
O O1 0.265252 0.834954 0.838180
O O2 0.129855 0.567849 0.775157
O O3 0.422434 0.442663 0.788366
O O4 0.236471 0.336451 0.854563
O O5 0.561303 0.540814 0.903342
O O6 0.875783 0.469142 0.914128
O O7 0.946479 0.273901 0.518307
O O8 0.215084 0.063343 0.543098
#
# Coordination Sequence:
#
# PCOD9322104 Si02
#       5
#     8   8   4   8   4
#     4  12  28  50  78 113 153 202 255 315 382 454
#     4  12  27  49  78 113 153 202 255 315 380 453
#     4  12  28  52  78 114 156 204 256 318 382 456
#     4  12  26  48  77 113 154 202 254 315 379 454
#     4  12  26  48  76 112 152 200 252 312 380 452
#
# _framework density 26.413093
#
# number of rings (size 3 to 8) (size 9 to 14) (size 15 to 20)
#    0.000    0.000    0.000    9.000    0.000   11.000 
#    0.000    0.000    0.000    0.000    0.000    0.000 
#    0.000    0.000    0.000    0.000    0.000    0.000 
#
# Total GULP energy -89853.733271 kJ/mol
# GULP energy per Si atom -5615.858329 kJ/mol
# Density = 2.635298 g / cm^3
# Si number density = 26.413093 Si / 1000 Ang^3
#
#
#
# Elastic Constant Matrix: (Units=GPa)
#
#
# Indices 1 2 3 4 5 6 
#
# 1 118.7190 43.4076 29.1719 0.0000 0.0000 0.0000
# 2 43.4076 61.6967 25.1468 0.0000 0.0000 0.0000
# 3 29.1719 25.1468 104.6820 0.0000 0.0000 0.0000
# 4 0.0000 0.0000 0.0000 35.1005 0.0000 0.0000
# 5 0.0000 0.0000 0.0000 0.0000 57.8038 0.0000
# 6 0.0000 0.0000 0.0000 0.0000 0.0000 34.4658
#
#
#
# Elastic Compliance Matrix: (Units=1/GPa)
#
#
# Indices 1 2 3 4 5 6 
#
# 1 0.011523 -0.007536 -0.001401 0.000000 0.000000 0.000000
# 2 -0.007536 0.022896 -0.003400 0.000000 0.000000 0.000000
# 3 -0.001401 -0.003400 0.010760 0.000000 0.000000 0.000000
# 4 0.000000 0.000000 0.000000 0.028490 0.000000 0.000000
# 5 0.000000 0.000000 0.000000 0.000000 0.017300 0.000000
# 6 0.000000 0.000000 0.000000 0.000000 0.000000 0.029014
#
#
# Mechanical properties :
#
#
# Convention : Reuss Voigt Hill
#
# Bulk Modulus (GPa) = 48.76835 53.39450 51.08143
# Shear Modulus (GPa) = 33.00503 37.96545 35.48524
#
# Velocity S-wave (km/s) = 3.53876 3.79538 3.66932
# Velocity P-wave (km/s) = 5.93303 6.28217 6.11009
#
# Compressibility (1/GPa) = 0.02050510
#
# Stress axis : x y z
#
# Youngs Moduli (GPa) = 86.78345 43.67505 92.93803
#
# Poissons Ratio (x) = 0.32914 0.13018
# Poissons Ratio (y) = 0.65402 0.31600
# Poissons Ratio (z) = 0.12156 0.14850
#
# Static dielectric constant tensor:
#      x y z
#    x 1.996880 0.000000 0.000000 
#    y 0.000000 2.016450 0.000000 
#    z 0.000000 0.000000 2.064430 
# 
# From -- ./inp_files/30615.got.cif
#   From: 2010.05.17/outbox.cif.g08.bks.cpg/sg20_16_cif.got.tgz:30615.got - 2010.06.03 22:52:26.
