data_PCOD9322132
_publ_section_title
;
Structure prediction by ZEFSAII (Michael W. Deem and Ramdas Pophale) SiO2 
 PCOD9322132
Probable space group: C 2 2 21
;
_chemical_formula_sum "Si O2"
_cell_formula_units_Z 32
_cell_length_a 4.941241
_cell_length_b 28.626866
_cell_length_c 8.592636
_cell_angle_alpha 90.000000
_cell_angle_beta 90.000000
_cell_angle_gamma 90.000000
_cell_volume 1215.447644
_symmetry_space_group_name_H-M "C 2 2 21"
_symmetry_group_IT_number 20
_symmetry_cell_setting 'orthorhombic'
loop_
_space_group_symop_operation_xyz
x,y,z
-x,-y,1/2+z
x,-y,-z
-x,y,1/2-z
1/2+x,1/2+y,z
1/2-x,1/2-y,1/2+z
1/2+x,1/2-y,-z
1/2-x,1/2+y,1/2-z
loop_
_atom_site_type_symbol
_atom_site_label
_atom_site_fract_x
_atom_site_fract_y
_atom_site_fract_z
Si Si1 0.525957 0.222302 0.437407
Si Si2 0.388514 0.356739 0.416364
Si Si3 0.886723 0.457721 0.086106
Si Si4 0.744745 0.406603 0.643517
O O1 0.500000 0.218654 0.250000
O O2 0.245612 0.237767 0.516489
O O3 0.659081 0.176913 0.517644
O O4 0.500000 0.340905 0.250000
O O5 0.274006 0.409436 0.392796
O O6 0.616025 0.363960 0.547816
O O7 0.000000 0.473774 0.250000
O O8 0.738782 0.500000 0.000000
O O9 0.137946 0.443346 0.977468
O O10 0.500000 0.424393 0.750000
O O11 0.000000 0.393649 0.750000
#
# Coordination Sequence:
#
# PCOD9322132 Si02
#       4
#     8   8   8   8
#     4  12  31  57  92 133 177 227 286 360 439 526
#     4  12  29  56  91 123 177 232 294 355 444 518
#     4  12  28  52  84 127 172 233 296 364 432 515
#     4  12  27  50  81 122 166 221 286 356 425 508
#
# _framework density 26.327749000000001
#
# number of rings (size 3 to 8) (size 9 to 14) (size 15 to 20)
#    0.000    0.000    5.000    2.250    7.000    3.000 
#    4.500    1.250    0.000    0.000    0.000    0.000 
#    0.000    0.000    0.000    0.000    0.000    0.000 
#
# Total GULP energy -89890.485689 kJ/mol
# GULP energy per Si atom -5618.155356 kJ/mol
# Density = 2.626783 g / cm^3
# Si number density = 26.327749 Si / 1000 Ang^3
#
#
#
# Elastic Constant Matrix: (Units=GPa)
#
#
# Indices 1 2 3 4 5 6 
#
# 1 134.6101 8.1752 59.2003 0.0000 0.0000 0.0000
# 2 8.1752 128.4347 39.5766 0.0000 0.0000 0.0000
# 3 59.2003 39.5766 221.7661 0.0000 0.0000 0.0000
# 4 0.0000 0.0000 0.0000 38.7543 0.0000 0.0000
# 5 0.0000 0.0000 0.0000 0.0000 61.6043 0.0000
# 6 0.0000 0.0000 0.0000 0.0000 0.0000 -14.0953
#
#
#
# Elastic Compliance Matrix: (Units=1/GPa)
#
#
# Indices 1 2 3 4 5 6 
#
# 1 0.008420 0.000166 -0.002277 0.000000 0.000000 0.000000
# 2 0.000166 0.008242 -0.001515 0.000000 0.000000 0.000000
# 3 -0.002277 -0.001515 0.005388 0.000000 0.000000 0.000000
# 4 0.000000 0.000000 0.000000 0.025804 0.000000 0.000000
# 5 0.000000 0.000000 0.000000 0.000000 0.016233 0.000000
# 6 0.000000 0.000000 0.000000 0.000000 0.000000 -0.070945
#
#
# Mechanical properties :
#
#
# Convention : Reuss Voigt Hill
#
# Bulk Modulus (GPa) = 67.58233 77.63501 72.60867
# Shear Modulus (GPa) = 938.60769 42.44324 490.52546
#
# Velocity S-wave (km/s) = 18.90193 4.01947 13.66453
# Velocity P-wave (km/s) = 22.40764 7.14796 16.63123
#
# Compressibility (1/GPa) = 0.01479677
#
# Stress axis : x y z
#
# Youngs Moduli (GPa) = 118.75956 121.32377 185.61105
#
# Poissons Ratio (x) = -0.02011 0.42271
# Poissons Ratio (y) = -0.01969 0.28124
# Poissons Ratio (z) = 0.27046 0.18383
#
# Static dielectric constant tensor:
#      x y z
#    x 2.048280 0.000000 0.000000 
#    y 0.000000 2.140060 0.000000 
#    z 0.000000 0.000000 2.011810 
# 
# From -- ./inp_files/5115.got.cif
#   From: 2010.05.17/outbox.cif.g08.bks.cpg/sg20_3_cif.got.tgz:5115.got - 2010.06.03 22:52:26.
