data_PCOD9322866
_publ_section_title
;
Structure prediction by ZEFSAII (Michael W. Deem and Ramdas Pophale) SiO2 
 PCOD9322866
Probable space group: C 2 2 2
;
_chemical_formula_sum "Si O2"
_cell_formula_units_Z 32
_cell_length_a 11.640902
_cell_length_b 19.511328
_cell_length_c 5.651793
_cell_angle_alpha 90.000000
_cell_angle_beta 90.000000
_cell_angle_gamma 90.000000
_cell_volume 1283.688676
_symmetry_space_group_name_H-M "C 2 2 2"
_symmetry_group_IT_number 21
_symmetry_cell_setting 'orthorhombic'
loop_
_space_group_symop_operation_xyz
x,y,z
-x,-y,z
x,-y,-z
-x,y,-z
1/2+x,1/2+y,z
1/2-x,1/2-y,z
1/2+x,1/2-y,-z
1/2-x,1/2+y,-z
loop_
_atom_site_type_symbol
_atom_site_label
_atom_site_fract_x
_atom_site_fract_y
_atom_site_fract_z
Si Si1 0.458925 0.355987 0.750000
Si Si2 0.690534 0.173743 0.750001
Si Si3 0.149538 0.038246 0.250000
Si Si4 0.698855 0.826103 0.749999
O O1 0.500000 0.322620 0.500000
O O2 0.521268 0.429496 0.750000
O O3 0.322335 0.364412 0.750000
O O4 0.500000 0.322620 0.000000
O O5 0.750000 0.250000 0.750001
O O6 0.779440 0.110134 0.750000
O O7 0.633245 0.165289 0.494746
O O8 0.633245 0.165289 0.005256
O O9 0.174327 0.000000 0.500000
O O10 0.174327 0.000000 0.000000
O O11 0.750000 0.750000 0.749999
#
# Coordination Sequence:
#
# PCOD9322866 Si02
#       4
#     8   8   8   8
#     4  12  21  35  49  74 107 145 188 223 264 326
#     4  10  20  37  53  69  99 147 195 224 264 318
#     4  12  24  35  51  79 115 149 185 219 274 336
#     4  10  19  35  52  68  96 143 196 226 259 312
#
# _framework density 24.928162
#
# number of rings (size 3 to 8) (size 9 to 14) (size 15 to 20)
#    0.000    1.000    5.000    3.000    0.000    3.000 
#    0.000    0.000    0.000    0.000    0.000    0.000 
#    0.000    0.000    0.000  112.500    0.000    0.000 
#
# Total GULP energy -89185.953959 kJ/mol
# GULP energy per Si atom -5574.122122 kJ/mol
# Density = 2.487142 g / cm^3
# Si number density = 24.928162 Si / 1000 Ang^3
#
#
#
# Elastic Constant Matrix: (Units=GPa)
#
#
# Indices 1 2 3 4 5 6 
#
# 1 82.0455 38.7220 35.7380 0.0000 0.0000 0.0000
# 2 38.7220 162.6566 29.6847 0.0000 0.0000 0.0000
# 3 35.7380 29.6847 374.2582 0.0000 0.0000 0.0000
# 4 0.0000 0.0000 0.0000 26.6389 0.0000 0.0000
# 5 0.0000 0.0000 0.0000 0.0000 -6.0952 0.0000
# 6 0.0000 0.0000 0.0000 0.0000 0.0000 18.2115
#
#
#
# Elastic Compliance Matrix: (Units=1/GPa)
#
#
# Indices 1 2 3 4 5 6 
#
# 1 0.014165 -0.003171 -0.001101 0.000000 0.000000 0.000000
# 2 -0.003171 0.006948 -0.000248 0.000000 0.000000 0.000000
# 3 -0.001101 -0.000248 0.002797 0.000000 0.000000 0.000000
# 4 0.000000 0.000000 0.000000 0.037539 0.000000 0.000000
# 5 0.000000 0.000000 0.000000 0.000000 -0.164063 0.000000
# 6 0.000000 0.000000 0.000000 0.000000 0.000000 0.054911
#
#
# Mechanical properties :
#
#
# Convention : Reuss Voigt Hill
#
# Bulk Modulus (GPa) = 67.25563 91.91664 79.58614
# Shear Modulus (GPa) = -148.33961 42.07206 -53.13377
#
# Velocity S-wave (km/s) = -7.72244 4.11266 -4.62180
# Velocity P-wave (km/s) = 7.24406 7.71392 1.87460
#
# Compressibility (1/GPa) = 0.01486864
#
# Stress axis : x y z
#
# Youngs Moduli (GPa) = 70.59866 143.92335 357.55328
#
# Poissons Ratio (x) = 0.45639 0.39369
# Poissons Ratio (y) = 0.22387 0.08878
# Poissons Ratio (z) = 0.07773 0.03574
#
# Static dielectric constant tensor:
#      x y z
#    x 2.454840 0.000000 0.000000 
#    y 0.000000 2.554880 0.000000 
#    z 0.000000 0.000000 2.171670 
# 
# From -- ./inp_files/3523.got.cif
#   From: 2010.05.17/outbox.cif.g08.bks.cpg/sg21_2_cif.got.tgz:3523.got - 2010.06.03 23:14:55.
