data_PCOD9322381
_publ_section_title
;
Structure prediction by ZEFSAII (Michael W. Deem and Ramdas Pophale) SiO2 
 PCOD9322381
Probable space group: C 2 2 2
;
_chemical_formula_sum "Si O2"
_cell_formula_units_Z 58
_cell_length_a 9.582220
_cell_length_b 29.148051
_cell_length_c 12.026862
_cell_angle_alpha 90.000000
_cell_angle_beta 90.000000
_cell_angle_gamma 90.000000
_cell_volume 3359.139085
_symmetry_space_group_name_H-M "C 2 2 2"
_symmetry_group_IT_number 21
_symmetry_cell_setting 'orthorhombic'
loop_
_space_group_symop_operation_xyz
x,y,z
-x,-y,z
x,-y,-z
-x,y,-z
1/2+x,1/2+y,z
1/2-x,1/2-y,z
1/2+x,1/2-y,-z
1/2-x,1/2+y,-z
loop_
_atom_site_type_symbol
_atom_site_label
_atom_site_fract_x
_atom_site_fract_y
_atom_site_fract_z
Si Si1 0.519838 0.619046 0.702289
Si Si2 0.426475 0.455842 0.880915
Si Si3 0.846721 0.508985 0.787054
Si Si4 0.399977 0.812098 0.394057
Si Si5 0.724200 0.436647 0.622805
Si Si6 0.312365 0.089000 0.609228
Si Si7 0.920358 0.786856 0.616945
Si Si8 0.000000 0.000000 0.500000
O O1 0.546309 0.590492 0.814045
O O2 0.366133 0.606875 0.659802
O O3 0.645908 0.599635 0.624507
O O4 0.536129 0.673421 0.701659
O O5 0.500000 0.500000 0.823541
O O6 0.264748 0.470381 0.874075
O O7 0.500000 0.452059 0.000000
O O8 0.794410 0.462642 0.725832
O O9 0.851112 0.546631 0.687417
O O10 0.000000 0.500000 0.832988
O O11 0.500000 0.814235 0.500000
O O12 0.390704 0.864514 0.352373
O O13 0.238819 0.799116 0.416035
O O14 0.443467 0.764366 0.334415
O O15 0.826330 0.423756 0.520867
O O16 0.605323 0.470505 0.574412
O O17 0.000000 0.790521 0.500000
#
# Coordination Sequence:
#
# PCOD9322381 Si02
#       8
#     8   8   8   8   8   8   8   2
#     4  10  17  30  51  74  93 131 183 229 259 307
#     4  10  20  38  58  74  96 131 172 229 280 327
#     4  11  23  34  47  77 112 139 179 214 263 329
#     4   9  18  29  43  63 102 148 184 209 255 300
#     4  12  18  28  47  73 109 147 186 220 251 296
#     4  10  19  28  44  70 111 149 181 205 243 303
#     4   9  17  31  46  69  99 136 183 225 256 304
#     4  12  16  28  42  68  94 148 190 224 240 264
#
# _framework density 17.266328999999999
#
# number of rings (size 3 to 8) (size 9 to 14) (size 15 to 20)
#    0.000    1.793    4.138    2.483    1.931    0.552 
#    0.000    1.379    0.000    0.000    0.000    0.000 
#    0.000   79.448    0.000    0.000    0.276    0.000 
#
# Total GULP energy -161464.956246 kJ/mol
# GULP energy per Si atom -5567.757112 kJ/mol
# Density = 1.722703 g / cm^3
# Si number density = 17.266329 Si / 1000 Ang^3
#
#
#
# Elastic Constant Matrix: (Units=GPa)
#
#
# Indices 1 2 3 4 5 6 
#
# 1 68.9316 25.4660 21.5405 0.0000 0.0000 0.0000
# 2 25.4660 113.7029 22.9004 0.0000 0.0000 0.0000
# 3 21.5405 22.9004 60.4514 0.0000 0.0000 0.0000
# 4 0.0000 0.0000 0.0000 2.7527 0.0000 0.0000
# 5 0.0000 0.0000 0.0000 0.0000 14.2584 0.0000
# 6 0.0000 0.0000 0.0000 0.0000 0.0000 13.2202
#
#
#
# Elastic Compliance Matrix: (Units=1/GPa)
#
#
# Indices 1 2 3 4 5 6 
#
# 1 0.017122 -0.002821 -0.005032 0.000000 0.000000 0.000000
# 2 -0.002821 0.009986 -0.002778 0.000000 0.000000 0.000000
# 3 -0.005032 -0.002778 0.019388 0.000000 0.000000 0.000000
# 4 0.000000 0.000000 0.000000 0.363282 0.000000 0.000000
# 5 0.000000 0.000000 0.000000 0.000000 0.070134 0.000000
# 6 0.000000 0.000000 0.000000 0.000000 0.000000 0.075642
#
#
# Mechanical properties :
#
#
# Convention : Reuss Voigt Hill
#
# Bulk Modulus (GPa) = 39.63023 42.54443 41.08733
# Shear Modulus (GPa) = 8.54369 17.59152 13.06760
#
# Velocity S-wave (km/s) = 2.22686 3.19538 2.75403
# Velocity P-wave (km/s) = 5.44188 6.18931 5.82759
#
# Compressibility (1/GPa) = 0.02523326
#
# Stress axis : x y z
#
# Youngs Moduli (GPa) = 58.40455 100.13846 51.57929
#
# Poissons Ratio (x) = 0.28252 0.25956
# Poissons Ratio (y) = 0.16478 0.14327
# Poissons Ratio (z) = 0.29391 0.27816
#
# Static dielectric constant tensor:
#      x y z
#    x 1.636410 0.000000 0.000000 
#    y 0.000000 1.656730 0.000000 
#    z 0.000000 0.000000 1.582190 
# 
# From -- ./inp_files/23087.got.cif
#   From: 2010.05.17/outbox.cif.g08.bks.cpg/sg21_12_cif.got.tgz:23087.got - 2010.06.03 23:14:55.
