data_PCOD9322622
_publ_section_title
;
Structure prediction by ZEFSAII (Michael W. Deem and Ramdas Pophale) SiO2 
 PCOD9322622
Probable space group: C 2 2 2
;
_chemical_formula_sum "Si O2"
_cell_formula_units_Z 46
_cell_length_a 13.907322
_cell_length_b 21.268024
_cell_length_c 6.025664
_cell_angle_alpha 90.000000
_cell_angle_beta 90.000000
_cell_angle_gamma 90.000000
_cell_volume 1782.278479
_symmetry_space_group_name_H-M "C 2 2 2"
_symmetry_group_IT_number 21
_symmetry_cell_setting 'orthorhombic'
loop_
_space_group_symop_operation_xyz
x,y,z
-x,-y,z
x,-y,-z
-x,y,-z
1/2+x,1/2+y,z
1/2-x,1/2-y,z
1/2+x,1/2-y,-z
1/2-x,1/2+y,-z
loop_
_atom_site_type_symbol
_atom_site_label
_atom_site_fract_x
_atom_site_fract_y
_atom_site_fract_z
Si Si1 0.606069 0.313813 0.742563
Si Si2 0.136765 0.068953 0.480777
Si Si3 0.338711 0.922094 0.768655
Si Si4 0.250000 0.750000 0.398727
Si Si5 0.739171 0.635432 0.872028
Si Si6 0.000000 0.500000 0.500000
Si Si7 0.032967 0.315285 0.247590
O O1 0.575056 0.382381 0.663100
O O2 0.671143 0.283771 0.548240
O O3 0.528857 0.259746 0.773121
O O4 0.673400 0.327677 0.951427
O O5 0.240618 0.062684 0.356381
O O6 0.166132 0.099581 0.712204
O O7 0.098136 0.000000 0.500000
O O8 0.428154 0.959957 0.662581
O O9 0.362378 0.847895 0.740129
O O10 0.309292 0.918747 0.028355
O O11 0.206661 0.692571 0.252789
O O12 0.000000 0.330825 0.500000
O O13 0.000000 0.339593 0.000000
#
# Coordination Sequence:
#
# PCOD9322622 Si02
#       7
#     8   8   8   4   8   2   8
#     4  10  22  39  63  97 124 171 217 291 346 394
#     4  10  22  42  69  98 130 165 233 284 344 409
#     4  11  24  43  62  92 133 194 226 271 330 406
#     4  10  18  36  66  94 128 152 226 296 346 382
#     4  10  21  37  69  92 126 169 229 285 337 400
#     4  12  24  48  58  88 154 184 234 264 334 420
#     4  12  28  44  67  99 139 185 231 278 347 426
#
# _framework density 25.809661999999999
#
# number of rings (size 3 to 8) (size 9 to 14) (size 15 to 20)
#    0.000    1.391    1.739    4.696    9.739    2.783 
#    3.130    0.870    0.000    0.522    0.000    0.000 
#    0.000    0.000    0.000    0.000    0.000    0.000 
#
# Total GULP energy -128424.278036 kJ/mol
# GULP energy per Si atom -5583.664262 kJ/mol
# Density = 2.575092 g / cm^3
# Si number density = 25.809662 Si / 1000 Ang^3
#
#
#
# Elastic Constant Matrix: (Units=GPa)
#
#
# Indices 1 2 3 4 5 6 
#
# 1 82.6279 14.1997 34.2513 0.0000 0.0000 0.0000
# 2 14.1997 129.7840 35.8984 0.0000 0.0000 0.0000
# 3 34.2513 35.8984 144.9438 0.0000 0.0000 0.0000
# 4 0.0000 0.0000 0.0000 34.3646 0.0000 0.0000
# 5 0.0000 0.0000 0.0000 0.0000 24.4557 0.0000
# 6 0.0000 0.0000 0.0000 0.0000 0.0000 32.6980
#
#
#
# Elastic Compliance Matrix: (Units=1/GPa)
#
#
# Indices 1 2 3 4 5 6 
#
# 1 0.013466 -0.000637 -0.003024 0.000000 0.000000 0.000000
# 2 -0.000637 0.008302 -0.001906 0.000000 0.000000 0.000000
# 3 -0.003024 -0.001906 0.008086 0.000000 0.000000 0.000000
# 4 0.000000 0.000000 0.000000 0.029100 0.000000 0.000000
# 5 0.000000 0.000000 0.000000 0.000000 0.040890 0.000000
# 6 0.000000 0.000000 0.000000 0.000000 0.000000 0.030583
#
#
# Mechanical properties :
#
#
# Convention : Reuss Voigt Hill
#
# Bulk Modulus (GPa) = 53.41921 58.45049 55.93485
# Shear Modulus (GPa) = 33.82961 36.50408 35.16685
#
# Velocity S-wave (km/s) = 3.62433 3.76487 3.69527
# Velocity P-wave (km/s) = 6.18520 6.44941 6.31869
#
# Compressibility (1/GPa) = 0.01871986
#
# Stress axis : x y z
#
# Youngs Moduli (GPa) = 74.26374 120.45455 123.67247
#
# Poissons Ratio (x) = 0.07670 0.37402
# Poissons Ratio (y) = 0.04729 0.23568
# Poissons Ratio (z) = 0.22460 0.22955
#
# Static dielectric constant tensor:
#      x y z
#    x 2.038950 0.000000 0.000000 
#    y 0.000000 2.055180 0.000000 
#    z 0.000000 0.000000 2.179300 
# 
# From -- ./inp_files/5219.got.cif
#   From: 2010.05.17/outbox.cif.g08.bks.cpg/sg21_3_cif.got.tgz:5219.got - 2010.06.03 23:14:55.
