data_PCOD9322388
_publ_section_title
;
Structure prediction by ZEFSAII (Michael W. Deem and Ramdas Pophale) SiO2 
 PCOD9322388
Probable space group: C 2 2 2
;
_chemical_formula_sum "Si O2"
_cell_formula_units_Z 48
_cell_length_a 13.460827
_cell_length_b 25.548594
_cell_length_c 7.929837
_cell_angle_alpha 90.000000
_cell_angle_beta 90.000000
_cell_angle_gamma 90.000000
_cell_volume 2727.112211
_symmetry_space_group_name_H-M "C 2 2 2"
_symmetry_group_IT_number 21
_symmetry_cell_setting 'orthorhombic'
loop_
_space_group_symop_operation_xyz
x,y,z
-x,-y,z
x,-y,-z
-x,y,-z
1/2+x,1/2+y,z
1/2-x,1/2-y,z
1/2+x,1/2-y,-z
1/2-x,1/2+y,-z
loop_
_atom_site_type_symbol
_atom_site_label
_atom_site_fract_x
_atom_site_fract_y
_atom_site_fract_z
Si Si1 0.728186 0.189134 0.707785
Si Si2 0.842587 0.291797 0.374046
Si Si3 0.245268 0.846456 0.071642
Si Si4 0.948654 0.216682 0.159181
Si Si5 0.615989 0.559099 0.045377
Si Si6 0.426063 0.628805 0.656657
O O1 0.750000 0.250000 0.743293
O O2 0.647405 0.185732 0.560651
O O3 0.707262 0.163144 0.887971
O O4 0.826485 0.162342 0.623917
O O5 0.750000 0.250000 0.384762
O O6 0.932461 0.256614 0.309344
O O7 0.814991 0.334373 0.230827
O O8 0.186985 0.901351 0.057058
O O9 0.157038 0.804097 0.094458
O O10 0.011896 0.166824 0.218611
O O11 0.000000 0.242810 0.000000
O O12 0.612787 0.578266 0.240450
O O13 0.644479 0.500000 0.000000
O O14 0.500000 0.564650 0.000000
O O15 0.500000 0.618439 0.500000
#
# Coordination Sequence:
#
# PCOD9322388 Si02
#       6
#     8   8   8   8   8   8
#     4  10  18  28  42  66  90 123 163 193 232 288
#     4   9  19  28  44  64  93 120 161 197 233 288
#     4  10  17  31  48  60  88 127 162 195 246 283
#     4  11  17  31  45  70  94 130 163 196 245 301
#     4  10  19  32  47  62  90 124 166 209 246 280
#     4  11  19  29  50  67  97 128 167 206 246 293
#
# _framework density 17.601036000000001
#
# number of rings (size 3 to 8) (size 9 to 14) (size 15 to 20)
#    0.000    1.833    5.000    4.500    0.000    0.000 
#    0.000    1.667    0.000    0.000    0.000    0.000 
#    0.000    0.667    0.000    0.000   42.000    0.167 
#
# Total GULP energy -133727.244824 kJ/mol
# GULP energy per Si atom -5571.968534 kJ/mol
# Density = 1.756098 g / cm^3
# Si number density = 17.601036 Si / 1000 Ang^3
#
#
#
# Elastic Constant Matrix: (Units=GPa)
#
#
# Indices 1 2 3 4 5 6 
#
# 1 14.7553 17.1702 14.8292 0.0000 0.0000 0.0000
# 2 17.1702 98.4192 37.8992 0.0000 0.0000 0.0000
# 3 14.8292 37.8992 97.0886 0.0000 0.0000 0.0000
# 4 0.0000 0.0000 0.0000 15.5905 0.0000 0.0000
# 5 0.0000 0.0000 0.0000 0.0000 26.8573 0.0000
# 6 0.0000 0.0000 0.0000 0.0000 0.0000 19.4677
#
#
#
# Elastic Compliance Matrix: (Units=1/GPa)
#
#
# Indices 1 2 3 4 5 6 
#
# 1 0.091397 -0.012439 -0.009104 0.000000 0.000000 0.000000
# 2 -0.012439 0.013651 -0.003429 0.000000 0.000000 0.000000
# 3 -0.009104 -0.003429 0.013029 0.000000 0.000000 0.000000
# 4 0.000000 0.000000 0.000000 0.064142 0.000000 0.000000
# 5 0.000000 0.000000 0.000000 0.000000 0.037234 0.000000
# 6 0.000000 0.000000 0.000000 0.000000 0.000000 0.051367
#
#
# Mechanical properties :
#
#
# Convention : Reuss Voigt Hill
#
# Bulk Modulus (GPa) = 14.67728 38.89558 26.78643
# Shear Modulus (GPa) = 14.55710 21.74073 18.14892
#
# Velocity S-wave (km/s) = 2.87898 3.51835 3.21460
# Velocity P-wave (km/s) = 4.40549 6.21703 5.38794
#
# Compressibility (1/GPa) = 0.06813252
#
# Stress axis : x y z
#
# Youngs Moduli (GPa) = 10.94128 73.25386 76.75242
#
# Poissons Ratio (x) = 0.91123 0.69876
# Poissons Ratio (y) = 0.13610 0.26317
# Poissons Ratio (z) = 0.09961 0.25118
#
# Static dielectric constant tensor:
#      x y z
#    x 1.625910 0.000000 0.000000 
#    y 0.000000 1.612070 0.000000 
#    z 0.000000 0.000000 1.693370 
# 
# From -- ./inp_files/16711.got.cif
#   From: 2010.05.17/outbox.cif.g08.bks.cpg/sg21_9_cif.got.tgz:16711.got - 2010.06.03 23:14:55.
