data_PCOD9322061
_publ_section_title
;
Structure prediction by ZEFSAII (Michael W. Deem and Ramdas Pophale) SiO2 
 PCOD9322061
Probable space group: C 2 2 21
;
_chemical_formula_sum "Si O2"
_cell_formula_units_Z 28
_cell_length_a 8.533604
_cell_length_b 4.964612
_cell_length_c 24.582697
_cell_angle_alpha 90.000000
_cell_angle_beta 90.000000
_cell_angle_gamma 90.000000
_cell_volume 1041.471348
_symmetry_space_group_name_H-M "C 2 2 21"
_symmetry_group_IT_number 20
_symmetry_cell_setting 'orthorhombic'
loop_
_space_group_symop_operation_xyz
x,y,z
-x,-y,1/2+z
x,-y,-z
-x,y,1/2-z
1/2+x,1/2+y,z
1/2-x,1/2-y,1/2+z
1/2+x,1/2-y,-z
1/2-x,1/2+y,1/2-z
loop_
_atom_site_type_symbol
_atom_site_label
_atom_site_fract_x
_atom_site_fract_y
_atom_site_fract_z
Si Si1 0.366218 0.697060 0.209199
Si Si2 0.500000 0.199059 0.250000
Si Si3 0.331006 0.636980 0.558752
Si Si4 0.336165 0.643790 0.899156
O O1 0.500000 0.554585 0.250000
O O2 0.307178 0.233479 0.268716
O O3 0.360187 0.501234 0.158407
O O4 0.452756 0.979968 0.200740
O O5 0.327770 0.500000 0.500000
O O6 0.501174 0.738942 0.575629
O O7 0.222165 0.896086 0.563583
O O8 0.279743 0.397588 0.599885
#
# Coordination Sequence:
#
# PCOD9322061 Si02
#       4
#     8   4   8   8
#     4   8  16  35  62  94 132 167 218 264 330 398
#     4   6  14  28  58  80 136 150 218 244 328 360
#     4  12  26  45  69  99 135 177 232 283 336 398
#     4  12  25  45  73 100 137 181 223 278 346 400
#
# _framework density 26.885038000000002
#
# number of rings (size 3 to 8) (size 9 to 14) (size 15 to 20)
#    1.714    0.000    0.000    6.000    0.000    0.000 
#    0.000    2.857    0.000    0.000    0.000    0.000 
#    0.000    0.000    0.000    0.000    0.000    0.000 
#
# Total GULP energy -78379.299924 kJ/mol
# GULP energy per Si atom -5598.521423 kJ/mol
# Density = 2.682385 g / cm^3
# Si number density = 26.885038 Si / 1000 Ang^3
#
#
#
# Elastic Constant Matrix: (Units=GPa)
#
#
# Indices 1 2 3 4 5 6 
#
# 1 175.5146 40.2524 34.9417 0.0000 0.0000 0.0000
# 2 40.2524 158.4850 -6.8454 0.0000 0.0000 0.0000
# 3 34.9417 -6.8454 75.9450 0.0000 0.0000 0.0000
# 4 0.0000 0.0000 0.0000 23.9176 0.0000 0.0000
# 5 0.0000 0.0000 0.0000 0.0000 34.9909 0.0000
# 6 0.0000 0.0000 0.0000 0.0000 0.0000 -31.2006
#
#
#
# Elastic Compliance Matrix: (Units=1/GPa)
#
#
# Indices 1 2 3 4 5 6 
#
# 1 0.006779 -0.001864 -0.003287 0.000000 0.000000 0.000000
# 2 -0.001864 0.006847 0.001475 0.000000 0.000000 0.000000
# 3 -0.003287 0.001475 0.014813 0.000000 0.000000 0.000000
# 4 0.000000 0.000000 0.000000 0.041810 0.000000 0.000000
# 5 0.000000 0.000000 0.000000 0.000000 0.028579 0.000000
# 6 0.000000 0.000000 0.000000 0.000000 0.000000 -0.032051
#
#
# Mechanical properties :
#
#
# Convention : Reuss Voigt Hill
#
# Bulk Modulus (GPa) = 47.42400 60.73801 54.08100
# Shear Modulus (GPa) = 61.60761 28.31463 44.96112
#
# Velocity S-wave (km/s) = 4.79218 3.24879 4.09387
# Velocity P-wave (km/s) = 6.94966 6.05918 6.51964
#
# Compressibility (1/GPa) = 0.02108637
#
# Stress axis : x y z
#
# Youngs Moduli (GPa) = 147.50585 146.05316 67.50943
#
# Poissons Ratio (x) = 0.27222 0.22191
# Poissons Ratio (y) = 0.27493 -0.09955
# Poissons Ratio (z) = 0.48487 -0.21538
#
# Static dielectric constant tensor:
#      x y z
#    x 2.104050 0.000000 0.000000 
#    y 0.000000 2.092870 0.000000 
#    z 0.000000 0.000000 2.197330 
# 
# From -- ./inp_files/29657.got.cif
#   From: 2010.05.17/outbox.cif.g08.bks.cpg/sg20_15_cif.got.tgz:29657.got - 2010.06.03 22:52:26.
