data_PCOD9322187
_publ_section_title
;
Structure prediction by ZEFSAII (Michael W. Deem and Ramdas Pophale) SiO2 
 PCOD9322187
Probable space group: C 2 2 21
;
_chemical_formula_sum "Si O2"
_cell_formula_units_Z 20
_cell_length_a 9.000000
_cell_length_b 15.000000
_cell_length_c 15.000000
_cell_angle_alpha 90.000000
_cell_angle_beta 90.000000
_cell_angle_gamma 90.000000
_cell_volume 2025.000000
_symmetry_space_group_name_H-M "C 2 2 21"
_symmetry_group_IT_number 20
_symmetry_cell_setting 'orthorhombic'
loop_
_space_group_symop_operation_xyz
x,y,z
-x,-y,1/2+z
x,-y,-z
-x,y,1/2-z
1/2+x,1/2+y,z
1/2-x,1/2-y,1/2+z
1/2+x,1/2-y,-z
1/2-x,1/2+y,1/2-z
loop_
_atom_site_type_symbol
_atom_site_label
_atom_site_fract_x
_atom_site_fract_y
_atom_site_fract_z
Si Si1 0.542652 0.536929 0.346590
Si Si2 0.320944 0.940388 0.415557
Si Si3 0.431581 0.818308 0.161328
Si Si4 0.568408 0.321228 0.503952
Si Si5 0.593827 0.655662 0.835082
O O1 0.500000 0.574938 0.250000
O O2 0.713135 0.502877 0.355743
O O3 0.513684 0.599256 0.431043
O O4 0.450222 0.446335 0.353294
O O5 0.459001 0.898881 0.364261
O O6 0.214838 0.860702 0.454322
O O7 0.367490 0.000000 0.500000
O O8 0.500000 0.774498 0.250000
O O9 0.414376 0.758091 0.073545
O O10 0.265138 0.842773 0.186292
O O11 0.455157 0.295570 0.425443
O O12 0.500000 0.687334 0.750000
#
# Coordination Sequence:
#
# PCOD9322187 Si02
#       5
#     8   8   8   8   8
#     4   9  17  35  57  77 106 145 182 214 259 323
#     4   9  20  37  55  76 109 144 179 222 265 310
#     4  12  22  34  56  84 110 138 176 226 273 312
#     4  10  20  36  56  80 108 142 178 221 269 320
#     4  10  21  36  56  77 107 145 183 217 261 323
#
# _framework density 9.8765429999999999
#
# number of rings (size 3 to 8) (size 9 to 14) (size 15 to 20)
#    0.000    2.000    0.000    7.200    0.000    1.600 
#    0.000    0.000    0.000   18.000    0.000    1.400 
#    0.000    0.000    0.000    0.000    0.000    0.000 
#
# Total GULP energy -111506.997238 kJ/mol
# GULP energy per Si atom -5575.349862 kJ/mol
# Density = 0.985406 g / cm^3
# Si number density = 9.876543 Si / 1000 Ang^3
#
#
#
# Elastic Constant Matrix: (Units=GPa)
#
#
# Indices 1 2 3 4 5 6 
#
# 1 121.1068 21.2207 66.6670 0.0000 0.0000 0.0000
# 2 21.2207 31.1019 18.0446 0.0000 0.0000 0.0000
# 3 66.6670 18.0446 136.7805 0.0000 0.0000 0.0000
# 4 0.0000 0.0000 0.0000 18.0162 0.0000 0.0000
# 5 0.0000 0.0000 0.0000 0.0000 33.7195 0.0000
# 6 0.0000 0.0000 0.0000 0.0000 0.0000 3.5878
#
#
#
# Elastic Compliance Matrix: (Units=1/GPa)
#
#
# Indices 1 2 3 4 5 6 
#
# 1 0.012014 -0.005198 -0.005170 0.000000 0.000000 0.000000
# 2 -0.005198 0.037066 -0.002357 0.000000 0.000000 0.000000
# 3 -0.005170 -0.002357 0.010142 0.000000 0.000000 0.000000
# 4 0.000000 0.000000 0.000000 0.055505 0.000000 0.000000
# 5 0.000000 0.000000 0.000000 0.000000 0.029656 0.000000
# 6 0.000000 0.000000 0.000000 0.000000 0.000000 0.278721
#
#
# Mechanical properties :
#
#
# Convention : Reuss Voigt Hill
#
# Bulk Modulus (GPa) = 29.60910 55.65045 42.62977
# Shear Modulus (GPa) = 10.87405 23.26849 17.07127
#
# Velocity S-wave (km/s) = 2.34882 3.43588 2.94297
# Velocity P-wave (km/s) = 4.73055 6.63133 5.75989
#
# Compressibility (1/GPa) = 0.03377340
#
# Stress axis : x y z
#
# Youngs Moduli (GPa) = 83.23747 26.97895 98.60302
#
# Poissons Ratio (x) = 0.14022 0.50977
# Poissons Ratio (y) = 0.43263 0.23237
# Poissons Ratio (z) = 0.43033 0.06358
#
# Static dielectric constant tensor:
#      x y z
#    x 1.697810 0.000000 0.000000 
#    y 0.000000 1.706790 0.000000 
#    z 0.000000 0.000000 1.760030 
# 
# From -- ./inp_files/18534.got.cif
#   From: 2010.05.17/outbox.ucp.g08.bks.cvg/sg20_10_cif.got.tgz:18534.got - 2010.06.11 15:13:06.
