data_PCOD9322873
_publ_section_title
;
Structure prediction by ZEFSAII (Michael W. Deem and Ramdas Pophale) SiO2 
 PCOD9322873
Probable space group: C 2 2 2
;
_chemical_formula_sum "Si O2"
_cell_formula_units_Z 34
_cell_length_a 4.960709
_cell_length_b 20.174396
_cell_length_c 13.981797
_cell_angle_alpha 90.000000
_cell_angle_beta 90.000000
_cell_angle_gamma 90.000000
_cell_volume 1399.288566
_symmetry_space_group_name_H-M "C 2 2 2"
_symmetry_group_IT_number 21
_symmetry_cell_setting 'orthorhombic'
loop_
_space_group_symop_operation_xyz
x,y,z
-x,-y,z
x,-y,-z
-x,y,-z
1/2+x,1/2+y,z
1/2-x,1/2-y,z
1/2+x,1/2-y,-z
1/2-x,1/2+y,-z
loop_
_atom_site_type_symbol
_atom_site_label
_atom_site_fract_x
_atom_site_fract_y
_atom_site_fract_z
Si Si1 0.118737 0.570140 0.868356
Si Si2 0.500000 0.000000 0.500000
Si Si3 0.895877 0.844843 0.904478
Si Si4 0.407025 0.315119 0.684998
Si Si5 0.106798 0.397686 0.349107
O O1 0.408080 0.591281 0.905346
O O2 0.155922 0.570477 0.754201
O O3 0.000000 0.500000 0.897096
O O4 0.907559 0.627812 0.898110
O O5 0.659792 0.950675 0.430743
O O6 0.943507 0.810802 0.801111
O O7 0.000000 0.807214 0.000000
O O8 0.250000 0.250000 0.653023
O O9 0.695907 0.334592 0.643323
O O10 0.202760 0.374243 0.656880
#
# Coordination Sequence:
#
# PCOD9322873 Si02
#       5
#     8   2   8   8   8
#     4  10  19  35  53  83 128 168 203 260 331 390
#     4  12  24  46  72 106 134 158 224 284 332 418
#     4  10  21  34  55  87 121 165 224 264 309 372
#     4  10  22  44  65  89 132 178 217 263 326 389
#     4  10  23  39  67  97 127 169 212 271 336 394
#
# _framework density 24.298058999999999
#
# number of rings (size 3 to 8) (size 9 to 14) (size 15 to 20)
#    0.000    1.882    1.176    2.118    0.000    5.647 
#    0.000    9.412    0.000    0.000    0.000    0.000 
#    0.000    0.000    0.000    0.000    0.000    0.000 
#
# Total GULP energy -95020.975761 kJ/mol
# GULP energy per Si atom -5589.469162 kJ/mol
# Density = 2.424276 g / cm^3
# Si number density = 24.298059 Si / 1000 Ang^3
#
#
#
# Elastic Constant Matrix: (Units=GPa)
#
#
# Indices 1 2 3 4 5 6 
#
# 1 98.6683 9.4089 33.6321 0.0000 0.0000 0.0000
# 2 9.4089 65.5908 30.9136 0.0000 0.0000 0.0000
# 3 33.6321 30.9136 129.5744 0.0000 0.0000 0.0000
# 4 0.0000 0.0000 0.0000 386.1672 0.0000 0.0000
# 5 0.0000 0.0000 0.0000 0.0000 13.5076 0.0000
# 6 0.0000 0.0000 0.0000 0.0000 0.0000 34.8934
#
#
#
# Elastic Compliance Matrix: (Units=1/GPa)
#
#
# Indices 1 2 3 4 5 6 
#
# 1 0.011123 -0.000265 -0.002824 0.000000 0.000000 0.000000
# 2 -0.000265 0.017184 -0.004031 0.000000 0.000000 0.000000
# 3 -0.002824 -0.004031 0.009412 0.000000 0.000000 0.000000
# 4 0.000000 0.000000 0.000000 0.002590 0.000000 0.000000
# 5 0.000000 0.000000 0.000000 0.000000 0.074032 0.000000
# 6 0.000000 0.000000 0.000000 0.000000 0.000000 0.028659
#
#
# Mechanical properties :
#
#
# Convention : Reuss Voigt Hill
#
# Bulk Modulus (GPa) = 42.58971 49.08253 45.83612
# Shear Modulus (GPa) = 30.29109 101.57222 65.93166
#
# Velocity S-wave (km/s) = 3.53462 6.47251 5.21473
# Velocity P-wave (km/s) = 5.85014 8.72364 7.42718
#
# Compressibility (1/GPa) = 0.02347985
#
# Stress axis : x y z
#
# Youngs Moduli (GPa) = 89.90582 58.19415 106.24465
#
# Poissons Ratio (x) = 0.01540 0.30002
# Poissons Ratio (y) = 0.02379 0.42827
# Poissons Ratio (z) = 0.25388 0.23458
#
# Static dielectric constant tensor:
#      x y z
#    x 0.870530 0.000000 0.000000 
#    y 0.000000 1.974400 0.000000 
#    z 0.000000 0.000000 2.005870 
# 
# From -- ./inp_files/28934.got.cif
#   From: 2010.05.17/outbox.cif.g08.bks.cpg/sg21_15_cif.got.tgz:28934.got - 2010.06.03 23:14:55.
