data_PCOD9322807
_publ_section_title
;
Structure prediction by ZEFSAII (Michael W. Deem and Ramdas Pophale) SiO2 
 PCOD9322807
Probable space group: C 2 2 2
;
_chemical_formula_sum "Si O2"
_cell_formula_units_Z 48
_cell_length_a 13.749462
_cell_length_b 14.939357
_cell_length_c 11.174023
_cell_angle_alpha 90.000000
_cell_angle_beta 90.000000
_cell_angle_gamma 90.000000
_cell_volume 2295.235073
_symmetry_space_group_name_H-M "C 2 2 2"
_symmetry_group_IT_number 21
_symmetry_cell_setting 'orthorhombic'
loop_
_space_group_symop_operation_xyz
x,y,z
-x,-y,z
x,-y,-z
-x,y,-z
1/2+x,1/2+y,z
1/2-x,1/2-y,z
1/2+x,1/2-y,-z
1/2-x,1/2+y,-z
loop_
_atom_site_type_symbol
_atom_site_label
_atom_site_fract_x
_atom_site_fract_y
_atom_site_fract_z
Si Si1 0.850283 0.699151 0.286293
Si Si2 0.772246 0.564534 0.861918
Si Si3 0.958984 0.137029 0.632657
Si Si4 0.393993 0.887381 0.950280
Si Si5 0.950655 0.097066 0.117528
Si Si6 0.761890 0.970791 0.365456
O O1 0.750000 0.750000 0.257641
O O2 0.913219 0.763755 0.368807
O O3 0.900631 0.679707 0.159604
O O4 0.817349 0.607146 0.347063
O O5 0.828037 0.469998 0.895683
O O6 0.662848 0.579903 0.905418
O O7 0.763360 0.553624 0.720414
O O8 0.835091 0.638694 0.930222
O O9 0.868483 0.070633 0.663226
O O10 0.000000 0.115219 0.500000
O O11 0.029394 0.135389 0.748931
O O12 0.500000 0.909324 0.000000
O O13 0.000000 0.000000 0.123293
O O14 0.000000 0.142959 0.000000
O O15 0.764199 0.000000 0.500000
#
# Coordination Sequence:
#
# PCOD9322807 Si02
#       6
#     8   8   8   8   8   8
#     4   9  22  41  61  85 125 174 205 259 328 387
#     4  10  19  33  59  94 119 150 205 269 309 369
#     4  11  23  39  62  89 134 172 209 257 329 399
#     4  10  20  38  62  84 121 163 209 256 317 376
#     4  11  21  32  58  97 131 156 203 264 319 377
#     4  10  20  38  64  91 119 163 216 266 322 379
#
# _framework density 20.912890999999998
#
# number of rings (size 3 to 8) (size 9 to 14) (size 15 to 20)
#    0.000    1.833    1.667    4.000    4.667    0.667 
#    3.000    0.000    0.000    0.000    0.000    0.000 
#    0.000    0.000    0.000    0.000    0.000    0.000 
#
# Total GULP energy -133668.310151 kJ/mol
# GULP energy per Si atom -5569.512923 kJ/mol
# Density = 2.086529 g / cm^3
# Si number density = 20.912891 Si / 1000 Ang^3
#
#
#
# Elastic Constant Matrix: (Units=GPa)
#
#
# Indices 1 2 3 4 5 6 
#
# 1 133.3421 8.7859 40.0087 0.0000 0.0000 0.0000
# 2 8.7859 22.9028 11.8128 0.0000 0.0000 0.0000
# 3 40.0087 11.8128 129.8880 0.0000 0.0000 0.0000
# 4 0.0000 0.0000 0.0000 24.4817 0.0000 0.0000
# 5 0.0000 0.0000 0.0000 0.0000 23.0824 0.0000
# 6 0.0000 0.0000 0.0000 0.0000 0.0000 2.2518
#
#
#
# Elastic Compliance Matrix: (Units=1/GPa)
#
#
# Indices 1 2 3 4 5 6 
#
# 1 0.008347 -0.001968 -0.002392 0.000000 0.000000 0.000000
# 2 -0.001968 0.046276 -0.003602 0.000000 0.000000 0.000000
# 3 -0.002392 -0.003602 0.008763 0.000000 0.000000 0.000000
# 4 0.000000 0.000000 0.000000 0.040847 0.000000 0.000000
# 5 0.000000 0.000000 0.000000 0.000000 0.043323 0.000000
# 6 0.000000 0.000000 0.000000 0.000000 0.000000 0.444092
#
#
# Mechanical properties :
#
#
# Convention : Reuss Voigt Hill
#
# Bulk Modulus (GPa) = 21.07001 45.26084 33.16543
# Shear Modulus (GPa) = 8.02061 24.99823 16.50942
#
# Velocity S-wave (km/s) = 1.96050 3.46113 2.81274
# Velocity P-wave (km/s) = 3.90151 6.13695 5.14217
#
# Compressibility (1/GPa) = 0.04746083
#
# Stress axis : x y z
#
# Youngs Moduli (GPa) = 119.80472 21.60958 114.11138
#
# Poissons Ratio (x) = 0.04253 0.27296
# Poissons Ratio (y) = 0.23581 0.41107
# Poissons Ratio (z) = 0.28658 0.07784
#
# Static dielectric constant tensor:
#      x y z
#    x 1.776690 0.000000 0.000000 
#    y 0.000000 1.818010 0.000000 
#    z 0.000000 0.000000 1.889900 
# 
# From -- ./inp_files/24050.got.cif
#   From: 2010.05.17/outbox.cif.g08.bks.cpg/sg21_13_cif.got.tgz:24050.got - 2010.06.03 23:14:55.
