data_PCOD9322804
_publ_section_title
;
Structure prediction by ZEFSAII (Michael W. Deem and Ramdas Pophale) SiO2 
 PCOD9322804
Probable space group: C 2 2 2
;
_chemical_formula_sum "Si O2"
_cell_formula_units_Z 32
_cell_length_a 10.797741
_cell_length_b 16.293769
_cell_length_c 7.762340
_cell_angle_alpha 90.000000
_cell_angle_beta 90.000000
_cell_angle_gamma 90.000000
_cell_volume 1365.674255
_symmetry_space_group_name_H-M "C 2 2 2"
_symmetry_group_IT_number 21
_symmetry_cell_setting 'orthorhombic'
loop_
_space_group_symop_operation_xyz
x,y,z
-x,-y,z
x,-y,-z
-x,y,-z
1/2+x,1/2+y,z
1/2-x,1/2-y,z
1/2+x,1/2-y,-z
1/2-x,1/2+y,-z
loop_
_atom_site_type_symbol
_atom_site_label
_atom_site_fract_x
_atom_site_fract_y
_atom_site_fract_z
Si Si1 0.110638 0.050870 0.322380
Si Si2 0.862504 0.489403 0.203279
Si Si3 0.885276 0.242908 0.686710
Si Si4 0.140107 0.694137 0.293693
O O1 0.080067 0.146963 0.336473
O O2 0.120507 0.000000 0.500000
O O3 0.250179 0.047889 0.253450
O O4 0.000000 0.000000 0.227487
O O5 0.824198 0.398597 0.258914
O O6 0.000000 0.500000 0.280309
O O7 0.873374 0.500000 0.000000
O O8 0.750000 0.250000 0.771743
O O9 0.869101 0.285179 0.498195
O O10 0.002417 0.286303 0.775232
O O11 0.250000 0.750000 0.222750
#
# Coordination Sequence:
#
# PCOD9322804 Si02
#       4
#     8   8   8   8
#     4  11  21  38  65  98 125 154 200 257 308 366
#     4  11  25  43  60  88 127 169 209 248 298 366
#     4  10  19  33  58  92 118 149 195 249 306 357
#     4  10  19  37  60  86 119 155 195 248 304 357
#
# _framework density 23.431650000000001
#
# number of rings (size 3 to 8) (size 9 to 14) (size 15 to 20)
#    0.000    1.500    0.000    9.000    0.000    3.000 
#    0.000    6.250    0.000    0.000    0.000    0.000 
#    0.000    0.000    0.000    0.000    0.000    0.000 
#
# Total GULP energy -89363.451237 kJ/mol
# GULP energy per Si atom -5585.215702 kJ/mol
# Density = 2.337832 g / cm^3
# Si number density = 23.431650 Si / 1000 Ang^3
#
#
#
# Elastic Constant Matrix: (Units=GPa)
#
#
# Indices 1 2 3 4 5 6 
#
# 1 156.3280 -25.7558 3.6817 0.0000 0.0000 0.0000
# 2 -25.7558 129.0789 3.9270 0.0000 0.0000 0.0000
# 3 3.6817 3.9270 39.6820 0.0000 0.0000 0.0000
# 4 0.0000 0.0000 0.0000 -61.1932 0.0000 0.0000
# 5 0.0000 0.0000 0.0000 0.0000 7.0215 0.0000
# 6 0.0000 0.0000 0.0000 0.0000 0.0000 51.0032
#
#
#
# Elastic Compliance Matrix: (Units=1/GPa)
#
#
# Indices 1 2 3 4 5 6 
#
# 1 0.006636 0.001347 -0.000749 0.000000 0.000000 0.000000
# 2 0.001347 0.008044 -0.000921 0.000000 0.000000 0.000000
# 3 -0.000749 -0.000921 0.025361 0.000000 0.000000 0.000000
# 4 0.000000 0.000000 0.000000 -0.016342 0.000000 0.000000
# 5 0.000000 0.000000 0.000000 0.000000 0.142420 0.000000
# 6 0.000000 0.000000 0.000000 0.000000 0.000000 0.019607
#
#
# Mechanical properties :
#
#
# Convention : Reuss Voigt Hill
#
# Bulk Modulus (GPa) = 25.38378 32.08829 28.73604
# Shear Modulus (GPa) = 25.06211 22.24871 23.65541
#
# Velocity S-wave (km/s) = 3.27400 3.08476 3.18079
# Velocity P-wave (km/s) = 5.01485 5.13925 5.07743
#
# Compressibility (1/GPa) = 0.03939523
#
# Stress axis : x y z
#
# Youngs Moduli (GPa) = 150.68480 124.31646 39.43063
#
# Poissons Ratio (x) = -0.16745 0.02953
# Poissons Ratio (y) = -0.20297 0.03632
# Poissons Ratio (z) = 0.11287 0.11450
#
# Static dielectric constant tensor:
#      x y z
#    x 2.091730 0.000000 0.000000 
#    y 0.000000 1.848960 0.000000 
#    z 0.000000 0.000000 1.921820 
# 
# From -- ./inp_files/12179.got.cif
#   From: 2010.05.17/outbox.cif.g08.bks.cpg/sg21_7_cif.got.tgz:12179.got - 2010.06.03 23:14:55.
