data_PCOD9322246
_publ_section_title
;
Structure prediction by ZEFSAII (Michael W. Deem and Ramdas Pophale) SiO2 
 PCOD9322246
Probable space group: C 2 2 21
;
_chemical_formula_sum "Si O2"
_cell_formula_units_Z 32
_cell_length_a 9.000000
_cell_length_b 12.000000
_cell_length_c 30.000000
_cell_angle_alpha 90.000000
_cell_angle_beta 90.000000
_cell_angle_gamma 90.000000
_cell_volume 3240.000000
_symmetry_space_group_name_H-M "C 2 2 21"
_symmetry_group_IT_number 20
_symmetry_cell_setting 'orthorhombic'
loop_
_space_group_symop_operation_xyz
x,y,z
-x,-y,1/2+z
x,-y,-z
-x,y,1/2-z
1/2+x,1/2+y,z
1/2-x,1/2-y,1/2+z
1/2+x,1/2-y,-z
1/2-x,1/2+y,1/2-z
loop_
_atom_site_type_symbol
_atom_site_label
_atom_site_fract_x
_atom_site_fract_y
_atom_site_fract_z
Si Si1 0.791584 0.202917 0.391815
Si Si2 0.670107 0.837497 0.338163
Si Si3 0.350133 0.071537 0.637463
Si Si4 0.836152 0.951282 0.694520
Si Si5 0.817222 0.093946 0.203963
Si Si6 0.182022 0.549984 0.047116
Si Si7 0.375553 0.742108 0.072090
Si Si8 0.627019 0.124697 0.481295
O O1 0.742460 0.323180 0.372332
O O2 0.792269 0.122053 0.348996
O O3 0.708482 0.157044 0.435501
O O4 0.957178 0.227732 0.410434
O O5 0.501577 0.884431 0.339793
O O6 0.680965 0.720984 0.312666
O O7 0.706996 0.814011 0.390106
O O8 0.774731 0.926978 0.315596
O O9 0.282513 0.980257 0.670723
O O10 0.380851 0.026652 0.587047
O O11 0.777700 0.913091 0.743402
O O12 0.013777 0.947858 0.698287
O O13 0.309658 0.619423 0.070024
O O14 0.046179 0.625941 0.031361
O O15 0.235811 0.500000 0.000000
O O16 0.354530 0.794274 0.023375
O O17 0.660826 0.000000 0.500000
#
# Coordination Sequence:
#
# PCOD9322246 Si02
#       8
#     8   8   8   8   8   8   8   8
#     4  11  22  41  65  95 129 175 219 269 334 392
#     4  11  23  45  69  94 134 172 217 272 331 391
#     4  11  22  43  67  93 132 176 215 277 331 394
#     4  11  24  43  69  95 131 171 220 273 336 389
#     4  11  25  45  65  99 128 172 220 277 331 396
#     4  11  21  37  60  93 127 170 220 261 325 392
#     4  11  21  40  62  90 132 171 213 268 322 391
#     4  11  22  37  60  95 131 171 223 264 325 398
#
# _framework density 9.8765429999999999
#
# number of rings (size 3 to 8) (size 9 to 14) (size 15 to 20)
#    0.000    1.000    3.750    6.000    1.750    2.000 
#    2.250    5.000    0.000    0.000    0.000    0.000 
#    0.000    0.000    0.000    0.000    0.000    0.000 
#
# Total GULP energy -178525.658524 kJ/mol
# GULP energy per Si atom -5578.926829 kJ/mol
# Density = 0.985406 g / cm^3
# Si number density = 9.876543 Si / 1000 Ang^3
#
#
#
# Elastic Constant Matrix: (Units=GPa)
#
#
# Indices 1 2 3 4 5 6 
#
# 1 18.7763 60.2569 34.8275 0.0000 0.0000 0.0000
# 2 60.2569 77.4236 59.8891 0.0000 0.0000 0.0000
# 3 34.8275 59.8891 180.2977 0.0000 0.0000 0.0000
# 4 0.0000 0.0000 0.0000 36.4434 0.0000 0.0000
# 5 0.0000 0.0000 0.0000 0.0000 24.8581 0.0000
# 6 0.0000 0.0000 0.0000 0.0000 0.0000 19.9265
#
#
#
# Elastic Compliance Matrix: (Units=1/GPa)
#
#
# Indices 1 2 3 4 5 6 
#
# 1 -0.034298 0.029026 -0.003016 0.000000 0.000000 0.000000
# 2 0.029026 -0.007183 -0.003221 0.000000 0.000000 0.000000
# 3 -0.003016 -0.003221 0.007199 0.000000 0.000000 0.000000
# 4 0.000000 0.000000 0.000000 0.027440 0.000000 0.000000
# 5 0.000000 0.000000 0.000000 0.000000 0.040228 0.000000
# 6 0.000000 0.000000 0.000000 0.000000 0.000000 0.050184
#
#
# Mechanical properties :
#
#
# Convention : Reuss Voigt Hill
#
# Bulk Modulus (GPa) = 88.52603 65.16051 76.84327
# Shear Modulus (GPa) = 119.73719 24.34721 72.04220
#
# Velocity S-wave (km/s) = 7.79414 3.51462 6.04570
# Velocity P-wave (km/s) = 11.22104 7.03770 9.36592
#
# Compressibility (1/GPa) = 0.01129611
#
# Stress axis : x y z
#
# Youngs Moduli (GPa) = -29.15645 -139.21557 138.90921
#
# Poissons Ratio (x) = 4.04092 0.41901
# Poissons Ratio (y) = 0.84631 0.44742
# Poissons Ratio (z) = -0.08795 -0.44840
#
# Static dielectric constant tensor:
#      x y z
#    x 1.706390 0.000000 0.000000 
#    y 0.000000 1.739570 0.000000 
#    z 0.000000 0.000000 1.726200 
# 
# From -- ./inp_files/31085.got.cif
#   From: 2010.05.17/outbox.ucp.g08.bks.cvg/sg20_16_cif.got.tgz:31085.got - 2010.06.11 15:13:06.
