data_PCOD9322830
_publ_section_title
;
Structure prediction by ZEFSAII (Michael W. Deem and Ramdas Pophale) SiO2 
 PCOD9322830
Probable space group: C 2 2 2
;
_chemical_formula_sum "Si O2"
_cell_formula_units_Z 64
_cell_length_a 15.180697
_cell_length_b 14.917247
_cell_length_c 12.720012
_cell_angle_alpha 90.000000
_cell_angle_beta 90.000000
_cell_angle_gamma 90.000000
_cell_volume 2880.500228
_symmetry_space_group_name_H-M "C 2 2 2"
_symmetry_group_IT_number 21
_symmetry_cell_setting 'orthorhombic'
loop_
_space_group_symop_operation_xyz
x,y,z
-x,-y,z
x,-y,-z
-x,y,-z
1/2+x,1/2+y,z
1/2-x,1/2-y,z
1/2+x,1/2-y,-z
1/2-x,1/2+y,-z
loop_
_atom_site_type_symbol
_atom_site_label
_atom_site_fract_x
_atom_site_fract_y
_atom_site_fract_z
Si Si1 0.600330 0.295108 0.624166
Si Si2 0.869868 0.954629 0.106519
Si Si3 0.400404 0.503683 0.664449
Si Si4 0.144723 0.237417 0.029868
Si Si5 0.831683 0.491709 0.118759
Si Si6 0.877213 0.696252 0.807665
Si Si7 0.077308 0.647036 0.791542
Si Si8 0.613925 0.309450 0.389228
O O1 0.635999 0.395834 0.646745
O O2 0.619881 0.216192 0.707270
O O3 0.629413 0.272763 0.505908
O O4 0.493275 0.306676 0.626071
O O5 0.887336 0.849855 0.092637
O O6 0.904629 0.002400 0.209749
O O7 0.764367 0.964649 0.112505
O O8 0.900156 0.000000 0.000000
O O9 0.500000 0.500000 0.621578
O O10 0.356688 0.413588 0.620084
O O11 0.250000 0.250000 0.035341
O O12 0.101960 0.318565 0.092329
O O13 0.117972 0.237851 0.908062
O O14 0.821228 0.388432 0.152458
O O15 0.886672 0.546465 0.205434
O O16 0.869837 0.500000 0.000000
O O17 0.848839 0.749951 0.704951
O O18 0.973001 0.655269 0.782820
#
# Coordination Sequence:
#
# PCOD9322830 Si02
#       8
#     8   8   8   8   8   8   8   8
#     4   9  18  35  59  84 116 148 191 245 301 355
#     4  11  22  36  53  81 120 158 193 229 301 363
#     4  10  19  34  56  85 114 151 196 244 291 358
#     4  12  21  37  58  82 120 156 188 237 298 354
#     4  11  22  39  58  81 116 162 196 240 294 360
#     4  11  23  37  60  88 119 151 202 251 293 343
#     4  11  21  37  61  91 111 148 205 252 286 349
#     4   9  19  35  56  86 115 150 192 243 303 351
#
# _framework density 22.218361000000002
#
# number of rings (size 3 to 8) (size 9 to 14) (size 15 to 20)
#    0.000    1.500    3.750    2.625    0.000    2.250 
#    2.250    0.625    0.000   11.250    0.000    0.000 
#    0.000    0.000    0.000    0.000    0.000    0.000 
#
# Total GULP energy -178752.589177 kJ/mol
# GULP energy per Si atom -5586.018412 kJ/mol
# Density = 2.216779 g / cm^3
# Si number density = 22.218361 Si / 1000 Ang^3
#
#
#
# Elastic Constant Matrix: (Units=GPa)
#
#
# Indices 1 2 3 4 5 6 
#
# 1 40.1161 7.1839 -3.1060 0.0000 0.0000 0.0000
# 2 7.1839 99.5045 34.6134 0.0000 0.0000 0.0000
# 3 -3.1060 34.6134 139.6211 0.0000 0.0000 0.0000
# 4 0.0000 0.0000 0.0000 22.3150 0.0000 0.0000
# 5 0.0000 0.0000 0.0000 0.0000 -118.0555 0.0000
# 6 0.0000 0.0000 0.0000 0.0000 0.0000 14.9075
#
#
#
# Elastic Compliance Matrix: (Units=1/GPa)
#
#
# Indices 1 2 3 4 5 6 
#
# 1 0.025412 -0.002223 0.001116 0.000000 0.000000 0.000000
# 2 -0.002223 0.011193 -0.002824 0.000000 0.000000 0.000000
# 3 0.001116 -0.002824 0.007887 0.000000 0.000000 0.000000
# 4 0.000000 0.000000 0.000000 0.044813 0.000000 0.000000
# 5 0.000000 0.000000 0.000000 0.000000 -0.008471 0.000000
# 6 0.000000 0.000000 0.000000 0.000000 0.000000 0.067080
#
#
# Mechanical properties :
#
#
# Convention : Reuss Voigt Hill
#
# Bulk Modulus (GPa) = 27.29969 39.62492 33.46231
# Shear Modulus (GPa) = 29.76430 -0.12989 14.81720
#
# Velocity S-wave (km/s) = 3.66406 -0.24205 2.58522
# Velocity P-wave (km/s) = 5.49674 4.21840 4.89944
#
# Compressibility (1/GPa) = 0.03663045
#
# Stress axis : x y z
#
# Youngs Moduli (GPa) = 39.35123 89.34374 126.78716
#
# Poissons Ratio (x) = 0.19861 -0.14155
# Poissons Ratio (y) = 0.08748 0.35808
# Poissons Ratio (z) = -0.04393 0.25233
#
# Static dielectric constant tensor:
#      x y z
#    x 1.847520 0.000000 0.000000 
#    y 0.000000 1.896810 0.000000 
#    z 0.000000 0.000000 1.804560 
# 
# From -- ./inp_files/25488.got.cif
#   From: 2010.05.17/outbox.cif.g08.bks.cpg/sg21_13_cif.got.tgz:25488.got - 2010.06.03 23:14:55.
