data_PCOD9322338
_publ_section_title
;
Structure prediction by ZEFSAII (Michael W. Deem and Ramdas Pophale) SiO2 
 PCOD9322338
Probable space group: C 2 2 2
;
_chemical_formula_sum "Si O2"
_cell_formula_units_Z 40
_cell_length_a 8.117027
_cell_length_b 16.484421
_cell_length_c 13.774914
_cell_angle_alpha 90.000000
_cell_angle_beta 90.000000
_cell_angle_gamma 90.000000
_cell_volume 1843.145347
_symmetry_space_group_name_H-M "C 2 2 2"
_symmetry_group_IT_number 21
_symmetry_cell_setting 'orthorhombic'
loop_
_space_group_symop_operation_xyz
x,y,z
-x,-y,z
x,-y,-z
-x,y,-z
1/2+x,1/2+y,z
1/2-x,1/2-y,z
1/2+x,1/2-y,-z
1/2-x,1/2+y,-z
loop_
_atom_site_type_symbol
_atom_site_label
_atom_site_fract_x
_atom_site_fract_y
_atom_site_fract_z
Si Si1 0.440811 0.761873 0.731285
Si Si2 0.141822 0.170492 0.577294
Si Si3 0.866830 0.430730 0.303638
Si Si4 0.361558 0.813292 0.930239
Si Si5 0.802960 0.513937 0.110046
O O1 0.250000 0.750000 0.699764
O O2 0.552927 0.698019 0.676561
O O3 0.525217 0.849278 0.713225
O O4 0.438071 0.757336 0.847034
O O5 0.250000 0.250000 0.546862
O O6 0.251863 0.093889 0.606533
O O7 0.000000 0.154764 0.500000
O O8 0.765567 0.460175 0.206247
O O9 0.000000 0.500000 0.324976
O O10 0.250000 0.750000 0.988132
O O11 0.277252 0.889663 0.877692
O O12 0.500000 0.847215 0.000000
O O13 0.000000 0.500000 0.106627
O O14 0.736226 0.500000 0.000000
#
# Coordination Sequence:
#
# PCOD9322338 Si02
#       5
#     8   8   8   8   8
#     4  10  20  36  61  91 128 170 214 277 327 390
#     4  10  22  40  69  99 125 171 224 288 341 401
#     4  10  19  37  65  95 127 174 223 260 340 407
#     4  11  21  34  57  95 131 173 223 264 313 389
#     4  10  16  32  59  89 129 179 212 254 316 390
#
# _framework density 21.702034000000001
#
# number of rings (size 3 to 8) (size 9 to 14) (size 15 to 20)
#    0.000    1.800    6.000    0.600    0.000    4.000 
#    0.000    1.000    0.000   35.400    0.000    0.000 
#    0.000    0.000    0.000    0.000    0.000    0.000 
#
# Total GULP energy -111357.342969 kJ/mol
# GULP energy per Si atom -5567.867148 kJ/mol
# Density = 2.165264 g / cm^3
# Si number density = 21.702034 Si / 1000 Ang^3
#
#
#
# Elastic Constant Matrix: (Units=GPa)
#
#
# Indices 1 2 3 4 5 6 
#
# 1 61.4602 32.5821 33.6579 0.0000 0.0000 0.0000
# 2 32.5821 110.5449 42.4663 0.0000 0.0000 0.0000
# 3 33.6579 42.4663 98.4400 0.0000 0.0000 0.0000
# 4 0.0000 0.0000 0.0000 13.2071 0.0000 0.0000
# 5 0.0000 0.0000 0.0000 0.0000 22.1014 0.0000
# 6 0.0000 0.0000 0.0000 0.0000 0.0000 29.0567
#
#
#
# Elastic Compliance Matrix: (Units=1/GPa)
#
#
# Indices 1 2 3 4 5 6 
#
# 1 0.021545 -0.004220 -0.005546 0.000000 0.000000 0.000000
# 2 -0.004220 0.011669 -0.003591 0.000000 0.000000 0.000000
# 3 -0.005546 -0.003591 0.013604 0.000000 0.000000 0.000000
# 4 0.000000 0.000000 0.000000 0.075717 0.000000 0.000000
# 5 0.000000 0.000000 0.000000 0.000000 0.045246 0.000000
# 6 0.000000 0.000000 0.000000 0.000000 0.000000 0.034416
#
#
# Mechanical properties :
#
#
# Convention : Reuss Voigt Hill
#
# Bulk Modulus (GPa) = 49.74099 54.20641 51.97370
# Shear Modulus (GPa) = 21.22127 23.65560 22.43843
#
# Velocity S-wave (km/s) = 3.13045 3.30512 3.21897
# Velocity P-wave (km/s) = 6.00300 6.29261 6.14951
#
# Compressibility (1/GPa) = 0.02010414
#
# Stress axis : x y z
#
# Youngs Moduli (GPa) = 46.41460 85.69394 73.50739
#
# Poissons Ratio (x) = 0.36159 0.40769
# Poissons Ratio (y) = 0.19585 0.26399
# Poissons Ratio (z) = 0.25742 0.30776
#
# Static dielectric constant tensor:
#      x y z
#    x 1.889260 0.000000 0.000000 
#    y 0.000000 1.825070 0.000000 
#    z 0.000000 0.000000 1.832990 
# 
# From -- ./inp_files/30209.got.cif
#   From: 2010.05.17/outbox.cif.g08.bks.cpg/sg21_16_cif.got.tgz:30209.got - 2010.06.03 23:14:55.
