data_PCOD9322261
_publ_section_title
;
Structure prediction by ZEFSAII (Michael W. Deem and Ramdas Pophale) SiO2 
 PCOD9322261
Probable space group: C 2 2 21
;
_chemical_formula_sum "Si O2"
_cell_formula_units_Z 20
_cell_length_a 24.000000
_cell_length_b 9.000000
_cell_length_c 9.000000
_cell_angle_alpha 90.000000
_cell_angle_beta 90.000000
_cell_angle_gamma 90.000000
_cell_volume 1944.000000
_symmetry_space_group_name_H-M "C 2 2 21"
_symmetry_group_IT_number 20
_symmetry_cell_setting 'orthorhombic'
loop_
_space_group_symop_operation_xyz
x,y,z
-x,-y,1/2+z
x,-y,-z
-x,y,1/2-z
1/2+x,1/2+y,z
1/2-x,1/2-y,1/2+z
1/2+x,1/2-y,-z
1/2-x,1/2+y,1/2-z
loop_
_atom_site_type_symbol
_atom_site_label
_atom_site_fract_x
_atom_site_fract_y
_atom_site_fract_z
Si Si1 0.302523 0.534502 0.834448
Si Si2 0.500000 0.274376 0.750000
Si Si3 0.534441 0.500000 0.000000
Si Si4 0.118749 0.238802 0.864086
Si Si5 0.311424 0.784444 0.328877
Si Si6 0.903774 0.462981 0.175800
O O1 0.340542 0.651507 0.746914
O O2 0.299737 0.380797 0.738311
O O3 0.243935 0.619645 0.856521
O O4 0.324621 0.500000 0.000000
O O5 0.497375 0.387639 0.610492
O O6 0.551316 0.160045 0.729973
O O7 0.572085 0.383463 0.093627
O O8 0.096483 0.387816 0.780025
O O9 0.152373 0.274580 0.017916
O O10 0.345844 0.878917 0.207603
O O11 0.911205 0.500000 0.000000
#
# Coordination Sequence:
#
# PCOD9322261 Si02
#       6
#     8   4   4   8   8   8
#     4  12  24  41  72 107 151 199 249 295 366 443
#     4  12  30  50  78 108 140 196 252 314 386 438
#     4  12  28  52  78 108 144 192 252 312 384 444
#     4  12  25  49  75 106 155 194 243 314 371 448
#     4  12  24  46  68 110 148 204 246 301 369 438
#     4  12  28  46  74 108 146 191 254 312 372 441
#
# _framework density 10.288066000000001
#
# number of rings (size 3 to 8) (size 9 to 14) (size 15 to 20)
#    0.000    0.000    4.000    5.400    5.600    1.600 
#    1.800    0.000    0.000    0.000    0.000    0.000 
#    0.000    0.000    0.000    0.000    0.000    0.000 
#
# Total GULP energy -111904.363412 kJ/mol
# GULP energy per Si atom -5595.218171 kJ/mol
# Density = 1.026465 g / cm^3
# Si number density = 10.288066 Si / 1000 Ang^3
#
#
#
# Elastic Constant Matrix: (Units=GPa)
#
#
# Indices 1 2 3 4 5 6 
#
# 1 46.8482 42.9351 19.2617 0.0000 0.0000 0.0000
# 2 42.9351 203.8209 64.3173 0.0000 0.0000 0.0000
# 3 19.2617 64.3173 141.7593 0.0000 0.0000 0.0000
# 4 0.0000 0.0000 0.0000 60.5255 0.0000 0.0000
# 5 0.0000 0.0000 0.0000 0.0000 28.7343 0.0000
# 6 0.0000 0.0000 0.0000 0.0000 0.0000 51.8031
#
#
#
# Elastic Compliance Matrix: (Units=1/GPa)
#
#
# Indices 1 2 3 4 5 6 
#
# 1 0.026642 -0.005217 -0.001253 0.000000 0.000000 0.000000
# 2 -0.005217 0.006748 -0.002353 0.000000 0.000000 0.000000
# 3 -0.001253 -0.002353 0.008292 0.000000 0.000000 0.000000
# 4 0.000000 0.000000 0.000000 0.016522 0.000000 0.000000
# 5 0.000000 0.000000 0.000000 0.000000 0.034802 0.000000
# 6 0.000000 0.000000 0.000000 0.000000 0.000000 0.019304
#
#
# Mechanical properties :
#
#
# Convention : Reuss Voigt Hill
#
# Bulk Modulus (GPa) = 41.60367 71.71739 56.66053
# Shear Modulus (GPa) = 36.24096 45.94020 41.09058
#
# Velocity S-wave (km/s) = 4.20135 4.73027 4.47363
# Velocity P-wave (km/s) = 6.61804 8.04762 7.36758
#
# Compressibility (1/GPa) = 0.02403634
#
# Stress axis : x y z
#
# Youngs Moduli (GPa) = 37.53515 148.20200 120.60007
#
# Poissons Ratio (x) = 0.77312 0.15113
# Poissons Ratio (y) = 0.19581 0.28372
# Poissons Ratio (z) = 0.04704 0.34866
#
# Static dielectric constant tensor:
#      x y z
#    x 1.795270 0.000000 0.000000 
#    y 0.000000 1.690850 0.000000 
#    z 0.000000 0.000000 1.747310 
# 
# From -- ./inp_files/6138.got.cif
#   From: 2010.05.17/outbox.ucp.g08.bks.cvg/sg20_4_cif.got.tgz:6138.got - 2010.06.11 15:13:06.
