data_PCOD9322657
_publ_section_title
;
Structure prediction by ZEFSAII (Michael W. Deem and Ramdas Pophale) SiO2 
 PCOD9322657
Probable space group: C 2 2 2
;
_chemical_formula_sum "Si O2"
_cell_formula_units_Z 48
_cell_length_a 7.249698
_cell_length_b 20.313435
_cell_length_c 16.330139
_cell_angle_alpha 90.000000
_cell_angle_beta 90.000000
_cell_angle_gamma 90.000000
_cell_volume 2404.878644
_symmetry_space_group_name_H-M "C 2 2 2"
_symmetry_group_IT_number 21
_symmetry_cell_setting 'orthorhombic'
loop_
_space_group_symop_operation_xyz
x,y,z
-x,-y,z
x,-y,-z
-x,y,-z
1/2+x,1/2+y,z
1/2-x,1/2-y,z
1/2+x,1/2-y,-z
1/2-x,1/2+y,-z
loop_
_atom_site_type_symbol
_atom_site_label
_atom_site_fract_x
_atom_site_fract_y
_atom_site_fract_z
Si Si1 0.291059 0.467726 0.418902
Si Si2 0.627061 0.685330 0.419020
Si Si3 0.620831 0.315381 0.259265
Si Si4 0.799133 0.034147 0.258895
Si Si5 0.842662 0.820885 0.932166
Si Si6 0.000000 0.598831 0.000000
Si Si7 0.000000 0.500000 0.870288
O O1 0.500000 0.500000 0.416149
O O2 0.208738 0.500000 0.500000
O O3 0.289707 0.388785 0.420287
O O4 0.214044 0.493387 0.333904
O O5 0.500000 0.684910 0.500000
O O6 0.750000 0.750000 0.429140
O O7 0.532257 0.693994 0.329670
O O8 0.750000 0.250000 0.264524
O O9 0.692675 0.388704 0.281895
O O10 0.580206 0.324146 0.161438
O O11 0.663355 0.028162 0.183553
O O12 0.000000 0.000000 0.241736
O O13 0.750000 0.750000 0.940982
O O14 0.666949 0.865418 0.954423
O O15 0.000000 0.830753 0.000000
O O16 0.912762 0.554247 0.070584
#
# Coordination Sequence:
#
# PCOD9322657 Si02
#       7
#     8   8   8   8   8   4   4
#     4  10  18  39  71  88 127 184 227 268 340 415
#     4  12  24  42  69 106 139 183 233 291 352 423
#     4  11  24  44  65 100 137 177 226 292 350 413
#     4  11  22  43  69  96 133 183 227 279 351 415
#     4  11  24  43  69  95 135 182 229 284 353 426
#     4  11  24  44  62 102 134 171 226 294 349 410
#     4  11  26  40  67  98 134 168 235 290 340 415
#
# _framework density 19.959427000000002
#
# number of rings (size 3 to 8) (size 9 to 14) (size 15 to 20)
#    0.000    1.000    7.500    0.500    2.333    2.000 
#    0.000    2.083    0.000    0.000    0.000    0.000 
#    0.000    0.000    0.000    0.000    0.000    0.000 
#
# Total GULP energy -133630.442338 kJ/mol
# GULP energy per Si atom -5567.935097 kJ/mol
# Density = 1.991400 g / cm^3
# Si number density = 19.959427 Si / 1000 Ang^3
#
#
#
# Elastic Constant Matrix: (Units=GPa)
#
#
# Indices 1 2 3 4 5 6 
#
# 1 49.7261 31.7525 33.2195 0.0000 0.0000 0.0000
# 2 31.7525 180.8457 54.0408 0.0000 0.0000 0.0000
# 3 33.2195 54.0408 146.4792 0.0000 0.0000 0.0000
# 4 0.0000 0.0000 0.0000 30.4865 0.0000 0.0000
# 5 0.0000 0.0000 0.0000 0.0000 150.9172 0.0000
# 6 0.0000 0.0000 0.0000 0.0000 0.0000 19.1086
#
#
#
# Elastic Compliance Matrix: (Units=1/GPa)
#
#
# Indices 1 2 3 4 5 6 
#
# 1 0.025107 -0.003042 -0.004572 0.000000 0.000000 0.000000
# 2 -0.003042 0.006583 -0.001739 0.000000 0.000000 0.000000
# 3 -0.004572 -0.001739 0.008505 0.000000 0.000000 0.000000
# 4 0.000000 0.000000 0.000000 0.032801 0.000000 0.000000
# 5 0.000000 0.000000 0.000000 0.000000 0.006626 0.000000
# 6 0.000000 0.000000 0.000000 0.000000 0.000000 0.052332
#
#
# Mechanical properties :
#
#
# Convention : Reuss Voigt Hill
#
# Bulk Modulus (GPa) = 46.53286 68.34184 57.43735
# Shear Modulus (GPa) = 31.68092 57.30501 44.49297
#
# Velocity S-wave (km/s) = 3.98837 5.36405 4.72653
# Velocity P-wave (km/s) = 6.67636 8.52519 7.65678
#
# Compressibility (1/GPa) = 0.02149019
#
# Stress axis : x y z
#
# Youngs Moduli (GPa) = 39.82995 151.89902 117.57518
#
# Poissons Ratio (x) = 0.46209 0.53750
# Poissons Ratio (y) = 0.12117 0.20445
# Poissons Ratio (z) = 0.18208 0.26413
#
# Static dielectric constant tensor:
#      x y z
#    x 1.675550 0.000000 0.000000 
#    y 0.000000 1.480660 0.000000 
#    z 0.000000 0.000000 1.775040 
# 
# From -- ./inp_files/30567.got.cif
#   From: 2010.05.17/outbox.cif.g08.bks.cpg/sg21_16_cif.got.tgz:30567.got - 2010.06.03 23:14:55.
