data_PCOD9322717
_publ_section_title
;
Structure prediction by ZEFSAII (Michael W. Deem and Ramdas Pophale) SiO2 
 PCOD9322717
Probable space group: C 2 2 2
;
_chemical_formula_sum "Si O2"
_cell_formula_units_Z 34
_cell_length_a 23.043591
_cell_length_b 5.305528
_cell_length_c 14.701468
_cell_angle_alpha 90.000000
_cell_angle_beta 90.000000
_cell_angle_gamma 90.000000
_cell_volume 1797.378209
_symmetry_space_group_name_H-M "C 2 2 2"
_symmetry_group_IT_number 21
_symmetry_cell_setting 'orthorhombic'
loop_
_space_group_symop_operation_xyz
x,y,z
-x,-y,z
x,-y,-z
-x,y,-z
1/2+x,1/2+y,z
1/2-x,1/2-y,z
1/2+x,1/2-y,-z
1/2-x,1/2+y,-z
loop_
_atom_site_type_symbol
_atom_site_label
_atom_site_fract_x
_atom_site_fract_y
_atom_site_fract_z
Si Si1 0.591304 0.860476 0.857653
Si Si2 0.437373 0.371713 0.246850
Si Si3 0.777338 0.496566 0.106266
Si Si4 0.066752 0.245022 0.459943
Si Si5 0.000000 0.500000 0.000000
O O1 0.599021 0.600057 0.800470
O O2 0.653908 0.957275 0.890684
O O3 0.543976 0.833167 0.938448
O O4 0.567926 0.103962 0.802712
O O5 0.500000 0.500000 0.240196
O O6 0.430674 0.295523 0.352479
O O7 0.750000 0.250000 0.150620
O O8 0.750000 0.750000 0.146841
O O9 0.759379 0.500000 0.000000
O O10 0.092512 0.500000 0.500000
O O11 0.000000 0.245932 0.500000
O O12 0.096529 0.000000 0.500000
#
# Coordination Sequence:
#
# PCOD9322717 Si02
#       5
#     8   8   8   8   2
#     4  12  25  38  56  83 126 160 206 242 298 365
#     4  12  22  36  52  85 122 163 186 237 297 362
#     4  10  21  40  62  81 104 152 219 270 292 324
#     4  10  19  31  53  74 109 160 188 228 273 353
#     4  12  24  38  52  86 126 174 196 232 300 370
#
# _framework density 18.916442
#
# number of rings (size 3 to 8) (size 9 to 14) (size 15 to 20)
#    0.000    0.941    5.882    2.824    3.294    1.882 
#    0.000    0.000    0.000    0.000    0.000    0.000 
#    0.000   52.706    0.000    0.000    0.000    0.000 
#
# Total GULP energy -94638.312205 kJ/mol
# GULP energy per Si atom -5566.959541 kJ/mol
# Density = 1.887339 g / cm^3
# Si number density = 18.916442 Si / 1000 Ang^3
#
#
#
# Elastic Constant Matrix: (Units=GPa)
#
#
# Indices 1 2 3 4 5 6 
#
# 1 59.8398 24.0438 3.1653 0.0000 0.0000 0.0000
# 2 24.0438 182.1985 57.1819 0.0000 0.0000 0.0000
# 3 3.1653 57.1819 79.1640 0.0000 0.0000 0.0000
# 4 0.0000 0.0000 0.0000 27.9356 0.0000 0.0000
# 5 0.0000 0.0000 0.0000 0.0000 -0.2539 0.0000
# 6 0.0000 0.0000 0.0000 0.0000 0.0000 20.7515
#
#
#
# Elastic Compliance Matrix: (Units=1/GPa)
#
#
# Indices 1 2 3 4 5 6 
#
# 1 0.017745 -0.002740 0.001270 0.000000 0.000000 0.000000
# 2 -0.002740 0.007521 -0.005323 0.000000 0.000000 0.000000
# 3 0.001270 -0.005323 0.016426 0.000000 0.000000 0.000000
# 4 0.000000 0.000000 0.000000 0.035797 0.000000 0.000000
# 5 0.000000 0.000000 0.000000 0.000000 -3.937799 0.000000
# 6 0.000000 0.000000 0.000000 0.000000 0.000000 0.048189
#
#
# Mechanical properties :
#
#
# Convention : Reuss Voigt Hill
#
# Bulk Modulus (GPa) = 35.58032 54.44269 45.01151
# Shear Modulus (GPa) = -1.31955 25.47404 12.07724
#
# Velocity S-wave (km/s) = -0.83611 3.67367 2.52950
# Velocity P-wave (km/s) = 4.23296 6.84380 5.69014
#
# Compressibility (1/GPa) = 0.02810542
#
# Stress axis : x y z
#
# Youngs Moduli (GPa) = 56.35333 132.96696 60.87908
#
# Poissons Ratio (x) = 0.36437 -0.07731
# Poissons Ratio (y) = 0.15442 0.32405
# Poissons Ratio (z) = -0.07156 0.70775
#
# Static dielectric constant tensor:
#      x y z
#    x 1.668430 0.000000 0.000000 
#    y 0.000000 1.783300 0.000000 
#    z 0.000000 0.000000 1.725500 
# 
# From -- ./inp_files/27166.got.cif
#   From: 2010.05.17/outbox.cif.g08.bks.cpg/sg21_14_cif.got.tgz:27166.got - 2010.06.03 23:14:55.
