data_PCOD9322129
_publ_section_title
;
Structure prediction by ZEFSAII (Michael W. Deem and Ramdas Pophale) SiO2 
 PCOD9322129
Probable space group: C 2 2 21
;
_chemical_formula_sum "Si O2"
_cell_formula_units_Z 24
_cell_length_a 8.886203
_cell_length_b 5.483108
_cell_length_c 18.375430
_cell_angle_alpha 90.000000
_cell_angle_beta 90.000000
_cell_angle_gamma 90.000000
_cell_volume 895.324649
_symmetry_space_group_name_H-M "C 2 2 21"
_symmetry_group_IT_number 20
_symmetry_cell_setting 'orthorhombic'
loop_
_space_group_symop_operation_xyz
x,y,z
-x,-y,1/2+z
x,-y,-z
-x,y,1/2-z
1/2+x,1/2+y,z
1/2-x,1/2-y,1/2+z
1/2+x,1/2-y,-z
1/2-x,1/2+y,1/2-z
loop_
_atom_site_type_symbol
_atom_site_label
_atom_site_fract_x
_atom_site_fract_y
_atom_site_fract_z
Si Si1 0.172106 0.995410 0.274975
Si Si2 0.660159 0.319281 0.944318
Si Si3 0.651161 0.230092 0.584434
O O1 0.234487 0.256076 0.246251
O O2 0.172721 0.041422 0.362740
O O3 0.000000 0.963775 0.250000
O O4 0.524977 0.157705 0.914635
O O5 0.744904 0.502351 0.890093
O O6 0.567492 0.500000 0.000000
O O7 0.782448 0.240063 0.003616
#
# Coordination Sequence:
#
# PCOD9322129 Si02
#       3
#     8   8   8
#     4  12  27  48  74 104 146 196 240 292 353 433
#     4   8  20  38  66  95 132 178 223 299 352 402
#     4   9  20  44  63 103 135 181 235 288 359 417
#
# _framework density 26.805918999999999
#
# number of rings (size 3 to 8) (size 9 to 14) (size 15 to 20)
#    2.000    0.000    0.000    3.000    0.000    5.333 
#   24.000    0.000    0.000    0.000    0.000    0.000 
#    0.000    0.000    0.000    0.000    0.000    0.000 
#
# Total GULP energy -66938.864980 kJ/mol
# GULP energy per Si atom -5578.238748 kJ/mol
# Density = 2.674491 g / cm^3
# Si number density = 26.805919 Si / 1000 Ang^3
#
#
#
# Elastic Constant Matrix: (Units=GPa)
#
#
# Indices 1 2 3 4 5 6 
#
# 1 222.1469 36.3868 -4.8666 0.0000 0.0000 0.0000
# 2 36.3868 114.1660 14.4386 0.0000 0.0000 0.0000
# 3 -4.8666 14.4386 74.7643 0.0000 0.0000 0.0000
# 4 0.0000 0.0000 0.0000 28.1116 0.0000 0.0000
# 5 0.0000 0.0000 0.0000 0.0000 26.7441 0.0000
# 6 0.0000 0.0000 0.0000 0.0000 0.0000 39.0429
#
#
#
# Elastic Compliance Matrix: (Units=1/GPa)
#
#
# Indices 1 2 3 4 5 6 
#
# 1 0.004777 -0.001601 0.000620 0.000000 0.000000 0.000000
# 2 -0.001601 0.009515 -0.001942 0.000000 0.000000 0.000000
# 3 0.000620 -0.001942 0.013791 0.000000 0.000000 0.000000
# 4 0.000000 0.000000 0.000000 0.035573 0.000000 0.000000
# 5 0.000000 0.000000 0.000000 0.000000 0.037391 0.000000
# 6 0.000000 0.000000 0.000000 0.000000 0.000000 0.025613
#
#
# Mechanical properties :
#
#
# Convention : Reuss Voigt Hill
#
# Bulk Modulus (GPa) = 44.96850 55.88832 50.42841
# Shear Modulus (GPa) = 35.73523 43.12093 39.42808
#
# Velocity S-wave (km/s) = 3.65514 4.01513 3.83936
# Velocity P-wave (km/s) = 5.88433 6.51072 6.20544
#
# Compressibility (1/GPa) = 0.02223779
#
# Stress axis : x y z
#
# Youngs Moduli (GPa) = 209.32057 105.09678 72.51245
#
# Poissons Ratio (x) = 0.16827 -0.04497
# Poissons Ratio (y) = 0.33514 0.14080
# Poissons Ratio (z) = -0.12981 0.20407
#
# Static dielectric constant tensor:
#      x y z
#    x 1.990210 0.000000 0.000000 
#    y 0.000000 2.615230 0.000000 
#    z 0.000000 0.000000 2.189170 
# 
# From -- ./inp_files/28133.got.cif
#   From: 2010.05.17/outbox.cif.g08.bks.cpg/sg20_15_cif.got.tgz:28133.got - 2010.06.03 22:52:26.
