data_PCOD9322040
_publ_section_title
;
Structure prediction by ZEFSAII (Michael W. Deem and Ramdas Pophale) SiO2 
 PCOD9322040
Probable space group: C 2 2 21
;
_chemical_formula_sum "Si O2"
_cell_formula_units_Z 40
_cell_length_a 16.949611
_cell_length_b 7.007757
_cell_length_c 15.918540
_cell_angle_alpha 90.000000
_cell_angle_beta 90.000000
_cell_angle_gamma 90.000000
_cell_volume 1890.784365
_symmetry_space_group_name_H-M "C 2 2 21"
_symmetry_group_IT_number 20
_symmetry_cell_setting 'orthorhombic'
loop_
_space_group_symop_operation_xyz
x,y,z
-x,-y,1/2+z
x,-y,-z
-x,y,1/2-z
1/2+x,1/2+y,z
1/2-x,1/2-y,1/2+z
1/2+x,1/2-y,-z
1/2-x,1/2+y,1/2-z
loop_
_atom_site_type_symbol
_atom_site_label
_atom_site_fract_x
_atom_site_fract_y
_atom_site_fract_z
Si Si1 0.448501 0.105447 0.910525
Si Si2 0.813261 0.500000 0.500000
Si Si3 0.790662 0.797201 0.861084
Si Si4 0.650378 0.411921 0.230306
Si Si5 0.000000 0.360779 0.750000
Si Si6 0.091706 0.848514 0.925596
O O1 0.485102 0.985883 0.833336
O O2 0.358044 0.151758 0.890056
O O3 0.499713 0.298809 0.915554
O O4 0.454950 0.000000 0.000000
O O5 0.759296 0.623147 0.438366
O O6 0.866719 0.350543 0.449141
O O7 0.728859 0.698711 0.798105
O O8 0.832487 0.973198 0.814690
O O9 0.577319 0.268453 0.237902
O O10 0.627643 0.563697 0.158393
O O11 0.103620 0.000000 0.000000
#
# Coordination Sequence:
#
# PCOD9322040 Si02
#       6
#     8   4   8   8   4   8
#     4  12  27  45  74 109 150 198 257 313 372 447
#     4  12  26  46  70 110 148 194 246 312 372 450
#     4  12  27  43  73 108 152 188 248 315 378 437
#     4  12  25  47  74 105 151 196 247 309 380 450
#     4  12  26  50  76 112 152 208 256 310 376 462
#     4  12  24  48  73 103 143 202 249 302 372 453
#
# _framework density 21.155242999999999
#
# number of rings (size 3 to 8) (size 9 to 14) (size 15 to 20)
#    0.000    0.000    3.000    7.200    7.000    0.000 
#    0.000    0.000    0.000    0.000    0.000    0.000 
#    0.000    0.000    0.000    0.000    0.000    0.000 
#
# Total GULP energy -112074.987893 kJ/mol
# GULP energy per Si atom -5603.749395 kJ/mol
# Density = 2.110709 g / cm^3
# Si number density = 21.155243 Si / 1000 Ang^3
#
#
#
# Elastic Constant Matrix: (Units=GPa)
#
#
# Indices 1 2 3 4 5 6 
#
# 1 121.4712 30.7445 28.5346 0.0000 0.0000 0.0000
# 2 30.7445 69.8498 22.9707 0.0000 0.0000 0.0000
# 3 28.5346 22.9707 99.0318 0.0000 0.0000 0.0000
# 4 0.0000 0.0000 0.0000 39.6447 0.0000 0.0000
# 5 0.0000 0.0000 0.0000 0.0000 13.2457 0.0000
# 6 0.0000 0.0000 0.0000 0.0000 0.0000 -23.6962
#
#
#
# Elastic Compliance Matrix: (Units=1/GPa)
#
#
# Indices 1 2 3 4 5 6 
#
# 1 0.009594 -0.003587 -0.001932 0.000000 0.000000 0.000000
# 2 -0.003587 0.016840 -0.002872 0.000000 0.000000 0.000000
# 3 -0.001932 -0.002872 0.011321 0.000000 0.000000 0.000000
# 4 0.000000 0.000000 0.000000 0.025224 0.000000 0.000000
# 5 0.000000 0.000000 0.000000 0.000000 0.075496 0.000000
# 6 0.000000 0.000000 0.000000 0.000000 0.000000 -0.042201
#
#
# Mechanical properties :
#
#
# Convention : Reuss Voigt Hill
#
# Bulk Modulus (GPa) = 47.68553 50.53915 49.11234
# Shear Modulus (GPa) = 41.64964 19.71239 30.68101
#
# Velocity S-wave (km/s) = 4.44189 3.05585 3.81238
# Velocity P-wave (km/s) = 6.99263 6.03262 6.53029
#
# Compressibility (1/GPa) = 0.02097072
#
# Stress axis : x y z
#
# Youngs Moduli (GPa) = 104.22831 59.38207 88.33290
#
# Poissons Ratio (x) = 0.21303 0.17069
# Poissons Ratio (y) = 0.37392 0.25373
# Poissons Ratio (z) = 0.20140 0.17057
#
# Static dielectric constant tensor:
#      x y z
#    x 1.734070 0.000000 0.000000 
#    y 0.000000 1.778640 0.000000 
#    z 0.000000 0.000000 1.767670 
# 
# From -- ./inp_files/25116.got.cif
#   From: 2010.05.17/outbox.cif.g08.bks.cpg/sg20_13_cif.got.tgz:25116.got - 2010.06.03 22:52:26.
