data_PCOD9322983
_publ_section_title
;
Structure prediction by ZEFSAII (Michael W. Deem and Ramdas Pophale) SiO2 
 PCOD9322983
Probable space group: C 2 2 2
;
_chemical_formula_sum "Si O2"
_cell_formula_units_Z 56
_cell_length_a 20.979322
_cell_length_b 15.123843
_cell_length_c 7.277528
_cell_angle_alpha 90.000000
_cell_angle_beta 90.000000
_cell_angle_gamma 90.000000
_cell_volume 2309.072102
_symmetry_space_group_name_H-M "C 2 2 2"
_symmetry_group_IT_number 21
_symmetry_cell_setting 'orthorhombic'
loop_
_space_group_symop_operation_xyz
x,y,z
-x,-y,z
x,-y,-z
-x,y,-z
1/2+x,1/2+y,z
1/2-x,1/2-y,z
1/2+x,1/2-y,-z
1/2-x,1/2+y,-z
loop_
_atom_site_type_symbol
_atom_site_label
_atom_site_fract_x
_atom_site_fract_y
_atom_site_fract_z
Si Si1 0.265072 0.348220 0.753880
Si Si2 0.510351 0.787268 0.711850
Si Si3 0.897355 0.407359 0.754217
Si Si4 0.760518 0.655447 0.172734
Si Si5 0.027881 0.089050 0.208730
Si Si6 0.832686 0.014545 0.780600
Si Si7 0.376436 0.101452 0.686450
O O1 0.250000 0.250000 0.678430
O O2 0.321713 0.416116 0.696581
O O3 0.197889 0.397519 0.729366
O O4 0.272750 0.335860 0.973633
O O5 0.500000 0.812426 0.500000
O O6 0.457380 0.847822 0.809625
O O7 0.494121 0.684440 0.724837
O O8 0.582452 0.815173 0.757512
O O9 0.833763 0.371111 0.849889
O O10 0.906125 0.512393 0.772456
O O11 0.882812 0.398262 0.534865
O O12 0.750000 0.750000 0.264359
O O13 0.724962 0.577527 0.278836
O O14 0.102645 0.070325 0.235039
O O15 0.000000 0.000000 0.295759
O O16 0.000000 0.088934 0.000000
O O17 0.826863 0.000000 0.000000
#
# Coordination Sequence:
#
# PCOD9322983 Si02
#       7
#     8   8   8   8   8   8   8
#     4  10  22  36  59  87 119 155 198 247 304 356
#     4  10  23  40  62  88 124 163 200 253 307 359
#     4  10  20  39  60  88 120 158 201 245 304 367
#     4  10  20  34  59  84 119 155 196 243 302 358
#     4  11  23  40  65  90 117 158 209 249 296 362
#     4  10  19  37  58  86 119 155 192 242 301 354
#     4  10  21  38  62  87 121 157 201 248 302 363
#
# _framework density 24.252165999999999
#
# number of rings (size 3 to 8) (size 9 to 14) (size 15 to 20)
#    0.000    1.857    2.857    1.286    2.000    4.857 
#    0.000    0.000    3.143    2.571    0.000    0.000 
#    0.000    0.000    0.000    0.000    0.000    0.000 
#
# Total GULP energy -156290.063693 kJ/mol
# GULP energy per Si atom -5581.787989 kJ/mol
# Density = 2.419697 g / cm^3
# Si number density = 24.252166 Si / 1000 Ang^3
#
#
#
# Elastic Constant Matrix: (Units=GPa)
#
#
# Indices 1 2 3 4 5 6 
#
# 1 104.9477 49.9425 -13.0920 0.0000 0.0000 0.0000
# 2 49.9425 149.8063 -19.0885 0.0000 0.0000 0.0000
# 3 -13.0920 -19.0885 62.8083 0.0000 0.0000 0.0000
# 4 0.0000 0.0000 0.0000 1.1314 0.0000 0.0000
# 5 0.0000 0.0000 0.0000 0.0000 2.4922 0.0000
# 6 0.0000 0.0000 0.0000 0.0000 0.0000 51.4896
#
#
#
# Elastic Compliance Matrix: (Units=1/GPa)
#
#
# Indices 1 2 3 4 5 6 
#
# 1 0.011422 -0.003646 0.001273 0.000000 0.000000 0.000000
# 2 -0.003646 0.008108 0.001704 0.000000 0.000000 0.000000
# 3 0.001273 0.001704 0.016705 0.000000 0.000000 0.000000
# 4 0.000000 0.000000 0.000000 0.883865 0.000000 0.000000
# 5 0.000000 0.000000 0.000000 0.000000 0.401246 0.000000
# 6 0.000000 0.000000 0.000000 0.000000 0.000000 0.019421
#
#
# Mechanical properties :
#
#
# Convention : Reuss Voigt Hill
#
# Bulk Modulus (GPa) = 28.65536 39.23180 33.94358
# Shear Modulus (GPa) = 3.69348 31.00932 17.35140
#
# Velocity S-wave (km/s) = 1.23542 3.57966 2.67771
# Velocity P-wave (km/s) = 3.72508 5.77036 4.85661
#
# Compressibility (1/GPa) = 0.03489749
#
# Stress axis : x y z
#
# Youngs Moduli (GPa) = 87.54799 123.33696 59.86330
#
# Poissons Ratio (x) = 0.44966 -0.07620
# Poissons Ratio (y) = 0.31918 -0.10202
# Poissons Ratio (z) = -0.11144 -0.21019
#
# Static dielectric constant tensor:
#      x y z
#    x 1.996840 0.000000 0.000000 
#    y 0.000000 2.035370 0.000000 
#    z 0.000000 0.000000 1.924710 
# 
# From -- ./inp_files/17671.got.cif
#   From: 2010.05.17/outbox.cif.g08.bks.cpg/sg21_9_cif.got.tgz:17671.got - 2010.06.03 23:14:55.
