data_PCOD9322620
_publ_section_title
;
Structure prediction by ZEFSAII (Michael W. Deem and Ramdas Pophale) SiO2 
 PCOD9322620
Probable space group: C 2 2 2
;
_chemical_formula_sum "Si O2"
_cell_formula_units_Z 26
_cell_length_a 12.158432
_cell_length_b 9.323449
_cell_length_c 11.272341
_cell_angle_alpha 90.000000
_cell_angle_beta 90.000000
_cell_angle_gamma 90.000000
_cell_volume 1277.815900
_symmetry_space_group_name_H-M "C 2 2 2"
_symmetry_group_IT_number 21
_symmetry_cell_setting 'orthorhombic'
loop_
_space_group_symop_operation_xyz
x,y,z
-x,-y,z
x,-y,-z
-x,y,-z
1/2+x,1/2+y,z
1/2-x,1/2-y,z
1/2+x,1/2-y,-z
1/2-x,1/2+y,-z
loop_
_atom_site_type_symbol
_atom_site_label
_atom_site_fract_x
_atom_site_fract_y
_atom_site_fract_z
Si Si1 0.010941 0.832878 0.642285
Si Si2 0.871634 0.442759 0.628144
Si Si3 0.849609 0.340844 0.187059
Si Si4 0.500000 0.000000 0.000000
O O1 0.116580 0.726350 0.655020
O O2 0.000000 0.824179 0.500000
O O3 0.916518 0.757674 0.720015
O O4 0.000000 0.000000 0.672982
O O5 0.830077 0.500000 0.500000
O O6 0.810426 0.525201 0.732649
O O7 0.000000 0.500000 0.631748
O O8 0.750000 0.250000 0.137199
O O9 0.926900 0.401639 0.085302
#
# Coordination Sequence:
#
# PCOD9322620 Si02
#       4
#     8   8   8   2
#     4  10  18  36  65  99 139 173 205 278 359 406
#     4   9  14  34  64  88 131 172 199 264 354 399
#     4  11  23  43  68  96 125 183 237 269 342 417
#     4  12  24  48  72  82 144 188 230 302 332 358
#
# _framework density 20.34722
#
# number of rings (size 3 to 8) (size 9 to 14) (size 15 to 20)
#    0.000    1.846   10.769    0.000    0.000    0.000 
#   11.077    1.538    0.000    0.000    0.000    0.000 
#    0.000    0.000    0.000    0.000    0.000    0.000 
#
# Total GULP energy -72391.184806 kJ/mol
# GULP energy per Si atom -5568.552677 kJ/mol
# Density = 2.030091 g / cm^3
# Si number density = 20.347220 Si / 1000 Ang^3
#
#
#
# Elastic Constant Matrix: (Units=GPa)
#
#
# Indices 1 2 3 4 5 6 
#
# 1 64.6894 45.3887 35.7834 0.0000 0.0000 0.0000
# 2 45.3887 195.0015 53.1937 0.0000 0.0000 0.0000
# 3 35.7834 53.1937 89.8462 0.0000 0.0000 0.0000
# 4 0.0000 0.0000 0.0000 -25.1866 0.0000 0.0000
# 5 0.0000 0.0000 0.0000 0.0000 -11.9440 0.0000
# 6 0.0000 0.0000 0.0000 0.0000 0.0000 20.7367
#
#
#
# Elastic Compliance Matrix: (Units=1/GPa)
#
#
# Indices 1 2 3 4 5 6 
#
# 1 0.021342 -0.003159 -0.006630 0.000000 0.000000 0.000000
# 2 -0.003159 0.006584 -0.002640 0.000000 0.000000 0.000000
# 3 -0.006630 -0.002640 0.015333 0.000000 0.000000 0.000000
# 4 0.000000 0.000000 0.000000 -0.039704 0.000000 0.000000
# 5 0.000000 0.000000 0.000000 0.000000 -0.083724 0.000000
# 6 0.000000 0.000000 0.000000 0.000000 0.000000 0.048224
#
#
# Mechanical properties :
#
#
# Convention : Reuss Voigt Hill
#
# Bulk Modulus (GPa) = 54.34100 68.69653 61.51877
# Shear Modulus (GPa) = -5240.88388 11.06598 -2614.90895
#
# Velocity S-wave (km/s) = -50.80666 2.33460 -35.88778
# Velocity P-wave (km/s) = 58.43792 6.41113 41.07242
#
# Compressibility (1/GPa) = 0.01840231
#
# Stress axis : x y z
#
# Youngs Moduli (GPa) = 46.85518 151.89388 65.21732
#
# Poissons Ratio (x) = 0.47986 0.43237
# Poissons Ratio (y) = 0.14802 0.17215
# Poissons Ratio (z) = 0.31064 0.40094
#
# Static dielectric constant tensor:
#      x y z
#    x 1.794880 0.000000 0.000000 
#    y 0.000000 1.848510 0.000000 
#    z 0.000000 0.000000 1.730800 
# 
# From -- ./inp_files/21732.got.cif
#   From: 2010.05.17/outbox.cif.g08.bks.cpg/sg21_11_cif.got.tgz:21732.got - 2010.06.03 23:14:55.
