data_PCOD9322774
_publ_section_title
;
Structure prediction by ZEFSAII (Michael W. Deem and Ramdas Pophale) SiO2 
 PCOD9322774
Probable space group: C 2 2 2
;
_chemical_formula_sum "Si O2"
_cell_formula_units_Z 40
_cell_length_a 13.612440
_cell_length_b 15.517865
_cell_length_c 9.003402
_cell_angle_alpha 90.000000
_cell_angle_beta 90.000000
_cell_angle_gamma 90.000000
_cell_volume 1901.842681
_symmetry_space_group_name_H-M "C 2 2 2"
_symmetry_group_IT_number 21
_symmetry_cell_setting 'orthorhombic'
loop_
_space_group_symop_operation_xyz
x,y,z
-x,-y,z
x,-y,-z
-x,y,-z
1/2+x,1/2+y,z
1/2-x,1/2-y,z
1/2+x,1/2-y,-z
1/2-x,1/2+y,-z
loop_
_atom_site_type_symbol
_atom_site_label
_atom_site_fract_x
_atom_site_fract_y
_atom_site_fract_z
Si Si1 0.435300 0.422940 0.260899
Si Si2 0.500000 0.291080 0.500000
Si Si3 0.262485 0.658991 0.882389
Si Si4 0.363210 0.860664 0.582219
Si Si5 0.000000 0.500000 0.261860
Si Si6 0.717612 0.500000 0.500000
Si Si7 0.351409 0.000000 0.000000
O O1 0.500000 0.500000 0.198196
O O2 0.496993 0.356319 0.361460
O O3 0.374173 0.365703 0.147954
O O4 0.353969 0.470508 0.367031
O O5 0.592201 0.225922 0.512653
O O6 0.250000 0.750000 0.959235
O O7 0.201975 0.663762 0.726312
O O8 0.214056 0.581401 0.967042
O O9 0.451509 0.922664 0.643406
O O10 0.292400 0.919337 0.479189
O O11 0.084939 0.524204 0.144784
#
# Coordination Sequence:
#
# PCOD9322774 Si02
#       7
#     8   4   8   8   4   4   4
#     4  11  21  37  55  80 124 160 186 225 294 359
#     4  12  19  33  54  90 118 162 180 231 285 358
#     4  10  20  38  60  84 109 153 199 249 290 348
#     4  10  20  30  56  84 116 146 191 233 286 349
#     4   9  18  39  56  84 108 147 188 251 296 344
#     4  10  19  33  52  80 120 160 180 223 283 360
#     4   9  20  38  67  76 110 152 199 250 314 323
#
# _framework density 21.032233999999999
#
# number of rings (size 3 to 8) (size 9 to 14) (size 15 to 20)
#    0.000    1.800    4.000    1.200    0.000    0.000 
#    0.000    2.500    4.400    0.000    0.000    0.000 
#    0.000    0.000    0.000    0.000    0.000    0.000 
#
# Total GULP energy -111642.920799 kJ/mol
# GULP energy per Si atom -5582.146040 kJ/mol
# Density = 2.098436 g / cm^3
# Si number density = 21.032234 Si / 1000 Ang^3
#
#
#
# Elastic Constant Matrix: (Units=GPa)
#
#
# Indices 1 2 3 4 5 6 
#
# 1 68.3631 58.6554 18.6074 0.0000 0.0000 0.0000
# 2 58.6554 163.5996 25.3597 0.0000 0.0000 0.0000
# 3 18.6074 25.3597 38.5526 0.0000 0.0000 0.0000
# 4 0.0000 0.0000 0.0000 11.6486 0.0000 0.0000
# 5 0.0000 0.0000 0.0000 0.0000 -0.7427 0.0000
# 6 0.0000 0.0000 0.0000 0.0000 0.0000 34.1110
#
#
#
# Elastic Compliance Matrix: (Units=1/GPa)
#
#
# Indices 1 2 3 4 5 6 
#
# 1 0.022362 -0.007065 -0.006146 0.000000 0.000000 0.000000
# 2 -0.007065 0.009038 -0.002536 0.000000 0.000000 0.000000
# 3 -0.006146 -0.002536 0.030573 0.000000 0.000000 0.000000
# 4 0.000000 0.000000 0.000000 0.085847 0.000000 0.000000
# 5 0.000000 0.000000 0.000000 0.000000 -1.346520 0.000000
# 6 0.000000 0.000000 0.000000 0.000000 0.000000 0.029316
#
#
# Mechanical properties :
#
#
# Convention : Reuss Voigt Hill
#
# Bulk Modulus (GPa) = 32.80753 52.86227 42.83490
# Shear Modulus (GPa) = -4.43368 20.19624 7.88128
#
# Velocity S-wave (km/s) = -1.45349 3.10215 1.93788
# Velocity P-wave (km/s) = 3.57991 6.16601 5.04160
#
# Compressibility (1/GPa) = 0.03048081
#
# Stress axis : x y z
#
# Youngs Moduli (GPa) = 44.71824 110.63783 32.70875
#
# Poissons Ratio (x) = 0.78164 0.20102
# Poissons Ratio (y) = 0.31593 0.08294
# Poissons Ratio (z) = 0.27483 0.28054
#
# Static dielectric constant tensor:
#      x y z
#    x 1.793130 0.000000 0.000000 
#    y 0.000000 1.742920 0.000000 
#    z 0.000000 0.000000 1.923220 
# 
# From -- ./inp_files/25110.got.cif
#   From: 2010.05.17/outbox.cif.g08.bks.cpg/sg21_13_cif.got.tgz:25110.got - 2010.06.03 23:14:55.
