data_PCOD9322805
_publ_section_title
;
Structure prediction by ZEFSAII (Michael W. Deem and Ramdas Pophale) SiO2 
 PCOD9322805
Probable space group: C 2 2 2
;
_chemical_formula_sum "Si O2"
_cell_formula_units_Z 64
_cell_length_a 17.005339
_cell_length_b 9.009815
_cell_length_c 22.142109
_cell_angle_alpha 90.000000
_cell_angle_beta 90.000000
_cell_angle_gamma 90.000000
_cell_volume 3392.502309
_symmetry_space_group_name_H-M "C 2 2 2"
_symmetry_group_IT_number 21
_symmetry_cell_setting 'orthorhombic'
loop_
_space_group_symop_operation_xyz
x,y,z
-x,-y,z
x,-y,-z
-x,y,-z
1/2+x,1/2+y,z
1/2-x,1/2-y,z
1/2+x,1/2-y,-z
1/2-x,1/2+y,-z
loop_
_atom_site_type_symbol
_atom_site_label
_atom_site_fract_x
_atom_site_fract_y
_atom_site_fract_z
Si Si1 0.671975 0.172899 0.005021
Si Si2 0.607035 0.647751 0.246333
Si Si3 0.336878 0.798981 0.632814
Si Si4 0.490388 0.670769 0.571840
Si Si5 0.082064 0.805447 0.242920
Si Si6 0.390292 0.350118 0.108402
Si Si7 0.580181 0.906044 0.651236
Si Si8 0.078235 0.188508 0.894150
O O1 0.750000 0.250000 0.029460
O O2 0.604095 0.204292 0.053067
O O3 0.651325 0.250431 0.941426
O O4 0.685102 0.000000 0.000000
O O5 0.648028 0.740830 0.298725
O O6 0.614556 0.470348 0.256086
O O7 0.513187 0.681368 0.248704
O O8 0.634105 0.679510 0.177722
O O9 0.250000 0.750000 0.614516
O O10 0.404371 0.723409 0.592424
O O11 0.355703 0.974329 0.630476
O O12 0.500000 0.500000 0.591949
O O13 0.500000 0.678356 0.500000
O O14 0.552560 0.781378 0.603448
O O15 0.107853 0.681663 0.289784
O O16 0.100824 0.766000 0.173752
O O17 0.484141 0.324619 0.105441
O O18 0.383746 0.525922 0.095016
O O19 0.500000 0.000000 0.664435
#
# Coordination Sequence:
#
# PCOD9322805 Si02
#       8
#     8   8   8   8   8   8   8   8
#     4  12  25  39  53  73 104 148 190 240 302 361
#     4   9  17  33  59  85 117 150 190 238 290 359
#     4  11  23  37  56  92 134 159 193 256 307 341
#     4  10  21  41  67  90 115 163 216 246 290 362
#     4   9  16  33  59  86 108 152 202 237 278 350
#     4   9  19  36  60  83 108 147 186 236 293 350
#     4  10  19  33  59  89 120 161 199 236 291 346
#     4   9  19  36  58  83 109 140 192 243 287 341
#
# _framework density 18.865129
#
# number of rings (size 3 to 8) (size 9 to 14) (size 15 to 20)
#    0.000    2.125    2.500    3.750    0.000    5.750 
#    0.000    7.500    0.000    0.000    0.000    0.000 
#    0.000    0.000    0.000    0.000    0.000    0.000 
#
# Total GULP energy -178615.207886 kJ/mol
# GULP energy per Si atom -5581.725246 kJ/mol
# Density = 1.882219 g / cm^3
# Si number density = 18.865129 Si / 1000 Ang^3
#
#
#
# Elastic Constant Matrix: (Units=GPa)
#
#
# Indices 1 2 3 4 5 6 
#
# 1 57.1185 35.8728 24.6110 0.0000 0.0000 0.0000
# 2 35.8728 118.6343 47.8266 0.0000 0.0000 0.0000
# 3 24.6110 47.8266 67.5313 0.0000 0.0000 0.0000
# 4 0.0000 0.0000 0.0000 -24.4842 0.0000 0.0000
# 5 0.0000 0.0000 0.0000 0.0000 6.1664 0.0000
# 6 0.0000 0.0000 0.0000 0.0000 0.0000 23.7665
#
#
#
# Elastic Compliance Matrix: (Units=1/GPa)
#
#
# Indices 1 2 3 4 5 6 
#
# 1 0.022657 -0.004930 -0.004766 0.000000 0.000000 0.000000
# 2 -0.004930 0.012870 -0.007318 0.000000 0.000000 0.000000
# 3 -0.004766 -0.007318 0.021728 0.000000 0.000000 0.000000
# 4 0.000000 0.000000 0.000000 -0.040843 0.000000 0.000000
# 5 0.000000 0.000000 0.000000 0.000000 0.162168 0.000000
# 6 0.000000 0.000000 0.000000 0.000000 0.000000 0.042076
#
#
# Mechanical properties :
#
#
# Convention : Reuss Voigt Hill
#
# Bulk Modulus (GPa) = 43.05274 51.10052 47.07663
# Shear Modulus (GPa) = 19.05294 10.08800 14.57047
#
# Velocity S-wave (km/s) = 3.18143 2.31496 2.78213
# Velocity P-wave (km/s) = 6.03044 5.85589 5.94381
#
# Compressibility (1/GPa) = 0.02322733
#
# Stress axis : x y z
#
# Youngs Moduli (GPa) = 44.13649 77.69854 46.02424
#
# Poissons Ratio (x) = 0.38304 0.21934
# Poissons Ratio (y) = 0.21758 0.33682
# Poissons Ratio (z) = 0.21034 0.56862
#
# Static dielectric constant tensor:
#      x y z
#    x 1.647360 0.000000 0.000000 
#    y 0.000000 1.654620 0.000000 
#    z 0.000000 0.000000 1.656170 
# 
# From -- ./inp_files/37707.got.cif
#   From: 2010.05.17/outbox.cif.g08.bks.cpg/sg21_19_cif.got.tgz:37707.got - 2010.06.03 23:14:55.
