data_PCOD9322625
_publ_section_title
;
Structure prediction by ZEFSAII (Michael W. Deem and Ramdas Pophale) SiO2 
 PCOD9322625
Probable space group: C 2 2 2
;
_chemical_formula_sum "Si O2"
_cell_formula_units_Z 36
_cell_length_a 19.617559
_cell_length_b 12.626405
_cell_length_c 6.002733
_cell_angle_alpha 90.000000
_cell_angle_beta 90.000000
_cell_angle_gamma 90.000000
_cell_volume 1486.872432
_symmetry_space_group_name_H-M "C 2 2 2"
_symmetry_group_IT_number 21
_symmetry_cell_setting 'orthorhombic'
loop_
_space_group_symop_operation_xyz
x,y,z
-x,-y,z
x,-y,-z
-x,y,-z
1/2+x,1/2+y,z
1/2-x,1/2-y,z
1/2+x,1/2-y,-z
1/2-x,1/2+y,-z
loop_
_atom_site_type_symbol
_atom_site_label
_atom_site_fract_x
_atom_site_fract_y
_atom_site_fract_z
Si Si1 0.000000 0.500000 0.500000
Si Si2 0.221876 0.500000 0.500000
Si Si3 0.441562 0.677068 0.189791
Si Si4 0.500000 0.500000 0.500000
Si Si5 0.898500 0.661383 0.461495
Si Si6 0.670747 0.232704 0.933616
Si Si7 0.285157 0.000000 0.000000
O O1 0.052039 0.428075 0.362915
O O2 0.171863 0.398265 0.516962
O O3 0.252223 0.495332 0.245863
O O4 0.456088 0.576221 0.341596
O O5 0.439261 0.782266 0.342212
O O6 0.500000 0.682064 0.000000
O O7 0.364430 0.685167 0.098885
O O8 0.874696 0.746959 0.285261
O O9 0.750000 0.250000 0.901272
O O10 0.669225 0.107563 0.997391
#
# Coordination Sequence:
#
# PCOD9322625 Si02
#       7
#     2   4   8   2   8   8   4
#     4  10  18  36  70 104 144 182 240 300 404 462
#     4   9  18  37  69  98 152 189 240 308 386 465
#     4  12  25  49  75 108 148 202 266 328 389 470
#     4  12  28  48  74 106 152 206 280 326 384 448
#     4  10  21  40  67 108 146 192 240 319 388 467
#     4  11  25  47  73 109 158 202 261 323 403 478
#     4  10  20  44  67 108 151 200 256 314 394 474
#
# _framework density 24.211894999999998
#
# number of rings (size 3 to 8) (size 9 to 14) (size 15 to 20)
#    0.000    1.333    2.222    3.667    0.000    0.889 
#    8.000    0.000    0.000    1.333    0.000    0.000 
#    0.000    0.000    0.000    0.000    0.000    0.000 
#
# Total GULP energy -100286.612873 kJ/mol
# GULP energy per Si atom -5571.478493 kJ/mol
# Density = 2.415679 g / cm^3
# Si number density = 24.211895 Si / 1000 Ang^3
#
#
#
# Elastic Constant Matrix: (Units=GPa)
#
#
# Indices 1 2 3 4 5 6 
#
# 1 116.5263 37.9837 48.1760 0.0000 0.0000 0.0000
# 2 37.9837 108.9451 38.9827 0.0000 0.0000 0.0000
# 3 48.1760 38.9827 159.2184 0.0000 0.0000 0.0000
# 4 0.0000 0.0000 0.0000 38.1164 0.0000 0.0000
# 5 0.0000 0.0000 0.0000 0.0000 -2.5502 0.0000
# 6 0.0000 0.0000 0.0000 0.0000 0.0000 17.7119
#
#
#
# Elastic Compliance Matrix: (Units=1/GPa)
#
#
# Indices 1 2 3 4 5 6 
#
# 1 0.010521 -0.002772 -0.002505 0.000000 0.000000 0.000000
# 2 -0.002772 0.010791 -0.001803 0.000000 0.000000 0.000000
# 3 -0.002505 -0.001803 0.007480 0.000000 0.000000 0.000000
# 4 0.000000 0.000000 0.000000 0.026235 0.000000 0.000000
# 5 0.000000 0.000000 0.000000 0.000000 -0.392119 0.000000
# 6 0.000000 0.000000 0.000000 0.000000 0.000000 0.056459
#
#
# Mechanical properties :
#
#
# Convention : Reuss Voigt Hill
#
# Bulk Modulus (GPa) = 68.34408 70.55272 69.44840
# Shear Modulus (GPa) = -19.11343 27.95877 4.42267
#
# Velocity S-wave (km/s) = -2.81272 3.40185 1.35300
# Velocity P-wave (km/s) = 4.21192 6.68080 5.58450
#
# Compressibility (1/GPa) = 0.01463184
#
# Stress axis : x y z
#
# Youngs Moduli (GPa) = 95.04970 92.67345 133.68883
#
# Poissons Ratio (x) = 0.25688 0.33485
# Poissons Ratio (y) = 0.26346 0.24107
# Poissons Ratio (z) = 0.23807 0.16711
#
# Static dielectric constant tensor:
#      x y z
#    x 1.902700 0.000000 0.000000 
#    y 0.000000 1.979670 0.000000 
#    z 0.000000 0.000000 2.152550 
# 
# From -- ./inp_files/6547.got.cif
#   From: 2010.05.17/outbox.cif.g08.bks.cpg/sg21_4_cif.got.tgz:6547.got - 2010.06.03 23:14:55.
