data_PCOD9322387
_publ_section_title
;
Structure prediction by ZEFSAII (Michael W. Deem and Ramdas Pophale) SiO2 
 PCOD9322387
Probable space group: C 2 2 2
;
_chemical_formula_sum "Si O2"
_cell_formula_units_Z 38
_cell_length_a 14.178874
_cell_length_b 16.109924
_cell_length_c 10.443146
_cell_angle_alpha 90.000000
_cell_angle_beta 90.000000
_cell_angle_gamma 90.000000
_cell_volume 2385.429493
_symmetry_space_group_name_H-M "C 2 2 2"
_symmetry_group_IT_number 21
_symmetry_cell_setting 'orthorhombic'
loop_
_space_group_symop_operation_xyz
x,y,z
-x,-y,z
x,-y,-z
-x,y,-z
1/2+x,1/2+y,z
1/2-x,1/2-y,z
1/2+x,1/2-y,-z
1/2-x,1/2+y,-z
loop_
_atom_site_type_symbol
_atom_site_label
_atom_site_fract_x
_atom_site_fract_y
_atom_site_fract_z
Si Si1 0.057344 0.920939 0.752051
Si Si2 0.750000 0.750000 0.578583
Si Si3 0.463295 0.257348 0.648350
Si Si4 0.742629 0.418390 0.586814
Si Si5 0.959087 0.583815 0.353134
Si Si6 0.000000 0.000000 0.000000
O O1 0.159266 0.914644 0.689127
O O2 0.999509 0.837906 0.722341
O O3 0.000000 0.000000 0.694682
O O4 0.059615 0.943294 0.902589
O O5 0.649788 0.752104 0.650650
O O6 0.743023 0.666355 0.494712
O O7 0.500000 0.266967 0.500000
O O8 0.508515 0.172190 0.700332
O O9 0.728058 0.500000 0.500000
O O10 0.847168 0.423795 0.643835
O O11 0.000000 0.500000 0.292821
O O12 0.000000 0.585645 0.500000
#
# Coordination Sequence:
#
# PCOD9322387 Si02
#       6
#     8   4   8   8   8   2
#     4  10  22  36  54  74 105 144 189 241 268 310
#     4  12  20  28  46  86 122 136 172 200 282 372
#     4  11  19  31  50  81 118 141 167 215 283 344
#     4  12  19  28  53  83 112 143 173 211 281 349
#     4  10  17  31  45  78 122 148 159 197 263 352
#     4   8  24  44  50  72 104 148 208 242 264 292
#
# _framework density 15.930045
#
# number of rings (size 3 to 8) (size 9 to 14) (size 15 to 20)
#    0.632    0.632    8.421    1.263    0.000    0.000 
#    0.000    0.000    0.000    3.789    0.000    0.000 
#    0.000    0.000    0.000    0.000    0.000    0.000 
#
# Total GULP energy -105813.936724 kJ/mol
# GULP energy per Si atom -5569.154564 kJ/mol
# Density = 1.589379 g / cm^3
# Si number density = 15.930045 Si / 1000 Ang^3
#
#
#
# Elastic Constant Matrix: (Units=GPa)
#
#
# Indices 1 2 3 4 5 6 
#
# 1 161.1021 46.6274 49.2025 0.0000 0.0000 0.0000
# 2 46.6274 164.4862 47.3226 0.0000 0.0000 0.0000
# 3 49.2025 47.3226 49.5647 0.0000 0.0000 0.0000
# 4 0.0000 0.0000 0.0000 -0.3392 0.0000 0.0000
# 5 0.0000 0.0000 0.0000 0.0000 5.3036 0.0000
# 6 0.0000 0.0000 0.0000 0.0000 0.0000 31.2232
#
#
#
# Elastic Compliance Matrix: (Units=1/GPa)
#
#
# Indices 1 2 3 4 5 6 
#
# 1 0.008908 0.000026 -0.008868 0.000000 0.000000 0.000000
# 2 0.000026 0.008382 -0.008029 0.000000 0.000000 0.000000
# 3 -0.008868 -0.008029 0.036644 0.000000 0.000000 0.000000
# 4 0.000000 0.000000 0.000000 -2.948043 0.000000 0.000000
# 5 0.000000 0.000000 0.000000 0.000000 0.188553 0.000000
# 6 0.000000 0.000000 0.000000 0.000000 0.000000 0.032028
#
#
# Mechanical properties :
#
#
# Convention : Reuss Voigt Hill
#
# Bulk Modulus (GPa) = 49.52142 73.49534 61.50838
# Shear Modulus (GPa) = -1.89893 22.70420 10.40263
#
# Velocity S-wave (km/s) = -1.09299 3.77934 2.55820
# Velocity P-wave (km/s) = 5.43704 8.07966 6.88631
#
# Compressibility (1/GPa) = 0.02019328
#
# Stress axis : x y z
#
# Youngs Moduli (GPa) = 112.25813 119.30314 27.28942
#
# Poissons Ratio (x) = -0.00311 0.24200
# Poissons Ratio (y) = -0.00293 0.21910
# Poissons Ratio (z) = 0.99549 0.95785
#
# Static dielectric constant tensor:
#      x y z
#    x 1.550480 0.000000 0.000000 
#    y 0.000000 1.553830 0.000000 
#    z 0.000000 0.000000 1.514680 
# 
# From -- ./inp_files/25093.got.cif
#   From: 2010.05.17/outbox.cif.g08.bks.cpg/sg21_13_cif.got.tgz:25093.got - 2010.06.03 23:14:55.
