data_PCOD9322537
_publ_section_title
;
Structure prediction by ZEFSAII (Michael W. Deem and Ramdas Pophale) SiO2 
 PCOD9322537
Probable space group: C 2 2 2
;
_chemical_formula_sum "Si O2"
_cell_formula_units_Z 56
_cell_length_a 20.341640
_cell_length_b 15.248660
_cell_length_c 7.447606
_cell_angle_alpha 90.000000
_cell_angle_beta 90.000000
_cell_angle_gamma 90.000000
_cell_volume 2310.118926
_symmetry_space_group_name_H-M "C 2 2 2"
_symmetry_group_IT_number 21
_symmetry_cell_setting 'orthorhombic'
loop_
_space_group_symop_operation_xyz
x,y,z
-x,-y,z
x,-y,-z
-x,y,-z
1/2+x,1/2+y,z
1/2-x,1/2-y,z
1/2+x,1/2-y,-z
1/2-x,1/2+y,-z
loop_
_atom_site_type_symbol
_atom_site_label
_atom_site_fract_x
_atom_site_fract_y
_atom_site_fract_z
Si Si1 0.268619 0.345836 0.791936
Si Si2 0.514116 0.778666 0.788958
Si Si3 0.897134 0.405919 0.714502
Si Si4 0.761682 0.658183 0.196376
Si Si5 0.026968 0.089184 0.207940
Si Si6 0.829327 0.013730 0.787491
Si Si7 0.372395 0.098163 0.703889
O O1 0.250000 0.250000 0.715292
O O2 0.324989 0.412366 0.720141
O O3 0.201294 0.399814 0.773241
O O4 0.276628 0.331295 0.006265
O O5 0.463313 0.850417 0.715438
O O6 0.497406 0.681878 0.717161
O O7 0.586676 0.816071 0.759275
O O8 0.500000 0.775691 0.000000
O O9 0.838683 0.361529 0.828169
O O10 0.905941 0.507407 0.767108
O O11 0.871709 0.403583 0.510855
O O12 0.750000 0.750000 0.293786
O O13 0.728047 0.575006 0.289509
O O14 0.104436 0.070524 0.220826
O O15 0.000000 0.000000 0.292144
O O16 0.000000 0.089431 0.000000
O O17 0.816904 0.000000 0.000000
#
# Coordination Sequence:
#
# PCOD9322537 Si02
#       7
#     8   8   8   8   8   8   8
#     4  10  22  36  60  94 126 158 210 264 318 370
#     4  11  24  38  65  95 126 163 215 268 317 379
#     4  11  23  42  61  89 126 170 213 258 327 390
#     4  10  20  35  61  89 125 158 210 260 314 373
#     4  10  20  36  60  94 129 160 203 252 322 376
#     4  10  18  33  57  88 125 163 193 251 308 370
#     4  11  24  41  62  89 128 169 210 264 323 389
#
# _framework density 24.241175999999999
#
# number of rings (size 3 to 8) (size 9 to 14) (size 15 to 20)
#    0.000    1.571    2.857    2.571    2.000    6.286 
#    0.000    0.000    0.000    1.714    0.000    0.000 
#    0.000    0.000    0.000    0.000    0.000    0.000 
#
# Total GULP energy -156335.404438 kJ/mol
# GULP energy per Si atom -5583.407301 kJ/mol
# Density = 2.418600 g / cm^3
# Si number density = 24.241176 Si / 1000 Ang^3
#
#
#
# Elastic Constant Matrix: (Units=GPa)
#
#
# Indices 1 2 3 4 5 6 
#
# 1 89.2785 36.5123 -13.3716 0.0000 0.0000 0.0000
# 2 36.5123 208.2420 -6.1101 0.0000 0.0000 0.0000
# 3 -13.3716 -6.1101 62.6106 0.0000 0.0000 0.0000
# 4 0.0000 0.0000 0.0000 5.4443 0.0000 0.0000
# 5 0.0000 0.0000 0.0000 0.0000 -1.3981 0.0000
# 6 0.0000 0.0000 0.0000 0.0000 0.0000 51.5134
#
#
#
# Elastic Compliance Matrix: (Units=1/GPa)
#
#
# Indices 1 2 3 4 5 6 
#
# 1 0.012430 -0.002107 0.002449 0.000000 0.000000 0.000000
# 2 -0.002107 0.005173 0.000055 0.000000 0.000000 0.000000
# 3 0.002449 0.000055 0.016500 0.000000 0.000000 0.000000
# 4 0.000000 0.000000 0.000000 0.183679 0.000000 0.000000
# 5 0.000000 0.000000 0.000000 0.000000 -0.715245 0.000000
# 6 0.000000 0.000000 0.000000 0.000000 0.000000 0.019412
#
#
# Mechanical properties :
#
#
# Convention : Reuss Voigt Hill
#
# Bulk Modulus (GPa) = 28.65725 43.79915 36.22820
# Shear Modulus (GPa) = -10.70179 33.98529 11.64175
#
# Velocity S-wave (km/s) = -2.10340 3.74834 2.19383
# Velocity P-wave (km/s) = 2.43892 6.06966 4.62542
#
# Compressibility (1/GPa) = 0.03489518
#
# Stress axis : x y z
#
# Youngs Moduli (GPa) = 80.45321 193.30273 60.60576
#
# Poissons Ratio (x) = 0.40739 -0.14842
# Poissons Ratio (y) = 0.16956 -0.00332
# Poissons Ratio (z) = -0.19702 -0.01059
#
# Static dielectric constant tensor:
#      x y z
#    x 1.933130 0.000000 0.000000 
#    y 0.000000 2.044280 0.000000 
#    z 0.000000 0.000000 1.937070 
# 
# From -- ./inp_files/17670.got.cif
#   From: 2010.05.17/outbox.cif.g08.bks.cpg/sg21_9_cif.got.tgz:17670.got - 2010.06.03 23:14:55.
