data_PCOD9322362
_publ_section_title
;
Structure prediction by ZEFSAII (Michael W. Deem and Ramdas Pophale) SiO2 
 PCOD9322362
Probable space group: C 2 2 2
;
_chemical_formula_sum "Si O2"
_cell_formula_units_Z 28
_cell_length_a 5.336437
_cell_length_b 29.509594
_cell_length_c 7.071579
_cell_angle_alpha 90.000000
_cell_angle_beta 90.000000
_cell_angle_gamma 90.000000
_cell_volume 1113.604606
_symmetry_space_group_name_H-M "C 2 2 2"
_symmetry_group_IT_number 21
_symmetry_cell_setting 'orthorhombic'
loop_
_space_group_symop_operation_xyz
x,y,z
-x,-y,z
x,-y,-z
-x,y,-z
1/2+x,1/2+y,z
1/2-x,1/2-y,z
1/2+x,1/2-y,-z
1/2-x,1/2+y,-z
loop_
_atom_site_type_symbol
_atom_site_label
_atom_site_fract_x
_atom_site_fract_y
_atom_site_fract_z
Si Si1 0.752611 0.980210 0.714323
Si Si2 0.429903 0.156761 0.280273
Si Si3 0.250000 0.250000 0.124160
Si Si4 0.572309 0.622163 0.715647
O O1 0.794723 0.926643 0.709475
O O2 0.500000 0.000000 0.797750
O O3 0.750944 0.000000 0.500000
O O4 0.000000 0.000000 0.804374
O O5 0.500000 0.147770 0.500000
O O6 0.313480 0.206068 0.249512
O O7 0.211550 0.122983 0.204182
O O8 0.710853 0.153437 0.194434
O O9 0.500000 0.257772 0.000000
O O10 0.500000 0.635997 0.500000
#
# Coordination Sequence:
#
# PCOD9322362 Si02
#       4
#     8   8   4   8
#     4  10  17  24  43  72 120 165 193 225 302 367
#     4  10  23  38  62  87 123 161 205 256 327 373
#     4  12  26  46  68  92 124 166 224 270 318 390
#     4  10  18  32  50  83 121 166 193 246 303 383
#
# _framework density 25.143574000000001
#
# number of rings (size 3 to 8) (size 9 to 14) (size 15 to 20)
#    0.000    1.714    2.857    3.429    8.000    4.571 
#    0.000    0.000    0.000    0.000    0.000    0.000 
#    0.000   80.000    0.000    0.000    0.000    0.000 
#
# Total GULP energy -78138.663460 kJ/mol
# GULP energy per Si atom -5581.333104 kJ/mol
# Density = 2.508635 g / cm^3
# Si number density = 25.143574 Si / 1000 Ang^3
#
#
#
# Elastic Constant Matrix: (Units=GPa)
#
#
# Indices 1 2 3 4 5 6 
#
# 1 319.5988 77.2912 29.4436 0.0000 0.0000 0.0000
# 2 77.2912 145.8678 1.5652 0.0000 0.0000 0.0000
# 3 29.4436 1.5652 87.2797 0.0000 0.0000 0.0000
# 4 0.0000 0.0000 0.0000 -41.7058 0.0000 0.0000
# 5 0.0000 0.0000 0.0000 0.0000 -5.9105 0.0000
# 6 0.0000 0.0000 0.0000 0.0000 0.0000 55.2356
#
#
#
# Elastic Compliance Matrix: (Units=1/GPa)
#
#
# Indices 1 2 3 4 5 6 
#
# 1 0.003714 -0.001955 -0.001218 0.000000 0.000000 0.000000
# 2 -0.001955 0.007886 0.000518 0.000000 0.000000 0.000000
# 3 -0.001218 0.000518 0.011859 0.000000 0.000000 0.000000
# 4 0.000000 0.000000 0.000000 -0.023977 0.000000 0.000000
# 5 0.000000 0.000000 0.000000 0.000000 -0.169192 0.000000
# 6 0.000000 0.000000 0.000000 0.000000 0.000000 0.018104
#
#
# Mechanical properties :
#
#
# Convention : Reuss Voigt Hill
#
# Bulk Modulus (GPa) = 55.09818 85.48291 70.29055
# Shear Modulus (GPa) = -35.65130 31.15363 -2.24883
#
# Velocity S-wave (km/s) = -3.76960 3.52380 -0.94675
# Velocity P-wave (km/s) = 1.73623 7.11533 5.17892
#
# Compressibility (1/GPa) = 0.01814942
#
# Stress axis : x y z
#
# Youngs Moduli (GPa) = 269.26151 126.81087 84.32448
#
# Poissons Ratio (x) = 0.24789 0.10269
# Poissons Ratio (y) = 0.52635 -0.04368
# Poissons Ratio (z) = 0.32791 -0.06569
#
# Static dielectric constant tensor:
#      x y z
#    x 2.141520 0.000000 0.000000 
#    y 0.000000 1.998190 0.000000 
#    z 0.000000 0.000000 2.018900 
# 
# From -- ./inp_files/8973.got.cif
#   From: 2010.05.17/outbox.cif.g08.bks.cpg/sg21_5_cif.got.tgz:8973.got - 2010.06.03 23:14:55.
