data_PCOD9322878
_publ_section_title
;
Structure prediction by ZEFSAII (Michael W. Deem and Ramdas Pophale) SiO2 
 PCOD9322878
Probable space group: C 2 2 2
;
_chemical_formula_sum "Si O2"
_cell_formula_units_Z 48
_cell_length_a 30.294774
_cell_length_b 5.517289
_cell_length_c 16.099154
_cell_angle_alpha 90.000000
_cell_angle_beta 90.000000
_cell_angle_gamma 90.000000
_cell_volume 2690.893471
_symmetry_space_group_name_H-M "C 2 2 2"
_symmetry_group_IT_number 21
_symmetry_cell_setting 'orthorhombic'
loop_
_space_group_symop_operation_xyz
x,y,z
-x,-y,z
x,-y,-z
-x,y,-z
1/2+x,1/2+y,z
1/2-x,1/2-y,z
1/2+x,1/2-y,-z
1/2-x,1/2+y,-z
loop_
_atom_site_type_symbol
_atom_site_label
_atom_site_fract_x
_atom_site_fract_y
_atom_site_fract_z
Si Si1 0.597448 0.495480 0.345837
Si Si2 0.946981 0.497575 0.598563
Si Si3 0.783554 0.500000 0.500000
Si Si4 0.750000 0.250000 0.351098
Si Si5 0.794583 0.634469 0.924191
Si Si6 0.750000 0.750000 0.196677
Si Si7 0.663083 0.500000 0.500000
Si Si8 0.176873 0.094307 0.765994
O O1 0.571411 0.750964 0.357680
O O2 0.632977 0.496216 0.419112
O O3 0.627891 0.462702 0.264084
O O4 0.569545 0.249089 0.360251
O O5 0.933935 0.500000 0.500000
O O6 0.000000 0.500000 0.601464
O O7 0.754734 0.470270 0.416336
O O8 0.812464 0.741318 0.497928
O O9 0.794073 0.268214 0.294653
O O10 0.750000 0.750000 0.962485
O O11 0.773500 0.445342 0.860849
O O12 0.820168 0.815876 0.861969
O O13 0.818853 0.500000 0.000000
O O14 0.709473 0.633596 0.244435
#
# Coordination Sequence:
#
# PCOD9322878 Si02
#       8
#     8   8   4   4   8   4   4   8
#     4  12  24  39  58  86 117 152 201 252 306 355
#     4  11  23  42  65  86 111 150 200 254 311 369
#     4  12  27  38  48  72 110 168 214 262 278 330
#     4  12  24  38  48  74 110 160 222 242 290 322
#     4  10  19  35  56  83 108 155 207 250 305 350
#     4  10  20  34  54  78 114 158 196 244 282 344
#     4  12  23  38  55  76 109 154 209 248 301 334
#     4  11  25  34  54  81 115 161 202 251 295 354
#
# _framework density 17.837942999999999
#
# number of rings (size 3 to 8) (size 9 to 14) (size 15 to 20)
#    0.000    0.833    6.667    2.000    4.667    1.333 
#    0.000    0.000    0.000    0.000    0.000    0.000 
#    0.000    0.667    1.000    0.000    0.000    0.000 
#
# Total GULP energy -133703.810551 kJ/mol
# GULP energy per Si atom -5570.992106 kJ/mol
# Density = 1.779734 g / cm^3
# Si number density = 17.837943 Si / 1000 Ang^3
#
#
#
# Elastic Constant Matrix: (Units=GPa)
#
#
# Indices 1 2 3 4 5 6 
#
# 1 82.0194 54.8363 34.9268 0.0000 0.0000 0.0000
# 2 54.8363 135.1401 29.0282 0.0000 0.0000 0.0000
# 3 34.9268 29.0282 81.7726 0.0000 0.0000 0.0000
# 4 0.0000 0.0000 0.0000 31.2395 0.0000 0.0000
# 5 0.0000 0.0000 0.0000 0.0000 17.0211 0.0000
# 6 0.0000 0.0000 0.0000 0.0000 0.0000 37.0231
#
#
#
# Elastic Compliance Matrix: (Units=1/GPa)
#
#
# Indices 1 2 3 4 5 6 
#
# 1 0.018984 -0.006454 -0.005818 0.000000 0.000000 0.000000
# 2 -0.006454 0.010204 -0.000866 0.000000 0.000000 0.000000
# 3 -0.005818 -0.000866 0.015021 0.000000 0.000000 0.000000
# 4 0.000000 0.000000 0.000000 0.032011 0.000000 0.000000
# 5 0.000000 0.000000 0.000000 0.000000 0.058751 0.000000
# 6 0.000000 0.000000 0.000000 0.000000 0.000000 0.027010
#
#
# Mechanical properties :
#
#
# Convention : Reuss Voigt Hill
#
# Bulk Modulus (GPa) = 55.75521 59.61271 57.68396
# Shear Modulus (GPa) = 25.74201 29.06612 27.40406
#
# Velocity S-wave (km/s) = 3.80294 4.04103 3.92379
# Velocity P-wave (km/s) = 7.11390 7.43403 7.27573
#
# Compressibility (1/GPa) = 0.01793554
#
# Stress axis : x y z
#
# Youngs Moduli (GPa) = 52.67476 97.99615 66.57224
#
# Poissons Ratio (x) = 0.63244 0.38729
# Poissons Ratio (y) = 0.33995 0.05765
# Poissons Ratio (z) = 0.30644 0.08486
#
# Static dielectric constant tensor:
#      x y z
#    x 1.620950 0.000000 0.000000 
#    y 0.000000 1.768890 0.000000 
#    z 0.000000 0.000000 1.730270 
# 
# From -- ./inp_files/34011.got.cif
#   From: 2010.05.17/outbox.cif.g08.bks.cpg/sg21_18_cif.got.tgz:34011.got - 2010.06.03 23:14:55.
