data_PCOD9322597
_publ_section_title
;
Structure prediction by ZEFSAII (Michael W. Deem and Ramdas Pophale) SiO2 
 PCOD9322597
Probable space group: C 2 2 2
;
_chemical_formula_sum "Si O2"
_cell_formula_units_Z 44
_cell_length_a 8.252689
_cell_length_b 21.268363
_cell_length_c 9.615785
_cell_angle_alpha 90.000000
_cell_angle_beta 90.000000
_cell_angle_gamma 90.000000
_cell_volume 1687.773982
_symmetry_space_group_name_H-M "C 2 2 2"
_symmetry_group_IT_number 21
_symmetry_cell_setting 'orthorhombic'
loop_
_space_group_symop_operation_xyz
x,y,z
-x,-y,z
x,-y,-z
-x,y,-z
1/2+x,1/2+y,z
1/2-x,1/2-y,z
1/2+x,1/2-y,-z
1/2-x,1/2+y,-z
loop_
_atom_site_type_symbol
_atom_site_label
_atom_site_fract_x
_atom_site_fract_y
_atom_site_fract_z
Si Si1 0.446430 0.900778 0.355164
Si Si2 0.769456 0.896278 0.219521
Si Si3 0.500000 0.500000 0.228923
Si Si4 0.046356 0.796321 0.143806
Si Si5 0.241702 0.414187 0.907996
Si Si6 0.161601 0.195250 0.569549
O O1 0.500000 0.932550 0.500000
O O2 0.615870 0.871261 0.302938
O O3 0.383458 0.932654 0.213061
O O4 0.292596 0.857532 0.394991
O O5 0.895883 0.841611 0.182359
O O6 0.707629 0.922749 0.069998
O O7 0.868510 0.952702 0.297483
O O8 0.398981 0.546914 0.133964
O O9 0.200189 0.841448 0.108121
O O10 0.093883 0.768559 0.291950
O O11 0.000000 0.761516 0.000000
O O12 0.250000 0.250000 0.484394
O O13 0.000000 0.168600 0.500000
#
# Coordination Sequence:
#
# PCOD9322597 Si02
#       6
#     8   8   4   8   8   8
#     4  11  23  38  56  83 117 155 196 245 305 360
#     4  10  18  35  61  87 115 152 199 244 293 352
#     4  10  19  36  63  88 115 160 211 250 289 350
#     4   8  17  35  58  84 115 148 183 234 302 361
#     4   9  18  34  58  85 114 153 199 245 290 348
#     4  11  23  41  62  85 112 150 200 249 302 373
#
# _framework density 26.069841
#
# number of rings (size 3 to 8) (size 9 to 14) (size 15 to 20)
#    0.000    2.182    0.000    4.909    0.000    0.727 
#    0.000   10.909    0.000    0.000    0.000    0.000 
#    0.000    0.000    0.000    0.000    0.000    0.000 
#
# Total GULP energy -122657.546479 kJ/mol
# GULP energy per Si atom -5575.343022 kJ/mol
# Density = 2.601050 g / cm^3
# Si number density = 26.069841 Si / 1000 Ang^3
#
#
#
# Elastic Constant Matrix: (Units=GPa)
#
#
# Indices 1 2 3 4 5 6 
#
# 1 174.2995 40.4042 61.4662 0.0000 0.0000 0.0000
# 2 40.4042 38.3602 7.2101 0.0000 0.0000 0.0000
# 3 61.4662 7.2101 111.5251 0.0000 0.0000 0.0000
# 4 0.0000 0.0000 0.0000 8.7727 0.0000 0.0000
# 5 0.0000 0.0000 0.0000 0.0000 57.1045 0.0000
# 6 0.0000 0.0000 0.0000 0.0000 0.0000 29.5114
#
#
#
# Elastic Compliance Matrix: (Units=1/GPa)
#
#
# Indices 1 2 3 4 5 6 
#
# 1 0.009488 -0.009121 -0.004639 0.000000 0.000000 0.000000
# 2 -0.009121 0.035158 0.002754 0.000000 0.000000 0.000000
# 3 -0.004639 0.002754 0.011346 0.000000 0.000000 0.000000
# 4 0.000000 0.000000 0.000000 0.113990 0.000000 0.000000
# 5 0.000000 0.000000 0.000000 0.000000 0.017512 0.000000
# 6 0.000000 0.000000 0.000000 0.000000 0.000000 0.033885
#
#
# Mechanical properties :
#
#
# Convention : Reuss Voigt Hill
#
# Bulk Modulus (GPa) = 29.43037 60.26063 44.84550
# Shear Modulus (GPa) = 19.62957 33.41800 26.52378
#
# Velocity S-wave (km/s) = 2.74699 3.58420 3.19315
# Velocity P-wave (km/s) = 4.62329 6.34775 5.55287
#
# Compressibility (1/GPa) = 0.03397851
#
# Stress axis : x y z
#
# Youngs Moduli (GPa) = 105.39960 28.44277 88.14063
#
# Poissons Ratio (x) = 0.25943 0.40892
# Poissons Ratio (y) = 0.96138 -0.24275
# Poissons Ratio (z) = 0.48899 -0.07833
#
# Static dielectric constant tensor:
#      x y z
#    x 2.122740 0.000000 0.000000 
#    y 0.000000 2.052210 0.000000 
#    z 0.000000 0.000000 2.137280 
# 
# From -- ./inp_files/11399.got.cif
#   From: 2010.05.17/outbox.cif.g08.bks.cpg/sg21_6_cif.got.tgz:11399.got - 2010.06.03 23:14:55.
