data_PCOD9322003
_publ_section_title
;
Structure prediction by ZEFSAII (Michael W. Deem and Ramdas Pophale) SiO2 
 PCOD9322003
Probable space group: C 2 2 21
;
_chemical_formula_sum "Si O2"
_cell_formula_units_Z 36
_cell_length_a 13.536565
_cell_length_b 4.936835
_cell_length_c 23.213299
_cell_angle_alpha 90.000000
_cell_angle_beta 90.000000
_cell_angle_gamma 90.000000
_cell_volume 1551.293421
_symmetry_space_group_name_H-M "C 2 2 21"
_symmetry_group_IT_number 20
_symmetry_cell_setting 'orthorhombic'
loop_
_space_group_symop_operation_xyz
x,y,z
-x,-y,1/2+z
x,-y,-z
-x,y,1/2-z
1/2+x,1/2+y,z
1/2-x,1/2-y,1/2+z
1/2+x,1/2-y,-z
1/2-x,1/2+y,1/2-z
loop_
_atom_site_type_symbol
_atom_site_label
_atom_site_fract_x
_atom_site_fract_y
_atom_site_fract_z
Si Si1 0.312787 0.242897 0.111636
Si Si2 0.500000 0.303273 0.750000
Si Si3 0.209016 0.974273 0.221693
Si Si4 0.376794 0.759193 0.459732
Si Si5 0.553779 0.768148 0.373811
O O1 0.251548 0.101332 0.163406
O O2 0.230957 0.326021 0.065567
O O3 0.379387 0.499159 0.128511
O O4 0.387294 0.004601 0.093814
O O5 0.406913 0.479939 0.729456
O O6 0.467410 0.143914 0.807493
O O7 0.262421 0.162646 0.269885
O O8 0.369553 0.500000 0.500000
O O9 0.453108 0.713505 0.407737
O O10 0.413000 0.000000 0.500000
#
# Coordination Sequence:
#
# PCOD9322003 Si02
#       5
#     8   4   8   8   8
#     4  12  25  46  69 102 136 184 227 284 342 414
#     4  12  24  44  72 106 144 184 222 286 348 424
#     4  12  24  42  67 104 140 177 224 273 340 412
#     4  12  28  49  72 100 136 182 237 295 345 406
#     4  12  27  44  74 106 140 180 233 283 353 416
#
# _framework density 23.206441999999999
#
# number of rings (size 3 to 8) (size 9 to 14) (size 15 to 20)
#    0.000    0.000    6.667    2.667    0.000    8.889 
#    0.000    0.000    0.000    0.000    0.000    0.000 
#    0.000    0.000    0.000    0.000    0.000    0.000 
#
# Total GULP energy -100821.353573 kJ/mol
# GULP energy per Si atom -5601.186310 kJ/mol
# Density = 2.315362 g / cm^3
# Si number density = 23.206442 Si / 1000 Ang^3
#
#
#
# Elastic Constant Matrix: (Units=GPa)
#
#
# Indices 1 2 3 4 5 6 
#
# 1 142.3376 5.5593 29.6884 0.0000 0.0000 0.0000
# 2 5.5593 58.5485 4.1571 0.0000 0.0000 0.0000
# 3 29.6884 4.1571 100.6067 0.0000 0.0000 0.0000
# 4 0.0000 0.0000 0.0000 25.6125 0.0000 0.0000
# 5 0.0000 0.0000 0.0000 0.0000 33.5483 0.0000
# 6 0.0000 0.0000 0.0000 0.0000 0.0000 28.6803
#
#
#
# Elastic Compliance Matrix: (Units=1/GPa)
#
#
# Indices 1 2 3 4 5 6 
#
# 1 0.007504 -0.000557 -0.002191 0.000000 0.000000 0.000000
# 2 -0.000557 0.017171 -0.000545 0.000000 0.000000 0.000000
# 3 -0.002191 -0.000545 0.010609 0.000000 0.000000 0.000000
# 4 0.000000 0.000000 0.000000 0.039043 0.000000 0.000000
# 5 0.000000 0.000000 0.000000 0.000000 0.029808 0.000000
# 6 0.000000 0.000000 0.000000 0.000000 0.000000 0.034867
#
#
# Mechanical properties :
#
#
# Convention : Reuss Voigt Hill
#
# Bulk Modulus (GPa) = 34.84623 42.25584 38.55103
# Shear Modulus (GPa) = 32.22560 35.04076 33.63318
#
# Velocity S-wave (km/s) = 3.73050 3.89003 3.81110
# Velocity P-wave (km/s) = 5.79688 6.19876 6.00119
#
# Compressibility (1/GPa) = 0.02869751
#
# Stress axis : x y z
#
# Youngs Moduli (GPa) = 133.25514 58.23623 94.26037
#
# Poissons Ratio (x) = 0.03244 0.20657
# Poissons Ratio (y) = 0.07422 0.05139
# Poissons Ratio (z) = 0.29203 0.03175
#
# Static dielectric constant tensor:
#      x y z
#    x 1.848310 0.000000 0.000000 
#    y 0.000000 1.787880 0.000000 
#    z 0.000000 0.000000 1.873930 
# 
# From -- ./inp_files/28201.got.cif
#   From: 2010.05.17/outbox.cif.g08.bks.cpg/sg20_15_cif.got.tgz:28201.got - 2010.06.03 22:52:26.
