data_PCOD9322509
_publ_section_title
;
Structure prediction by ZEFSAII (Michael W. Deem and Ramdas Pophale) SiO2 
 PCOD9322509
Probable space group: C 2 2 2
;
_chemical_formula_sum "Si O2"
_cell_formula_units_Z 22
_cell_length_a 4.803445
_cell_length_b 13.849479
_cell_length_c 13.817158
_cell_angle_alpha 90.000000
_cell_angle_beta 90.000000
_cell_angle_gamma 90.000000
_cell_volume 919.189347
_symmetry_space_group_name_H-M "C 2 2 2"
_symmetry_group_IT_number 21
_symmetry_cell_setting 'orthorhombic'
loop_
_space_group_symop_operation_xyz
x,y,z
-x,-y,z
x,-y,-z
-x,y,-z
1/2+x,1/2+y,z
1/2-x,1/2-y,z
1/2+x,1/2-y,-z
1/2-x,1/2+y,-z
loop_
_atom_site_type_symbol
_atom_site_label
_atom_site_fract_x
_atom_site_fract_y
_atom_site_fract_z
Si Si1 0.722540 0.365822 0.418665
Si Si2 0.000000 0.500000 0.134667
Si Si3 0.237600 0.633880 0.702992
Si Si4 0.000000 0.000000 0.000000
O O1 0.500000 0.396316 0.500000
O O2 0.750000 0.250000 0.431083
O O3 0.552370 0.392456 0.322212
O O4 0.036523 0.393005 0.389231
O O5 0.124753 0.416846 0.202500
O O6 0.262718 0.542774 0.072946
O O7 0.250000 0.750000 0.710769
#
# Coordination Sequence:
#
# PCOD9322509 Si02
#       4
#     8   4   8   2
#     4  10  18  32  54  85 123 166 206 244 292 350
#     4  11  22  44  63  88 120 156 205 262 324 393
#     4  10  21  36  60  87 119 161 205 250 300 362
#     4  10  24  42  68  86 114 160 196 254 348 394
#
# _framework density 23.934132000000002
#
# number of rings (size 3 to 8) (size 9 to 14) (size 15 to 20)
#    0.000    1.818    0.000    6.545    0.000    0.000 
#    0.000    9.091    0.000    0.000    0.000    0.000 
#    0.000    0.000    0.000    0.000    0.000    0.000 
#
# Total GULP energy -61243.712413 kJ/mol
# GULP energy per Si atom -5567.610219 kJ/mol
# Density = 2.387966 g / cm^3
# Si number density = 23.934132 Si / 1000 Ang^3
#
#
#
# Elastic Constant Matrix: (Units=GPa)
#
#
# Indices 1 2 3 4 5 6 
#
# 1 228.5417 11.6974 62.8729 0.0000 0.0000 0.0000
# 2 11.6974 118.2821 16.1144 0.0000 0.0000 0.0000
# 3 62.8729 16.1144 101.1298 0.0000 0.0000 0.0000
# 4 0.0000 0.0000 0.0000 -0.8835 0.0000 0.0000
# 5 0.0000 0.0000 0.0000 0.0000 59.3006 0.0000
# 6 0.0000 0.0000 0.0000 0.0000 0.0000 11.5271
#
#
#
# Elastic Compliance Matrix: (Units=1/GPa)
#
#
# Indices 1 2 3 4 5 6 
#
# 1 0.005279 -0.000077 -0.003270 0.000000 0.000000 0.000000
# 2 -0.000077 0.008643 -0.001330 0.000000 0.000000 0.000000
# 3 -0.003270 -0.001330 0.012133 0.000000 0.000000 0.000000
# 4 0.000000 0.000000 0.000000 -1.131865 0.000000 0.000000
# 5 0.000000 0.000000 0.000000 0.000000 0.016863 0.000000
# 6 0.000000 0.000000 0.000000 0.000000 0.000000 0.086752
#
#
# Mechanical properties :
#
#
# Convention : Reuss Voigt Hill
#
# Bulk Modulus (GPa) = 59.86904 69.92477 64.89690
# Shear Modulus (GPa) = -5.06445 37.80676 16.37116
#
# Velocity S-wave (km/s) = -1.45622 3.97875 2.61819
# Velocity P-wave (km/s) = 4.71603 7.09832 6.02607
#
# Compressibility (1/GPa) = 0.01670313
#
# Stress axis : x y z
#
# Youngs Moduli (GPa) = 189.42903 115.69948 82.41994
#
# Poissons Ratio (x) = 0.00886 0.26950
# Poissons Ratio (y) = 0.01451 0.10959
# Poissons Ratio (z) = 0.61939 0.15383
#
# Static dielectric constant tensor:
#      x y z
#    x 1.873260 0.000000 0.000000 
#    y 0.000000 1.912600 0.000000 
#    z 0.000000 0.000000 2.017780 
# 
# From -- ./inp_files/20409.got.cif
#   From: 2010.05.17/outbox.cif.g08.bks.cpg/sg21_11_cif.got.tgz:20409.got - 2010.06.03 23:14:55.
