data_PCOD9322902
_publ_section_title
;
Structure prediction by ZEFSAII (Michael W. Deem and Ramdas Pophale) SiO2 
 PCOD9322902
Probable space group: C 2 2 2
;
_chemical_formula_sum "Si O2"
_cell_formula_units_Z 58
_cell_length_a 11.127337
_cell_length_b 27.207148
_cell_length_c 9.549378
_cell_angle_alpha 90.000000
_cell_angle_beta 90.000000
_cell_angle_gamma 90.000000
_cell_volume 2891.008343
_symmetry_space_group_name_H-M "C 2 2 2"
_symmetry_group_IT_number 21
_symmetry_cell_setting 'orthorhombic'
loop_
_space_group_symop_operation_xyz
x,y,z
-x,-y,z
x,-y,-z
-x,y,-z
1/2+x,1/2+y,z
1/2-x,1/2-y,z
1/2+x,1/2-y,-z
1/2-x,1/2+y,-z
loop_
_atom_site_type_symbol
_atom_site_label
_atom_site_fract_x
_atom_site_fract_y
_atom_site_fract_z
Si Si1 0.789505 0.635435 0.394868
Si Si2 0.000000 0.000000 0.500000
Si Si3 0.504050 0.806492 0.670192
Si Si4 0.152078 0.952870 0.736250
Si Si5 0.371297 0.981857 0.161558
Si Si6 0.700490 0.878546 0.726558
Si Si7 0.528720 0.381028 0.155681
Si Si8 0.575390 0.701421 0.357133
O O1 0.911706 0.648991 0.316670
O O2 0.730146 0.594296 0.300695
O O3 0.796222 0.616180 0.555725
O O4 0.711187 0.685903 0.395723
O O5 0.915266 0.968067 0.403750
O O6 0.500000 0.802070 0.500000
O O7 0.628202 0.826443 0.735222
O O8 0.453440 0.753652 0.714995
O O9 0.042184 0.933277 0.832129
O O10 0.246984 0.994243 0.781321
O O11 0.364963 0.924040 0.197163
O O12 0.500000 0.000000 0.222098
O O13 0.371693 0.000000 0.000000
O O14 0.832662 0.880867 0.795828
O O15 0.470130 0.342269 0.260548
O O16 0.500000 0.363713 0.000000
O O17 0.500000 0.699103 0.500000
#
# Coordination Sequence:
#
# PCOD9322902 Si02
#       8
#     8   2   8   8   8   8   8   8
#     4  10  19  35  60  91 121 157 203 270 331 396
#     4  12  24  36  60  96 124 160 210 282 332 400
#     4   9  20  34  59  93 119 158 208 261 331 399
#     4  11  22  37  59  86 121 158 209 262 337 381
#     4  11  24  41  61  84 122 176 230 271 330 403
#     4  11  21  38  61  89 126 161 215 277 333 392
#     4  11  23  38  62  88 127 167 213 267 334 406
#     4  10  19  36  63  91 122 160 208 269 332 396
#
# _framework density 20.062204000000001
#
# number of rings (size 3 to 8) (size 9 to 14) (size 15 to 20)
#    0.000    1.517    1.379    4.552    1.931    0.552 
#    0.000    3.793   18.207    0.000    0.000    0.000 
#    0.000    0.000    0.000    0.000    0.000    0.000 
#
# Total GULP energy -161470.607166 kJ/mol
# GULP energy per Si atom -5567.951971 kJ/mol
# Density = 2.001654 g / cm^3
# Si number density = 20.062204 Si / 1000 Ang^3
#
#
#
# Elastic Constant Matrix: (Units=GPa)
#
#
# Indices 1 2 3 4 5 6 
#
# 1 82.1342 7.8494 16.4726 0.0000 0.0000 0.0000
# 2 7.8494 78.2967 10.1293 0.0000 0.0000 0.0000
# 3 16.4726 10.1293 51.0587 0.0000 0.0000 0.0000
# 4 0.0000 0.0000 0.0000 -53.1853 0.0000 0.0000
# 5 0.0000 0.0000 0.0000 0.0000 1.6372 0.0000
# 6 0.0000 0.0000 0.0000 0.0000 0.0000 41.5478
#
#
#
# Elastic Compliance Matrix: (Units=1/GPa)
#
#
# Indices 1 2 3 4 5 6 
#
# 1 0.013064 -0.000785 -0.004059 0.000000 0.000000 0.000000
# 2 -0.000785 0.013155 -0.002357 0.000000 0.000000 0.000000
# 3 -0.004059 -0.002357 0.021362 0.000000 0.000000 0.000000
# 4 0.000000 0.000000 0.000000 -0.018802 0.000000 0.000000
# 5 0.000000 0.000000 0.000000 0.000000 0.610805 0.000000
# 6 0.000000 0.000000 0.000000 0.000000 0.000000 0.024069
#
#
# Mechanical properties :
#
#
# Convention : Reuss Voigt Hill
#
# Bulk Modulus (GPa) = 30.13753 31.15469 30.64611
# Shear Modulus (GPa) = 7.25569 9.80249 8.52909
#
# Velocity S-wave (km/s) = 1.90380 2.21284 2.06411
# Velocity P-wave (km/s) = 4.45951 4.70017 4.58142
#
# Compressibility (1/GPa) = 0.03318122
#
# Stress axis : x y z
#
# Youngs Moduli (GPa) = 76.54471 76.01398 46.81118
#
# Poissons Ratio (x) = 0.05964 0.19001
# Poissons Ratio (y) = 0.06006 0.11032
# Poissons Ratio (z) = 0.31071 0.17914
#
# Static dielectric constant tensor:
#      x y z
#    x 1.831660 0.000000 0.000000 
#    y 0.000000 1.765650 0.000000 
#    z 0.000000 0.000000 1.646060 
# 
# From -- ./inp_files/13542.got.cif
#   From: 2010.05.17/outbox.cif.g08.bks.cpg/sg21_7_cif.got.tgz:13542.got - 2010.06.03 23:14:55.
