data_PCOD9322223
_publ_section_title
;
Structure prediction by ZEFSAII (Michael W. Deem and Ramdas Pophale) SiO2 
 PCOD9322223
Probable space group: C 2 2 21
;
_chemical_formula_sum "Si O2"
_cell_formula_units_Z 20
_cell_length_a 12.000000
_cell_length_b 9.000000
_cell_length_c 18.000000
_cell_angle_alpha 90.000000
_cell_angle_beta 90.000000
_cell_angle_gamma 90.000000
_cell_volume 1944.000000
_symmetry_space_group_name_H-M "C 2 2 21"
_symmetry_group_IT_number 20
_symmetry_cell_setting 'orthorhombic'
loop_
_space_group_symop_operation_xyz
x,y,z
-x,-y,1/2+z
x,-y,-z
-x,y,1/2-z
1/2+x,1/2+y,z
1/2-x,1/2-y,1/2+z
1/2+x,1/2-y,-z
1/2-x,1/2+y,1/2-z
loop_
_atom_site_type_symbol
_atom_site_label
_atom_site_fract_x
_atom_site_fract_y
_atom_site_fract_z
Si Si1 0.334559 0.962070 0.192293
Si Si2 0.603399 0.278177 0.390923
Si Si3 0.140724 0.342969 0.139680
Si Si4 0.934197 0.363208 0.046565
Si Si5 0.072676 0.012228 0.177648
O O1 0.372051 0.914512 0.276540
O O2 0.370056 0.848558 0.125634
O O3 0.199392 0.960523 0.195147
O O4 0.382475 0.123020 0.159829
O O5 0.728264 0.346610 0.381534
O O6 0.575013 0.254913 0.479233
O O7 0.504041 0.385765 0.361515
O O8 0.057776 0.408193 0.076793
O O9 0.097448 0.171146 0.139221
O O10 0.882481 0.500000 0.000000
O O11 0.000000 0.048206 0.250000
#
# Coordination Sequence:
#
# PCOD9322223 Si02
#       5
#     8   8   8   8   8
#     4  10  22  44  70  94 138 180 229 283 342 409
#     4  10  24  42  67 102 137 179 231 284 346 405
#     4  11  23  45  68  98 138 184 230 282 342 412
#     4  10  23  43  63  94 135 184 226 280 351 404
#     4  11  22  41  67 102 133 174 234 284 335 403
#
# _framework density 10.288066000000001
#
# number of rings (size 3 to 8) (size 9 to 14) (size 15 to 20)
#    0.000    1.600    2.000    1.800    2.800    4.000 
#    3.600    0.000    0.000    0.000    0.000    0.000 
#    0.000    0.000    0.000    0.000    0.000    0.000 
#
# Total GULP energy -111399.460898 kJ/mol
# GULP energy per Si atom -5569.973045 kJ/mol
# Density = 1.026465 g / cm^3
# Si number density = 10.288066 Si / 1000 Ang^3
#
#
#
# Elastic Constant Matrix: (Units=GPa)
#
#
# Indices 1 2 3 4 5 6 
#
# 1 138.1479 25.4722 31.4639 0.0000 0.0000 0.0000
# 2 25.4722 46.0334 11.0029 0.0000 0.0000 0.0000
# 3 31.4639 11.0029 142.8381 0.0000 0.0000 0.0000
# 4 0.0000 0.0000 0.0000 34.6310 0.0000 0.0000
# 5 0.0000 0.0000 0.0000 0.0000 42.2262 0.0000
# 6 0.0000 0.0000 0.0000 0.0000 0.0000 42.4200
#
#
#
# Elastic Compliance Matrix: (Units=1/GPa)
#
#
# Indices 1 2 3 4 5 6 
#
# 1 0.008371 -0.004270 -0.001515 0.000000 0.000000 0.000000
# 2 -0.004270 0.024309 -0.000932 0.000000 0.000000 0.000000
# 3 -0.001515 -0.000932 0.007406 0.000000 0.000000 0.000000
# 4 0.000000 0.000000 0.000000 0.028876 0.000000 0.000000
# 5 0.000000 0.000000 0.000000 0.000000 0.023682 0.000000
# 6 0.000000 0.000000 0.000000 0.000000 0.000000 0.023574
#
#
# Mechanical properties :
#
#
# Convention : Reuss Voigt Hill
#
# Bulk Modulus (GPa) = 37.51995 51.43305 44.47650
# Shear Modulus (GPa) = 36.09177 41.12747 38.60962
#
# Velocity S-wave (km/s) = 4.19269 4.47564 4.33647
# Velocity P-wave (km/s) = 6.45852 7.19439 6.83636
#
# Compressibility (1/GPa) = 0.02665248
#
# Stress axis : x y z
#
# Youngs Moduli (GPa) = 119.46048 41.13735 135.01754
#
# Poissons Ratio (x) = 0.17565 0.20455
# Poissons Ratio (y) = 0.51008 0.12583
# Poissons Ratio (z) = 0.18098 0.03834
#
# Static dielectric constant tensor:
#      x y z
#    x 1.765380 0.000000 0.000000 
#    y 0.000000 1.854460 0.000000 
#    z 0.000000 0.000000 1.767030 
# 
# From -- ./inp_files/24071.got.cif
#   From: 2010.05.17/outbox.ucp.g08.bks.cvg/sg20_13_cif.got.tgz:24071.got - 2010.06.11 15:13:06.
