data_PCOD9322739
_publ_section_title
;
Structure prediction by ZEFSAII (Michael W. Deem and Ramdas Pophale) SiO2 
 PCOD9322739
Probable space group: C 2 2 2
;
_chemical_formula_sum "Si O2"
_cell_formula_units_Z 46
_cell_length_a 9.574585
_cell_length_b 18.945304
_cell_length_c 14.187383
_cell_angle_alpha 90.000000
_cell_angle_beta 90.000000
_cell_angle_gamma 90.000000
_cell_volume 2573.497973
_symmetry_space_group_name_H-M "C 2 2 2"
_symmetry_group_IT_number 21
_symmetry_cell_setting 'orthorhombic'
loop_
_space_group_symop_operation_xyz
x,y,z
-x,-y,z
x,-y,-z
-x,y,-z
1/2+x,1/2+y,z
1/2-x,1/2-y,z
1/2+x,1/2-y,-z
1/2-x,1/2+y,-z
loop_
_atom_site_type_symbol
_atom_site_label
_atom_site_fract_x
_atom_site_fract_y
_atom_site_fract_z
Si Si1 0.386074 0.631026 0.418029
Si Si2 0.110182 0.899090 0.842674
Si Si3 0.653696 0.820230 0.461469
Si Si4 0.655064 0.179969 0.750530
Si Si5 0.000000 0.000000 0.314535
Si Si6 0.404252 0.722225 0.226864
Si Si7 0.000000 0.000000 0.000000
O O1 0.500000 0.644656 0.500000
O O2 0.235270 0.631964 0.464909
O O3 0.414396 0.554304 0.376496
O O4 0.397627 0.687808 0.332506
O O5 0.262445 0.865444 0.827424
O O6 0.988127 0.838509 0.832836
O O7 0.090345 0.950519 0.753499
O O8 0.088489 0.947688 0.933403
O O9 0.500000 0.806019 0.500000
O O10 0.750000 0.750000 0.460428
O O11 0.652456 0.850304 0.355492
O O12 0.750000 0.250000 0.742776
O O13 0.502998 0.209191 0.774008
O O14 0.250000 0.750000 0.199768
#
# Coordination Sequence:
#
# PCOD9322739 Si02
#       7
#     8   8   8   8   4   8   2
#     4  11  19  29  48  72 104 151 196 228 258 308
#     4   9  19  36  59  79  99 134 174 222 276 335
#     4  11  19  28  46  77 112 146 186 227 266 311
#     4   9  17  30  49  77 109 139 175 220 271 313
#     4   9  19  33  49  68  98 142 187 219 265 323
#     4  10  19  32  52  80 111 139 171 219 279 326
#     4  10  20  40  66  82  98 132 186 220 264 346
#
# _framework density 17.874504000000002
#
# number of rings (size 3 to 8) (size 9 to 14) (size 15 to 20)
#    0.000    2.087    0.000    7.565    0.000    0.000 
#    0.000    2.609    0.000   31.304    0.000    0.000 
#    0.000    0.000    0.000    0.000    0.000    0.000 
#
# Total GULP energy -128170.769659 kJ/mol
# GULP energy per Si atom -5572.642159 kJ/mol
# Density = 1.783382 g / cm^3
# Si number density = 17.874504 Si / 1000 Ang^3
#
#
#
# Elastic Constant Matrix: (Units=GPa)
#
#
# Indices 1 2 3 4 5 6 
#
# 1 151.3855 51.0796 45.4405 0.0000 0.0000 0.0000
# 2 51.0796 90.9347 48.5510 0.0000 0.0000 0.0000
# 3 45.4405 48.5510 85.7735 0.0000 0.0000 0.0000
# 4 0.0000 0.0000 0.0000 11.1930 0.0000 0.0000
# 5 0.0000 0.0000 0.0000 0.0000 5.8182 0.0000
# 6 0.0000 0.0000 0.0000 0.0000 0.0000 18.3385
#
#
#
# Elastic Compliance Matrix: (Units=1/GPa)
#
#
# Indices 1 2 3 4 5 6 
#
# 1 0.008534 -0.003411 -0.002591 0.000000 0.000000 0.000000
# 2 -0.003411 0.017123 -0.007885 0.000000 0.000000 0.000000
# 3 -0.002591 -0.007885 0.017494 0.000000 0.000000 0.000000
# 4 0.000000 0.000000 0.000000 0.089342 0.000000 0.000000
# 5 0.000000 0.000000 0.000000 0.000000 0.171875 0.000000
# 6 0.000000 0.000000 0.000000 0.000000 0.000000 0.054530
#
#
# Mechanical properties :
#
#
# Convention : Reuss Voigt Hill
#
# Bulk Modulus (GPa) = 65.02677 68.69288 66.85982
# Shear Modulus (GPa) = 12.76171 19.27143 16.01657
#
# Velocity S-wave (km/s) = 2.67490 3.28708 2.99667
# Velocity P-wave (km/s) = 6.78224 7.27466 7.03276
#
# Compressibility (1/GPa) = 0.01537828
#
# Stress axis : x y z
#
# Youngs Moduli (GPa) = 117.17789 58.40204 57.16120
#
# Poissons Ratio (x) = 0.19918 0.14808
# Poissons Ratio (y) = 0.39964 0.45073
# Poissons Ratio (z) = 0.30356 0.46051
#
# Static dielectric constant tensor:
#      x y z
#    x 1.650310 0.000000 0.000000 
#    y 0.000000 1.643000 0.000000 
#    z 0.000000 0.000000 1.639030 
# 
# From -- ./inp_files/30668.got.cif
#   From: 2010.05.17/outbox.cif.g08.bks.cpg/sg21_16_cif.got.tgz:30668.got - 2010.06.03 23:14:55.
