data_PCOD9322975
_publ_section_title
;
Structure prediction by ZEFSAII (Michael W. Deem and Ramdas Pophale) SiO2 
 PCOD9322975
Probable space group: C 2 2 2
;
_chemical_formula_sum "Si O2"
_cell_formula_units_Z 46
_cell_length_a 25.537591
_cell_length_b 18.541632
_cell_length_c 5.260859
_cell_angle_alpha 90.000000
_cell_angle_beta 90.000000
_cell_angle_gamma 90.000000
_cell_volume 2491.062056
_symmetry_space_group_name_H-M "C 2 2 2"
_symmetry_group_IT_number 21
_symmetry_cell_setting 'orthorhombic'
loop_
_space_group_symop_operation_xyz
x,y,z
-x,-y,z
x,-y,-z
-x,y,-z
1/2+x,1/2+y,z
1/2-x,1/2-y,z
1/2+x,1/2-y,-z
1/2-x,1/2+y,-z
loop_
_atom_site_type_symbol
_atom_site_label
_atom_site_fract_x
_atom_site_fract_y
_atom_site_fract_z
Si Si1 0.957386 0.884531 0.320392
Si Si2 0.188705 0.582724 0.983220
Si Si3 0.000000 0.000000 0.000000
Si Si4 0.882370 0.718465 0.946295
Si Si5 0.758437 0.083683 0.483669
Si Si6 0.144531 0.810426 0.548739
Si Si7 0.000000 0.244200 0.000000
O O1 0.903448 0.866936 0.452359
O O2 0.000000 0.920121 0.500000
O O3 0.957000 0.940815 0.095296
O O4 0.982940 0.809855 0.225115
O O5 0.143444 0.640702 0.022682
O O6 0.230978 0.592875 0.209884
O O7 0.170110 0.500000 0.000000
O O8 0.216351 0.592478 0.710424
O O9 0.862823 0.756901 0.688611
O O10 0.945877 0.715387 0.939814
O O11 0.863066 0.767020 0.186428
O O12 0.802805 0.143468 0.526024
O O13 0.777577 0.000000 0.500000
#
# Coordination Sequence:
#
# PCOD9322975 Si02
#       7
#     8   8   2   8   8   8   4
#     4  10  19  37  52  77 117 149 205 234 289 331
#     4  10  22  41  61  85 116 151 187 239 303 352
#     4  10  22  32  52  78 110 168 192 256 268 342
#     4  11  22  38  63  86 115 152 193 241 289 349
#     4  10  22  40  57  83 122 154 189 239 289 336
#     4  11  23  37  60  88 113 157 198 238 280 341
#     4   9  20  37  55  82 115 148 186 242 295 332
#
# _framework density 18.466017999999998
#
# number of rings (size 3 to 8) (size 9 to 14) (size 15 to 20)
#    0.000    1.739    1.739    2.348    0.000    5.565 
#    4.696    0.435    0.000    0.000    0.000    6.087 
#    0.000    0.000    0.000    0.000    0.000    0.000 
#
# Total GULP energy -128195.127090 kJ/mol
# GULP energy per Si atom -5573.701178 kJ/mol
# Density = 1.842399 g / cm^3
# Si number density = 18.466018 Si / 1000 Ang^3
#
#
#
# Elastic Constant Matrix: (Units=GPa)
#
#
# Indices 1 2 3 4 5 6 
#
# 1 78.3198 68.3842 -3.7099 0.0000 0.0000 0.0000
# 2 68.3842 102.6239 8.5347 0.0000 0.0000 0.0000
# 3 -3.7099 8.5347 67.2769 0.0000 0.0000 0.0000
# 4 0.0000 0.0000 0.0000 -5.6722 0.0000 0.0000
# 5 0.0000 0.0000 0.0000 0.0000 18.4102 0.0000
# 6 0.0000 0.0000 0.0000 0.0000 0.0000 0.0975
#
#
#
# Elastic Compliance Matrix: (Units=1/GPa)
#
#
# Indices 1 2 3 4 5 6 
#
# 1 0.031822 -0.021578 0.004492 0.000000 0.000000 0.000000
# 2 -0.021578 0.024480 -0.004295 0.000000 0.000000 0.000000
# 3 0.004492 -0.004295 0.015657 0.000000 0.000000 0.000000
# 4 0.000000 0.000000 0.000000 -0.176297 0.000000 0.000000
# 5 0.000000 0.000000 0.000000 0.000000 0.054318 0.000000
# 6 0.000000 0.000000 0.000000 0.000000 0.000000 10.260421
#
#
# Mechanical properties :
#
#
# Convention : Reuss Voigt Hill
#
# Bulk Modulus (GPa) = 34.25170 43.84873 39.05022
# Shear Modulus (GPa) = 0.48719 14.23454 7.36086
#
# Velocity S-wave (km/s) = 0.51420 2.77943 1.99870
# Velocity P-wave (km/s) = 4.35216 5.83931 5.14970
#
# Compressibility (1/GPa) = 0.02919563
#
# Stress axis : x y z
#
# Youngs Moduli (GPa) = 31.42492 40.84894 63.87096
#
# Poissons Ratio (x) = 0.88145 -0.28692
# Poissons Ratio (y) = 0.67810 0.27436
# Poissons Ratio (z) = -0.14117 0.17547
#
# Static dielectric constant tensor:
#      x y z
#    x 1.648700 0.000000 0.000000 
#    y 0.000000 1.613440 0.000000 
#    z 0.000000 0.000000 1.497330 
# 
# From -- ./inp_files/6740.got.cif
#   From: 2010.05.17/outbox.cif.g08.bks.cpg/sg21_4_cif.got.tgz:6740.got - 2010.06.03 23:14:55.
