data_PCOD9322435
_publ_section_title
;
Structure prediction by ZEFSAII (Michael W. Deem and Ramdas Pophale) SiO2 
 PCOD9322435
Probable space group: C 2 2 2
;
_chemical_formula_sum "Si O2"
_cell_formula_units_Z 56
_cell_length_a 23.357231
_cell_length_b 21.399516
_cell_length_c 7.868562
_cell_angle_alpha 90.000000
_cell_angle_beta 90.000000
_cell_angle_gamma 90.000000
_cell_volume 3932.970401
_symmetry_space_group_name_H-M "C 2 2 2"
_symmetry_group_IT_number 21
_symmetry_cell_setting 'orthorhombic'
loop_
_space_group_symop_operation_xyz
x,y,z
-x,-y,z
x,-y,-z
-x,y,-z
1/2+x,1/2+y,z
1/2-x,1/2-y,z
1/2+x,1/2-y,-z
1/2-x,1/2+y,-z
loop_
_atom_site_type_symbol
_atom_site_label
_atom_site_fract_x
_atom_site_fract_y
_atom_site_fract_z
Si Si1 0.200868 0.160232 1.000000
Si Si2 0.165324 0.702274 1.000000
Si Si3 0.066840 0.500000 0.204640
Si Si4 0.224322 0.926955 0.696494
Si Si5 0.224322 0.073045 0.696494
Si Si6 0.143804 0.616031 0.692777
Si Si7 0.643804 0.883969 0.692778
O O1 0.163570 0.222976 1.000000
O O2 0.267315 0.183049 1.000000
O O3 0.194347 0.117793 0.167443
O O4 0.194347 0.117793 0.832557
O O5 0.139150 0.669916 0.833171
O O6 0.139150 0.669916 0.166829
O O7 0.098644 0.438803 0.274017
O O8 0.098644 0.561197 0.274017
O O9 0.000000 0.500000 0.248941
O O10 0.072410 0.500000 0.000000
O O11 0.208616 0.914159 0.500000
O O12 0.292649 0.914035 0.710891
O O13 0.214204 1.000000 0.732547
O O14 0.292649 0.085965 0.710891
O O15 0.138747 0.639425 0.500000
#
# Coordination Sequence:
#
# PCOD9322435 Si02
#       7
#     8   8   8   8   8   8   8
#     4   9  17  26  39  54  76 104 127 167 208 234
#     4   9  18  29  38  55  76  99 134 168 201 245
#     4  11  21  31  45  64  83 103 136 181 217 246
#     4   9  16  25  40  60  78 101 135 167 201 243
#     4   9  16  25  40  60  78 101 135 167 201 243
#     4  10  18  29  44  57  75 105 134 167 210 246
#     4  10  18  29  44  57  75 105 134 167 210 246
#
# _framework density 14.238600999999999
#
# number of rings (size 3 to 8) (size 9 to 14) (size 15 to 20)
#    0.000    2.429    2.857    0.857    0.000    2.286 
#    0.000    5.714    0.000    0.000    0.000    0.000 
#    0.000    0.000    0.000    0.000    0.000   11.429 
#
# Total GULP energy -156024.028940 kJ/mol
# GULP energy per Si atom -5572.286748 kJ/mol
# Density = 1.420619 g / cm^3
# Si number density = 14.238601 Si / 1000 Ang^3
#
#
#
# Elastic Constant Matrix: (Units=GPa)
#
#
# Indices 1 2 3 4 5 6 
#
# 1 24.6636 27.1112 26.3260 0.0000 0.0000 0.0000
# 2 27.1112 130.6086 94.8551 0.0000 0.0000 0.0000
# 3 26.3260 94.8551 127.0479 0.0000 0.0000 0.0000
# 4 0.0000 0.0000 0.0000 5.1243 0.0000 0.0000
# 5 0.0000 0.0000 0.0000 0.0000 8.2499 0.0000
# 6 0.0000 0.0000 0.0000 0.0000 0.0000 7.8068
#
#
#
# Elastic Compliance Matrix: (Units=1/GPa)
#
#
# Indices 1 2 3 4 5 6 
#
# 1 0.054709 -0.006822 -0.006243 0.000000 0.000000 0.000000
# 2 -0.006822 0.017576 -0.011709 0.000000 0.000000 0.000000
# 3 -0.006243 -0.011709 0.017907 0.000000 0.000000 0.000000
# 4 0.000000 0.000000 0.000000 0.195148 0.000000 0.000000
# 5 0.000000 0.000000 0.000000 0.000000 0.121213 0.000000
# 6 0.000000 0.000000 0.000000 0.000000 0.000000 0.128093
#
#
# Mechanical properties :
#
#
# Convention : Reuss Voigt Hill
#
# Bulk Modulus (GPa) = 24.60424 64.32277 44.46350
# Shear Modulus (GPa) = 8.36481 13.17138 10.76809
#
# Velocity S-wave (km/s) = 2.42642 3.04476 2.75300
# Velocity P-wave (km/s) = 5.01672 7.59169 6.43433
#
# Compressibility (1/GPa) = 0.04064341
#
# Stress axis : x y z
#
# Youngs Moduli (GPa) = 18.27868 56.89478 55.84529
#
# Poissons Ratio (x) = 0.38816 0.34862
# Poissons Ratio (y) = 0.12470 0.65389
# Poissons Ratio (z) = 0.11411 0.66618
#
# Static dielectric constant tensor:
#      x y z
#    x 1.429410 0.000000 0.000000 
#    y 0.000000 1.454380 0.000000 
#    z 0.000000 0.000000 1.496270 
# 
# From -- ./inp_files/18655.got.cif
#   From: 2010.05.17/outbox.cif.g08.bks.cpg/sg21_10_cif.got.tgz:18655.got - 2010.06.03 23:14:55.
