data_PCOD9322571
_publ_section_title
;
Structure prediction by ZEFSAII (Michael W. Deem and Ramdas Pophale) SiO2 
 PCOD9322571
Probable space group: C 2 2 2
;
_chemical_formula_sum "Si O2"
_cell_formula_units_Z 32
_cell_length_a 8.215096
_cell_length_b 25.728131
_cell_length_c 7.125068
_cell_angle_alpha 90.000000
_cell_angle_beta 90.000000
_cell_angle_gamma 90.000000
_cell_volume 1505.947718
_symmetry_space_group_name_H-M "C 2 2 2"
_symmetry_group_IT_number 21
_symmetry_cell_setting 'orthorhombic'
loop_
_space_group_symop_operation_xyz
x,y,z
-x,-y,z
x,-y,-z
-x,y,-z
1/2+x,1/2+y,z
1/2-x,1/2-y,z
1/2+x,1/2-y,-z
1/2-x,1/2+y,-z
loop_
_atom_site_type_symbol
_atom_site_label
_atom_site_fract_x
_atom_site_fract_y
_atom_site_fract_z
Si Si1 0.374822 0.641695 0.209262
Si Si2 0.189095 0.439673 0.044136
Si Si3 0.000000 0.296507 0.500000
Si Si4 0.250000 0.250000 0.777525
Si Si5 0.728484 0.369218 0.639930
O O1 0.294910 0.695086 0.130725
O O2 0.312456 0.628914 0.419614
O O3 0.567449 0.648537 0.246220
O O4 0.310206 0.594765 0.082670
O O5 0.221617 0.422601 0.258629
O O6 0.214953 0.500000 0.000000
O O7 0.000000 0.427125 0.000000
O O8 0.898160 0.261269 0.361461
O O9 0.882317 0.330757 0.632572
#
# Coordination Sequence:
#
# PCOD9322571 Si02
#       5
#     8   8   4   4   8
#     4  10  22  39  61  90 121 159 201 246 303 362
#     4  11  24  42  63  87 118 157 204 256 306 360
#     4  10  18  34  62  89 122 163 196 244 302 364
#     4  10  18  34  58  88 122 156 198 242 296 362
#     4  10  21  39  61  88 122 157 201 247 300 363
#
# _framework density 21.249079999999999
#
# number of rings (size 3 to 8) (size 9 to 14) (size 15 to 20)
#    0.000    1.750    0.000    6.750    0.000    3.000 
#    0.000   17.500    0.000    0.000    0.000    0.000 
#    0.000    0.000    0.000    0.000    0.000    0.000 
#
# Total GULP energy -89270.810473 kJ/mol
# GULP energy per Si atom -5579.425655 kJ/mol
# Density = 2.120072 g / cm^3
# Si number density = 21.249080 Si / 1000 Ang^3
#
#
#
# Elastic Constant Matrix: (Units=GPa)
#
#
# Indices 1 2 3 4 5 6 
#
# 1 118.5153 44.9909 32.5427 0.0000 0.0000 0.0000
# 2 44.9909 119.4589 49.2451 0.0000 0.0000 0.0000
# 3 32.5427 49.2451 82.4547 0.0000 0.0000 0.0000
# 4 0.0000 0.0000 0.0000 11.8662 0.0000 0.0000
# 5 0.0000 0.0000 0.0000 0.0000 34.5347 0.0000
# 6 0.0000 0.0000 0.0000 0.0000 0.0000 30.6733
#
#
#
# Elastic Compliance Matrix: (Units=1/GPa)
#
#
# Indices 1 2 3 4 5 6 
#
# 1 0.010161 -0.002884 -0.002288 0.000000 0.000000 0.000000
# 2 -0.002884 0.011924 -0.005983 0.000000 0.000000 0.000000
# 3 -0.002288 -0.005983 0.016604 0.000000 0.000000 0.000000
# 4 0.000000 0.000000 0.000000 0.084273 0.000000 0.000000
# 5 0.000000 0.000000 0.000000 0.000000 0.028956 0.000000
# 6 0.000000 0.000000 0.000000 0.000000 0.000000 0.032602
#
#
# Mechanical properties :
#
#
# Convention : Reuss Voigt Hill
#
# Bulk Modulus (GPa) = 61.05339 63.77625 62.41482
# Shear Modulus (GPa) = 23.55284 28.32484 25.93884
#
# Velocity S-wave (km/s) = 3.33290 3.65498 3.49765
# Velocity P-wave (km/s) = 6.60345 6.92030 6.76373
#
# Compressibility (1/GPa) = 0.01637911
#
# Stress axis : x y z
#
# Youngs Moduli (GPa) = 98.41907 83.86774 60.22563
#
# Poissons Ratio (x) = 0.24184 0.13779
# Poissons Ratio (y) = 0.28380 0.36034
# Poissons Ratio (z) = 0.22518 0.50179
#
# Static dielectric constant tensor:
#      x y z
#    x 1.916370 0.000000 0.000000 
#    y 0.000000 1.745620 0.000000 
#    z 0.000000 0.000000 1.765010 
# 
# From -- ./inp_files/10504.got.cif
#   From: 2010.05.17/outbox.cif.g08.bks.cpg/sg21_6_cif.got.tgz:10504.got - 2010.06.03 23:14:55.
