data_PCOD9322784
_publ_section_title
;
Structure prediction by ZEFSAII (Michael W. Deem and Ramdas Pophale) SiO2 
 PCOD9322784
Probable space group: C 2 2 2
;
_chemical_formula_sum "Si O2"
_cell_formula_units_Z 48
_cell_length_a 15.662611
_cell_length_b 18.016390
_cell_length_c 8.616883
_cell_angle_alpha 90.000000
_cell_angle_beta 90.000000
_cell_angle_gamma 90.000000
_cell_volume 2431.543998
_symmetry_space_group_name_H-M "C 2 2 2"
_symmetry_group_IT_number 21
_symmetry_cell_setting 'orthorhombic'
loop_
_space_group_symop_operation_xyz
x,y,z
-x,-y,z
x,-y,-z
-x,y,-z
1/2+x,1/2+y,z
1/2-x,1/2-y,z
1/2+x,1/2-y,-z
1/2-x,1/2+y,-z
loop_
_atom_site_type_symbol
_atom_site_label
_atom_site_fract_x
_atom_site_fract_y
_atom_site_fract_z
Si Si1 0.768354 0.921493 0.436141
Si Si2 0.908350 0.351712 0.538348
Si Si3 0.341130 0.288309 0.634108
Si Si4 0.592733 0.647998 0.950322
Si Si5 0.744571 0.924838 0.065714
Si Si6 0.159216 0.715611 0.850345
O O1 0.671005 0.906234 0.490936
O O2 0.820273 0.851766 0.506045
O O3 0.763605 0.925205 0.249767
O O4 0.799884 0.000000 0.500000
O O5 0.895702 0.278499 0.435090
O O6 0.894732 0.320823 0.712832
O O7 0.000000 0.384713 0.500000
O O8 0.250000 0.250000 0.680727
O O9 0.391596 0.324485 0.776090
O O10 0.500000 0.620808 0.000000
O O11 0.666040 0.588276 0.981222
O O12 0.612636 0.718820 0.060678
O O13 0.687170 0.851917 0.038221
O O14 0.705125 0.000000 0.000000
O O15 0.250000 0.750000 0.789717
#
# Coordination Sequence:
#
# PCOD9322784 Si02
#       6
#     8   8   8   8   8   8
#     4  10  21  36  55  77 104 141 182 217 258 317
#     4  10  19  33  55  81 108 134 168 221 271 313
#     4  10  19  33  54  80 107 139 179 217 259 317
#     4  11  21  33  54  81 107 135 172 222 269 313
#     4  10  20  36  56  75 104 142 180 216 259 319
#     4   9  18  35  54  76 105 141 178 211 260 321
#
# _framework density 19.740544
#
# number of rings (size 3 to 8) (size 9 to 14) (size 15 to 20)
#    0.000    2.000    0.000    7.000    0.000    2.000 
#    0.000    0.000    0.000    6.000    0.000    0.000 
#    0.000    0.000    0.000    0.000    0.000    0.000 
#
# Total GULP energy -133963.775693 kJ/mol
# GULP energy per Si atom -5581.823987 kJ/mol
# Density = 1.969561 g / cm^3
# Si number density = 19.740544 Si / 1000 Ang^3
#
#
#
# Elastic Constant Matrix: (Units=GPa)
#
#
# Indices 1 2 3 4 5 6 
#
# 1 47.2538 -17.1328 -4.3208 0.0000 0.0000 0.0000
# 2 -17.1328 63.0580 -6.4729 0.0000 0.0000 0.0000
# 3 -4.3208 -6.4729 57.3928 0.0000 0.0000 0.0000
# 4 0.0000 0.0000 0.0000 18.7984 0.0000 0.0000
# 5 0.0000 0.0000 0.0000 0.0000 459.2551 0.0000
# 6 0.0000 0.0000 0.0000 0.0000 0.0000 7.8095
#
#
#
# Elastic Compliance Matrix: (Units=1/GPa)
#
#
# Indices 1 2 3 4 5 6 
#
# 1 0.023839 0.006739 0.002555 0.000000 0.000000 0.000000
# 2 0.006739 0.017949 0.002532 0.000000 0.000000 0.000000
# 3 0.002555 0.002532 0.017902 0.000000 0.000000 0.000000
# 4 0.000000 0.000000 0.000000 0.053196 0.000000 0.000000
# 5 0.000000 0.000000 0.000000 0.000000 0.002177 0.000000
# 6 0.000000 0.000000 0.000000 0.000000 0.000000 0.128049
#
#
# Mechanical properties :
#
#
# Convention : Reuss Voigt Hill
#
# Bulk Modulus (GPa) = 11.99869 12.42796 12.21333
# Shear Modulus (GPa) = 20.22313 110.21468 65.21890
#
# Velocity S-wave (km/s) = 3.20417 7.48016 5.75411
# Velocity P-wave (km/s) = 4.44751 8.99517 7.09554
#
# Compressibility (1/GPa) = 0.08334241
#
# Stress axis : x y z
#
# Youngs Moduli (GPa) = 41.94733 55.71224 55.86074
#
# Poissons Ratio (x) = -0.37547 -0.14271
# Poissons Ratio (y) = -0.28270 -0.14143
# Poissons Ratio (z) = -0.10717 -0.14105
#
# Static dielectric constant tensor:
#      x y z
#    x 1.696900 0.000000 0.000000 
#    y 0.000000 1.403360 0.000000 
#    z 0.000000 0.000000 1.711460 
# 
# From -- ./inp_files/14936.got.cif
#   From: 2010.05.17/outbox.cif.g08.bks.cpg/sg21_8_cif.got.tgz:14936.got - 2010.06.03 23:14:55.
