data_PCOD9322082
_publ_section_title
;
Structure prediction by ZEFSAII (Michael W. Deem and Ramdas Pophale) SiO2 
 PCOD9322082
Probable space group: C 2 2 21
;
_chemical_formula_sum "Si O2"
_cell_formula_units_Z 24
_cell_length_a 7.256245
_cell_length_b 7.334039
_cell_length_c 16.523817
_cell_angle_alpha 90.000000
_cell_angle_beta 90.000000
_cell_angle_gamma 90.000000
_cell_volume 879.357616
_symmetry_space_group_name_H-M "C 2 2 21"
_symmetry_group_IT_number 20
_symmetry_cell_setting 'orthorhombic'
loop_
_space_group_symop_operation_xyz
x,y,z
-x,-y,1/2+z
x,-y,-z
-x,y,1/2-z
1/2+x,1/2+y,z
1/2-x,1/2-y,1/2+z
1/2+x,1/2-y,-z
1/2-x,1/2+y,1/2-z
loop_
_atom_site_type_symbol
_atom_site_label
_atom_site_fract_x
_atom_site_fract_y
_atom_site_fract_z
Si Si1 0.997240 0.328477 0.123209
Si Si2 0.887123 0.733978 0.327245
Si Si3 0.648869 0.692799 0.540508
O O1 0.054930 0.525685 0.155328
O O2 0.833242 0.251069 0.178870
O O3 0.193528 0.236540 0.101522
O O4 0.904584 0.318450 0.034280
O O5 0.970418 0.838875 0.404397
O O6 0.000000 0.799875 0.250000
O O7 0.706312 0.500000 0.500000
#
# Coordination Sequence:
#
# PCOD9322082 Si02
#       3
#     8   8   8
#     4  12  26  51  78 117 158 217 269 332 399 486
#     4  12  31  50  80 120 171 210 270 340 416 477
#     4  12  25  48  86 118 157 219 277 334 397 488
#
# _framework density 27.292650999999999
#
# number of rings (size 3 to 8) (size 9 to 14) (size 15 to 20)
#    0.000    0.000    6.667    1.000    9.333    1.333 
#    0.000    1.667    0.000    0.000    0.000    0.000 
#    0.000    0.000    0.000    0.000    0.000    0.000 
#
# Total GULP energy -67226.031220 kJ/mol
# GULP energy per Si atom -5602.169268 kJ/mol
# Density = 2.723053 g / cm^3
# Si number density = 27.292651 Si / 1000 Ang^3
#
#
#
# Elastic Constant Matrix: (Units=GPa)
#
#
# Indices 1 2 3 4 5 6 
#
# 1 210.3758 38.2336 7.2198 0.0000 0.0000 0.0000
# 2 38.2336 101.3628 -7.1443 0.0000 0.0000 0.0000
# 3 7.2198 -7.1443 65.3776 0.0000 0.0000 0.0000
# 4 0.0000 0.0000 0.0000 27.7032 0.0000 0.0000
# 5 0.0000 0.0000 0.0000 0.0000 49.0850 0.0000
# 6 0.0000 0.0000 0.0000 0.0000 0.0000 43.2399
#
#
#
# Elastic Compliance Matrix: (Units=1/GPa)
#
#
# Indices 1 2 3 4 5 6 
#
# 1 0.005143 -0.001995 -0.000786 0.000000 0.000000 0.000000
# 2 -0.001995 0.010716 0.001391 0.000000 0.000000 0.000000
# 3 -0.000786 0.001391 0.015535 0.000000 0.000000 0.000000
# 4 0.000000 0.000000 0.000000 0.036097 0.000000 0.000000
# 5 0.000000 0.000000 0.000000 0.000000 0.020373 0.000000
# 6 0.000000 0.000000 0.000000 0.000000 0.000000 0.023127
#
#
# Mechanical properties :
#
#
# Convention : Reuss Voigt Hill
#
# Bulk Modulus (GPa) = 34.94795 50.41496 42.68146
# Shear Modulus (GPa) = 40.54882 46.59277 43.57080
#
# Velocity S-wave (km/s) = 3.85867 4.13625 3.99987
# Velocity P-wave (km/s) = 5.71709 6.42834 6.08312
#
# Compressibility (1/GPa) = 0.02861398
#
# Stress axis : x y z
#
# Youngs Moduli (GPa) = 194.43897 93.31631 64.37244
#
# Poissons Ratio (x) = 0.18620 0.05060
# Poissons Ratio (y) = 0.38797 -0.08957
# Poissons Ratio (z) = 0.15283 -0.12984
#
# Static dielectric constant tensor:
#      x y z
#    x 2.134370 0.000000 0.000000 
#    y 0.000000 2.167370 0.000000 
#    z 0.000000 0.000000 2.155140 
# 
# From -- ./inp_files/18064.got.cif
#   From: 2010.05.17/outbox.cif.g08.bks.cpg/sg20_10_cif.got.tgz:18064.got - 2010.06.03 22:52:26.
