data_PCOD9322712
_publ_section_title
;
Structure prediction by ZEFSAII (Michael W. Deem and Ramdas Pophale) SiO2 
 PCOD9322712
Probable space group: C 2 2 2
;
_chemical_formula_sum "Si O2"
_cell_formula_units_Z 40
_cell_length_a 5.124717
_cell_length_b 19.886338
_cell_length_c 18.498207
_cell_angle_alpha 90.000000
_cell_angle_beta 90.000000
_cell_angle_gamma 90.000000
_cell_volume 1885.186579
_symmetry_space_group_name_H-M "C 2 2 2"
_symmetry_group_IT_number 21
_symmetry_cell_setting 'orthorhombic'
loop_
_space_group_symop_operation_xyz
x,y,z
-x,-y,z
x,-y,-z
-x,y,-z
1/2+x,1/2+y,z
1/2-x,1/2-y,z
1/2+x,1/2-y,-z
1/2-x,1/2+y,-z
loop_
_atom_site_type_symbol
_atom_site_label
_atom_site_fract_x
_atom_site_fract_y
_atom_site_fract_z
Si Si1 0.490652 0.419494 0.171949
Si Si2 0.285318 0.676476 0.617960
Si Si3 0.981107 0.581123 0.918337
Si Si4 0.252053 0.969783 0.580211
Si Si5 0.724860 0.824779 0.713283
O O1 0.500000 0.500000 0.186516
O O2 0.203121 0.399689 0.141379
O O3 0.631156 0.379420 0.236857
O O4 0.690875 0.404421 0.107562
O O5 0.250000 0.750000 0.584341
O O6 0.242240 0.609613 0.572836
O O7 0.583313 0.675637 0.644279
O O8 0.072605 0.668794 0.684012
O O9 0.000000 0.500000 0.921729
O O10 0.000000 0.607620 0.000000
O O11 0.500000 0.000000 0.620125
O O12 0.251608 0.000000 0.500000
O O13 0.000000 0.000000 0.618168
O O14 0.750000 0.750000 0.747089
#
# Coordination Sequence:
#
# PCOD9322712 Si02
#       5
#     8   8   8   8   8
#     4  10  19  31  50  78 106 138 183 229 279 332
#     4  10  21  38  58  80 110 150 190 223 274 347
#     4   9  17  30  49  74 106 141 179 227 279 330
#     4  10  21  38  58  85 115 144 181 230 284 330
#     4  10  21  36  55  80 110 147 186 229 280 333
#
# _framework density 21.218060000000001
#
# number of rings (size 3 to 8) (size 9 to 14) (size 15 to 20)
#    0.000    2.200    0.000    3.000    0.000    4.800 
#    0.000    4.000    0.000    2.400    0.000    0.000 
#    0.000    0.000    0.000    0.000    0.000    0.000 
#
# Total GULP energy -111386.527582 kJ/mol
# GULP energy per Si atom -5569.326379 kJ/mol
# Density = 2.116977 g / cm^3
# Si number density = 21.218060 Si / 1000 Ang^3
#
#
#
# Elastic Constant Matrix: (Units=GPa)
#
#
# Indices 1 2 3 4 5 6 
#
# 1 128.1069 15.3043 -6.4831 0.0000 0.0000 0.0000
# 2 15.3043 148.9561 36.6206 0.0000 0.0000 0.0000
# 3 -6.4831 36.6206 30.8030 0.0000 0.0000 0.0000
# 4 0.0000 0.0000 0.0000 -28.3988 0.0000 0.0000
# 5 0.0000 0.0000 0.0000 0.0000 -13.1318 0.0000
# 6 0.0000 0.0000 0.0000 0.0000 0.0000 22.6468
#
#
#
# Elastic Compliance Matrix: (Units=1/GPa)
#
#
# Indices 1 2 3 4 5 6 
#
# 1 0.008216 -0.001793 0.003861 0.000000 0.000000 0.000000
# 2 -0.001793 0.009877 -0.012120 0.000000 0.000000 0.000000
# 3 0.003861 -0.012120 0.047687 0.000000 0.000000 0.000000
# 4 0.000000 0.000000 0.000000 -0.035213 0.000000 0.000000
# 5 0.000000 0.000000 0.000000 0.000000 -0.076151 0.000000
# 6 0.000000 0.000000 0.000000 0.000000 0.000000 0.044156
#
#
# Mechanical properties :
#
#
# Convention : Reuss Voigt Hill
#
# Bulk Modulus (GPa) = 21.89401 44.30548 33.09975
# Shear Modulus (GPa) = 147.48358 13.71820 80.60089
#
# Velocity S-wave (km/s) = 8.34622 2.54546 6.17004
# Velocity P-wave (km/s) = 10.15973 5.43742 8.14818
#
# Compressibility (1/GPa) = 0.04567459
#
# Stress axis : x y z
#
# Youngs Moduli (GPa) = 121.71915 101.24114 20.97027
#
# Poissons Ratio (x) = 0.18156 -0.08097
# Poissons Ratio (y) = 0.21829 0.25417
# Poissons Ratio (z) = -0.46999 1.22708
#
# Static dielectric constant tensor:
#      x y z
#    x 1.896420 0.000000 0.000000 
#    y 0.000000 1.796650 0.000000 
#    z 0.000000 0.000000 1.757170 
# 
# From -- ./inp_files/34643.got.cif
#   From: 2010.05.17/outbox.cif.g08.bks.cpg/sg21_18_cif.got.tgz:34643.got - 2010.06.03 23:14:55.
