data_PCOD9322683
_publ_section_title
;
Structure prediction by ZEFSAII (Michael W. Deem and Ramdas Pophale) SiO2 
 PCOD9322683
Probable space group: C 2 2 2
;
_chemical_formula_sum "Si O2"
_cell_formula_units_Z 58
_cell_length_a 14.749593
_cell_length_b 23.122836
_cell_length_c 8.857401
_cell_angle_alpha 90.000000
_cell_angle_beta 90.000000
_cell_angle_gamma 90.000000
_cell_volume 3020.838046
_symmetry_space_group_name_H-M "C 2 2 2"
_symmetry_group_IT_number 21
_symmetry_cell_setting 'orthorhombic'
loop_
_space_group_symop_operation_xyz
x,y,z
-x,-y,z
x,-y,-z
-x,y,-z
1/2+x,1/2+y,z
1/2-x,1/2-y,z
1/2+x,1/2-y,-z
1/2-x,1/2+y,-z
loop_
_atom_site_type_symbol
_atom_site_label
_atom_site_fract_x
_atom_site_fract_y
_atom_site_fract_z
Si Si1 0.500000 0.000000 0.000000
Si Si2 0.605210 0.870858 0.549103
Si Si3 0.745820 0.612751 0.093427
Si Si4 0.842390 0.784076 0.915594
Si Si5 0.345579 0.943442 0.175219
Si Si6 0.428821 0.185070 0.116950
Si Si7 0.051889 0.252665 0.637854
Si Si8 0.758883 0.543525 0.372786
O O1 0.561482 0.038639 0.102989
O O2 0.500000 0.884277 0.500000
O O3 0.633519 0.889672 0.717807
O O4 0.614415 0.801326 0.556157
O O5 0.673652 0.910081 0.451136
O O6 0.840292 0.645539 0.140170
O O7 0.707888 0.580478 0.242122
O O8 0.681711 0.658890 0.009800
O O9 0.776237 0.570144 0.958882
O O10 0.750000 0.750000 0.878431
O O11 0.897585 0.787313 0.758960
O O12 0.895207 0.741802 0.028416
O O13 0.315095 0.997326 0.275505
O O14 0.481992 0.207488 0.263748
O O15 0.500000 0.157337 0.000000
O O16 0.000000 0.222259 0.500000
O O17 0.715487 0.500000 0.500000
#
# Coordination Sequence:
#
# PCOD9322683 Si02
#       8
#     2   8   8   8   8   8   8   8
#     4  12  20  24  42  68 100 136 192 240 244 288
#     4  10  19  30  45  66 100 138 176 223 274 310
#     4  11  19  33  51  71 100 143 185 225 276 318
#     4   9  19  34  51  74 102 137 184 232 271 325
#     4  11  21  29  45  69 100 142 190 229 256 305
#     4   9  18  31  51  72  98 134 182 227 266 325
#     4  10  19  33  52  77 103 138 179 227 277 332
#     4  10  21  34  43  66 101 140 182 224 266 318
#
# _framework density 19.199971000000001
#
# number of rings (size 3 to 8) (size 9 to 14) (size 15 to 20)
#    0.000    1.931    1.379    4.966    2.897    1.931 
#    0.000    6.207    0.000    0.000    0.000    0.000 
#    0.000   19.862    0.000   88.966    0.000    3.310 
#
# Total GULP energy -161538.719709 kJ/mol
# GULP energy per Si atom -5570.300680 kJ/mol
# Density = 1.915627 g / cm^3
# Si number density = 19.199971 Si / 1000 Ang^3
#
#
#
# Elastic Constant Matrix: (Units=GPa)
#
#
# Indices 1 2 3 4 5 6 
#
# 1 26.0393 20.5524 24.4316 0.0000 0.0000 0.0000
# 2 20.5524 72.0497 41.0214 0.0000 0.0000 0.0000
# 3 24.4316 41.0214 136.5205 0.0000 0.0000 0.0000
# 4 0.0000 0.0000 0.0000 20.3538 0.0000 0.0000
# 5 0.0000 0.0000 0.0000 0.0000 24.6581 0.0000
# 6 0.0000 0.0000 0.0000 0.0000 0.0000 15.1764
#
#
#
# Elastic Compliance Matrix: (Units=1/GPa)
#
#
# Indices 1 2 3 4 5 6 
#
# 1 0.053349 -0.011801 -0.006001 0.000000 0.000000 0.000000
# 2 -0.011801 0.019354 -0.003704 0.000000 0.000000 0.000000
# 3 -0.006001 -0.003704 0.009512 0.000000 0.000000 0.000000
# 4 0.000000 0.000000 0.000000 0.049131 0.000000 0.000000
# 5 0.000000 0.000000 0.000000 0.000000 0.040555 0.000000
# 6 0.000000 0.000000 0.000000 0.000000 0.000000 0.065892
#
#
# Mechanical properties :
#
#
# Convention : Reuss Voigt Hill
#
# Bulk Modulus (GPa) = 25.50843 45.18003 35.34423
# Shear Modulus (GPa) = 17.01424 21.94459 19.47941
#
# Velocity S-wave (km/s) = 2.98007 3.38442 3.18866
# Velocity P-wave (km/s) = 5.01554 6.23336 5.65731
#
# Compressibility (1/GPa) = 0.03920273
#
# Stress axis : x y z
#
# Youngs Moduli (GPa) = 18.74465 51.66822 105.13320
#
# Poissons Ratio (x) = 0.60974 0.63093
# Poissons Ratio (y) = 0.22121 0.38937
# Poissons Ratio (z) = 0.11249 0.19136
#
# Static dielectric constant tensor:
#      x y z
#    x 1.703250 0.000000 0.000000 
#    y 0.000000 1.702420 0.000000 
#    z 0.000000 0.000000 1.735480 
# 
# From -- ./inp_files/15428.got.cif
#   From: 2010.05.17/outbox.cif.g08.bks.cpg/sg21_8_cif.got.tgz:15428.got - 2010.06.03 23:14:55.
