data_PCOD9322850
_publ_section_title
;
Structure prediction by ZEFSAII (Michael W. Deem and Ramdas Pophale) SiO2 
 PCOD9322850
Probable space group: C 2 2 2
;
_chemical_formula_sum "Si O2"
_cell_formula_units_Z 32
_cell_length_a 35.478385
_cell_length_b 8.410831
_cell_length_c 5.206974
_cell_angle_alpha 90.000000
_cell_angle_beta 90.000000
_cell_angle_gamma 90.000000
_cell_volume 1553.775102
_symmetry_space_group_name_H-M "C 2 2 2"
_symmetry_group_IT_number 21
_symmetry_cell_setting 'orthorhombic'
loop_
_space_group_symop_operation_xyz
x,y,z
-x,-y,z
x,-y,-z
-x,y,-z
1/2+x,1/2+y,z
1/2-x,1/2-y,z
1/2+x,1/2-y,-z
1/2-x,1/2+y,-z
loop_
_atom_site_type_symbol
_atom_site_label
_atom_site_fract_x
_atom_site_fract_y
_atom_site_fract_z
Si Si1 0.516924 0.680868 0.752754
Si Si2 0.895294 0.828511 0.879150
Si Si3 0.278920 0.106671 0.254320
Si Si4 0.134851 0.328179 0.382167
O O1 0.500000 0.500000 0.751645
O O2 0.500000 0.757429 0.500000
O O3 0.561522 0.672748 0.782182
O O4 0.500000 0.763564 0.000000
O O5 0.871808 0.788933 0.623257
O O6 0.887850 0.712465 0.121897
O O7 0.886608 0.000000 0.000000
O O8 0.250000 0.250000 0.224804
O O9 0.321314 0.167900 0.304924
O O10 0.268264 0.000000 0.500000
O O11 0.279258 0.000000 0.000000
O O12 0.124508 0.500000 0.500000
#
# Coordination Sequence:
#
# PCOD9322850 Si02
#       4
#     8   8   8   8
#     4  10  19  34  59  91 125 159 210 275 342 366
#     4  12  23  39  68 103 123 171 232 283 312 390
#     4  11  24  45  71  97 133 180 220 268 328 395
#     4  11  25  44  63  94 144 180 206 260 357 403
#
# _framework density 20.595002000000001
#
# number of rings (size 3 to 8) (size 9 to 14) (size 15 to 20)
#    0.000    1.000    2.500    6.750    3.500    3.000 
#    0.000    0.000    0.000   11.250    0.000    0.000 
#    0.000    0.000    0.000    0.000    0.000    0.000 
#
# Total GULP energy -89385.972701 kJ/mol
# GULP energy per Si atom -5586.623294 kJ/mol
# Density = 2.054813 g / cm^3
# Si number density = 20.595002 Si / 1000 Ang^3
#
#
#
# Elastic Constant Matrix: (Units=GPa)
#
#
# Indices 1 2 3 4 5 6 
#
# 1 121.1542 82.7561 91.5647 0.0000 0.0000 0.0000
# 2 82.7561 73.3147 65.0540 0.0000 0.0000 0.0000
# 3 91.5647 65.0540 239.6116 0.0000 0.0000 0.0000
# 4 0.0000 0.0000 0.0000 18.1435 0.0000 0.0000
# 5 0.0000 0.0000 0.0000 0.0000 59.9281 0.0000
# 6 0.0000 0.0000 0.0000 0.0000 0.0000 -21.4307
#
#
#
# Elastic Compliance Matrix: (Units=1/GPa)
#
#
# Indices 1 2 3 4 5 6 
#
# 1 0.038561 -0.040116 -0.003844 0.000000 0.000000 0.000000
# 2 -0.040116 0.059701 -0.000879 0.000000 0.000000 0.000000
# 3 -0.003844 -0.000879 0.005881 0.000000 0.000000 0.000000
# 4 0.000000 0.000000 0.000000 0.055116 0.000000 0.000000
# 5 0.000000 0.000000 0.000000 0.000000 0.016687 0.000000
# 6 0.000000 0.000000 0.000000 0.000000 0.000000 -0.046662
#
#
# Mechanical properties :
#
#
# Convention : Reuss Voigt Hill
#
# Bulk Modulus (GPa) = 69.12976 101.42556 85.27766
# Shear Modulus (GPa) = 22.34297 24.30856 23.32577
#
# Velocity S-wave (km/s) = 3.29732 3.43930 3.36905
# Velocity P-wave (km/s) = 6.93798 8.07008 7.52535
#
# Compressibility (1/GPa) = 0.01446555
#
# Stress axis : x y z
#
# Youngs Moduli (GPa) = 25.93306 16.75001 170.03461
#
# Poissons Ratio (x) = 0.67194 0.65366
# Poissons Ratio (y) = 1.04032 0.14948
# Poissons Ratio (z) = 0.09969 0.01473
#
# Static dielectric constant tensor:
#      x y z
#    x 1.722030 0.000000 0.000000 
#    y 0.000000 1.737380 0.000000 
#    z 0.000000 0.000000 1.763010 
# 
# From -- ./inp_files/7694.got.cif
#   From: 2010.05.17/outbox.cif.g08.bks.cpg/sg21_4_cif.got.tgz:7694.got - 2010.06.03 23:14:55.
