data_PCOD9322770
_publ_section_title
;
Structure prediction by ZEFSAII (Michael W. Deem and Ramdas Pophale) SiO2 
 PCOD9322770
Probable space group: C 2 2 2
;
_chemical_formula_sum "Si O2"
_cell_formula_units_Z 56
_cell_length_a 9.961095
_cell_length_b 23.412085
_cell_length_c 15.304560
_cell_angle_alpha 90.000000
_cell_angle_beta 90.000000
_cell_angle_gamma 90.000000
_cell_volume 3569.176481
_symmetry_space_group_name_H-M "C 2 2 2"
_symmetry_group_IT_number 21
_symmetry_cell_setting 'orthorhombic'
loop_
_space_group_symop_operation_xyz
x,y,z
-x,-y,z
x,-y,-z
-x,y,-z
1/2+x,1/2+y,z
1/2-x,1/2-y,z
1/2+x,1/2-y,-z
1/2-x,1/2+y,-z
loop_
_atom_site_type_symbol
_atom_site_label
_atom_site_fract_x
_atom_site_fract_y
_atom_site_fract_z
Si Si1 0.653866 0.069239 1.000000
Si Si2 0.656382 0.304770 0.500000
Si Si3 0.653455 0.568091 0.841422
Si Si4 0.345535 0.602195 0.350969
Si Si5 0.850547 0.500000 0.603456
Si Si6 0.845535 0.897805 0.350969
Si Si7 0.153455 0.931909 0.841422
O O1 0.738749 0.084924 0.085928
O O2 0.500000 0.089599 0.000000
O O3 0.738749 0.084924 0.914072
O O4 0.650506 0.000000 0.000000
O O5 0.500000 0.287849 0.500000
O O6 0.750000 0.250000 0.500000
O O7 0.678331 0.343700 0.413456
O O8 0.678331 0.343700 0.586544
O O9 0.662921 0.605982 0.754008
O O10 0.673062 0.500000 0.818986
O O11 0.500000 0.572197 0.874905
O O12 0.236293 0.554950 0.373317
O O13 0.500000 0.583061 0.369781
O O14 0.864487 0.500000 0.500000
O O15 0.763707 0.445050 0.626683
O O16 0.000000 0.500000 0.643602
O O17 0.837079 0.894018 0.245992
#
# Coordination Sequence:
#
# PCOD9322770 Si02
#       7
#     8   8   8   8   8   8   8
#     4   9  17  27  39  61  98 135 158 185 232 286
#     4  10  22  37  54  71  95 128 166 206 247 292
#     4   9  16  27  45  68  93 125 164 198 229 276
#     4  10  19  33  52  71  94 131 169 201 238 289
#     4  11  21  29  43  72 103 128 155 199 248 288
#     4  10  19  33  52  71  94 131 169 201 238 289
#     4   9  16  27  45  68  93 125 164 198 229 276
#
# _framework density 15.689894000000001
#
# number of rings (size 3 to 8) (size 9 to 14) (size 15 to 20)
#    0.000    2.286    2.857    0.857    0.000    4.571 
#    0.000    0.000    0.000    0.000    0.000    1.000 
#    0.000    0.000    0.000    0.000    0.000    0.000 
#
# Total GULP energy -155891.695269 kJ/mol
# GULP energy per Si atom -5567.560545 kJ/mol
# Density = 1.565418 g / cm^3
# Si number density = 15.689894 Si / 1000 Ang^3
#
#
#
# Elastic Constant Matrix: (Units=GPa)
#
#
# Indices 1 2 3 4 5 6 
#
# 1 145.7416 67.7038 72.2907 0.0000 0.0000 0.0000
# 2 67.7038 64.4145 35.4280 0.0000 0.0000 0.0000
# 3 72.2907 35.4280 106.3564 0.0000 0.0000 0.0000
# 4 0.0000 0.0000 0.0000 4.5018 0.0000 0.0000
# 5 0.0000 0.0000 0.0000 0.0000 21.3977 0.0000
# 6 0.0000 0.0000 0.0000 0.0000 0.0000 25.3137
#
#
#
# Elastic Compliance Matrix: (Units=1/GPa)
#
#
# Indices 1 2 3 4 5 6 
#
# 1 0.016546 -0.013719 -0.006677 0.000000 0.000000 0.000000
# 2 -0.013719 0.030382 -0.000795 0.000000 0.000000 0.000000
# 3 -0.006677 -0.000795 0.014205 0.000000 0.000000 0.000000
# 4 0.000000 0.000000 0.000000 0.222136 0.000000 0.000000
# 5 0.000000 0.000000 0.000000 0.000000 0.046734 0.000000
# 6 0.000000 0.000000 0.000000 0.000000 0.000000 0.039504
#
#
# Mechanical properties :
#
#
# Convention : Reuss Voigt Hill
#
# Bulk Modulus (GPa) = 53.33032 74.15085 63.74058
# Shear Modulus (GPa) = 11.95770 19.64862 15.80316
#
# Velocity S-wave (km/s) = 2.76366 3.54264 3.17711
# Velocity P-wave (km/s) = 6.65190 8.00603 7.36018
#
# Compressibility (1/GPa) = 0.01875106
#
# Stress axis : x y z
#
# Youngs Moduli (GPa) = 60.43587 32.91455 70.39548
#
# Poissons Ratio (x) = 0.45156 0.47001
# Poissons Ratio (y) = 0.82913 0.05599
# Poissons Ratio (z) = 0.40351 0.02618
#
# Static dielectric constant tensor:
#      x y z
#    x 1.550750 0.000000 0.000000 
#    y 0.000000 1.498190 0.000000 
#    z 0.000000 0.000000 1.556850 
# 
# From -- ./inp_files/30754.got.cif
#   From: 2010.05.17/outbox.cif.g08.bks.cpg/sg21_16_cif.got.tgz:30754.got - 2010.06.03 23:14:55.
