data_PCOD9322508
_publ_section_title
;
Structure prediction by ZEFSAII (Michael W. Deem and Ramdas Pophale) SiO2 
 PCOD9322508
Probable space group: C 2 2 2
;
_chemical_formula_sum "Si O2"
_cell_formula_units_Z 56
_cell_length_a 23.743338
_cell_length_b 8.575641
_cell_length_c 15.819584
_cell_angle_alpha 90.000000
_cell_angle_beta 90.000000
_cell_angle_gamma 90.000000
_cell_volume 3221.094200
_symmetry_space_group_name_H-M "C 2 2 2"
_symmetry_group_IT_number 21
_symmetry_cell_setting 'orthorhombic'
loop_
_space_group_symop_operation_xyz
x,y,z
-x,-y,z
x,-y,-z
-x,y,-z
1/2+x,1/2+y,z
1/2-x,1/2-y,z
1/2+x,1/2-y,-z
1/2-x,1/2+y,-z
loop_
_atom_site_type_symbol
_atom_site_label
_atom_site_fract_x
_atom_site_fract_y
_atom_site_fract_z
Si Si1 0.002770 0.312718 0.099494
Si Si2 0.186053 0.313021 0.683432
Si Si3 0.114353 0.812829 0.160864
Si Si4 0.814032 0.685059 0.327884
Si Si5 0.687878 0.312783 0.999734
Si Si6 0.878834 0.812033 0.166422
Si Si7 0.686087 0.686165 0.505617
O O1 0.949493 0.241352 0.148209
O O2 0.000000 0.500000 0.102561
O O3 0.060269 0.254019 0.141650
O O4 0.000000 0.265156 0.000000
O O5 0.250000 0.250000 0.697191
O O6 0.146432 0.262540 0.760230
O O7 0.188980 0.498803 0.674932
O O8 0.162639 0.242068 0.595452
O O9 0.117828 0.000100 0.168609
O O10 0.147171 0.763482 0.075619
O O11 0.750000 0.750000 0.318191
O O12 0.852948 0.748718 0.253041
O O13 0.837125 0.742057 0.418886
O O14 0.750000 0.250000 0.013148
O O15 0.662770 0.263265 0.909844
O O16 0.689600 0.500000 0.000000
O O17 0.686074 0.500000 0.500000
O O18 0.750000 0.750000 0.507874
#
# Coordination Sequence:
#
# PCOD9322508 Si02
#       7
#     8   8   8   8   8   8   8
#     4  11  23  39  59  82 107 144 191 237 281 330
#     4  11  21  35  55  84 117 150 186 230 280 336
#     4  11  22  38  57  80 109 148 189 233 279 330
#     4  11  21  35  55  84 117 150 186 230 280 336
#     4  10  22  35  52  77 109 144 180 222 275 328
#     4  11  22  38  57  80 109 148 189 233 279 330
#     4  10  18  32  54  81 112 149 186 226 275 334
#
# _framework density 17.385396
#
# number of rings (size 3 to 8) (size 9 to 14) (size 15 to 20)
#    0.000    1.286    1.429    7.714    0.000    5.143 
#    0.000    0.000    0.000    0.857    0.000    6.000 
#    0.000    0.000    0.000    0.000    0.000    0.000 
#
# Total GULP energy -156430.023068 kJ/mol
# GULP energy per Si atom -5586.786538 kJ/mol
# Density = 1.734583 g / cm^3
# Si number density = 17.385396 Si / 1000 Ang^3
#
#
#
# Elastic Constant Matrix: (Units=GPa)
#
#
# Indices 1 2 3 4 5 6 
#
# 1 58.3333 1.8550 3.2731 0.0000 0.0000 0.0000
# 2 1.8550 97.2338 17.9394 0.0000 0.0000 0.0000
# 3 3.2731 17.9394 98.7635 0.0000 0.0000 0.0000
# 4 0.0000 0.0000 0.0000 14.4215 0.0000 0.0000
# 5 0.0000 0.0000 0.0000 0.0000 -1.9721 0.0000
# 6 0.0000 0.0000 0.0000 0.0000 0.0000 29.5243
#
#
#
# Elastic Compliance Matrix: (Units=1/GPa)
#
#
# Indices 1 2 3 4 5 6 
#
# 1 0.017180 -0.000230 -0.000528 0.000000 0.000000 0.000000
# 2 -0.000230 0.010644 -0.001926 0.000000 0.000000 0.000000
# 3 -0.000528 -0.001926 0.010492 0.000000 0.000000 0.000000
# 4 0.000000 0.000000 0.000000 0.069341 0.000000 0.000000
# 5 0.000000 0.000000 0.000000 0.000000 -0.507072 0.000000
# 6 0.000000 0.000000 0.000000 0.000000 0.000000 0.033870
#
#
# Mechanical properties :
#
#
# Convention : Reuss Voigt Hill
#
# Bulk Modulus (GPa) = 30.34989 33.38507 31.86748
# Shear Modulus (GPa) = -14.31868 23.81227 4.74679
#
# Velocity S-wave (km/s) = -2.87296 3.70492 1.65416
# Velocity P-wave (km/s) = 2.54751 6.12752 4.69235
#
# Compressibility (1/GPa) = 0.03294905
#
# Stress axis : x y z
#
# Youngs Moduli (GPa) = 58.20790 93.94799 95.30635
#
# Poissons Ratio (x) = 0.02165 0.05027
# Poissons Ratio (y) = 0.01341 0.18354
# Poissons Ratio (z) = 0.03070 0.18092
#
# Static dielectric constant tensor:
#      x y z
#    x 1.545870 0.000000 0.000000 
#    y 0.000000 1.584550 0.000000 
#    z 0.000000 0.000000 1.608840 
# 
# From -- ./inp_files/30745.got.cif
#   From: 2010.05.17/outbox.cif.g08.bks.cpg/sg21_16_cif.got.tgz:30745.got - 2010.06.03 23:14:55.
