data_PCOD9322506
_publ_section_title
;
Structure prediction by ZEFSAII (Michael W. Deem and Ramdas Pophale) SiO2 
 PCOD9322506
Probable space group: C 2 2 2
;
_chemical_formula_sum "Si O2"
_cell_formula_units_Z 48
_cell_length_a 9.876951
_cell_length_b 20.919752
_cell_length_c 13.377979
_cell_angle_alpha 90.000000
_cell_angle_beta 90.000000
_cell_angle_gamma 90.000000
_cell_volume 2764.203044
_symmetry_space_group_name_H-M "C 2 2 2"
_symmetry_group_IT_number 21
_symmetry_cell_setting 'orthorhombic'
loop_
_space_group_symop_operation_xyz
x,y,z
-x,-y,z
x,-y,-z
-x,y,-z
1/2+x,1/2+y,z
1/2-x,1/2-y,z
1/2+x,1/2-y,-z
1/2-x,1/2+y,-z
loop_
_atom_site_type_symbol
_atom_site_label
_atom_site_fract_x
_atom_site_fract_y
_atom_site_fract_z
Si Si1 0.006517 0.703708 0.884768
Si Si2 0.222514 0.636201 0.233800
Si Si3 0.287184 0.119574 0.242970
Si Si4 0.335722 0.995045 0.118731
Si Si5 0.000740 0.672576 0.381807
Si Si6 0.484260 0.306016 0.257568
O O1 0.862845 0.684894 0.835928
O O2 0.126151 0.662591 0.835199
O O3 0.033183 0.775929 0.852965
O O4 0.000000 0.691214 0.000000
O O5 0.209969 0.570211 0.172889
O O6 0.136224 0.640922 0.336132
O O7 0.373377 0.658085 0.257773
O O8 0.278534 0.052175 0.187239
O O9 0.381429 0.126895 0.340674
O O10 0.143488 0.148841 0.272176
O O11 0.500000 0.000000 0.123143
O O12 0.299428 0.000000 0.000000
O O13 0.000000 0.678218 0.500000
O O14 0.984207 0.743767 0.331418
#
# Coordination Sequence:
#
# PCOD9322506 Si02
#       6
#     8   8   8   8   8   8
#     4  10  18  32  53  74 105 147 184 223 274 329
#     4  10  21  36  54  82 111 143 187 229 273 324
#     4  10  21  36  54  82 111 143 187 229 273 324
#     4  11  20  37  61  79 108 154 195 226 265 325
#     4  10  20  38  64  85 106 145 189 228 279 340
#     4  10  22  35  51  82 119 140 173 235 285 331
#
# _framework density 17.364861000000001
#
# number of rings (size 3 to 8) (size 9 to 14) (size 15 to 20)
#    0.000    2.167    3.333    5.000    0.000    7.333 
#    0.000    2.500    0.000    0.000    0.000    3.500 
#    0.000    0.000    0.000    0.000    0.000    0.000 
#
# Total GULP energy -133681.073527 kJ/mol
# GULP energy per Si atom -5570.044730 kJ/mol
# Density = 1.732534 g / cm^3
# Si number density = 17.364861 Si / 1000 Ang^3
#
#
#
# Elastic Constant Matrix: (Units=GPa)
#
#
# Indices 1 2 3 4 5 6 
#
# 1 45.4565 -2.6735 13.4026 0.0000 0.0000 0.0000
# 2 -2.6735 71.4319 22.4790 0.0000 0.0000 0.0000
# 3 13.4026 22.4790 129.7502 0.0000 0.0000 0.0000
# 4 0.0000 0.0000 0.0000 13.4349 0.0000 0.0000
# 5 0.0000 0.0000 0.0000 0.0000 1.9997 0.0000
# 6 0.0000 0.0000 0.0000 0.0000 0.0000 13.5447
#
#
#
# Elastic Compliance Matrix: (Units=1/GPa)
#
#
# Indices 1 2 3 4 5 6 
#
# 1 0.022882 0.001692 -0.002657 0.000000 0.000000 0.000000
# 2 0.001692 0.014932 -0.002762 0.000000 0.000000 0.000000
# 3 -0.002657 -0.002762 0.008460 0.000000 0.000000 0.000000
# 4 0.000000 0.000000 0.000000 0.074433 0.000000 0.000000
# 5 0.000000 0.000000 0.000000 0.000000 0.500087 0.000000
# 6 0.000000 0.000000 0.000000 0.000000 0.000000 0.073830
#
#
# Mechanical properties :
#
#
# Convention : Reuss Voigt Hill
#
# Bulk Modulus (GPa) = 25.75886 34.78388 30.27137
# Shear Modulus (GPa) = 6.99285 20.02454 13.50869
#
# Velocity S-wave (km/s) = 2.00892 3.39951 2.79217
# Velocity P-wave (km/s) = 4.49968 5.95681 5.27876
#
# Compressibility (1/GPa) = 0.03882160
#
# Stress axis : x y z
#
# Youngs Moduli (GPa) = 43.70254 66.97122 118.20298
#
# Poissons Ratio (x) = -0.11335 0.31405
# Poissons Ratio (y) = -0.07397 0.32645
# Poissons Ratio (z) = 0.11611 0.18496
#
# Static dielectric constant tensor:
#      x y z
#    x 1.591330 0.000000 0.000000 
#    y 0.000000 1.626700 0.000000 
#    z 0.000000 0.000000 1.585120 
# 
# From -- ./inp_files/30651.got.cif
#   From: 2010.05.17/outbox.cif.g08.bks.cpg/sg21_16_cif.got.tgz:30651.got - 2010.06.03 23:14:55.
