data_PCOD9322469
_publ_section_title
;
Structure prediction by ZEFSAII (Michael W. Deem and Ramdas Pophale) SiO2 
 PCOD9322469
Probable space group: C 2 2 2
;
_chemical_formula_sum "Si O2"
_cell_formula_units_Z 64
_cell_length_a 12.268261
_cell_length_b 14.642902
_cell_length_c 16.368111
_cell_angle_alpha 90.000000
_cell_angle_beta 90.000000
_cell_angle_gamma 90.000000
_cell_volume 2940.415640
_symmetry_space_group_name_H-M "C 2 2 2"
_symmetry_group_IT_number 21
_symmetry_cell_setting 'orthorhombic'
loop_
_space_group_symop_operation_xyz
x,y,z
-x,-y,z
x,-y,-z
-x,y,-z
1/2+x,1/2+y,z
1/2-x,1/2-y,z
1/2+x,1/2-y,-z
1/2-x,1/2+y,-z
loop_
_atom_site_type_symbol
_atom_site_label
_atom_site_fract_x
_atom_site_fract_y
_atom_site_fract_z
Si Si1 0.957941 0.105221 0.418010
Si Si2 0.870134 0.262322 0.178292
Si Si3 0.465528 0.096069 0.094148
Si Si4 0.249570 0.352897 0.167589
Si Si5 0.106554 0.377808 0.660893
Si Si6 0.650563 0.908883 0.337115
Si Si7 0.218147 0.395986 0.510370
Si Si8 0.514505 0.392264 0.762872
O O1 0.830124 0.099689 0.438900
O O2 0.000000 0.152927 0.500000
O O3 0.001702 0.142315 0.331668
O O4 0.000000 0.000000 0.417860
O O5 0.750000 0.250000 0.140170
O O6 0.963092 0.323080 0.134062
O O7 0.856272 0.313993 0.265335
O O8 0.920601 0.162664 0.191290
O O9 0.335365 0.099064 0.106732
O O10 0.500000 0.000000 0.134168
O O11 0.500000 0.095715 0.000000
O O12 0.250000 0.250000 0.138298
O O13 0.192105 0.362494 0.255346
O O14 0.372898 0.378790 0.188793
O O15 0.157782 0.480164 0.671645
O O16 0.141843 0.341529 0.571885
O O17 0.977087 0.388219 0.656950
O O18 0.716938 0.870240 0.415392
O O19 0.173597 0.500000 0.500000
O O20 0.500000 0.500000 0.759062
#
# Coordination Sequence:
#
# PCOD9322469 Si02
#       8
#     8   8   8   8   8   8   8   8
#     4  10  18  33  51  84 126 181 241 287 332 398
#     4  12  25  45  69 106 144 180 232 293 355 425
#     4  11  26  50  81 110 135 178 226 279 357 436
#     4  12  23  44  71 101 144 179 228 288 343 424
#     4  10  20  36  58  89 130 177 238 294 349 414
#     4  10  20  34  61  92 127 184 235 291 353 406
#     4  10  18  30  53  86 128 176 234 299 348 393
#     4  11  26  41  68 104 141 194 241 284 351 413
#
# _framework density 21.765630000000002
#
# number of rings (size 3 to 8) (size 9 to 14) (size 15 to 20)
#    0.000    1.250    3.750    2.625    8.750    2.000 
#    0.000    4.375    0.000    0.375    0.000    0.000 
#    0.000    0.000    0.000    0.000    0.000    0.000 
#
# Total GULP energy -178533.275970 kJ/mol
# GULP energy per Si atom -5579.164874 kJ/mol
# Density = 2.171609 g / cm^3
# Si number density = 21.765630 Si / 1000 Ang^3
#
#
#
# Elastic Constant Matrix: (Units=GPa)
#
#
# Indices 1 2 3 4 5 6 
#
# 1 117.0250 10.2316 9.3262 0.0000 0.0000 0.0000
# 2 10.2316 61.1383 -6.6549 0.0000 0.0000 0.0000
# 3 9.3262 -6.6549 57.2163 0.0000 0.0000 0.0000
# 4 0.0000 0.0000 0.0000 68.6220 0.0000 0.0000
# 5 0.0000 0.0000 0.0000 0.0000 21.4457 0.0000
# 6 0.0000 0.0000 0.0000 0.0000 0.0000 31.3432
#
#
#
# Elastic Compliance Matrix: (Units=1/GPa)
#
#
# Indices 1 2 3 4 5 6 
#
# 1 0.008820 -0.001653 -0.001630 0.000000 0.000000 0.000000
# 2 -0.001653 0.016876 0.002232 0.000000 0.000000 0.000000
# 3 -0.001630 0.002232 0.018003 0.000000 0.000000 0.000000
# 4 0.000000 0.000000 0.000000 0.014573 0.000000 0.000000
# 5 0.000000 0.000000 0.000000 0.000000 0.046629 0.000000
# 6 0.000000 0.000000 0.000000 0.000000 0.000000 0.031905
#
#
# Mechanical properties :
#
#
# Convention : Reuss Voigt Hill
#
# Bulk Modulus (GPa) = 24.04035 29.02059 26.53047
# Shear Modulus (GPa) = 32.72833 39.11395 35.92114
#
# Velocity S-wave (km/s) = 3.88193 4.24376 4.06687
# Velocity P-wave (km/s) = 5.58225 6.11350 5.85390
#
# Compressibility (1/GPa) = 0.04159673
#
# Stress axis : x y z
#
# Youngs Moduli (GPa) = 113.38339 59.25554 55.54673
#
# Poissons Ratio (x) = 0.09797 0.09054
# Poissons Ratio (y) = 0.18747 -0.12400
# Poissons Ratio (z) = 0.18480 -0.13228
#
# Static dielectric constant tensor:
#      x y z
#    x 1.804230 0.000000 0.000000 
#    y 0.000000 1.837470 0.000000 
#    z 0.000000 0.000000 1.838460 
# 
# From -- ./inp_files/36268.got.cif
#   From: 2010.05.17/outbox.cif.g08.bks.cpg/sg21_19_cif.got.tgz:36268.got - 2010.06.03 23:14:55.
