data_PCOD9322174
_publ_section_title
;
Structure prediction by ZEFSAII (Michael W. Deem and Ramdas Pophale) SiO2 
 PCOD9322174
Probable space group: C 2 2 21
;
_chemical_formula_sum "Si O2"
_cell_formula_units_Z 24
_cell_length_a 15.000000
_cell_length_b 9.000000
_cell_length_c 18.000000
_cell_angle_alpha 90.000000
_cell_angle_beta 90.000000
_cell_angle_gamma 90.000000
_cell_volume 2430.000000
_symmetry_space_group_name_H-M "C 2 2 21"
_symmetry_group_IT_number 20
_symmetry_cell_setting 'orthorhombic'
loop_
_space_group_symop_operation_xyz
x,y,z
-x,-y,1/2+z
x,-y,-z
-x,y,1/2-z
1/2+x,1/2+y,z
1/2-x,1/2-y,1/2+z
1/2+x,1/2-y,-z
1/2-x,1/2+y,1/2-z
loop_
_atom_site_type_symbol
_atom_site_label
_atom_site_fract_x
_atom_site_fract_y
_atom_site_fract_z
Si Si1 0.813977 0.006783 0.157288
Si Si2 0.990749 0.092235 0.340287
Si Si3 0.175900 0.929231 0.079568
Si Si4 0.651316 0.084682 0.068685
Si Si5 0.738453 0.821795 0.275904
Si Si6 0.436576 0.081990 0.688242
O O1 0.743775 0.000028 0.090096
O O2 0.774137 0.150011 0.202262
O O3 0.912875 0.042501 0.130769
O O4 0.812264 0.869707 0.215071
O O5 0.975956 0.269334 0.349158
O O6 0.000000 0.069064 0.250000
O O7 0.910123 0.008638 0.382196
O O8 0.159645 0.757922 0.059015
O O9 0.245782 0.914052 0.148173
O O10 0.200834 0.000000 0.000000
O O11 0.586836 0.050782 0.135651
O O12 0.611857 0.000000 0.000000
O O13 0.650196 0.863248 0.231793
O O14 0.500000 0.022552 0.750000
#
# Coordination Sequence:
#
# PCOD9322174 Si02
#       6
#     8   8   8   8   8   8
#     4  10  20  35  62  87 115 149 194 238 289 352
#     4  11  19  37  63  91 117 153 192 246 294 349
#     4  11  23  37  60  82 120 156 198 241 294 351
#     4  10  23  40  57  83 120 156 195 241 299 353
#     4  10  18  36  56  90 109 153 193 236 286 352
#     4  10  19  36  65  86 119 153 193 241 297 350
#
# _framework density 9.8765429999999999
#
# number of rings (size 3 to 8) (size 9 to 14) (size 15 to 20)
#    0.000    1.667    5.000    1.000    0.000    2.667 
#    3.000    0.833    3.667    0.000    0.000    0.000 
#    0.000    0.000    0.000    0.000    0.000    0.000 
#
# Total GULP energy -133629.035753 kJ/mol
# GULP energy per Si atom -5567.876490 kJ/mol
# Density = 0.985406 g / cm^3
# Si number density = 9.876543 Si / 1000 Ang^3
#
#
#
# Elastic Constant Matrix: (Units=GPa)
#
#
# Indices 1 2 3 4 5 6 
#
# 1 22.0218 -16.8385 -23.0767 0.0000 0.0000 0.0000
# 2 -16.8385 20.1398 11.2627 0.0000 0.0000 0.0000
# 3 -23.0767 11.2627 29.1291 0.0000 0.0000 0.0000
# 4 0.0000 0.0000 0.0000 30.9600 0.0000 0.0000
# 5 0.0000 0.0000 0.0000 0.0000 -15.9203 0.0000
# 6 0.0000 0.0000 0.0000 0.0000 0.0000 19.7053
#
#
#
# Elastic Compliance Matrix: (Units=1/GPa)
#
#
# Indices 1 2 3 4 5 6 
#
# 1 -4.353200 -2.183051 -2.604622 0.000000 0.000000 0.000000
# 2 -2.183051 -1.031409 -1.330666 0.000000 0.000000 0.000000
# 3 -2.604622 -1.330666 -1.514606 0.000000 0.000000 0.000000
# 4 0.000000 0.000000 0.000000 0.032300 0.000000 0.000000
# 5 0.000000 0.000000 0.000000 0.000000 -0.062813 0.000000
# 6 0.000000 0.000000 0.000000 0.000000 0.000000 0.050748
#
#
# Mechanical properties :
#
#
# Convention : Reuss Voigt Hill
#
# Bulk Modulus (GPa) = -0.05226 1.55398 0.75086
# Shear Modulus (GPa) = -4.89747 13.61188 4.35721
#
# Velocity S-wave (km/s) = -1.57630 2.62792 1.48682
# Velocity P-wave (km/s) = 1.82743 3.16170 1.82440
#
# Compressibility (1/GPa) = -19.13589377
#
# Stress axis : x y z
#
# Youngs Moduli (GPa) = -0.22972 -0.96955 -0.66024
#
# Poissons Ratio (x) = -2.11657 -1.71967
# Poissons Ratio (y) = -0.50148 -0.87856
# Poissons Ratio (z) = -0.59832 -1.29014
#
# Static dielectric constant tensor:
#      x y z
#    x 1.355500 0.000000 0.000000 
#    y 0.000000 1.695660 0.000000 
#    z 0.000000 0.000000 1.750760 
# 
# From -- ./inp_files/24791.got.cif
#   From: 2010.05.17/outbox.ucp.g08.bks.cvg/sg20_13_cif.got.tgz:24791.got - 2010.06.11 15:13:06.
