data_PCOD9322064
_publ_section_title
;
Structure prediction by ZEFSAII (Michael W. Deem and Ramdas Pophale) SiO2 
 PCOD9322064
Probable space group: C 2 2 21
;
_chemical_formula_sum "Si O2"
_cell_formula_units_Z 32
_cell_length_a 12.794469
_cell_length_b 4.855147
_cell_length_c 21.264684
_cell_angle_alpha 90.000000
_cell_angle_beta 90.000000
_cell_angle_gamma 90.000000
_cell_volume 1320.941496
_symmetry_space_group_name_H-M "C 2 2 21"
_symmetry_group_IT_number 20
_symmetry_cell_setting 'orthorhombic'
loop_
_space_group_symop_operation_xyz
x,y,z
-x,-y,1/2+z
x,-y,-z
-x,y,1/2-z
1/2+x,1/2+y,z
1/2-x,1/2-y,1/2+z
1/2+x,1/2-y,-z
1/2-x,1/2+y,1/2-z
loop_
_atom_site_type_symbol
_atom_site_label
_atom_site_fract_x
_atom_site_fract_y
_atom_site_fract_z
Si Si1 0.768033 0.686806 0.349672
Si Si2 0.551469 0.601390 0.932544
Si Si3 0.564365 0.060541 0.614386
Si Si4 0.394868 0.323488 0.224125
O O1 0.866023 0.704432 0.396250
O O2 0.687181 0.453956 0.325470
O O3 0.822075 0.775700 0.284357
O O4 0.685991 0.871653 0.387088
O O5 0.457613 0.819397 0.935410
O O6 0.507913 0.330446 0.896294
O O7 0.587744 0.500000 0.000000
O O8 0.555953 0.931637 0.685005
O O9 0.500000 0.473344 0.250000
#
# Coordination Sequence:
#
# PCOD9322064 Si02
#       4
#     8   8   8   8
#     4  12  26  47  81 117 153 210 254 327 398 479
#     4  12  30  52  78 111 160 214 271 322 383 471
#     4  12  26  49  78 114 156 203 261 328 395 462
#     4  12  25  45  79 119 162 194 259 331 412 476
#
# _framework density 24.225148000000001
#
# number of rings (size 3 to 8) (size 9 to 14) (size 15 to 20)
#    0.000    0.000    7.500    0.750    3.500    7.000 
#    0.000    0.000    0.000    0.000    0.000    0.000 
#    0.000    0.000    0.000    0.000    0.000    0.000 
#
# Total GULP energy -89100.324439 kJ/mol
# GULP energy per Si atom -5568.770277 kJ/mol
# Density = 2.417001 g / cm^3
# Si number density = 24.225148 Si / 1000 Ang^3
#
#
#
# Elastic Constant Matrix: (Units=GPa)
#
#
# Indices 1 2 3 4 5 6 
#
# 1 123.5036 58.2555 42.9059 0.0000 0.0000 0.0000
# 2 58.2555 115.6848 33.2913 0.0000 0.0000 0.0000
# 3 42.9059 33.2913 110.5633 0.0000 0.0000 0.0000
# 4 0.0000 0.0000 0.0000 32.9314 0.0000 0.0000
# 5 0.0000 0.0000 0.0000 0.0000 29.4982 0.0000
# 6 0.0000 0.0000 0.0000 0.0000 0.0000 3.0951
#
#
#
# Elastic Compliance Matrix: (Units=1/GPa)
#
#
# Indices 1 2 3 4 5 6 
#
# 1 0.011442 -0.004909 -0.002962 0.000000 0.000000 0.000000
# 2 -0.004909 0.011571 -0.001579 0.000000 0.000000 0.000000
# 3 -0.002962 -0.001579 0.010669 0.000000 0.000000 0.000000
# 4 0.000000 0.000000 0.000000 0.030366 0.000000 0.000000
# 5 0.000000 0.000000 0.000000 0.000000 0.033900 0.000000
# 6 0.000000 0.000000 0.000000 0.000000 0.000000 0.323087
#
#
# Mechanical properties :
#
#
# Convention : Reuss Voigt Hill
#
# Bulk Modulus (GPa) = 67.65164 68.73967 68.19565
# Shear Modulus (GPa) = 11.23944 27.45823 19.34884
#
# Velocity S-wave (km/s) = 2.15630 3.37034 2.82921
# Velocity P-wave (km/s) = 5.84691 6.60171 6.23574
#
# Compressibility (1/GPa) = 0.01478161
#
# Stress axis : x y z
#
# Youngs Moduli (GPa) = 87.40065 86.42511 93.72593
#
# Poissons Ratio (x) = 0.42428 0.27760
# Poissons Ratio (y) = 0.42907 0.14798
# Poissons Ratio (z) = 0.25887 0.13646
#
# Static dielectric constant tensor:
#      x y z
#    x 1.926020 0.000000 0.000000 
#    y 0.000000 2.117910 0.000000 
#    z 0.000000 0.000000 1.972990 
# 
# From -- ./inp_files/27019.got.cif
#   From: 2010.05.17/outbox.cif.g08.bks.cpg/sg20_14_cif.got.tgz:27019.got - 2010.06.03 22:52:26.
