data_PCOD9322022
_publ_section_title
;
Structure prediction by ZEFSAII (Michael W. Deem and Ramdas Pophale) SiO2 
 PCOD9322022
Probable space group: C 2 2 21
;
_chemical_formula_sum "Si O2"
_cell_formula_units_Z 60
_cell_length_a 16.113969
_cell_length_b 18.557601
_cell_length_c 8.278808
_cell_angle_alpha 90.000000
_cell_angle_beta 90.000000
_cell_angle_gamma 90.000000
_cell_volume 2475.666656
_symmetry_space_group_name_H-M "C 2 2 21"
_symmetry_group_IT_number 20
_symmetry_cell_setting 'orthorhombic'
loop_
_space_group_symop_operation_xyz
x,y,z
-x,-y,1/2+z
x,-y,-z
-x,y,1/2-z
1/2+x,1/2+y,z
1/2-x,1/2-y,1/2+z
1/2+x,1/2-y,-z
1/2-x,1/2+y,1/2-z
loop_
_atom_site_type_symbol
_atom_site_label
_atom_site_fract_x
_atom_site_fract_y
_atom_site_fract_z
Si Si1 0.611170 0.156530 0.597425
Si Si2 0.157971 0.195478 0.547324
Si Si3 0.000000 0.450410 0.250000
Si Si4 0.143581 0.307022 0.035175
Si Si5 0.237915 0.923178 0.947186
Si Si6 0.456799 0.421730 0.927572
Si Si7 0.900169 0.836215 0.406964
Si Si8 0.655748 0.046336 0.139004
O O1 0.616745 0.225676 0.481048
O O2 0.533038 0.103009 0.609085
O O3 0.687823 0.103583 0.561405
O O4 0.622902 0.187161 0.776958
O O5 0.256584 0.205708 0.521783
O O6 0.137740 0.165730 0.727246
O O7 0.118852 0.135444 0.428511
O O8 0.922529 0.499791 0.299991
O O9 0.087565 0.245926 0.955823
O O10 0.127924 0.380194 0.941293
O O11 0.280596 0.934893 0.777728
O O12 0.168294 0.864377 0.967174
O O13 0.201961 0.000000 0.000000
O O14 0.500000 0.427164 0.750000
O O15 0.434630 0.500000 0.000000
O O16 0.521305 0.385245 0.054622
O O17 0.699180 0.000000 0.000000
#
# Coordination Sequence:
#
# PCOD9322022 Si02
#       8
#     8   8   4   8   8   8   8   8
#     4  12  26  47  75 114 159 207 255 322 391 474
#     4  12  26  49  80 112 157 204 261 323 396 468
#     4  12  28  52  74 116 172 208 262 312 402 488
#     4  12  25  48  75 115 154 203 265 318 390 467
#     4  12  24  45  75 107 149 203 266 313 391 468
#     4  12  29  53  78 113 153 203 258 328 398 461
#     4  12  27  50  77 114 151 199 265 328 388 473
#     4  12  28  46  72 114 159 210 255 324 391 482
#
# _framework density 24.235897000000001
#
# number of rings (size 3 to 8) (size 9 to 14) (size 15 to 20)
#    0.000    0.000    5.333    3.200    8.400    0.533 
#    2.400    0.000    0.000    0.000    0.000    0.000 
#    0.000    0.000    0.000    0.000    0.000    0.000 
#
# Total GULP energy -168080.671616 kJ/mol
# GULP energy per Si atom -5602.689054 kJ/mol
# Density = 2.418073 g / cm^3
# Si number density = 24.235897 Si / 1000 Ang^3
#
#
#
# Elastic Constant Matrix: (Units=GPa)
#
#
# Indices 1 2 3 4 5 6 
#
# 1 101.3667 22.0201 11.2787 0.0000 0.0000 0.0000
# 2 22.0201 147.9430 16.9937 0.0000 0.0000 0.0000
# 3 11.2787 16.9937 84.7103 0.0000 0.0000 0.0000
# 4 0.0000 0.0000 0.0000 43.8102 0.0000 0.0000
# 5 0.0000 0.0000 0.0000 0.0000 18.1615 0.0000
# 6 0.0000 0.0000 0.0000 0.0000 0.0000 -58.2759
#
#
#
# Elastic Compliance Matrix: (Units=1/GPa)
#
#
# Indices 1 2 3 4 5 6 
#
# 1 0.010292 -0.001407 -0.001088 0.000000 0.000000 0.000000
# 2 -0.001407 0.007111 -0.001239 0.000000 0.000000 0.000000
# 3 -0.001088 -0.001239 0.012198 0.000000 0.000000 0.000000
# 4 0.000000 0.000000 0.000000 0.022826 0.000000 0.000000
# 5 0.000000 0.000000 0.000000 0.000000 0.055061 0.000000
# 6 0.000000 0.000000 0.000000 0.000000 0.000000 -0.017160
#
#
# Mechanical properties :
#
#
# Convention : Reuss Voigt Hill
#
# Bulk Modulus (GPa) = 45.18137 48.28943 46.73540
# Shear Modulus (GPa) = 47.53988 19.65432 33.59710
#
# Velocity S-wave (km/s) = 4.43374 2.85082 3.72728
# Velocity P-wave (km/s) = 6.70027 5.55016 6.15215
#
# Compressibility (1/GPa) = 0.02213301
#
# Stress axis : x y z
#
# Youngs Moduli (GPa) = 97.16422 140.62502 81.97788
#
# Poissons Ratio (x) = 0.19784 0.08920
# Poissons Ratio (y) = 0.13670 0.10159
# Poissons Ratio (z) = 0.10572 0.17427
#
# Static dielectric constant tensor:
#      x y z
#    x 1.959680 0.000000 0.000000 
#    y 0.000000 1.906180 0.000000 
#    z 0.000000 0.000000 1.946620 
# 
# From -- ./inp_files/9582.got.cif
#   From: 2010.05.17/outbox.cif.g08.bks.cpg/sg20_5_cif.got.tgz:9582.got - 2010.06.03 22:52:26.
