data_PCOD9322824
_publ_section_title
;
Structure prediction by ZEFSAII (Michael W. Deem and Ramdas Pophale) SiO2 
 PCOD9322824
Probable space group: C 2 2 2
;
_chemical_formula_sum "Si O2"
_cell_formula_units_Z 40
_cell_length_a 5.232340
_cell_length_b 24.639559
_cell_length_c 17.947739
_cell_angle_alpha 90.000000
_cell_angle_beta 90.000000
_cell_angle_gamma 90.000000
_cell_volume 2313.868281
_symmetry_space_group_name_H-M "C 2 2 2"
_symmetry_group_IT_number 21
_symmetry_cell_setting 'orthorhombic'
loop_
_space_group_symop_operation_xyz
x,y,z
-x,-y,z
x,-y,-z
-x,y,-z
1/2+x,1/2+y,z
1/2-x,1/2-y,z
1/2+x,1/2-y,-z
1/2-x,1/2+y,-z
loop_
_atom_site_type_symbol
_atom_site_label
_atom_site_fract_x
_atom_site_fract_y
_atom_site_fract_z
Si Si1 0.511216 0.564171 0.158607
Si Si2 0.117336 0.699863 0.072852
Si Si3 0.500755 0.211579 0.335356
Si Si4 0.500000 0.613206 0.000000
Si Si5 0.500000 0.212481 0.500000
Si Si6 0.989238 0.372102 0.798711
O O1 0.500000 0.500000 0.168953
O O2 0.247554 0.594277 0.182291
O O3 0.745581 0.589259 0.204460
O O4 0.572047 0.576816 0.071189
O O5 0.250000 0.750000 0.114579
O O6 0.942263 0.669168 0.131722
O O7 0.288887 0.653220 0.035062
O O8 0.000000 0.727452 0.000000
O O9 0.250000 0.250000 0.326162
O O10 0.494589 0.185379 0.418662
O O11 0.514414 0.165191 0.273501
O O12 0.750000 0.250000 0.329891
O O13 0.250000 0.250000 0.500881
#
# Coordination Sequence:
#
# PCOD9322824 Si02
#       6
#     8   8   8   4   4   8
#     4  11  23  39  56  73  98 135 184 239 275 300
#     4  11  20  32  49  72 107 139 168 207 252 321
#     4  10  19  34  55  84 116 144 168 206 251 315
#     4  10  21  36  50  72  96 134 181 224 266 318
#     4   8  16  30  52  80 113 144 171 196 244 306
#     4  11  23  36  54  80 104 138 181 214 266 320
#
# _framework density 17.28707
#
# number of rings (size 3 to 8) (size 9 to 14) (size 15 to 20)
#    0.000    1.600    3.000    2.700    0.000    2.400 
#    0.000    2.000    0.000    0.000    0.000    4.200 
#    0.000    0.000    0.000    0.000    0.000    0.000 
#
# Total GULP energy -111444.364815 kJ/mol
# GULP energy per Si atom -5572.218241 kJ/mol
# Density = 1.724772 g / cm^3
# Si number density = 17.287070 Si / 1000 Ang^3
#
#
#
# Elastic Constant Matrix: (Units=GPa)
#
#
# Indices 1 2 3 4 5 6 
#
# 1 99.9079 35.5276 18.7838 0.0000 0.0000 0.0000
# 2 35.5276 105.1469 50.2175 0.0000 0.0000 0.0000
# 3 18.7838 50.2175 120.4704 0.0000 0.0000 0.0000
# 4 0.0000 0.0000 0.0000 -7.5990 0.0000 0.0000
# 5 0.0000 0.0000 0.0000 0.0000 16.5535 0.0000
# 6 0.0000 0.0000 0.0000 0.0000 0.0000 25.0444
#
#
#
# Elastic Compliance Matrix: (Units=1/GPa)
#
#
# Indices 1 2 3 4 5 6 
#
# 1 0.011381 -0.003743 -0.000214 0.000000 0.000000 0.000000
# 2 -0.003743 0.013106 -0.004879 0.000000 0.000000 0.000000
# 3 -0.000214 -0.004879 0.010368 0.000000 0.000000 0.000000
# 4 0.000000 0.000000 0.000000 -0.131597 0.000000 0.000000
# 5 0.000000 0.000000 0.000000 0.000000 0.060410 0.000000
# 6 0.000000 0.000000 0.000000 0.000000 0.000000 0.039929
#
#
# Mechanical properties :
#
#
# Convention : Reuss Voigt Hill
#
# Bulk Modulus (GPa) = 58.20365 59.39809 58.80087
# Shear Modulus (GPa) = 185.20734 21.53289 103.37012
#
# Velocity S-wave (km/s) = 10.36190 3.53314 7.74119
# Velocity P-wave (km/s) = 13.30040 7.14693 10.67659
#
# Compressibility (1/GPa) = 0.01718105
#
# Stress axis : x y z
#
# Youngs Moduli (GPa) = 87.86947 76.30347 96.44932
#
# Poissons Ratio (x) = 0.28560 0.02066
# Poissons Ratio (y) = 0.32890 0.47061
# Poissons Ratio (z) = 0.01882 0.37231
#
# Static dielectric constant tensor:
#      x y z
#    x 1.691380 0.000000 0.000000 
#    y 0.000000 1.569110 0.000000 
#    z 0.000000 0.000000 1.611190 
# 
# From -- ./inp_files/34879.got.cif
#   From: 2010.05.17/outbox.cif.g08.bks.cpg/sg21_18_cif.got.tgz:34879.got - 2010.06.03 23:14:55.
