data_PCOD9322843
_publ_section_title
;
Structure prediction by ZEFSAII (Michael W. Deem and Ramdas Pophale) SiO2 
 PCOD9322843
Probable space group: C 2 2 2
;
_chemical_formula_sum "Si O2"
_cell_formula_units_Z 64
_cell_length_a 14.485251
_cell_length_b 23.930450
_cell_length_c 9.272739
_cell_angle_alpha 90.000000
_cell_angle_beta 90.000000
_cell_angle_gamma 90.000000
_cell_volume 3214.289031
_symmetry_space_group_name_H-M "C 2 2 2"
_symmetry_group_IT_number 21
_symmetry_cell_setting 'orthorhombic'
loop_
_space_group_symop_operation_xyz
x,y,z
-x,-y,z
x,-y,-z
-x,y,-z
1/2+x,1/2+y,z
1/2-x,1/2-y,z
1/2+x,1/2-y,-z
1/2-x,1/2+y,-z
loop_
_atom_site_type_symbol
_atom_site_label
_atom_site_fract_x
_atom_site_fract_y
_atom_site_fract_z
Si Si1 0.910270 0.256218 0.446018
Si Si2 0.099106 0.348807 0.067806
Si Si3 0.360731 0.366231 0.479098
Si Si4 0.142193 0.756940 0.127639
Si Si5 0.203998 0.692266 0.669676
Si Si6 0.763409 0.939971 0.034856
Si Si7 0.563018 0.556156 0.252885
Si Si8 0.887457 0.878683 0.817773
O O1 0.906665 0.195586 0.523557
O O2 0.910655 0.251220 0.277066
O O3 0.825977 0.290068 0.509258
O O4 0.000000 0.286728 0.500000
O O5 0.119450 0.328928 0.232677
O O6 0.182029 0.393986 0.049227
O O7 0.116141 0.291162 0.981660
O O8 0.000000 0.368409 0.000000
O O9 0.276514 0.355992 0.367630
O O10 0.412911 0.418633 0.409917
O O11 0.351095 0.373667 0.651829
O O12 0.250000 0.750000 0.159003
O O13 0.123720 0.821294 0.092788
O O14 0.250000 0.750000 0.733073
O O15 0.842242 0.946790 0.160150
O O16 0.824494 0.922733 0.897896
O O17 0.720410 0.000000 0.000000
O O18 0.500000 0.500000 0.255548
O O19 0.493236 0.602217 0.186647
#
# Coordination Sequence:
#
# PCOD9322843 Si02
#       8
#     8   8   8   8   8   8   8   8
#     4  10  19  34  58  91 135 174 214 258 328 404
#     4  12  26  43  67  94 125 170 230 276 334 413
#     4  10  21  39  59  94 135 172 218 270 331 397
#     4  11  21  39  61  97 130 171 216 267 329 400
#     4  10  21  38  61  92 137 175 208 275 338 394
#     4  12  26  47  64  90 131 170 222 280 339 395
#     4  12  24  42  66  98 132 178 224 269 338 413
#     4  11  23  38  66  96 138 177 213 269 335 412
#
# _framework density 19.911090999999999
#
# number of rings (size 3 to 8) (size 9 to 14) (size 15 to 20)
#    0.000    1.000    3.750    5.250    0.000    3.250 
#    0.000    0.000    0.000    0.000    0.000    0.000 
#    0.000    0.000    0.000    0.000    0.000    0.000 
#
# Total GULP energy -178239.851408 kJ/mol
# GULP energy per Si atom -5569.995357 kJ/mol
# Density = 1.986577 g / cm^3
# Si number density = 19.911091 Si / 1000 Ang^3
#
#
#
# Elastic Constant Matrix: (Units=GPa)
#
#
# Indices 1 2 3 4 5 6 
#
# 1 57.7554 19.6992 27.7957 0.0000 0.0000 0.0000
# 2 19.6992 111.9485 32.0775 0.0000 0.0000 0.0000
# 3 27.7957 32.0775 70.9808 0.0000 0.0000 0.0000
# 4 0.0000 0.0000 0.0000 2.0598 0.0000 0.0000
# 5 0.0000 0.0000 0.0000 0.0000 28.1258 0.0000
# 6 0.0000 0.0000 0.0000 0.0000 0.0000 16.8605
#
#
#
# Elastic Compliance Matrix: (Units=1/GPa)
#
#
# Indices 1 2 3 4 5 6 
#
# 1 0.021576 -0.001580 -0.007735 0.000000 0.000000 0.000000
# 2 -0.001580 0.010377 -0.004071 0.000000 0.000000 0.000000
# 3 -0.007735 -0.004071 0.018957 0.000000 0.000000 0.000000
# 4 0.000000 0.000000 0.000000 0.485486 0.000000 0.000000
# 5 0.000000 0.000000 0.000000 0.000000 0.035555 0.000000
# 6 0.000000 0.000000 0.000000 0.000000 0.000000 0.059310
#
#
# Mechanical properties :
#
#
# Convention : Reuss Voigt Hill
#
# Bulk Modulus (GPa) = 41.42825 44.42550 42.92688
# Shear Modulus (GPa) = 7.50662 20.15004 13.82833
#
# Velocity S-wave (km/s) = 1.94377 3.18465 2.63820
# Velocity P-wave (km/s) = 5.08817 5.99024 5.55754
#
# Compressibility (1/GPa) = 0.02413812
#
# Stress axis : x y z
#
# Youngs Moduli (GPa) = 46.34795 96.36509 52.75126
#
# Poissons Ratio (x) = 0.15229 0.40802
# Poissons Ratio (y) = 0.07324 0.21474
# Poissons Ratio (z) = 0.35849 0.39228
#
# Static dielectric constant tensor:
#      x y z
#    x 1.818410 0.000000 0.000000 
#    y 0.000000 1.728820 0.000000 
#    z 0.000000 0.000000 1.745340 
# 
# From -- ./inp_files/15489.got.cif
#   From: 2010.05.17/outbox.cif.g08.bks.cpg/sg21_8_cif.got.tgz:15489.got - 2010.06.03 23:14:55.
