data_PCOD9322335
_publ_section_title
;
Structure prediction by ZEFSAII (Michael W. Deem and Ramdas Pophale) SiO2 
 PCOD9322335
Probable space group: C 2 2 2
;
_chemical_formula_sum "Si O2"
_cell_formula_units_Z 54
_cell_length_a 14.737838
_cell_length_b 14.229088
_cell_length_c 11.678469
_cell_angle_alpha 90.000000
_cell_angle_beta 90.000000
_cell_angle_gamma 90.000000
_cell_volume 2449.044948
_symmetry_space_group_name_H-M "C 2 2 2"
_symmetry_group_IT_number 21
_symmetry_cell_setting 'orthorhombic'
loop_
_space_group_symop_operation_xyz
x,y,z
-x,-y,z
x,-y,-z
-x,y,-z
1/2+x,1/2+y,z
1/2-x,1/2-y,z
1/2+x,1/2-y,-z
1/2-x,1/2+y,-z
loop_
_atom_site_type_symbol
_atom_site_label
_atom_site_fract_x
_atom_site_fract_y
_atom_site_fract_z
Si Si1 0.096807 0.971514 0.632920
Si Si2 0.323010 0.833034 0.793872
Si Si3 0.976464 0.192575 0.753221
Si Si4 0.860340 0.346810 0.045075
Si Si5 0.000000 0.500000 0.000000
Si Si6 0.706556 0.010651 0.363827
Si Si7 0.500000 0.317978 0.000000
Si Si8 0.161631 0.296429 0.709244
O O1 0.087309 0.861250 0.661640
O O2 0.187847 0.019518 0.677980
O O3 0.094036 0.000000 0.500000
O O4 0.000000 0.000000 0.683835
O O5 0.250000 0.750000 0.773296
O O6 0.422063 0.786861 0.785227
O O7 0.321505 0.917834 0.704676
O O8 0.309659 0.867114 0.925872
O O9 0.982747 0.137165 0.875463
O O10 0.075285 0.226936 0.710528
O O11 0.809354 0.328321 0.162064
O O12 0.933139 0.429807 0.066359
O O13 0.914969 0.250385 0.024300
O O14 0.710969 0.000000 0.500000
O O15 0.645361 0.101947 0.345146
O O16 0.250000 0.250000 0.652891
#
# Coordination Sequence:
#
# PCOD9322335 Si02
#       8
#     8   8   8   8   2   8   4   8
#     4  10  21  41  64  87 124 171 228 265 299 387
#     4  11  21  39  65  95 128 170 217 267 331 398
#     4  10  20  40  66  95 125 174 213 263 341 393
#     4   9  18  32  60  92 127 165 209 254 327 402
#     4  10  16  32  56  96 128 172 200 254 324 398
#     4  11  25  43  62  94 132 167 220 285 318 384
#     4   7  16  31  57  90 125 156 208 263 310 392
#     4  11  23  41  64  95 131 169 212 275 331 391
#
# _framework density 22.049410999999999
#
# number of rings (size 3 to 8) (size 9 to 14) (size 15 to 20)
#    0.000    1.926    1.481    3.111    0.000    1.185 
#    5.333    1.111    3.259    0.000    0.000    0.000 
#    0.000    0.000    0.000    0.000    0.000    0.000 
#
# Total GULP energy -150337.333688 kJ/mol
# GULP energy per Si atom -5568.049396 kJ/mol
# Density = 2.199923 g / cm^3
# Si number density = 22.049411 Si / 1000 Ang^3
#
#
#
# Elastic Constant Matrix: (Units=GPa)
#
#
# Indices 1 2 3 4 5 6 
#
# 1 54.2196 1.3098 0.0155 0.0000 0.0000 0.0000
# 2 1.3098 66.1238 35.0959 0.0000 0.0000 0.0000
# 3 0.0155 35.0959 96.5305 0.0000 0.0000 0.0000
# 4 0.0000 0.0000 0.0000 27.8302 0.0000 0.0000
# 5 0.0000 0.0000 0.0000 0.0000 16.3266 0.0000
# 6 0.0000 0.0000 0.0000 0.0000 0.0000 12.7368
#
#
#
# Elastic Compliance Matrix: (Units=1/GPa)
#
#
# Indices 1 2 3 4 5 6 
#
# 1 0.018454 -0.000451 0.000161 0.000000 0.000000 0.000000
# 2 -0.000451 0.018750 -0.006817 0.000000 0.000000 0.000000
# 3 0.000161 -0.006817 0.012838 0.000000 0.000000 0.000000
# 4 0.000000 0.000000 0.000000 0.035932 0.000000 0.000000
# 5 0.000000 0.000000 0.000000 0.000000 0.061250 0.000000
# 6 0.000000 0.000000 0.000000 0.000000 0.000000 0.078513
#
#
# Mechanical properties :
#
#
# Convention : Reuss Voigt Hill
#
# Bulk Modulus (GPa) = 27.91077 32.19071 30.05074
# Shear Modulus (GPa) = 19.84962 23.40890 21.62926
#
# Velocity S-wave (km/s) = 3.00364 3.26184 3.13540
# Velocity P-wave (km/s) = 4.97141 5.36817 5.17359
#
# Compressibility (1/GPa) = 0.03582846
#
# Stress axis : x y z
#
# Youngs Moduli (GPa) = 54.18777 53.33246 77.89442
#
# Poissons Ratio (x) = 0.02405 -0.01254
# Poissons Ratio (y) = 0.02444 0.53101
# Poissons Ratio (z) = -0.00873 0.36357
#
# Static dielectric constant tensor:
#      x y z
#    x 1.846950 0.000000 0.000000 
#    y 0.000000 2.001900 0.000000 
#    z 0.000000 0.000000 1.847130 
# 
# From -- ./inp_files/25337.got.cif
#   From: 2010.05.17/outbox.cif.g08.bks.cpg/sg21_13_cif.got.tgz:25337.got - 2010.06.03 23:14:55.
