data_PCOD9322035
_publ_section_title
;
Structure prediction by ZEFSAII (Michael W. Deem and Ramdas Pophale) SiO2 
 PCOD9322035
Probable space group: C 2 2 21
;
_chemical_formula_sum "Si O2"
_cell_formula_units_Z 20
_cell_length_a 19.025890
_cell_length_b 8.538522
_cell_length_c 4.761671
_cell_angle_alpha 90.000000
_cell_angle_beta 90.000000
_cell_angle_gamma 90.000000
_cell_volume 773.547645
_symmetry_space_group_name_H-M "C 2 2 21"
_symmetry_group_IT_number 20
_symmetry_cell_setting 'orthorhombic'
loop_
_space_group_symop_operation_xyz
x,y,z
-x,-y,1/2+z
x,-y,-z
-x,y,1/2-z
1/2+x,1/2+y,z
1/2-x,1/2-y,1/2+z
1/2+x,1/2-y,-z
1/2-x,1/2+y,1/2-z
loop_
_atom_site_type_symbol
_atom_site_label
_atom_site_fract_x
_atom_site_fract_y
_atom_site_fract_z
Si Si1 0.256656 0.000000 0.000000
Si Si2 0.427875 0.683539 0.918659
Si Si3 0.656539 0.779605 0.105384
O O1 0.207023 0.129442 0.144680
O O2 0.301998 0.918613 0.243563
O O3 0.500000 0.699667 0.750000
O O4 0.367984 0.756010 0.714926
O O5 0.419989 0.500000 0.000000
O O6 0.414955 0.767047 0.213625
#
# Coordination Sequence:
#
# PCOD9322035 Si02
#       3
#     4   8   8
#     4  12  28  50  78 118 166 206 264 318 414 472
#     4  12  24  47  77 114 154 209 269 331 386 472
#     4  12  27  47  79 114 162 210 257 338 390 487
#
# _framework density 25.854901999999999
#
# number of rings (size 3 to 8) (size 9 to 14) (size 15 to 20)
#    0.000    0.000    4.000    6.000    0.000    8.000 
#    0.000    4.000    0.000    0.000    0.000    0.000 
#    0.000    0.000    0.000    0.000    0.000    0.000 
#
# Total GULP energy -55975.372505 kJ/mol
# GULP energy per Si atom -5597.537250 kJ/mol
# Density = 2.579606 g / cm^3
# Si number density = 25.854902 Si / 1000 Ang^3
#
#
#
# Elastic Constant Matrix: (Units=GPa)
#
#
# Indices 1 2 3 4 5 6 
#
# 1 123.5875 57.3593 50.0110 0.0000 0.0000 0.0000
# 2 57.3593 122.4025 42.8884 0.0000 0.0000 0.0000
# 3 50.0110 42.8884 177.7982 0.0000 0.0000 0.0000
# 4 0.0000 0.0000 0.0000 57.3395 0.0000 0.0000
# 5 0.0000 0.0000 0.0000 0.0000 32.5843 0.0000
# 6 0.0000 0.0000 0.0000 0.0000 0.0000 17.6280
#
#
#
# Elastic Compliance Matrix: (Units=1/GPa)
#
#
# Indices 1 2 3 4 5 6 
#
# 1 0.010964 -0.004432 -0.002015 0.000000 0.000000 0.000000
# 2 -0.004432 0.010715 -0.001338 0.000000 0.000000 0.000000
# 3 -0.002015 -0.001338 0.006514 0.000000 0.000000 0.000000
# 4 0.000000 0.000000 0.000000 0.017440 0.000000 0.000000
# 5 0.000000 0.000000 0.000000 0.000000 0.030690 0.000000
# 6 0.000000 0.000000 0.000000 0.000000 0.000000 0.056728
#
#
# Mechanical properties :
#
#
# Convention : Reuss Voigt Hill
#
# Bulk Modulus (GPa) = 79.21792 80.47838 79.84815
# Shear Modulus (GPa) = 32.71657 39.74566 36.23111
#
# Velocity S-wave (km/s) = 3.56109 3.92504 3.74749
# Velocity P-wave (km/s) = 6.90032 7.19276 7.04806
#
# Compressibility (1/GPa) = 0.01262341
#
# Stress axis : x y z
#
# Youngs Moduli (GPa) = 91.21107 93.32354 153.51819
#
# Poissons Ratio (x) = 0.41358 0.30931
# Poissons Ratio (y) = 0.40422 0.20544
# Poissons Ratio (z) = 0.18377 0.12489
#
# Static dielectric constant tensor:
#      x y z
#    x 2.035040 0.000000 0.000000 
#    y 0.000000 2.110550 0.000000 
#    z 0.000000 0.000000 2.080680 
# 
# From -- ./inp_files/1486.got.cif
#   From: 2010.05.17/outbox.cif.g08.bks.cpg/sg20_1_cif.got.tgz:1486.got - 2010.06.03 22:52:26.
