data_PCOD9322414
_publ_section_title
;
Structure prediction by ZEFSAII (Michael W. Deem and Ramdas Pophale) SiO2 
 PCOD9322414
Probable space group: C 2 2 2
;
_chemical_formula_sum "Si O2"
_cell_formula_units_Z 38
_cell_length_a 5.787866
_cell_length_b 19.547922
_cell_length_c 15.973971
_cell_angle_alpha 90.000000
_cell_angle_beta 90.000000
_cell_angle_gamma 90.000000
_cell_volume 1807.307109
_symmetry_space_group_name_H-M "C 2 2 2"
_symmetry_group_IT_number 21
_symmetry_cell_setting 'orthorhombic'
loop_
_space_group_symop_operation_xyz
x,y,z
-x,-y,z
x,-y,-z
-x,y,-z
1/2+x,1/2+y,z
1/2-x,1/2-y,z
1/2+x,1/2-y,-z
1/2-x,1/2+y,-z
loop_
_atom_site_type_symbol
_atom_site_label
_atom_site_fract_x
_atom_site_fract_y
_atom_site_fract_z
Si Si1 0.000000 0.500000 0.283126
Si Si2 0.250000 0.250000 0.294904
Si Si3 0.182919 0.940317 0.864131
Si Si4 0.601464 0.858169 0.671589
Si Si5 0.500000 0.000000 0.000000
Si Si6 0.750000 0.750000 0.546718
Si Si7 0.623275 0.686972 0.828152
O O1 0.183040 0.460405 0.222078
O O2 0.096850 0.561073 0.339746
O O3 0.358899 0.183056 0.338397
O O4 0.455261 0.275745 0.236930
O O5 0.040630 0.869828 0.868739
O O6 0.000000 0.000000 0.875396
O O7 0.358974 0.950057 0.939486
O O8 0.759963 0.816255 0.607501
O O9 0.692212 0.850536 0.767694
O O10 0.500000 0.752272 0.500000
O O11 0.750000 0.750000 0.875756
#
# Coordination Sequence:
#
# PCOD9322414 Si02
#       7
#     4   4   8   8   2   4   8
#     4  11  22  35  67 102 131 166 222 306 343 376
#     4  10  17  34  60  94 129 166 212 298 326 385
#     4  11  21  39  60 101 131 173 223 275 350 417
#     4  11  21  38  63  98 133 167 229 284 344 392
#     4  10  26  36  60  94 138 192 208 270 350 462
#     4  12  27  44  70  98 143 198 234 268 358 461
#     4  10  20  33  64  99 125 162 222 301 328 380
#
# _framework density 21.025756999999999
#
# number of rings (size 3 to 8) (size 9 to 14) (size 15 to 20)
#    0.000    1.263    7.368    0.947    0.000    0.000 
#    0.000    0.526    0.000    3.789   27.368    0.000 
#    0.000    0.000    0.000    0.000    0.000    0.000 
#
# Total GULP energy -105839.704889 kJ/mol
# GULP energy per Si atom -5570.510784 kJ/mol
# Density = 2.097790 g / cm^3
# Si number density = 21.025757 Si / 1000 Ang^3
#
#
#
# Elastic Constant Matrix: (Units=GPa)
#
#
# Indices 1 2 3 4 5 6 
#
# 1 93.1188 49.6888 28.8174 0.0000 0.0000 0.0000
# 2 49.6888 193.4827 45.0926 0.0000 0.0000 0.0000
# 3 28.8174 45.0926 59.9810 0.0000 0.0000 0.0000
# 4 0.0000 0.0000 0.0000 20.3470 0.0000 0.0000
# 5 0.0000 0.0000 0.0000 0.0000 55.5865 0.0000
# 6 0.0000 0.0000 0.0000 0.0000 0.0000 39.8418
#
#
#
# Elastic Compliance Matrix: (Units=1/GPa)
#
#
# Indices 1 2 3 4 5 6 
#
# 1 0.013449 -0.002362 -0.004686 0.000000 0.000000 0.000000
# 2 -0.002362 0.006681 -0.003888 0.000000 0.000000 0.000000
# 3 -0.004686 -0.003888 0.021846 0.000000 0.000000 0.000000
# 4 0.000000 0.000000 0.000000 0.049147 0.000000 0.000000
# 5 0.000000 0.000000 0.000000 0.000000 0.017990 0.000000
# 6 0.000000 0.000000 0.000000 0.000000 0.000000 0.025099
#
#
# Mechanical properties :
#
#
# Convention : Reuss Voigt Hill
#
# Bulk Modulus (GPa) = 49.73902 65.97558 57.85730
# Shear Modulus (GPa) = 30.71502 38.02064 34.36783
#
# Velocity S-wave (km/s) = 3.82622 4.25701 4.04735
# Velocity P-wave (km/s) = 6.57477 7.45717 7.02983
#
# Compressibility (1/GPa) = 0.02010494
#
# Stress axis : x y z
#
# Youngs Moduli (GPa) = 74.35233 149.67589 45.77446
#
# Poissons Ratio (x) = 0.35351 0.21450
# Poissons Ratio (y) = 0.17561 0.17797
# Poissons Ratio (z) = 0.34842 0.58194
#
# Static dielectric constant tensor:
#      x y z
#    x 1.732580 0.000000 0.000000 
#    y 0.000000 1.739990 0.000000 
#    z 0.000000 0.000000 1.795470 
# 
# From -- ./inp_files/34744.got.cif
#   From: 2010.05.17/outbox.cif.g08.bks.cpg/sg21_18_cif.got.tgz:34744.got - 2010.06.03 23:14:55.
