data_PCOD9322443
_publ_section_title
;
Structure prediction by ZEFSAII (Michael W. Deem and Ramdas Pophale) SiO2 
 PCOD9322443
Probable space group: C 2 2 2
;
_chemical_formula_sum "Si O2"
_cell_formula_units_Z 52
_cell_length_a 24.467153
_cell_length_b 10.443129
_cell_length_c 10.507164
_cell_angle_alpha 90.000000
_cell_angle_beta 90.000000
_cell_angle_gamma 90.000000
_cell_volume 2684.723668
_symmetry_space_group_name_H-M "C 2 2 2"
_symmetry_group_IT_number 21
_symmetry_cell_setting 'orthorhombic'
loop_
_space_group_symop_operation_xyz
x,y,z
-x,-y,z
x,-y,-z
-x,y,-z
1/2+x,1/2+y,z
1/2-x,1/2-y,z
1/2+x,1/2-y,-z
1/2-x,1/2+y,-z
loop_
_atom_site_type_symbol
_atom_site_label
_atom_site_fract_x
_atom_site_fract_y
_atom_site_fract_z
Si Si1 0.140534 0.716689 0.340298
Si Si2 0.136758 0.283454 0.378471
Si Si3 0.686151 0.736308 0.911294
Si Si4 0.870211 0.500000 0.000000
Si Si5 0.769260 0.495830 0.362562
Si Si6 0.064478 0.513748 0.739551
Si Si7 0.798164 0.141383 0.825756
O O1 0.134337 0.774341 0.480270
O O2 0.149736 0.796352 0.212060
O O3 0.196041 0.631905 0.346568
O O4 0.092186 0.614009 0.318497
O O5 0.185333 0.391005 0.374077
O O6 0.083320 0.365178 0.344323
O O7 0.154281 0.186111 0.269323
O O8 0.750000 0.750000 0.881718
O O9 0.665431 0.875979 0.962408
O O10 0.681591 0.640903 0.030463
O O11 0.907126 0.530899 0.122590
O O12 0.740022 0.500000 0.500000
O O13 0.731561 0.523304 0.242214
O O14 0.000000 0.500000 0.748743
O O15 0.750000 0.250000 0.826518
#
# Coordination Sequence:
#
# PCOD9322443 Si02
#       7
#     8   8   8   4   8   8   8
#     4   9  19  29  42  64  96 122 158 200 242 286
#     4   9  16  29  42  61  89 122 160 202 237 290
#     4  10  20  29  45  65  89 128 166 194 239 292
#     4  10  19  34  46  68 100 130 165 206 244 296
#     4   8  15  27  44  64  86 122 165 198 237 291
#     4  10  18  29  46  66  89 127 170 196 241 291
#     4   9  16  27  44  61  84 123 167 194 237 292
#
# _framework density 19.368845
#
# number of rings (size 3 to 8) (size 9 to 14) (size 15 to 20)
#    0.000    2.769    1.538    1.615    6.462    4.308 
#    0.000    0.000    0.000    0.000    0.000    0.000 
#    0.000    0.000    0.000   58.154    1.231    2.462 
#
# Total GULP energy -145073.938423 kJ/mol
# GULP energy per Si atom -5579.766862 kJ/mol
# Density = 1.932476 g / cm^3
# Si number density = 19.368845 Si / 1000 Ang^3
#
#
#
# Elastic Constant Matrix: (Units=GPa)
#
#
# Indices 1 2 3 4 5 6 
#
# 1 100.3336 26.7944 43.1294 0.0000 0.0000 0.0000
# 2 26.7944 33.2968 17.0040 0.0000 0.0000 0.0000
# 3 43.1294 17.0040 155.6609 0.0000 0.0000 0.0000
# 4 0.0000 0.0000 0.0000 14.4988 0.0000 0.0000
# 5 0.0000 0.0000 0.0000 0.0000 11.1898 0.0000
# 6 0.0000 0.0000 0.0000 0.0000 0.0000 15.8055
#
#
#
# Elastic Compliance Matrix: (Units=1/GPa)
#
#
# Indices 1 2 3 4 5 6 
#
# 1 0.013723 -0.009639 -0.002749 0.000000 0.000000 0.000000
# 2 -0.009639 0.038578 -0.001543 0.000000 0.000000 0.000000
# 3 -0.002749 -0.001543 0.007355 0.000000 0.000000 0.000000
# 4 0.000000 0.000000 0.000000 0.068971 0.000000 0.000000
# 5 0.000000 0.000000 0.000000 0.000000 0.089367 0.000000
# 6 0.000000 0.000000 0.000000 0.000000 0.000000 0.063269
#
#
# Mechanical properties :
#
#
# Convention : Reuss Voigt Hill
#
# Bulk Modulus (GPa) = 31.45470 51.46075 41.45773
# Shear Modulus (GPa) = 15.63858 21.78973 18.71416
#
# Velocity S-wave (km/s) = 2.84458 3.35772 3.11175
# Velocity P-wave (km/s) = 5.20230 6.45437 5.86186
#
# Compressibility (1/GPa) = 0.03179175
#
# Stress axis : x y z
#
# Youngs Moduli (GPa) = 72.87250 25.92183 135.96996
#
# Poissons Ratio (x) = 0.24985 0.37381
# Poissons Ratio (y) = 0.70240 0.20987
# Poissons Ratio (z) = 0.20034 0.04001
#
# Static dielectric constant tensor:
#      x y z
#    x 1.628630 0.000000 0.000000 
#    y 0.000000 1.743340 0.000000 
#    z 0.000000 0.000000 1.774580 
# 
# From -- ./inp_files/26168.got.cif
#   From: 2010.05.17/outbox.cif.g08.bks.cpg/sg21_14_cif.got.tgz:26168.got - 2010.06.03 23:14:55.
