data_PCOD9322743
_publ_section_title
;
Structure prediction by ZEFSAII (Michael W. Deem and Ramdas Pophale) SiO2 
 PCOD9322743
Probable space group: C 2 2 2
;
_chemical_formula_sum "Si O2"
_cell_formula_units_Z 64
_cell_length_a 9.710224
_cell_length_b 30.518719
_cell_length_c 12.722739
_cell_angle_alpha 90.000000
_cell_angle_beta 90.000000
_cell_angle_gamma 90.000000
_cell_volume 3770.302248
_symmetry_space_group_name_H-M "C 2 2 2"
_symmetry_group_IT_number 21
_symmetry_cell_setting 'orthorhombic'
loop_
_space_group_symop_operation_xyz
x,y,z
-x,-y,z
x,-y,-z
-x,y,-z
1/2+x,1/2+y,z
1/2-x,1/2-y,z
1/2+x,1/2-y,-z
1/2-x,1/2+y,-z
loop_
_atom_site_type_symbol
_atom_site_label
_atom_site_fract_x
_atom_site_fract_y
_atom_site_fract_z
Si Si1 0.661008 0.874249 0.664849
Si Si2 0.343597 0.710525 0.375108
Si Si3 0.334140 0.949444 0.500000
Si Si4 0.342073 0.081414 0.879033
Si Si5 0.656403 0.289475 0.624892
Si Si6 0.157927 0.581414 0.879033
Si Si7 0.846126 1.000000 0.872906
Si Si8 0.338991 0.125751 0.335151
O O1 0.761509 0.834776 0.637252
O O2 0.699637 0.918637 0.600680
O O3 0.668477 0.882362 0.789551
O O4 0.500000 0.864529 0.637855
O O5 0.250000 0.750000 0.330884
O O6 0.355814 0.718218 0.500000
O O7 0.500000 0.709165 0.332572
O O8 0.500000 0.953220 0.500000
O O9 0.300362 0.918637 0.600679
O O10 0.281009 0.000000 0.500000
O O11 0.500000 0.064783 0.876332
O O12 0.239651 0.042920 0.846685
O O13 0.314300 0.094825 0.000000
O O14 0.750000 0.250000 0.669116
O O15 0.738491 0.334776 0.637252
O O16 0.260349 0.542920 0.846685
O O17 0.168477 0.617637 0.789550
O O18 0.000000 0.000000 0.829723
O O19 0.854055 0.000000 0.000000
#
# Coordination Sequence:
#
# PCOD9322743 Si02
#       8
#     8   8   8   8   8   8   8   8
#     4  10  19  32  53  75 102 136 171 209 251 301
#     4  10  20  34  54  78 105 131 163 207 256 305
#     4   9  18  30  46  71 102 137 174 205 240 295
#     4   9  18  31  48  71  98 131 172 214 252 294
#     4  10  20  34  54  78 105 131 163 207 256 305
#     4   9  18  31  48  71  98 131 172 214 252 294
#     4   9  17  29  45  66  93 128 172 218 257 291
#     4  10  19  32  53  75 102 136 171 209 251 301
#
# _framework density 16.974767
#
# number of rings (size 3 to 8) (size 9 to 14) (size 15 to 20)
#    0.000    2.500    1.250    1.125    1.750    3.500 
#    0.000    0.000    0.000    1.500    0.000    0.000 
#    0.000    0.000    0.000    0.000    0.000    0.000 
#
# Total GULP energy -178138.934734 kJ/mol
# GULP energy per Si atom -5566.841710 kJ/mol
# Density = 1.693613 g / cm^3
# Si number density = 16.974767 Si / 1000 Ang^3
#
#
#
# Elastic Constant Matrix: (Units=GPa)
#
#
# Indices 1 2 3 4 5 6 
#
# 1 104.4088 60.6574 22.6689 0.0000 0.0000 0.0000
# 2 60.6574 108.7650 19.7501 0.0000 0.0000 0.0000
# 3 22.6689 19.7501 61.7305 0.0000 0.0000 0.0000
# 4 0.0000 0.0000 0.0000 12.6728 0.0000 0.0000
# 5 0.0000 0.0000 0.0000 0.0000 13.7709 0.0000
# 6 0.0000 0.0000 0.0000 0.0000 0.0000 80.2876
#
#
#
# Elastic Compliance Matrix: (Units=1/GPa)
#
#
# Indices 1 2 3 4 5 6 
#
# 1 0.014653 -0.007639 -0.002937 0.000000 0.000000 0.000000
# 2 -0.007639 0.013743 -0.001592 0.000000 0.000000 0.000000
# 3 -0.002937 -0.001592 0.017787 0.000000 0.000000 0.000000
# 4 0.000000 0.000000 0.000000 0.078909 0.000000 0.000000
# 5 0.000000 0.000000 0.000000 0.000000 0.072617 0.000000
# 6 0.000000 0.000000 0.000000 0.000000 0.000000 0.012455
#
#
# Mechanical properties :
#
#
# Convention : Reuss Voigt Hill
#
# Bulk Modulus (GPa) = 45.76989 53.45081 49.61035
# Shear Modulus (GPa) = 20.67969 32.80146 26.74057
#
# Velocity S-wave (km/s) = 3.49415 4.40064 3.97333
# Velocity P-wave (km/s) = 6.58033 7.57480 7.09501
#
# Compressibility (1/GPa) = 0.02184842
#
# Stress axis : x y z
#
# Youngs Moduli (GPa) = 68.24458 72.76318 56.21980
#
# Poissons Ratio (x) = 0.55581 0.16512
# Poissons Ratio (y) = 0.52130 0.08950
# Poissons Ratio (z) = 0.20044 0.11583
#
# Static dielectric constant tensor:
#      x y z
#    x 1.596800 0.000000 0.000000 
#    y 0.000000 1.561060 0.000000 
#    z 0.000000 0.000000 1.591400 
# 
# From -- ./inp_files/23125.got.cif
#   From: 2010.05.17/outbox.cif.g08.bks.cpg/sg21_12_cif.got.tgz:23125.got - 2010.06.03 23:14:55.
