data_PCOD9322306
_publ_section_title
;
Structure prediction by ZEFSAII (Michael W. Deem and Ramdas Pophale) SiO2 
 PCOD9322306
Probable space group: C 2 2 2
;
_chemical_formula_sum "Si O2"
_cell_formula_units_Z 22
_cell_length_a 4.960796
_cell_length_b 26.501095
_cell_length_c 6.870595
_cell_angle_alpha 90.000000
_cell_angle_beta 90.000000
_cell_angle_gamma 90.000000
_cell_volume 903.253257
_symmetry_space_group_name_H-M "C 2 2 2"
_symmetry_group_IT_number 21
_symmetry_cell_setting 'orthorhombic'
loop_
_space_group_symop_operation_xyz
x,y,z
-x,-y,z
x,-y,-z
-x,y,-z
1/2+x,1/2+y,z
1/2-x,1/2-y,z
1/2+x,1/2-y,-z
1/2-x,1/2+y,-z
loop_
_atom_site_type_symbol
_atom_site_label
_atom_site_fract_x
_atom_site_fract_y
_atom_site_fract_z
Si Si1 0.750000 0.250000 0.356051
Si Si2 0.984293 0.649208 0.734194
Si Si3 0.500000 0.500000 0.000000
Si Si4 0.019615 0.911831 0.733361
O O1 0.500000 0.265523 0.500000
O O2 0.860211 0.296133 0.227344
O O3 0.779816 0.605055 0.792297
O O4 0.000000 0.649121 0.500000
O O5 0.285135 0.634504 0.787609
O O6 0.627919 0.539413 0.153280
O O7 0.000000 0.919906 0.500000
#
# Coordination Sequence:
#
# PCOD9322306 Si02
#       4
#     4   8   2   8
#     4  10  16  28  58  94 124 160 198 236 298 372
#     4   9  18  34  57  89 123 152 193 244 295 359
#     4  12  26  42  64  84 116 166 214 254 308 358
#     4  10  22  39  59  87 120 154 199 253 299 350
#
# _framework density 24.356400000000001
#
# number of rings (size 3 to 8) (size 9 to 14) (size 15 to 20)
#    0.000    2.182    0.000    6.000    0.000    4.364 
#    0.000    5.455    0.000    4.364    0.000   10.182 
#    0.000    0.000    0.000    0.000    0.000    0.000 
#
# Total GULP energy -61332.051434 kJ/mol
# GULP energy per Si atom -5575.641039 kJ/mol
# Density = 2.430096 g / cm^3
# Si number density = 24.356400 Si / 1000 Ang^3
#
#
#
# Elastic Constant Matrix: (Units=GPa)
#
#
# Indices 1 2 3 4 5 6 
#
# 1 122.4121 33.5816 6.0966 0.0000 0.0000 0.0000
# 2 33.5816 146.2917 30.8047 0.0000 0.0000 0.0000
# 3 6.0966 30.8047 136.5347 0.0000 0.0000 0.0000
# 4 0.0000 0.0000 0.0000 3.5405 0.0000 0.0000
# 5 0.0000 0.0000 0.0000 0.0000 -6.6874 0.0000
# 6 0.0000 0.0000 0.0000 0.0000 0.0000 13.6249
#
#
#
# Elastic Compliance Matrix: (Units=1/GPa)
#
#
# Indices 1 2 3 4 5 6 
#
# 1 0.008719 -0.002015 0.000065 0.000000 0.000000 0.000000
# 2 -0.002015 0.007642 -0.001634 0.000000 0.000000 0.000000
# 3 0.000065 -0.001634 0.007690 0.000000 0.000000 0.000000
# 4 0.000000 0.000000 0.000000 0.282449 0.000000 0.000000
# 5 0.000000 0.000000 0.000000 0.000000 -0.149536 0.000000
# 6 0.000000 0.000000 0.000000 0.000000 0.000000 0.073395
#
#
# Mechanical properties :
#
#
# Convention : Reuss Voigt Hill
#
# Bulk Modulus (GPa) = 59.23173 60.68936 59.96054
# Shear Modulus (GPa) = 20.56302 24.41263 22.48783
#
# Velocity S-wave (km/s) = 2.90876 3.16936 3.04185
# Velocity P-wave (km/s) = 5.97099 6.19390 6.08347
#
# Compressibility (1/GPa) = 0.01688284
#
# Stress axis : x y z
#
# Youngs Moduli (GPa) = 114.69606 130.84937 130.03979
#
# Poissons Ratio (x) = 0.26368 -0.00850
# Poissons Ratio (y) = 0.23113 0.21252
# Poissons Ratio (z) = -0.00750 0.21384
#
# Static dielectric constant tensor:
#      x y z
#    x 1.894360 0.000000 0.000000 
#    y 0.000000 1.968220 0.000000 
#    z 0.000000 0.000000 2.013590 
# 
# From -- ./inp_files/8754.got.cif
#   From: 2010.05.17/outbox.cif.g08.bks.cpg/sg21_5_cif.got.tgz:8754.got - 2010.06.03 23:14:55.
