data_PCOD9322252
_publ_section_title
;
Structure prediction by ZEFSAII (Michael W. Deem and Ramdas Pophale) SiO2 
 PCOD9322252
Probable space group: C 2 2 21
;
_chemical_formula_sum "Si O2"
_cell_formula_units_Z 28
_cell_length_a 9.000000
_cell_length_b 21.000000
_cell_length_c 15.000000
_cell_angle_alpha 90.000000
_cell_angle_beta 90.000000
_cell_angle_gamma 90.000000
_cell_volume 2835.000000
_symmetry_space_group_name_H-M "C 2 2 21"
_symmetry_group_IT_number 20
_symmetry_cell_setting 'orthorhombic'
loop_
_space_group_symop_operation_xyz
x,y,z
-x,-y,1/2+z
x,-y,-z
-x,y,1/2-z
1/2+x,1/2+y,z
1/2-x,1/2-y,1/2+z
1/2+x,1/2-y,-z
1/2-x,1/2+y,1/2-z
loop_
_atom_site_type_symbol
_atom_site_label
_atom_site_fract_x
_atom_site_fract_y
_atom_site_fract_z
Si Si1 0.500000 0.468844 0.750000
Si Si2 0.376040 0.356367 0.878548
Si Si3 0.970980 0.667891 0.361207
Si Si4 0.827540 0.640480 0.660540
Si Si5 0.293155 0.578697 0.662219
Si Si6 0.959606 0.572831 0.983101
Si Si7 0.483551 0.682297 0.921633
Si Si8 0.000000 0.248073 0.250000
O O1 0.430928 0.420757 0.826083
O O2 0.388368 0.517748 0.697683
O O3 0.197140 0.355192 0.883279
O O4 0.406651 0.297760 0.812537
O O5 0.458544 0.338249 0.973058
O O6 0.000000 0.665535 0.250000
O O7 0.060031 0.617472 0.427223
O O8 0.992791 0.741514 0.398384
O O9 0.803470 0.600483 0.751648
O O10 0.668208 0.659265 0.623189
O O11 0.905119 0.705874 0.688234
O O12 0.922969 0.606257 0.584010
O O13 0.188882 0.565327 0.577141
O O14 0.392535 0.638733 0.627959
O O15 0.010328 0.500000 0.000000
#
# Coordination Sequence:
#
# PCOD9322252 Si02
#       8
#     4   8   8   8   8   8   8   4
#     4  11  28  48  74 106 153 208 258 308 377 454
#     4  11  27  45  74 108 151 195 246 316 372 453
#     4  12  28  49  77 109 153 195 253 317 383 457
#     4  12  23  47  74 106 143 194 243 305 373 443
#     4  12  26  48  76 105 150 203 253 307 368 461
#     4  12  30  45  74 109 148 199 249 311 374 457
#     4  12  26  45  76 111 143 192 250 312 378 440
#     4  11  22  44  72 104 143 188 242 302 373 436
#
# _framework density 9.8765429999999999
#
# number of rings (size 3 to 8) (size 9 to 14) (size 15 to 20)
#    0.000    0.286    4.286    3.429    8.000    1.143 
#    0.000    0.000    0.000    0.000    0.000    0.000 
#    0.000    0.000    0.000    0.000    0.000    0.000 
#
# Total GULP energy -156277.935636 kJ/mol
# GULP energy per Si atom -5581.354844 kJ/mol
# Density = 0.985406 g / cm^3
# Si number density = 9.876543 Si / 1000 Ang^3
#
#
#
# Elastic Constant Matrix: (Units=GPa)
#
#
# Indices 1 2 3 4 5 6 
#
# 1 67.2558 22.9583 28.8696 0.0000 0.0000 0.0000
# 2 22.9583 150.3926 64.5323 0.0000 0.0000 0.0000
# 3 28.8696 64.5323 152.7406 0.0000 0.0000 0.0000
# 4 0.0000 0.0000 0.0000 44.4132 0.0000 0.0000
# 5 0.0000 0.0000 0.0000 0.0000 46.0808 0.0000
# 6 0.0000 0.0000 0.0000 0.0000 0.0000 17.6084
#
#
#
# Elastic Compliance Matrix: (Units=1/GPa)
#
#
# Indices 1 2 3 4 5 6 
#
# 1 0.016432 -0.001436 -0.002499 0.000000 0.000000 0.000000
# 2 -0.001436 0.008247 -0.003213 0.000000 0.000000 0.000000
# 3 -0.002499 -0.003213 0.008377 0.000000 0.000000 0.000000
# 4 0.000000 0.000000 0.000000 0.022516 0.000000 0.000000
# 5 0.000000 0.000000 0.000000 0.000000 0.021701 0.000000
# 6 0.000000 0.000000 0.000000 0.000000 0.000000 0.056791
#
#
# Mechanical properties :
#
#
# Convention : Reuss Voigt Hill
#
# Bulk Modulus (GPa) = 53.30643 67.01216 60.15929
# Shear Modulus (GPa) = 32.33889 38.55574 35.44731
#
# Velocity S-wave (km/s) = 4.05057 4.42281 4.24077
# Velocity P-wave (km/s) = 6.99436 7.75114 7.38245
#
# Compressibility (1/GPa) = 0.01875946
#
# Stress axis : x y z
#
# Youngs Moduli (GPa) = 60.85865 121.25411 119.37669
#
# Poissons Ratio (x) = 0.17413 0.29832
# Poissons Ratio (y) = 0.08740 0.38355
# Poissons Ratio (z) = 0.15209 0.38958
#
# Static dielectric constant tensor:
#      x y z
#    x 1.801340 0.000000 0.000000 
#    y 0.000000 1.694610 0.000000 
#    z 0.000000 0.000000 1.737590 
# 
# From -- ./inp_files/19236.got.cif
#   From: 2010.05.17/outbox.ucp.g08.bks.cvg/sg20_10_cif.got.tgz:19236.got - 2010.06.11 15:13:06.
