data_PCOD9322244
_publ_section_title
;
Structure prediction by ZEFSAII (Michael W. Deem and Ramdas Pophale) SiO2 
 PCOD9322244
Probable space group: C 2 2 21
;
_chemical_formula_sum "Si O2"
_cell_formula_units_Z 32
_cell_length_a 12.000000
_cell_length_b 9.000000
_cell_length_c 30.000000
_cell_angle_alpha 90.000000
_cell_angle_beta 90.000000
_cell_angle_gamma 90.000000
_cell_volume 3240.000000
_symmetry_space_group_name_H-M "C 2 2 21"
_symmetry_group_IT_number 20
_symmetry_cell_setting 'orthorhombic'
loop_
_space_group_symop_operation_xyz
x,y,z
-x,-y,1/2+z
x,-y,-z
-x,y,1/2-z
1/2+x,1/2+y,z
1/2-x,1/2-y,1/2+z
1/2+x,1/2-y,-z
1/2-x,1/2+y,1/2-z
loop_
_atom_site_type_symbol
_atom_site_label
_atom_site_fract_x
_atom_site_fract_y
_atom_site_fract_z
Si Si1 0.958013 0.729980 0.701584
Si Si2 0.609385 0.445537 0.227775
Si Si3 0.323000 0.731422 0.641116
Si Si4 0.539891 0.162278 0.977275
Si Si5 0.243102 0.040945 0.683534
Si Si6 0.437171 0.402084 0.111318
Si Si7 0.685067 0.666779 0.520352
Si Si8 0.921953 0.740962 0.889443
O O1 0.840410 0.658453 0.690158
O O2 0.000000 0.676815 0.750000
O O3 0.041716 0.702232 0.660968
O O4 0.940632 0.906272 0.705787
O O5 0.500000 0.367050 0.250000
O O6 0.669816 0.356126 0.188386
O O7 0.692302 0.493479 0.267619
O O8 0.441939 0.681660 0.617716
O O9 0.211921 0.704548 0.610174
O O10 0.298296 0.901271 0.657248
O O11 0.676892 0.212119 0.981463
O O12 0.501568 0.159685 0.925341
O O13 0.425652 0.249239 0.997105
O O14 0.538785 0.000000 0.000000
O O15 0.139790 0.105796 0.655257
O O16 0.360237 0.340286 0.071113
O O17 0.446641 0.581653 0.103625
O O18 0.685421 0.500000 0.500000
#
# Coordination Sequence:
#
# PCOD9322244 Si02
#       8
#     8   8   8   8   8   8   8   8
#     4  11  22  41  63  92 138 180 221 285 345 398
#     4  11  19  40  63  90 131 182 233 276 338 411
#     4  11  23  40  68  96 128 187 232 279 340 416
#     4  11  27  47  73 109 138 178 232 292 347 428
#     4  11  23  39  62  94 136 171 232 286 333 400
#     4  11  22  43  68  96 129 182 224 277 348 412
#     4  11  25  46  74  97 139 180 221 282 356 413
#     4  11  23  44  68  98 138 178 229 282 348 412
#
# _framework density 9.8765429999999999
#
# number of rings (size 3 to 8) (size 9 to 14) (size 15 to 20)
#    0.000    1.000    3.750    4.500    1.750    4.000 
#    6.750    0.000    0.000    0.000    0.000    0.000 
#    0.000    0.000    0.000    0.000    0.000    0.000 
#
# Total GULP energy -178193.694907 kJ/mol
# GULP energy per Si atom -5568.552966 kJ/mol
# Density = 0.985406 g / cm^3
# Si number density = 9.876543 Si / 1000 Ang^3
#
#
#
# Elastic Constant Matrix: (Units=GPa)
#
#
# Indices 1 2 3 4 5 6 
#
# 1 185.9398 38.4613 38.4227 0.0000 0.0000 0.0000
# 2 38.4613 36.4725 14.5765 0.0000 0.0000 0.0000
# 3 38.4227 14.5765 103.3315 0.0000 0.0000 0.0000
# 4 0.0000 0.0000 0.0000 23.5802 0.0000 0.0000
# 5 0.0000 0.0000 0.0000 0.0000 50.3024 0.0000
# 6 0.0000 0.0000 0.0000 0.0000 0.0000 43.4806
#
#
#
# Elastic Compliance Matrix: (Units=1/GPa)
#
#
# Indices 1 2 3 4 5 6 
#
# 1 0.007146 -0.006861 -0.001689 0.000000 0.000000 0.000000
# 2 -0.006861 0.035643 -0.002477 0.000000 0.000000 0.000000
# 3 -0.001689 -0.002477 0.010655 0.000000 0.000000 0.000000
# 4 0.000000 0.000000 0.000000 0.042409 0.000000 0.000000
# 5 0.000000 0.000000 0.000000 0.000000 0.019880 0.000000
# 6 0.000000 0.000000 0.000000 0.000000 0.000000 0.022999
#
#
# Mechanical properties :
#
#
# Convention : Reuss Voigt Hill
#
# Bulk Modulus (GPa) = 31.85724 56.51830 44.18777
# Shear Modulus (GPa) = 29.19729 39.09154 34.14441
#
# Velocity S-wave (km/s) = 3.84879 4.45343 4.16211
# Velocity P-wave (km/s) = 5.99280 7.42419 6.74656
#
# Compressibility (1/GPa) = 0.03139004
#
# Stress axis : x y z
#
# Youngs Moduli (GPa) = 139.93175 28.05623 93.85093
#
# Poissons Ratio (x) = 0.19249 0.15856
# Poissons Ratio (y) = 0.96004 0.23245
# Poissons Ratio (z) = 0.23641 0.06949
#
# Static dielectric constant tensor:
#      x y z
#    x 1.747750 0.000000 0.000000 
#    y 0.000000 1.709730 0.000000 
#    z 0.000000 0.000000 1.763690 
# 
# From -- ./inp_files/31193.got.cif
#   From: 2010.05.17/outbox.ucp.g08.bks.cvg/sg20_16_cif.got.tgz:31193.got - 2010.06.11 15:13:06.
