data_PCOD9322449
_publ_section_title
;
Structure prediction by ZEFSAII (Michael W. Deem and Ramdas Pophale) SiO2 
 PCOD9322449
Probable space group: C 2 2 2
;
_chemical_formula_sum "Si O2"
_cell_formula_units_Z 40
_cell_length_a 25.373829
_cell_length_b 7.444010
_cell_length_c 8.575109
_cell_angle_alpha 90.000000
_cell_angle_beta 90.000000
_cell_angle_gamma 90.000000
_cell_volume 1619.692629
_symmetry_space_group_name_H-M "C 2 2 2"
_symmetry_group_IT_number 21
_symmetry_cell_setting 'orthorhombic'
loop_
_space_group_symop_operation_xyz
x,y,z
-x,-y,z
x,-y,-z
-x,y,-z
1/2+x,1/2+y,z
1/2-x,1/2-y,z
1/2+x,1/2-y,-z
1/2-x,1/2+y,-z
loop_
_atom_site_type_symbol
_atom_site_label
_atom_site_fract_x
_atom_site_fract_y
_atom_site_fract_z
Si Si1 0.622717 0.165956 0.197790
Si Si2 0.488344 0.280399 0.676343
Si Si3 0.163728 0.962196 0.682144
Si Si4 0.077777 0.187407 0.100998
Si Si5 0.731855 0.957087 0.816137
O O1 0.568636 0.193495 0.291696
O O2 0.650591 0.355972 0.227707
O O3 0.670532 0.030427 0.235489
O O4 0.605488 0.181488 0.019215
O O5 0.500000 0.500000 0.678984
O O6 0.500000 0.227064 0.500000
O O7 0.526207 0.229784 0.819714
O O8 0.224289 0.925956 0.726341
O O9 0.157501 0.000000 0.500000
O O10 0.118085 0.840748 0.755455
O O11 0.067858 0.000000 0.000000
O O12 0.750000 0.750000 0.793689
O O13 0.734435 0.000000 0.000000
#
# Coordination Sequence:
#
# PCOD9322449 Si02
#       5
#     8   8   8   8   8
#     4  10  20  32  52  81 116 153 195 243 296 348
#     4  11  19  29  50  83 118 153 190 246 303 351
#     4  10  18  31  52  81 114 153 192 240 297 349
#     4  10  18  29  51  80 112 148 193 242 287 345
#     4  10  21  40  60  85 120 159 201 248 294 355
#
# _framework density 24.696043
#
# number of rings (size 3 to 8) (size 9 to 14) (size 15 to 20)
#    0.000    1.800    4.000    4.800    0.000    0.000 
#    0.000   11.000    0.000    2.400    0.000    1.400 
#    0.000    0.000    0.000    0.000    0.000    0.000 
#
# Total GULP energy -111550.222975 kJ/mol
# GULP energy per Si atom -5577.511149 kJ/mol
# Density = 2.463983 g / cm^3
# Si number density = 24.696043 Si / 1000 Ang^3
#
#
#
# Elastic Constant Matrix: (Units=GPa)
#
#
# Indices 1 2 3 4 5 6 
#
# 1 239.1045 9.3096 79.3636 0.0000 0.0000 0.0000
# 2 9.3096 43.9015 -21.3331 0.0000 0.0000 0.0000
# 3 79.3636 -21.3331 116.9676 0.0000 0.0000 0.0000
# 4 0.0000 0.0000 0.0000 -10.4557 0.0000 0.0000
# 5 0.0000 0.0000 0.0000 0.0000 12.9185 0.0000
# 6 0.0000 0.0000 0.0000 0.0000 0.0000 20.2898
#
#
#
# Elastic Compliance Matrix: (Units=1/GPa)
#
#
# Indices 1 2 3 4 5 6 
#
# 1 0.005844 -0.003474 -0.004599 0.000000 0.000000 0.000000
# 2 -0.003474 0.027058 0.007292 0.000000 0.000000 0.000000
# 3 -0.004599 0.007292 0.013000 0.000000 0.000000 0.000000
# 4 0.000000 0.000000 0.000000 -0.095642 0.000000 0.000000
# 5 0.000000 0.000000 0.000000 0.000000 0.077408 0.000000
# 6 0.000000 0.000000 0.000000 0.000000 0.000000 0.049286
#
#
# Mechanical properties :
#
#
# Convention : Reuss Voigt Hill
#
# Bulk Modulus (GPa) = 22.55258 59.40597 40.97927
# Shear Modulus (GPa) = 53.59294 26.72610 40.15952
#
# Velocity S-wave (km/s) = 4.66349 3.29325 4.03693
# Velocity P-wave (km/s) = 6.17652 6.21029 6.19343
#
# Compressibility (1/GPa) = 0.04434083
#
# Stress axis : x y z
#
# Youngs Moduli (GPa) = 171.11714 36.95714 76.92516
#
# Poissons Ratio (x) = 0.12839 0.35376
# Poissons Ratio (y) = 0.59445 -0.56095
# Poissons Ratio (z) = 0.78693 -0.26950
#
# Static dielectric constant tensor:
#      x y z
#    x 2.159840 0.000000 0.000000 
#    y 0.000000 2.056710 0.000000 
#    z 0.000000 0.000000 1.912960 
# 
# From -- ./inp_files/10950.got.cif
#   From: 2010.05.17/outbox.cif.g08.bks.cpg/sg21_6_cif.got.tgz:10950.got - 2010.06.03 23:14:55.
