data_PCOD9322836
_publ_section_title
;
Structure prediction by ZEFSAII (Michael W. Deem and Ramdas Pophale) SiO2 
 PCOD9322836
Probable space group: C 2 2 2
;
_chemical_formula_sum "Si O2"
_cell_formula_units_Z 32
_cell_length_a 36.133058
_cell_length_b 5.081519
_cell_length_c 7.551600
_cell_angle_alpha 90.000000
_cell_angle_beta 90.000000
_cell_angle_gamma 90.000000
_cell_volume 1386.555474
_symmetry_space_group_name_H-M "C 2 2 2"
_symmetry_group_IT_number 21
_symmetry_cell_setting 'orthorhombic'
loop_
_space_group_symop_operation_xyz
x,y,z
-x,-y,z
x,-y,-z
-x,y,-z
1/2+x,1/2+y,z
1/2-x,1/2-y,z
1/2+x,1/2-y,-z
1/2-x,1/2+y,-z
loop_
_atom_site_type_symbol
_atom_site_label
_atom_site_fract_x
_atom_site_fract_y
_atom_site_fract_z
Si Si1 0.542283 0.985674 0.715811
Si Si2 0.328255 0.597090 0.194633
Si Si3 0.713399 0.880077 0.310992
Si Si4 0.911620 0.007446 0.714440
O O1 0.571661 0.211000 0.768832
O O2 0.500000 0.000000 0.777353
O O3 0.541207 0.000000 0.500000
O O4 0.558175 0.705676 0.767380
O O5 0.313918 0.366753 0.324125
O O6 0.372391 0.588298 0.211833
O O7 0.308623 0.877395 0.223715
O O8 0.318015 0.500000 0.000000
O O9 0.750000 0.750000 0.225021
O O10 0.725067 0.000000 0.500000
O O11 0.908088 0.000000 0.500000
#
# Coordination Sequence:
#
# PCOD9322836 Si02
#       4
#     8   8   8   8
#     4   9  17  30  53  86 119 154 205 265 313 356
#     4  12  26  43  66  96 133 170 209 260 317 381
#     4  12  25  46  71  96 125 163 211 262 318 382
#     4  10  19  34  58  86 119 162 209 256 307 369
#
# _framework density 23.078775
#
# number of rings (size 3 to 8) (size 9 to 14) (size 15 to 20)
#    0.000    1.250    0.000    7.500    0.000    7.000 
#    0.000    1.250    0.000    4.500    0.000    0.000 
#    0.000    0.000    0.000    0.000    0.000    0.000 
#
# Total GULP energy -89444.062768 kJ/mol
# GULP energy per Si atom -5590.253923 kJ/mol
# Density = 2.302625 g / cm^3
# Si number density = 23.078775 Si / 1000 Ang^3
#
#
#
# Elastic Constant Matrix: (Units=GPa)
#
#
# Indices 1 2 3 4 5 6 
#
# 1 160.0286 49.3403 16.3377 0.0000 0.0000 0.0000
# 2 49.3403 145.9959 31.1291 0.0000 0.0000 0.0000
# 3 16.3377 31.1291 57.6523 0.0000 0.0000 0.0000
# 4 0.0000 0.0000 0.0000 12.2438 0.0000 0.0000
# 5 0.0000 0.0000 0.0000 0.0000 -17.1062 0.0000
# 6 0.0000 0.0000 0.0000 0.0000 0.0000 28.0497
#
#
#
# Elastic Compliance Matrix: (Units=1/GPa)
#
#
# Indices 1 2 3 4 5 6 
#
# 1 0.007008 -0.002198 -0.000799 0.000000 0.000000 0.000000
# 2 -0.002198 0.008430 -0.003929 0.000000 0.000000 0.000000
# 3 -0.000799 -0.003929 0.019693 0.000000 0.000000 0.000000
# 4 0.000000 0.000000 0.000000 0.081674 0.000000 0.000000
# 5 0.000000 0.000000 0.000000 0.000000 -0.058458 0.000000
# 6 0.000000 0.000000 0.000000 0.000000 0.000000 0.035651
#
#
# Mechanical properties :
#
#
# Convention : Reuss Voigt Hill
#
# Bulk Modulus (GPa) = 46.99417 61.92123 54.45770
# Shear Modulus (GPa) = 43.49962 22.42876 32.96419
#
# Velocity S-wave (km/s) = 4.34618 3.12081 3.78343
# Velocity P-wave (km/s) = 6.75221 6.31463 6.53708
#
# Compressibility (1/GPa) = 0.02127924
#
# Stress axis : x y z
#
# Youngs Moduli (GPa) = 142.69030 118.62298 50.77892
#
# Poissons Ratio (x) = 0.26074 0.04058
# Poissons Ratio (y) = 0.31364 0.19950
# Poissons Ratio (z) = 0.11403 0.46606
#
# Static dielectric constant tensor:
#      x y z
#    x 1.863210 0.000000 0.000000 
#    y 0.000000 1.826320 0.000000 
#    z 0.000000 0.000000 1.961060 
# 
# From -- ./inp_files/19410.got.cif
#   From: 2010.05.17/outbox.cif.g08.bks.cpg/sg21_10_cif.got.tgz:19410.got - 2010.06.03 23:14:55.
