data_PCOD9322787
_publ_section_title
;
Structure prediction by ZEFSAII (Michael W. Deem and Ramdas Pophale) SiO2 
 PCOD9322787
Probable space group: C 2 2 2
;
_chemical_formula_sum "Si O2"
_cell_formula_units_Z 64
_cell_length_a 8.961995
_cell_length_b 11.555949
_cell_length_c 28.486781
_cell_angle_alpha 90.000000
_cell_angle_beta 90.000000
_cell_angle_gamma 90.000000
_cell_volume 2950.215162
_symmetry_space_group_name_H-M "C 2 2 2"
_symmetry_group_IT_number 21
_symmetry_cell_setting 'orthorhombic'
loop_
_space_group_symop_operation_xyz
x,y,z
-x,-y,z
x,-y,-z
-x,y,-z
1/2+x,1/2+y,z
1/2-x,1/2-y,z
1/2+x,1/2-y,-z
1/2-x,1/2+y,-z
loop_
_atom_site_type_symbol
_atom_site_label
_atom_site_fract_x
_atom_site_fract_y
_atom_site_fract_z
Si Si1 0.924194 0.124401 0.234451
Si Si2 0.377152 0.319055 0.310021
Si Si3 0.387595 0.658847 0.126620
Si Si4 0.021416 0.692503 0.949410
Si Si5 0.167882 0.875757 0.480040
Si Si6 0.165095 0.128430 0.631060
Si Si7 0.250001 0.996364 0.052007
Si Si8 0.174900 0.513248 0.285062
O O1 0.938744 0.141948 0.179529
O O2 0.753047 0.104093 0.249983
O O3 0.005099 0.215305 0.268773
O O4 0.000000 0.000000 0.246592
O O5 0.250000 0.250000 0.338455
O O6 0.498295 0.367610 0.347042
O O7 0.257004 0.391089 0.278851
O O8 0.250000 0.750000 0.128838
O O9 0.504047 0.720422 0.092746
O O10 0.338197 0.544919 0.097801
O O11 0.170022 0.619079 0.943402
O O12 0.884471 0.599347 0.950386
O O13 0.000000 0.751392 0.000000
O O14 0.250000 0.750000 0.488695
O O15 0.161452 0.894177 0.423929
O O16 0.000000 0.864488 0.500000
O O17 0.229799 0.000000 0.500000
O O18 0.250000 0.250000 0.637602
O O19 0.265654 0.044335 0.662823
O O20 0.178623 0.000000 0.000000
O O21 0.000000 0.500000 0.281901
#
# Coordination Sequence:
#
# PCOD9322787 Si02
#       8
#     8   8   8   8   8   8   8   8
#     4   9  21  41  54  80 130 154 188 259 314 384
#     4  10  21  38  65  90 122 168 209 267 332 384
#     4  10  19  33  55  82 108 148 195 241 302 370
#     4   8  15  31  52  75 106 138 186 240 295 361
#     4  10  24  44  67 100 144 191 235 289 354 409
#     4  10  21  40  63  95 131 167 223 278 320 392
#     4   8  15  31  52  75 106 142 182 244 298 355
#     4  10  21  39  63  92 118 161 212 262 325 387
#
# _framework density 21.693332999999999
#
# number of rings (size 3 to 8) (size 9 to 14) (size 15 to 20)
#    0.000    2.625    0.000    2.625    3.500    3.750 
#   15.750    0.000    0.000    0.000    0.000    0.000 
#    0.000    0.000    0.000    0.000    0.000    0.000 
#
# Total GULP energy -178212.183110 kJ/mol
# GULP energy per Si atom -5569.130722 kJ/mol
# Density = 2.164396 g / cm^3
# Si number density = 21.693333 Si / 1000 Ang^3
#
#
#
# Elastic Constant Matrix: (Units=GPa)
#
#
# Indices 1 2 3 4 5 6 
#
# 1 136.6895 42.5203 44.7806 0.0000 0.0000 0.0000
# 2 42.5203 76.7111 33.1099 0.0000 0.0000 0.0000
# 3 44.7806 33.1099 150.7879 0.0000 0.0000 0.0000
# 4 0.0000 0.0000 0.0000 10.8417 0.0000 0.0000
# 5 0.0000 0.0000 0.0000 0.0000 0.8396 0.0000
# 6 0.0000 0.0000 0.0000 0.0000 0.0000 32.9372
#
#
#
# Elastic Compliance Matrix: (Units=1/GPa)
#
#
# Indices 1 2 3 4 5 6 
#
# 1 0.009259 -0.004358 -0.001793 0.000000 0.000000 0.000000
# 2 -0.004358 0.016452 -0.002318 0.000000 0.000000 0.000000
# 3 -0.001793 -0.002318 0.007673 0.000000 0.000000 0.000000
# 4 0.000000 0.000000 0.000000 0.092236 0.000000 0.000000
# 5 0.000000 0.000000 0.000000 0.000000 1.191053 0.000000
# 6 0.000000 0.000000 0.000000 0.000000 0.000000 0.030361
#
#
# Mechanical properties :
#
#
# Convention : Reuss Voigt Hill
#
# Bulk Modulus (GPa) = 60.80548 67.22334 64.01441
# Shear Modulus (GPa) = 3.65109 25.17555 14.41332
#
# Velocity S-wave (km/s) = 1.29873 3.41034 2.58042
# Velocity P-wave (km/s) = 5.50812 6.82367 6.20088
#
# Compressibility (1/GPa) = 0.01644589
#
# Stress axis : x y z
#
# Youngs Moduli (GPa) = 108.00393 60.78156 130.32277
#
# Poissons Ratio (x) = 0.26491 0.23363
# Poissons Ratio (y) = 0.47072 0.30212
# Poissons Ratio (z) = 0.19362 0.14091
#
# Static dielectric constant tensor:
#      x y z
#    x 1.865670 0.000000 0.000000 
#    y 0.000000 2.194000 0.000000 
#    z 0.000000 0.000000 1.743700 
# 
# From -- ./inp_files/39568.got.cif
#   From: 2010.05.17/outbox.cif.g08.bks.cpg/sg21_20_cif.got.tgz:39568.got - 2010.06.03 23:14:55.
