data_PCOD9322394
_publ_section_title
;
Structure prediction by ZEFSAII (Michael W. Deem and Ramdas Pophale) SiO2 
 PCOD9322394
Probable space group: C 2 2 2
;
_chemical_formula_sum "Si O2"
_cell_formula_units_Z 64
_cell_length_a 25.449080
_cell_length_b 15.555297
_cell_length_c 7.523353
_cell_angle_alpha 90.000000
_cell_angle_beta 90.000000
_cell_angle_gamma 90.000000
_cell_volume 2978.254689
_symmetry_space_group_name_H-M "C 2 2 2"
_symmetry_group_IT_number 21
_symmetry_cell_setting 'orthorhombic'
loop_
_space_group_symop_operation_xyz
x,y,z
-x,-y,z
x,-y,-z
-x,y,-z
1/2+x,1/2+y,z
1/2-x,1/2-y,z
1/2+x,1/2-y,-z
1/2-x,1/2+y,-z
loop_
_atom_site_type_symbol
_atom_site_label
_atom_site_fract_x
_atom_site_fract_y
_atom_site_fract_z
Si Si1 0.364500 0.096885 0.963519
Si Si2 0.438047 0.250001 0.964742
Si Si3 0.438863 0.250002 0.538263
Si Si4 0.750001 0.352903 0.043019
Si Si5 0.635502 0.596885 0.963520
Si Si6 0.250001 0.101830 0.537356
Si Si7 0.363990 0.101111 0.536722
Si Si8 0.363987 0.398889 0.536722
O O1 0.406153 0.166581 0.031158
O O2 0.304881 0.111274 0.032789
O O3 0.361721 0.108170 0.750606
O O4 0.381147 0.000000 0.000000
O O5 0.433524 0.250002 0.751311
O O6 0.406151 0.333419 0.031158
O O7 0.500000 0.250003 0.000000
O O8 0.500000 0.250003 0.500000
O O9 0.409170 0.164646 0.471473
O O10 0.409168 0.335356 0.471473
O O11 0.750000 0.250000 0.030171
O O12 0.695121 0.388728 0.967211
O O13 0.750001 0.378349 0.252109
O O14 0.638282 0.608170 0.750606
O O15 0.618854 0.500000 0.000000
O O16 0.306626 0.131905 0.468360
O O17 0.193376 0.131906 0.468360
O O18 0.250001 0.000000 0.500000
O O19 0.372011 0.000000 0.500000
O O20 0.372007 0.500000 0.500000
#
# Coordination Sequence:
#
# PCOD9322394 Si02
#       8
#     8   8   8   8   8   8   8   8
#     4  10  20  35  57  84 109 142 180 223 272 325
#     4  10  22  39  55  77 109 144 187 228 266 324
#     4  10  22  37  55  77 103 142 187 220 264 316
#     4  10  17  31  58  84 110 146 179 218 276 336
#     4  10  20  35  57  84 109 142 180 223 272 325
#     4   8  16  29  52  83 108 133 171 216 263 319
#     4   9  19  35  55  81 109 137 175 219 268 323
#     4   9  19  35  55  81 109 137 175 219 268 323
#
# _framework density 21.489094999999999
#
# number of rings (size 3 to 8) (size 9 to 14) (size 15 to 20)
#    0.000    2.500    1.250    0.375    5.250    3.000 
#    0.000    5.000    0.000    0.000    0.000    0.000 
#    0.000    0.000    0.000    0.000    0.000    0.000 
#
# Total GULP energy -178577.031037 kJ/mol
# GULP energy per Si atom -5580.532220 kJ/mol
# Density = 2.144019 g / cm^3
# Si number density = 21.489095 Si / 1000 Ang^3
#
#
#
# Elastic Constant Matrix: (Units=GPa)
#
#
# Indices 1 2 3 4 5 6 
#
# 1 232.2496 117.4470 4.5737 0.0000 0.0000 0.0000
# 2 117.4470 168.2385 -0.8371 0.0000 0.0000 0.0000
# 3 4.5737 -0.8371 54.3454 0.0000 0.0000 0.0000
# 4 0.0000 0.0000 0.0000 19.6567 0.0000 0.0000
# 5 0.0000 0.0000 0.0000 0.0000 17.1090 0.0000
# 6 0.0000 0.0000 0.0000 0.0000 0.0000 25.1812
#
#
#
# Elastic Compliance Matrix: (Units=1/GPa)
#
#
# Indices 1 2 3 4 5 6 
#
# 1 0.006677 -0.004664 -0.000634 0.000000 0.000000 0.000000
# 2 -0.004664 0.009203 0.000534 0.000000 0.000000 0.000000
# 3 -0.000634 0.000534 0.018462 0.000000 0.000000 0.000000
# 4 0.000000 0.000000 0.000000 0.050873 0.000000 0.000000
# 5 0.000000 0.000000 0.000000 0.000000 0.058449 0.000000
# 6 0.000000 0.000000 0.000000 0.000000 0.000000 0.039712
#
#
# Mechanical properties :
#
#
# Convention : Reuss Voigt Hill
#
# Bulk Modulus (GPa) = 40.29905 77.46674 58.88289
# Shear Modulus (GPa) = 24.85395 34.63271 29.74333
#
# Velocity S-wave (km/s) = 3.40455 4.01888 3.72440
# Velocity P-wave (km/s) = 5.85223 7.59360 6.77906
#
# Compressibility (1/GPa) = 0.02481448
#
# Stress axis : x y z
#
# Youngs Moduli (GPa) = 149.77057 108.66354 54.16422
#
# Poissons Ratio (x) = 0.50684 0.03433
# Poissons Ratio (y) = 0.69857 -0.02894
# Poissons Ratio (z) = 0.09492 -0.05806
#
# Static dielectric constant tensor:
#      x y z
#    x 1.791280 0.000000 0.000000 
#    y 0.000000 1.767720 0.000000 
#    z 0.000000 0.000000 1.844630 
# 
# From -- ./inp_files/18644.got.cif
#   From: 2010.05.17/outbox.cif.g08.bks.cpg/sg21_10_cif.got.tgz:18644.got - 2010.06.03 23:14:55.
