data_PCOD9322773
_publ_section_title
;
Structure prediction by ZEFSAII (Michael W. Deem and Ramdas Pophale) SiO2 
 PCOD9322773
Probable space group: C 2 2 2
;
_chemical_formula_sum "Si O2"
_cell_formula_units_Z 60
_cell_length_a 5.095680
_cell_length_b 24.133033
_cell_length_c 27.339670
_cell_angle_alpha 90.000000
_cell_angle_beta 90.000000
_cell_angle_gamma 90.000000
_cell_volume 3362.074418
_symmetry_space_group_name_H-M "C 2 2 2"
_symmetry_group_IT_number 21
_symmetry_cell_setting 'orthorhombic'
loop_
_space_group_symop_operation_xyz
x,y,z
-x,-y,z
x,-y,-z
-x,y,-z
1/2+x,1/2+y,z
1/2-x,1/2-y,z
1/2+x,1/2-y,-z
1/2-x,1/2+y,-z
loop_
_atom_site_type_symbol
_atom_site_label
_atom_site_fract_x
_atom_site_fract_y
_atom_site_fract_z
Si Si1 0.888440 0.559954 0.781298
Si Si2 0.903263 0.560916 0.664867
Si Si3 0.000000 0.210091 0.000000
Si Si4 0.093307 0.126360 0.367402
Si Si5 0.593607 0.372941 0.803470
Si Si6 0.999235 0.209562 0.892655
Si Si7 0.501394 0.289003 0.285142
Si Si8 0.748121 0.685954 0.465289
O O1 0.111995 0.604659 0.795584
O O2 0.000000 0.500000 0.795099
O O3 0.841077 0.559050 0.722631
O O4 0.612226 0.576665 0.804424
O O5 0.650179 0.583489 0.635652
O O6 0.000000 0.500000 0.649194
O O7 0.152898 0.600861 0.659041
O O8 0.250000 0.250000 0.001295
O O9 0.015035 0.181885 0.946850
O O10 0.993857 0.179277 0.336767
O O11 0.198289 0.145403 0.420052
O O12 0.545628 0.335382 0.850851
O O13 0.517668 0.335063 0.756918
O O14 0.250000 0.250000 0.884910
O O15 0.750000 0.250000 0.891849
O O16 0.250000 0.250000 0.282558
O O17 0.750000 0.250000 0.278442
O O18 0.500000 0.680853 0.500000
O O19 0.750000 0.750000 0.447321
O O20 0.000000 0.676113 0.500000
#
# Coordination Sequence:
#
# PCOD9322773 Si02
#       8
#     8   8   4   8   8   8   8   8
#     4  11  22  38  56  78 109 148 195 238 273 327
#     4  11  22  39  60  84 111 144 190 234 272 324
#     4   8  16  30  50  74 105 144 197 236 270 328
#     4  12  22  39  61  85 112 149 184 222 280 320
#     4  12  21  36  53  80 114 151 183 229 285 342
#     4  10  19  33  52  79 113 153 188 232 282 342
#     4  12  23  34  50  81 119 149 178 214 269 343
#     4  10  22  40  61  86 114 146 183 220 260 320
#
# _framework density 17.846124
#
# number of rings (size 3 to 8) (size 9 to 14) (size 15 to 20)
#    0.000    1.067    2.667    5.200    0.000    3.733 
#    0.000    0.000    0.000    6.000    0.000    2.800 
#    0.000    0.000    0.000    0.000    0.000    0.000 
#
# Total GULP energy -167519.452675 kJ/mol
# GULP energy per Si atom -5583.981756 kJ/mol
# Density = 1.780551 g / cm^3
# Si number density = 17.846124 Si / 1000 Ang^3
#
#
#
# Elastic Constant Matrix: (Units=GPa)
#
#
# Indices 1 2 3 4 5 6 
#
# 1 106.6458 9.3514 9.8453 0.0000 0.0000 0.0000
# 2 9.3514 51.9431 28.4429 0.0000 0.0000 0.0000
# 3 9.8453 28.4429 85.2256 0.0000 0.0000 0.0000
# 4 0.0000 0.0000 0.0000 9.8713 0.0000 0.0000
# 5 0.0000 0.0000 0.0000 0.0000 14.7076 0.0000
# 6 0.0000 0.0000 0.0000 0.0000 0.0000 36.7026
#
#
#
# Elastic Compliance Matrix: (Units=1/GPa)
#
#
# Indices 1 2 3 4 5 6 
#
# 1 0.009556 -0.001365 -0.000648 0.000000 0.000000 0.000000
# 2 -0.001365 0.023752 -0.007769 0.000000 0.000000 0.000000
# 3 -0.000648 -0.007769 0.014401 0.000000 0.000000 0.000000
# 4 0.000000 0.000000 0.000000 0.101304 0.000000 0.000000
# 5 0.000000 0.000000 0.000000 0.000000 0.067992 0.000000
# 6 0.000000 0.000000 0.000000 0.000000 0.000000 0.027246
#
#
# Mechanical properties :
#
#
# Convention : Reuss Voigt Hill
#
# Bulk Modulus (GPa) = 35.53175 37.67708 36.60441
# Shear Modulus (GPa) = 18.30168 25.33460 21.81814
#
# Velocity S-wave (km/s) = 3.20586 3.77186 3.50032
# Velocity P-wave (km/s) = 5.80144 6.33461 6.07388
#
# Compressibility (1/GPa) = 0.02814385
#
# Stress axis : x y z
#
# Youngs Moduli (GPa) = 104.64173 42.10192 69.43821
#
# Poissons Ratio (x) = 0.05749 0.04501
# Poissons Ratio (y) = 0.14289 0.53947
# Poissons Ratio (z) = 0.06783 0.32710
#
# Static dielectric constant tensor:
#      x y z
#    x 1.612200 0.000000 0.000000 
#    y 0.000000 1.629050 0.000000 
#    z 0.000000 0.000000 1.612740 
# 
# From -- ./inp_files/38331.got.cif
#   From: 2010.05.17/outbox.cif.g08.bks.cpg/sg21_20_cif.got.tgz:38331.got - 2010.06.03 23:14:55.
