data_PCOD9322611
_publ_section_title
;
Structure prediction by ZEFSAII (Michael W. Deem and Ramdas Pophale) SiO2 
 PCOD9322611
Probable space group: C 2 2 2
;
_chemical_formula_sum "Si O2"
_cell_formula_units_Z 48
_cell_length_a 14.303767
_cell_length_b 12.162339
_cell_length_c 12.896105
_cell_angle_alpha 90.000000
_cell_angle_beta 90.000000
_cell_angle_gamma 90.000000
_cell_volume 2243.500093
_symmetry_space_group_name_H-M "C 2 2 2"
_symmetry_group_IT_number 21
_symmetry_cell_setting 'orthorhombic'
loop_
_space_group_symop_operation_xyz
x,y,z
-x,-y,z
x,-y,-z
-x,y,-z
1/2+x,1/2+y,z
1/2-x,1/2-y,z
1/2+x,1/2-y,-z
1/2-x,1/2+y,-z
loop_
_atom_site_type_symbol
_atom_site_label
_atom_site_fract_x
_atom_site_fract_y
_atom_site_fract_z
Si Si1 0.812511 0.084403 0.842247
Si Si2 0.989186 0.225872 0.377942
Si Si3 0.853107 0.435674 0.102709
Si Si4 0.689307 0.839346 0.352765
Si Si5 0.000000 0.000000 0.257829
Si Si6 0.250000 0.750000 0.012186
Si Si7 0.904011 0.552930 0.661602
O O1 0.754846 0.138950 0.747484
O O2 0.805605 0.168416 0.936271
O O3 0.912987 0.043166 0.808671
O O4 0.750048 0.982638 0.877014
O O5 0.086757 0.283191 0.336747
O O6 0.000000 0.208725 0.500000
O O7 0.908708 0.318419 0.363795
O O8 0.972539 0.108377 0.324553
O O9 0.902513 0.453863 0.212371
O O10 0.889768 0.500000 0.000000
O O11 0.831054 0.310604 0.076021
O O12 0.750000 0.750000 0.416748
O O13 0.670714 0.966340 0.383780
O O14 0.000000 0.500000 0.623114
#
# Coordination Sequence:
#
# PCOD9322611 Si02
#       7
#     8   8   8   8   4   4   8
#     4  10  20  38  64  88 118 178 214 259 335 402
#     4  11  24  42  64  95 130 166 218 287 339 402
#     4   9  20  35  59  87 122 162 215 261 318 395
#     4  10  18  41  68  88 121 174 215 250 340 408
#     4  12  23  40  67  90 136 168 218 281 353 408
#     4  10  18  36  60  82 124 166 210 260 316 402
#     4   9  21  38  63  91 119 164 218 269 319 388
#
# _framework density 21.395140000000001
#
# number of rings (size 3 to 8) (size 9 to 14) (size 15 to 20)
#    0.000    2.000    2.500    0.250    2.333    3.333 
#    0.000    8.750    7.333    0.000    0.000    0.000 
#    0.000    0.000    0.000    0.000    0.000    0.000 
#
# Total GULP energy -133645.116903 kJ/mol
# GULP energy per Si atom -5568.546538 kJ/mol
# Density = 2.134644 g / cm^3
# Si number density = 21.395140 Si / 1000 Ang^3
#
#
#
# Elastic Constant Matrix: (Units=GPa)
#
#
# Indices 1 2 3 4 5 6 
#
# 1 73.7078 42.0083 24.1551 0.0000 0.0000 0.0000
# 2 42.0083 151.2210 19.6319 0.0000 0.0000 0.0000
# 3 24.1551 19.6319 79.8960 0.0000 0.0000 0.0000
# 4 0.0000 0.0000 0.0000 5.3524 0.0000 0.0000
# 5 0.0000 0.0000 0.0000 0.0000 27.8785 0.0000
# 6 0.0000 0.0000 0.0000 0.0000 0.0000 31.7156
#
#
#
# Elastic Compliance Matrix: (Units=1/GPa)
#
#
# Indices 1 2 3 4 5 6 
#
# 1 0.017386 -0.004284 -0.004204 0.000000 0.000000 0.000000
# 2 -0.004284 0.007886 -0.000643 0.000000 0.000000 0.000000
# 3 -0.004204 -0.000643 0.013945 0.000000 0.000000 0.000000
# 4 0.000000 0.000000 0.000000 0.186834 0.000000 0.000000
# 5 0.000000 0.000000 0.000000 0.000000 0.035870 0.000000
# 6 0.000000 0.000000 0.000000 0.000000 0.000000 0.031530
#
#
# Mechanical properties :
#
#
# Convention : Reuss Voigt Hill
#
# Bulk Modulus (GPa) = 47.71700 52.93505 50.32603
# Shear Modulus (GPa) = 15.68883 27.59127 21.64005
#
# Velocity S-wave (km/s) = 2.71087 3.59500 3.18378
# Velocity P-wave (km/s) = 5.67006 6.48285 6.09003
#
# Compressibility (1/GPa) = 0.02095689
#
# Stress axis : x y z
#
# Youngs Moduli (GPa) = 57.51646 126.80137 71.70981
#
# Poissons Ratio (x) = 0.54323 0.30145
# Poissons Ratio (y) = 0.24640 0.04608
# Poissons Ratio (z) = 0.24179 0.08148
#
# Static dielectric constant tensor:
#      x y z
#    x 1.778020 0.000000 0.000000 
#    y 0.000000 1.571870 0.000000 
#    z 0.000000 0.000000 1.796190 
# 
# From -- ./inp_files/32270.got.cif
#   From: 2010.05.17/outbox.cif.g08.bks.cpg/sg21_17_cif.got.tgz:32270.got - 2010.06.03 23:14:55.
