data_PCOD9322068
_publ_section_title
;
Structure prediction by ZEFSAII (Michael W. Deem and Ramdas Pophale) SiO2 
 PCOD9322068
Probable space group: C 2 2 21
;
_chemical_formula_sum "Si O2"
_cell_formula_units_Z 28
_cell_length_a 20.961694
_cell_length_b 5.086579
_cell_length_c 10.959240
_cell_angle_alpha 90.000000
_cell_angle_beta 90.000000
_cell_angle_gamma 90.000000
_cell_volume 1168.510471
_symmetry_space_group_name_H-M "C 2 2 21"
_symmetry_group_IT_number 20
_symmetry_cell_setting 'orthorhombic'
loop_
_space_group_symop_operation_xyz
x,y,z
-x,-y,1/2+z
x,-y,-z
-x,y,1/2-z
1/2+x,1/2+y,z
1/2-x,1/2-y,1/2+z
1/2+x,1/2-y,-z
1/2-x,1/2+y,1/2-z
loop_
_atom_site_type_symbol
_atom_site_label
_atom_site_fract_x
_atom_site_fract_y
_atom_site_fract_z
Si Si1 0.745223 0.766595 0.676836
Si Si2 0.347507 0.000000 0.500000
Si Si3 0.500000 0.571513 0.750000
Si Si4 0.934845 0.000000 0.500000
Si Si5 0.895854 0.738660 0.080202
O O1 0.732251 0.554431 0.783464
O O2 0.799974 0.620444 0.600999
O O3 0.678018 0.804452 0.611199
O O4 0.392494 0.754137 0.531668
O O5 0.474228 0.434602 0.625004
O O6 0.559915 0.732619 0.697754
O O7 0.920405 0.500000 0.000000
O O8 0.898081 0.000000 0.000000
#
# Coordination Sequence:
#
# PCOD9322068 Si02
#       5
#     8   4   4   4   8
#     4  12  25  46  77 115 156 197 257 323 394 468
#     4  12  26  49  76 113 156 202 260 326 394 462
#     4  12  28  56  78 118 158 210 268 318 388 470
#     4  12  30  49  84 113 158 208 262 326 388 464
#     4  12  27  48  79 113 157 206 257 324 393 461
#
# _framework density 23.962129999999998
#
# number of rings (size 3 to 8) (size 9 to 14) (size 15 to 20)
#    0.000    0.000    2.857    6.857    4.000    4.571 
#    0.000    0.000    0.000    0.000    0.000    0.000 
#    0.000    0.000    0.000    0.000    0.000    0.000 
#
# Total GULP energy -78357.504065 kJ/mol
# GULP energy per Si atom -5596.964576 kJ/mol
# Density = 2.390759 g / cm^3
# Si number density = 23.962130 Si / 1000 Ang^3
#
#
#
# Elastic Constant Matrix: (Units=GPa)
#
#
# Indices 1 2 3 4 5 6 
#
# 1 119.5761 20.6215 64.1647 0.0000 0.0000 0.0000
# 2 20.6215 91.2291 24.3407 0.0000 0.0000 0.0000
# 3 64.1647 24.3407 136.3051 0.0000 0.0000 0.0000
# 4 0.0000 0.0000 0.0000 45.2517 0.0000 0.0000
# 5 0.0000 0.0000 0.0000 0.0000 64.9111 0.0000
# 6 0.0000 0.0000 0.0000 0.0000 0.0000 22.8207
#
#
#
# Elastic Compliance Matrix: (Units=1/GPa)
#
#
# Indices 1 2 3 4 5 6 
#
# 1 0.011312 -0.001193 -0.005112 0.000000 0.000000 0.000000
# 2 -0.001193 0.011636 -0.001516 0.000000 0.000000 0.000000
# 3 -0.005112 -0.001516 0.010014 0.000000 0.000000 0.000000
# 4 0.000000 0.000000 0.000000 0.022099 0.000000 0.000000
# 5 0.000000 0.000000 0.000000 0.000000 0.015406 0.000000
# 6 0.000000 0.000000 0.000000 0.000000 0.000000 0.043820
#
#
# Mechanical properties :
#
#
# Convention : Reuss Voigt Hill
#
# Bulk Modulus (GPa) = 57.74099 62.81824 60.27962
# Shear Modulus (GPa) = 36.84595 42.46226 39.65411
#
# Velocity S-wave (km/s) = 3.92557 4.21415 4.07242
# Velocity P-wave (km/s) = 6.68550 7.06762 6.87921
#
# Compressibility (1/GPa) = 0.01731872
#
# Stress axis : x y z
#
# Youngs Moduli (GPa) = 88.40459 85.94293 99.86415
#
# Poissons Ratio (x) = 0.10253 0.51049
# Poissons Ratio (y) = 0.10547 0.15142
# Poissons Ratio (z) = 0.45191 0.13031
#
# Static dielectric constant tensor:
#      x y z
#    x 1.931260 0.000000 0.000000 
#    y 0.000000 1.843150 0.000000 
#    z 0.000000 0.000000 1.973980 
# 
# From -- ./inp_files/11881.got.cif
#   From: 2010.05.17/outbox.cif.g08.bks.cpg/sg20_6_cif.got.tgz:11881.got - 2010.06.03 22:52:26.
