data_PCOD9322258
_publ_section_title
;
Structure prediction by ZEFSAII (Michael W. Deem and Ramdas Pophale) SiO2 
 PCOD9322258
Probable space group: C 2 2 21
;
_chemical_formula_sum "Si O2"
_cell_formula_units_Z 30
_cell_length_a 12.000000
_cell_length_b 9.000000
_cell_length_c 27.000000
_cell_angle_alpha 90.000000
_cell_angle_beta 90.000000
_cell_angle_gamma 90.000000
_cell_volume 2916.000000
_symmetry_space_group_name_H-M "C 2 2 21"
_symmetry_group_IT_number 20
_symmetry_cell_setting 'orthorhombic'
loop_
_space_group_symop_operation_xyz
x,y,z
-x,-y,1/2+z
x,-y,-z
-x,y,1/2-z
1/2+x,1/2+y,z
1/2-x,1/2-y,1/2+z
1/2+x,1/2-y,-z
1/2-x,1/2+y,1/2-z
loop_
_atom_site_type_symbol
_atom_site_label
_atom_site_fract_x
_atom_site_fract_y
_atom_site_fract_z
Si Si1 0.285476 0.370175 0.335694
Si Si2 0.859807 0.093399 0.138217
Si Si3 0.527691 0.712627 0.913627
Si Si4 0.412022 0.712175 0.412652
Si Si5 0.185190 0.661375 0.355460
Si Si6 0.318585 0.986025 0.556872
Si Si7 0.550175 0.500000 0.000000
Si Si8 0.120730 0.865825 0.271195
O O1 0.226394 0.212598 0.340000
O O2 0.395424 0.368481 0.371329
O O3 0.193453 0.484854 0.355033
O O4 0.313811 0.407584 0.278802
O O5 0.785724 0.015641 0.094958
O O6 0.971413 0.163520 0.113226
O O7 0.887417 0.988671 0.185150
O O8 0.419002 0.780599 0.887496
O O9 0.611501 0.836088 0.934821
O O10 0.493069 0.610549 0.960372
O O11 0.307087 0.702732 0.375941
O O12 0.388445 0.607692 0.460650
O O13 0.404541 0.880918 0.431293
O O14 0.171946 0.727270 0.300587
O O15 0.280931 0.000000 0.500000
O O16 0.000000 0.826773 0.250000
#
# Coordination Sequence:
#
# PCOD9322258 Si02
#       8
#     8   8   8   8   8   8   4   8
#     4  11  24  45  71 102 140 179 240 289 354 422
#     4  11  26  45  72 103 144 187 236 298 350 429
#     4  11  24  45  68 102 140 185 232 296 348 422
#     4  12  25  44  69 105 138 186 234 289 353 424
#     4  12  24  45  71 100 141 179 231 300 353 416
#     4  11  24  46  69 101 145 188 239 288 355 427
#     4  12  24  44  68 102 140 186 242 276 354 430
#     4  12  23  45  72 100 136 186 235 290 361 427
#
# _framework density 10.288066000000001
#
# number of rings (size 3 to 8) (size 9 to 14) (size 15 to 20)
#    0.000    0.533    5.333    3.200    0.933    0.000 
#    1.200    0.667    0.000    0.000    0.000    0.000 
#    0.000    0.000    0.000    0.000    0.000    0.000 
#
# Total GULP energy -167449.706060 kJ/mol
# GULP energy per Si atom -5581.656869 kJ/mol
# Density = 1.026465 g / cm^3
# Si number density = 10.288066 Si / 1000 Ang^3
#
#
#
# Elastic Constant Matrix: (Units=GPa)
#
#
# Indices 1 2 3 4 5 6 
#
# 1 123.2783 32.4799 65.0385 0.0000 0.0000 0.0000
# 2 32.4799 83.9088 49.6654 0.0000 0.0000 0.0000
# 3 65.0385 49.6654 171.2958 0.0000 0.0000 0.0000
# 4 0.0000 0.0000 0.0000 38.5891 0.0000 0.0000
# 5 0.0000 0.0000 0.0000 0.0000 37.0205 0.0000
# 6 0.0000 0.0000 0.0000 0.0000 0.0000 35.3364
#
#
#
# Elastic Compliance Matrix: (Units=1/GPa)
#
#
# Indices 1 2 3 4 5 6 
#
# 1 0.010426 -0.002043 -0.003366 0.000000 0.000000 0.000000
# 2 -0.002043 0.014787 -0.003512 0.000000 0.000000 0.000000
# 3 -0.003366 -0.003512 0.008134 0.000000 0.000000 0.000000
# 4 0.000000 0.000000 0.000000 0.025914 0.000000 0.000000
# 5 0.000000 0.000000 0.000000 0.000000 0.027012 0.000000
# 6 0.000000 0.000000 0.000000 0.000000 0.000000 0.028299
#
#
# Mechanical properties :
#
#
# Convention : Reuss Voigt Hill
#
# Bulk Modulus (GPa) = 64.49486 74.76115 69.62800
# Shear Modulus (GPa) = 36.34168 37.60915 36.97541
#
# Velocity S-wave (km/s) = 4.20718 4.27992 4.24371
# Velocity P-wave (km/s) = 7.41708 7.79977 7.61083
#
# Compressibility (1/GPa) = 0.01550511
#
# Stress axis : x y z
#
# Youngs Moduli (GPa) = 95.91437 67.62649 122.93978
#
# Poissons Ratio (x) = 0.13818 0.41383
# Poissons Ratio (y) = 0.19598 0.43171
# Poissons Ratio (z) = 0.32286 0.23747
#
# Static dielectric constant tensor:
#      x y z
#    x 1.693730 0.000000 0.000000 
#    y 0.000000 1.823590 0.000000 
#    z 0.000000 0.000000 1.709530 
# 
# From -- ./inp_files/30334.got.cif
#   From: 2010.05.17/outbox.ucp.g08.bks.cvg/sg20_16_cif.got.tgz:30334.got - 2010.06.11 15:13:06.
