data_PCOD9322905
_publ_section_title
;
Structure prediction by ZEFSAII (Michael W. Deem and Ramdas Pophale) SiO2 
 PCOD9322905
Probable space group: C 2 2 2
;
_chemical_formula_sum "Si O2"
_cell_formula_units_Z 64
_cell_length_a 24.156572
_cell_length_b 15.739411
_cell_length_c 8.944090
_cell_angle_alpha 90.000000
_cell_angle_beta 90.000000
_cell_angle_gamma 90.000000
_cell_volume 3400.634382
_symmetry_space_group_name_H-M "C 2 2 2"
_symmetry_group_IT_number 21
_symmetry_cell_setting 'orthorhombic'
loop_
_space_group_symop_operation_xyz
x,y,z
-x,-y,z
x,-y,-z
-x,y,-z
1/2+x,1/2+y,z
1/2-x,1/2-y,z
1/2+x,1/2-y,-z
1/2-x,1/2+y,-z
loop_
_atom_site_type_symbol
_atom_site_label
_atom_site_fract_x
_atom_site_fract_y
_atom_site_fract_z
Si Si1 0.756145 0.101957 0.675351
Si Si2 0.366824 0.165049 0.680043
Si Si3 0.630490 0.655804 0.177415
Si Si4 0.369510 0.344196 0.822584
Si Si5 0.563553 1.000000 0.682137
Si Si6 0.933978 0.000000 0.676100
Si Si7 0.366824 0.834951 0.680043
Si Si8 0.743856 0.601957 0.675351
O O1 0.806595 0.135471 0.772850
O O2 0.697351 0.143673 0.713205
O O3 0.767975 0.120338 0.500000
O O4 0.751394 0.000000 0.690276
O O5 0.383958 0.251925 0.757907
O O6 0.371331 0.173942 0.500000
O O7 0.302649 0.143673 0.713204
O O8 0.403774 0.084712 0.727543
O O9 0.592753 0.582854 0.249524
O O10 0.616042 0.748075 0.242091
O O11 0.625587 0.653949 1.000000
O O12 0.407246 0.417147 0.750476
O O13 0.306595 0.364529 0.772851
O O14 0.596226 0.084712 0.727543
O O15 0.500000 0.000000 0.731634
O O16 0.563952 0.000000 0.500000
O O17 0.920197 0.000000 0.500000
O O18 0.000000 0.000000 0.693194
#
# Coordination Sequence:
#
# PCOD9322905 Si02
#       8
#     8   8   8   8   8   8   8   8
#     4  10  19  35  61  88 118 159 203 249 297 349
#     4  10  20  37  61  90 121 159 204 249 295 347
#     4  12  25  39  59  91 126 159 191 239 305 367
#     4  12  25  39  59  91 126 159 191 239 305 367
#     4   9  18  35  61  90 116 147 198 255 294 333
#     4  11  25  46  69  88 110 151 206 255 296 349
#     4  10  20  37  61  90 121 159 204 249 295 347
#     4  10  19  35  61  88 118 159 203 249 297 349
#
# _framework density 18.820018999999998
#
# number of rings (size 3 to 8) (size 9 to 14) (size 15 to 20)
#    0.000    1.500    2.500    3.375    0.000    6.000 
#    0.000    3.125    0.000    0.750    0.000    0.000 
#    0.000    0.000    0.000    0.000    0.000    0.000 
#
# Total GULP energy -178922.037214 kJ/mol
# GULP energy per Si atom -5591.313663 kJ/mol
# Density = 1.877718 g / cm^3
# Si number density = 18.820019 Si / 1000 Ang^3
#
#
#
# Elastic Constant Matrix: (Units=GPa)
#
#
# Indices 1 2 3 4 5 6 
#
# 1 106.0480 79.4203 67.5033 0.0000 0.0000 0.0000
# 2 79.4203 191.6371 83.2006 0.0000 0.0000 0.0000
# 3 67.5033 83.2006 85.3336 0.0000 0.0000 0.0000
# 4 0.0000 0.0000 0.0000 -11.8674 0.0000 0.0000
# 5 0.0000 0.0000 0.0000 0.0000 -20.8176 0.0000
# 6 0.0000 0.0000 0.0000 0.0000 0.0000 -6.8174
#
#
#
# Elastic Compliance Matrix: (Units=1/GPa)
#
#
# Indices 1 2 3 4 5 6 
#
# 1 0.019618 -0.002415 -0.013164 0.000000 0.000000 0.000000
# 2 -0.002415 0.009346 -0.007202 0.000000 0.000000 0.000000
# 3 -0.013164 -0.007202 0.029154 0.000000 0.000000 0.000000
# 4 0.000000 0.000000 0.000000 -0.084264 0.000000 0.000000
# 5 0.000000 0.000000 0.000000 0.000000 -0.048036 0.000000
# 6 0.000000 0.000000 0.000000 0.000000 0.000000 -0.146683
#
#
# Mechanical properties :
#
#
# Convention : Reuss Voigt Hill
#
# Bulk Modulus (GPa) = 79.64438 93.69635 86.67036
# Shear Modulus (GPa) = -29.21935 2.29248 -13.46343
#
# Velocity S-wave (km/s) = -3.94454 1.10488 -2.67756
# Velocity P-wave (km/s) = 4.65457 7.17783 6.04922
#
# Compressibility (1/GPa) = 0.01255581
#
# Stress axis : x y z
#
# Youngs Moduli (GPa) = 50.97471 107.00095 34.30072
#
# Poissons Ratio (x) = 0.25839 0.45153
# Poissons Ratio (y) = 0.12310 0.24703
# Poissons Ratio (z) = 0.67103 0.77060
#
# Static dielectric constant tensor:
#      x y z
#    x 1.631510 0.000000 0.000000 
#    y 0.000000 1.639880 0.000000 
#    z 0.000000 0.000000 1.623540 
# 
# From -- ./inp_files/18628.got.cif
#   From: 2010.05.17/outbox.cif.g08.bks.cpg/sg21_10_cif.got.tgz:18628.got - 2010.06.03 23:14:55.
