data_PCOD9322904
_publ_section_title
;
Structure prediction by ZEFSAII (Michael W. Deem and Ramdas Pophale) SiO2 
 PCOD9322904
Probable space group: C 2 2 2
;
_chemical_formula_sum "Si O2"
_cell_formula_units_Z 40
_cell_length_a 25.407627
_cell_length_b 15.539939
_cell_length_c 5.215188
_cell_angle_alpha 90.000000
_cell_angle_beta 90.000000
_cell_angle_gamma 90.000000
_cell_volume 2059.128187
_symmetry_space_group_name_H-M "C 2 2 2"
_symmetry_group_IT_number 21
_symmetry_cell_setting 'orthorhombic'
loop_
_space_group_symop_operation_xyz
x,y,z
-x,-y,z
x,-y,-z
-x,y,-z
1/2+x,1/2+y,z
1/2-x,1/2-y,z
1/2+x,1/2-y,-z
1/2-x,1/2+y,-z
loop_
_atom_site_type_symbol
_atom_site_label
_atom_site_fract_x
_atom_site_fract_y
_atom_site_fract_z
Si Si1 0.811366 0.240696 0.884155
Si Si2 0.125449 0.593260 0.049722
Si Si3 0.880630 0.901630 0.928111
Si Si4 0.594816 0.684927 0.421940
Si Si5 0.559013 0.128342 0.547406
O O1 0.750000 0.250000 0.841246
O O2 0.846294 0.223930 0.628826
O O3 0.835621 0.326128 0.013983
O O4 0.827697 0.156206 0.047131
O O5 0.097827 0.594797 0.325903
O O6 0.150622 0.500000 0.000000
O O7 0.081231 0.605717 0.827928
O O8 0.903863 0.882826 0.650178
O O9 0.917031 0.140504 0.849958
O O10 0.871712 0.000000 0.000000
O O11 0.560455 0.767920 0.477698
O O12 0.500000 0.098088 0.500000
#
# Coordination Sequence:
#
# PCOD9322904 Si02
#       5
#     8   8   8   8   8
#     4   9  21  37  59  82 117 155 193 235 294 339
#     4  11  23  39  57  88 122 152 194 244 284 340
#     4  10  19  35  61  81 110 147 190 233 285 339
#     4   9  19  37  55  84 114 147 187 239 284 337
#     4  11  21  39  63  86 116 158 193 234 296 351
#
# _framework density 19.425697
#
# number of rings (size 3 to 8) (size 9 to 14) (size 15 to 20)
#    1.200    0.800    2.000    1.800    0.000    4.000 
#    0.000    0.000    8.800    3.600    0.000    0.000 
#    0.000    0.000    0.000    0.000    0.000    0.000 
#
# Total GULP energy -111416.309156 kJ/mol
# GULP energy per Si atom -5570.815458 kJ/mol
# Density = 1.938148 g / cm^3
# Si number density = 19.425697 Si / 1000 Ang^3
#
#
#
# Elastic Constant Matrix: (Units=GPa)
#
#
# Indices 1 2 3 4 5 6 
#
# 1 50.9800 4.8120 -0.7112 0.0000 0.0000 0.0000
# 2 4.8120 123.7097 -8.0609 0.0000 0.0000 0.0000
# 3 -0.7112 -8.0609 86.7534 0.0000 0.0000 0.0000
# 4 0.0000 0.0000 0.0000 31.4289 0.0000 0.0000
# 5 0.0000 0.0000 0.0000 0.0000 10.1832 0.0000
# 6 0.0000 0.0000 0.0000 0.0000 0.0000 -6.6128
#
#
#
# Elastic Compliance Matrix: (Units=1/GPa)
#
#
# Indices 1 2 3 4 5 6 
#
# 1 0.019689 -0.000760 0.000091 0.000000 0.000000 0.000000
# 2 -0.000760 0.008162 0.000752 0.000000 0.000000 0.000000
# 3 0.000091 0.000752 0.011598 0.000000 0.000000 0.000000
# 4 0.000000 0.000000 0.000000 0.031818 0.000000 0.000000
# 5 0.000000 0.000000 0.000000 0.000000 0.098201 0.000000
# 6 0.000000 0.000000 0.000000 0.000000 0.000000 -0.151221
#
#
# Mechanical properties :
#
#
# Convention : Reuss Voigt Hill
#
# Bulk Modulus (GPa) = 25.24350 28.16922 26.70636
# Shear Modulus (GPa) = 159.82587 24.69340 92.25964
#
# Velocity S-wave (km/s) = 9.08042 3.56922 6.89904
# Velocity P-wave (km/s) = 11.08882 5.61411 8.78863
#
# Compressibility (1/GPa) = 0.03961416
#
# Stress axis : x y z
#
# Youngs Moduli (GPa) = 50.79101 122.51883 86.22502
#
# Poissons Ratio (x) = 0.09311 -0.00783
# Poissons Ratio (y) = 0.03860 -0.06486
# Poissons Ratio (z) = -0.00461 -0.09215
#
# Static dielectric constant tensor:
#      x y z
#    x 1.652220 0.000000 0.000000 
#    y 0.000000 1.705760 0.000000 
#    z 0.000000 0.000000 1.688730 
# 
# From -- ./inp_files/6603.got.cif
#   From: 2010.05.17/outbox.cif.g08.bks.cpg/sg21_4_cif.got.tgz:6603.got - 2010.06.03 23:14:55.
