data_PCOD9322690
_publ_section_title
;
Structure prediction by ZEFSAII (Michael W. Deem and Ramdas Pophale) SiO2 
 PCOD9322690
Probable space group: C 2 2 2
;
_chemical_formula_sum "Si O2"
_cell_formula_units_Z 40
_cell_length_a 25.311153
_cell_length_b 4.987596
_cell_length_c 18.120679
_cell_angle_alpha 90.000000
_cell_angle_beta 90.000000
_cell_angle_gamma 90.000000
_cell_volume 2287.587233
_symmetry_space_group_name_H-M "C 2 2 2"
_symmetry_group_IT_number 21
_symmetry_cell_setting 'orthorhombic'
loop_
_space_group_symop_operation_xyz
x,y,z
-x,-y,z
x,-y,-z
-x,y,-z
1/2+x,1/2+y,z
1/2-x,1/2-y,z
1/2+x,1/2-y,-z
1/2-x,1/2+y,-z
loop_
_atom_site_type_symbol
_atom_site_label
_atom_site_fract_x
_atom_site_fract_y
_atom_site_fract_z
Si Si1 0.155142 0.075568 0.732592
Si Si2 0.441868 0.395232 0.832365
Si Si3 0.210750 0.002707 0.583227
Si Si4 0.803214 0.579091 0.182012
Si Si5 0.098735 0.593457 0.916216
O O1 0.095992 0.125241 0.761026
O O2 0.192565 0.293700 0.775135
O O3 0.168171 0.057040 0.646649
O O4 0.168097 0.781814 0.762703
O O5 0.500000 0.500000 0.815628
O O6 0.416809 0.605446 0.892097
O O7 0.438233 0.104963 0.869217
O O8 0.250000 0.750000 0.597169
O O9 0.188497 0.000000 0.500000
O O10 0.250000 0.250000 0.585632
O O11 0.750000 0.750000 0.164975
O O12 0.840853 0.549450 0.110976
O O13 0.093211 0.500000 0.000000
#
# Coordination Sequence:
#
# PCOD9322690 Si02
#       5
#     8   8   8   8   8
#     4  10  19  32  50  71  98 127 162 200 235 287
#     4  10  21  35  52  72  94 127 167 208 252 292
#     4  10  19  30  48  75 103 129 156 190 236 287
#     4  10  19  32  50  70  95 130 162 193 238 291
#     4  10  21  35  50  73  99 124 163 208 252 300
#
# _framework density 17.485672000000001
#
# number of rings (size 3 to 8) (size 9 to 14) (size 15 to 20)
#    0.000    2.000    0.000    4.800    0.000    2.400 
#    0.000    6.000    0.000    0.600    0.000    0.000 
#    0.000   14.400    0.000    0.000    0.000    3.200 
#
# Total GULP energy -111372.151336 kJ/mol
# GULP energy per Si atom -5568.607567 kJ/mol
# Density = 1.744587 g / cm^3
# Si number density = 17.485672 Si / 1000 Ang^3
#
#
#
# Elastic Constant Matrix: (Units=GPa)
#
#
# Indices 1 2 3 4 5 6 
#
# 1 105.4314 -5.4530 55.0882 0.0000 0.0000 0.0000
# 2 -5.4530 85.9686 10.5999 0.0000 0.0000 0.0000
# 3 55.0882 10.5999 100.8928 0.0000 0.0000 0.0000
# 4 0.0000 0.0000 0.0000 16.7226 0.0000 0.0000
# 5 0.0000 0.0000 0.0000 0.0000 6.5526 0.0000
# 6 0.0000 0.0000 0.0000 0.0000 0.0000 25.2261
#
#
#
# Elastic Compliance Matrix: (Units=1/GPa)
#
#
# Indices 1 2 3 4 5 6 
#
# 1 0.013538 0.001793 -0.007581 0.000000 0.000000 0.000000
# 2 0.001793 0.012022 -0.002242 0.000000 0.000000 0.000000
# 3 -0.007581 -0.002242 0.014286 0.000000 0.000000 0.000000
# 4 0.000000 0.000000 0.000000 0.059799 0.000000 0.000000
# 5 0.000000 0.000000 0.000000 0.000000 0.152612 0.000000
# 6 0.000000 0.000000 0.000000 0.000000 0.000000 0.039642
#
#
# Mechanical properties :
#
#
# Convention : Reuss Voigt Hill
#
# Bulk Modulus (GPa) = 42.03777 45.86258 43.95017
# Shear Modulus (GPa) = 15.82839 25.17076 20.49957
#
# Velocity S-wave (km/s) = 3.01195 3.79820 3.42769
# Velocity P-wave (km/s) = 6.01575 6.74690 6.39179
#
# Compressibility (1/GPa) = 0.02378813
#
# Stress axis : x y z
#
# Youngs Moduli (GPa) = 73.86383 83.17818 69.99813
#
# Poissons Ratio (x) = -0.14917 0.53062
# Poissons Ratio (y) = -0.13247 0.15696
# Poissons Ratio (z) = 0.55992 0.18651
#
# Static dielectric constant tensor:
#      x y z
#    x 1.634920 0.000000 0.000000 
#    y 0.000000 1.600290 0.000000 
#    z 0.000000 0.000000 1.634480 
# 
# From -- ./inp_files/33473.got.cif
#   From: 2010.05.17/outbox.cif.g08.bks.cpg/sg21_17_cif.got.tgz:33473.got - 2010.06.03 23:14:55.
