data_PCOD9322828
_publ_section_title
;
Structure prediction by ZEFSAII (Michael W. Deem and Ramdas Pophale) SiO2 
 PCOD9322828
Probable space group: C 2 2 2
;
_chemical_formula_sum "Si O2"
_cell_formula_units_Z 40
_cell_length_a 8.928939
_cell_length_b 14.410839
_cell_length_c 14.313511
_cell_angle_alpha 90.000000
_cell_angle_beta 90.000000
_cell_angle_gamma 90.000000
_cell_volume 1841.769592
_symmetry_space_group_name_H-M "C 2 2 2"
_symmetry_group_IT_number 21
_symmetry_cell_setting 'orthorhombic'
loop_
_space_group_symop_operation_xyz
x,y,z
-x,-y,z
x,-y,-z
-x,y,-z
1/2+x,1/2+y,z
1/2-x,1/2-y,z
1/2+x,1/2-y,-z
1/2-x,1/2+y,-z
loop_
_atom_site_type_symbol
_atom_site_label
_atom_site_fract_x
_atom_site_fract_y
_atom_site_fract_z
Si Si1 0.067839 0.399517 0.899246
Si Si2 0.820075 0.991348 0.348403
Si Si3 0.822649 0.850272 0.517152
Si Si4 0.309882 0.151402 0.206779
Si Si5 0.676742 0.652189 0.999884
O O1 0.242456 0.410961 0.922194
O O2 0.000000 0.500000 0.883388
O O3 0.987279 0.340307 0.818777
O O4 0.000000 0.367947 0.000000
O O5 0.784291 0.920733 0.433466
O O6 0.733803 0.939338 0.265570
O O7 0.782223 0.093803 0.387668
O O8 0.000000 0.000000 0.331121
O O9 0.750000 0.750000 0.513039
O O10 0.000000 0.838838 0.500000
O O11 0.250000 0.250000 0.246953
O O12 0.229552 0.139935 0.106205
O O13 0.750000 0.750000 0.969462
O O14 0.500000 0.648082 0.000000
#
# Coordination Sequence:
#
# PCOD9322828 Si02
#       5
#     8   8   8   8   8
#     4   9  19  36  53  76 115 155 198 257 314 361
#     4   9  19  35  57  87 122 159 201 252 309 375
#     4   9  18  37  63  87 118 159 200 246 307 376
#     4  10  19  34  56  81 115 158 205 258 310 365
#     4  10  19  34  59  87 116 161 215 264 318 376
#
# _framework density 21.718243000000001
#
# number of rings (size 3 to 8) (size 9 to 14) (size 15 to 20)
#    0.000    2.600    0.000    4.800    0.000    1.600 
#    0.000   15.000    0.000    4.800    0.000    0.000 
#    0.000    0.000    0.000    0.000    0.000    0.000 
#
# Total GULP energy -111370.834285 kJ/mol
# GULP energy per Si atom -5568.541714 kJ/mol
# Density = 2.166881 g / cm^3
# Si number density = 21.718243 Si / 1000 Ang^3
#
#
#
# Elastic Constant Matrix: (Units=GPa)
#
#
# Indices 1 2 3 4 5 6 
#
# 1 125.5676 41.0867 38.9838 0.0000 0.0000 0.0000
# 2 41.0867 125.7959 30.8882 0.0000 0.0000 0.0000
# 3 38.9838 30.8882 68.9197 0.0000 0.0000 0.0000
# 4 0.0000 0.0000 0.0000 21.7328 0.0000 0.0000
# 5 0.0000 0.0000 0.0000 0.0000 15.4279 0.0000
# 6 0.0000 0.0000 0.0000 0.0000 0.0000 32.4133
#
#
#
# Elastic Compliance Matrix: (Units=1/GPa)
#
#
# Indices 1 2 3 4 5 6 
#
# 1 0.010149 -0.002141 -0.004781 0.000000 0.000000 0.000000
# 2 -0.002141 0.009384 -0.002995 0.000000 0.000000 0.000000
# 3 -0.004781 -0.002995 0.018556 0.000000 0.000000 0.000000
# 4 0.000000 0.000000 0.000000 0.046013 0.000000 0.000000
# 5 0.000000 0.000000 0.000000 0.000000 0.064817 0.000000
# 6 0.000000 0.000000 0.000000 0.000000 0.000000 0.030851
#
#
# Mechanical properties :
#
#
# Convention : Reuss Voigt Hill
#
# Bulk Modulus (GPa) = 54.77765 60.24452 57.51108
# Shear Modulus (GPa) = 24.30850 27.86978 26.08914
#
# Velocity S-wave (km/s) = 3.34917 3.58612 3.46967
# Velocity P-wave (km/s) = 6.34292 6.70421 6.52607
#
# Compressibility (1/GPa) = 0.01825562
#
# Stress axis : x y z
#
# Youngs Moduli (GPa) = 98.53547 106.56521 53.89042
#
# Poissons Ratio (x) = 0.22813 0.25765
# Poissons Ratio (y) = 0.21094 0.16139
# Poissons Ratio (z) = 0.47110 0.31914
#
# Static dielectric constant tensor:
#      x y z
#    x 1.935880 0.000000 0.000000 
#    y 0.000000 1.922990 0.000000 
#    z 0.000000 0.000000 1.813880 
# 
# From -- ./inp_files/30179.got.cif
#   From: 2010.05.17/outbox.cif.g08.bks.cpg/sg21_16_cif.got.tgz:30179.got - 2010.06.03 23:14:55.
