data_PCOD9322455
_publ_section_title
;
Structure prediction by ZEFSAII (Michael W. Deem and Ramdas Pophale) SiO2 
 PCOD9322455
Probable space group: C 2 2 2
;
_chemical_formula_sum "Si O2"
_cell_formula_units_Z 34
_cell_length_a 17.030138
_cell_length_b 14.066123
_cell_length_c 5.637922
_cell_angle_alpha 90.000000
_cell_angle_beta 90.000000
_cell_angle_gamma 90.000000
_cell_volume 1350.553028
_symmetry_space_group_name_H-M "C 2 2 2"
_symmetry_group_IT_number 21
_symmetry_cell_setting 'orthorhombic'
loop_
_space_group_symop_operation_xyz
x,y,z
-x,-y,z
x,-y,-z
-x,y,-z
1/2+x,1/2+y,z
1/2-x,1/2-y,z
1/2+x,1/2-y,-z
1/2-x,1/2+y,-z
loop_
_atom_site_type_symbol
_atom_site_label
_atom_site_fract_x
_atom_site_fract_y
_atom_site_fract_z
Si Si1 0.251328 0.134722 0.878076
Si Si2 0.306361 0.342281 0.364046
Si Si3 0.514982 0.657504 0.253159
Si Si4 0.569039 0.857087 0.823495
Si Si5 0.000000 0.500000 0.500000
O O1 0.250000 0.250000 0.879992
O O2 0.208882 0.111151 0.624952
O O3 0.344170 0.120839 0.904597
O O4 0.215580 0.098910 0.126833
O O5 0.250000 0.250000 0.371590
O O6 0.394934 0.310568 0.294116
O O7 0.500000 0.604997 0.500000
O O8 0.455516 0.748415 0.235307
O O9 0.500000 0.609311 0.000000
O O10 0.559987 0.923836 0.602549
O O11 0.500000 0.888657 0.000000
#
# Coordination Sequence:
#
# PCOD9322455 Si02
#       5
#     8   8   8   8   2
#     4  10  20  32  53  74 101 138 188 228 282 323
#     4  10  18  30  47  76  97 136 181 216 284 327
#     4  11  19  31  52  74 109 144 183 223 271 337
#     4  11  23  37  53  76 109 151 201 226 268 323
#     4  12  26  36  56  74 108 164 204 222 250 316
#
# _framework density 25.174869999999999
#
# number of rings (size 3 to 8) (size 9 to 14) (size 15 to 20)
#    0.000    1.412    1.176   10.235    3.294    0.000 
#    0.000    0.000    0.000    0.000    0.000    0.000 
#    0.000    0.000    0.000   39.176    4.235    0.000 
#
# Total GULP energy -94712.369175 kJ/mol
# GULP energy per Si atom -5571.315834 kJ/mol
# Density = 2.511757 g / cm^3
# Si number density = 25.174870 Si / 1000 Ang^3
#
#
#
# Elastic Constant Matrix: (Units=GPa)
#
#
# Indices 1 2 3 4 5 6 
#
# 1 101.6638 -22.3204 37.3544 0.0000 0.0000 0.0000
# 2 -22.3204 64.1867 18.4255 0.0000 0.0000 0.0000
# 3 37.3544 18.4255 231.0573 0.0000 0.0000 0.0000
# 4 0.0000 0.0000 0.0000 10.5933 0.0000 0.0000
# 5 0.0000 0.0000 0.0000 0.0000 34.4162 0.0000
# 6 0.0000 0.0000 0.0000 0.0000 0.0000 -23.6241
#
#
#
# Elastic Compliance Matrix: (Units=1/GPa)
#
#
# Indices 1 2 3 4 5 6 
#
# 1 0.011707 0.004722 -0.002269 0.000000 0.000000 0.000000
# 2 0.004722 0.017849 -0.002187 0.000000 0.000000 0.000000
# 3 -0.002269 -0.002187 0.004869 0.000000 0.000000 0.000000
# 4 0.000000 0.000000 0.000000 0.094399 0.000000 0.000000
# 5 0.000000 0.000000 0.000000 0.000000 0.029056 0.000000
# 6 0.000000 0.000000 0.000000 0.000000 0.000000 -0.042330
#
#
# Mechanical properties :
#
#
# Convention : Reuss Voigt Hill
#
# Bulk Modulus (GPa) = 28.60556 51.53632 40.07094
# Shear Modulus (GPa) = 39.47218 28.50697 33.98958
#
# Velocity S-wave (km/s) = 3.96399 3.36870 3.67841
# Velocity P-wave (km/s) = 5.68669 5.97048 5.83031
#
# Compressibility (1/GPa) = 0.03495824
#
# Stress axis : x y z
#
# Youngs Moduli (GPa) = 85.41951 56.02405 205.37352
#
# Poissons Ratio (x) = -0.26457 0.46604
# Poissons Ratio (y) = -0.40338 0.44912
# Poissons Ratio (z) = 0.19383 0.12252
#
# Static dielectric constant tensor:
#      x y z
#    x 1.659440 0.000000 0.000000 
#    y 0.000000 1.953590 0.000000 
#    z 0.000000 0.000000 2.222960 
# 
# From -- ./inp_files/3683.got.cif
#   From: 2010.05.17/outbox.cif.g08.bks.cpg/sg21_2_cif.got.tgz:3683.got - 2010.06.03 23:14:55.
