data_PCOD9322111
_publ_section_title
;
Structure prediction by ZEFSAII (Michael W. Deem and Ramdas Pophale) SiO2 
 PCOD9322111
Probable space group: C 2 2 21
;
_chemical_formula_sum "Si O2"
_cell_formula_units_Z 40
_cell_length_a 24.182610
_cell_length_b 8.482984
_cell_length_c 8.553473
_cell_angle_alpha 90.000000
_cell_angle_beta 90.000000
_cell_angle_gamma 90.000000
_cell_volume 1754.665385
_symmetry_space_group_name_H-M "C 2 2 21"
_symmetry_group_IT_number 20
_symmetry_cell_setting 'orthorhombic'
loop_
_space_group_symop_operation_xyz
x,y,z
-x,-y,1/2+z
x,-y,-z
-x,y,1/2-z
1/2+x,1/2+y,z
1/2-x,1/2-y,1/2+z
1/2+x,1/2-y,-z
1/2-x,1/2+y,1/2-z
loop_
_atom_site_type_symbol
_atom_site_label
_atom_site_fract_x
_atom_site_fract_y
_atom_site_fract_z
Si Si1 0.615587 0.826105 0.567135
Si Si2 0.388730 0.822569 0.556218
Si Si3 0.786824 0.118264 0.883241
Si Si4 0.502800 0.678468 0.437904
Si Si5 0.203245 0.881806 0.877642
O O1 0.615716 0.822514 0.756069
O O2 0.665815 0.710875 0.524636
O O3 0.558552 0.760265 0.498659
O O4 0.624233 0.000000 0.500000
O O5 0.449894 0.768449 0.506822
O O6 0.346159 0.705444 0.468153
O O7 0.379148 0.000000 0.500000
O O8 0.745290 0.248929 0.817736
O O9 0.813776 0.003848 0.755804
O O10 0.755548 0.000000 0.000000
O O11 0.501728 0.500000 0.500000
O O12 0.500000 0.680890 0.250000
O O13 0.232829 0.000000 0.000000
#
# Coordination Sequence:
#
# PCOD9322111 Si02
#       5
#     8   8   8   8   8
#     4  12  27  49  76 111 154 204 259 317 386 460
#     4  12  27  47  78 110 155 204 258 320 386 457
#     4  12  28  45  78 110 156 203 262 318 386 461
#     4  12  27  48  78 113 154 200 256 317 387 463
#     4  12  26  50  75 113 155 207 259 321 389 456
#
# _framework density 22.796371000000001
#
# number of rings (size 3 to 8) (size 9 to 14) (size 15 to 20)
#    0.000    0.000    2.000    7.200   11.200    0.000 
#    0.000    0.000    0.000    0.000    0.000    0.000 
#    0.000    0.000    0.000    0.000    0.000    0.000 
#
# Total GULP energy -112032.810552 kJ/mol
# GULP energy per Si atom -5601.640528 kJ/mol
# Density = 2.274449 g / cm^3
# Si number density = 22.796371 Si / 1000 Ang^3
#
#
#
# Elastic Constant Matrix: (Units=GPa)
#
#
# Indices 1 2 3 4 5 6 
#
# 1 146.0873 78.9999 36.2893 0.0000 0.0000 0.0000
# 2 78.9999 195.1601 69.1719 0.0000 0.0000 0.0000
# 3 36.2893 69.1719 101.9647 0.0000 0.0000 0.0000
# 4 0.0000 0.0000 0.0000 55.8248 0.0000 0.0000
# 5 0.0000 0.0000 0.0000 0.0000 31.2704 0.0000
# 6 0.0000 0.0000 0.0000 0.0000 0.0000 46.5746
#
#
#
# Elastic Compliance Matrix: (Units=1/GPa)
#
#
# Indices 1 2 3 4 5 6 
#
# 1 0.008832 -0.003240 -0.000945 0.000000 0.000000 0.000000
# 2 -0.003240 0.007935 -0.004230 0.000000 0.000000 0.000000
# 3 -0.000945 -0.004230 0.013013 0.000000 0.000000 0.000000
# 4 0.000000 0.000000 0.000000 0.017913 0.000000 0.000000
# 5 0.000000 0.000000 0.000000 0.000000 0.031979 0.000000
# 6 0.000000 0.000000 0.000000 0.000000 0.000000 0.021471
#
#
# Mechanical properties :
#
#
# Convention : Reuss Voigt Hill
#
# Bulk Modulus (GPa) = 77.22126 90.23713 83.72920
# Shear Modulus (GPa) = 40.88628 43.98400 42.43514
#
# Velocity S-wave (km/s) = 4.23962 4.39729 4.31918
# Velocity P-wave (km/s) = 7.61011 8.09021 7.85383
#
# Compressibility (1/GPa) = 0.01294980
#
# Stress axis : x y z
#
# Youngs Moduli (GPa) = 113.22137 126.02750 76.84558
#
# Poissons Ratio (x) = 0.40836 0.07264
# Poissons Ratio (y) = 0.36686 0.32503
# Poissons Ratio (z) = 0.10703 0.53306
#
# Static dielectric constant tensor:
#      x y z
#    x 1.792240 0.000000 0.000000 
#    y 0.000000 1.818150 0.000000 
#    z 0.000000 0.000000 1.907420 
# 
# From -- ./inp_files/10974.got.cif
#   From: 2010.05.17/outbox.cif.g08.bks.cpg/sg20_6_cif.got.tgz:10974.got - 2010.06.03 22:52:26.
