data_PCOD9322045
_publ_section_title
;
Structure prediction by ZEFSAII (Michael W. Deem and Ramdas Pophale) SiO2 
 PCOD9322045
Probable space group: C 2 2 21
;
_chemical_formula_sum "Si O2"
_cell_formula_units_Z 32
_cell_length_a 12.423729
_cell_length_b 8.440165
_cell_length_c 12.802573
_cell_angle_alpha 90.000000
_cell_angle_beta 90.000000
_cell_angle_gamma 90.000000
_cell_volume 1342.456331
_symmetry_space_group_name_H-M "C 2 2 21"
_symmetry_group_IT_number 20
_symmetry_cell_setting 'orthorhombic'
loop_
_space_group_symop_operation_xyz
x,y,z
-x,-y,1/2+z
x,-y,-z
-x,y,1/2-z
1/2+x,1/2+y,z
1/2-x,1/2-y,1/2+z
1/2+x,1/2-y,-z
1/2-x,1/2+y,1/2-z
loop_
_atom_site_type_symbol
_atom_site_label
_atom_site_fract_x
_atom_site_fract_y
_atom_site_fract_z
Si Si1 0.938708 0.500000 0.500000
Si Si2 0.736809 0.330416 0.878956
Si Si3 0.098261 0.252513 0.452035
Si Si4 0.054504 0.000000 0.000000
Si Si5 0.769956 0.453765 0.661233
O O1 0.859842 0.402520 0.576751
O O2 0.013457 0.390278 0.426802
O O3 0.628089 0.424995 0.908982
O O4 0.791671 0.412431 0.780237
O O5 0.729226 0.143569 0.851846
O O6 0.808469 0.331391 0.981667
O O7 0.159318 0.139630 0.369260
O O8 0.027907 0.139969 0.528008
#
# Coordination Sequence:
#
# PCOD9322045 Si02
#       5
#     4   8   8   4   8
#     4  12  26  50  78 104 152 196 244 302 370 438
#     4  12  28  48  76 109 151 193 243 311 367 436
#     4  12  25  52  76 104 149 197 244 304 363 439
#     4  12  24  52  78 102 148 202 240 304 370 430
#     4  12  27  51  72 112 153 187 250 308 364 441
#
# _framework density 23.8369
#
# number of rings (size 3 to 8) (size 9 to 14) (size 15 to 20)
#    0.000    0.000    7.500    0.750   10.500    2.000 
#    0.000    0.000    0.000    0.000    0.000    0.000 
#    0.000    0.000    0.000    0.000    0.000    0.000 
#
# Total GULP energy -89342.134902 kJ/mol
# GULP energy per Si atom -5583.883431 kJ/mol
# Density = 2.378265 g / cm^3
# Si number density = 23.836900 Si / 1000 Ang^3
#
#
#
# Elastic Constant Matrix: (Units=GPa)
#
#
# Indices 1 2 3 4 5 6 
#
# 1 82.2028 32.5211 -17.0171 0.0000 0.0000 0.0000
# 2 32.5211 118.0707 5.6521 0.0000 0.0000 0.0000
# 3 -17.0171 5.6521 35.3559 0.0000 0.0000 0.0000
# 4 0.0000 0.0000 0.0000 43.4424 0.0000 0.0000
# 5 0.0000 0.0000 0.0000 0.0000 10.5023 0.0000
# 6 0.0000 0.0000 0.0000 0.0000 0.0000 59.6804
#
#
#
# Elastic Compliance Matrix: (Units=1/GPa)
#
#
# Indices 1 2 3 4 5 6 
#
# 1 0.015770 -0.004743 0.008348 0.000000 0.000000 0.000000
# 2 -0.004743 0.009961 -0.003875 0.000000 0.000000 0.000000
# 3 0.008348 -0.003875 0.032922 0.000000 0.000000 0.000000
# 4 0.000000 0.000000 0.000000 0.023019 0.000000 0.000000
# 5 0.000000 0.000000 0.000000 0.000000 0.095217 0.000000
# 6 0.000000 0.000000 0.000000 0.000000 0.000000 0.016756
#
#
# Mechanical properties :
#
#
# Convention : Reuss Voigt Hill
#
# Bulk Modulus (GPa) = 17.20806 30.88240 24.04523
# Shear Modulus (GPa) = 23.41305 37.02324 30.21815
#
# Velocity S-wave (km/s) = 3.13744 3.94533 3.56435
# Velocity P-wave (km/s) = 4.51214 5.80844 5.20084
#
# Compressibility (1/GPa) = 0.05811230
#
# Stress axis : x y z
#
# Youngs Moduli (GPa) = 63.41233 100.38661 30.37526
#
# Poissons Ratio (x) = 0.47616 -0.25359
# Poissons Ratio (y) = 0.30078 0.11772
# Poissons Ratio (z) = -0.52939 0.38904
#
# Static dielectric constant tensor:
#      x y z
#    x 1.943630 0.000000 0.000000 
#    y 0.000000 2.021900 0.000000 
#    z 0.000000 0.000000 1.823680 
# 
# From -- ./inp_files/18255.got.cif
#   From: 2010.05.17/outbox.cif.g08.bks.cpg/sg20_10_cif.got.tgz:18255.got - 2010.06.03 22:52:26.
