data_PCOD9322205
_publ_section_title
;
Structure prediction by ZEFSAII (Michael W. Deem and Ramdas Pophale) SiO2 
 PCOD9322205
Probable space group: C 2 2 21
;
_chemical_formula_sum "Si O2"
_cell_formula_units_Z 32
_cell_length_a 12.000000
_cell_length_b 30.000000
_cell_length_c 9.000000
_cell_angle_alpha 90.000000
_cell_angle_beta 90.000000
_cell_angle_gamma 90.000000
_cell_volume 3240.000000
_symmetry_space_group_name_H-M "C 2 2 21"
_symmetry_group_IT_number 20
_symmetry_cell_setting 'orthorhombic'
loop_
_space_group_symop_operation_xyz
x,y,z
-x,-y,1/2+z
x,-y,-z
-x,y,1/2-z
1/2+x,1/2+y,z
1/2-x,1/2-y,1/2+z
1/2+x,1/2-y,-z
1/2-x,1/2+y,1/2-z
loop_
_atom_site_type_symbol
_atom_site_label
_atom_site_fract_x
_atom_site_fract_y
_atom_site_fract_z
Si Si1 0.773053 0.548931 0.518665
Si Si2 0.427684 0.286305 0.597438
Si Si3 0.778118 0.628298 0.694529
Si Si4 0.514138 0.454817 0.573070
Si Si5 0.035680 0.864474 0.418636
Si Si6 0.876345 0.384432 0.715531
Si Si7 0.289585 0.838428 0.978016
Si Si8 0.050619 0.684409 0.988649
O O1 0.822610 0.500000 0.500000
O O2 0.790986 0.574931 0.673963
O O3 0.642987 0.544806 0.479122
O O4 0.823648 0.582280 0.399506
O O5 0.500000 0.288888 0.750000
O O6 0.491245 0.318410 0.482890
O O7 0.300889 0.304999 0.593262
O O8 0.424395 0.235440 0.544705
O O9 0.670581 0.638114 0.589976
O O10 0.887748 0.654104 0.636008
O O11 0.753213 0.644720 0.860013
O O12 0.463104 0.500000 0.500000
O O13 0.500000 0.457125 0.750000
O O14 0.483577 0.405462 0.513445
O O15 0.000000 0.872230 0.250000
O O16 0.803689 0.378461 0.861497
O O17 0.895388 0.336059 0.638317
O O18 0.000000 0.400723 0.750000
O O19 0.416843 0.820911 0.999475
#
# Coordination Sequence:
#
# PCOD9322205 Si02
#       8
#     8   8   8   8   8   8   8   8
#     4   9  20  39  64  88 119 162 209 258 316 371
#     4  12  27  39  62  95 128 164 218 267 316 372
#     4  10  21  41  65  88 129 165 208 259 321 383
#     4  10  21  37  61  87 120 163 204 256 321 389
#     4  11  23  39  59  90 126 164 209 264 318 372
#     4   9  21  41  63  88 122 164 205 254 317 375
#     4  11  23  41  64  92 125 167 213 257 320 385
#     4  10  24  44  64  90 123 172 213 258 318 384
#
# _framework density 9.8765429999999999
#
# number of rings (size 3 to 8) (size 9 to 14) (size 15 to 20)
#    0.000    1.750    1.250    1.875    8.750    2.500 
#    0.000    4.375    0.000    0.000    0.000    0.000 
#    0.000    0.000    0.000    0.000    0.000    0.000 
#
# Total GULP energy -178387.910092 kJ/mol
# GULP energy per Si atom -5574.622190 kJ/mol
# Density = 0.985406 g / cm^3
# Si number density = 9.876543 Si / 1000 Ang^3
#
#
#
# Elastic Constant Matrix: (Units=GPa)
#
#
# Indices 1 2 3 4 5 6 
#
# 1 78.8227 25.3039 -5.8805 0.0000 0.0000 0.0000
# 2 25.3039 127.3784 27.1379 0.0000 0.0000 0.0000
# 3 -5.8805 27.1379 59.3114 0.0000 0.0000 0.0000
# 4 0.0000 0.0000 0.0000 39.5557 0.0000 0.0000
# 5 0.0000 0.0000 0.0000 0.0000 22.2055 0.0000
# 6 0.0000 0.0000 0.0000 0.0000 0.0000 3.7293
#
#
#
# Elastic Compliance Matrix: (Units=1/GPa)
#
#
# Indices 1 2 3 4 5 6 
#
# 1 0.014001 -0.003409 0.002948 0.000000 0.000000 0.000000
# 2 -0.003409 0.009529 -0.004698 0.000000 0.000000 0.000000
# 3 0.002948 -0.004698 0.019302 0.000000 0.000000 0.000000
# 4 0.000000 0.000000 0.000000 0.025281 0.000000 0.000000
# 5 0.000000 0.000000 0.000000 0.000000 0.045034 0.000000
# 6 0.000000 0.000000 0.000000 0.000000 0.000000 0.268144
#
#
# Mechanical properties :
#
#
# Convention : Reuss Voigt Hill
#
# Bulk Modulus (GPa) = 30.75645 39.84836 35.30240
# Shear Modulus (GPa) = 12.42399 27.69485 20.05942
#
# Velocity S-wave (km/s) = 2.51064 3.74846 3.19016
# Velocity P-wave (km/s) = 4.89986 6.24112 5.61072
#
# Compressibility (1/GPa) = 0.03251351
#
# Stress axis : x y z
#
# Youngs Moduli (GPa) = 71.42266 104.94482 51.80807
#
# Poissons Ratio (x) = 0.35781 -0.15274
# Poissons Ratio (y) = 0.24351 0.24339
# Poissons Ratio (z) = -0.21057 0.49303
#
# Static dielectric constant tensor:
#      x y z
#    x 1.626010 0.000000 0.000000 
#    y 0.000000 1.711790 0.000000 
#    z 0.000000 0.000000 1.723600 
# 
# From -- ./inp_files/7703.got.cif
#   From: 2010.05.17/outbox.ucp.g08.bks.cvg/sg20_4_cif.got.tgz:7703.got - 2010.06.11 15:13:06.
