data_PCOD9322052
_publ_section_title
;
Structure prediction by ZEFSAII (Michael W. Deem and Ramdas Pophale) SiO2 
 PCOD9322052
Probable space group: C 2 2 21
;
_chemical_formula_sum "Si O2"
_cell_formula_units_Z 32
_cell_length_a 16.468784
_cell_length_b 9.408561
_cell_length_c 8.613882
_cell_angle_alpha 90.000000
_cell_angle_beta 90.000000
_cell_angle_gamma 90.000000
_cell_volume 1334.699988
_symmetry_space_group_name_H-M "C 2 2 21"
_symmetry_group_IT_number 20
_symmetry_cell_setting 'orthorhombic'
loop_
_space_group_symop_operation_xyz
x,y,z
-x,-y,1/2+z
x,-y,-z
-x,y,1/2-z
1/2+x,1/2+y,z
1/2-x,1/2-y,1/2+z
1/2+x,1/2-y,-z
1/2-x,1/2+y,1/2-z
loop_
_atom_site_type_symbol
_atom_site_label
_atom_site_fract_x
_atom_site_fract_y
_atom_site_fract_z
Si Si1 0.762873 0.613019 0.382949
Si Si2 0.997063 0.156206 0.515274
Si Si3 0.873619 0.013584 0.334194
Si Si4 0.153501 0.339996 0.561110
O O1 0.802682 0.500000 0.500000
O O2 0.688340 0.529681 0.300819
O O3 0.819786 0.657968 0.241291
O O4 0.719967 0.743118 0.471104
O O5 0.064258 0.273045 0.530486
O O6 0.039253 0.000000 0.500000
O O7 0.066428 0.121439 0.845052
O O8 0.933663 0.851240 0.631760
O O9 0.828550 0.000000 0.500000
O O10 0.151175 0.500000 0.500000
#
# Coordination Sequence:
#
# PCOD9322052 Si02
#       4
#     8   8   8   8
#     4  12  25  45  76 104 150 208 263 302 370 476
#     4   6  17  42  77 105 144 181 260 301 365 445
#     4   6  17  42  79 106 129 184 264 300 348 450
#     4  12  25  43  70 112 161 193 245 321 392 437
#
# _framework density 23.975425999999999
#
# number of rings (size 3 to 8) (size 9 to 14) (size 15 to 20)
#    3.000    0.000    0.000    3.000    0.000    1.000 
#    0.000    0.000   16.500    3.000    0.000    0.000 
#    0.000    0.000    0.000    0.000    0.000    0.000 
#
# Total GULP energy -89164.177655 kJ/mol
# GULP energy per Si atom -5572.761103 kJ/mol
# Density = 2.392086 g / cm^3
# Si number density = 23.975426 Si / 1000 Ang^3
#
#
#
# Elastic Constant Matrix: (Units=GPa)
#
#
# Indices 1 2 3 4 5 6 
#
# 1 108.1392 51.7898 27.2445 0.0000 0.0000 0.0000
# 2 51.7898 149.1924 44.5933 0.0000 0.0000 0.0000
# 3 27.2445 44.5933 107.7423 0.0000 0.0000 0.0000
# 4 0.0000 0.0000 0.0000 40.9385 0.0000 0.0000
# 5 0.0000 0.0000 0.0000 0.0000 44.1115 0.0000
# 6 0.0000 0.0000 0.0000 0.0000 0.0000 31.8744
#
#
#
# Elastic Compliance Matrix: (Units=1/GPa)
#
#
# Indices 1 2 3 4 5 6 
#
# 1 0.011275 -0.003494 -0.001405 0.000000 0.000000 0.000000
# 2 -0.003494 0.008732 -0.002730 0.000000 0.000000 0.000000
# 3 -0.001405 -0.002730 0.010767 0.000000 0.000000 0.000000
# 4 0.000000 0.000000 0.000000 0.024427 0.000000 0.000000
# 5 0.000000 0.000000 0.000000 0.000000 0.022670 0.000000
# 6 0.000000 0.000000 0.000000 0.000000 0.000000 0.031373
#
#
# Mechanical properties :
#
#
# Convention : Reuss Voigt Hill
#
# Bulk Modulus (GPa) = 64.45550 68.03658 66.24604
# Shear Modulus (GPa) = 38.55855 39.48130 39.01992
#
# Velocity S-wave (km/s) = 4.01465 4.06241 4.03860
# Velocity P-wave (km/s) = 6.95933 7.10235 7.03121
#
# Compressibility (1/GPa) = 0.01551458
#
# Stress axis : x y z
#
# Youngs Moduli (GPa) = 88.69526 114.52484 92.87832
#
# Poissons Ratio (x) = 0.40013 0.13048
# Poissons Ratio (y) = 0.30989 0.25360
# Poissons Ratio (z) = 0.12461 0.31271
#
# Static dielectric constant tensor:
#      x y z
#    x 1.953730 0.000000 0.000000 
#    y 0.000000 1.942980 0.000000 
#    z 0.000000 0.000000 2.050330 
# 
# From -- ./inp_files/9800.got.cif
#   From: 2010.05.17/outbox.cif.g08.bks.cpg/sg20_5_cif.got.tgz:9800.got - 2010.06.03 22:52:26.
