data_PCOD9322809
_publ_section_title
;
Structure prediction by ZEFSAII (Michael W. Deem and Ramdas Pophale) SiO2 
 PCOD9322809
Probable space group: C 2 2 2
;
_chemical_formula_sum "Si O2"
_cell_formula_units_Z 38
_cell_length_a 9.595872
_cell_length_b 21.360090
_cell_length_c 9.511459
_cell_angle_alpha 90.000000
_cell_angle_beta 90.000000
_cell_angle_gamma 90.000000
_cell_volume 1949.551287
_symmetry_space_group_name_H-M "C 2 2 2"
_symmetry_group_IT_number 21
_symmetry_cell_setting 'orthorhombic'
loop_
_space_group_symop_operation_xyz
x,y,z
-x,-y,z
x,-y,-z
-x,y,-z
1/2+x,1/2+y,z
1/2-x,1/2-y,z
1/2+x,1/2-y,-z
1/2-x,1/2+y,-z
loop_
_atom_site_type_symbol
_atom_site_label
_atom_site_fract_x
_atom_site_fract_y
_atom_site_fract_z
Si Si1 0.857262 0.698077 0.925724
Si Si2 0.366971 0.374587 0.094325
Si Si3 0.724028 0.000000 0.000000
Si Si4 0.153985 0.421674 0.741629
Si Si5 0.024414 0.926490 0.335671
Si Si6 0.500000 0.000000 0.500000
O O1 0.750000 0.750000 0.865848
O O2 0.893129 0.644577 0.809666
O O3 0.762755 0.667440 0.049762
O O4 0.000000 0.719633 0.000000
O O5 0.319400 0.444051 0.053431
O O6 0.420172 0.381076 0.252299
O O7 0.500000 0.358265 0.000000
O O8 0.641676 0.028874 0.130638
O O9 0.317719 0.412875 0.708962
O O10 0.085501 0.453666 0.604633
O O11 0.000000 0.919477 0.500000
O O12 0.000000 0.000000 0.301268
#
# Coordination Sequence:
#
# PCOD9322809 Si02
#       6
#     8   8   4   8   8   2
#     4  11  26  43  70  98 128 178 238 293 330 390
#     4  11  18  36  63  94 128 167 223 280 334 396
#     4  10  19  33  60  98 125 170 219 270 339 410
#     4  11  25  39  65  97 142 178 221 284 351 416
#     4  11  20  33  60  96 135 175 213 264 342 426
#     4  12  28  42  62 104 152 174 212 284 368 426
#
# _framework density 19.491665000000001
#
# number of rings (size 3 to 8) (size 9 to 14) (size 15 to 20)
#    0.000    1.053    6.316    2.211    5.895    0.000 
#    0.000    0.000    2.316    1.263    0.000    0.000 
#    0.000    0.000    0.000    0.000    0.000    0.000 
#
# Total GULP energy -106001.650828 kJ/mol
# GULP energy per Si atom -5579.034254 kJ/mol
# Density = 1.944730 g / cm^3
# Si number density = 19.491665 Si / 1000 Ang^3
#
#
#
# Elastic Constant Matrix: (Units=GPa)
#
#
# Indices 1 2 3 4 5 6 
#
# 1 63.8831 36.2377 23.6079 0.0000 0.0000 0.0000
# 2 36.2377 91.2041 33.1706 0.0000 0.0000 0.0000
# 3 23.6079 33.1706 125.5106 0.0000 0.0000 0.0000
# 4 0.0000 0.0000 0.0000 7.7449 0.0000 0.0000
# 5 0.0000 0.0000 0.0000 0.0000 29.6377 0.0000
# 6 0.0000 0.0000 0.0000 0.0000 0.0000 43.0110
#
#
#
# Elastic Compliance Matrix: (Units=1/GPa)
#
#
# Indices 1 2 3 4 5 6 
#
# 1 0.020607 -0.007499 -0.001894 0.000000 0.000000 0.000000
# 2 -0.007499 0.014859 -0.002517 0.000000 0.000000 0.000000
# 3 -0.001894 -0.002517 0.008989 0.000000 0.000000 0.000000
# 4 0.000000 0.000000 0.000000 0.129116 0.000000 0.000000
# 5 0.000000 0.000000 0.000000 0.000000 0.033741 0.000000
# 6 0.000000 0.000000 0.000000 0.000000 0.000000 0.023250
#
#
# Mechanical properties :
#
#
# Convention : Reuss Voigt Hill
#
# Bulk Modulus (GPa) = 48.45919 51.84780 50.15350
# Shear Modulus (GPa) = 19.13797 28.58417 23.86107
#
# Velocity S-wave (km/s) = 3.13685 3.83362 3.50261
# Velocity P-wave (km/s) = 6.16727 6.80098 6.49186
#
# Compressibility (1/GPa) = 0.02063592
#
# Stress axis : x y z
#
# Youngs Moduli (GPa) = 48.52632 67.29848 111.24888
#
# Poissons Ratio (x) = 0.50466 0.21074
# Poissons Ratio (y) = 0.36389 0.27996
# Poissons Ratio (z) = 0.09192 0.16936
#
# Static dielectric constant tensor:
#      x y z
#    x 1.722080 0.000000 0.000000 
#    y 0.000000 1.724770 0.000000 
#    z 0.000000 0.000000 1.672670 
# 
# From -- ./inp_files/11015.got.cif
#   From: 2010.05.17/outbox.cif.g08.bks.cpg/sg21_6_cif.got.tgz:11015.got - 2010.06.03 23:14:55.
