data_PCOD9322545
_publ_section_title
;
Structure prediction by ZEFSAII (Michael W. Deem and Ramdas Pophale) SiO2 
 PCOD9322545
Probable space group: C 2 2 2
;
_chemical_formula_sum "Si O2"
_cell_formula_units_Z 48
_cell_length_a 18.167361
_cell_length_b 21.079402
_cell_length_c 5.586044
_cell_angle_alpha 90.000000
_cell_angle_beta 90.000000
_cell_angle_gamma 90.000000
_cell_volume 2139.215243
_symmetry_space_group_name_H-M "C 2 2 2"
_symmetry_group_IT_number 21
_symmetry_cell_setting 'orthorhombic'
loop_
_space_group_symop_operation_xyz
x,y,z
-x,-y,z
x,-y,-z
-x,y,-z
1/2+x,1/2+y,z
1/2-x,1/2-y,z
1/2+x,1/2-y,-z
1/2-x,1/2+y,-z
loop_
_atom_site_type_symbol
_atom_site_label
_atom_site_fract_x
_atom_site_fract_y
_atom_site_fract_z
Si Si1 0.773040 0.389466 0.244144
Si Si2 0.201638 0.094152 0.268560
Si Si3 0.923954 0.335505 0.376484
Si Si4 0.500000 0.744173 0.000000
Si Si5 0.250000 0.750000 0.123675
Si Si6 0.031157 0.071157 0.252314
Si Si7 0.637347 0.732209 0.258197
O O1 0.740978 0.423611 0.481288
O O2 0.861410 0.383366 0.281543
O O3 0.746351 0.414816 0.982472
O O4 0.740120 0.317015 0.251315
O O5 0.119550 0.066466 0.250640
O O6 0.184861 0.169583 0.295736
O O7 0.880095 0.285789 0.548237
O O8 0.000000 0.361013 0.500000
O O9 0.955425 0.290744 0.171478
O O10 0.441413 0.709019 0.836163
O O11 0.318846 0.764694 0.955672
O O12 0.000000 0.101752 0.500000
O O13 0.000000 0.000000 0.258704
O O14 0.000000 0.096439 0.000000
#
# Coordination Sequence:
#
# PCOD9322545 Si02
#       7
#     8   8   8   4   4   8   8
#     4  11  21  36  51  78 106 145 191 240 285 335
#     4  11  24  34  57  80 107 140 188 246 293 332
#     4  10  20  33  49  69 106 153 198 232 281 338
#     4  10  20  30  44  66  95 142 194 235 276 322
#     4  10  18  34  50  64 102 144 190 236 304 320
#     4  10  22  42  64  84 111 147 182 226 293 369
#     4  10  20  31  46  71  99 144 190 248 278 329
#
# _framework density 22.438134000000002
#
# number of rings (size 3 to 8) (size 9 to 14) (size 15 to 20)
#    0.000    1.667    1.667    4.000    5.833    2.667 
#    0.000    0.000    0.000    0.000    0.000    0.000 
#    0.000    0.000    0.000   45.000    0.000    0.000 
#
# Total GULP energy -133810.601651 kJ/mol
# GULP energy per Si atom -5575.441735 kJ/mol
# Density = 2.238706 g / cm^3
# Si number density = 22.438134 Si / 1000 Ang^3
#
#
#
# Elastic Constant Matrix: (Units=GPa)
#
#
# Indices 1 2 3 4 5 6 
#
# 1 154.3472 12.1674 90.0485 0.0000 0.0000 0.0000
# 2 12.1674 31.4441 20.8627 0.0000 0.0000 0.0000
# 3 90.0485 20.8627 195.2475 0.0000 0.0000 0.0000
# 4 0.0000 0.0000 0.0000 -6.4237 0.0000 0.0000
# 5 0.0000 0.0000 0.0000 0.0000 52.8881 0.0000
# 6 0.0000 0.0000 0.0000 0.0000 0.0000 15.6297
#
#
#
# Elastic Compliance Matrix: (Units=1/GPa)
#
#
# Indices 1 2 3 4 5 6 
#
# 1 0.008881 -0.000774 -0.004013 0.000000 0.000000 0.000000
# 2 -0.000774 0.034297 -0.003308 0.000000 0.000000 0.000000
# 3 -0.004013 -0.003308 0.007326 0.000000 0.000000 0.000000
# 4 0.000000 0.000000 0.000000 -0.155674 0.000000 0.000000
# 5 0.000000 0.000000 0.000000 0.000000 0.018908 0.000000
# 6 0.000000 0.000000 0.000000 0.000000 0.000000 0.063981
#
#
# Mechanical properties :
#
#
# Convention : Reuss Voigt Hill
#
# Bulk Modulus (GPa) = 29.14259 69.68844 49.41552
# Shear Modulus (GPa) = 935.11169 29.61616 482.36393
#
# Velocity S-wave (km/s) = 20.43663 3.63699 14.67793
# Velocity P-wave (km/s) = 23.87238 6.98301 17.58768
#
# Compressibility (1/GPa) = 0.03431404
#
# Stress axis : x y z
#
# Youngs Moduli (GPa) = 112.59483 29.15742 136.49726
#
# Poissons Ratio (x) = 0.02256 0.54782
# Poissons Ratio (y) = 0.08713 0.45150
# Poissons Ratio (z) = 0.45189 0.09645
#
# Static dielectric constant tensor:
#      x y z
#    x 1.870600 0.000000 0.000000 
#    y 0.000000 1.908070 0.000000 
#    z 0.000000 0.000000 2.422670 
# 
# From -- ./inp_files/5275.got.cif
#   From: 2010.05.17/outbox.cif.g08.bks.cpg/sg21_3_cif.got.tgz:5275.got - 2010.06.03 23:14:55.
