data_PCOD9322084
_publ_section_title
;
Structure prediction by ZEFSAII (Michael W. Deem and Ramdas Pophale) SiO2 
 PCOD9322084
Probable space group: C 2 2 21
;
_chemical_formula_sum "Si O2"
_cell_formula_units_Z 28
_cell_length_a 8.747892
_cell_length_b 11.295299
_cell_length_c 11.857475
_cell_angle_alpha 90.000000
_cell_angle_beta 90.000000
_cell_angle_gamma 90.000000
_cell_volume 1171.637766
_symmetry_space_group_name_H-M "C 2 2 21"
_symmetry_group_IT_number 20
_symmetry_cell_setting 'orthorhombic'
loop_
_space_group_symop_operation_xyz
x,y,z
-x,-y,1/2+z
x,-y,-z
-x,y,1/2-z
1/2+x,1/2+y,z
1/2-x,1/2-y,1/2+z
1/2+x,1/2-y,-z
1/2-x,1/2+y,1/2-z
loop_
_atom_site_type_symbol
_atom_site_label
_atom_site_fract_x
_atom_site_fract_y
_atom_site_fract_z
Si Si1 0.646009 0.388938 0.417505
Si Si2 0.825630 0.354348 0.208552
Si Si3 0.079990 0.500000 0.500000
Si Si4 0.623342 0.796726 0.913644
O O1 0.625527 0.500000 0.500000
O O2 0.718352 0.421360 0.297543
O O3 0.494940 0.311044 0.409394
O O4 0.776347 0.306225 0.473521
O O5 0.742963 0.228199 0.186229
O O6 0.000000 0.343332 0.250000
O O7 0.829564 0.419565 0.087931
O O8 0.974988 0.583774 0.420835
#
# Coordination Sequence:
#
# PCOD9322084 Si02
#       4
#     8   8   4   8
#     4  12  26  48  76 118 152 200 261 309 381 453
#     4  12  26  50  79 113 153 204 251 321 381 449
#     4  12  26  52  78 112 160 198 258 312 388 450
#     4  12  25  50  75 111 156 198 255 313 378 451
#
# _framework density 23.898171000000001
#
# number of rings (size 3 to 8) (size 9 to 14) (size 15 to 20)
#    0.000    0.000    7.143    0.857    2.000    6.857 
#    0.000    5.714    0.000    0.000    0.000    0.000 
#    0.000    0.000    0.000    0.000    0.000    0.000 
#
# Total GULP energy -78342.086901 kJ/mol
# GULP energy per Si atom -5595.863350 kJ/mol
# Density = 2.384378 g / cm^3
# Si number density = 23.898171 Si / 1000 Ang^3
#
#
#
# Elastic Constant Matrix: (Units=GPa)
#
#
# Indices 1 2 3 4 5 6 
#
# 1 126.6519 59.2496 14.2692 0.0000 0.0000 0.0000
# 2 59.2496 128.1850 49.6848 0.0000 0.0000 0.0000
# 3 14.2692 49.6848 69.0441 0.0000 0.0000 0.0000
# 4 0.0000 0.0000 0.0000 31.5336 0.0000 0.0000
# 5 0.0000 0.0000 0.0000 0.0000 29.6291 0.0000
# 6 0.0000 0.0000 0.0000 0.0000 0.0000 34.5704
#
#
#
# Elastic Compliance Matrix: (Units=1/GPa)
#
#
# Indices 1 2 3 4 5 6 
#
# 1 0.010231 -0.005421 0.001787 0.000000 0.000000 0.000000
# 2 -0.005421 0.013692 -0.008732 0.000000 0.000000 0.000000
# 3 0.001787 -0.008732 0.020398 0.000000 0.000000 0.000000
# 4 0.000000 0.000000 0.000000 0.031712 0.000000 0.000000
# 5 0.000000 0.000000 0.000000 0.000000 0.033751 0.000000
# 6 0.000000 0.000000 0.000000 0.000000 0.000000 0.028927
#
#
# Mechanical properties :
#
#
# Convention : Reuss Voigt Hill
#
# Bulk Modulus (GPa) = 51.05454 63.36533 57.20994
# Shear Modulus (GPa) = 29.41662 32.52511 30.97087
#
# Velocity S-wave (km/s) = 3.51225 3.69316 3.60384
# Velocity P-wave (km/s) = 6.15285 6.69016 6.42712
#
# Compressibility (1/GPa) = 0.01958690
#
# Stress axis : x y z
#
# Youngs Moduli (GPa) = 97.74662 73.03677 49.02435
#
# Poissons Ratio (x) = 0.39596 -0.08760
# Poissons Ratio (y) = 0.52992 0.42809
# Poissons Ratio (z) = -0.17467 0.63778
#
# Static dielectric constant tensor:
#      x y z
#    x 1.910140 0.000000 0.000000 
#    y 0.000000 1.908300 0.000000 
#    z 0.000000 0.000000 1.953560 
# 
# From -- ./inp_files/18135.got.cif
#   From: 2010.05.17/outbox.cif.g08.bks.cpg/sg20_10_cif.got.tgz:18135.got - 2010.06.03 22:52:26.
