data_PCOD9322346
_publ_section_title
;
Structure prediction by ZEFSAII (Michael W. Deem and Ramdas Pophale) SiO2 
 PCOD9322346
Probable space group: C 2 2 2
;
_chemical_formula_sum "Si O2"
_cell_formula_units_Z 44
_cell_length_a 20.862664
_cell_length_b 5.293835
_cell_length_c 18.992527
_cell_angle_alpha 90.000000
_cell_angle_beta 90.000000
_cell_angle_gamma 90.000000
_cell_volume 2097.601172
_symmetry_space_group_name_H-M "C 2 2 2"
_symmetry_group_IT_number 21
_symmetry_cell_setting 'orthorhombic'
loop_
_space_group_symop_operation_xyz
x,y,z
-x,-y,z
x,-y,-z
-x,y,-z
1/2+x,1/2+y,z
1/2-x,1/2-y,z
1/2+x,1/2-y,-z
1/2-x,1/2+y,-z
loop_
_atom_site_type_symbol
_atom_site_label
_atom_site_fract_x
_atom_site_fract_y
_atom_site_fract_z
Si Si1 0.250000 0.750000 0.684635
Si Si2 0.073335 0.250549 0.969030
Si Si3 0.540896 0.253262 0.609794
Si Si4 0.043152 0.747145 0.194162
Si Si5 0.866604 0.930976 0.691297
Si Si6 0.660771 0.969094 0.574666
O O1 0.300858 0.556425 0.718681
O O2 0.205200 0.586973 0.634081
O O3 0.069820 0.254257 0.885317
O O4 0.104585 0.500000 0.000000
O O5 0.000000 0.250434 0.000000
O O6 0.104126 0.000000 0.000000
O O7 0.500000 0.500000 0.586216
O O8 0.580188 0.354148 0.676662
O O9 0.500000 0.000000 0.623127
O O10 0.598290 0.146892 0.562044
O O11 0.099619 0.753197 0.251917
O O12 0.000000 0.500000 0.202997
O O13 0.000000 0.000000 0.199431
O O14 0.857501 0.792996 0.614574
O O15 0.695614 0.000000 0.500000
#
# Coordination Sequence:
#
# PCOD9322346 Si02
#       6
#     4   8   8   8   8   8
#     4  10  26  46  70  90 124 160 238 296 334 396
#     4  10  16  34  53  90 138 183 212 253 297 385
#     4  11  23  44  63  93 132 165 202 256 328 417
#     4  12  24  35  65  98 141 182 211 260 333 410
#     4  11  26  43  67  95 131 174 224 278 343 402
#     4  11  26  46  70  92 119 169 225 285 344 398
#
# _framework density 20.976343
#
# number of rings (size 3 to 8) (size 9 to 14) (size 15 to 20)
#    0.000    1.091    5.455    1.091   10.182    2.545 
#    3.273    0.000    0.000    0.000    0.000    0.000 
#    5.455    0.000    0.000    0.000    0.000    0.000 
#
# Total GULP energy -122665.819623 kJ/mol
# GULP energy per Si atom -5575.719074 kJ/mol
# Density = 2.092860 g / cm^3
# Si number density = 20.976343 Si / 1000 Ang^3
#
#
#
# Elastic Constant Matrix: (Units=GPa)
#
#
# Indices 1 2 3 4 5 6 
#
# 1 74.2036 46.2298 10.2270 0.0000 0.0000 0.0000
# 2 46.2298 173.8960 31.0840 0.0000 0.0000 0.0000
# 3 10.2270 31.0840 108.9500 0.0000 0.0000 0.0000
# 4 0.0000 0.0000 0.0000 27.5180 0.0000 0.0000
# 5 0.0000 0.0000 0.0000 0.0000 6.0285 0.0000
# 6 0.0000 0.0000 0.0000 0.0000 0.0000 38.2703
#
#
#
# Elastic Compliance Matrix: (Units=1/GPa)
#
#
# Indices 1 2 3 4 5 6 
#
# 1 0.016161 -0.004242 -0.000307 0.000000 0.000000 0.000000
# 2 -0.004242 0.007173 -0.001648 0.000000 0.000000 0.000000
# 3 -0.000307 -0.001648 0.009678 0.000000 0.000000 0.000000
# 4 0.000000 0.000000 0.000000 0.036340 0.000000 0.000000
# 5 0.000000 0.000000 0.000000 0.000000 0.165879 0.000000
# 6 0.000000 0.000000 0.000000 0.000000 0.000000 0.026130
#
#
# Mechanical properties :
#
#
# Convention : Reuss Voigt Hill
#
# Bulk Modulus (GPa) = 48.50093 59.12569 53.81331
# Shear Modulus (GPa) = 17.81725 32.33061 25.07393
#
# Velocity S-wave (km/s) = 2.91760 3.93018 3.46112
# Velocity P-wave (km/s) = 5.87553 6.98879 6.45620
#
# Compressibility (1/GPa) = 0.02061816
#
# Stress axis : x y z
#
# Youngs Moduli (GPa) = 61.87628 139.41545 103.33142
#
# Poissons Ratio (x) = 0.59134 0.03171
# Poissons Ratio (y) = 0.26245 0.17032
# Poissons Ratio (z) = 0.01899 0.22980
#
# Static dielectric constant tensor:
#      x y z
#    x 1.791780 0.000000 0.000000 
#    y 0.000000 1.848570 0.000000 
#    z 0.000000 0.000000 1.768970 
# 
# From -- ./inp_files/37750.got.cif
#   From: 2010.05.17/outbox.cif.g08.bks.cpg/sg21_19_cif.got.tgz:37750.got - 2010.06.03 23:14:55.
