data_PCOD9322825
_publ_section_title
;
Structure prediction by ZEFSAII (Michael W. Deem and Ramdas Pophale) SiO2 
 PCOD9322825
Probable space group: C 2 2 2
;
_chemical_formula_sum "Si O2"
_cell_formula_units_Z 40
_cell_length_a 9.647713
_cell_length_b 16.453417
_cell_length_c 12.437625
_cell_angle_alpha 90.000000
_cell_angle_beta 90.000000
_cell_angle_gamma 90.000000
_cell_volume 1974.321790
_symmetry_space_group_name_H-M "C 2 2 2"
_symmetry_group_IT_number 21
_symmetry_cell_setting 'orthorhombic'
loop_
_space_group_symop_operation_xyz
x,y,z
-x,-y,z
x,-y,-z
-x,y,-z
1/2+x,1/2+y,z
1/2-x,1/2-y,z
1/2+x,1/2-y,-z
1/2-x,1/2+y,-z
loop_
_atom_site_type_symbol
_atom_site_label
_atom_site_fract_x
_atom_site_fract_y
_atom_site_fract_z
Si Si1 0.763563 0.650941 0.622247
Si Si2 0.081428 0.751342 0.108088
Si Si3 0.842304 0.142115 0.614061
Si Si4 0.048748 0.319554 0.320719
Si Si5 0.551185 0.581346 0.777797
O O1 0.750000 0.750000 0.640311
O O2 0.687574 0.630586 0.511045
O O3 0.697707 0.599585 0.719255
O O4 0.927077 0.638069 0.613329
O O5 0.250000 0.750000 0.098537
O O6 0.036626 0.841887 0.144094
O O7 0.020733 0.696134 0.204817
O O8 0.000000 0.729537 0.000000
O O9 0.910500 0.231689 0.628905
O O10 0.695820 0.137065 0.675922
O O11 0.946175 0.085420 0.676748
O O12 0.500000 0.500000 0.834943
#
# Coordination Sequence:
#
# PCOD9322825 Si02
#       5
#     8   8   8   8   8
#     4  12  18  34  58  89 124 159 203 252 295 345
#     4  11  23  40  67  93 114 145 205 272 314 353
#     4  10  21  29  59  92 119 161 199 241 296 366
#     4  10  19  34  55  90 119 148 194 260 306 337
#     4  11  24  41  57  86 131 168 197 241 307 383
#
# _framework density 20.260124000000001
#
# number of rings (size 3 to 8) (size 9 to 14) (size 15 to 20)
#    0.000    1.200    8.000    1.200    5.600    2.000 
#    0.000    1.000    0.000    2.400    0.000    0.000 
#    0.000    0.000    0.000    0.000    0.000    0.000 
#
# Total GULP energy -111533.456663 kJ/mol
# GULP energy per Si atom -5576.672833 kJ/mol
# Density = 2.021401 g / cm^3
# Si number density = 20.260124 Si / 1000 Ang^3
#
#
#
# Elastic Constant Matrix: (Units=GPa)
#
#
# Indices 1 2 3 4 5 6 
#
# 1 121.2744 3.6855 8.9480 0.0000 0.0000 0.0000
# 2 3.6855 42.9885 -12.1419 0.0000 0.0000 0.0000
# 3 8.9480 -12.1419 84.2127 0.0000 0.0000 0.0000
# 4 0.0000 0.0000 0.0000 5.5117 0.0000 0.0000
# 5 0.0000 0.0000 0.0000 0.0000 33.2824 0.0000
# 6 0.0000 0.0000 0.0000 0.0000 0.0000 18.7622
#
#
#
# Elastic Compliance Matrix: (Units=1/GPa)
#
#
# Indices 1 2 3 4 5 6 
#
# 1 0.008353 -0.001008 -0.001033 0.000000 0.000000 0.000000
# 2 -0.001008 0.024371 0.003621 0.000000 0.000000 0.000000
# 3 -0.001033 0.003621 0.012507 0.000000 0.000000 0.000000
# 4 0.000000 0.000000 0.000000 0.181434 0.000000 0.000000
# 5 0.000000 0.000000 0.000000 0.000000 0.030046 0.000000
# 6 0.000000 0.000000 0.000000 0.000000 0.000000 0.053299
#
#
# Mechanical properties :
#
#
# Convention : Reuss Voigt Hill
#
# Bulk Modulus (GPa) = 20.66502 27.71764 24.19133
# Shear Modulus (GPa) = 15.48094 28.04353 21.76224
#
# Velocity S-wave (km/s) = 2.76725 3.72448 3.28097
# Velocity P-wave (km/s) = 4.52020 5.67506 5.13023
#
# Compressibility (1/GPa) = 0.04839095
#
# Stress axis : x y z
#
# Youngs Moduli (GPa) = 119.72326 41.03212 79.95835
#
# Poissons Ratio (x) = 0.04135 0.08258
# Poissons Ratio (y) = 0.12066 -0.28953
# Poissons Ratio (z) = 0.12365 -0.14858
#
# Static dielectric constant tensor:
#      x y z
#    x 1.768300 0.000000 0.000000 
#    y 0.000000 1.822250 0.000000 
#    z 0.000000 0.000000 1.753670 
# 
# From -- ./inp_files/22262.got.cif
#   From: 2010.05.17/outbox.cif.g08.bks.cpg/sg21_12_cif.got.tgz:22262.got - 2010.06.03 23:14:55.
