data_PCOD9322206
_publ_section_title
;
Structure prediction by ZEFSAII (Michael W. Deem and Ramdas Pophale) SiO2 
 PCOD9322206
Probable space group: C 2 2 21
;
_chemical_formula_sum "Si O2"
_cell_formula_units_Z 28
_cell_length_a 15.000000
_cell_length_b 12.000000
_cell_length_c 15.000000
_cell_angle_alpha 90.000000
_cell_angle_beta 90.000000
_cell_angle_gamma 90.000000
_cell_volume 2700.000000
_symmetry_space_group_name_H-M "C 2 2 21"
_symmetry_group_IT_number 20
_symmetry_cell_setting 'orthorhombic'
loop_
_space_group_symop_operation_xyz
x,y,z
-x,-y,1/2+z
x,-y,-z
-x,y,1/2-z
1/2+x,1/2+y,z
1/2-x,1/2-y,1/2+z
1/2+x,1/2-y,-z
1/2-x,1/2+y,1/2-z
loop_
_atom_site_type_symbol
_atom_site_label
_atom_site_fract_x
_atom_site_fract_y
_atom_site_fract_z
Si Si1 0.437192 0.218042 0.662143
Si Si2 0.480133 0.747128 0.544418
Si Si3 0.693548 0.598635 0.246751
Si Si4 0.003242 0.477486 0.851688
Si Si5 0.412457 0.389539 0.188215
Si Si6 0.193482 0.765800 0.162252
Si Si7 0.695664 0.960143 0.398606
O O1 0.500000 0.224514 0.750000
O O2 0.472999 0.259285 0.563855
O O3 0.356818 0.298178 0.696516
O O4 0.428091 0.082767 0.647268
O O5 0.554446 0.668464 0.595051
O O6 0.385626 0.718570 0.591081
O O7 0.489667 0.875517 0.578795
O O8 0.628925 0.514370 0.302269
O O9 0.768794 0.645070 0.313827
O O10 0.742264 0.530889 0.168139
O O11 0.906831 0.528602 0.872295
O O12 0.000000 0.431166 0.750000
O O13 0.500000 0.391322 0.250000
O O14 0.342413 0.313152 0.242950
O O15 0.274526 0.834746 0.120618
O O16 0.708326 0.000000 0.500000
#
# Coordination Sequence:
#
# PCOD9322206 Si02
#       7
#     8   8   8   8   8   8   8
#     4  11  24  40  63  92 127 164 204 257 310 364
#     4  11  21  41  66  91 120 164 213 251 300 373
#     4  11  22  39  61  92 129 159 203 264 314 356
#     4  11  22  39  65  93 122 161 208 255 304 366
#     4   9  20  38  62  90 124 169 210 248 305 374
#     4  10  21  37  62  92 124 158 201 257 310 362
#     4  11  22  38  60  88 122 167 205 240 307 385
#
# _framework density 10.370369999999999
#
# number of rings (size 3 to 8) (size 9 to 14) (size 15 to 20)
#    0.000    1.429    0.000    7.286    0.000    1.143 
#    0.000    6.429    0.000   12.000    0.000    0.000 
#    0.000    0.000    0.000    0.000    0.000    0.000 
#
# Total GULP energy -156263.759855 kJ/mol
# GULP energy per Si atom -5580.848566 kJ/mol
# Density = 1.034677 g / cm^3
# Si number density = 10.370370 Si / 1000 Ang^3
#
#
#
# Elastic Constant Matrix: (Units=GPa)
#
#
# Indices 1 2 3 4 5 6 
#
# 1 42.1063 22.5185 8.3693 0.0000 0.0000 0.0000
# 2 22.5185 83.9641 15.0204 0.0000 0.0000 0.0000
# 3 8.3693 15.0204 151.1805 0.0000 0.0000 0.0000
# 4 0.0000 0.0000 0.0000 33.5746 0.0000 0.0000
# 5 0.0000 0.0000 0.0000 0.0000 26.0934 0.0000
# 6 0.0000 0.0000 0.0000 0.0000 0.0000 48.8259
#
#
#
# Elastic Compliance Matrix: (Units=1/GPa)
#
#
# Indices 1 2 3 4 5 6 
#
# 1 0.027824 -0.007317 -0.000813 0.000000 0.000000 0.000000
# 2 -0.007317 0.014049 -0.000991 0.000000 0.000000 0.000000
# 3 -0.000813 -0.000991 0.006758 0.000000 0.000000 0.000000
# 4 0.000000 0.000000 0.000000 0.029784 0.000000 0.000000
# 5 0.000000 0.000000 0.000000 0.000000 0.038324 0.000000
# 6 0.000000 0.000000 0.000000 0.000000 0.000000 0.020481
#
#
# Mechanical properties :
#
#
# Convention : Reuss Voigt Hill
#
# Bulk Modulus (GPa) = 32.90585 41.00748 36.95667
# Shear Modulus (GPa) = 30.19463 37.12162 33.65813
#
# Velocity S-wave (km/s) = 3.81965 4.23518 4.03277
# Velocity P-wave (km/s) = 5.94582 6.61287 6.28820
#
# Compressibility (1/GPa) = 0.03038974
#
# Stress axis : x y z
#
# Youngs Moduli (GPa) = 35.94016 71.17754 147.97106
#
# Poissons Ratio (x) = 0.52078 0.12036
# Poissons Ratio (y) = 0.26296 0.14661
# Poissons Ratio (z) = 0.02923 0.07052
#
# Static dielectric constant tensor:
#      x y z
#    x 1.765040 0.000000 0.000000 
#    y 0.000000 1.816490 0.000000 
#    z 0.000000 0.000000 1.716680 
# 
# From -- ./inp_files/20747.got.cif
#   From: 2010.05.17/outbox.ucp.g08.bks.cvg/sg20_11_cif.got.tgz:20747.got - 2010.06.11 15:13:06.
