data_PCOD9322260
_publ_section_title
;
Structure prediction by ZEFSAII (Michael W. Deem and Ramdas Pophale) SiO2 
 PCOD9322260
Probable space group: C 2 2 21
;
_chemical_formula_sum "Si O2"
_cell_formula_units_Z 24
_cell_length_a 18.000000
_cell_length_b 15.000000
_cell_length_c 9.000000
_cell_angle_alpha 90.000000
_cell_angle_beta 90.000000
_cell_angle_gamma 90.000000
_cell_volume 2430.000000
_symmetry_space_group_name_H-M "C 2 2 21"
_symmetry_group_IT_number 20
_symmetry_cell_setting 'orthorhombic'
loop_
_space_group_symop_operation_xyz
x,y,z
-x,-y,1/2+z
x,-y,-z
-x,y,1/2-z
1/2+x,1/2+y,z
1/2-x,1/2-y,1/2+z
1/2+x,1/2-y,-z
1/2-x,1/2+y,1/2-z
loop_
_atom_site_type_symbol
_atom_site_label
_atom_site_fract_x
_atom_site_fract_y
_atom_site_fract_z
Si Si1 0.202511 0.182040 0.620868
Si Si2 0.216947 0.146308 0.266103
Si Si3 0.442445 0.413635 0.611776
Si Si4 0.447404 0.085060 0.895237
Si Si5 0.222756 0.532789 0.667377
Si Si6 0.532159 0.266443 0.413742
O O1 0.215050 0.166711 0.443305
O O2 0.246603 0.270526 0.677076
O O3 0.228939 0.103732 0.735855
O O4 0.113570 0.193708 0.622812
O O5 0.136030 0.119201 0.190498
O O6 0.270655 0.060800 0.252129
O O7 0.433063 0.500000 0.500000
O O8 0.500000 0.432923 0.750000
O O9 0.480907 0.335665 0.509735
O O10 0.500000 0.086825 0.750000
O O11 0.360638 0.071852 0.848907
O O12 0.457392 0.176553 0.988300
O O13 0.465696 0.000000 0.000000
O O14 0.246349 0.500000 0.500000
O O15 0.500000 0.246263 0.250000
#
# Coordination Sequence:
#
# PCOD9322260 Si02
#       6
#     8   8   8   8   8   8
#     4  12  27  47  75 108 151 196 246 308 366 445
#     4  12  27  48  75 108 150 195 249 302 375 436
#     4  12  28  49  76 108 149 197 241 306 368 442
#     4  11  25  48  74 108 150 193 246 307 365 436
#     4  11  26  47  73 106 147 196 247 306 364 438
#     4  12  28  46  73 110 149 193 248 299 372 441
#
# _framework density 9.8765429999999999
#
# number of rings (size 3 to 8) (size 9 to 14) (size 15 to 20)
#    0.000    0.333    1.667    6.500   11.667    1.333 
#    0.000    0.000    0.000    0.000    0.000    0.000 
#    0.000    0.000    0.000    0.000    0.000    0.000 
#
# Total GULP energy -134168.587383 kJ/mol
# GULP energy per Si atom -5590.357808 kJ/mol
# Density = 0.985406 g / cm^3
# Si number density = 9.876543 Si / 1000 Ang^3
#
#
#
# Elastic Constant Matrix: (Units=GPa)
#
#
# Indices 1 2 3 4 5 6 
#
# 1 119.6647 62.2795 89.5599 0.0000 0.0000 0.0000
# 2 62.2795 179.8843 86.9208 0.0000 0.0000 0.0000
# 3 89.5599 86.9208 202.6062 0.0000 0.0000 0.0000
# 4 0.0000 0.0000 0.0000 60.8966 0.0000 0.0000
# 5 0.0000 0.0000 0.0000 0.0000 52.5476 0.0000
# 6 0.0000 0.0000 0.0000 0.0000 0.0000 37.3489
#
#
#
# Elastic Compliance Matrix: (Units=1/GPa)
#
#
# Indices 1 2 3 4 5 6 
#
# 1 0.013143 -0.002199 -0.004866 0.000000 0.000000 0.000000
# 2 -0.002199 0.007381 -0.002194 0.000000 0.000000 0.000000
# 3 -0.004866 -0.002194 0.008028 0.000000 0.000000 0.000000
# 4 0.000000 0.000000 0.000000 0.016421 0.000000 0.000000
# 5 0.000000 0.000000 0.000000 0.000000 0.019030 0.000000
# 6 0.000000 0.000000 0.000000 0.000000 0.000000 0.026775
#
#
# Mechanical properties :
#
#
# Convention : Reuss Voigt Hill
#
# Bulk Modulus (GPa) = 99.67442 108.85284 104.26363
# Shear Modulus (GPa) = 44.38817 47.71829 46.05323
#
# Velocity S-wave (km/s) = 4.74556 4.92035 4.83374
# Velocity P-wave (km/s) = 8.97757 9.35447 9.16796
#
# Compressibility (1/GPa) = 0.01003266
#
# Stress axis : x y z
#
# Youngs Moduli (GPa) = 76.08422 135.48638 124.55934
#
# Poissons Ratio (x) = 0.29793 0.60617
# Poissons Ratio (y) = 0.16731 0.27334
# Poissons Ratio (z) = 0.37026 0.29732
#
# Static dielectric constant tensor:
#      x y z
#    x 1.705840 0.000000 0.000000 
#    y 0.000000 1.704420 0.000000 
#    z 0.000000 0.000000 1.710150 
# 
# From -- ./inp_files/9355.got.cif
#   From: 2010.05.17/outbox.ucp.g08.bks.cvg/sg20_5_cif.got.tgz:9355.got - 2010.06.11 15:13:06.
