data_PCOD9322960
_publ_section_title
;
Structure prediction by ZEFSAII (Michael W. Deem and Ramdas Pophale) SiO2 
 PCOD9322960
Probable space group: C 2 2 2
;
_chemical_formula_sum "Si O2"
_cell_formula_units_Z 64
_cell_length_a 30.932833
_cell_length_b 12.083045
_cell_length_c 8.047632
_cell_angle_alpha 90.000000
_cell_angle_beta 90.000000
_cell_angle_gamma 90.000000
_cell_volume 3007.905575
_symmetry_space_group_name_H-M "C 2 2 2"
_symmetry_group_IT_number 21
_symmetry_cell_setting 'orthorhombic'
loop_
_space_group_symop_operation_xyz
x,y,z
-x,-y,z
x,-y,-z
-x,y,-z
1/2+x,1/2+y,z
1/2-x,1/2-y,z
1/2+x,1/2-y,-z
1/2-x,1/2+y,-z
loop_
_atom_site_type_symbol
_atom_site_label
_atom_site_fract_x
_atom_site_fract_y
_atom_site_fract_z
Si Si1 0.628719 0.850800 0.661571
Si Si2 0.543143 0.733718 0.776531
Si Si3 0.339753 0.485222 0.312277
Si Si4 0.552525 0.750372 0.177257
Si Si5 0.431746 0.498119 0.190563
Si Si6 0.294686 0.305682 0.788379
Si Si7 0.201621 0.231759 0.177350
Si Si8 0.133074 0.399670 0.272693
O O1 0.581433 0.798089 0.686260
O O2 0.664764 0.767430 0.729772
O O3 0.637701 0.874441 0.468643
O O4 0.630672 0.969250 0.752710
O O5 0.495012 0.780487 0.756595
O O6 0.545458 0.603605 0.727249
O O7 0.551732 0.739659 0.976114
O O8 0.355192 0.500000 0.500000
O O9 0.380290 0.517808 0.198234
O O10 0.301386 0.571298 0.279936
O O11 0.324049 0.361797 0.277901
O O12 0.562107 0.627536 0.249403
O O13 0.589500 0.837174 0.219046
O O14 0.446883 0.500000 0.000000
O O15 0.250000 0.250000 0.733403
O O16 0.294868 0.309397 0.988050
O O17 0.250000 0.250000 0.242485
O O18 0.173588 0.342974 0.182850
#
# Coordination Sequence:
#
# PCOD9322960 Si02
#       8
#     8   8   8   8   8   8   8   8
#     4  11  25  43  62  89 126 166 207 257 318 374
#     4  10  21  38  63  93 124 163 210 258 309 369
#     4  12  24  39  65  97 131 165 201 251 314 372
#     4  10  21  38  63  93 124 163 210 258 309 369
#     4  10  19  36  62  92 127 163 202 253 309 365
#     4  11  25  44  67  94 124 163 211 259 308 366
#     4  11  25  44  67  94 124 163 211 259 308 366
#     4  11  25  43  62  89 126 166 207 257 318 374
#
# _framework density 21.277263999999999
#
# number of rings (size 3 to 8) (size 9 to 14) (size 15 to 20)
#    0.000    1.250    2.500    3.000    1.750    6.500 
#    0.000    2.500    0.000    2.250    0.000    0.000 
#    0.000    0.000    0.000    0.000    0.000    0.000 
#
# Total GULP energy -178947.061827 kJ/mol
# GULP energy per Si atom -5592.095682 kJ/mol
# Density = 2.122884 g / cm^3
# Si number density = 21.277264 Si / 1000 Ang^3
#
#
#
# Elastic Constant Matrix: (Units=GPa)
#
#
# Indices 1 2 3 4 5 6 
#
# 1 93.6462 1.3316 -14.0264 0.0000 0.0000 0.0000
# 2 1.3316 84.6827 -7.3777 0.0000 0.0000 0.0000
# 3 -14.0264 -7.3777 23.8221 0.0000 0.0000 0.0000
# 4 0.0000 0.0000 0.0000 29.1211 0.0000 0.0000
# 5 0.0000 0.0000 0.0000 0.0000 -57.8442 0.0000
# 6 0.0000 0.0000 0.0000 0.0000 0.0000 26.2736
#
#
#
# Elastic Compliance Matrix: (Units=1/GPa)
#
#
# Indices 1 2 3 4 5 6 
#
# 1 0.011726 0.000429 0.007037 0.000000 0.000000 0.000000
# 2 0.000429 0.012152 0.004016 0.000000 0.000000 0.000000
# 3 0.007037 0.004016 0.047365 0.000000 0.000000 0.000000
# 4 0.000000 0.000000 0.000000 0.034339 0.000000 0.000000
# 5 0.000000 0.000000 0.000000 0.000000 -0.017288 0.000000
# 6 0.000000 0.000000 0.000000 0.000000 0.000000 0.038061
#
#
# Mechanical properties :
#
#
# Convention : Reuss Voigt Hill
#
# Bulk Modulus (GPa) = 10.61489 18.00066 14.30777
# Shear Modulus (GPa) = 37.09344 14.32501 25.70923
#
# Velocity S-wave (km/s) = 4.17986 2.59753 3.47983
# Velocity P-wave (km/s) = 5.31927 4.18027 4.78379
#
# Compressibility (1/GPa) = 0.09420733
#
# Stress axis : x y z
#
# Youngs Moduli (GPa) = 85.27733 82.29156 21.11256
#
# Poissons Ratio (x) = -0.03528 -0.14858
# Poissons Ratio (y) = -0.03656 -0.08479
# Poissons Ratio (z) = -0.60012 -0.33047
#
# Static dielectric constant tensor:
#      x y z
#    x 1.744240 0.000000 0.000000 
#    y 0.000000 1.746660 0.000000 
#    z 0.000000 0.000000 1.778170 
# 
# From -- ./inp_files/19839.got.cif
#   From: 2010.05.17/outbox.cif.g08.bks.cpg/sg21_10_cif.got.tgz:19839.got - 2010.06.03 23:14:55.
