data_PCOD9322925
_publ_section_title
;
Structure prediction by ZEFSAII (Michael W. Deem and Ramdas Pophale) SiO2 
 PCOD9322925
Probable space group: C 2 2 2
;
_chemical_formula_sum "Si O2"
_cell_formula_units_Z 56
_cell_length_a 17.478539
_cell_length_b 19.807431
_cell_length_c 8.546417
_cell_angle_alpha 90.000000
_cell_angle_beta 90.000000
_cell_angle_gamma 90.000000
_cell_volume 2958.811915
_symmetry_space_group_name_H-M "C 2 2 2"
_symmetry_group_IT_number 21
_symmetry_cell_setting 'orthorhombic'
loop_
_space_group_symop_operation_xyz
x,y,z
-x,-y,z
x,-y,-z
-x,y,-z
1/2+x,1/2+y,z
1/2-x,1/2-y,z
1/2+x,1/2-y,-z
1/2-x,1/2+y,-z
loop_
_atom_site_type_symbol
_atom_site_label
_atom_site_fract_x
_atom_site_fract_y
_atom_site_fract_z
Si Si1 0.044273 0.759821 0.644422
Si Si2 0.301954 0.428179 0.032410
Si Si3 0.858217 0.456235 0.141026
Si Si4 0.769585 0.450672 0.631279
Si Si5 0.312764 0.193480 0.509210
Si Si6 0.087562 0.191027 0.045173
Si Si7 0.098029 0.690563 0.184508
O O1 0.107771 0.710741 0.575523
O O2 0.086759 0.806703 0.767629
O O3 0.000000 0.794165 0.500000
O O4 0.979363 0.719602 0.739217
O O5 0.278521 0.429638 0.215221
O O6 0.353550 0.365073 0.989429
O O7 0.341819 0.500000 0.000000
O O8 0.224229 0.430681 0.928893
O O9 0.838056 0.503927 0.289312
O O10 0.907035 0.389501 0.165998
O O11 0.891854 0.500000 0.000000
O O12 0.733566 0.500000 0.500000
O O13 0.790780 0.381677 0.542762
O O14 0.250000 0.250000 0.467821
O O15 0.332839 0.199919 0.692787
O O16 0.108439 0.263937 0.970365
O O17 0.000000 0.175096 0.000000
#
# Coordination Sequence:
#
# PCOD9322925 Si02
#       7
#     8   8   8   8   8   8   8
#     4   9  21  40  56  83 122 150 192 245 292 345
#     4   9  21  36  57  85 115 151 193 249 300 351
#     4   9  20  36  56  83 118 152 193 246 289 351
#     4  10  19  36  56  81 120 149 189 245 294 342
#     4  11  22  34  59  88 114 156 203 240 289 356
#     4  10  21  37  60  82 114 154 191 246 297 352
#     4  10  21  37  59  84 120 153 195 242 294 350
#
# _framework density 18.926515999999999
#
# number of rings (size 3 to 8) (size 9 to 14) (size 15 to 20)
#    0.000    2.571    1.429    0.857    6.000    0.286 
#    0.000    2.143    0.000    0.000    0.000    0.000 
#    0.000    0.000    0.000    0.000    0.000    0.000 
#
# Total GULP energy -155955.120793 kJ/mol
# GULP energy per Si atom -5569.825743 kJ/mol
# Density = 1.888344 g / cm^3
# Si number density = 18.926516 Si / 1000 Ang^3
#
#
#
# Elastic Constant Matrix: (Units=GPa)
#
#
# Indices 1 2 3 4 5 6 
#
# 1 23.1289 12.6129 12.2386 0.0000 0.0000 0.0000
# 2 12.6129 61.8704 12.8937 0.0000 0.0000 0.0000
# 3 12.2386 12.8937 70.7887 0.0000 0.0000 0.0000
# 4 0.0000 0.0000 0.0000 25.3871 0.0000 0.0000
# 5 0.0000 0.0000 0.0000 0.0000 9.9243 0.0000
# 6 0.0000 0.0000 0.0000 0.0000 0.0000 14.3998
#
#
#
# Elastic Compliance Matrix: (Units=1/GPa)
#
#
# Indices 1 2 3 4 5 6 
#
# 1 0.052079 -0.009085 -0.007349 0.000000 0.000000 0.000000
# 2 -0.009085 0.018385 -0.001778 0.000000 0.000000 0.000000
# 3 -0.007349 -0.001778 0.015721 0.000000 0.000000 0.000000
# 4 0.000000 0.000000 0.000000 0.039390 0.000000 0.000000
# 5 0.000000 0.000000 0.000000 0.000000 0.100763 0.000000
# 6 0.000000 0.000000 0.000000 0.000000 0.000000 0.069446
#
#
# Mechanical properties :
#
#
# Convention : Reuss Voigt Hill
#
# Bulk Modulus (GPa) = 20.09613 25.69759 22.89686
# Shear Modulus (GPa) = 14.33502 17.81175 16.07338
#
# Velocity S-wave (km/s) = 2.75508 3.07106 2.91735
# Velocity P-wave (km/s) = 4.55650 5.11686 4.84479
#
# Compressibility (1/GPa) = 0.04976084
#
# Stress axis : x y z
#
# Youngs Moduli (GPa) = 19.20148 54.39070 63.60919
#
# Poissons Ratio (x) = 0.49416 0.46747
# Poissons Ratio (y) = 0.17445 0.11310
# Poissons Ratio (z) = 0.14111 0.09671
#
# Static dielectric constant tensor:
#      x y z
#    x 1.648230 0.000000 0.000000 
#    y 0.000000 1.649610 0.000000 
#    z 0.000000 0.000000 1.730810 
# 
# From -- ./inp_files/17817.got.cif
#   From: 2010.05.17/outbox.cif.g08.bks.cpg/sg21_9_cif.got.tgz:17817.got - 2010.06.03 23:14:55.
