data_PCOD9322158
_publ_section_title
;
Structure prediction by ZEFSAII (Michael W. Deem and Ramdas Pophale) SiO2 
 PCOD9322158
Probable space group: C 2 2 21
;
_chemical_formula_sum "Si O2"
_cell_formula_units_Z 28
_cell_length_a 6.661013
_cell_length_b 12.231511
_cell_length_c 12.620383
_cell_angle_alpha 90.000000
_cell_angle_beta 90.000000
_cell_angle_gamma 90.000000
_cell_volume 1028.236287
_symmetry_space_group_name_H-M "C 2 2 21"
_symmetry_group_IT_number 20
_symmetry_cell_setting 'orthorhombic'
loop_
_space_group_symop_operation_xyz
x,y,z
-x,-y,1/2+z
x,-y,-z
-x,y,1/2-z
1/2+x,1/2+y,z
1/2-x,1/2-y,1/2+z
1/2+x,1/2-y,-z
1/2-x,1/2+y,1/2-z
loop_
_atom_site_type_symbol
_atom_site_label
_atom_site_fract_x
_atom_site_fract_y
_atom_site_fract_z
Si Si1 0.869527 0.000000 0.000000
Si Si2 0.778276 0.912557 0.790690
Si Si3 0.976980 0.315669 0.137343
Si Si4 0.246154 0.859725 0.935770
O O1 0.740897 0.986813 0.893226
O O2 0.034294 0.904503 0.981388
O O3 0.824180 0.786996 0.830330
O O4 0.672220 0.907447 0.675699
O O5 0.000000 0.951675 0.750000
O O6 0.000000 0.373476 0.250000
O O7 0.185654 0.262409 0.098759
O O8 0.887924 0.370618 0.034758
#
# Coordination Sequence:
#
# PCOD9322158 Si02
#       4
#     4   8   8   8
#     4   8  14  28  52  72 102 138 170 210 262 320
#     4   7  14  28  45  71  98 129 170 214 251 306
#     4   8  16  31  50  74 103 136 176 220 265 315
#     4   9  16  31  52  74 104 137 177 224 262 315
#
# _framework density 27.231092
#
# number of rings (size 3 to 8) (size 9 to 14) (size 15 to 20)
#    0.000    5.143    0.000    0.000    0.000    0.000 
#    0.000   40.000    0.000   24.000    0.000    0.000 
#    0.000    0.000    0.000    0.000    0.000    0.000 
#
# Total GULP energy -78033.828994 kJ/mol
# GULP energy per Si atom -5573.844928 kJ/mol
# Density = 2.716911 g / cm^3
# Si number density = 27.231092 Si / 1000 Ang^3
#
#
#
# Elastic Constant Matrix: (Units=GPa)
#
#
# Indices 1 2 3 4 5 6 
#
# 1 58.3503 33.8566 93.4695 0.0000 0.0000 0.0000
# 2 33.8566 62.8143 81.5153 0.0000 0.0000 0.0000
# 3 93.4695 81.5153 400.9039 0.0000 0.0000 0.0000
# 4 0.0000 0.0000 0.0000 64.3263 0.0000 0.0000
# 5 0.0000 0.0000 0.0000 0.0000 69.8798 0.0000
# 6 0.0000 0.0000 0.0000 0.0000 0.0000 27.7357
#
#
#
# Elastic Compliance Matrix: (Units=1/GPa)
#
#
# Indices 1 2 3 4 5 6 
#
# 1 0.031458 -0.010104 -0.005280 0.000000 0.000000 0.000000
# 2 -0.010104 0.024872 -0.002701 0.000000 0.000000 0.000000
# 3 -0.005280 -0.002701 0.004275 0.000000 0.000000 0.000000
# 4 0.000000 0.000000 0.000000 0.015546 0.000000 0.000000
# 5 0.000000 0.000000 0.000000 0.000000 0.014310 0.000000
# 6 0.000000 0.000000 0.000000 0.000000 0.000000 0.036055
#
#
# Mechanical properties :
#
#
# Convention : Reuss Voigt Hill
#
# Bulk Modulus (GPa) = 40.92680 104.41682 72.67181
# Shear Modulus (GPa) = 29.26878 53.27016 41.26947
#
# Velocity S-wave (km/s) = 3.28202 4.42772 3.89720
# Velocity P-wave (km/s) = 5.42441 8.03540 6.85536
#
# Compressibility (1/GPa) = 0.02443387
#
# Stress axis : x y z
#
# Youngs Moduli (GPa) = 31.78810 40.20658 233.93727
#
# Poissons Ratio (x) = 0.40624 1.23519
# Poissons Ratio (y) = 0.32118 0.63196
# Poissons Ratio (z) = 0.16784 0.10861
#
# Static dielectric constant tensor:
#      x y z
#    x 2.230440 0.000000 0.000000 
#    y 0.000000 2.250930 0.000000 
#    z 0.000000 0.000000 2.185130 
# 
# From -- ./inp_files/12375.got.cif
#   From: 2010.05.17/outbox.cif.g08.bks.cpg/sg20_7_cif.got.tgz:12375.got - 2010.06.03 22:52:26.
