data_PCOD9322048
_publ_section_title
;
Structure prediction by ZEFSAII (Michael W. Deem and Ramdas Pophale) SiO2 
 PCOD9322048
Probable space group: C 2 2 21
;
_chemical_formula_sum "Si O2"
_cell_formula_units_Z 28
_cell_length_a 23.727549
_cell_length_b 10.169341
_cell_length_c 5.013389
_cell_angle_alpha 90.000000
_cell_angle_beta 90.000000
_cell_angle_gamma 90.000000
_cell_volume 1209.698364
_symmetry_space_group_name_H-M "C 2 2 21"
_symmetry_group_IT_number 20
_symmetry_cell_setting 'orthorhombic'
loop_
_space_group_symop_operation_xyz
x,y,z
-x,-y,1/2+z
x,-y,-z
-x,y,1/2-z
1/2+x,1/2+y,z
1/2-x,1/2-y,1/2+z
1/2+x,1/2-y,-z
1/2-x,1/2+y,1/2-z
loop_
_atom_site_type_symbol
_atom_site_label
_atom_site_fract_x
_atom_site_fract_y
_atom_site_fract_z
Si Si1 0.338924 0.000000 0.500000
Si Si2 0.215603 0.714731 0.649611
Si Si3 0.000000 0.094947 0.750000
Si Si4 0.104810 0.721525 0.368410
Si Si5 0.536732 0.000000 0.500000
O O1 0.301931 0.075341 0.721833
O O2 0.373199 0.116205 0.351295
O O3 0.258836 0.708089 0.402560
O O4 0.159474 0.777695 0.517245
O O5 0.942582 0.180497 0.763760
O O6 0.998102 0.000000 0.500000
O O7 0.073304 0.625614 0.577586
O O8 0.500000 0.039922 0.250000
#
# Coordination Sequence:
#
# PCOD9322048 Si02
#       5
#     4   8   4   8   4
#     4  12  25  52  84 124 152 208 273 344 390 470
#     4  12  27  48  77 120 165 204 258 334 404 473
#     4  12  34  54  76 114 170 218 260 320 406 494
#     4  12  27  49  87 115 164 200 278 322 405 472
#     4  12  25  40  82 130 146 190 255 344 394 448
#
# _framework density 23.146267999999999
#
# number of rings (size 3 to 8) (size 9 to 14) (size 15 to 20)
#    0.000    0.000    7.143    0.857    6.000    0.000 
#    2.571    5.714    0.000    0.000    0.000    0.000 
#    0.000    0.000    0.000    0.000    0.000    0.000 
#
# Total GULP energy -78312.385287 kJ/mol
# GULP energy per Si atom -5593.741806 kJ/mol
# Density = 2.309359 g / cm^3
# Si number density = 23.146268 Si / 1000 Ang^3
#
#
#
# Elastic Constant Matrix: (Units=GPa)
#
#
# Indices 1 2 3 4 5 6 
#
# 1 172.2764 85.7389 93.3868 0.0000 0.0000 0.0000
# 2 85.7389 126.2684 74.7160 0.0000 0.0000 0.0000
# 3 93.3868 74.7160 183.4081 0.0000 0.0000 0.0000
# 4 0.0000 0.0000 0.0000 50.3347 0.0000 0.0000
# 5 0.0000 0.0000 0.0000 0.0000 29.7246 0.0000
# 6 0.0000 0.0000 0.0000 0.0000 0.0000 35.2985
#
#
#
# Elastic Compliance Matrix: (Units=1/GPa)
#
#
# Indices 1 2 3 4 5 6 
#
# 1 0.009902 -0.004928 -0.003034 0.000000 0.000000 0.000000
# 2 -0.004928 0.012888 -0.002741 0.000000 0.000000 0.000000
# 3 -0.003034 -0.002741 0.008114 0.000000 0.000000 0.000000
# 4 0.000000 0.000000 0.000000 0.019867 0.000000 0.000000
# 5 0.000000 0.000000 0.000000 0.000000 0.033642 0.000000
# 6 0.000000 0.000000 0.000000 0.000000 0.000000 0.028330
#
#
# Mechanical properties :
#
#
# Convention : Reuss Voigt Hill
#
# Bulk Modulus (GPa) = 105.29573 109.95958 107.62766
# Shear Modulus (GPa) = 36.41251 38.27898 37.34574
#
# Velocity S-wave (km/s) = 3.97060 4.07109 4.02116
# Velocity P-wave (km/s) = 8.16156 8.34912 8.25587
#
# Compressibility (1/GPa) = 0.00949706
#
# Stress axis : x y z
#
# Youngs Moduli (GPa) = 100.98808 77.59211 123.24636
#
# Poissons Ratio (x) = 0.38240 0.37396
# Poissons Ratio (y) = 0.49770 0.33780
# Poissons Ratio (z) = 0.30642 0.21267
#
# Static dielectric constant tensor:
#      x y z
#    x 1.978080 0.000000 0.000000 
#    y 0.000000 1.838380 0.000000 
#    z 0.000000 0.000000 1.946050 
# 
# From -- ./inp_files/2968.got.cif
#   From: 2010.05.17/outbox.cif.g08.bks.cpg/sg20_2_cif.got.tgz:2968.got - 2010.06.03 22:52:26.
