data_PCOD9322785
_publ_section_title
;
Structure prediction by ZEFSAII (Michael W. Deem and Ramdas Pophale) SiO2 
 PCOD9322785
Probable space group: C 2 2 2
;
_chemical_formula_sum "Si O2"
_cell_formula_units_Z 64
_cell_length_a 9.757955
_cell_length_b 29.574203
_cell_length_c 12.036600
_cell_angle_alpha 90.000000
_cell_angle_beta 90.000000
_cell_angle_gamma 90.000000
_cell_volume 3473.567069
_symmetry_space_group_name_H-M "C 2 2 2"
_symmetry_group_IT_number 21
_symmetry_cell_setting 'orthorhombic'
loop_
_space_group_symop_operation_xyz
x,y,z
-x,-y,z
x,-y,-z
-x,y,-z
1/2+x,1/2+y,z
1/2-x,1/2-y,z
1/2+x,1/2-y,-z
1/2-x,1/2+y,-z
loop_
_atom_site_type_symbol
_atom_site_label
_atom_site_fract_x
_atom_site_fract_y
_atom_site_fract_z
Si Si1 0.264439 0.866137 0.663349
Si Si2 0.840599 0.926101 0.534942
Si Si3 0.989924 0.689379 0.632931
Si Si4 0.169947 0.086725 0.886638
Si Si5 0.051103 0.789057 0.627159
Si Si6 0.200357 0.156382 0.708954
Si Si7 0.665683 0.507068 0.724055
Si Si8 0.339444 0.418394 0.140252
O O1 0.235564 0.906412 0.574307
O O2 0.422144 0.853123 0.673401
O O3 0.183338 0.821185 0.624089
O O4 0.205140 0.877170 0.783662
O O5 0.826475 0.885278 0.623612
O O6 0.797384 0.971274 0.603614
O O7 0.000000 0.931161 0.500000
O O8 0.057288 0.737250 0.666284
O O9 0.000000 0.687103 0.500000
O O10 0.833992 0.683872 0.671607
O O11 0.215768 0.132995 0.828557
O O12 0.214665 0.044833 0.811169
O O13 0.004158 0.083350 0.873738
O O14 0.212139 0.081500 0.014183
O O15 0.000000 0.787577 0.500000
O O16 0.934074 0.813274 0.699088
O O17 0.500000 0.500000 0.718111
O O18 0.708051 0.460682 0.783983
#
# Coordination Sequence:
#
# PCOD9322785 Si02
#       8
#     8   8   8   8   8   8   8   8
#     4  12  20  34  52  81 118 145 182 221 278 334
#     4  11  18  30  51  79 114 145 177 223 277 333
#     4  11  23  34  53  82 113 148 182 228 275 335
#     4   9  18  33  57  79 109 141 185 234 278 318
#     4  11  19  34  56  81 112 141 185 231 279 333
#     4  11  18  35  55  80 108 149 186 226 274 330
#     4   9  18  29  50  84 114 135 176 234 279 317
#     4  10  19  33  54  82 108 146 182 228 279 326
#
# _framework density 18.424865
#
# number of rings (size 3 to 8) (size 9 to 14) (size 15 to 20)
#    0.000    1.500    5.000    2.625    0.000    5.250 
#    0.000    0.625    0.000    7.500    0.000    3.500 
#    0.000    0.000    0.000    0.000    0.000    0.000 
#
# Total GULP energy -178276.477018 kJ/mol
# GULP energy per Si atom -5571.139907 kJ/mol
# Density = 1.838293 g / cm^3
# Si number density = 18.424865 Si / 1000 Ang^3
#
#
#
# Elastic Constant Matrix: (Units=GPa)
#
#
# Indices 1 2 3 4 5 6 
#
# 1 29.1041 3.9686 6.2537 0.0000 0.0000 0.0000
# 2 3.9686 64.8351 50.7589 0.0000 0.0000 0.0000
# 3 6.2537 50.7589 108.0130 0.0000 0.0000 0.0000
# 4 0.0000 0.0000 0.0000 7.0586 0.0000 0.0000
# 5 0.0000 0.0000 0.0000 0.0000 13.2701 0.0000
# 6 0.0000 0.0000 0.0000 0.0000 0.0000 2.9696
#
#
#
# Elastic Compliance Matrix: (Units=1/GPa)
#
#
# Indices 1 2 3 4 5 6 
#
# 1 0.034824 -0.000875 -0.001605 0.000000 0.000000 0.000000
# 2 -0.000875 0.024423 -0.011427 0.000000 0.000000 0.000000
# 3 -0.001605 -0.011427 0.014721 0.000000 0.000000 0.000000
# 4 0.000000 0.000000 0.000000 0.141671 0.000000 0.000000
# 5 0.000000 0.000000 0.000000 0.000000 0.075358 0.000000
# 6 0.000000 0.000000 0.000000 0.000000 0.000000 0.336745
#
#
# Mechanical properties :
#
#
# Convention : Reuss Voigt Hill
#
# Bulk Modulus (GPa) = 21.66644 35.99053 28.82848
# Shear Modulus (GPa) = 7.45225 14.05772 10.75498
#
# Velocity S-wave (km/s) = 2.01332 2.76520 2.41865
# Velocity P-wave (km/s) = 4.14602 5.45630 4.84565
#
# Compressibility (1/GPa) = 0.04615433
#
# Stress axis : x y z
#
# Youngs Moduli (GPa) = 28.71611 40.94490 67.93112
#
# Poissons Ratio (x) = 0.03583 0.10903
# Poissons Ratio (y) = 0.02513 0.77622
# Poissons Ratio (z) = 0.04609 0.46786
#
# Static dielectric constant tensor:
#      x y z
#    x 1.651430 0.000000 0.000000 
#    y 0.000000 1.682500 0.000000 
#    z 0.000000 0.000000 1.639770 
# 
# From -- ./inp_files/23130.got.cif
#   From: 2010.05.17/outbox.cif.g08.bks.cpg/sg21_12_cif.got.tgz:23130.got - 2010.06.03 23:14:55.
