data_PCOD9322236
_publ_section_title
;
Structure prediction by ZEFSAII (Michael W. Deem and Ramdas Pophale) SiO2 
 PCOD9322236
Probable space group: C 2 2 21
;
_chemical_formula_sum "Si O2"
_cell_formula_units_Z 20
_cell_length_a 9.000000
_cell_length_b 18.000000
_cell_length_c 12.000000
_cell_angle_alpha 90.000000
_cell_angle_beta 90.000000
_cell_angle_gamma 90.000000
_cell_volume 1944.000000
_symmetry_space_group_name_H-M "C 2 2 21"
_symmetry_group_IT_number 20
_symmetry_cell_setting 'orthorhombic'
loop_
_space_group_symop_operation_xyz
x,y,z
-x,-y,1/2+z
x,-y,-z
-x,y,1/2-z
1/2+x,1/2+y,z
1/2-x,1/2-y,1/2+z
1/2+x,1/2-y,-z
1/2-x,1/2+y,1/2-z
loop_
_atom_site_type_symbol
_atom_site_label
_atom_site_fract_x
_atom_site_fract_y
_atom_site_fract_z
Si Si1 0.329930 0.322416 0.717283
Si Si2 0.838127 0.981327 0.197745
Si Si3 0.639585 0.150607 0.833728
Si Si4 0.664527 0.897131 0.913593
Si Si5 0.665437 0.947622 0.605254
O O1 0.500000 0.343645 0.750000
O O2 0.333239 0.236892 0.685931
O O3 0.224970 0.337258 0.824764
O O4 0.261882 0.372025 0.617084
O O5 0.789381 0.896945 0.182517
O O6 0.000000 0.988459 0.250000
O O7 0.792277 0.038923 0.099306
O O8 0.724527 0.007563 0.291126
O O9 0.500000 0.130562 0.750000
O O10 0.619695 0.134449 0.965297
O O11 0.507605 0.932167 0.880431
O O12 0.690855 0.000000 0.500000
#
# Coordination Sequence:
#
# PCOD9322236 Si02
#       5
#     8   8   8   8   8
#     4  10  24  43  63  96 135 167 214 275 330 385
#     4  11  23  38  62  97 131 169 223 273 323 388
#     4  11  24  43  66  95 130 171 219 264 325 399
#     4  11  22  41  66  91 129 172 214 274 327 379
#     4  11  22  39  65  91 124 171 217 262 320 385
#
# _framework density 10.288066000000001
#
# number of rings (size 3 to 8) (size 9 to 14) (size 15 to 20)
#    0.000    1.200    0.000    9.000    0.000    9.600 
#    0.000    1.000    0.000    0.000    0.000    0.000 
#    0.000    0.000    0.000    0.000    0.000    0.000 
#
# Total GULP energy -111373.527207 kJ/mol
# GULP energy per Si atom -5568.676360 kJ/mol
# Density = 1.026465 g / cm^3
# Si number density = 10.288066 Si / 1000 Ang^3
#
#
#
# Elastic Constant Matrix: (Units=GPa)
#
#
# Indices 1 2 3 4 5 6 
#
# 1 111.3566 71.3727 45.8779 0.0000 0.0000 0.0000
# 2 71.3727 125.9038 51.1014 0.0000 0.0000 0.0000
# 3 45.8779 51.1014 150.1431 0.0000 0.0000 0.0000
# 4 0.0000 0.0000 0.0000 41.2727 0.0000 0.0000
# 5 0.0000 0.0000 0.0000 0.0000 11.6232 0.0000
# 6 0.0000 0.0000 0.0000 0.0000 0.0000 38.3135
#
#
#
# Elastic Compliance Matrix: (Units=1/GPa)
#
#
# Indices 1 2 3 4 5 6 
#
# 1 0.014559 -0.007481 -0.001902 0.000000 0.000000 0.000000
# 2 -0.007481 0.013060 -0.002159 0.000000 0.000000 0.000000
# 3 -0.001902 -0.002159 0.007976 0.000000 0.000000 0.000000
# 4 0.000000 0.000000 0.000000 0.024229 0.000000 0.000000
# 5 0.000000 0.000000 0.000000 0.000000 0.086035 0.000000
# 6 0.000000 0.000000 0.000000 0.000000 0.000000 0.026100
#
#
# Mechanical properties :
#
#
# Convention : Reuss Voigt Hill
#
# Bulk Modulus (GPa) = 79.93530 80.45638 80.19584
# Shear Modulus (GPa) = 25.09864 32.84530 28.97197
#
# Velocity S-wave (km/s) = 3.49634 3.99968 3.75645
# Velocity P-wave (km/s) = 7.43183 7.77924 7.60752
#
# Compressibility (1/GPa) = 0.01251012
#
# Stress axis : x y z
#
# Youngs Moduli (GPa) = 68.68709 76.57156 125.36918
#
# Poissons Ratio (x) = 0.57283 0.23851
# Poissons Ratio (y) = 0.51385 0.27067
# Poissons Ratio (z) = 0.13067 0.16532
#
# Static dielectric constant tensor:
#      x y z
#    x 1.713760 0.000000 0.000000 
#    y 0.000000 1.822180 0.000000 
#    z 0.000000 0.000000 1.642020 
# 
# From -- ./inp_files/12725.got.cif
#   From: 2010.05.17/outbox.ucp.g08.bks.cvg/sg20_7_cif.got.tgz:12725.got - 2010.06.11 15:13:06.
