data_PCOD9322447
_publ_section_title
;
Structure prediction by ZEFSAII (Michael W. Deem and Ramdas Pophale) SiO2 
 PCOD9322447
Probable space group: C 2 2 2
;
_chemical_formula_sum "Si O2"
_cell_formula_units_Z 32
_cell_length_a 7.902285
_cell_length_b 19.657832
_cell_length_c 9.470408
_cell_angle_alpha 90.000000
_cell_angle_beta 90.000000
_cell_angle_gamma 90.000000
_cell_volume 1471.150140
_symmetry_space_group_name_H-M "C 2 2 2"
_symmetry_group_IT_number 21
_symmetry_cell_setting 'orthorhombic'
loop_
_space_group_symop_operation_xyz
x,y,z
-x,-y,z
x,-y,-z
-x,y,-z
1/2+x,1/2+y,z
1/2-x,1/2-y,z
1/2+x,1/2-y,-z
1/2-x,1/2+y,-z
loop_
_atom_site_type_symbol
_atom_site_label
_atom_site_fract_x
_atom_site_fract_y
_atom_site_fract_z
Si Si1 0.783794 0.591788 0.850451
Si Si2 0.324599 0.453217 0.159321
Si Si3 0.055923 0.273865 0.844182
Si Si4 0.978063 0.845267 0.333841
O O1 0.810111 0.512818 0.816900
O O2 0.937784 0.644471 0.838300
O O3 0.642491 0.622621 0.745147
O O4 0.712321 0.586450 0.012379
O O5 0.500000 0.500000 0.153655
O O6 0.337162 0.398061 0.281498
O O7 0.250000 0.250000 0.830126
O O8 0.955634 0.230115 0.729779
O O9 0.000000 0.252902 0.000000
O O10 0.000000 0.843653 0.500000
#
# Coordination Sequence:
#
# PCOD9322447 Si02
#       4
#     8   8   8   8
#     4   9  17  31  51  77 105 136 178 233 276 317
#     4   9  16  31  55  80 107 140 186 235 277 327
#     4  10  20  36  56  81 112 146 184 232 282 331
#     4  10  18  29  50  79 111 147 187 226 270 329
#
# _framework density 21.751688000000001
#
# number of rings (size 3 to 8) (size 9 to 14) (size 15 to 20)
#    0.000    2.500    0.000    8.250    0.000    4.500 
#    0.000   13.750    0.000    0.000    0.000    0.000 
#    0.000    0.000    0.000    0.000    0.000    0.000 
#
# Total GULP energy -89146.706024 kJ/mol
# GULP energy per Si atom -5571.669126 kJ/mol
# Density = 2.170218 g / cm^3
# Si number density = 21.751688 Si / 1000 Ang^3
#
#
#
# Elastic Constant Matrix: (Units=GPa)
#
#
# Indices 1 2 3 4 5 6 
#
# 1 48.0731 33.6431 10.2512 0.0000 0.0000 0.0000
# 2 33.6431 192.8756 112.1088 0.0000 0.0000 0.0000
# 3 10.2512 112.1088 163.5856 0.0000 0.0000 0.0000
# 4 0.0000 0.0000 0.0000 -17.8035 0.0000 0.0000
# 5 0.0000 0.0000 0.0000 0.0000 3.9827 0.0000
# 6 0.0000 0.0000 0.0000 0.0000 0.0000 -153.7820
#
#
#
# Elastic Compliance Matrix: (Units=1/GPa)
#
#
# Indices 1 2 3 4 5 6 
#
# 1 0.024198 -0.005550 0.002287 0.000000 0.000000 0.000000
# 2 -0.005550 0.009890 -0.006430 0.000000 0.000000 0.000000
# 3 0.002287 -0.006430 0.010377 0.000000 0.000000 0.000000
# 4 0.000000 0.000000 0.000000 -0.056169 0.000000 0.000000
# 5 0.000000 0.000000 0.000000 0.000000 0.251089 0.000000
# 6 0.000000 0.000000 0.000000 0.000000 0.000000 -0.006503
#
#
# Mechanical properties :
#
#
# Convention : Reuss Voigt Hill
#
# Bulk Modulus (GPa) = 39.87467 79.61561 59.74514
# Shear Modulus (GPa) = 19.18437 -16.95184 1.11627
#
# Velocity S-wave (km/s) = 2.97302 -2.79468 0.71715
# Velocity P-wave (km/s) = 5.49151 5.12521 5.31152
#
# Compressibility (1/GPa) = 0.02507858
#
# Stress axis : x y z
#
# Youngs Moduli (GPa) = 41.32523 101.10735 96.37151
#
# Poissons Ratio (x) = 0.56119 -0.22045
# Poissons Ratio (y) = 0.22937 0.61970
# Poissons Ratio (z) = -0.09453 0.65015
#
# Static dielectric constant tensor:
#      x y z
#    x 1.905190 0.000000 0.000000 
#    y 0.000000 1.905590 0.000000 
#    z 0.000000 0.000000 1.779870 
# 
# From -- ./inp_files/10460.got.cif
#   From: 2010.05.17/outbox.cif.g08.bks.cpg/sg21_6_cif.got.tgz:10460.got - 2010.06.03 23:14:55.
