data_PCOD9322675
_publ_section_title
;
Structure prediction by ZEFSAII (Michael W. Deem and Ramdas Pophale) SiO2 
 PCOD9322675
Probable space group: C 2 2 2
;
_chemical_formula_sum "Si O2"
_cell_formula_units_Z 64
_cell_length_a 16.913455
_cell_length_b 22.877019
_cell_length_c 7.730314
_cell_angle_alpha 90.000000
_cell_angle_beta 90.000000
_cell_angle_gamma 90.000000
_cell_volume 2991.086000
_symmetry_space_group_name_H-M "C 2 2 2"
_symmetry_group_IT_number 21
_symmetry_cell_setting 'orthorhombic'
loop_
_space_group_symop_operation_xyz
x,y,z
-x,-y,z
x,-y,-z
-x,y,-z
1/2+x,1/2+y,z
1/2-x,1/2-y,z
1/2+x,1/2-y,-z
1/2-x,1/2+y,-z
loop_
_atom_site_type_symbol
_atom_site_label
_atom_site_fract_x
_atom_site_fract_y
_atom_site_fract_z
Si Si1 0.250581 0.387503 0.205625
Si Si2 0.076992 0.311308 0.695953
Si Si3 0.091258 0.333377 0.293800
Si Si4 0.263806 0.867434 0.203410
Si Si5 0.277884 0.513663 0.192567
Si Si6 0.458200 0.443497 0.812323
Si Si7 0.832669 0.780303 0.131540
Si Si8 0.401221 0.680792 0.227046
O O1 0.158666 0.378901 0.244077
O O2 0.279580 0.449520 0.274427
O O3 0.303943 0.332113 0.259076
O O4 0.257528 0.380100 0.997199
O O5 0.086968 0.331484 0.499871
O O6 0.156644 0.330825 0.790178
O O7 0.068441 0.241263 0.696461
O O8 0.997983 0.340126 0.772230
O O9 0.122238 0.271097 0.227011
O O10 0.269749 0.933206 0.278747
O O11 0.188942 0.834225 0.284531
O O12 0.366891 0.537388 0.171636
O O13 0.244817 0.500000 0.000000
O O14 0.500000 0.500000 0.724892
O O15 0.453589 0.377157 0.741686
O O16 0.500000 0.438479 0.000000
O O17 0.750000 0.750000 0.065090
O O18 0.887914 0.804848 0.978025
#
# Coordination Sequence:
#
# PCOD9322675 Si02
#       8
#     8   8   8   8   8   8   8   8
#     4   9  18  34  56  79 108 138 176 227 270 337
#     4  11  22  37  52  72 109 144 185 236 276 328
#     4  10  23  36  50  76 104 144 187 230 286 322
#     4   9  19  34  55  80 106 139 177 225 272 329
#     4   9  16  32  52  77 110 141 172 213 269 328
#     4  10  19  28  48  87 120 145 167 212 270 331
#     4   9  18  32  51  80 107 136 177 225 273 330
#     4  10  20  31  54  83 111 141 181 216 271 331
#
# _framework density 21.396910999999999
#
# number of rings (size 3 to 8) (size 9 to 14) (size 15 to 20)
#    0.000    2.375    1.250    3.375    1.750    4.500 
#    0.000    1.250    0.000    3.750    0.000    6.125 
#    0.000    0.000    0.000    0.000    0.000    0.000 
#
# Total GULP energy -178386.244851 kJ/mol
# GULP energy per Si atom -5574.570152 kJ/mol
# Density = 2.134821 g / cm^3
# Si number density = 21.396911 Si / 1000 Ang^3
#
#
#
# Elastic Constant Matrix: (Units=GPa)
#
#
# Indices 1 2 3 4 5 6 
#
# 1 84.7373 21.6573 3.8845 0.0000 0.0000 0.0000
# 2 21.6573 109.8261 -10.4164 0.0000 0.0000 0.0000
# 3 3.8845 -10.4164 21.5063 0.0000 0.0000 0.0000
# 4 0.0000 0.0000 0.0000 -8.6902 0.0000 0.0000
# 5 0.0000 0.0000 0.0000 0.0000 73.6888 0.0000
# 6 0.0000 0.0000 0.0000 0.0000 0.0000 27.2341
#
#
#
# Elastic Compliance Matrix: (Units=1/GPa)
#
#
# Indices 1 2 3 4 5 6 
#
# 1 0.012699 -0.002853 -0.003675 0.000000 0.000000 0.000000
# 2 -0.002853 0.010185 0.005448 0.000000 0.000000 0.000000
# 3 -0.003675 0.005448 0.049801 0.000000 0.000000 0.000000
# 4 0.000000 0.000000 0.000000 -0.115072 0.000000 0.000000
# 5 0.000000 0.000000 0.000000 0.000000 0.013571 0.000000
# 6 0.000000 0.000000 0.000000 0.000000 0.000000 0.036719
#
#
# Mechanical properties :
#
#
# Convention : Reuss Voigt Hill
#
# Bulk Modulus (GPa) = 14.17959 27.36896 20.77427
# Shear Modulus (GPa) = 148.94317 31.84280 90.39299
#
# Velocity S-wave (km/s) = 8.35229 3.86190 6.50673
# Velocity P-wave (km/s) = 9.98277 5.71879 8.13512
#
# Compressibility (1/GPa) = 0.07052392
#
# Stress axis : x y z
#
# Youngs Moduli (GPa) = 78.74775 98.18768 20.08005
#
# Poissons Ratio (x) = 0.28010 0.07380
# Poissons Ratio (y) = 0.22465 -0.10940
# Poissons Ratio (z) = 0.28943 -0.53494
#
# Static dielectric constant tensor:
#      x y z
#    x 1.803510 0.000000 0.000000 
#    y 0.000000 1.864500 0.000000 
#    z 0.000000 0.000000 1.834140 
# 
# From -- ./inp_files/15501.got.cif
#   From: 2010.05.17/outbox.cif.g08.bks.cpg/sg21_8_cif.got.tgz:15501.got - 2010.06.03 23:14:55.
