data_PCOD9322419
_publ_section_title
;
Structure prediction by ZEFSAII (Michael W. Deem and Ramdas Pophale) SiO2 
 PCOD9322419
Probable space group: C 2 2 2
;
_chemical_formula_sum "Si O2"
_cell_formula_units_Z 58
_cell_length_a 9.504043
_cell_length_b 27.685568
_cell_length_c 11.759635
_cell_angle_alpha 90.000000
_cell_angle_beta 90.000000
_cell_angle_gamma 90.000000
_cell_volume 3094.251946
_symmetry_space_group_name_H-M "C 2 2 2"
_symmetry_group_IT_number 21
_symmetry_cell_setting 'orthorhombic'
loop_
_space_group_symop_operation_xyz
x,y,z
-x,-y,z
x,-y,-z
-x,y,-z
1/2+x,1/2+y,z
1/2-x,1/2-y,z
1/2+x,1/2-y,-z
1/2-x,1/2+y,-z
loop_
_atom_site_type_symbol
_atom_site_label
_atom_site_fract_x
_atom_site_fract_y
_atom_site_fract_z
Si Si1 0.828954 0.350936 0.995610
Si Si2 0.500000 0.000000 0.500000
Si Si3 0.652056 0.956080 0.061457
Si Si4 0.478942 0.778755 0.367508
Si Si5 0.058631 0.570875 0.702584
Si Si6 0.203761 0.637442 0.256022
Si Si7 0.473789 0.668088 0.366748
Si Si8 0.724687 0.828788 0.251274
O O1 0.780453 0.404775 0.961350
O O2 0.780397 0.321410 0.885278
O O3 0.780778 0.345866 0.124963
O O4 0.000000 0.347592 0.000000
O O5 0.430565 0.961367 0.589085
O O6 0.618646 0.960880 0.193595
O O7 0.500000 0.952142 0.000000
O O8 0.727573 0.000000 0.000000
O O9 0.500000 0.788327 0.500000
O O10 0.376270 0.818755 0.317559
O O11 0.426328 0.724126 0.355310
O O12 0.628652 0.787435 0.307005
O O13 0.146742 0.620915 0.711190
O O14 0.899531 0.590743 0.730043
O O15 0.355010 0.633600 0.314687
O O16 0.500000 0.658517 0.500000
O O17 0.619892 0.666663 0.299524
#
# Coordination Sequence:
#
# PCOD9322419 Si02
#       8
#     8   2   8   8   8   8   8   8
#     4  10  17  36  57  84 113 147 188 239 293 338
#     4  12  24  32  54  98 112 136 216 236 272 332
#     4   9  14  28  53  82 105 136 177 232 286 322
#     4  10  20  37  60  83 110 149 203 244 272 328
#     4  10  22  34  56  87 117 144 186 243 279 334
#     4  11  21  37  59  84 117 153 187 236 296 333
#     4  11  24  38  57  84 116 156 196 229 280 355
#     4  10  21  38  60  83 118 153 186 236 296 331
#
# _framework density 18.744433999999998
#
# number of rings (size 3 to 8) (size 9 to 14) (size 15 to 20)
#    0.000    1.793    5.517    2.483    5.793    2.759 
#    0.000    4.138    0.000    1.655    0.000    1.931 
#    0.000    0.000    0.000    0.000    0.000    0.000 
#
# Total GULP energy -161506.148386 kJ/mol
# GULP energy per Si atom -5569.177531 kJ/mol
# Density = 1.870177 g / cm^3
# Si number density = 18.744434 Si / 1000 Ang^3
#
#
#
# Elastic Constant Matrix: (Units=GPa)
#
#
# Indices 1 2 3 4 5 6 
#
# 1 81.3165 4.7949 22.5623 0.0000 0.0000 0.0000
# 2 4.7949 37.4170 37.0407 0.0000 0.0000 0.0000
# 3 22.5623 37.0407 128.2762 0.0000 0.0000 0.0000
# 4 0.0000 0.0000 0.0000 26.3594 0.0000 0.0000
# 5 0.0000 0.0000 0.0000 0.0000 11.1393 0.0000
# 6 0.0000 0.0000 0.0000 0.0000 0.0000 7.6407
#
#
#
# Elastic Compliance Matrix: (Units=1/GPa)
#
#
# Indices 1 2 3 4 5 6 
#
# 1 0.012947 0.000833 -0.002518 0.000000 0.000000 0.000000
# 2 0.000833 0.037477 -0.010968 0.000000 0.000000 0.000000
# 3 -0.002518 -0.010968 0.011406 0.000000 0.000000 0.000000
# 4 0.000000 0.000000 0.000000 0.037937 0.000000 0.000000
# 5 0.000000 0.000000 0.000000 0.000000 0.089772 0.000000
# 6 0.000000 0.000000 0.000000 0.000000 0.000000 0.130878
#
#
# Mechanical properties :
#
#
# Convention : Reuss Voigt Hill
#
# Bulk Modulus (GPa) = 27.37906 41.75618 34.56762
# Shear Modulus (GPa) = 13.97045 21.20198 17.58621
#
# Velocity S-wave (km/s) = 2.73300 3.36684 3.06634
# Velocity P-wave (km/s) = 4.95956 6.11875 5.56940
#
# Compressibility (1/GPa) = 0.03652427
#
# Stress axis : x y z
#
# Youngs Moduli (GPa) = 77.23731 26.68292 87.67503
#
# Poissons Ratio (x) = -0.02224 0.22076
# Poissons Ratio (y) = -0.06437 0.96165
# Poissons Ratio (z) = 0.19448 0.29267
#
# Static dielectric constant tensor:
#      x y z
#    x 1.659820 0.000000 0.000000 
#    y 0.000000 1.751330 0.000000 
#    z 0.000000 0.000000 1.673810 
# 
# From -- ./inp_files/23095.got.cif
#   From: 2010.05.17/outbox.cif.g08.bks.cpg/sg21_12_cif.got.tgz:23095.got - 2010.06.03 23:14:55.
