data_PCOD9322681
_publ_section_title
;
Structure prediction by ZEFSAII (Michael W. Deem and Ramdas Pophale) SiO2 
 PCOD9322681
Probable space group: C 2 2 2
;
_chemical_formula_sum "Si O2"
_cell_formula_units_Z 44
_cell_length_a 6.945259
_cell_length_b 14.635878
_cell_length_c 15.602435
_cell_angle_alpha 90.000000
_cell_angle_beta 90.000000
_cell_angle_gamma 90.000000
_cell_volume 1585.986947
_symmetry_space_group_name_H-M "C 2 2 2"
_symmetry_group_IT_number 21
_symmetry_cell_setting 'orthorhombic'
loop_
_space_group_symop_operation_xyz
x,y,z
-x,-y,z
x,-y,-z
-x,y,-z
1/2+x,1/2+y,z
1/2-x,1/2-y,z
1/2+x,1/2-y,-z
1/2-x,1/2+y,-z
loop_
_atom_site_type_symbol
_atom_site_label
_atom_site_fract_x
_atom_site_fract_y
_atom_site_fract_z
Si Si1 0.169905 0.111813 0.872927
Si Si2 0.170971 0.873092 0.312355
Si Si3 0.250000 0.250000 0.022932
Si Si4 0.248246 0.586290 0.673075
Si Si5 0.224795 0.852999 0.499515
Si Si6 0.793513 0.588996 0.141292
O O1 0.231709 0.154264 0.782282
O O2 0.941357 0.095622 0.858736
O O3 0.298208 0.019048 0.886311
O O4 0.173412 0.175910 0.954732
O O5 0.279361 0.847942 0.399503
O O6 0.943373 0.852934 0.324205
O O7 0.193600 0.982012 0.312013
O O8 0.140140 0.323294 0.085285
O O9 0.175738 0.590396 0.575307
O O10 0.136660 0.605090 0.760942
O O11 0.250000 0.750000 0.530044
O O12 0.000000 0.883499 0.500000
#
# Coordination Sequence:
#
# PCOD9322681 Si02
#       6
#     8   8   4   8   8   8
#     4   9  19  35  52  73 101 132 171 217 260 307
#     4   8  15  30  51  72  95 127 168 210 249 296
#     4  12  20  26  52  76  96 126 172 214 264 312
#     4   8  15  30  51  72  95 127 168 210 249 296
#     4  10  19  29  49  79 109 134 164 208 258 310
#     4   9  19  35  52  73 101 132 171 217 260 307
#
# _framework density 27.742977
#
# number of rings (size 3 to 8) (size 9 to 14) (size 15 to 20)
#    0.000    2.909    0.000    3.818    2.545    3.636 
#    0.000    0.000    0.000   10.909    0.000   10.182 
#    0.000    0.000    0.000    0.000    0.000    0.000 
#
# Total GULP energy -122652.996458 kJ/mol
# GULP energy per Si atom -5575.136203 kJ/mol
# Density = 2.767983 g / cm^3
# Si number density = 27.742977 Si / 1000 Ang^3
#
#
#
# Elastic Constant Matrix: (Units=GPa)
#
#
# Indices 1 2 3 4 5 6 
#
# 1 105.0780 5.7306 1.0905 0.0000 0.0000 0.0000
# 2 5.7306 146.5099 91.2907 0.0000 0.0000 0.0000
# 3 1.0905 91.2907 285.2145 0.0000 0.0000 0.0000
# 4 0.0000 0.0000 0.0000 78.9110 0.0000 0.0000
# 5 0.0000 0.0000 0.0000 0.0000 8.2253 0.0000
# 6 0.0000 0.0000 0.0000 0.0000 0.0000 18.0528
#
#
#
# Elastic Compliance Matrix: (Units=1/GPa)
#
#
# Indices 1 2 3 4 5 6 
#
# 1 0.009540 -0.000438 0.000104 0.000000 0.000000 0.000000
# 2 -0.000438 0.008546 -0.002734 0.000000 0.000000 0.000000
# 3 0.000104 -0.002734 0.004381 0.000000 0.000000 0.000000
# 4 0.000000 0.000000 0.000000 0.012672 0.000000 0.000000
# 5 0.000000 0.000000 0.000000 0.000000 0.121576 0.000000
# 6 0.000000 0.000000 0.000000 0.000000 0.000000 0.055393
#
#
# Mechanical properties :
#
#
# Convention : Reuss Voigt Hill
#
# Bulk Modulus (GPa) = 61.23437 81.44733 71.34085
# Shear Modulus (GPa) = 22.35266 50.28387 36.31826
#
# Velocity S-wave (km/s) = 2.84157 4.26195 3.62207
# Velocity P-wave (km/s) = 5.73463 7.32397 6.57748
#
# Compressibility (1/GPa) = 0.01633070
#
# Stress axis : x y z
#
# Youngs Moduli (GPa) = 104.82687 117.01417 228.27237
#
# Poissons Ratio (x) = 0.05122 -0.02365
# Poissons Ratio (y) = 0.04588 0.62403
# Poissons Ratio (z) = -0.01086 0.31988
#
# Static dielectric constant tensor:
#      x y z
#    x 2.416510 0.000000 0.000000 
#    y 0.000000 2.129180 0.000000 
#    z 0.000000 0.000000 2.167360 
# 
# From -- ./inp_files/31466.got.cif
#   From: 2010.05.17/outbox.cif.g08.bks.cpg/sg21_16_cif.got.tgz:31466.got - 2010.06.03 23:14:55.
