data_PCOD9322549
_publ_section_title
;
Structure prediction by ZEFSAII (Michael W. Deem and Ramdas Pophale) SiO2 
 PCOD9322549
Probable space group: C 2 2 2
;
_chemical_formula_sum "Si O2"
_cell_formula_units_Z 64
_cell_length_a 15.669108
_cell_length_b 17.246325
_cell_length_c 12.746047
_cell_angle_alpha 90.000000
_cell_angle_beta 90.000000
_cell_angle_gamma 90.000000
_cell_volume 3444.422008
_symmetry_space_group_name_H-M "C 2 2 2"
_symmetry_group_IT_number 21
_symmetry_cell_setting 'orthorhombic'
loop_
_space_group_symop_operation_xyz
x,y,z
-x,-y,z
x,-y,-z
-x,y,-z
1/2+x,1/2+y,z
1/2-x,1/2-y,z
1/2+x,1/2-y,-z
1/2-x,1/2+y,-z
loop_
_atom_site_type_symbol
_atom_site_label
_atom_site_fract_x
_atom_site_fract_y
_atom_site_fract_z
Si Si1 0.160404 0.707582 0.623264
Si Si2 0.161894 0.583503 0.204230
Si Si3 0.989193 0.629008 0.121955
Si Si4 0.229053 0.910687 0.018412
Si Si5 0.038458 0.087139 0.892075
Si Si6 0.803642 0.589205 0.190934
Si Si7 0.158908 0.706924 0.386330
Si Si8 0.501753 0.278828 0.267842
O O1 0.250000 0.750000 0.613839
O O2 0.181782 0.639514 0.705252
O O3 0.136828 0.682432 0.505291
O O4 0.085906 0.763448 0.668479
O O5 0.063195 0.576211 0.171755
O O6 0.206540 0.624770 0.103575
O O7 0.208061 0.500981 0.219075
O O8 0.166188 0.634829 0.307586
O O9 0.999316 0.710846 0.180902
O O10 0.895281 0.595992 0.136223
O O11 0.000000 0.639453 0.000000
O O12 0.138383 0.913899 0.077060
O O13 0.236463 0.880254 0.898113
O O14 0.256704 0.000000 0.000000
O O15 0.014496 0.140531 0.793517
O O16 0.000000 0.000000 0.879372
O O17 0.000000 0.120477 0.000000
O O18 0.250000 0.750000 0.384229
O O19 0.083094 0.761128 0.341608
#
# Coordination Sequence:
#
# PCOD9322549 Si02
#       8
#     8   8   8   8   8   8   8   8
#     4  10  23  40  59  81 112 154 195 246 291 338
#     4  10  20  32  59  85 115 151 188 230 281 346
#     4  10  18  34  51  85 118 151 180 214 271 345
#     4  10  19  34  52  83 118 150 181 228 288 338
#     4  11  22  37  57  82 117 153 191 235 287 344
#     4  10  21  34  56  85 119 151 188 227 283 345
#     4  10  21  41  60  82 112 148 198 245 294 335
#     4  10  22  37  60  83 113 154 190 238 287 343
#
# _framework density 18.580766000000001
#
# number of rings (size 3 to 8) (size 9 to 14) (size 15 to 20)
#    0.000    1.875    2.500    1.875    1.750    1.000 
#    0.000    0.625    0.000    7.500    0.000    0.000 
#    0.000    0.000    0.000    0.000    0.000    0.000 
#
# Total GULP energy -178289.198071 kJ/mol
# GULP energy per Si atom -5571.537440 kJ/mol
# Density = 1.853848 g / cm^3
# Si number density = 18.580766 Si / 1000 Ang^3
#
#
#
# Elastic Constant Matrix: (Units=GPa)
#
#
# Indices 1 2 3 4 5 6 
#
# 1 86.9172 35.6315 50.5072 0.0000 0.0000 0.0000
# 2 35.6315 46.7887 46.4099 0.0000 0.0000 0.0000
# 3 50.5072 46.4099 163.9675 0.0000 0.0000 0.0000
# 4 0.0000 0.0000 0.0000 20.1392 0.0000 0.0000
# 5 0.0000 0.0000 0.0000 0.0000 30.9143 0.0000
# 6 0.0000 0.0000 0.0000 0.0000 0.0000 6.2173
#
#
#
# Elastic Compliance Matrix: (Units=1/GPa)
#
#
# Indices 1 2 3 4 5 6 
#
# 1 0.017291 -0.010963 -0.002223 0.000000 0.000000 0.000000
# 2 -0.010963 0.036666 -0.007001 0.000000 0.000000 0.000000
# 3 -0.002223 -0.007001 0.008765 0.000000 0.000000 0.000000
# 4 0.000000 0.000000 0.000000 0.049654 0.000000 0.000000
# 5 0.000000 0.000000 0.000000 0.000000 0.032347 0.000000
# 6 0.000000 0.000000 0.000000 0.000000 0.000000 0.160842
#
#
# Mechanical properties :
#
#
# Convention : Reuss Voigt Hill
#
# Bulk Modulus (GPa) = 44.74691 62.53007 53.63849
# Shear Modulus (GPa) = 14.14869 22.46249 18.30559
#
# Velocity S-wave (km/s) = 2.76247 3.48071 3.14218
# Velocity P-wave (km/s) = 5.85744 7.06258 6.48805
#
# Compressibility (1/GPa) = 0.02234791
#
# Stress axis : x y z
#
# Youngs Moduli (GPa) = 57.83250 27.27343 114.08681
#
# Poissons Ratio (x) = 0.29899 0.25365
# Poissons Ratio (y) = 0.63400 0.79874
# Poissons Ratio (z) = 0.12858 0.19094
#
# Static dielectric constant tensor:
#      x y z
#    x 1.681100 0.000000 0.000000 
#    y 0.000000 1.646680 0.000000 
#    z 0.000000 0.000000 1.677000 
# 
# From -- ./inp_files/25501.got.cif
#   From: 2010.05.17/outbox.cif.g08.bks.cpg/sg21_13_cif.got.tgz:25501.got - 2010.06.03 23:14:55.
