data_PCOD9322802
_publ_section_title
;
Structure prediction by ZEFSAII (Michael W. Deem and Ramdas Pophale) SiO2 
 PCOD9322802
Probable space group: C 2 2 2
;
_chemical_formula_sum "Si O2"
_cell_formula_units_Z 36
_cell_length_a 7.269645
_cell_length_b 15.755391
_cell_length_c 14.525958
_cell_angle_alpha 90.000000
_cell_angle_beta 90.000000
_cell_angle_gamma 90.000000
_cell_volume 1663.746569
_symmetry_space_group_name_H-M "C 2 2 2"
_symmetry_group_IT_number 21
_symmetry_cell_setting 'orthorhombic'
loop_
_space_group_symop_operation_xyz
x,y,z
-x,-y,z
x,-y,-z
-x,y,-z
1/2+x,1/2+y,z
1/2-x,1/2-y,z
1/2+x,1/2-y,-z
1/2-x,1/2+y,-z
loop_
_atom_site_type_symbol
_atom_site_label
_atom_site_fract_x
_atom_site_fract_y
_atom_site_fract_z
Si Si1 0.750000 0.750000 0.359650
Si Si2 0.500000 0.656451 0.500000
Si Si3 0.588899 0.319094 0.902956
Si Si4 0.797414 0.910490 0.661160
Si Si5 0.711648 0.584169 0.259200
Si Si6 0.750000 0.250000 0.221961
O O1 0.589378 0.717217 0.424855
O O2 0.802004 0.669570 0.298023
O O3 0.659701 0.602629 0.552363
O O4 0.750000 0.250000 0.916323
O O5 0.679522 0.398802 0.848627
O O6 0.424304 0.277776 0.840949
O O7 0.500000 0.342945 0.000000
O O8 0.711188 0.829365 0.710791
O O9 0.005127 0.913468 0.700505
O O10 0.710173 0.997599 0.698656
#
# Coordination Sequence:
#
# PCOD9322802 Si02
#       6
#     4   4   8   8   8   4
#     4  10  19  33  58  86 122 160 208 249 309 360
#     4  10  20  35  60  89 120 164 218 251 298 375
#     4  11  21  39  68  95 126 162 213 260 323 389
#     4   9  19  36  60  89 122 168 211 255 310 372
#     4   9  19  36  59  87 120 167 200 258 316 370
#     4  10  21  39  64  94 128 172 212 257 325 378
#
# _framework density 21.637912
#
# number of rings (size 3 to 8) (size 9 to 14) (size 15 to 20)
#    0.000    2.222    2.222    0.667    0.000    7.111 
#    0.000   10.000    0.000    9.333    0.000    0.000 
#    0.000    0.000    0.000    0.000    0.000    0.000 
#
# Total GULP energy -100337.147844 kJ/mol
# GULP energy per Si atom -5574.285991 kJ/mol
# Density = 2.158866 g / cm^3
# Si number density = 21.637912 Si / 1000 Ang^3
#
#
#
# Elastic Constant Matrix: (Units=GPa)
#
#
# Indices 1 2 3 4 5 6 
#
# 1 80.9895 23.4156 24.0418 0.0000 0.0000 0.0000
# 2 23.4156 188.7028 82.1187 0.0000 0.0000 0.0000
# 3 24.0418 82.1187 150.3158 0.0000 0.0000 0.0000
# 4 0.0000 0.0000 0.0000 7.8948 0.0000 0.0000
# 5 0.0000 0.0000 0.0000 0.0000 28.4745 0.0000
# 6 0.0000 0.0000 0.0000 0.0000 0.0000 17.4265
#
#
#
# Elastic Compliance Matrix: (Units=1/GPa)
#
#
# Indices 1 2 3 4 5 6 
#
# 1 0.013087 -0.000935 -0.001582 0.000000 0.000000 0.000000
# 2 -0.000935 0.007019 -0.003685 0.000000 0.000000 0.000000
# 3 -0.001582 -0.003685 0.008919 0.000000 0.000000 0.000000
# 4 0.000000 0.000000 0.000000 0.126665 0.000000 0.000000
# 5 0.000000 0.000000 0.000000 0.000000 0.035119 0.000000
# 6 0.000000 0.000000 0.000000 0.000000 0.000000 0.057384
#
#
# Mechanical properties :
#
#
# Convention : Reuss Voigt Hill
#
# Bulk Modulus (GPa) = 60.16801 75.46225 67.81513
# Shear Modulus (GPa) = 18.78721 30.12130 24.45426
#
# Velocity S-wave (km/s) = 2.94981 3.73508 3.36543
# Velocity P-wave (km/s) = 6.28243 7.31791 6.81985
#
# Compressibility (1/GPa) = 0.01662013
#
# Stress axis : x y z
#
# Youngs Moduli (GPa) = 76.40929 142.47049 112.12256
#
# Poissons Ratio (x) = 0.13328 0.17740
# Poissons Ratio (y) = 0.07148 0.41316
# Poissons Ratio (z) = 0.12089 0.52499
#
# Static dielectric constant tensor:
#      x y z
#    x 1.891440 0.000000 0.000000 
#    y 0.000000 1.876120 0.000000 
#    z 0.000000 0.000000 1.851660 
# 
# From -- ./inp_files/30108.got.cif
#   From: 2010.05.17/outbox.cif.g08.bks.cpg/sg21_16_cif.got.tgz:30108.got - 2010.06.03 23:14:55.
