data_PCOD9322654
_publ_section_title
;
Structure prediction by ZEFSAII (Michael W. Deem and Ramdas Pophale) SiO2 
 PCOD9322654
Probable space group: C 2 2 2
;
_chemical_formula_sum "Si O2"
_cell_formula_units_Z 38
_cell_length_a 6.195753
_cell_length_b 28.048175
_cell_length_c 11.217785
_cell_angle_alpha 90.000000
_cell_angle_beta 90.000000
_cell_angle_gamma 90.000000
_cell_volume 1949.421791
_symmetry_space_group_name_H-M "C 2 2 2"
_symmetry_group_IT_number 21
_symmetry_cell_setting 'orthorhombic'
loop_
_space_group_symop_operation_xyz
x,y,z
-x,-y,z
x,-y,-z
-x,y,-z
1/2+x,1/2+y,z
1/2-x,1/2-y,z
1/2+x,1/2-y,-z
1/2-x,1/2+y,-z
loop_
_atom_site_type_symbol
_atom_site_label
_atom_site_fract_x
_atom_site_fract_y
_atom_site_fract_z
Si Si1 0.080149 0.887193 0.127189
Si Si2 0.179368 0.417324 0.654551
Si Si3 0.387907 0.795124 0.125716
Si Si4 0.500000 0.000000 0.500000
Si Si5 0.207380 0.654059 0.705539
Si Si6 0.000000 0.148042 0.500000
O O1 0.217284 0.921586 0.213797
O O2 0.234440 0.841146 0.108076
O O3 0.873519 0.868858 0.200629
O O4 0.000000 0.905920 0.000000
O O5 0.345424 0.385002 0.580032
O O6 0.139546 0.465950 0.585127
O O7 0.956085 0.387614 0.662737
O O8 0.250000 0.750000 0.163927
O O9 0.563432 0.808096 0.224743
O O10 0.500000 0.784206 0.000000
O O11 0.344639 0.673877 0.594289
#
# Coordination Sequence:
#
# PCOD9322654 Si02
#       6
#     8   8   8   2   8   4
#     4  10  20  38  60  91 124 170 203 248 319 393
#     4  10  22  35  63  94 119 157 206 267 313 373
#     4  11  22  34  58  97 128 158 211 268 312 372
#     4  12  20  42  60  98 124 156 226 280 308 372
#     4  10  20  37  58  93 121 164 205 254 318 379
#     4  10  18  39  60  92 115 164 209 250 310 389
#
# _framework density 19.49296
#
# number of rings (size 3 to 8) (size 9 to 14) (size 15 to 20)
#    0.000    1.684    4.211    0.632    0.000    0.421 
#    0.000    0.000    0.000    3.789  197.053    0.000 
#    0.000    0.000    0.000    0.000    0.000    0.000 
#
# Total GULP energy -106104.409472 kJ/mol
# GULP energy per Si atom -5584.442604 kJ/mol
# Density = 1.944859 g / cm^3
# Si number density = 19.492960 Si / 1000 Ang^3
#
#
#
# Elastic Constant Matrix: (Units=GPa)
#
#
# Indices 1 2 3 4 5 6 
#
# 1 114.4677 26.0074 61.4318 0.0000 0.0000 0.0000
# 2 26.0074 57.2319 38.7679 0.0000 0.0000 0.0000
# 3 61.4318 38.7679 152.9985 0.0000 0.0000 0.0000
# 4 0.0000 0.0000 0.0000 0.7496 0.0000 0.0000
# 5 0.0000 0.0000 0.0000 0.0000 48.4932 0.0000
# 6 0.0000 0.0000 0.0000 0.0000 0.0000 7.1796
#
#
#
# Elastic Compliance Matrix: (Units=1/GPa)
#
#
# Indices 1 2 3 4 5 6 
#
# 1 0.011428 -0.002517 -0.003951 0.000000 0.000000 0.000000
# 2 -0.002517 0.021648 -0.004475 0.000000 0.000000 0.000000
# 3 -0.003951 -0.004475 0.009256 0.000000 0.000000 0.000000
# 4 0.000000 0.000000 0.000000 1.334001 0.000000 0.000000
# 5 0.000000 0.000000 0.000000 0.000000 0.020621 0.000000
# 6 0.000000 0.000000 0.000000 0.000000 0.000000 0.139283
#
#
# Mechanical properties :
#
#
# Convention : Reuss Voigt Hill
#
# Bulk Modulus (GPa) = 48.90678 64.12357 56.51517
# Shear Modulus (GPa) = 3.19502 24.51723 13.85612
#
# Velocity S-wave (km/s) = 1.28165 3.55032 2.66903
# Velocity P-wave (km/s) = 5.22820 7.05504 6.20917
#
# Compressibility (1/GPa) = 0.02044706
#
# Stress axis : x y z
#
# Youngs Moduli (GPa) = 87.50200 46.19457 108.03583
#
# Poissons Ratio (x) = 0.11627 0.42684
# Poissons Ratio (y) = 0.22024 0.48342
# Poissons Ratio (z) = 0.34571 0.20670
#
# Static dielectric constant tensor:
#      x y z
#    x 1.698390 0.000000 0.000000 
#    y 0.000000 1.641780 0.000000 
#    z 0.000000 0.000000 1.718470 
# 
# From -- ./inp_files/21207.got.cif
#   From: 2010.05.17/outbox.cif.g08.bks.cpg/sg21_11_cif.got.tgz:21207.got - 2010.06.03 23:14:55.
