data_PCOD9322198
_publ_section_title
;
Structure prediction by ZEFSAII (Michael W. Deem and Ramdas Pophale) SiO2 
 PCOD9322198
Probable space group: C 2 2 21
;
_chemical_formula_sum "Si O2"
_cell_formula_units_Z 30
_cell_length_a 18.000000
_cell_length_b 9.000000
_cell_length_c 18.000000
_cell_angle_alpha 90.000000
_cell_angle_beta 90.000000
_cell_angle_gamma 90.000000
_cell_volume 2916.000000
_symmetry_space_group_name_H-M "C 2 2 21"
_symmetry_group_IT_number 20
_symmetry_cell_setting 'orthorhombic'
loop_
_space_group_symop_operation_xyz
x,y,z
-x,-y,1/2+z
x,-y,-z
-x,y,1/2-z
1/2+x,1/2+y,z
1/2-x,1/2-y,1/2+z
1/2+x,1/2-y,-z
1/2-x,1/2+y,1/2-z
loop_
_atom_site_type_symbol
_atom_site_label
_atom_site_fract_x
_atom_site_fract_y
_atom_site_fract_z
Si Si1 0.847210 0.715614 0.178103
Si Si2 0.362912 0.315295 0.008848
Si Si3 0.950405 0.500000 0.000000
Si Si4 0.673821 0.696852 0.167868
Si Si5 0.307988 0.176766 0.501983
Si Si6 0.586940 0.952112 0.242936
Si Si7 0.070016 0.070587 0.793298
Si Si8 0.564750 0.835897 0.892393
O O1 0.858689 0.785333 0.097018
O O2 0.760111 0.680678 0.189177
O O3 0.888824 0.558590 0.189683
O O4 0.879297 0.832653 0.237256
O O5 0.406585 0.159958 0.981093
O O6 0.382548 0.500000 0.000000
O O7 0.277927 0.296631 0.980412
O O8 0.006078 0.564672 0.062894
O O9 0.636165 0.809465 0.226364
O O10 0.623571 0.549778 0.169958
O O11 0.675405 0.761700 0.084071
O O12 0.370453 0.228688 0.444702
O O13 0.317249 0.000000 0.500000
O O14 0.500000 0.916124 0.250000
O O15 0.597315 0.056814 0.170678
O O16 0.034216 0.191436 0.849594
O O17 0.000000 0.000992 0.750000
#
# Coordination Sequence:
#
# PCOD9322198 Si02
#       8
#     8   8   4   8   8   8   8   8
#     4  10  22  43  65  90 135 175 220 277 345 404
#     4  10  24  44  68  99 139 178 222 291 344 399
#     4  12  22  44  66 100 132 176 230 272 346 406
#     4  11  22  39  66  99 126 168 233 279 333 407
#     4  10  20  42  66  95 132 174 227 282 335 411
#     4  11  21  39  65  89 124 176 220 271 334 407
#     4  11  24  43  63  95 138 175 220 283 343 398
#     4  11  22  42  67  89 130 181 216 269 343 406
#
# _framework density 10.288066000000001
#
# number of rings (size 3 to 8) (size 9 to 14) (size 15 to 20)
#    0.000    1.333    2.000    4.400    0.000    2.667 
#   14.400    0.000    0.000    0.000    0.000    0.000 
#    0.000    0.000    0.000    0.000    0.000    0.000 
#
# Total GULP energy -167260.885431 kJ/mol
# GULP energy per Si atom -5575.362848 kJ/mol
# Density = 1.026465 g / cm^3
# Si number density = 10.288066 Si / 1000 Ang^3
#
#
#
# Elastic Constant Matrix: (Units=GPa)
#
#
# Indices 1 2 3 4 5 6 
#
# 1 121.9185 43.3740 36.1379 0.0000 0.0000 0.0000
# 2 43.3740 128.6006 28.6744 0.0000 0.0000 0.0000
# 3 36.1379 28.6744 64.6964 0.0000 0.0000 0.0000
# 4 0.0000 0.0000 0.0000 34.1694 0.0000 0.0000
# 5 0.0000 0.0000 0.0000 0.0000 27.7000 0.0000
# 6 0.0000 0.0000 0.0000 0.0000 0.0000 40.6348
#
#
#
# Elastic Compliance Matrix: (Units=1/GPa)
#
#
# Indices 1 2 3 4 5 6 
#
# 1 0.010496 -0.002478 -0.004765 0.000000 0.000000 0.000000
# 2 -0.002478 0.009214 -0.002700 0.000000 0.000000 0.000000
# 3 -0.004765 -0.002700 0.019315 0.000000 0.000000 0.000000
# 4 0.000000 0.000000 0.000000 0.029266 0.000000 0.000000
# 5 0.000000 0.000000 0.000000 0.000000 0.036101 0.000000
# 6 0.000000 0.000000 0.000000 0.000000 0.000000 0.024609
#
#
# Mechanical properties :
#
#
# Convention : Reuss Voigt Hill
#
# Bulk Modulus (GPa) = 52.24549 59.06533 55.65541
# Shear Modulus (GPa) = 32.20303 34.30279 33.25291
#
# Velocity S-wave (km/s) = 3.96038 4.08746 4.02443
# Velocity P-wave (km/s) = 6.80877 7.14455 6.97868
#
# Compressibility (1/GPa) = 0.01914041
#
# Stress axis : x y z
#
# Youngs Moduli (GPa) = 95.27486 108.53501 51.77383
#
# Poissons Ratio (x) = 0.26891 0.24668
# Poissons Ratio (y) = 0.23606 0.13977
# Poissons Ratio (z) = 0.45395 0.29301
#
# Static dielectric constant tensor:
#      x y z
#    x 1.769850 0.000000 0.000000 
#    y 0.000000 1.738960 0.000000 
#    z 0.000000 0.000000 1.768880 
# 
# From -- ./inp_files/25270.got.cif
#   From: 2010.05.17/outbox.ucp.g08.bks.cvg/sg20_13_cif.got.tgz:25270.got - 2010.06.11 15:13:06.
