data_PCOD9322462
_publ_section_title
;
Structure prediction by ZEFSAII (Michael W. Deem and Ramdas Pophale) SiO2 
 PCOD9322462
Probable space group: C 2 2 2
;
_chemical_formula_sum "Si O2"
_cell_formula_units_Z 64
_cell_length_a 17.831545
_cell_length_b 14.678262
_cell_length_c 12.466514
_cell_angle_alpha 90.000000
_cell_angle_beta 90.000000
_cell_angle_gamma 90.000000
_cell_volume 3262.936622
_symmetry_space_group_name_H-M "C 2 2 2"
_symmetry_group_IT_number 21
_symmetry_cell_setting 'orthorhombic'
loop_
_space_group_symop_operation_xyz
x,y,z
-x,-y,z
x,-y,-z
-x,y,-z
1/2+x,1/2+y,z
1/2-x,1/2-y,z
1/2+x,1/2-y,-z
1/2-x,1/2+y,-z
loop_
_atom_site_type_symbol
_atom_site_label
_atom_site_fract_x
_atom_site_fract_y
_atom_site_fract_z
Si Si1 0.082959 0.348956 0.228347
Si Si2 0.843184 0.453636 0.596249
Si Si3 0.832898 0.283922 0.441028
Si Si4 0.408569 0.893262 0.004032
Si Si5 0.098410 0.825310 0.624682
Si Si6 0.958395 0.906689 0.732460
Si Si7 0.678804 0.500566 0.375545
Si Si8 0.583071 0.205497 0.215943
O O1 0.113841 0.432607 0.296617
O O2 0.101774 0.258654 0.294352
O O3 0.993435 0.351077 0.228570
O O4 0.114464 0.348987 0.108796
O O5 0.889410 0.500000 0.500000
O O6 0.821734 0.361386 0.532304
O O7 0.768181 0.510435 0.624463
O O8 0.750000 0.250000 0.416183
O O9 0.883259 0.210696 0.506122
O O10 0.872304 0.304628 0.327703
O O11 0.381462 0.837926 0.108566
O O12 0.500000 0.889504 0.000000
O O13 0.387610 0.000000 0.000000
O O14 0.160849 0.897232 0.660583
O O15 0.018207 0.874053 0.641922
O O16 0.941903 0.812598 0.797870
O O17 0.876918 0.935988 0.688750
O O18 0.000000 0.000000 0.777146
O O19 0.655313 0.500000 0.500000
#
# Coordination Sequence:
#
# PCOD9322462 Si02
#       8
#     8   8   8   8   8   8   8   8
#     4   9  20  37  58  82 112 148 197 248 298 363
#     4  10  22  34  53  85 118 161 196 236 309 363
#     4  11  21  35  54  81 127 164 198 248 307 375
#     4   9  19  38  62  81 104 146 204 254 299 357
#     4   9  18  33  53  83 118 156 193 232 301 358
#     4   9  19  32  55  89 124 155 200 255 301 375
#     4  10  18  30  50  82 117 160 194 227 285 365
#     4  10  21  36  60  86 114 155 202 256 313 357
#
# _framework density 19.614234
#
# number of rings (size 3 to 8) (size 9 to 14) (size 15 to 20)
#    0.000    2.375    1.250    0.750    3.500    9.750 
#    0.000    0.625    2.750   17.625    0.000    0.000 
#    0.000    0.000    0.000    0.000    0.000    0.000 
#
# Total GULP energy -178184.034954 kJ/mol
# GULP energy per Si atom -5568.251092 kJ/mol
# Density = 1.956959 g / cm^3
# Si number density = 19.614234 Si / 1000 Ang^3
#
#
#
# Elastic Constant Matrix: (Units=GPa)
#
#
# Indices 1 2 3 4 5 6 
#
# 1 45.1046 32.2370 40.6689 0.0000 0.0000 0.0000
# 2 32.2370 58.2155 41.6071 0.0000 0.0000 0.0000
# 3 40.6689 41.6071 139.3131 0.0000 0.0000 0.0000
# 4 0.0000 0.0000 0.0000 18.5461 0.0000 0.0000
# 5 0.0000 0.0000 0.0000 0.0000 6.6783 0.0000
# 6 0.0000 0.0000 0.0000 0.0000 0.0000 21.7969
#
#
#
# Elastic Compliance Matrix: (Units=1/GPa)
#
#
# Indices 1 2 3 4 5 6 
#
# 1 0.040955 -0.017970 -0.006589 0.000000 0.000000 0.000000
# 2 -0.017970 0.029724 -0.003631 0.000000 0.000000 0.000000
# 3 -0.006589 -0.003631 0.010186 0.000000 0.000000 0.000000
# 4 0.000000 0.000000 0.000000 0.053920 0.000000 0.000000
# 5 0.000000 0.000000 0.000000 0.000000 0.149738 0.000000
# 6 0.000000 0.000000 0.000000 0.000000 0.000000 0.045878
#
#
# Mechanical properties :
#
#
# Convention : Reuss Voigt Hill
#
# Bulk Modulus (GPa) = 40.84208 52.40660 46.62434
# Shear Modulus (GPa) = 12.66008 17.94562 15.30285
#
# Velocity S-wave (km/s) = 2.54333 3.02806 2.79622
# Velocity P-wave (km/s) = 5.43071 6.24517 5.85213
#
# Compressibility (1/GPa) = 0.02448455
#
# Stress axis : x y z
#
# Youngs Moduli (GPa) = 24.41706 33.64309 98.17289
#
# Poissons Ratio (x) = 0.60456 0.64685
# Poissons Ratio (y) = 0.43877 0.35651
# Poissons Ratio (z) = 0.16088 0.12217
#
# Static dielectric constant tensor:
#      x y z
#    x 1.708930 0.000000 0.000000 
#    y 0.000000 1.821490 0.000000 
#    z 0.000000 0.000000 1.686940 
# 
# From -- ./inp_files/26233.got.cif
#   From: 2010.05.17/outbox.cif.g08.bks.cpg/sg21_14_cif.got.tgz:26233.got - 2010.06.03 23:14:55.
