data_PCOD9322882
_publ_section_title
;
Structure prediction by ZEFSAII (Michael W. Deem and Ramdas Pophale) SiO2 
 PCOD9322882
Probable space group: C 2 2 2
;
_chemical_formula_sum "Si O2"
_cell_formula_units_Z 56
_cell_length_a 11.980331
_cell_length_b 14.696118
_cell_length_c 14.002464
_cell_angle_alpha 90.000000
_cell_angle_beta 90.000000
_cell_angle_gamma 90.000000
_cell_volume 2465.334835
_symmetry_space_group_name_H-M "C 2 2 2"
_symmetry_group_IT_number 21
_symmetry_cell_setting 'orthorhombic'
loop_
_space_group_symop_operation_xyz
x,y,z
-x,-y,z
x,-y,-z
-x,y,-z
1/2+x,1/2+y,z
1/2-x,1/2-y,z
1/2+x,1/2-y,-z
1/2-x,1/2+y,-z
loop_
_atom_site_type_symbol
_atom_site_label
_atom_site_fract_x
_atom_site_fract_y
_atom_site_fract_z
Si Si1 0.793321 0.146334 0.581527
Si Si2 0.331997 0.338433 0.205119
Si Si3 0.547691 0.899587 0.402431
Si Si4 0.397562 0.868358 0.239219
Si Si5 0.414928 0.332919 0.816099
Si Si6 0.262941 0.980319 0.110759
Si Si7 0.198942 0.147845 0.627000
O O1 0.750000 0.250000 0.575565
O O2 0.853308 0.142062 0.682266
O O3 0.678489 0.092464 0.589765
O O4 0.840596 0.121074 0.478023
O O5 0.250000 0.250000 0.196105
O O6 0.454742 0.331518 0.157649
O O7 0.273024 0.426824 0.161980
O O8 0.500000 0.853308 0.500000
O O9 0.508592 0.855867 0.302657
O O10 0.500000 0.000000 0.399850
O O11 0.375483 0.772258 0.187340
O O12 0.376358 0.943441 0.159614
O O13 0.305838 0.895833 0.320251
O O14 0.333851 0.402658 0.872130
O O15 0.396795 0.360119 0.704996
O O16 0.275962 0.000000 0.000000
O O17 0.250000 0.250000 0.620060
#
# Coordination Sequence:
#
# PCOD9322882 Si02
#       7
#     8   8   8   8   8   8   8
#     4  10  19  35  56  89 132 176 217 262 322 406
#     4  11  24  41  62  96 134 174 220 287 353 410
#     4  11  21  33  58  96 139 184 224 270 336 415
#     4  10  19  39  65  98 133 170 225 286 335 405
#     4  10  22  41  67  95 132 176 225 284 348 416
#     4  11  25  46  71  94 124 174 232 292 358 416
#     4   8  16  31  55  88 125 168 215 258 315 397
#
# _framework density 22.714967000000001
#
# number of rings (size 3 to 8) (size 9 to 14) (size 15 to 20)
#    0.000    1.857    1.429    4.286    0.000    2.857 
#    0.000    0.000    0.000   13.286    0.000    0.000 
#    0.000    0.000    0.000    0.000    0.000    0.000 
#
# Total GULP energy -156174.384658 kJ/mol
# GULP energy per Si atom -5577.656595 kJ/mol
# Density = 2.266327 g / cm^3
# Si number density = 22.714967 Si / 1000 Ang^3
#
#
#
# Elastic Constant Matrix: (Units=GPa)
#
#
# Indices 1 2 3 4 5 6 
#
# 1 63.6932 14.0806 4.7298 0.0000 0.0000 0.0000
# 2 14.0806 101.5245 40.5540 0.0000 0.0000 0.0000
# 3 4.7298 40.5540 141.9920 0.0000 0.0000 0.0000
# 4 0.0000 0.0000 0.0000 3.6501 0.0000 0.0000
# 5 0.0000 0.0000 0.0000 0.0000 5.7163 0.0000
# 6 0.0000 0.0000 0.0000 0.0000 0.0000 21.5427
#
#
#
# Elastic Compliance Matrix: (Units=1/GPa)
#
#
# Indices 1 2 3 4 5 6 
#
# 1 0.016199 -0.002293 0.000115 0.000000 0.000000 0.000000
# 2 -0.002293 0.011443 -0.003192 0.000000 0.000000 0.000000
# 3 0.000115 -0.003192 0.007950 0.000000 0.000000 0.000000
# 4 0.000000 0.000000 0.000000 0.273966 0.000000 0.000000
# 5 0.000000 0.000000 0.000000 0.000000 0.174939 0.000000
# 6 0.000000 0.000000 0.000000 0.000000 0.000000 0.046419
#
#
# Mechanical properties :
#
#
# Convention : Reuss Voigt Hill
#
# Bulk Modulus (GPa) = 40.23602 47.32648 43.78125
# Shear Modulus (GPa) = 9.09192 22.70484 15.89838
#
# Velocity S-wave (km/s) = 2.00282 3.16500 2.64845
# Velocity P-wave (km/s) = 4.80628 5.85120 5.35429
#
# Compressibility (1/GPa) = 0.02485335
#
# Stress axis : x y z
#
# Youngs Moduli (GPa) = 61.73396 87.39158 125.77975
#
# Poissons Ratio (x) = 0.20036 -0.01449
# Poissons Ratio (y) = 0.14153 0.40146
# Poissons Ratio (z) = -0.00711 0.27893
#
# Static dielectric constant tensor:
#      x y z
#    x 1.890110 0.000000 0.000000 
#    y 0.000000 1.840700 0.000000 
#    z 0.000000 0.000000 1.890870 
# 
# From -- ./inp_files/31610.got.cif
#   From: 2010.05.17/outbox.cif.g08.bks.cpg/sg21_16_cif.got.tgz:31610.got - 2010.06.03 23:14:55.
