data_PCOD9322788
_publ_section_title
;
Structure prediction by ZEFSAII (Michael W. Deem and Ramdas Pophale) SiO2 
 PCOD9322788
Probable space group: C 2 2 2
;
_chemical_formula_sum "Si O2"
_cell_formula_units_Z 32
_cell_length_a 36.422981
_cell_length_b 8.323292
_cell_length_c 5.210925
_cell_angle_alpha 90.000000
_cell_angle_beta 90.000000
_cell_angle_gamma 90.000000
_cell_volume 1579.739366
_symmetry_space_group_name_H-M "C 2 2 2"
_symmetry_group_IT_number 21
_symmetry_cell_setting 'orthorhombic'
loop_
_space_group_symop_operation_xyz
x,y,z
-x,-y,z
x,-y,-z
-x,y,-z
1/2+x,1/2+y,z
1/2-x,1/2-y,z
1/2+x,1/2-y,-z
1/2-x,1/2+y,-z
loop_
_atom_site_type_symbol
_atom_site_label
_atom_site_fract_x
_atom_site_fract_y
_atom_site_fract_z
Si Si1 0.170175 0.186082 0.436839
Si Si2 0.042051 0.304215 0.005414
Si Si3 0.791447 0.312971 0.065170
Si Si4 0.587536 0.804960 0.503744
O O1 0.193090 0.283102 0.650568
O O2 0.127733 0.232335 0.472794
O O3 0.175745 0.000000 0.500000
O O4 0.184005 0.225223 0.150946
O O5 0.066696 0.256151 0.763178
O O6 0.040793 0.500000 0.000000
O O7 0.062238 0.256741 0.265221
O O8 0.000000 0.247729 0.000000
O O9 0.750000 0.250000 0.048126
O O10 0.792419 0.500000 0.000000
O O11 0.591025 0.000000 0.500000
#
# Coordination Sequence:
#
# PCOD9322788 Si02
#       4
#     8   8   8   8
#     4  12  25  42  63  91 126 164 205 250 303 361
#     4   9  17  30  52  82 113 147 194 249 298 349
#     4  12  25  44  67  93 124 160 203 250 303 361
#     4  10  19  33  55  82 113 152 198 246 297 353
#
# _framework density 20.256505000000001
#
# number of rings (size 3 to 8) (size 9 to 14) (size 15 to 20)
#    0.000    1.250    0.000    7.500    0.000    5.000 
#    0.000    0.000    0.000    4.500    0.000    0.000 
#    0.000    0.000    0.000    0.000    0.000    0.000 
#
# Total GULP energy -89527.615380 kJ/mol
# GULP energy per Si atom -5595.475961 kJ/mol
# Density = 2.021040 g / cm^3
# Si number density = 20.256505 Si / 1000 Ang^3
#
#
#
# Elastic Constant Matrix: (Units=GPa)
#
#
# Indices 1 2 3 4 5 6 
#
# 1 124.0173 -13.0904 14.2044 0.0000 0.0000 0.0000
# 2 -13.0904 39.3437 -28.0501 0.0000 0.0000 0.0000
# 3 14.2044 -28.0501 88.6356 0.0000 0.0000 0.0000
# 4 0.0000 0.0000 0.0000 14.7222 0.0000 0.0000
# 5 0.0000 0.0000 0.0000 0.0000 39.4394 0.0000
# 6 0.0000 0.0000 0.0000 0.0000 0.0000 7.2385
#
#
#
# Elastic Compliance Matrix: (Units=1/GPa)
#
#
# Indices 1 2 3 4 5 6 
#
# 1 0.008381 0.002364 -0.000595 0.000000 0.000000 0.000000
# 2 0.002364 0.033490 0.010219 0.000000 0.000000 0.000000
# 3 -0.000595 0.010219 0.014612 0.000000 0.000000 0.000000
# 4 0.000000 0.000000 0.000000 0.067925 0.000000 0.000000
# 5 0.000000 0.000000 0.000000 0.000000 0.025355 0.000000
# 6 0.000000 0.000000 0.000000 0.000000 0.000000 0.138150
#
#
# Mechanical properties :
#
#
# Convention : Reuss Voigt Hill
#
# Bulk Modulus (GPa) = 12.42851 22.01384 17.22117
# Shear Modulus (GPa) = 17.19665 30.87552 24.03609
#
# Velocity S-wave (km/s) = 2.91683 3.90837 3.44842
# Velocity P-wave (km/s) = 4.18243 5.59091 4.93716
#
# Compressibility (1/GPa) = 0.08046017
#
# Stress axis : x y z
#
# Youngs Moduli (GPa) = 119.31610 29.86001 68.43897
#
# Poissons Ratio (x) = -0.07060 0.04071
# Poissons Ratio (y) = -0.28212 -0.69940
# Poissons Ratio (z) = 0.07098 -0.30515
#
# Static dielectric constant tensor:
#      x y z
#    x 1.680960 0.000000 0.000000 
#    y 0.000000 1.719000 0.000000 
#    z 0.000000 0.000000 1.691340 
# 
# From -- ./inp_files/7777.got.cif
#   From: 2010.05.17/outbox.cif.g08.bks.cpg/sg21_4_cif.got.tgz:7777.got - 2010.06.03 23:14:55.
