data_PCOD9322373
_publ_section_title
;
Structure prediction by ZEFSAII (Michael W. Deem and Ramdas Pophale) SiO2 
 PCOD9322373
Probable space group: C 2 2 2
;
_chemical_formula_sum "Si O2"
_cell_formula_units_Z 52
_cell_length_a 9.231541
_cell_length_b 28.669287
_cell_length_c 11.534310
_cell_angle_alpha 90.000000
_cell_angle_beta 90.000000
_cell_angle_gamma 90.000000
_cell_volume 3052.690074
_symmetry_space_group_name_H-M "C 2 2 2"
_symmetry_group_IT_number 21
_symmetry_cell_setting 'orthorhombic'
loop_
_space_group_symop_operation_xyz
x,y,z
-x,-y,z
x,-y,-z
-x,y,-z
1/2+x,1/2+y,z
1/2-x,1/2-y,z
1/2+x,1/2-y,-z
1/2-x,1/2+y,-z
loop_
_atom_site_type_symbol
_atom_site_label
_atom_site_fract_x
_atom_site_fract_y
_atom_site_fract_z
Si Si1 0.606388 0.352785 0.741466
Si Si2 0.500000 0.685741 0.500000
Si Si3 0.502891 0.447745 0.302876
Si Si4 0.250000 0.750000 0.519686
Si Si5 0.076001 0.242112 0.123396
Si Si6 0.000000 0.621371 0.500000
Si Si7 0.238194 0.948262 0.493994
Si Si8 0.414361 0.181674 0.302699
O O1 0.558150 0.343617 0.607840
O O2 0.538960 0.402813 0.773392
O O3 0.554718 0.307814 0.814078
O O4 0.781681 0.349870 0.745421
O O5 0.368585 0.718699 0.456294
O O6 0.500000 0.500000 0.250085
O O7 0.653165 0.441195 0.372898
O O8 0.380871 0.448395 0.404091
O O9 0.337792 0.783566 0.605782
O O10 0.250000 0.250000 0.113991
O O11 0.022691 0.284974 0.204020
O O12 0.000000 0.242781 0.000000
O O13 0.858168 0.590275 0.486207
O O14 0.018780 0.651926 0.383850
O O15 0.304377 0.000000 0.500000
#
# Coordination Sequence:
#
# PCOD9322373 Si02
#       8
#     8   4   8   4   8   4   8   8
#     4  10  18  33  52  71 101 139 165 205 253 304
#     4  10  17  28  49  69 101 132 163 193 250 302
#     4   9  17  32  49  70 100 143 175 198 247 305
#     4  10  18  32  42  68 102 134 158 198 246 296
#     4  10  21  41  54  70  98 135 174 215 264 305
#     4  12  20  28  48  81 109 136 169 205 254 304
#     4   9  18  30  45  70 111 144 169 203 243 303
#     4  10  19  32  51  70 104 140 166 202 258 303
#
# _framework density 17.034155999999999
#
# number of rings (size 3 to 8) (size 9 to 14) (size 15 to 20)
#    0.000    2.154    5.385    2.538    2.154    0.000 
#    4.154    0.000    0.000    0.462    0.000    0.000 
#    0.000    2.462    0.000    0.000    0.000    0.000 
#
# Total GULP energy -144895.346597 kJ/mol
# GULP energy per Si atom -5572.897946 kJ/mol
# Density = 1.699539 g / cm^3
# Si number density = 17.034156 Si / 1000 Ang^3
#
#
#
# Elastic Constant Matrix: (Units=GPa)
#
#
# Indices 1 2 3 4 5 6 
#
# 1 28.6966 28.9052 13.3715 0.0000 0.0000 0.0000
# 2 28.9052 134.5736 40.6602 0.0000 0.0000 0.0000
# 3 13.3715 40.6602 63.0400 0.0000 0.0000 0.0000
# 4 0.0000 0.0000 0.0000 6.3808 0.0000 0.0000
# 5 0.0000 0.0000 0.0000 0.0000 21.2098 0.0000
# 6 0.0000 0.0000 0.0000 0.0000 0.0000 25.7113
#
#
#
# Elastic Compliance Matrix: (Units=1/GPa)
#
#
# Indices 1 2 3 4 5 6 
#
# 1 0.045322 -0.008483 -0.004142 0.000000 0.000000 0.000000
# 2 -0.008483 0.010817 -0.005178 0.000000 0.000000 0.000000
# 3 -0.004142 -0.005178 0.020081 0.000000 0.000000 0.000000
# 4 0.000000 0.000000 0.000000 0.156721 0.000000 0.000000
# 5 0.000000 0.000000 0.000000 0.000000 0.047148 0.000000
# 6 0.000000 0.000000 0.000000 0.000000 0.000000 0.038893
#
#
# Mechanical properties :
#
#
# Convention : Reuss Voigt Hill
#
# Bulk Modulus (GPa) = 24.62139 43.57602 34.09870
# Shear Modulus (GPa) = 13.58228 20.21860 16.90044
#
# Velocity S-wave (km/s) = 2.82681 3.44894 3.15326
# Velocity P-wave (km/s) = 5.01398 6.44185 5.77223
#
# Compressibility (1/GPa) = 0.04061510
#
# Stress axis : x y z
#
# Youngs Moduli (GPa) = 22.06422 92.44320 49.79827
#
# Poissons Ratio (x) = 0.78424 0.20625
# Poissons Ratio (y) = 0.18718 0.25784
# Poissons Ratio (z) = 0.09138 0.47864
#
# Static dielectric constant tensor:
#      x y z
#    x 1.600060 0.000000 0.000000 
#    y 0.000000 1.657940 0.000000 
#    z 0.000000 0.000000 1.542870 
# 
# From -- ./inp_files/23063.got.cif
#   From: 2010.05.17/outbox.cif.g08.bks.cpg/sg21_12_cif.got.tgz:23063.got - 2010.06.03 23:14:55.
