data_PCOD9322107
_publ_section_title
;
Structure prediction by ZEFSAII (Michael W. Deem and Ramdas Pophale) SiO2 
 PCOD9322107
Probable space group: C 2 2 21
;
_chemical_formula_sum "Si O2"
_cell_formula_units_Z 32
_cell_length_a 8.045091
_cell_length_b 12.256529
_cell_length_c 13.370638
_cell_angle_alpha 90.000000
_cell_angle_beta 90.000000
_cell_angle_gamma 90.000000
_cell_volume 1318.410305
_symmetry_space_group_name_H-M "C 2 2 21"
_symmetry_group_IT_number 20
_symmetry_cell_setting 'orthorhombic'
loop_
_space_group_symop_operation_xyz
x,y,z
-x,-y,1/2+z
x,-y,-z
-x,y,1/2-z
1/2+x,1/2+y,z
1/2-x,1/2-y,1/2+z
1/2+x,1/2-y,-z
1/2-x,1/2+y,1/2-z
loop_
_atom_site_type_symbol
_atom_site_label
_atom_site_fract_x
_atom_site_fract_y
_atom_site_fract_z
Si Si1 0.747238 0.204405 0.989853
Si Si2 0.069344 0.605020 0.555863
Si Si3 0.500000 0.018520 0.250000
Si Si4 0.990386 0.000000 0.000000
Si Si5 0.157817 0.124329 0.179656
O O1 0.571832 0.152211 0.017323
O O2 0.711846 0.273583 0.889321
O O3 0.804895 0.295979 0.068304
O O4 0.877820 0.107177 0.979852
O O5 0.137872 0.500000 0.500000
O O6 0.986799 0.560518 0.654882
O O7 0.325750 0.083081 0.234707
O O8 0.085302 0.033041 0.102396
O O9 0.000000 0.149909 0.250000
#
# Coordination Sequence:
#
# PCOD9322107 Si02
#       5
#     8   8   4   4   8
#     4  12  26  48  83 109 165 213 273 334 414 493
#     4  12  26  50  76 114 160 213 266 342 408 488
#     4  12  28  52  84 120 166 212 288 346 416 506
#     4  12  26  54  84 120 164 226 270 342 426 502
#     4  12  28  53  82 122 167 219 279 346 420 493
#
# _framework density 24.271656
#
# number of rings (size 3 to 8) (size 9 to 14) (size 15 to 20)
#    0.000    0.000    6.250    3.000    1.750    0.000 
#    6.750    0.000    0.000    0.000    0.000    0.000 
#    0.000    0.000    0.000    0.000    0.000    0.000 
#
# Total GULP energy -89535.254268 kJ/mol
# GULP energy per Si atom -5595.953392 kJ/mol
# Density = 2.421641 g / cm^3
# Si number density = 24.271656 Si / 1000 Ang^3
#
#
#
# Elastic Constant Matrix: (Units=GPa)
#
#
# Indices 1 2 3 4 5 6 
#
# 1 154.5585 58.9638 37.9285 0.0000 0.0000 0.0000
# 2 58.9638 171.3281 38.3577 0.0000 0.0000 0.0000
# 3 37.9285 38.3577 80.4493 0.0000 0.0000 0.0000
# 4 0.0000 0.0000 0.0000 43.1686 0.0000 0.0000
# 5 0.0000 0.0000 0.0000 0.0000 53.3008 0.0000
# 6 0.0000 0.0000 0.0000 0.0000 0.0000 16.6116
#
#
#
# Elastic Compliance Matrix: (Units=1/GPa)
#
#
# Indices 1 2 3 4 5 6 
#
# 1 0.007952 -0.002124 -0.002736 0.000000 0.000000 0.000000
# 2 -0.002124 0.007102 -0.002385 0.000000 0.000000 0.000000
# 3 -0.002736 -0.002385 0.014857 0.000000 0.000000 0.000000
# 4 0.000000 0.000000 0.000000 0.023165 0.000000 0.000000
# 5 0.000000 0.000000 0.000000 0.000000 0.018761 0.000000
# 6 0.000000 0.000000 0.000000 0.000000 0.000000 0.060199
#
#
# Mechanical properties :
#
#
# Convention : Reuss Voigt Hill
#
# Bulk Modulus (GPa) = 64.84728 75.20401 70.02565
# Shear Modulus (GPa) = 32.96719 40.68860 36.82789
#
# Velocity S-wave (km/s) = 3.68945 4.09881 3.89951
# Velocity P-wave (km/s) = 6.70259 7.31108 7.01344
#
# Compressibility (1/GPa) = 0.01542085
#
# Stress axis : x y z
#
# Youngs Moduli (GPa) = 125.75704 140.81229 67.30759
#
# Poissons Ratio (x) = 0.29910 0.18417
# Poissons Ratio (y) = 0.26712 0.16050
# Poissons Ratio (z) = 0.34410 0.33578
#
# Static dielectric constant tensor:
#      x y z
#    x 2.007730 0.000000 0.000000 
#    y 0.000000 1.953750 0.000000 
#    z 0.000000 0.000000 1.972380 
# 
# From -- ./inp_files/18259.got.cif
#   From: 2010.05.17/outbox.cif.g08.bks.cpg/sg20_10_cif.got.tgz:18259.got - 2010.06.03 22:52:26.
