data_PCOD9322630
_publ_section_title
;
Structure prediction by ZEFSAII (Michael W. Deem and Ramdas Pophale) SiO2 
 PCOD9322630
Probable space group: C 2 2 2
;
_chemical_formula_sum "Si O2"
_cell_formula_units_Z 56
_cell_length_a 9.502293
_cell_length_b 21.093861
_cell_length_c 15.685243
_cell_angle_alpha 90.000000
_cell_angle_beta 90.000000
_cell_angle_gamma 90.000000
_cell_volume 3143.950855
_symmetry_space_group_name_H-M "C 2 2 2"
_symmetry_group_IT_number 21
_symmetry_cell_setting 'orthorhombic'
loop_
_space_group_symop_operation_xyz
x,y,z
-x,-y,z
x,-y,-z
-x,y,-z
1/2+x,1/2+y,z
1/2-x,1/2-y,z
1/2+x,1/2-y,-z
1/2-x,1/2+y,-z
loop_
_atom_site_type_symbol
_atom_site_label
_atom_site_fract_x
_atom_site_fract_y
_atom_site_fract_z
Si Si1 0.017858 0.844277 0.678895
Si Si2 0.961558 0.355247 0.749213
Si Si3 0.587187 0.228889 0.579590
Si Si4 0.265217 0.412272 0.766722
Si Si5 0.478380 0.393704 0.904448
Si Si6 0.810682 0.940350 0.243308
Si Si7 0.093145 0.233414 0.155708
O O1 0.011221 0.795442 0.603026
O O2 0.111116 0.907512 0.676213
O O3 0.096922 0.803608 0.753290
O O4 0.866902 0.866170 0.712452
O O5 0.927275 0.319205 0.659877
O O6 0.834642 0.403015 0.769831
O O7 0.976009 0.300105 0.820619
O O8 0.107007 0.392490 0.749555
O O9 0.500000 0.201908 0.500000
O O10 0.750000 0.250000 0.565569
O O11 0.324901 0.403762 0.863165
O O12 0.289409 0.485557 0.744597
O O13 0.586365 0.427298 0.837840
O O14 0.515006 0.318482 0.900974
O O15 0.500000 0.416852 0.000000
O O16 0.250000 0.250000 0.126181
#
# Coordination Sequence:
#
# PCOD9322630 Si02
#       7
#     8   8   8   8   8   8   8
#     4   9  17  34  57  79 107 143 189 224 267 334
#     4  11  19  37  58  83 116 144 189 237 273 342
#     4  11  23  37  62  88 116 150 177 232 300 336
#     4  10  22  32  57  88 105 148 199 235 265 329
#     4  10  21  37  57  82 111 147 192 243 290 336
#     4  10  18  37  59  77 109 156 193 222 282 336
#     4   9  15  33  56  73 102 146 179 219 281 334
#
# _framework density 17.811982
#
# number of rings (size 3 to 8) (size 9 to 14) (size 15 to 20)
#    0.000    2.286    4.286    3.000    2.000    5.714 
#    2.571    0.714    0.000    6.857    0.000    0.000 
#    0.000    0.000    0.000    0.000    0.000    0.000 
#
# Total GULP energy -155890.002522 kJ/mol
# GULP energy per Si atom -5567.500090 kJ/mol
# Density = 1.777144 g / cm^3
# Si number density = 17.811982 Si / 1000 Ang^3
#
#
#
# Elastic Constant Matrix: (Units=GPa)
#
#
# Indices 1 2 3 4 5 6 
#
# 1 91.4223 3.5127 16.2941 0.0000 0.0000 0.0000
# 2 3.5127 61.2752 11.4097 0.0000 0.0000 0.0000
# 3 16.2941 11.4097 55.6826 0.0000 0.0000 0.0000
# 4 0.0000 0.0000 0.0000 8.0594 0.0000 0.0000
# 5 0.0000 0.0000 0.0000 0.0000 8.2208 0.0000
# 6 0.0000 0.0000 0.0000 0.0000 0.0000 27.1048
#
#
#
# Elastic Compliance Matrix: (Units=1/GPa)
#
#
# Indices 1 2 3 4 5 6 
#
# 1 0.011540 -0.000034 -0.003370 0.000000 0.000000 0.000000
# 2 -0.000034 0.016967 -0.003467 0.000000 0.000000 0.000000
# 3 -0.003370 -0.003467 0.019655 0.000000 0.000000 0.000000
# 4 0.000000 0.000000 0.000000 0.124079 0.000000 0.000000
# 5 0.000000 0.000000 0.000000 0.000000 0.121643 0.000000
# 6 0.000000 0.000000 0.000000 0.000000 0.000000 0.036894
#
#
# Mechanical properties :
#
#
# Convention : Reuss Voigt Hill
#
# Bulk Modulus (GPa) = 29.05171 30.09035 29.57103
# Shear Modulus (GPa) = 14.04519 20.48790 17.26654
#
# Velocity S-wave (km/s) = 2.81111 3.39519 3.11686
# Velocity P-wave (km/s) = 5.18480 5.68328 5.43975
#
# Compressibility (1/GPa) = 0.03442138
#
# Stress axis : x y z
#
# Youngs Moduli (GPa) = 86.65373 58.93690 50.87659
#
# Poissons Ratio (x) = 0.00201 0.17145
# Poissons Ratio (y) = 0.00295 0.17638
# Poissons Ratio (z) = 0.29202 0.20432
#
# Static dielectric constant tensor:
#      x y z
#    x 1.621090 0.000000 0.000000 
#    y 0.000000 1.642360 0.000000 
#    z 0.000000 0.000000 1.638100 
# 
# From -- ./inp_files/35869.got.cif
#   From: 2010.05.17/outbox.cif.g08.bks.cpg/sg21_18_cif.got.tgz:35869.got - 2010.06.03 23:14:55.
