data_PCOD9322461
_publ_section_title
;
Structure prediction by ZEFSAII (Michael W. Deem and Ramdas Pophale) SiO2 
 PCOD9322461
Probable space group: C 2 2 2
;
_chemical_formula_sum "Si O2"
_cell_formula_units_Z 40
_cell_length_a 8.135680
_cell_length_b 31.082361
_cell_length_c 8.025484
_cell_angle_alpha 90.000000
_cell_angle_beta 90.000000
_cell_angle_gamma 90.000000
_cell_volume 2029.453438
_symmetry_space_group_name_H-M "C 2 2 2"
_symmetry_group_IT_number 21
_symmetry_cell_setting 'orthorhombic'
loop_
_space_group_symop_operation_xyz
x,y,z
-x,-y,z
x,-y,-z
-x,y,-z
1/2+x,1/2+y,z
1/2-x,1/2-y,z
1/2+x,1/2-y,-z
1/2-x,1/2+y,-z
loop_
_atom_site_type_symbol
_atom_site_label
_atom_site_fract_x
_atom_site_fract_y
_atom_site_fract_z
Si Si1 0.000000 0.000000 0.500000
Si Si2 0.250000 0.250000 0.259140
Si Si3 0.257708 0.450031 0.754593
Si Si4 0.745125 0.357361 0.391695
Si Si5 0.000000 0.500000 0.000000
Si Si6 0.500000 0.206015 0.500000
Si Si7 0.892084 0.160674 0.758697
Si Si8 0.000000 0.093958 0.000000
O O1 0.868270 0.975206 0.617997
O O2 0.393073 0.235388 0.382234
O O3 0.179777 0.206235 0.178447
O O4 0.204264 0.405123 0.665274
O O5 0.117642 0.473399 0.868076
O O6 0.395153 0.435367 0.882780
O O7 0.892978 0.324213 0.380386
O O8 0.695174 0.354089 0.587291
O O9 0.586034 0.340588 0.289751
O O10 0.877396 0.124583 0.897847
#
# Coordination Sequence:
#
# PCOD9322461 Si02
#       8
#     2   4   8   8   2   4   8   4
#     4  12  24  44  74  92 112 168 216 248 298 376
#     4  10  18  30  50  82 114 142 194 250 290 346
#     4  11  24  42  63  91 123 157 203 252 306 377
#     4   9  19  35  57  80 108 153 200 237 290 366
#     4  12  28  40  60 102 136 152 184 274 340 340
#     4  10  18  30  53  79 110 148 188 247 297 334
#     4   9  18  34  57  83 108 149 200 246 291 345
#     4  10  20  41  62  79 118 168 200 233 302 389
#
# _framework density 19.709738999999999
#
# number of rings (size 3 to 8) (size 9 to 14) (size 15 to 20)
#    0.000    2.000    0.000    6.000    0.000    5.200 
#    0.000    4.000    0.000    0.000    0.000    0.000 
#    0.000    0.000    0.000    0.000    0.000    0.000 
#
# Total GULP energy -111363.662058 kJ/mol
# GULP energy per Si atom -5568.183103 kJ/mol
# Density = 1.966488 g / cm^3
# Si number density = 19.709739 Si / 1000 Ang^3
#
#
#
# Elastic Constant Matrix: (Units=GPa)
#
#
# Indices 1 2 3 4 5 6 
#
# 1 75.7978 53.1463 29.3655 0.0000 0.0000 0.0000
# 2 53.1463 105.2668 49.3233 0.0000 0.0000 0.0000
# 3 29.3655 49.3233 82.6096 0.0000 0.0000 0.0000
# 4 0.0000 0.0000 0.0000 -22.3608 0.0000 0.0000
# 5 0.0000 0.0000 0.0000 0.0000 19.7390 0.0000
# 6 0.0000 0.0000 0.0000 0.0000 0.0000 48.9754
#
#
#
# Elastic Compliance Matrix: (Units=1/GPa)
#
#
# Indices 1 2 3 4 5 6 
#
# 1 0.020563 -0.009659 -0.001543 0.000000 0.000000 0.000000
# 2 -0.009659 0.017727 -0.007150 0.000000 0.000000 0.000000
# 3 -0.001543 -0.007150 0.016923 0.000000 0.000000 0.000000
# 4 0.000000 0.000000 0.000000 -0.044721 0.000000 0.000000
# 5 0.000000 0.000000 0.000000 0.000000 0.050661 0.000000
# 6 0.000000 0.000000 0.000000 0.000000 0.000000 0.020418
#
#
# Mechanical properties :
#
#
# Convention : Reuss Voigt Hill
#
# Bulk Modulus (GPa) = 54.02932 58.59381 56.31157
# Shear Modulus (GPa) = 40.17867 18.05999 29.11933
#
# Velocity S-wave (km/s) = 4.51989 3.03033 3.84788
# Velocity P-wave (km/s) = 7.39671 6.48357 6.95514
#
# Compressibility (1/GPa) = 0.01850847
#
# Stress axis : x y z
#
# Youngs Moduli (GPa) = 48.63087 56.41260 59.09209
#
# Poissons Ratio (x) = 0.54488 0.09116
# Poissons Ratio (y) = 0.46972 0.42253
# Poissons Ratio (z) = 0.07502 0.40337
#
# Static dielectric constant tensor:
#      x y z
#    x 1.727590 0.000000 0.000000 
#    y 0.000000 1.725340 0.000000 
#    z 0.000000 0.000000 1.731020 
# 
# From -- ./inp_files/11277.got.cif
#   From: 2010.05.17/outbox.cif.g08.bks.cpg/sg21_6_cif.got.tgz:11277.got - 2010.06.03 23:14:55.
