data_PCOD9322647
_publ_section_title
;
Structure prediction by ZEFSAII (Michael W. Deem and Ramdas Pophale) SiO2 
 PCOD9322647
Probable space group: C 2 2 2
;
_chemical_formula_sum "Si O2"
_cell_formula_units_Z 32
_cell_length_a 12.825649
_cell_length_b 17.532134
_cell_length_c 5.042428
_cell_angle_alpha 90.000000
_cell_angle_beta 90.000000
_cell_angle_gamma 90.000000
_cell_volume 1133.845387
_symmetry_space_group_name_H-M "C 2 2 2"
_symmetry_group_IT_number 21
_symmetry_cell_setting 'orthorhombic'
loop_
_space_group_symop_operation_xyz
x,y,z
-x,-y,z
x,-y,-z
-x,y,-z
1/2+x,1/2+y,z
1/2-x,1/2-y,z
1/2+x,1/2-y,-z
1/2-x,1/2+y,-z
loop_
_atom_site_type_symbol
_atom_site_label
_atom_site_fract_x
_atom_site_fract_y
_atom_site_fract_z
Si Si1 0.500000 0.750427 0.500000
Si Si2 0.362195 0.000000 0.000000
Si Si3 0.250000 0.750000 0.082906
Si Si4 0.000000 0.863671 0.000000
Si Si5 0.190515 0.098142 0.698469
Si Si6 0.347142 0.133000 0.314041
O O1 0.473075 0.694206 0.750716
O O2 0.592463 0.815083 0.527870
O O3 0.412654 0.061635 0.199778
O O4 0.285938 0.945322 0.166437
O O5 0.320241 0.803788 0.902010
O O6 0.189654 0.811274 0.252886
O O7 0.916721 0.918740 0.847523
O O8 0.233841 0.097127 0.398572
#
# Coordination Sequence:
#
# PCOD9322647 Si02
#       6
#     4   4   4   4   8   8
#     4  12  26  46  77 121 152 202 270 344 398 486
#     4  10  26  45  69 106 148 214 262 309 409 490
#     4  10  18  38  66  98 140 182 250 320 382 468
#     4  12  26  45  78 119 148 194 272 336 402 475
#     4  11  23  43  70 104 146 202 252 324 398 469
#     4  11  23  44  72 106 156 204 264 330 411 480
#
# _framework density 28.222543999999999
#
# number of rings (size 3 to 8) (size 9 to 14) (size 15 to 20)
#    0.000    1.000    2.500    4.500    7.000    0.500 
#    0.000    3.750    0.000    0.000    0.000    0.000 
#    0.000    0.000    0.000    0.000    0.000    0.000 
#
# Total GULP energy -89102.137147 kJ/mol
# GULP energy per Si atom -5568.883572 kJ/mol
# Density = 2.815831 g / cm^3
# Si number density = 28.222544 Si / 1000 Ang^3
#
#
#
# Elastic Constant Matrix: (Units=GPa)
#
#
# Indices 1 2 3 4 5 6 
#
# 1 73.6937 -4.3301 8.3928 0.0000 0.0000 0.0000
# 2 -4.3301 142.7636 32.4622 0.0000 0.0000 0.0000
# 3 8.3928 32.4622 132.1478 0.0000 0.0000 0.0000
# 4 0.0000 0.0000 0.0000 60.0445 0.0000 0.0000
# 5 0.0000 0.0000 0.0000 0.0000 32.7383 0.0000
# 6 0.0000 0.0000 0.0000 0.0000 0.0000 40.0583
#
#
#
# Elastic Compliance Matrix: (Units=1/GPa)
#
#
# Indices 1 2 3 4 5 6 
#
# 1 0.013725 0.000651 -0.001032 0.000000 0.000000 0.000000
# 2 0.000651 0.007450 -0.001871 0.000000 0.000000 0.000000
# 3 -0.001032 -0.001871 0.008093 0.000000 0.000000 0.000000
# 4 0.000000 0.000000 0.000000 0.016654 0.000000 0.000000
# 5 0.000000 0.000000 0.000000 0.000000 0.030545 0.000000
# 6 0.000000 0.000000 0.000000 0.000000 0.000000 0.024964
#
#
# Mechanical properties :
#
#
# Convention : Reuss Voigt Hill
#
# Bulk Modulus (GPa) = 40.38199 46.85055 43.61627
# Shear Modulus (GPa) = 43.78678 47.37358 45.58018
#
# Velocity S-wave (km/s) = 3.94316 4.10148 4.02310
# Velocity P-wave (km/s) = 5.92206 6.25028 6.08838
#
# Compressibility (1/GPa) = 0.02476351
#
# Stress axis : x y z
#
# Youngs Moduli (GPa) = 72.85759 134.23087 123.57105
#
# Poissons Ratio (x) = -0.08737 0.12748
# Poissons Ratio (y) = -0.04742 0.23125
# Poissons Ratio (z) = 0.07516 0.25120
#
# Static dielectric constant tensor:
#      x y z
#    x 2.754810 0.000000 0.000000 
#    y 0.000000 2.103310 0.000000 
#    z 0.000000 0.000000 2.376500 
# 
# From -- ./inp_files/3568.got.cif
#   From: 2010.05.17/outbox.cif.g08.bks.cpg/sg21_2_cif.got.tgz:3568.got - 2010.06.03 23:14:55.
