data_PCOD9322933
_publ_section_title
;
Structure prediction by ZEFSAII (Michael W. Deem and Ramdas Pophale) SiO2 
 PCOD9322933
Probable space group: C 2 2 2
;
_chemical_formula_sum "Si O2"
_cell_formula_units_Z 64
_cell_length_a 32.467134
_cell_length_b 8.011728
_cell_length_c 11.260269
_cell_angle_alpha 90.000000
_cell_angle_beta 90.000000
_cell_angle_gamma 90.000000
_cell_volume 2928.996924
_symmetry_space_group_name_H-M "C 2 2 2"
_symmetry_group_IT_number 21
_symmetry_cell_setting 'orthorhombic'
loop_
_space_group_symop_operation_xyz
x,y,z
-x,-y,z
x,-y,-z
-x,y,-z
1/2+x,1/2+y,z
1/2-x,1/2-y,z
1/2+x,1/2-y,-z
1/2-x,1/2+y,-z
loop_
_atom_site_type_symbol
_atom_site_label
_atom_site_fract_x
_atom_site_fract_y
_atom_site_fract_z
Si Si1 0.204864 0.194079 0.029747
Si Si2 0.679307 0.788757 0.290509
Si Si3 0.010149 0.199774 0.369510
Si Si4 0.362523 0.902813 0.374832
Si Si5 0.594390 0.647538 0.263921
Si Si6 0.791659 0.808053 0.533905
Si Si7 0.886654 0.795581 0.002143
Si Si8 0.432172 0.739409 0.230811
O O1 0.250000 0.250000 0.987224
O O2 0.201074 0.230017 0.170989
O O3 0.160704 0.262366 0.981914
O O4 0.203316 0.000000 0.000000
O O5 0.640071 0.667994 0.315849
O O6 0.706501 0.789615 0.408295
O O7 0.659773 0.971746 0.283900
O O8 0.057865 0.225940 0.340247
O O9 0.000000 0.266887 0.500000
O O10 0.979587 0.262212 0.266372
O O11 0.000000 0.000000 0.373605
O O12 0.331962 0.747998 0.395731
O O13 0.405210 0.844490 0.322223
O O14 0.366931 0.000000 0.500000
O O15 0.598352 0.736335 0.135807
O O16 0.581291 0.454878 0.249401
O O17 0.750000 0.750000 0.597839
O O18 0.790840 0.000000 0.500000
O O19 0.917263 0.726884 0.902862
O O20 0.886173 0.000000 0.000000
#
# Coordination Sequence:
#
# PCOD9322933 Si02
#       8
#     8   8   8   8   8   8   8   8
#     4  10  21  37  58  87 120 158 206 257 313 369
#     4  10  21  39  59  82 123 160 200 255 307 365
#     4   9  19  31  53  90 121 150 198 256 310 366
#     4  10  23  38  57  86 119 159 206 245 307 370
#     4   9  18  35  59  85 116 157 199 252 308 364
#     4  11  22  38  60  87 118 156 200 248 303 370
#     4   8  17  34  56  83 113 151 199 244 299 362
#     4  10  19  36  58  83 118 156 201 252 305 372
#
# _framework density 21.850483000000001
#
# number of rings (size 3 to 8) (size 9 to 14) (size 15 to 20)
#    0.000    2.375    0.000    3.000    3.500    1.500 
#    0.000    6.250    0.000    0.000    0.000    3.500 
#    0.000    0.000    0.000    0.000    0.000    0.000 
#
# Total GULP energy -178586.923083 kJ/mol
# GULP energy per Si atom -5580.841346 kJ/mol
# Density = 2.180075 g / cm^3
# Si number density = 21.850483 Si / 1000 Ang^3
#
#
#
# Elastic Constant Matrix: (Units=GPa)
#
#
# Indices 1 2 3 4 5 6 
#
# 1 85.0414 -5.1447 28.5013 0.0000 0.0000 0.0000
# 2 -5.1447 51.5610 3.6032 0.0000 0.0000 0.0000
# 3 28.5013 3.6032 78.7382 0.0000 0.0000 0.0000
# 4 0.0000 0.0000 0.0000 18.0716 0.0000 0.0000
# 5 0.0000 0.0000 0.0000 0.0000 23.3589 0.0000
# 6 0.0000 0.0000 0.0000 0.0000 0.0000 10.9919
#
#
#
# Elastic Compliance Matrix: (Units=1/GPa)
#
#
# Indices 1 2 3 4 5 6 
#
# 1 0.013529 0.001698 -0.004975 0.000000 0.000000 0.000000
# 2 0.001698 0.019670 -0.001515 0.000000 0.000000 0.000000
# 3 -0.004975 -0.001515 0.014570 0.000000 0.000000 0.000000
# 4 0.000000 0.000000 0.000000 0.055335 0.000000 0.000000
# 5 0.000000 0.000000 0.000000 0.000000 0.042810 0.000000
# 6 0.000000 0.000000 0.000000 0.000000 0.000000 0.090976
#
#
# Mechanical properties :
#
#
# Convention : Reuss Voigt Hill
#
# Bulk Modulus (GPa) = 26.18803 29.91778 28.05291
# Shear Modulus (GPa) = 19.28992 23.04321 21.16656
#
# Velocity S-wave (km/s) = 2.97444 3.25096 3.11577
# Velocity P-wave (km/s) = 4.87930 5.27384 5.08040
#
# Compressibility (1/GPa) = 0.03818538
#
# Stress axis : x y z
#
# Youngs Moduli (GPa) = 73.91542 50.83951 68.63234
#
# Poissons Ratio (x) = -0.08630 0.34143
# Poissons Ratio (y) = -0.12548 0.10395
# Poissons Ratio (z) = 0.36772 0.07700
#
# Static dielectric constant tensor:
#      x y z
#    x 1.793480 0.000000 0.000000 
#    y 0.000000 1.836510 0.000000 
#    z 0.000000 0.000000 1.806900 
# 
# From -- ./inp_files/28106.got.cif
#   From: 2010.05.17/outbox.cif.g08.bks.cpg/sg21_15_cif.got.tgz:28106.got - 2010.06.03 23:14:55.
