data_PCOD9322402
_publ_section_title
;
Structure prediction by ZEFSAII (Michael W. Deem and Ramdas Pophale) SiO2 
 PCOD9322402
Probable space group: C 2 2 2
;
_chemical_formula_sum "Si O2"
_cell_formula_units_Z 36
_cell_length_a 15.856158
_cell_length_b 11.314897
_cell_length_c 9.412836
_cell_angle_alpha 90.000000
_cell_angle_beta 90.000000
_cell_angle_gamma 90.000000
_cell_volume 1688.764386
_symmetry_space_group_name_H-M "C 2 2 2"
_symmetry_group_IT_number 21
_symmetry_cell_setting 'orthorhombic'
loop_
_space_group_symop_operation_xyz
x,y,z
-x,-y,z
x,-y,-z
-x,y,-z
1/2+x,1/2+y,z
1/2-x,1/2-y,z
1/2+x,1/2-y,-z
1/2-x,1/2+y,-z
loop_
_atom_site_type_symbol
_atom_site_label
_atom_site_fract_x
_atom_site_fract_y
_atom_site_fract_z
Si Si1 0.196360 0.863349 0.972260
Si Si2 0.633136 0.500000 0.500000
Si Si3 0.068383 0.822041 0.726065
Si Si4 0.601866 0.132985 0.516920
Si Si5 0.133297 0.184147 0.717560
O O1 0.250000 0.750000 0.915412
O O2 0.117729 0.870347 0.862575
O O3 0.170223 0.817386 0.127217
O O4 0.228461 0.000000 0.000000
O O5 0.581780 0.404964 0.589748
O O6 0.672611 0.576410 0.626128
O O7 0.109401 0.698819 0.668817
O O8 0.968013 0.822230 0.744232
O O9 0.500000 0.133581 0.500000
O O10 0.642332 0.205729 0.387992
O O11 0.631864 0.000000 0.500000
#
# Coordination Sequence:
#
# PCOD9322402 Si02
#       5
#     8   4   8   8   8
#     4  12  27  43  59  83 131 174 210 250 306 370
#     4  10  17  32  64 100 116 132 189 270 323 348
#     4  10  19  35  65  95 117 150 202 262 315 360
#     4   8  16  32  57  92 127 151 186 249 317 377
#     4  10  19  35  65  95 117 150 202 262 315 360
#
# _framework density 21.317360999999998
#
# number of rings (size 3 to 8) (size 9 to 14) (size 15 to 20)
#    0.000    2.000    2.222    4.000    0.000    2.667 
#    0.000    4.444    4.889    6.667    0.000    0.000 
#    0.000    0.000    0.000    0.000    0.000    0.000 
#
# Total GULP energy -100218.120536 kJ/mol
# GULP energy per Si atom -5567.673363 kJ/mol
# Density = 2.126884 g / cm^3
# Si number density = 21.317361 Si / 1000 Ang^3
#
#
#
# Elastic Constant Matrix: (Units=GPa)
#
#
# Indices 1 2 3 4 5 6 
#
# 1 60.4218 23.0635 27.8303 0.0000 0.0000 0.0000
# 2 23.0635 123.9317 13.4576 0.0000 0.0000 0.0000
# 3 27.8303 13.4576 113.4220 0.0000 0.0000 0.0000
# 4 0.0000 0.0000 0.0000 18.9802 0.0000 0.0000
# 5 0.0000 0.0000 0.0000 0.0000 -12.7587 0.0000
# 6 0.0000 0.0000 0.0000 0.0000 0.0000 16.1239
#
#
#
# Elastic Compliance Matrix: (Units=1/GPa)
#
#
# Indices 1 2 3 4 5 6 
#
# 1 0.019841 -0.003205 -0.004488 0.000000 0.000000 0.000000
# 2 -0.003205 0.008692 -0.000245 0.000000 0.000000 0.000000
# 3 -0.004488 -0.000245 0.009947 0.000000 0.000000 0.000000
# 4 0.000000 0.000000 0.000000 0.052687 0.000000 0.000000
# 5 0.000000 0.000000 0.000000 0.000000 -0.078378 0.000000
# 6 0.000000 0.000000 0.000000 0.000000 0.000000 0.062020
#
#
# Mechanical properties :
#
#
# Convention : Reuss Voigt Hill
#
# Bulk Modulus (GPa) = 44.24020 47.38646 45.81333
# Shear Modulus (GPa) = 50.90650 20.03066 35.46858
#
# Velocity S-wave (km/s) = 4.89205 3.06868 4.08344
# Velocity P-wave (km/s) = 7.26001 5.90195 6.61592
#
# Compressibility (1/GPa) = 0.02260387
#
# Stress axis : x y z
#
# Youngs Moduli (GPa) = 50.40089 115.04833 100.53354
#
# Poissons Ratio (x) = 0.36873 0.45120
# Poissons Ratio (y) = 0.16154 0.02462
# Poissons Ratio (z) = 0.22620 0.02818
#
# Static dielectric constant tensor:
#      x y z
#    x 1.793100 0.000000 0.000000 
#    y 0.000000 1.885780 0.000000 
#    z 0.000000 0.000000 1.721070 
# 
# From -- ./inp_files/17364.got.cif
#   From: 2010.05.17/outbox.cif.g08.bks.cpg/sg21_9_cif.got.tgz:17364.got - 2010.06.03 23:14:55.
