data_PCOD9322483
_publ_section_title
;
Structure prediction by ZEFSAII (Michael W. Deem and Ramdas Pophale) SiO2 
 PCOD9322483
Probable space group: C 2 2 2
;
_chemical_formula_sum "Si O2"
_cell_formula_units_Z 64
_cell_length_a 25.295306
_cell_length_b 10.627820
_cell_length_c 12.951929
_cell_angle_alpha 90.000000
_cell_angle_beta 90.000000
_cell_angle_gamma 90.000000
_cell_volume 3481.918350
_symmetry_space_group_name_H-M "C 2 2 2"
_symmetry_group_IT_number 21
_symmetry_cell_setting 'orthorhombic'
loop_
_space_group_symop_operation_xyz
x,y,z
-x,-y,z
x,-y,-z
-x,y,-z
1/2+x,1/2+y,z
1/2-x,1/2-y,z
1/2+x,1/2-y,-z
1/2-x,1/2+y,-z
loop_
_atom_site_type_symbol
_atom_site_label
_atom_site_fract_x
_atom_site_fract_y
_atom_site_fract_z
Si Si1 0.368657 0.621584 0.425686
Si Si2 0.053740 0.269135 0.439389
Si Si3 0.545875 0.103349 0.763100
Si Si4 0.030305 0.761481 0.101014
Si Si5 0.443740 0.540890 0.714491
Si Si6 0.879957 0.560080 0.894870
Si Si7 0.188029 0.226738 0.772776
Si Si8 0.619680 0.466466 0.118981
O O1 0.352663 0.500000 0.500000
O O2 0.396439 0.731026 0.491684
O O3 0.414573 0.566455 0.352038
O O4 0.328526 0.686182 0.344305
O O5 0.064292 0.372073 0.352870
O O6 0.044183 0.145167 0.370652
O O7 0.000000 0.298358 0.500000
O O8 0.513826 0.218085 0.817010
O O9 0.500000 0.000000 0.759177
O O10 0.595074 0.052648 0.828098
O O11 0.067886 0.642139 0.074088
O O12 0.072644 0.864973 0.133024
O O13 0.000000 0.806149 0.000000
O O14 0.500000 0.500000 0.757560
O O15 0.401098 0.574617 0.803579
O O16 0.843614 0.653958 0.824968
O O17 0.856283 0.500000 0.000000
O O18 0.250000 0.250000 0.777940
O O19 0.171047 0.104794 0.840101
O O20 0.623739 0.500000 0.000000
#
# Coordination Sequence:
#
# PCOD9322483 Si02
#       8
#     8   8   8   8   8   8   8   8
#     4   9  20  38  58  82 112 148 196 238 293 360
#     4  11  21  31  51  78 115 157 189 223 277 346
#     4  10  22  34  50  78 118 160 192 224 267 342
#     4  10  19  32  51  79 123 160 184 213 274 351
#     4  10  18  31  50  77 116 156 181 211 278 355
#     4  10  20  37  59  82 110 156 198 229 284 358
#     4  10  23  44  64  81 110 151 206 265 307 346
#     4  10  23  33  53  90 119 145 192 240 292 356
#
# _framework density 18.380672000000001
#
# number of rings (size 3 to 8) (size 9 to 14) (size 15 to 20)
#    0.000    2.000    2.500    0.750    8.750    0.750 
#    0.000    1.250    0.000    0.000    0.000    1.750 
#    0.000    0.000    0.000    0.000    0.000    0.000 
#
# Total GULP energy -178223.518138 kJ/mol
# GULP energy per Si atom -5569.484942 kJ/mol
# Density = 1.833884 g / cm^3
# Si number density = 18.380672 Si / 1000 Ang^3
#
#
#
# Elastic Constant Matrix: (Units=GPa)
#
#
# Indices 1 2 3 4 5 6 
#
# 1 100.4996 29.4601 48.7287 0.0000 0.0000 0.0000
# 2 29.4601 40.7945 30.7621 0.0000 0.0000 0.0000
# 3 48.7287 30.7621 134.0606 0.0000 0.0000 0.0000
# 4 0.0000 0.0000 0.0000 35.1100 0.0000 0.0000
# 5 0.0000 0.0000 0.0000 0.0000 19.9325 0.0000
# 6 0.0000 0.0000 0.0000 0.0000 0.0000 18.1276
#
#
#
# Elastic Compliance Matrix: (Units=1/GPa)
#
#
# Indices 1 2 3 4 5 6 
#
# 1 0.013720 -0.007434 -0.003281 0.000000 0.000000 0.000000
# 2 -0.007434 0.033670 -0.005024 0.000000 0.000000 0.000000
# 3 -0.003281 -0.005024 0.009805 0.000000 0.000000 0.000000
# 4 0.000000 0.000000 0.000000 0.028482 0.000000 0.000000
# 5 0.000000 0.000000 0.000000 0.000000 0.050169 0.000000
# 6 0.000000 0.000000 0.000000 0.000000 0.000000 0.055164
#
#
# Mechanical properties :
#
#
# Convention : Reuss Voigt Hill
#
# Bulk Modulus (GPa) = 38.88502 54.80629 46.84566
# Shear Modulus (GPa) = 21.63924 25.72762 23.68343
#
# Velocity S-wave (km/s) = 3.43488 3.74533 3.59346
# Velocity P-wave (km/s) = 6.07721 6.97032 6.53903
#
# Compressibility (1/GPa) = 0.02571684
#
# Stress axis : x y z
#
# Youngs Moduli (GPa) = 72.88378 29.69996 101.99056
#
# Poissons Ratio (x) = 0.22079 0.33466
# Poissons Ratio (y) = 0.54182 0.51239
# Poissons Ratio (z) = 0.23915 0.14921
#
# Static dielectric constant tensor:
#      x y z
#    x 1.588680 0.000000 0.000000 
#    y 0.000000 1.775380 0.000000 
#    z 0.000000 0.000000 1.686090 
# 
# From -- ./inp_files/27514.got.cif
#   From: 2010.05.17/outbox.cif.g08.bks.cpg/sg21_14_cif.got.tgz:27514.got - 2010.06.03 23:14:55.
