data_PCOD9322736
_publ_section_title
;
Structure prediction by ZEFSAII (Michael W. Deem and Ramdas Pophale) SiO2 
 PCOD9322736
Probable space group: C 2 2 2
;
_chemical_formula_sum "Si O2"
_cell_formula_units_Z 40
_cell_length_a 18.686989
_cell_length_b 25.310038
_cell_length_c 5.234924
_cell_angle_alpha 90.000000
_cell_angle_beta 90.000000
_cell_angle_gamma 90.000000
_cell_volume 2475.953637
_symmetry_space_group_name_H-M "C 2 2 2"
_symmetry_group_IT_number 21
_symmetry_cell_setting 'orthorhombic'
loop_
_space_group_symop_operation_xyz
x,y,z
-x,-y,z
x,-y,-z
-x,y,-z
1/2+x,1/2+y,z
1/2-x,1/2-y,z
1/2+x,1/2-y,-z
1/2-x,1/2+y,-z
loop_
_atom_site_type_symbol
_atom_site_label
_atom_site_fract_x
_atom_site_fract_y
_atom_site_fract_z
Si Si1 0.270566 0.312599 0.039759
Si Si2 0.956411 0.278027 0.238687
Si Si3 0.085061 0.437410 0.471282
Si Si4 0.371137 0.122678 0.964611
Si Si5 0.178687 0.213073 0.547738
O O1 0.250000 0.250000 0.014684
O O2 0.325350 0.313992 0.273477
O O3 0.200087 0.347631 0.063403
O O4 0.304433 0.327755 0.770671
O O5 0.925471 0.330030 0.102198
O O6 0.888542 0.245869 0.350644
O O7 0.000000 0.289732 0.500000
O O8 0.000000 0.251732 0.000000
O O9 0.095776 0.500000 0.500000
O O10 0.129660 0.408836 0.696772
O O11 0.000000 0.427001 0.500000
O O12 0.104719 0.415139 0.193277
O O13 0.250000 0.250000 0.519569
#
# Coordination Sequence:
#
# PCOD9322736 Si02
#       5
#     8   8   8   8   8
#     4  10  19  32  52  70  96 129 167 217 253 328
#     4  12  23  32  49  77 104 132 180 231 256 295
#     4  11  24  39  51  69 101 137 179 237 287 306
#     4  12  21  36  54  74  94 134 183 228 268 312
#     4  10  19  34  47  65 103 135 160 214 257 317
#
# _framework density 16.155391000000002
#
# number of rings (size 3 to 8) (size 9 to 14) (size 15 to 20)
#    0.000    1.000    4.000    6.600    5.600    1.600 
#    0.000    0.000    0.000    0.000    0.000    0.000 
#    0.000    0.000    0.000    0.000    0.000  210.000 
#
# Total GULP energy -111377.978479 kJ/mol
# GULP energy per Si atom -5568.898924 kJ/mol
# Density = 1.611862 g / cm^3
# Si number density = 16.155391 Si / 1000 Ang^3
#
#
#
# Elastic Constant Matrix: (Units=GPa)
#
#
# Indices 1 2 3 4 5 6 
#
# 1 47.8784 26.1083 5.9785 0.0000 0.0000 0.0000
# 2 26.1083 39.8222 7.4662 0.0000 0.0000 0.0000
# 3 5.9785 7.4662 112.3346 0.0000 0.0000 0.0000
# 4 0.0000 0.0000 0.0000 6.1413 0.0000 0.0000
# 5 0.0000 0.0000 0.0000 0.0000 37.8363 0.0000
# 6 0.0000 0.0000 0.0000 0.0000 0.0000 12.3036
#
#
#
# Elastic Compliance Matrix: (Units=1/GPa)
#
#
# Indices 1 2 3 4 5 6 
#
# 1 0.032520 -0.021261 -0.000318 0.000000 0.000000 0.000000
# 2 -0.021261 0.039329 -0.001482 0.000000 0.000000 0.000000
# 3 -0.000318 -0.001482 0.009017 0.000000 0.000000 0.000000
# 4 0.000000 0.000000 0.000000 0.162831 0.000000 0.000000
# 5 0.000000 0.000000 0.000000 0.000000 0.026430 0.000000
# 6 0.000000 0.000000 0.000000 0.000000 0.000000 0.081277
#
#
# Mechanical properties :
#
#
# Convention : Reuss Voigt Hill
#
# Bulk Modulus (GPa) = 28.78224 31.01569 29.89896
# Shear Modulus (GPa) = 12.22174 21.95507 17.08841
#
# Velocity S-wave (km/s) = 2.75346 3.69045 3.25584
# Velocity P-wave (km/s) = 5.28803 6.11549 5.71675
#
# Compressibility (1/GPa) = 0.03474365
#
# Stress axis : x y z
#
# Youngs Moduli (GPa) = 30.75061 25.42670 110.89660
#
# Poissons Ratio (x) = 0.54060 0.03522
# Poissons Ratio (y) = 0.65379 0.16440
# Poissons Ratio (z) = 0.00977 0.03769
#
# Static dielectric constant tensor:
#      x y z
#    x 1.777820 0.000000 0.000000 
#    y 0.000000 1.505090 0.000000 
#    z 0.000000 0.000000 1.642760 
# 
# From -- ./inp_files/5014.got.cif
#   From: 2010.05.17/outbox.cif.g08.bks.cpg/sg21_3_cif.got.tgz:5014.got - 2010.06.03 23:14:55.
