data_PCOD9322503
_publ_section_title
;
Structure prediction by ZEFSAII (Michael W. Deem and Ramdas Pophale) SiO2 
 PCOD9322503
Probable space group: C 2 2 2
;
_chemical_formula_sum "Si O2"
_cell_formula_units_Z 48
_cell_length_a 11.881998
_cell_length_b 19.422811
_cell_length_c 11.714322
_cell_angle_alpha 90.000000
_cell_angle_beta 90.000000
_cell_angle_gamma 90.000000
_cell_volume 2703.452334
_symmetry_space_group_name_H-M "C 2 2 2"
_symmetry_group_IT_number 21
_symmetry_cell_setting 'orthorhombic'
loop_
_space_group_symop_operation_xyz
x,y,z
-x,-y,z
x,-y,-z
-x,y,-z
1/2+x,1/2+y,z
1/2-x,1/2-y,z
1/2+x,1/2-y,-z
1/2-x,1/2+y,-z
loop_
_atom_site_type_symbol
_atom_site_label
_atom_site_fract_x
_atom_site_fract_y
_atom_site_fract_z
Si Si1 0.080999 0.871521 0.096649
Si Si2 0.903192 0.694335 0.420637
Si Si3 0.186670 0.681582 0.041765
Si Si4 0.535249 0.577774 0.659856
Si Si5 0.340870 0.651004 0.543161
Si Si6 0.522723 0.780976 0.161251
O O1 0.207583 0.868847 0.046019
O O2 0.080582 0.912821 0.213690
O O3 0.023918 0.795914 0.129156
O O4 0.000000 0.900785 0.000000
O O5 0.789323 0.650281 0.424127
O O6 0.873057 0.769076 0.474378
O O7 0.943933 0.709261 0.292032
O O8 0.000000 0.663564 0.500000
O O9 0.250000 0.750000 0.084374
O O10 0.081201 0.669628 0.125011
O O11 0.128248 0.700042 0.920654
O O12 0.500000 0.500000 0.635822
O O13 0.422209 0.622618 0.641722
O O14 0.623761 0.607760 0.568121
#
# Coordination Sequence:
#
# PCOD9322503 Si02
#       6
#     8   8   8   8   8   8
#     4  11  20  32  55  84 113 140 194 229 278 339
#     4  11  21  32  56  90 120 136 181 241 306 348
#     4   9  18  30  50  79 114 156 171 216 290 365
#     4  11  23  42  58  76 114 160 200 231 273 331
#     4  10  21  36  56  82 112 152 182 234 292 352
#     4  10  18  32  50  82 121 148 170 219 305 351
#
# _framework density 17.755075999999999
#
# number of rings (size 3 to 8) (size 9 to 14) (size 15 to 20)
#    0.000    1.667    6.667    1.000    7.000    0.333 
#    0.000    0.000    0.000    2.000    0.000    0.000 
#    0.000    0.000    0.000    0.000    0.000    0.000 
#
# Total GULP energy -133657.523296 kJ/mol
# GULP energy per Si atom -5569.063471 kJ/mol
# Density = 1.771466 g / cm^3
# Si number density = 17.755076 Si / 1000 Ang^3
#
#
#
# Elastic Constant Matrix: (Units=GPa)
#
#
# Indices 1 2 3 4 5 6 
#
# 1 130.6007 17.7424 43.9171 0.0000 0.0000 0.0000
# 2 17.7424 36.0159 14.3518 0.0000 0.0000 0.0000
# 3 43.9171 14.3518 116.1257 0.0000 0.0000 0.0000
# 4 0.0000 0.0000 0.0000 7.8649 0.0000 0.0000
# 5 0.0000 0.0000 0.0000 0.0000 14.7307 0.0000
# 6 0.0000 0.0000 0.0000 0.0000 0.0000 4.0714
#
#
#
# Elastic Compliance Matrix: (Units=1/GPa)
#
#
# Indices 1 2 3 4 5 6 
#
# 1 0.009127 -0.003282 -0.003046 0.000000 0.000000 0.000000
# 2 -0.003282 0.030384 -0.002514 0.000000 0.000000 0.000000
# 3 -0.003046 -0.002514 0.010074 0.000000 0.000000 0.000000
# 4 0.000000 0.000000 0.000000 0.127147 0.000000 0.000000
# 5 0.000000 0.000000 0.000000 0.000000 0.067885 0.000000
# 6 0.000000 0.000000 0.000000 0.000000 0.000000 0.245616
#
#
# Mechanical properties :
#
#
# Convention : Reuss Voigt Hill
#
# Bulk Modulus (GPa) = 31.34721 48.30721 39.82721
# Shear Modulus (GPa) = 9.64223 19.11547 14.37885
#
# Velocity S-wave (km/s) = 2.33291 3.28475 2.84886
# Velocity P-wave (km/s) = 4.99503 6.45389 5.77075
#
# Compressibility (1/GPa) = 0.03190077
#
# Stress axis : x y z
#
# Youngs Moduli (GPa) = 109.56301 32.91183 99.26525
#
# Poissons Ratio (x) = 0.10803 0.30237
# Poissons Ratio (y) = 0.35964 0.24953
# Poissons Ratio (z) = 0.33374 0.08273
#
# Static dielectric constant tensor:
#      x y z
#    x 1.648080 0.000000 0.000000 
#    y 0.000000 1.623750 0.000000 
#    z 0.000000 0.000000 1.623600 
# 
# From -- ./inp_files/24074.got.cif
#   From: 2010.05.17/outbox.cif.g08.bks.cpg/sg21_13_cif.got.tgz:24074.got - 2010.06.03 23:14:55.
