data_PCOD9322515
_publ_section_title
;
Structure prediction by ZEFSAII (Michael W. Deem and Ramdas Pophale) SiO2 
 PCOD9322515
Probable space group: C 2 2 2
;
_chemical_formula_sum "Si O2"
_cell_formula_units_Z 64
_cell_length_a 16.079647
_cell_length_b 15.581187
_cell_length_c 12.961016
_cell_angle_alpha 90.000000
_cell_angle_beta 90.000000
_cell_angle_gamma 90.000000
_cell_volume 3247.252778
_symmetry_space_group_name_H-M "C 2 2 2"
_symmetry_group_IT_number 21
_symmetry_cell_setting 'orthorhombic'
loop_
_space_group_symop_operation_xyz
x,y,z
-x,-y,z
x,-y,-z
-x,y,-z
1/2+x,1/2+y,z
1/2-x,1/2-y,z
1/2+x,1/2-y,-z
1/2-x,1/2+y,-z
loop_
_atom_site_type_symbol
_atom_site_label
_atom_site_fract_x
_atom_site_fract_y
_atom_site_fract_z
Si Si1 0.290678 0.654247 0.100004
Si Si2 0.334560 0.309597 0.680530
Si Si3 0.969440 0.235122 0.714434
Si Si4 0.124021 0.595024 0.031331
Si Si5 0.404286 0.911067 0.458756
Si Si6 0.085611 0.772151 0.939579
Si Si7 0.840491 0.229693 0.540924
Si Si8 0.533890 0.905833 0.760713
O O1 0.250000 0.750000 0.106531
O O2 0.322579 0.634488 0.215381
O O3 0.218786 0.590235 0.067310
O O4 0.354962 0.666927 0.006827
O O5 0.250000 0.250000 0.682645
O O6 0.430958 0.277980 0.698704
O O7 0.334927 0.333110 0.558711
O O8 0.933156 0.201878 0.822479
O O9 0.912089 0.204478 0.620960
O O10 0.964629 0.338769 0.723936
O O11 0.073977 0.625148 0.133045
O O12 0.095966 0.500000 0.000000
O O13 0.116254 0.672349 0.949334
O O14 0.500000 0.910296 0.500000
O O15 0.366196 0.822334 0.494835
O O16 0.403263 0.912596 0.334931
O O17 0.366863 0.000000 0.500000
O O18 0.000000 0.773632 0.000000
O O19 0.750000 0.250000 0.588620
O O20 0.500000 0.000000 0.777700
#
# Coordination Sequence:
#
# PCOD9322515 Si02
#       8
#     8   8   8   8   8   8   8   8
#     4   9  19  36  54  78 109 152 190 234 288 346
#     4  10  18  32  55  80 109 141 193 243 287 343
#     4  12  20  34  53  81 115 151 193 242 292 348
#     4  11  24  36  53  85 122 149 191 241 295 363
#     4  11  19  35  53  79 115 155 191 233 301 362
#     4  11  20  34  55  80 110 152 192 233 292 349
#     4  11  23  33  52  81 122 159 197 241 288 354
#     4  12  20  30  54  81 113 152 186 230 293 365
#
# _framework density 19.708967999999999
#
# number of rings (size 3 to 8) (size 9 to 14) (size 15 to 20)
#    0.000    1.125    6.250    2.625    1.750    1.500 
#    0.000    0.000    0.000    0.375    0.000    0.000 
#    0.000    8.500    0.000    0.000    0.000    0.000 
#
# Total GULP energy -178192.807640 kJ/mol
# GULP energy per Si atom -5568.525239 kJ/mol
# Density = 1.966411 g / cm^3
# Si number density = 19.708968 Si / 1000 Ang^3
#
#
#
# Elastic Constant Matrix: (Units=GPa)
#
#
# Indices 1 2 3 4 5 6 
#
# 1 103.1259 1.0457 46.7091 0.0000 0.0000 0.0000
# 2 1.0457 9.4295 -1.1959 0.0000 0.0000 0.0000
# 3 46.7091 -1.1959 144.6046 0.0000 0.0000 0.0000
# 4 0.0000 0.0000 0.0000 9.8888 0.0000 0.0000
# 5 0.0000 0.0000 0.0000 0.0000 32.2722 0.0000
# 6 0.0000 0.0000 0.0000 0.0000 0.0000 15.1561
#
#
#
# Elastic Compliance Matrix: (Units=1/GPa)
#
#
# Indices 1 2 3 4 5 6 
#
# 1 0.011387 -0.001731 -0.003692 0.000000 0.000000 0.000000
# 2 -0.001731 0.106425 0.001439 0.000000 0.000000 0.000000
# 3 -0.003692 0.001439 0.008120 0.000000 0.000000 0.000000
# 4 0.000000 0.000000 0.000000 0.101124 0.000000 0.000000
# 5 0.000000 0.000000 0.000000 0.000000 0.030986 0.000000
# 6 0.000000 0.000000 0.000000 0.000000 0.000000 0.065980
#
#
# Mechanical properties :
#
#
# Convention : Reuss Voigt Hill
#
# Bulk Modulus (GPa) = 8.47722 38.91975 23.69849
# Shear Modulus (GPa) = 13.46577 25.50348 19.48463
#
# Velocity S-wave (km/s) = 2.61670 3.60113 3.14764
# Velocity P-wave (km/s) = 3.66607 6.08941 5.02598
#
# Compressibility (1/GPa) = 0.11796321
#
# Stress axis : x y z
#
# Youngs Moduli (GPa) = 87.82052 9.39632 123.15255
#
# Poissons Ratio (x) = 0.01627 0.45473
# Poissons Ratio (y) = 0.15202 -0.17725
# Poissons Ratio (z) = 0.32427 -0.01352
#
# Static dielectric constant tensor:
#      x y z
#    x 1.772250 0.000000 0.000000 
#    y 0.000000 1.710190 0.000000 
#    z 0.000000 0.000000 1.752360 
# 
# From -- ./inp_files/25469.got.cif
#   From: 2010.05.17/outbox.cif.g08.bks.cpg/sg21_13_cif.got.tgz:25469.got - 2010.06.03 23:14:55.
