data_PCOD9322444
_publ_section_title
;
Structure prediction by ZEFSAII (Michael W. Deem and Ramdas Pophale) SiO2 
 PCOD9322444
Probable space group: C 2 2 2
;
_chemical_formula_sum "Si O2"
_cell_formula_units_Z 48
_cell_length_a 5.068592
_cell_length_b 20.936292
_cell_length_c 22.285561
_cell_angle_alpha 90.000000
_cell_angle_beta 90.000000
_cell_angle_gamma 90.000000
_cell_volume 2364.888513
_symmetry_space_group_name_H-M "C 2 2 2"
_symmetry_group_IT_number 21
_symmetry_cell_setting 'orthorhombic'
loop_
_space_group_symop_operation_xyz
x,y,z
-x,-y,z
x,-y,-z
-x,y,-z
1/2+x,1/2+y,z
1/2-x,1/2-y,z
1/2+x,1/2-y,-z
1/2-x,1/2+y,-z
loop_
_atom_site_type_symbol
_atom_site_label
_atom_site_fract_x
_atom_site_fract_y
_atom_site_fract_z
Si Si1 0.990363 0.422044 0.069052
Si Si2 0.453331 0.194843 0.308135
Si Si3 0.593006 0.429525 0.407755
Si Si4 0.541047 0.379146 0.279102
Si Si5 0.505109 0.576773 0.143929
Si Si6 0.581600 0.848760 0.437532
O O1 0.721734 0.400810 0.099366
O O2 0.000000 0.500000 0.067605
O O3 0.222879 0.401574 0.113765
O O4 0.000000 0.400983 0.000000
O O5 0.250000 0.250000 0.287472
O O6 0.748059 0.179601 0.285401
O O7 0.471009 0.196195 0.380326
O O8 0.267319 0.135006 0.291313
O O9 0.500000 0.500000 0.424539
O O10 0.616458 0.424032 0.335187
O O11 0.374011 0.378075 0.430110
O O12 0.874991 0.407660 0.432314
O O13 0.553334 0.403257 0.211632
O O14 0.500000 0.500000 0.143412
O O15 0.500000 0.816856 0.500000
#
# Coordination Sequence:
#
# PCOD9322444 Si02
#       6
#     8   8   8   8   8   8
#     4   9  17  28  43  68 105 146 178 200 230 277
#     4  10  21  38  55  71  96 127 160 214 271 303
#     4  10  20  33  50  72 103 136 161 198 247 296
#     4  10  20  34  52  75 100 127 170 210 248 307
#     4  10  18  29  48  73 105 141 171 203 241 288
#     4  10  21  35  51  74  98 125 167 206 245 309
#
# _framework density 20.296941
#
# number of rings (size 3 to 8) (size 9 to 14) (size 15 to 20)
#    0.000    2.167    0.000    3.500    0.000    4.000 
#    0.000   10.000    0.000    0.000    0.000    0.000 
#    0.000   37.333    0.000    0.000    0.000    0.000 
#
# Total GULP energy -133802.807873 kJ/mol
# GULP energy per Si atom -5575.116995 kJ/mol
# Density = 2.025074 g / cm^3
# Si number density = 20.296941 Si / 1000 Ang^3
#
#
#
# Elastic Constant Matrix: (Units=GPa)
#
#
# Indices 1 2 3 4 5 6 
#
# 1 114.4638 9.9616 26.7139 0.0000 0.0000 0.0000
# 2 9.9616 10.1987 -4.1201 0.0000 0.0000 0.0000
# 3 26.7139 -4.1201 145.6893 0.0000 0.0000 0.0000
# 4 0.0000 0.0000 0.0000 -11.0092 0.0000 0.0000
# 5 0.0000 0.0000 0.0000 0.0000 26.3640 0.0000
# 6 0.0000 0.0000 0.0000 0.0000 0.0000 19.2838
#
#
#
# Elastic Compliance Matrix: (Units=1/GPa)
#
#
# Indices 1 2 3 4 5 6 
#
# 1 0.010186 -0.010828 -0.002174 0.000000 0.000000 0.000000
# 2 -0.010828 0.110695 0.005116 0.000000 0.000000 0.000000
# 3 -0.002174 0.005116 0.007407 0.000000 0.000000 0.000000
# 4 0.000000 0.000000 0.000000 -0.090833 0.000000 0.000000
# 5 0.000000 0.000000 0.000000 0.000000 0.037930 0.000000
# 6 0.000000 0.000000 0.000000 0.000000 0.000000 0.051857
#
#
# Mechanical properties :
#
#
# Convention : Reuss Voigt Hill
#
# Bulk Modulus (GPa) = 8.88759 37.27364 23.08062
# Shear Modulus (GPa) = 27.69789 22.78081 25.23935
#
# Velocity S-wave (km/s) = 3.69810 3.35382 3.53016
# Velocity P-wave (km/s) = 4.75635 5.77941 5.29266
#
# Compressibility (1/GPa) = 0.11251646
#
# Stress axis : x y z
#
# Youngs Moduli (GPa) = 98.17341 9.03387 135.00349
#
# Poissons Ratio (x) = 0.09781 0.29349
# Poissons Ratio (y) = 1.06298 -0.69065
# Poissons Ratio (z) = 0.21342 -0.04622
#
# Static dielectric constant tensor:
#      x y z
#    x 1.732000 0.000000 0.000000 
#    y 0.000000 1.806220 0.000000 
#    z 0.000000 0.000000 1.735920 
# 
# From -- ./inp_files/35022.got.cif
#   From: 2010.05.17/outbox.cif.g08.bks.cpg/sg21_18_cif.got.tgz:35022.got - 2010.06.03 23:14:55.
