data_PCOD9322517
_publ_section_title
;
Structure prediction by ZEFSAII (Michael W. Deem and Ramdas Pophale) SiO2 
 PCOD9322517
Probable space group: C 2 2 2
;
_chemical_formula_sum "Si O2"
_cell_formula_units_Z 48
_cell_length_a 19.612966
_cell_length_b 12.083730
_cell_length_c 9.212757
_cell_angle_alpha 90.000000
_cell_angle_beta 90.000000
_cell_angle_gamma 90.000000
_cell_volume 2183.403009
_symmetry_space_group_name_H-M "C 2 2 2"
_symmetry_group_IT_number 21
_symmetry_cell_setting 'orthorhombic'
loop_
_space_group_symop_operation_xyz
x,y,z
-x,-y,z
x,-y,-z
-x,y,-z
1/2+x,1/2+y,z
1/2-x,1/2-y,z
1/2+x,1/2-y,-z
1/2-x,1/2+y,-z
loop_
_atom_site_type_symbol
_atom_site_label
_atom_site_fract_x
_atom_site_fract_y
_atom_site_fract_z
Si Si1 0.687996 0.030659 0.168520
Si Si2 0.635180 0.725377 0.362250
Si Si3 0.873838 0.869944 0.037260
Si Si4 0.448092 0.088623 0.283755
Si Si5 0.750000 0.250000 0.116218
Si Si6 0.500000 0.218684 0.000000
Si Si7 0.251925 0.590833 0.607412
O O1 0.702880 0.159812 0.196634
O O2 0.619740 0.980589 0.239010
O O3 0.753228 0.969430 0.237759
O O4 0.682894 0.000000 0.000000
O O5 0.622779 0.667608 0.206420
O O6 0.571956 0.806884 0.385126
O O7 0.674418 0.630109 0.450975
O O8 0.697143 0.813582 0.365556
O O9 0.802751 0.821780 0.977415
O O10 0.935758 0.798509 0.966908
O O11 0.881155 0.000000 0.000000
O O12 0.500000 0.000000 0.343153
O O13 0.479291 0.141786 0.136013
O O14 0.222581 0.500000 0.500000
#
# Coordination Sequence:
#
# PCOD9322517 Si02
#       7
#     8   8   8   8   4   4   8
#     4  11  21  33  53  83 117 149 191 248 304 358
#     4   9  19  34  54  80 113 153 199 249 295 358
#     4  11  21  34  53  82 123 162 197 246 315 374
#     4  10  18  32  55  84 118 157 198 248 307 366
#     4  12  20  28  48  78 112 144 184 238 292 354
#     4  10  20  32  50  80 120 162 204 250 306 382
#     4  10  20  36  56  80 116 156 194 239 304 366
#
# _framework density 21.984030000000001
#
# number of rings (size 3 to 8) (size 9 to 14) (size 15 to 20)
#    0.000    1.667    0.000    9.000    0.000    1.333 
#    0.000    0.000    0.000    8.000    0.000   18.667 
#    0.000    6.667    0.000    0.000    0.000    0.000 
#
# Total GULP energy -133644.414065 kJ/mol
# GULP energy per Si atom -5568.517253 kJ/mol
# Density = 2.193399 g / cm^3
# Si number density = 21.984030 Si / 1000 Ang^3
#
#
#
# Elastic Constant Matrix: (Units=GPa)
#
#
# Indices 1 2 3 4 5 6 
#
# 1 108.7239 58.5482 17.7665 0.0000 0.0000 0.0000
# 2 58.5482 152.2103 21.4060 0.0000 0.0000 0.0000
# 3 17.7665 21.4060 23.6375 0.0000 0.0000 0.0000
# 4 0.0000 0.0000 0.0000 -101.1645 0.0000 0.0000
# 5 0.0000 0.0000 0.0000 0.0000 23.7333 0.0000
# 6 0.0000 0.0000 0.0000 0.0000 0.0000 53.1041
#
#
#
# Elastic Compliance Matrix: (Units=1/GPa)
#
#
# Indices 1 2 3 4 5 6 
#
# 1 0.012225 -0.003908 -0.005650 0.000000 0.000000 0.000000
# 2 -0.003908 0.008778 -0.005012 0.000000 0.000000 0.000000
# 3 -0.005650 -0.005012 0.051091 0.000000 0.000000 0.000000
# 4 0.000000 0.000000 0.000000 -0.009885 0.000000 0.000000
# 5 0.000000 0.000000 0.000000 0.000000 0.042135 0.000000
# 6 0.000000 0.000000 0.000000 0.000000 0.000000 0.018831
#
#
# Mechanical properties :
#
#
# Convention : Reuss Voigt Hill
#
# Bulk Modulus (GPa) = 23.28024 53.33479 38.30752
# Shear Modulus (GPa) = 30.00608 7.59131 18.79869
#
# Velocity S-wave (km/s) = 3.69847 1.86027 2.92739
# Velocity P-wave (km/s) = 5.37130 5.37843 5.37486
#
# Compressibility (1/GPa) = 0.04295487
#
# Stress axis : x y z
#
# Youngs Moduli (GPa) = 81.79771 113.92235 19.57290
#
# Poissons Ratio (x) = 0.44520 0.11058
# Poissons Ratio (y) = 0.31966 0.09810
# Poissons Ratio (z) = 0.46214 0.57097
#
# Static dielectric constant tensor:
#      x y z
#    x 1.867410 0.000000 0.000000 
#    y 0.000000 1.893050 0.000000 
#    z 0.000000 0.000000 1.871590 
# 
# From -- ./inp_files/26790.got.cif
#   From: 2010.05.17/outbox.cif.g08.bks.cpg/sg21_14_cif.got.tgz:26790.got - 2010.06.03 23:14:55.
