data_PCOD9322094
_publ_section_title
;
Structure prediction by ZEFSAII (Michael W. Deem and Ramdas Pophale) SiO2 
 PCOD9322094
Probable space group: C 2 2 21
;
_chemical_formula_sum "Si O2"
_cell_formula_units_Z 32
_cell_length_a 7.197944
_cell_length_b 32.147184
_cell_length_c 6.282994
_cell_angle_alpha 90.000000
_cell_angle_beta 90.000000
_cell_angle_gamma 90.000000
_cell_volume 1453.844790
_symmetry_space_group_name_H-M "C 2 2 21"
_symmetry_group_IT_number 20
_symmetry_cell_setting 'orthorhombic'
loop_
_space_group_symop_operation_xyz
x,y,z
-x,-y,1/2+z
x,-y,-z
-x,y,1/2-z
1/2+x,1/2+y,z
1/2-x,1/2-y,1/2+z
1/2+x,1/2-y,-z
1/2-x,1/2+y,1/2-z
loop_
_atom_site_type_symbol
_atom_site_label
_atom_site_fract_x
_atom_site_fract_y
_atom_site_fract_z
Si Si1 0.500000 0.735149 0.750000
Si Si2 0.363247 0.805806 0.439044
Si Si3 0.699417 0.380316 0.634817
Si Si4 0.000000 0.090375 0.750000
Si Si5 0.185764 0.038575 0.119692
O O1 0.442352 0.764813 0.554317
O O2 0.329199 0.707512 0.828705
O O3 0.500000 0.820041 0.250000
O O4 0.325831 0.839991 0.623473
O O5 0.500000 0.372425 0.750000
O O6 0.650276 0.385708 0.387147
O O7 0.770458 0.424689 0.730847
O O8 0.892291 0.063656 0.578868
O O9 0.000000 0.023585 0.250000
O O10 0.286871 0.000000 0.000000
#
# Coordination Sequence:
#
# PCOD9322094 Si02
#       5
#     4   8   8   4   8
#     4  12  27  44  70  98 128 184 230 286 344 419
#     4  12  26  45  67  96 138 179 230 287 350 406
#     4   9  21  33  58  91 133 174 223 283 334 404
#     4   8  15  30  50  84 132 164 206 280 322 387
#     4   9  15  26  50  86 134 174 215 275 336 394
#
# _framework density 22.0106
#
# number of rings (size 3 to 8) (size 9 to 14) (size 15 to 20)
#    0.000    2.500    3.750    0.750    3.500    4.000 
#    0.000    0.000    0.000    0.000    0.000    0.000 
#   37.500    2.500    0.000    0.000    0.000    0.000 
#
# Total GULP energy -89121.716167 kJ/mol
# GULP energy per Si atom -5570.107260 kJ/mol
# Density = 2.196050 g / cm^3
# Si number density = 22.010600 Si / 1000 Ang^3
#
#
#
# Elastic Constant Matrix: (Units=GPa)
#
#
# Indices 1 2 3 4 5 6 
#
# 1 89.2266 42.3893 28.1110 0.0000 0.0000 0.0000
# 2 42.3893 141.9716 31.6959 0.0000 0.0000 0.0000
# 3 28.1110 31.6959 100.1644 0.0000 0.0000 0.0000
# 4 0.0000 0.0000 0.0000 240.4087 0.0000 0.0000
# 5 0.0000 0.0000 0.0000 0.0000 33.3037 0.0000
# 6 0.0000 0.0000 0.0000 0.0000 0.0000 -12.4148
#
#
#
# Elastic Compliance Matrix: (Units=1/GPa)
#
#
# Indices 1 2 3 4 5 6 
#
# 1 0.013730 -0.003485 -0.002750 0.000000 0.000000 0.000000
# 2 -0.003485 0.008464 -0.001700 0.000000 0.000000 0.000000
# 3 -0.002750 -0.001700 0.011293 0.000000 0.000000 0.000000
# 4 0.000000 0.000000 0.000000 0.004160 0.000000 0.000000
# 5 0.000000 0.000000 0.000000 0.000000 0.030027 0.000000
# 6 0.000000 0.000000 0.000000 0.000000 0.000000 -0.080549
#
#
# Mechanical properties :
#
#
# Convention : Reuss Voigt Hill
#
# Bulk Modulus (GPa) = 56.76845 59.52834 58.14840
# Shear Modulus (GPa) = 563.85525 67.53728 315.69627
#
# Velocity S-wave (km/s) = 16.02281 5.54532 11.98919
# Velocity P-wave (km/s) = 19.18736 8.25256 14.76922
#
# Compressibility (1/GPa) = 0.01761542
#
# Stress axis : x y z
#
# Youngs Moduli (GPa) = 72.83470 118.14936 88.54690
#
# Poissons Ratio (x) = 0.41179 0.24353
# Poissons Ratio (y) = 0.25385 0.15054
# Poissons Ratio (z) = 0.20032 0.20087
#
# Static dielectric constant tensor:
#      x y z
#    x 1.752660 0.000000 0.000000 
#    y 0.000000 1.895790 0.000000 
#    z 0.000000 0.000000 1.572680 
# 
# From -- ./inp_files/721.got.cif
#   From: 2010.05.17/outbox.cif.g08.bks.cpg/sg20_1_cif.got.tgz:721.got - 2010.06.03 22:52:26.
