data_PCOD9322759
_publ_section_title
;
Structure prediction by ZEFSAII (Michael W. Deem and Ramdas Pophale) SiO2 
 PCOD9322759
Probable space group: C 2 2 2
;
_chemical_formula_sum "Si O2"
_cell_formula_units_Z 48
_cell_length_a 25.003404
_cell_length_b 14.633920
_cell_length_c 5.488239
_cell_angle_alpha 90.000000
_cell_angle_beta 90.000000
_cell_angle_gamma 90.000000
_cell_volume 2008.134652
_symmetry_space_group_name_H-M "C 2 2 2"
_symmetry_group_IT_number 21
_symmetry_cell_setting 'orthorhombic'
loop_
_space_group_symop_operation_xyz
x,y,z
-x,-y,z
x,-y,-z
-x,y,-z
1/2+x,1/2+y,z
1/2-x,1/2-y,z
1/2+x,1/2-y,-z
1/2-x,1/2+y,-z
loop_
_atom_site_type_symbol
_atom_site_label
_atom_site_fract_x
_atom_site_fract_y
_atom_site_fract_z
Si Si1 0.529473 0.637745 0.751605
Si Si2 0.740992 0.917931 0.813482
Si Si3 0.857574 0.645156 0.567975
Si Si4 0.695509 0.230906 0.821865
Si Si5 0.970735 0.361107 0.249782
Si Si6 0.850462 0.151431 0.207377
O O1 0.500000 0.611376 0.500000
O O2 0.530096 0.749566 0.755843
O O3 0.591476 0.608550 0.762677
O O4 0.500000 0.609002 0.000000
O O5 0.693196 0.916037 0.625094
O O6 0.799920 0.906174 0.704893
O O7 0.724204 0.829598 0.972137
O O8 0.740760 0.000000 0.000000
O O9 0.851774 0.666182 0.282146
O O10 0.909897 0.608561 0.700457
O O11 0.851508 0.750732 0.657801
O O12 0.750000 0.250000 0.661922
O O13 0.665233 0.319144 0.929904
O O14 0.000000 0.387526 0.500000
O O15 0.000000 0.390300 0.000000
#
# Coordination Sequence:
#
# PCOD9322759 Si02
#       6
#     8   8   8   8   8   8
#     4   9  18  30  50  82 117 145 182 231 283 339
#     4  10  21  36  52  80 113 149 193 238 289 352
#     4  10  19  32  57  79 113 145 187 239 294 347
#     4   9  18  32  54  83 111 147 185 236 295 354
#     4   9  19  30  51  83 114 143 181 233 288 343
#     4   9  19  32  54  81 114 146 185 237 294 343
#
# _framework density 23.902778000000001
#
# number of rings (size 3 to 8) (size 9 to 14) (size 15 to 20)
#    0.000    2.667    0.000    2.500   14.000    0.667 
#    0.000    0.000    0.000    1.000    0.000    1.167 
#    0.000    0.000    0.000    0.000    0.000    0.000 
#
# Total GULP energy -133785.017569 kJ/mol
# GULP energy per Si atom -5574.375732 kJ/mol
# Density = 2.384837 g / cm^3
# Si number density = 23.902778 Si / 1000 Ang^3
#
#
#
# Elastic Constant Matrix: (Units=GPa)
#
#
# Indices 1 2 3 4 5 6 
#
# 1 186.5439 7.6031 73.5046 0.0000 0.0000 0.0000
# 2 7.6031 49.4942 1.8600 0.0000 0.0000 0.0000
# 3 73.5046 1.8600 106.1051 0.0000 0.0000 0.0000
# 4 0.0000 0.0000 0.0000 12.0765 0.0000 0.0000
# 5 0.0000 0.0000 0.0000 0.0000 14.4542 0.0000
# 6 0.0000 0.0000 0.0000 0.0000 0.0000 -10.8356
#
#
#
# Elastic Compliance Matrix: (Units=1/GPa)
#
#
# Indices 1 2 3 4 5 6 
#
# 1 0.007417 -0.000947 -0.005122 0.000000 0.000000 0.000000
# 2 -0.000947 0.020339 0.000299 0.000000 0.000000 0.000000
# 3 -0.005122 0.000299 0.012968 0.000000 0.000000 0.000000
# 4 0.000000 0.000000 0.000000 0.082805 0.000000 0.000000
# 5 0.000000 0.000000 0.000000 0.000000 0.069184 0.000000
# 6 0.000000 0.000000 0.000000 0.000000 0.000000 -0.092288
#
#
# Mechanical properties :
#
#
# Convention : Reuss Voigt Hill
#
# Bulk Modulus (GPa) = 34.26427 56.45316 45.35872
# Shear Modulus (GPa) = 41.08739 20.41739 30.75239
#
# Velocity S-wave (km/s) = 4.15051 2.92581 3.59076
# Velocity P-wave (km/s) = 6.11023 5.92309 6.01739
#
# Compressibility (1/GPa) = 0.02918492
#
# Stress axis : x y z
#
# Youngs Moduli (GPa) = 134.81724 49.16762 77.11556
#
# Poissons Ratio (x) = 0.04656 0.39497
# Poissons Ratio (y) = 0.12767 -0.02309
# Poissons Ratio (z) = 0.69051 -0.01472
#
# Static dielectric constant tensor:
#      x y z
#    x 1.992240 0.000000 0.000000 
#    y 0.000000 1.913850 0.000000 
#    z 0.000000 0.000000 2.180480 
# 
# From -- ./inp_files/6724.got.cif
#   From: 2010.05.17/outbox.cif.g08.bks.cpg/sg21_4_cif.got.tgz:6724.got - 2010.06.03 23:14:55.
