data_PCOD9322792
_publ_section_title
;
Structure prediction by ZEFSAII (Michael W. Deem and Ramdas Pophale) SiO2 
 PCOD9322792
Probable space group: C 2 2 2
;
_chemical_formula_sum "Si O2"
_cell_formula_units_Z 48
_cell_length_a 30.776305
_cell_length_b 9.605355
_cell_length_c 7.971031
_cell_angle_alpha 90.000000
_cell_angle_beta 90.000000
_cell_angle_gamma 90.000000
_cell_volume 2356.374942
_symmetry_space_group_name_H-M "C 2 2 2"
_symmetry_group_IT_number 21
_symmetry_cell_setting 'orthorhombic'
loop_
_space_group_symop_operation_xyz
x,y,z
-x,-y,z
x,-y,-z
-x,y,-z
1/2+x,1/2+y,z
1/2-x,1/2-y,z
1/2+x,1/2-y,-z
1/2-x,1/2+y,-z
loop_
_atom_site_type_symbol
_atom_site_label
_atom_site_fract_x
_atom_site_fract_y
_atom_site_fract_z
Si Si1 0.414608 0.175227 0.670567
Si Si2 0.340567 0.613467 0.249014
Si Si3 0.078949 0.642031 0.732134
Si Si4 0.769325 0.000000 0.500000
Si Si5 0.157444 0.817600 0.861210
Si Si6 0.250000 0.750000 0.701532
Si Si7 0.498690 0.339061 0.705462
O O1 0.370552 0.262562 0.687767
O O2 0.419039 0.156608 0.470360
O O3 0.452410 0.271824 0.744798
O O4 0.420508 0.024582 0.756413
O O5 0.299672 0.586372 0.370108
O O6 0.359912 0.456747 0.234413
O O7 0.333655 0.651722 0.055464
O O8 0.121178 0.703495 0.823847
O O9 0.036829 0.737738 0.773588
O O10 0.741224 0.112655 0.594640
O O11 0.205184 0.781419 0.794365
O O12 0.500000 0.500000 0.760601
O O13 0.500000 0.339604 0.500000
#
# Coordination Sequence:
#
# PCOD9322792 Si02
#       7
#     8   8   8   4   8   4   8
#     4  10  19  33  56  84 116 155 196 238 288 347
#     4  10  21  39  60  83 112 152 192 237 293 351
#     4  10  20  34  54  84 119 152 193 245 294 345
#     4  10  22  40  64  88 115 150 199 244 286 352
#     4  10  22  39  58  83 116 150 190 241 298 352
#     4  10  22  40  62  88 116 150 192 242 294 350
#     4   9  17  30  53  83 114 153 200 243 283 336
#
# _framework density 20.370273999999998
#
# number of rings (size 3 to 8) (size 9 to 14) (size 15 to 20)
#    0.000    2.167    0.000    3.500    0.000    8.667 
#    0.000    5.833    0.000    5.000    0.000    0.000 
#    0.000    0.000    0.000    0.000    0.000    0.000 
#
# Total GULP energy -133785.456113 kJ/mol
# GULP energy per Si atom -5574.394005 kJ/mol
# Density = 2.032391 g / cm^3
# Si number density = 20.370274 Si / 1000 Ang^3
#
#
#
# Elastic Constant Matrix: (Units=GPa)
#
#
# Indices 1 2 3 4 5 6 
#
# 1 45.9767 49.2896 1.4678 0.0000 0.0000 0.0000
# 2 49.2896 168.7011 19.3359 0.0000 0.0000 0.0000
# 3 1.4678 19.3359 20.5029 0.0000 0.0000 0.0000
# 4 0.0000 0.0000 0.0000 19.6911 0.0000 0.0000
# 5 0.0000 0.0000 0.0000 0.0000 -9.1725 0.0000
# 6 0.0000 0.0000 0.0000 0.0000 0.0000 32.8756
#
#
#
# Elastic Compliance Matrix: (Units=1/GPa)
#
#
# Indices 1 2 3 4 5 6 
#
# 1 0.032659 -0.010398 0.007468 0.000000 0.000000 0.000000
# 2 -0.010398 0.009957 -0.008645 0.000000 0.000000 0.000000
# 3 0.007468 -0.008645 0.056392 0.000000 0.000000 0.000000
# 4 0.000000 0.000000 0.000000 0.050784 0.000000 0.000000
# 5 0.000000 0.000000 0.000000 0.000000 -0.109022 0.000000
# 6 0.000000 0.000000 0.000000 0.000000 0.000000 0.030418
#
#
# Mechanical properties :
#
#
# Convention : Reuss Voigt Hill
#
# Bulk Modulus (GPa) = 13.18265 41.70749 27.44507
# Shear Modulus (GPa) = 41.79736 19.68467 30.74102
#
# Velocity S-wave (km/s) = 4.53468 3.11198 3.88894
# Velocity P-wave (km/s) = 5.82266 5.78201 5.80237
#
# Compressibility (1/GPa) = 0.07585729
#
# Stress axis : x y z
#
# Youngs Moduli (GPa) = 30.61950 100.43644 17.73287
#
# Poissons Ratio (x) = 1.04434 -0.13243
# Poissons Ratio (y) = 0.31838 0.15331
# Poissons Ratio (z) = -0.22867 0.86832
#
# Static dielectric constant tensor:
#      x y z
#    x 1.684190 0.000000 0.000000 
#    y 0.000000 1.740790 0.000000 
#    z 0.000000 0.000000 1.778450 
# 
# From -- ./inp_files/11584.got.cif
#   From: 2010.05.17/outbox.cif.g08.bks.cpg/sg21_6_cif.got.tgz:11584.got - 2010.06.03 23:14:55.
