data_PCOD9322067
_publ_section_title
;
Structure prediction by ZEFSAII (Michael W. Deem and Ramdas Pophale) SiO2 
 PCOD9322067
Probable space group: C 2 2 21
;
_chemical_formula_sum "Si O2"
_cell_formula_units_Z 40
_cell_length_a 27.716892
_cell_length_b 4.793714
_cell_length_c 11.196779
_cell_angle_alpha 90.000000
_cell_angle_beta 90.000000
_cell_angle_gamma 90.000000
_cell_volume 1487.680792
_symmetry_space_group_name_H-M "C 2 2 21"
_symmetry_group_IT_number 20
_symmetry_cell_setting 'orthorhombic'
loop_
_space_group_symop_operation_xyz
x,y,z
-x,-y,1/2+z
x,-y,-z
-x,y,1/2-z
1/2+x,1/2+y,z
1/2-x,1/2-y,1/2+z
1/2+x,1/2-y,-z
1/2-x,1/2+y,1/2-z
loop_
_atom_site_type_symbol
_atom_site_label
_atom_site_fract_x
_atom_site_fract_y
_atom_site_fract_z
Si Si1 0.361438 0.334722 0.335299
Si Si2 0.618131 0.156232 0.673880
Si Si3 0.681907 0.500000 0.500000
Si Si4 0.989036 0.167310 0.123505
Si Si5 0.240908 0.597640 0.178003
Si Si6 0.931278 0.500000 0.500000
O O1 0.369253 0.648608 0.290188
O O2 0.372058 0.156192 0.215648
O O3 0.307366 0.240677 0.373156
O O4 0.398026 0.228846 0.435579
O O5 0.648533 0.274361 0.563357
O O6 0.562423 0.189480 0.639782
O O7 0.721656 0.580823 0.599183
O O8 0.000000 0.014795 0.250000
O O9 0.033111 0.377187 0.100090
O O10 0.987222 0.000000 0.000000
O O11 0.271188 0.860662 0.225927
#
# Coordination Sequence:
#
# PCOD9322067 Si02
#       6
#     8   8   4   8   8   4
#     4  12  26  52  74 115 156 205 258 327 397 477
#     4  12  27  47  79 107 158 202 264 322 398 474
#     4  12  25  48  76 110 148 210 249 326 392 480
#     4  12  27  49  77 115 155 215 268 334 403 481
#     4  12  25  46  76 112 151 196 256 319 388 472
#     4  12  29  46  82 110 162 206 269 322 410 476
#
# _framework density 26.887487
#
# number of rings (size 3 to 8) (size 9 to 14) (size 15 to 20)
#    0.000    0.000    7.000    1.800    2.800    4.000 
#    0.000    4.000    0.000    0.000    0.000    0.000 
#    0.000    0.000    0.000    0.000    0.000    0.000 
#
# Total GULP energy -112109.791760 kJ/mol
# GULP energy per Si atom -5605.489588 kJ/mol
# Density = 2.682629 g / cm^3
# Si number density = 26.887487 Si / 1000 Ang^3
#
#
#
# Elastic Constant Matrix: (Units=GPa)
#
#
# Indices 1 2 3 4 5 6 
#
# 1 207.4694 15.3500 39.6303 0.0000 0.0000 0.0000
# 2 15.3500 81.5208 34.4874 0.0000 0.0000 0.0000
# 3 39.6303 34.4874 129.6652 0.0000 0.0000 0.0000
# 4 0.0000 0.0000 0.0000 41.9227 0.0000 0.0000
# 5 0.0000 0.0000 0.0000 0.0000 52.5471 0.0000
# 6 0.0000 0.0000 0.0000 0.0000 0.0000 17.0296
#
#
#
# Elastic Compliance Matrix: (Units=1/GPa)
#
#
# Indices 1 2 3 4 5 6 
#
# 1 0.005127 -0.000341 -0.001476 0.000000 0.000000 0.000000
# 2 -0.000341 0.013845 -0.003578 0.000000 0.000000 0.000000
# 3 -0.001476 -0.003578 0.009115 0.000000 0.000000 0.000000
# 4 0.000000 0.000000 0.000000 0.023853 0.000000 0.000000
# 5 0.000000 0.000000 0.000000 0.000000 0.019031 0.000000
# 6 0.000000 0.000000 0.000000 0.000000 0.000000 0.058721
#
#
# Mechanical properties :
#
#
# Convention : Reuss Voigt Hill
#
# Bulk Modulus (GPa) = 57.81595 66.39899 62.10747
# Shear Modulus (GPa) = 34.18836 44.24571 39.21703
#
# Velocity S-wave (km/s) = 3.56973 4.06099 3.82325
# Velocity P-wave (km/s) = 6.20807 6.83649 6.52984
#
# Compressibility (1/GPa) = 0.01729626
#
# Stress axis : x y z
#
# Youngs Moduli (GPa) = 195.03726 72.22965 109.70800
#
# Poissons Ratio (x) = 0.02462 0.16197
# Poissons Ratio (y) = 0.06648 0.39255
# Poissons Ratio (z) = 0.28796 0.25845
#
# Static dielectric constant tensor:
#      x y z
#    x 2.062720 0.000000 0.000000 
#    y 0.000000 2.029530 0.000000 
#    z 0.000000 0.000000 2.326490 
# 
# From -- ./inp_files/16901.got.cif
#   From: 2010.05.17/outbox.cif.g08.bks.cpg/sg20_9_cif.got.tgz:16901.got - 2010.06.03 22:52:26.
