data_PCOD9322478
_publ_section_title
;
Structure prediction by ZEFSAII (Michael W. Deem and Ramdas Pophale) SiO2 
 PCOD9322478
Probable space group: C 2 2 2
;
_chemical_formula_sum "Si O2"
_cell_formula_units_Z 34
_cell_length_a 9.788734
_cell_length_b 16.520932
_cell_length_c 10.104928
_cell_angle_alpha 90.000000
_cell_angle_beta 90.000000
_cell_angle_gamma 90.000000
_cell_volume 1634.158940
_symmetry_space_group_name_H-M "C 2 2 2"
_symmetry_group_IT_number 21
_symmetry_cell_setting 'orthorhombic'
loop_
_space_group_symop_operation_xyz
x,y,z
-x,-y,z
x,-y,-z
-x,y,-z
1/2+x,1/2+y,z
1/2-x,1/2-y,z
1/2+x,1/2-y,-z
1/2-x,1/2+y,-z
loop_
_atom_site_type_symbol
_atom_site_label
_atom_site_fract_x
_atom_site_fract_y
_atom_site_fract_z
Si Si1 0.413210 0.117528 0.122689
Si Si2 0.250000 0.750000 0.483119
Si Si3 0.304038 0.387087 0.324025
Si Si4 0.500000 0.500000 0.500000
Si Si5 0.250000 0.750000 0.040614
Si Si6 0.460005 0.734146 0.252746
O O1 0.303544 0.074374 0.219472
O O2 0.509206 0.172236 0.217142
O O3 0.500000 0.081478 0.000000
O O4 0.325127 0.185371 0.047960
O O5 0.224255 0.671657 0.573738
O O6 0.377976 0.730402 0.389433
O O7 0.399610 0.447935 0.405766
O O8 0.408495 0.322926 0.256471
O O9 0.358805 0.706910 0.136229
#
# Coordination Sequence:
#
# PCOD9322478 Si02
#       6
#     8   4   8   2   4   8
#     4  10  19  33  57  97 127 164 220 278 327 382
#     4  11  19  32  58  92 129 163 220 268 336 377
#     4  12  21  37  59  94 135 171 213 280 328 408
#     4  12  28  40  60 100 144 174 224 264 360 396
#     4   9  17  28  54  98 123 153 206 290 318 371
#     4  10  18  30  56  95 125 156 208 274 323 379
#
# _framework density 20.805810000000001
#
# number of rings (size 3 to 8) (size 9 to 14) (size 15 to 20)
#    0.000    1.412    7.059    0.000    0.000    0.000 
#    0.000    0.000    0.000    5.647    6.118    0.000 
#    0.000    0.000    0.000    0.000    0.000    0.000 
#
# Total GULP energy -94776.900610 kJ/mol
# GULP energy per Si atom -5575.111801 kJ/mol
# Density = 2.075846 g / cm^3
# Si number density = 20.805810 Si / 1000 Ang^3
#
#
#
# Elastic Constant Matrix: (Units=GPa)
#
#
# Indices 1 2 3 4 5 6 
#
# 1 86.3476 16.6809 51.8943 0.0000 0.0000 0.0000
# 2 16.6809 60.3852 24.8584 0.0000 0.0000 0.0000
# 3 51.8943 24.8584 115.0214 0.0000 0.0000 0.0000
# 4 0.0000 0.0000 0.0000 -16.6716 0.0000 0.0000
# 5 0.0000 0.0000 0.0000 0.0000 -25.9433 0.0000
# 6 0.0000 0.0000 0.0000 0.0000 0.0000 12.0445
#
#
#
# Elastic Compliance Matrix: (Units=1/GPa)
#
#
# Indices 1 2 3 4 5 6 
#
# 1 0.016028 -0.001592 -0.006887 0.000000 0.000000 0.000000
# 2 -0.001592 0.018336 -0.003244 0.000000 0.000000 0.000000
# 3 -0.006887 -0.003244 0.012502 0.000000 0.000000 0.000000
# 4 0.000000 0.000000 0.000000 -0.059982 0.000000 0.000000
# 5 0.000000 0.000000 0.000000 0.000000 -0.038546 0.000000
# 6 0.000000 0.000000 0.000000 0.000000 0.000000 0.083025
#
#
# Mechanical properties :
#
#
# Convention : Reuss Voigt Hill
#
# Bulk Modulus (GPa) = 42.70136 49.84685 46.27410
# Shear Modulus (GPa) = 79.85025 5.10730 42.47877
#
# Velocity S-wave (km/s) = 6.20179 1.56846 4.52340
# Velocity P-wave (km/s) = 8.47651 5.22401 7.04065
#
# Compressibility (1/GPa) = 0.02341846
#
# Stress axis : x y z
#
# Youngs Moduli (GPa) = 62.39142 54.53819 79.98418
#
# Poissons Ratio (x) = 0.08684 0.55086
# Poissons Ratio (y) = 0.09935 0.25949
# Poissons Ratio (z) = 0.42970 0.17694
#
# Static dielectric constant tensor:
#      x y z
#    x 1.825130 0.000000 0.000000 
#    y 0.000000 2.045600 0.000000 
#    z 0.000000 0.000000 1.790650 
# 
# From -- ./inp_files/12672.got.cif
#   From: 2010.05.17/outbox.cif.g08.bks.cpg/sg21_7_cif.got.tgz:12672.got - 2010.06.03 23:14:55.
