data_PCOD9322190
_publ_section_title
;
Structure prediction by ZEFSAII (Michael W. Deem and Ramdas Pophale) SiO2 
 PCOD9322190
Probable space group: C 2 2 21
;
_chemical_formula_sum "Si O2"
_cell_formula_units_Z 32
_cell_length_a 12.000000
_cell_length_b 30.000000
_cell_length_c 9.000000
_cell_angle_alpha 90.000000
_cell_angle_beta 90.000000
_cell_angle_gamma 90.000000
_cell_volume 3240.000000
_symmetry_space_group_name_H-M "C 2 2 21"
_symmetry_group_IT_number 20
_symmetry_cell_setting 'orthorhombic'
loop_
_space_group_symop_operation_xyz
x,y,z
-x,-y,1/2+z
x,-y,-z
-x,y,1/2-z
1/2+x,1/2+y,z
1/2-x,1/2-y,1/2+z
1/2+x,1/2-y,-z
1/2-x,1/2+y,1/2-z
loop_
_atom_site_type_symbol
_atom_site_label
_atom_site_fract_x
_atom_site_fract_y
_atom_site_fract_z
Si Si1 0.863613 0.621749 0.395043
Si Si2 0.206821 0.895174 0.148080
Si Si3 0.053937 0.810696 0.105662
Si Si4 0.732989 0.727011 0.122213
Si Si5 0.109679 0.355217 0.561167
Si Si6 0.483674 0.548219 0.569003
Si Si7 0.325259 0.306696 0.949497
Si Si8 0.772227 0.052334 0.955575
O O1 0.873077 0.619666 0.217631
O O2 0.758763 0.652463 0.435138
O O3 0.829920 0.574385 0.459165
O O4 0.977056 0.642684 0.461285
O O5 0.123910 0.852658 0.173744
O O6 0.126711 0.923637 0.040094
O O7 0.235267 0.927055 0.287812
O O8 0.317289 0.877349 0.068308
O O9 0.000000 0.787097 0.250000
O O10 0.139771 0.784343 0.001731
O O11 0.949605 0.820791 0.996572
O O12 0.836028 0.693081 0.092877
O O13 0.685500 0.718720 0.288794
O O14 0.777483 0.775445 0.080716
O O15 0.467810 0.500000 0.500000
O O16 0.500000 0.546170 0.750000
O O17 0.600169 0.566487 0.504465
O O18 0.770918 0.000000 0.000000
#
# Coordination Sequence:
#
# PCOD9322190 Si02
#       8
#     8   8   8   8   8   8   8   8
#     4  10  21  41  61  82 117 168 199 254 317 368
#     4  10  20  37  59  87 119 157 202 253 309 375
#     4  11  21  37  60  86 121 161 206 260 316 377
#     4  10  23  39  58  93 124 165 213 265 320 379
#     4   9  22  40  59  83 123 160 207 251 307 375
#     4   9  18  32  52  81 114 143 182 239 299 355
#     4  11  22  38  63  89 125 164 214 265 319 386
#     4  10  21  38  60  89 122 154 203 257 310 376
#
# _framework density 9.8765429999999999
#
# number of rings (size 3 to 8) (size 9 to 14) (size 15 to 20)
#    0.000    2.000    0.000    3.750    1.750    4.500 
#    0.000    5.625    0.000    0.000    0.000    0.000 
#    0.000    0.000    0.000    0.000    0.000    0.000 
#
# Total GULP energy -178370.201548 kJ/mol
# GULP energy per Si atom -5574.068798 kJ/mol
# Density = 0.985406 g / cm^3
# Si number density = 9.876543 Si / 1000 Ang^3
#
#
#
# Elastic Constant Matrix: (Units=GPa)
#
#
# Indices 1 2 3 4 5 6 
#
# 1 97.2675 17.9234 19.5742 0.0000 0.0000 0.0000
# 2 17.9234 51.2605 22.3322 0.0000 0.0000 0.0000
# 3 19.5742 22.3322 57.1332 0.0000 0.0000 0.0000
# 4 0.0000 0.0000 0.0000 32.6255 0.0000 0.0000
# 5 0.0000 0.0000 0.0000 0.0000 28.4782 0.0000
# 6 0.0000 0.0000 0.0000 0.0000 0.0000 19.0549
#
#
#
# Elastic Compliance Matrix: (Units=1/GPa)
#
#
# Indices 1 2 3 4 5 6 
#
# 1 0.011353 -0.002742 -0.002818 0.000000 0.000000 0.000000
# 2 -0.002742 0.024174 -0.008510 0.000000 0.000000 0.000000
# 3 -0.002818 -0.008510 0.021795 0.000000 0.000000 0.000000
# 4 0.000000 0.000000 0.000000 0.030651 0.000000 0.000000
# 5 0.000000 0.000000 0.000000 0.000000 0.035115 0.000000
# 6 0.000000 0.000000 0.000000 0.000000 0.000000 0.052480
#
#
# Mechanical properties :
#
#
# Convention : Reuss Voigt Hill
#
# Bulk Modulus (GPa) = 34.26675 36.14675 35.20675
# Shear Modulus (GPa) = 23.42636 25.75383 24.59009
#
# Velocity S-wave (km/s) = 3.44751 3.61472 3.53210
# Velocity P-wave (km/s) = 5.76475 5.98002 5.87337
#
# Compressibility (1/GPa) = 0.02918281
#
# Stress axis : x y z
#
# Youngs Moduli (GPa) = 88.08032 41.36617 45.88275
#
# Poissons Ratio (x) = 0.11343 0.12929
# Poissons Ratio (y) = 0.24152 0.39045
# Poissons Ratio (z) = 0.24820 0.35202
#
# Static dielectric constant tensor:
#      x y z
#    x 1.701160 0.000000 0.000000 
#    y 0.000000 1.733350 0.000000 
#    z 0.000000 0.000000 1.720360 
# 
# From -- ./inp_files/7697.got.cif
#   From: 2010.05.17/outbox.ucp.g08.bks.cvg/sg20_4_cif.got.tgz:7697.got - 2010.06.11 15:13:06.
