data_PCOD9322353
_publ_section_title
;
Structure prediction by ZEFSAII (Michael W. Deem and Ramdas Pophale) SiO2 
 PCOD9322353
Probable space group: C 2 2 2
;
_chemical_formula_sum "Si O2"
_cell_formula_units_Z 20
_cell_length_a 7.525521
_cell_length_b 11.092214
_cell_length_c 9.119855
_cell_angle_alpha 90.000000
_cell_angle_beta 90.000000
_cell_angle_gamma 90.000000
_cell_volume 761.277063
_symmetry_space_group_name_H-M "C 2 2 2"
_symmetry_group_IT_number 21
_symmetry_cell_setting 'orthorhombic'
loop_
_space_group_symop_operation_xyz
x,y,z
-x,-y,z
x,-y,-z
-x,y,-z
1/2+x,1/2+y,z
1/2-x,1/2-y,z
1/2+x,1/2-y,-z
1/2-x,1/2+y,-z
loop_
_atom_site_type_symbol
_atom_site_label
_atom_site_fract_x
_atom_site_fract_y
_atom_site_fract_z
Si Si1 0.585782 0.341497 0.661682
Si Si2 0.500000 0.000000 0.000000
Si Si3 0.735509 0.094867 0.249689
Si Si4 0.000000 0.500000 0.500000
O O1 0.500000 0.359419 0.500000
O O2 0.750000 0.250000 0.662420
O O3 0.404362 0.315599 0.752209
O O4 0.671769 0.462688 0.726035
O O5 0.378005 0.919181 0.104396
O O6 0.611443 0.088306 0.394717
#
# Coordination Sequence:
#
# PCOD9322353 Si02
#       4
#     8   2   8   2
#     4  11  23  39  69 106 145 181 242 303 358 423
#     4  10  24  40  76  94 144 198 240 268 388 430
#     4  10  21  43  66 107 137 194 233 298 350 443
#     4  10  16  36  72  90 142 176 228 292 348 394
#
# _framework density 26.271642
#
# number of rings (size 3 to 8) (size 9 to 14) (size 15 to 20)
#    0.000    1.600    4.000    1.200    2.800    3.200 
#    0.000    4.000    0.000    2.400    0.000    0.000 
#    0.000    0.000    0.000    0.000    0.000    0.000 
#
# Total GULP energy -56005.563320 kJ/mol
# GULP energy per Si atom -5600.556332 kJ/mol
# Density = 2.621185 g / cm^3
# Si number density = 26.271642 Si / 1000 Ang^3
#
#
#
# Elastic Constant Matrix: (Units=GPa)
#
#
# Indices 1 2 3 4 5 6 
#
# 1 271.2812 48.5019 113.8617 0.0000 0.0000 0.0000
# 2 48.5019 80.7772 50.0882 0.0000 0.0000 0.0000
# 3 113.8617 50.0882 173.1718 0.0000 0.0000 0.0000
# 4 0.0000 0.0000 0.0000 23.2027 0.0000 0.0000
# 5 0.0000 0.0000 0.0000 0.0000 65.1345 0.0000
# 6 0.0000 0.0000 0.0000 0.0000 0.0000 57.6780
#
#
#
# Elastic Compliance Matrix: (Units=1/GPa)
#
#
# Indices 1 2 3 4 5 6 
#
# 1 0.005188 -0.001218 -0.003059 0.000000 0.000000 0.000000
# 2 -0.001218 0.015371 -0.003645 0.000000 0.000000 0.000000
# 3 -0.003059 -0.003645 0.008840 0.000000 0.000000 0.000000
# 4 0.000000 0.000000 0.000000 0.043098 0.000000 0.000000
# 5 0.000000 0.000000 0.000000 0.000000 0.015353 0.000000
# 6 0.000000 0.000000 0.000000 0.000000 0.000000 0.017338
#
#
# Mechanical properties :
#
#
# Convention : Reuss Voigt Hill
#
# Bulk Modulus (GPa) = 73.77180 105.57040 89.67110
# Shear Modulus (GPa) = 39.82464 50.05492 44.93978
#
# Velocity S-wave (km/s) = 3.89765 4.36969 4.14040
# Velocity P-wave (km/s) = 6.95679 8.10742 7.55405
#
# Compressibility (1/GPa) = 0.01355531
#
# Stress axis : x y z
#
# Youngs Moduli (GPa) = 192.75993 65.05566 113.12307
#
# Poissons Ratio (x) = 0.07926 0.34600
# Poissons Ratio (y) = 0.23486 0.41233
# Poissons Ratio (z) = 0.58958 0.23712
#
# Static dielectric constant tensor:
#      x y z
#    x 2.174500 0.000000 0.000000 
#    y 0.000000 2.364820 0.000000 
#    z 0.000000 0.000000 1.978570 
# 
# From -- ./inp_files/9670.got.cif
#   From: 2010.05.17/outbox.cif.g08.bks.cpg/sg21_5_cif.got.tgz:9670.got - 2010.06.03 23:14:55.
