data_PCOD9322231
_publ_section_title
;
Structure prediction by ZEFSAII (Michael W. Deem and Ramdas Pophale) SiO2 
 PCOD9322231
Probable space group: C 2 2 21
;
_chemical_formula_sum "Si O2"
_cell_formula_units_Z 28
_cell_length_a 21.000000
_cell_length_b 9.000000
_cell_length_c 15.000000
_cell_angle_alpha 90.000000
_cell_angle_beta 90.000000
_cell_angle_gamma 90.000000
_cell_volume 2835.000000
_symmetry_space_group_name_H-M "C 2 2 21"
_symmetry_group_IT_number 20
_symmetry_cell_setting 'orthorhombic'
loop_
_space_group_symop_operation_xyz
x,y,z
-x,-y,1/2+z
x,-y,-z
-x,y,1/2-z
1/2+x,1/2+y,z
1/2-x,1/2-y,1/2+z
1/2+x,1/2-y,-z
1/2-x,1/2+y,1/2-z
loop_
_atom_site_type_symbol
_atom_site_label
_atom_site_fract_x
_atom_site_fract_y
_atom_site_fract_z
Si Si1 0.848457 0.174086 0.895247
Si Si2 0.962391 0.680671 0.993667
Si Si3 0.243027 0.824241 0.017807
Si Si4 0.610867 0.166178 0.038092
Si Si5 0.343675 0.102474 0.264246
Si Si6 0.198892 0.864808 0.676690
Si Si7 0.574767 0.190786 0.710474
O O1 0.849744 0.259025 0.801546
O O2 0.831157 0.001431 0.879988
O O3 0.913995 0.224448 0.944470
O O4 0.789128 0.243484 0.948276
O O5 0.940804 0.714758 0.893274
O O6 0.954131 0.500000 0.000000
O O7 0.037767 0.711215 0.014071
O O8 0.169801 0.769460 0.006574
O O9 0.272858 0.766435 0.112377
O O10 0.247303 0.000000 0.000000
O O11 0.624211 0.148479 0.142684
O O12 0.619833 0.000000 0.000000
O O13 0.266012 0.077253 0.277035
O O14 0.388489 0.965912 0.229597
O O15 0.135933 0.803213 0.730749
O O16 0.500000 0.196584 0.750000
#
# Coordination Sequence:
#
# PCOD9322231 Si02
#       7
#     8   8   8   8   8   8   8
#     4  12  23  41  73  97 136 180 235 290 349 430
#     4  11  22  42  69 100 134 182 228 282 361 428
#     4  11  22  42  69 100 133 183 235 282 352 435
#     4  10  23  44  67 102 140 180 230 288 358 423
#     4  11  24  43  72 101 136 185 237 294 351 432
#     4  11  25  45  67 101 141 184 235 296 364 415
#     4  12  24  43  70 103 140 187 237 295 357 430
#
# _framework density 9.8765429999999999
#
# number of rings (size 3 to 8) (size 9 to 14) (size 15 to 20)
#    0.000    0.857    2.857    6.000    0.000    2.286 
#    5.143    0.000    0.000    0.000    0.000    0.000 
#    0.000    0.000    0.000    0.000    0.000    0.000 
#
# Total GULP energy -156126.813198 kJ/mol
# GULP energy per Si atom -5575.957614 kJ/mol
# Density = 0.985406 g / cm^3
# Si number density = 9.876543 Si / 1000 Ang^3
#
#
#
# Elastic Constant Matrix: (Units=GPa)
#
#
# Indices 1 2 3 4 5 6 
#
# 1 202.7291 53.1999 33.9278 0.0000 0.0000 0.0000
# 2 53.1999 114.9325 8.7260 0.0000 0.0000 0.0000
# 3 33.9278 8.7260 85.7829 0.0000 0.0000 0.0000
# 4 0.0000 0.0000 0.0000 23.8746 0.0000 0.0000
# 5 0.0000 0.0000 0.0000 0.0000 39.6518 0.0000
# 6 0.0000 0.0000 0.0000 0.0000 0.0000 45.1748
#
#
#
# Elastic Compliance Matrix: (Units=1/GPa)
#
#
# Indices 1 2 3 4 5 6 
#
# 1 0.005966 -0.002603 -0.002095 0.000000 0.000000 0.000000
# 2 -0.002603 0.009904 0.000022 0.000000 0.000000 0.000000
# 3 -0.002095 0.000022 0.012484 0.000000 0.000000 0.000000
# 4 0.000000 0.000000 0.000000 0.041886 0.000000 0.000000
# 5 0.000000 0.000000 0.000000 0.000000 0.025220 0.000000
# 6 0.000000 0.000000 0.000000 0.000000 0.000000 0.022136
#
#
# Mechanical properties :
#
#
# Convention : Reuss Voigt Hill
#
# Bulk Modulus (GPa) = 52.62483 66.12798 59.37641
# Shear Modulus (GPa) = 37.51486 42.24628 39.88057
#
# Velocity S-wave (km/s) = 4.36270 4.62964 4.49815
# Velocity P-wave (km/s) = 7.21642 7.88214 7.55661
#
# Compressibility (1/GPa) = 0.01900244
#
# Stress axis : x y z
#
# Youngs Moduli (GPa) = 167.60896 100.97140 80.10462
#
# Poissons Ratio (x) = 0.26279 0.16782
# Poissons Ratio (y) = 0.43622 -0.00176
# Poissons Ratio (z) = 0.35113 -0.00221
#
# Static dielectric constant tensor:
#      x y z
#    x 1.702360 0.000000 0.000000 
#    y 0.000000 1.783720 0.000000 
#    z 0.000000 0.000000 1.755370 
# 
# From -- ./inp_files/21762.got.cif
#   From: 2010.05.17/outbox.ucp.g08.bks.cvg/sg20_11_cif.got.tgz:21762.got - 2010.06.11 15:13:06.
