data_PCOD9322434
_publ_section_title
;
Structure prediction by ZEFSAII (Michael W. Deem and Ramdas Pophale) SiO2 
 PCOD9322434
Probable space group: C 2 2 2
;
_chemical_formula_sum "Si O2"
_cell_formula_units_Z 48
_cell_length_a 32.665628
_cell_length_b 18.984118
_cell_length_c 5.201372
_cell_angle_alpha 90.000000
_cell_angle_beta 90.000000
_cell_angle_gamma 90.000000
_cell_volume 3225.517126
_symmetry_space_group_name_H-M "C 2 2 2"
_symmetry_group_IT_number 21
_symmetry_cell_setting 'orthorhombic'
loop_
_space_group_symop_operation_xyz
x,y,z
-x,-y,z
x,-y,-z
-x,y,-z
1/2+x,1/2+y,z
1/2-x,1/2-y,z
1/2+x,1/2-y,-z
1/2-x,1/2+y,-z
loop_
_atom_site_type_symbol
_atom_site_label
_atom_site_fract_x
_atom_site_fract_y
_atom_site_fract_z
Si Si1 0.099419 0.585149 0.492526
Si Si2 0.242784 0.571688 0.431180
Si Si3 0.953572 0.584881 0.007943
Si Si4 0.705733 0.426318 0.931437
Si Si5 0.322716 0.186526 0.455115
Si Si6 0.799580 0.766437 0.948069
O O1 0.108011 0.500000 0.500000
O O2 0.070003 0.602135 0.731678
O O3 0.139373 0.633641 0.511774
O O4 0.074421 0.603053 0.234970
O O5 0.219009 0.500000 0.500000
O O6 0.280105 0.570984 0.635431
O O7 0.217284 0.639595 0.494823
O O8 0.256445 0.570217 0.136192
O O9 0.956733 0.500000 0.000000
O O10 0.000000 0.612837 0.000000
O O11 0.682829 0.500000 0.000000
O O12 0.690435 0.347890 0.988922
O O13 0.319087 0.245502 0.675532
O O14 0.318952 0.219250 0.173343
O O15 0.750000 0.750000 0.946703
#
# Coordination Sequence:
#
# PCOD9322434 Si02
#       6
#     8   8   8   8   8   8
#     4  10  20  32  46  70  97 121 155 193 233 273
#     4  10  18  29  43  60  81 108 141 184 233 269
#     4   9  17  31  50  68  91 124 159 189 215 261
#     4  10  20  32  45  60  77 105 150 194 227 265
#     4  12  21  31  46  64  90 117 147 191 242 273
#     4  12  21  33  47  62  84 116 155 193 236 285
#
# _framework density 14.881335
#
# number of rings (size 3 to 8) (size 9 to 14) (size 15 to 20)
#    0.000    1.500    3.333    3.500    0.000    2.000 
#    0.000    6.667    0.000    0.000    0.000    0.000 
#    0.000    0.000    0.000    0.000    0.000   58.333 
#
# Total GULP energy -133700.195943 kJ/mol
# GULP energy per Si atom -5570.841498 kJ/mol
# Density = 1.484746 g / cm^3
# Si number density = 14.881335 Si / 1000 Ang^3
#
#
#
# Elastic Constant Matrix: (Units=GPa)
#
#
# Indices 1 2 3 4 5 6 
#
# 1 51.6491 9.4450 19.0086 0.0000 0.0000 0.0000
# 2 9.4450 62.3944 -9.8264 0.0000 0.0000 0.0000
# 3 19.0086 -9.8264 60.0271 0.0000 0.0000 0.0000
# 4 0.0000 0.0000 0.0000 20.0377 0.0000 0.0000
# 5 0.0000 0.0000 0.0000 0.0000 0.9518 0.0000
# 6 0.0000 0.0000 0.0000 0.0000 0.0000 -2.7790
#
#
#
# Elastic Compliance Matrix: (Units=1/GPa)
#
#
# Indices 1 2 3 4 5 6 
#
# 1 0.023236 -0.004800 -0.008144 0.000000 0.000000 0.000000
# 2 -0.004800 0.017443 0.004375 0.000000 0.000000 0.000000
# 3 -0.008144 0.004375 0.019954 0.000000 0.000000 0.000000
# 4 0.000000 0.000000 0.000000 0.049906 0.000000 0.000000
# 5 0.000000 0.000000 0.000000 0.000000 1.050610 0.000000
# 6 0.000000 0.000000 0.000000 0.000000 0.000000 -0.359845
#
#
# Mechanical properties :
#
#
# Convention : Reuss Voigt Hill
#
# Bulk Modulus (GPa) = 22.99047 23.48055 23.23551
# Shear Modulus (GPa) = 6.00283 14.00500 10.00392
#
# Velocity S-wave (km/s) = 2.01061 3.07108 2.59558
# Velocity P-wave (km/s) = 4.56868 5.32806 4.96291
#
# Compressibility (1/GPa) = 0.04349629
#
# Stress axis : x y z
#
# Youngs Moduli (GPa) = 43.03583 57.33044 50.11445
#
# Poissons Ratio (x) = 0.27519 0.40813
# Poissons Ratio (y) = 0.20657 -0.21927
# Poissons Ratio (z) = 0.35048 -0.25084
#
# Static dielectric constant tensor:
#      x y z
#    x 1.474540 0.000000 0.000000 
#    y 0.000000 1.537790 0.000000 
#    z 0.000000 0.000000 1.519380 
# 
# From -- ./inp_files/6717.got.cif
#   From: 2010.05.17/outbox.cif.g08.bks.cpg/sg21_4_cif.got.tgz:6717.got - 2010.06.03 23:14:55.
