data_PCOD9322872
_publ_section_title
;
Structure prediction by ZEFSAII (Michael W. Deem and Ramdas Pophale) SiO2 
 PCOD9322872
Probable space group: C 2 2 2
;
_chemical_formula_sum "Si O2"
_cell_formula_units_Z 48
_cell_length_a 9.349822
_cell_length_b 15.111771
_cell_length_c 15.633358
_cell_angle_alpha 90.000000
_cell_angle_beta 90.000000
_cell_angle_gamma 90.000000
_cell_volume 2208.874187
_symmetry_space_group_name_H-M "C 2 2 2"
_symmetry_group_IT_number 21
_symmetry_cell_setting 'orthorhombic'
loop_
_space_group_symop_operation_xyz
x,y,z
-x,-y,z
x,-y,-z
-x,y,-z
1/2+x,1/2+y,z
1/2-x,1/2-y,z
1/2+x,1/2-y,-z
1/2-x,1/2+y,-z
loop_
_atom_site_type_symbol
_atom_site_label
_atom_site_fract_x
_atom_site_fract_y
_atom_site_fract_z
Si Si1 0.336487 0.608571 0.509906
Si Si2 0.802486 0.848412 0.162487
Si Si3 0.168690 0.391749 0.655227
Si Si4 0.349512 0.899242 0.669252
Si Si5 0.164565 0.841027 0.022111
Si Si6 0.595636 0.410107 0.199144
O O1 0.340148 0.500000 0.500000
O O2 0.500000 0.638027 0.500000
O O3 0.239755 0.641310 0.431723
O O4 0.262923 0.635896 0.599068
O O5 0.750000 0.750000 0.153463
O O6 0.712246 0.895097 0.235505
O O7 0.965436 0.841762 0.194317
O O8 0.788051 0.886746 0.066876
O O9 0.145186 0.497234 0.646306
O O10 0.285896 0.386291 0.730930
O O11 0.007500 0.357025 0.667614
O O12 0.250000 0.750000 0.039065
O O13 0.164917 0.903440 0.105017
O O14 0.000000 0.817026 0.000000
O O15 0.500000 0.500000 0.213262
#
# Coordination Sequence:
#
# PCOD9322872 Si02
#       6
#     8   8   8   8   8   8
#     4   9  17  29  54  83 114 151 192 239 291 358
#     4  10  21  38  59  82 115 157 198 248 307 367
#     4  10  20  32  55  86 117 152 188 250 304 352
#     4  10  19  35  53  83 122 149 194 245 299 355
#     4   9  21  38  59  85 113 157 202 249 305 372
#     4  11  21  37  61  90 119 155 208 257 305 365
#
# _framework density 21.730526999999999
#
# number of rings (size 3 to 8) (size 9 to 14) (size 15 to 20)
#    0.000    2.167    1.667    1.500    2.333    9.000 
#    0.000    0.000    0.000    9.000    0.000    0.000 
#    0.000    0.000    0.000    0.000    0.000    0.000 
#
# Total GULP energy -133797.111781 kJ/mol
# GULP energy per Si atom -5574.879658 kJ/mol
# Density = 2.168107 g / cm^3
# Si number density = 21.730527 Si / 1000 Ang^3
#
#
#
# Elastic Constant Matrix: (Units=GPa)
#
#
# Indices 1 2 3 4 5 6 
#
# 1 125.8351 -7.0353 49.6338 0.0000 0.0000 0.0000
# 2 -7.0353 21.7606 -18.9327 0.0000 0.0000 0.0000
# 3 49.6338 -18.9327 104.2981 0.0000 0.0000 0.0000
# 4 0.0000 0.0000 0.0000 -25.2191 0.0000 0.0000
# 5 0.0000 0.0000 0.0000 0.0000 77.4497 0.0000
# 6 0.0000 0.0000 0.0000 0.0000 0.0000 18.5903
#
#
#
# Elastic Compliance Matrix: (Units=1/GPa)
#
#
# Indices 1 2 3 4 5 6 
#
# 1 0.009804 -0.001056 -0.004857 0.000000 0.000000 0.000000
# 2 -0.001056 0.054687 0.010430 0.000000 0.000000 0.000000
# 3 -0.004857 0.010430 0.013793 0.000000 0.000000 0.000000
# 4 0.000000 0.000000 0.000000 -0.039653 0.000000 0.000000
# 5 0.000000 0.000000 0.000000 0.000000 0.012912 0.000000
# 6 0.000000 0.000000 0.000000 0.000000 0.000000 0.053791
#
#
# Mechanical properties :
#
#
# Convention : Reuss Voigt Hill
#
# Bulk Modulus (GPa) = 11.45261 33.24729 22.34995
# Shear Modulus (GPa) = 39.87011 29.37940 34.62476
#
# Velocity S-wave (km/s) = 4.28805 3.68093 3.99603
# Velocity P-wave (km/s) = 5.45877 5.77916 5.62125
#
# Compressibility (1/GPa) = 0.08731636
#
# Stress axis : x y z
#
# Youngs Moduli (GPa) = 102.00241 18.28572 72.50252
#
# Poissons Ratio (x) = 0.01932 0.35216
# Poissons Ratio (y) = 0.10775 -0.75619
# Poissons Ratio (z) = 0.49544 -0.19072
#
# Static dielectric constant tensor:
#      x y z
#    x 1.801760 0.000000 0.000000 
#    y 0.000000 1.423820 0.000000 
#    z 0.000000 0.000000 1.827200 
# 
# From -- ./inp_files/30502.got.cif
#   From: 2010.05.17/outbox.cif.g08.bks.cpg/sg21_16_cif.got.tgz:30502.got - 2010.06.03 23:14:55.
