data_PCOD9322821
_publ_section_title
;
Structure prediction by ZEFSAII (Michael W. Deem and Ramdas Pophale) SiO2 
 PCOD9322821
Probable space group: C 2 2 2
;
_chemical_formula_sum "Si O2"
_cell_formula_units_Z 64
_cell_length_a 7.336472
_cell_length_b 22.023890
_cell_length_c 17.588864
_cell_angle_alpha 90.000000
_cell_angle_beta 90.000000
_cell_angle_gamma 90.000000
_cell_volume 2841.967352
_symmetry_space_group_name_H-M "C 2 2 2"
_symmetry_group_IT_number 21
_symmetry_cell_setting 'orthorhombic'
loop_
_space_group_symop_operation_xyz
x,y,z
-x,-y,z
x,-y,-z
-x,y,-z
1/2+x,1/2+y,z
1/2-x,1/2-y,z
1/2+x,1/2-y,-z
1/2-x,1/2+y,-z
loop_
_atom_site_type_symbol
_atom_site_label
_atom_site_fract_x
_atom_site_fract_y
_atom_site_fract_z
Si Si1 0.285532 0.127683 0.226564
Si Si2 0.774858 0.566590 0.907968
Si Si3 0.731413 0.814835 0.367938
Si Si4 0.308291 0.584924 0.527031
Si Si5 0.216707 0.011982 0.334437
Si Si6 0.204960 0.611681 0.252197
Si Si7 0.781150 0.573913 0.076487
Si Si8 0.697237 0.821088 0.604834
O O1 0.216542 0.181360 0.279895
O O2 0.246567 0.066162 0.274395
O O3 0.504006 0.133217 0.228321
O O4 0.217443 0.119078 0.141894
O O5 0.707378 0.596993 0.829894
O O6 0.724018 0.495363 0.906330
O O7 0.997270 0.570475 0.914083
O O8 0.721274 0.590252 0.991410
O O9 0.750000 0.750000 0.403393
O O10 0.851286 0.863147 0.411073
O O11 0.519140 0.828252 0.380796
O O12 0.500000 0.561072 0.500000
O O13 0.215476 0.534010 0.581556
O O14 0.228902 0.626655 0.459208
O O15 0.305835 0.951733 0.299280
O O16 0.000000 0.000000 0.339625
O O17 0.283643 0.658607 0.313973
O O18 0.750000 0.750000 0.588033
#
# Coordination Sequence:
#
# PCOD9322821 Si02
#       8
#     8   8   8   8   8   8   8   8
#     4   9  18  33  54  78 107 141 175 215 251 305
#     4   8  13  22  47  79 107 135 169 211 249 291
#     4  10  21  37  57  78 101 134 177 223 266 303
#     4  11  23  39  56  75 103 136 171 215 260 316
#     4  11  22  34  52  79 109 138 166 204 265 317
#     4  10  19  34  55  79 108 140 175 215 257 303
#     4   8  12  23  46  79 107 135 171 209 248 292
#     4  11  23  38  58  79 100 135 179 222 265 306
#
# _framework density 22.51961
#
# number of rings (size 3 to 8) (size 9 to 14) (size 15 to 20)
#    0.000    2.250    1.250    3.375    0.000    2.750 
#    0.000    1.250    0.000   11.250    0.000    0.000 
#    0.000    0.000    0.000    0.000    0.000    0.375 
#
# Total GULP energy -178356.534737 kJ/mol
# GULP energy per Si atom -5573.641711 kJ/mol
# Density = 2.246835 g / cm^3
# Si number density = 22.519610 Si / 1000 Ang^3
#
#
#
# Elastic Constant Matrix: (Units=GPa)
#
#
# Indices 1 2 3 4 5 6 
#
# 1 53.0204 3.0201 13.9399 0.0000 0.0000 0.0000
# 2 3.0201 64.4817 35.0066 0.0000 0.0000 0.0000
# 3 13.9399 35.0066 207.1346 0.0000 0.0000 0.0000
# 4 0.0000 0.0000 0.0000 13.5330 0.0000 0.0000
# 5 0.0000 0.0000 0.0000 0.0000 -0.6929 0.0000
# 6 0.0000 0.0000 0.0000 0.0000 0.0000 10.0052
#
#
#
# Elastic Compliance Matrix: (Units=1/GPa)
#
#
# Indices 1 2 3 4 5 6 
#
# 1 0.019203 -0.000218 -0.001256 0.000000 0.000000 0.000000
# 2 -0.000218 0.017077 -0.002871 0.000000 0.000000 0.000000
# 3 -0.001256 -0.002871 0.005398 0.000000 0.000000 0.000000
# 4 0.000000 0.000000 0.000000 0.073894 0.000000 0.000000
# 5 0.000000 0.000000 0.000000 0.000000 -1.443182 0.000000
# 6 0.000000 0.000000 0.000000 0.000000 0.000000 0.099948
#
#
# Mechanical properties :
#
#
# Convention : Reuss Voigt Hill
#
# Bulk Modulus (GPa) = 30.31359 47.61888 38.96624
# Shear Modulus (GPa) = -4.13915 22.74707 9.30396
#
# Velocity S-wave (km/s) = -1.35721 3.18166 2.03481
# Velocity P-wave (km/s) = 3.32177 5.88971 4.78136
#
# Compressibility (1/GPa) = 0.03298850
#
# Stress axis : x y z
#
# Youngs Moduli (GPa) = 52.07471 58.55699 185.26860
#
# Poissons Ratio (x) = 0.01275 0.23261
# Poissons Ratio (y) = 0.01134 0.53200
# Poissons Ratio (z) = 0.06538 0.16815
#
# Static dielectric constant tensor:
#      x y z
#    x 1.798500 0.000000 0.000000 
#    y 0.000000 1.831280 0.000000 
#    z 0.000000 0.000000 1.906030 
# 
# From -- ./inp_files/35909.got.cif
#   From: 2010.05.17/outbox.cif.g08.bks.cpg/sg21_18_cif.got.tgz:35909.got - 2010.06.03 23:14:55.
