data_PCOD9322122
_publ_section_title
;
Structure prediction by ZEFSAII (Michael W. Deem and Ramdas Pophale) SiO2 
 PCOD9322122
Probable space group: C 2 2 21
;
_chemical_formula_sum "Si O2"
_cell_formula_units_Z 16
_cell_length_a 7.440263
_cell_length_b 13.630872
_cell_length_c 5.458600
_cell_angle_alpha 90.000000
_cell_angle_beta 90.000000
_cell_angle_gamma 90.000000
_cell_volume 553.596324
_symmetry_space_group_name_H-M "C 2 2 21"
_symmetry_group_IT_number 20
_symmetry_cell_setting 'orthorhombic'
loop_
_space_group_symop_operation_xyz
x,y,z
-x,-y,1/2+z
x,-y,-z
-x,y,1/2-z
1/2+x,1/2+y,z
1/2-x,1/2-y,1/2+z
1/2+x,1/2-y,-z
1/2-x,1/2+y,1/2-z
loop_
_atom_site_type_symbol
_atom_site_label
_atom_site_fract_x
_atom_site_fract_y
_atom_site_fract_z
Si Si1 0.615528 0.000000 0.000000
Si Si2 0.000000 0.820370 0.250000
Si Si3 0.807210 0.162344 0.308225
O O1 0.738009 0.913040 0.893125
O O2 0.500000 0.025099 0.750000
O O3 0.153251 0.742069 0.337384
O O4 0.876404 0.883439 0.434947
O O5 0.000000 0.210120 0.250000
#
# Coordination Sequence:
#
# PCOD9322122 Si02
#       3
#     4   4   8
#     4  12  32  56  90 136 194 240 304 386 470 550
#     4  12  26  52  90 136 174 244 314 382 454 554
#     4  12  28  52  92 132 182 239 309 384 460 550
#
# _framework density 28.901924999999999
#
# number of rings (size 3 to 8) (size 9 to 14) (size 15 to 20)
#    0.000    0.000    7.500    0.000    7.000    4.000 
#    0.000    0.000    0.000    0.000    0.000    0.000 
#    0.000    0.000    0.000    0.000    0.000    0.000 
#
# Total GULP energy -44624.060325 kJ/mol
# GULP energy per Si atom -5578.007541 kJ/mol
# Density = 2.883614 g / cm^3
# Si number density = 28.901925 Si / 1000 Ang^3
#
#
#
# Elastic Constant Matrix: (Units=GPa)
#
#
# Indices 1 2 3 4 5 6 
#
# 1 290.5491 94.3540 118.4825 0.0000 0.0000 0.0000
# 2 94.3540 145.2432 95.4426 0.0000 0.0000 0.0000
# 3 118.4825 95.4426 259.7326 0.0000 0.0000 0.0000
# 4 0.0000 0.0000 0.0000 56.3217 0.0000 0.0000
# 5 0.0000 0.0000 0.0000 0.0000 85.2889 0.0000
# 6 0.0000 0.0000 0.0000 0.0000 0.0000 30.9690
#
#
#
# Elastic Compliance Matrix: (Units=1/GPa)
#
#
# Indices 1 2 3 4 5 6 
#
# 1 0.004693 -0.002165 -0.001346 0.000000 0.000000 0.000000
# 2 -0.002165 0.010075 -0.002715 0.000000 0.000000 0.000000
# 3 -0.001346 -0.002715 0.005461 0.000000 0.000000 0.000000
# 4 0.000000 0.000000 0.000000 0.017755 0.000000 0.000000
# 5 0.000000 0.000000 0.000000 0.000000 0.011725 0.000000
# 6 0.000000 0.000000 0.000000 0.000000 0.000000 0.032290
#
#
# Mechanical properties :
#
#
# Convention : Reuss Voigt Hill
#
# Bulk Modulus (GPa) = 128.53523 145.78702 137.16112
# Shear Modulus (GPa) = 51.52293 60.33231 55.92762
#
# Velocity S-wave (km/s) = 4.22676 4.57386 4.40373
# Velocity P-wave (km/s) = 8.26983 8.85692 8.56841
#
# Compressibility (1/GPa) = 0.00777997
#
# Stress axis : x y z
#
# Youngs Moduli (GPa) = 213.06242 99.25281 183.10029
#
# Poissons Ratio (x) = 0.21487 0.24637
# Poissons Ratio (y) = 0.46124 0.49708
# Poissons Ratio (z) = 0.28668 0.26945
#
# Static dielectric constant tensor:
#      x y z
#    x 2.200650 0.000000 0.000000 
#    y 0.000000 2.084660 0.000000 
#    z 0.000000 0.000000 3.888730 
# 
# From -- ./inp_files/193.got.cif
#   From: 2010.05.17/outbox.cif.g08.bks.cpg/sg20_1_cif.got.tgz:193.got - 2010.06.03 22:52:26.
