data_PCOD9322004
_publ_section_title
;
Structure prediction by ZEFSAII (Michael W. Deem and Ramdas Pophale) SiO2 
 PCOD9322004
Probable space group: C 2 2 21
;
_chemical_formula_sum "Si O2"
_cell_formula_units_Z 32
_cell_length_a 8.937022
_cell_length_b 29.484241
_cell_length_c 4.732732
_cell_angle_alpha 90.000000
_cell_angle_beta 90.000000
_cell_angle_gamma 90.000000
_cell_volume 1247.081084
_symmetry_space_group_name_H-M "C 2 2 21"
_symmetry_group_IT_number 20
_symmetry_cell_setting 'orthorhombic'
loop_
_space_group_symop_operation_xyz
x,y,z
-x,-y,1/2+z
x,-y,-z
-x,y,1/2-z
1/2+x,1/2+y,z
1/2-x,1/2-y,1/2+z
1/2+x,1/2-y,-z
1/2-x,1/2+y,1/2-z
loop_
_atom_site_type_symbol
_atom_site_label
_atom_site_fract_x
_atom_site_fract_y
_atom_site_fract_z
Si Si1 0.731452 0.091061 0.740605
Si Si2 0.172708 0.226337 0.643453
Si Si3 0.000000 0.964649 0.250000
Si Si4 0.664055 0.150491 0.211530
Si Si5 0.899798 0.500000 0.000000
O O1 0.883902 0.072215 0.876914
O O2 0.733992 0.128417 0.491835
O O3 0.681598 0.043823 0.611300
O O4 0.630548 0.110234 0.989353
O O5 0.218921 0.265571 0.415166
O O6 0.222305 0.182317 0.463667
O O7 0.000000 0.224916 0.750000
O O8 0.960132 0.000000 0.500000
O O9 0.500000 0.172770 0.250000
O O10 0.000000 0.482557 0.750000
#
# Coordination Sequence:
#
# PCOD9322004 Si02
#       5
#     8   8   4   8   4
#     4  12  26  46  73 107 152 203 262 321 388 463
#     4  12  28  54  87 119 160 207 258 323 402 488
#     4  12  26  48  70 102 154 214 260 328 398 464
#     4  12  27  50  79 114 154 200 259 324 393 469
#     4  12  24  42  68  98 142 194 254 312 368 438
#
# _framework density 25.659918000000001
#
# number of rings (size 3 to 8) (size 9 to 14) (size 15 to 20)
#    0.000    0.000    1.250    9.000    3.500    2.000 
#    0.000    1.250    0.000    0.000    0.000    0.000 
#    0.000    0.000    0.000    0.000    0.000    0.000 
#
# Total GULP energy -89434.561174 kJ/mol
# GULP energy per Si atom -5589.660073 kJ/mol
# Density = 2.560151 g / cm^3
# Si number density = 25.659918 Si / 1000 Ang^3
#
#
#
# Elastic Constant Matrix: (Units=GPa)
#
#
# Indices 1 2 3 4 5 6 
#
# 1 115.6406 39.1863 22.9967 0.0000 0.0000 0.0000
# 2 39.1863 133.8041 32.9083 0.0000 0.0000 0.0000
# 3 22.9967 32.9083 142.0597 0.0000 0.0000 0.0000
# 4 0.0000 0.0000 0.0000 58.3460 0.0000 0.0000
# 5 0.0000 0.0000 0.0000 0.0000 25.2482 0.0000
# 6 0.0000 0.0000 0.0000 0.0000 0.0000 52.6140
#
#
#
# Elastic Compliance Matrix: (Units=1/GPa)
#
#
# Indices 1 2 3 4 5 6 
#
# 1 0.009725 -0.002609 -0.000970 0.000000 0.000000 0.000000
# 2 -0.002609 0.008625 -0.001576 0.000000 0.000000 0.000000
# 3 -0.000970 -0.001576 0.007561 0.000000 0.000000 0.000000
# 4 0.000000 0.000000 0.000000 0.017139 0.000000 0.000000
# 5 0.000000 0.000000 0.000000 0.000000 0.039607 0.000000
# 6 0.000000 0.000000 0.000000 0.000000 0.000000 0.019006
#
#
# Mechanical properties :
#
#
# Convention : Reuss Voigt Hill
#
# Bulk Modulus (GPa) = 64.09641 64.63189 64.36415
# Shear Modulus (GPa) = 42.67168 47.00251 44.83710
#
# Velocity S-wave (km/s) = 4.08238 4.28454 4.18468
# Velocity P-wave (km/s) = 6.87419 7.05116 6.96324
#
# Compressibility (1/GPa) = 0.01560150
#
# Stress axis : x y z
#
# Youngs Moduli (GPa) = 102.83217 115.93728 132.25282
#
# Poissons Ratio (x) = 0.30254 0.12825
# Poissons Ratio (y) = 0.26834 0.20838
# Poissons Ratio (z) = 0.09972 0.18268
#
# Static dielectric constant tensor:
#      x y z
#    x 2.194520 0.000000 0.000000 
#    y 0.000000 2.055590 0.000000 
#    z 0.000000 0.000000 1.953150 
# 
# From -- ./inp_files/703.got.cif
#   From: 2010.05.17/outbox.cif.g08.bks.cpg/sg20_1_cif.got.tgz:703.got - 2010.06.03 22:52:26.
