data_PCOD9322466
_publ_section_title
;
Structure prediction by ZEFSAII (Michael W. Deem and Ramdas Pophale) SiO2 
 PCOD9322466
Probable space group: C 2 2 2
;
_chemical_formula_sum "Si O2"
_cell_formula_units_Z 48
_cell_length_a 15.676498
_cell_length_b 8.326609
_cell_length_c 17.767555
_cell_angle_alpha 90.000000
_cell_angle_beta 90.000000
_cell_angle_gamma 90.000000
_cell_volume 2319.235721
_symmetry_space_group_name_H-M "C 2 2 2"
_symmetry_group_IT_number 21
_symmetry_cell_setting 'orthorhombic'
loop_
_space_group_symop_operation_xyz
x,y,z
-x,-y,z
x,-y,-z
-x,y,-z
1/2+x,1/2+y,z
1/2-x,1/2-y,z
1/2+x,1/2-y,-z
1/2-x,1/2+y,-z
loop_
_atom_site_type_symbol
_atom_site_label
_atom_site_fract_x
_atom_site_fract_y
_atom_site_fract_z
Si Si1 0.320561 0.028752 0.839163
Si Si2 0.377930 0.626558 0.155546
Si Si3 0.250000 0.750000 0.937189
Si Si4 0.752459 0.556871 0.415198
Si Si5 0.409898 0.462992 0.315131
Si Si6 0.906115 0.423653 0.685509
Si Si7 0.125350 0.000000 0.000000
O O1 0.379753 0.181847 0.859025
O O2 0.222422 0.084044 0.838143
O O3 0.310833 0.869561 0.889844
O O4 0.354570 0.978955 0.758535
O O5 0.411668 0.560534 0.235670
O O6 0.413595 0.536043 0.081808
O O7 0.187409 0.850750 0.988006
O O8 0.740702 0.500000 0.500000
O O9 0.750000 0.750000 0.412795
O O10 0.675417 0.494404 0.361948
O O11 0.846250 0.517920 0.383012
O O12 0.500000 0.500000 0.354856
O O13 0.409001 0.269779 0.307133
O O14 0.000000 0.500000 0.682790
#
# Coordination Sequence:
#
# PCOD9322466 Si02
#       7
#     8   8   4   8   8   8   4
#     4  10  19  33  57  85 120 164 209 257 307 374
#     4  10  20  34  57  88 119 163 211 256 317 371
#     4  10  18  30  52  84 124 160 216 258 318 364
#     4  10  24  43  67  93 128 163 203 253 311 373
#     4  11  23  42  64  91 126 166 209 259 310 373
#     4  11  22  39  63  94 126 165 207 257 311 370
#     4  10  18  30  51  84 121 162 206 262 311 370
#
# _framework density 20.696473000000001
#
# number of rings (size 3 to 8) (size 9 to 14) (size 15 to 20)
#    0.000    1.667    1.667    5.000    1.167    3.333 
#    0.000    3.750    0.000    0.000    0.000   19.833 
#    0.000    0.000    0.000    0.000    0.000    0.000 
#
# Total GULP energy -133806.356356 kJ/mol
# GULP energy per Si atom -5575.264848 kJ/mol
# Density = 2.064937 g / cm^3
# Si number density = 20.696473 Si / 1000 Ang^3
#
#
#
# Elastic Constant Matrix: (Units=GPa)
#
#
# Indices 1 2 3 4 5 6 
#
# 1 110.5454 34.0576 63.6512 0.0000 0.0000 0.0000
# 2 34.0576 83.5562 31.4682 0.0000 0.0000 0.0000
# 3 63.6512 31.4682 130.8425 0.0000 0.0000 0.0000
# 4 0.0000 0.0000 0.0000 24.5825 0.0000 0.0000
# 5 0.0000 0.0000 0.0000 0.0000 -15.3235 0.0000
# 6 0.0000 0.0000 0.0000 0.0000 0.0000 20.5200
#
#
#
# Elastic Compliance Matrix: (Units=1/GPa)
#
#
# Indices 1 2 3 4 5 6 
#
# 1 0.013341 -0.003292 -0.005699 0.000000 0.000000 0.000000
# 2 -0.003292 0.013972 -0.001759 0.000000 0.000000 0.000000
# 3 -0.005699 -0.001759 0.010838 0.000000 0.000000 0.000000
# 4 0.000000 0.000000 0.000000 0.040679 0.000000 0.000000
# 5 0.000000 0.000000 0.000000 0.000000 -0.065259 0.000000
# 6 0.000000 0.000000 0.000000 0.000000 0.000000 0.048733
#
#
# Mechanical properties :
#
#
# Convention : Reuss Voigt Hill
#
# Bulk Modulus (GPa) = 60.04959 64.81089 62.43024
# Shear Modulus (GPa) = 55.95722 19.00697 37.48210
#
# Velocity S-wave (km/s) = 5.20536 3.03375 4.26025
# Velocity P-wave (km/s) = 8.07497 6.60715 7.37765
#
# Compressibility (1/GPa) = 0.01665290
#
# Stress axis : x y z
#
# Youngs Moduli (GPa) = 74.95471 71.57072 92.26808
#
# Poissons Ratio (x) = 0.23560 0.52579
# Poissons Ratio (y) = 0.24674 0.16230
# Poissons Ratio (z) = 0.42713 0.12589
#
# Static dielectric constant tensor:
#      x y z
#    x 1.743220 0.000000 0.000000 
#    y 0.000000 1.808130 0.000000 
#    z 0.000000 0.000000 1.747860 
# 
# From -- ./inp_files/36673.got.cif
#   From: 2010.05.17/outbox.cif.g08.bks.cpg/sg21_19_cif.got.tgz:36673.got - 2010.06.03 23:14:55.
