data_PCOD9322955
_publ_section_title
;
Structure prediction by ZEFSAII (Michael W. Deem and Ramdas Pophale) SiO2 
 PCOD9322955
Probable space group: C 2 2 2
;
_chemical_formula_sum "Si O2"
_cell_formula_units_Z 60
_cell_length_a 11.805039
_cell_length_b 28.435593
_cell_length_c 8.590656
_cell_angle_alpha 90.000000
_cell_angle_beta 90.000000
_cell_angle_gamma 90.000000
_cell_volume 2883.739621
_symmetry_space_group_name_H-M "C 2 2 2"
_symmetry_group_IT_number 21
_symmetry_cell_setting 'orthorhombic'
loop_
_space_group_symop_operation_xyz
x,y,z
-x,-y,z
x,-y,-z
-x,y,-z
1/2+x,1/2+y,z
1/2-x,1/2-y,z
1/2+x,1/2-y,-z
1/2-x,1/2+y,-z
loop_
_atom_site_type_symbol
_atom_site_label
_atom_site_fract_x
_atom_site_fract_y
_atom_site_fract_z
Si Si1 0.488037 0.726977 0.184640
Si Si2 0.435226 0.173831 0.262273
Si Si3 0.127239 0.491006 0.186345
Si Si4 0.750000 0.750000 0.685059
Si Si5 0.834733 0.346415 0.407882
Si Si6 0.021993 0.879119 0.813916
Si Si7 0.775378 0.393840 0.884240
Si Si8 0.208279 0.925054 0.235739
O O1 0.563004 0.769338 0.255583
O O2 0.360193 0.741593 0.214811
O O3 0.504819 0.674134 0.247409
O O4 0.500000 0.726333 0.000000
O O5 0.566281 0.158054 0.276487
O O6 0.386289 0.152951 0.421642
O O7 0.356576 0.151450 0.129639
O O8 0.158311 0.436595 0.195942
O O9 0.227963 0.524728 0.249083
O O10 0.000000 0.500000 0.248793
O O11 0.123174 0.500000 0.000000
O O12 0.766806 0.702283 0.591981
O O13 0.760196 0.390471 0.363161
O O14 0.154555 0.889723 0.798515
O O15 0.927986 0.916823 0.756299
O O16 0.000000 0.876922 0.000000
O O17 0.746218 0.406105 0.063846
#
# Coordination Sequence:
#
# PCOD9322955 Si02
#       8
#     8   8   8   4   8   8   8   8
#     4  10  21  34  56  85 116 150 200 242 288 346
#     4  10  23  36  54  85 114 148 191 243 286 338
#     4   9  18  33  55  88 115 145 193 245 295 346
#     4  10  20  36  56  76 114 156 192 228 288 348
#     4  10  21  38  55  79 114 149 192 234 288 351
#     4   9  19  34  53  87 116 148 194 240 285 347
#     4  10  21  35  56  86 118 145 196 246 287 346
#     4  10  19  36  62  79 114 158 189 239 296 350
#
# _framework density 20.806315999999999
#
# number of rings (size 3 to 8) (size 9 to 14) (size 15 to 20)
#    0.000    2.267    1.333    0.800    3.733    3.200 
#    0.000    4.000    0.000    2.400    0.000    1.867 
#    0.000    0.000    0.000    0.000    0.000    0.000 
#
# Total GULP energy -167205.774074 kJ/mol
# GULP energy per Si atom -5573.525802 kJ/mol
# Density = 2.075896 g / cm^3
# Si number density = 20.806316 Si / 1000 Ang^3
#
#
#
# Elastic Constant Matrix: (Units=GPa)
#
#
# Indices 1 2 3 4 5 6 
#
# 1 98.0639 48.2230 2.5159 0.0000 0.0000 0.0000
# 2 48.2230 94.5555 -0.5901 0.0000 0.0000 0.0000
# 3 2.5159 -0.5901 19.4276 0.0000 0.0000 0.0000
# 4 0.0000 0.0000 0.0000 -20.4998 0.0000 0.0000
# 5 0.0000 0.0000 0.0000 0.0000 11.8648 0.0000
# 6 0.0000 0.0000 0.0000 0.0000 0.0000 34.8908
#
#
#
# Elastic Compliance Matrix: (Units=1/GPa)
#
#
# Indices 1 2 3 4 5 6 
#
# 1 0.013687 -0.006993 -0.001985 0.000000 0.000000 0.000000
# 2 -0.006993 0.014150 0.001335 0.000000 0.000000 0.000000
# 3 -0.001985 0.001335 0.051771 0.000000 0.000000 0.000000
# 4 0.000000 0.000000 0.000000 -0.048781 0.000000 0.000000
# 5 0.000000 0.000000 0.000000 0.000000 0.084283 0.000000
# 6 0.000000 0.000000 0.000000 0.000000 0.000000 0.028661
#
#
# Mechanical properties :
#
#
# Convention : Reuss Voigt Hill
#
# Bulk Modulus (GPa) = 15.54635 34.70496 25.12566
# Shear Modulus (GPa) = 27.70128 16.04437 21.87283
#
# Velocity S-wave (km/s) = 3.65278 2.77994 3.24583
# Velocity P-wave (km/s) = 5.02778 5.19810 5.11365
#
# Compressibility (1/GPa) = 0.06432377
#
# Stress axis : x y z
#
# Youngs Moduli (GPa) = 73.06176 70.66934 19.31589
#
# Poissons Ratio (x) = 0.49417 0.03834
# Poissons Ratio (y) = 0.51090 -0.02579
# Poissons Ratio (z) = 0.14502 -0.09437
#
# Static dielectric constant tensor:
#      x y z
#    x 1.771830 0.000000 0.000000 
#    y 0.000000 1.755940 0.000000 
#    z 0.000000 0.000000 1.706090 
# 
# From -- ./inp_files/13550.got.cif
#   From: 2010.05.17/outbox.cif.g08.bks.cpg/sg21_7_cif.got.tgz:13550.got - 2010.06.03 23:14:55.
