data_PCOD9322538
_publ_section_title
;
Structure prediction by ZEFSAII (Michael W. Deem and Ramdas Pophale) SiO2 
 PCOD9322538
Probable space group: C 2 2 2
;
_chemical_formula_sum "Si O2"
_cell_formula_units_Z 36
_cell_length_a 20.367261
_cell_length_b 13.357893
_cell_length_c 5.772335
_cell_angle_alpha 90.000000
_cell_angle_beta 90.000000
_cell_angle_gamma 90.000000
_cell_volume 1570.442778
_symmetry_space_group_name_H-M "C 2 2 2"
_symmetry_group_IT_number 21
_symmetry_cell_setting 'orthorhombic'
loop_
_space_group_symop_operation_xyz
x,y,z
-x,-y,z
x,-y,-z
-x,y,-z
1/2+x,1/2+y,z
1/2-x,1/2-y,z
1/2+x,1/2-y,-z
1/2-x,1/2+y,-z
loop_
_atom_site_type_symbol
_atom_site_label
_atom_site_fract_x
_atom_site_fract_y
_atom_site_fract_z
Si Si1 0.000000 0.657524 0.500000
Si Si2 0.568820 0.282178 0.121515
Si Si3 0.105591 0.590967 0.824611
Si Si4 0.210194 0.142007 0.874735
Si Si5 0.741939 0.871303 0.378523
O O1 0.951066 0.730627 0.637723
O O2 0.960664 0.591417 0.319761
O O3 0.631170 0.353146 0.148223
O O4 0.500000 0.316299 0.000000
O O5 0.599085 0.193172 0.967480
O O6 0.166394 0.600276 0.654176
O O7 0.112772 0.500000 0.000000
O O8 0.250000 0.250000 0.878725
O O9 0.234648 0.094377 0.632637
O O10 0.225260 0.099589 0.131261
O O11 0.750000 0.750000 0.386004
#
# Coordination Sequence:
#
# PCOD9322538 Si02
#       5
#     4   8   8   8   8
#     4  10  22  37  52  70 120 160 199 242 286 349
#     4  10  21  34  53  84 112 156 199 245 294 364
#     4  11  23  37  54  82 116 166 213 242 291 361
#     4  10  18  33  58  77 104 146 199 240 306 334
#     4  10  19  35  59  77 104 149 205 250 300 330
#
# _framework density 22.923472
#
# number of rings (size 3 to 8) (size 9 to 14) (size 15 to 20)
#    0.000    1.778    4.444    2.667    3.111    5.778 
#    0.000    0.000    0.000    0.000    0.000    0.000 
#    0.000    0.889    1.333    0.333    0.000    0.000 
#
# Total GULP energy -100596.273043 kJ/mol
# GULP energy per Si atom -5588.681836 kJ/mol
# Density = 2.287130 g / cm^3
# Si number density = 22.923472 Si / 1000 Ang^3
#
#
#
# Elastic Constant Matrix: (Units=GPa)
#
#
# Indices 1 2 3 4 5 6 
#
# 1 20.1860 -11.1288 13.0799 0.0000 0.0000 0.0000
# 2 -11.1288 25.5973 34.6031 0.0000 0.0000 0.0000
# 3 13.0799 34.6031 185.7029 0.0000 0.0000 0.0000
# 4 0.0000 0.0000 0.0000 38.6513 0.0000 0.0000
# 5 0.0000 0.0000 0.0000 0.0000 73.7613 0.0000
# 6 0.0000 0.0000 0.0000 0.0000 0.0000 6.1020
#
#
#
# Elastic Compliance Matrix: (Units=1/GPa)
#
#
# Indices 1 2 3 4 5 6 
#
# 1 0.103582 0.073380 -0.020969 0.000000 0.000000 0.000000
# 2 0.073380 0.104205 -0.024586 0.000000 0.000000 0.000000
# 3 -0.020969 -0.024586 0.011443 0.000000 0.000000 0.000000
# 4 0.000000 0.000000 0.000000 0.025872 0.000000 0.000000
# 5 0.000000 0.000000 0.000000 0.000000 0.013557 0.000000
# 6 0.000000 0.000000 0.000000 0.000000 0.000000 0.163879
#
#
# Mechanical properties :
#
#
# Convention : Reuss Voigt Hill
#
# Bulk Modulus (GPa) = 3.63793 33.84385 18.74089
# Shear Modulus (GPa) = 10.90475 36.69839 23.80157
#
# Velocity S-wave (km/s) = 2.18343 4.00548 3.22577
# Velocity P-wave (km/s) = 2.81902 6.01562 4.69758
#
# Compressibility (1/GPa) = 0.27488190
#
# Stress axis : x y z
#
# Youngs Moduli (GPa) = 9.65415 9.59645 87.38896
#
# Poissons Ratio (x) = -0.70419 1.83248
# Poissons Ratio (y) = -0.70843 2.14852
# Poissons Ratio (z) = 0.20244 0.23594
#
# Static dielectric constant tensor:
#      x y z
#    x 1.869210 0.000000 0.000000 
#    y 0.000000 1.904760 0.000000 
#    z 0.000000 0.000000 1.885520 
# 
# From -- ./inp_files/4956.got.cif
#   From: 2010.05.17/outbox.cif.g08.bks.cpg/sg21_3_cif.got.tgz:4956.got - 2010.06.03 23:14:55.
