data_PCOD9322413
_publ_section_title
;
Structure prediction by ZEFSAII (Michael W. Deem and Ramdas Pophale) SiO2 
 PCOD9322413
Probable space group: C 2 2 2
;
_chemical_formula_sum "Si O2"
_cell_formula_units_Z 48
_cell_length_a 14.797276
_cell_length_b 19.412337
_cell_length_c 9.037359
_cell_angle_alpha 90.000000
_cell_angle_beta 90.000000
_cell_angle_gamma 90.000000
_cell_volume 2595.978737
_symmetry_space_group_name_H-M "C 2 2 2"
_symmetry_group_IT_number 21
_symmetry_cell_setting 'orthorhombic'
loop_
_space_group_symop_operation_xyz
x,y,z
-x,-y,z
x,-y,-z
-x,y,-z
1/2+x,1/2+y,z
1/2-x,1/2-y,z
1/2+x,1/2-y,-z
1/2-x,1/2+y,-z
loop_
_atom_site_type_symbol
_atom_site_label
_atom_site_fract_x
_atom_site_fract_y
_atom_site_fract_z
Si Si1 0.115266 0.925413 0.918469
Si Si2 0.253930 0.329847 0.905325
Si Si3 0.736989 0.595347 0.621957
Si Si4 0.524035 0.580322 0.661504
Si Si5 0.283435 0.943213 0.695998
Si Si6 0.101433 0.421919 0.050556
O O1 0.199440 0.936818 0.807945
O O2 0.032126 0.900420 0.811743
O O3 0.156062 0.868468 0.031569
O O4 0.099334 0.000000 0.000000
O O5 0.250000 0.250000 0.942744
O O6 0.240688 0.342519 0.730290
O O7 0.170003 0.369439 0.976874
O O8 0.631785 0.583094 0.658066
O O9 0.788371 0.524652 0.663663
O O10 0.756900 0.600095 0.448590
O O11 0.500000 0.500000 0.652595
O O12 0.500000 0.612872 0.500000
O O13 0.374890 0.919761 0.775819
O O14 0.124121 0.500000 0.000000
O O15 0.000000 0.408437 0.000000
#
# Coordination Sequence:
#
# PCOD9322413 Si02
#       6
#     8   8   8   8   8   8
#     4  11  19  35  57  90 120 159 209 250 294 367
#     4  11  23  40  57  86 125 163 199 256 329 379
#     4  11  19  33  56  87 124 160 195 247 310 378
#     4  11  18  30  53  92 127 155 194 244 299 359
#     4  10  17  34  60  86 116 151 204 251 307 355
#     4  10  20  40  67  89 116 153 217 274 300 352
#
# _framework density 18.490137000000001
#
# number of rings (size 3 to 8) (size 9 to 14) (size 15 to 20)
#    0.000    1.333    6.667    2.000    0.000    2.333 
#    3.000    4.167    0.000    0.000    0.000    0.000 
#    0.000    0.000    0.000    0.000    0.000    0.000 
#
# Total GULP energy -133644.690223 kJ/mol
# GULP energy per Si atom -5568.528759 kJ/mol
# Density = 1.844805 g / cm^3
# Si number density = 18.490137 Si / 1000 Ang^3
#
#
#
# Elastic Constant Matrix: (Units=GPa)
#
#
# Indices 1 2 3 4 5 6 
#
# 1 115.6755 44.7153 56.9630 0.0000 0.0000 0.0000
# 2 44.7153 81.7541 30.5454 0.0000 0.0000 0.0000
# 3 56.9630 30.5454 141.2949 0.0000 0.0000 0.0000
# 4 0.0000 0.0000 0.0000 14.6283 0.0000 0.0000
# 5 0.0000 0.0000 0.0000 0.0000 34.3196 0.0000
# 6 0.0000 0.0000 0.0000 0.0000 0.0000 -0.8183
#
#
#
# Elastic Compliance Matrix: (Units=1/GPa)
#
#
# Indices 1 2 3 4 5 6 
#
# 1 0.012700 -0.005475 -0.003936 0.000000 0.000000 0.000000
# 2 -0.005475 0.015667 -0.001180 0.000000 0.000000 0.000000
# 3 -0.003936 -0.001180 0.008919 0.000000 0.000000 0.000000
# 4 0.000000 0.000000 0.000000 0.068361 0.000000 0.000000
# 5 0.000000 0.000000 0.000000 0.000000 0.029138 0.000000
# 6 0.000000 0.000000 0.000000 0.000000 0.000000 -1.222040
#
#
# Mechanical properties :
#
#
# Convention : Reuss Voigt Hill
#
# Bulk Modulus (GPa) = 62.09676 67.01910 64.55793
# Shear Modulus (GPa) = -4.71385 23.39264 9.33939
#
# Velocity S-wave (km/s) = -1.59841 3.56074 2.24988
# Velocity P-wave (km/s) = 5.50001 7.29587 6.46064
#
# Compressibility (1/GPa) = 0.01610390
#
# Stress axis : x y z
#
# Youngs Moduli (GPa) = 78.74136 63.82717 112.11672
#
# Poissons Ratio (x) = 0.34948 0.44132
# Poissons Ratio (y) = 0.43115 0.13225
# Poissons Ratio (z) = 0.30994 0.07529
#
# Static dielectric constant tensor:
#      x y z
#    x 1.676290 0.000000 0.000000 
#    y 0.000000 1.588720 0.000000 
#    z 0.000000 0.000000 1.762870 
# 
# From -- ./inp_files/15146.got.cif
#   From: 2010.05.17/outbox.cif.g08.bks.cpg/sg21_8_cif.got.tgz:15146.got - 2010.06.03 23:14:55.
