data_PCOD9322854
_publ_section_title
;
Structure prediction by ZEFSAII (Michael W. Deem and Ramdas Pophale) SiO2 
 PCOD9322854
Probable space group: C 2 2 2
;
_chemical_formula_sum "Si O2"
_cell_formula_units_Z 24
_cell_length_a 16.595175
_cell_length_b 11.175510
_cell_length_c 5.241404
_cell_angle_alpha 90.000000
_cell_angle_beta 90.000000
_cell_angle_gamma 90.000000
_cell_volume 972.068397
_symmetry_space_group_name_H-M "C 2 2 2"
_symmetry_group_IT_number 21
_symmetry_cell_setting 'orthorhombic'
loop_
_space_group_symop_operation_xyz
x,y,z
-x,-y,z
x,-y,-z
-x,y,-z
1/2+x,1/2+y,z
1/2-x,1/2-y,z
1/2+x,1/2-y,-z
1/2-x,1/2+y,-z
loop_
_atom_site_type_symbol
_atom_site_label
_atom_site_fract_x
_atom_site_fract_y
_atom_site_fract_z
Si Si1 0.692244 0.630453 0.434608
Si Si2 0.590814 0.948779 0.765551
Si Si3 0.589865 0.327296 0.081424
O O1 0.729245 0.500000 0.500000
O O2 0.750000 0.750000 0.473699
O O3 0.623265 0.624398 0.652853
O O4 0.650713 0.647750 0.155439
O O5 0.585364 0.811622 0.836963
O O6 0.500000 0.000000 0.768681
O O7 0.618305 0.000000 0.500000
O O8 0.641623 0.000000 0.000000
O O9 0.500000 0.364079 0.000000
#
# Coordination Sequence:
#
# PCOD9322854 Si02
#       3
#     8   8   8
#     4  12  30  54  77 110 161 219 267 324 414 489
#     4  10  19  34  61 108 162 181 240 307 385 463
#     4  12  25  46  81 119 154 197 271 343 396 472
#
# _framework density 24.689620000000001
#
# number of rings (size 3 to 8) (size 9 to 14) (size 15 to 20)
#    0.000    0.667    3.333    5.000    4.667    8.000 
#    0.000    0.000    0.000    0.000    0.000    0.000 
#    0.000    0.000    0.000    0.000    0.000    0.000 
#
# Total GULP energy -66867.147671 kJ/mol
# GULP energy per Si atom -5572.262306 kJ/mol
# Density = 2.463343 g / cm^3
# Si number density = 24.689620 Si / 1000 Ang^3
#
#
#
# Elastic Constant Matrix: (Units=GPa)
#
#
# Indices 1 2 3 4 5 6 
#
# 1 79.9014 27.1136 22.8014 0.0000 0.0000 0.0000
# 2 27.1136 202.2890 39.8950 0.0000 0.0000 0.0000
# 3 22.8014 39.8950 227.0616 0.0000 0.0000 0.0000
# 4 0.0000 0.0000 0.0000 -178.5824 0.0000 0.0000
# 5 0.0000 0.0000 0.0000 0.0000 -236.0343 0.0000
# 6 0.0000 0.0000 0.0000 0.0000 0.0000 29.0032
#
#
#
# Elastic Compliance Matrix: (Units=1/GPa)
#
#
# Indices 1 2 3 4 5 6 
#
# 1 0.013355 -0.001580 -0.001063 0.000000 0.000000 0.000000
# 2 -0.001580 0.005308 -0.000774 0.000000 0.000000 0.000000
# 3 -0.001063 -0.000774 0.004647 0.000000 0.000000 0.000000
# 4 0.000000 0.000000 0.000000 -0.005600 0.000000 0.000000
# 5 0.000000 0.000000 0.000000 0.000000 -0.004237 0.000000
# 6 0.000000 0.000000 0.000000 0.000000 0.000000 0.034479
#
#
# Mechanical properties :
#
#
# Convention : Reuss Voigt Hill
#
# Bulk Modulus (GPa) = 60.69973 76.54134 68.62054
# Shear Modulus (GPa) = 82.94707 -49.15991 16.89358
#
# Velocity S-wave (km/s) = 5.80249 -4.46703 2.61863
# Velocity P-wave (km/s) = 8.33848 2.11255 6.08248
#
# Compressibility (1/GPa) = 0.01647454
#
# Stress axis : x y z
#
# Youngs Moduli (GPa) = 74.87746 188.39967 215.19915
#
# Poissons Ratio (x) = 0.29773 0.22885
# Poissons Ratio (y) = 0.11833 0.16654
# Poissons Ratio (z) = 0.07963 0.14580
#
# Static dielectric constant tensor:
#      x y z
#    x 2.220940 0.000000 0.000000 
#    y 0.000000 1.245620 0.000000 
#    z 0.000000 0.000000 2.082230 
# 
# From -- ./inp_files/4479.got.cif
#   From: 2010.05.17/outbox.cif.g08.bks.cpg/sg21_3_cif.got.tgz:4479.got - 2010.06.03 23:14:55.
