data_PCOD9322554
_publ_section_title
;
Structure prediction by ZEFSAII (Michael W. Deem and Ramdas Pophale) SiO2 
 PCOD9322554
Probable space group: C 2 2 2
;
_chemical_formula_sum "Si O2"
_cell_formula_units_Z 48
_cell_length_a 16.329226
_cell_length_b 18.381516
_cell_length_c 7.102404
_cell_angle_alpha 90.000000
_cell_angle_beta 90.000000
_cell_angle_gamma 90.000000
_cell_volume 2131.828671
_symmetry_space_group_name_H-M "C 2 2 2"
_symmetry_group_IT_number 21
_symmetry_cell_setting 'orthorhombic'
loop_
_space_group_symop_operation_xyz
x,y,z
-x,-y,z
x,-y,-z
-x,y,-z
1/2+x,1/2+y,z
1/2-x,1/2-y,z
1/2+x,1/2-y,-z
1/2-x,1/2+y,-z
loop_
_atom_site_type_symbol
_atom_site_label
_atom_site_fract_x
_atom_site_fract_y
_atom_site_fract_z
Si Si1 0.015522 0.279356 0.787029
Si Si2 0.939959 0.889077 0.752489
Si Si3 0.310100 0.184705 0.803665
Si Si4 0.381020 0.592871 0.676317
Si Si5 0.838316 0.252360 0.773671
Si Si6 0.215452 0.037993 0.821946
O O1 0.041984 0.194549 0.797836
O O2 0.098797 0.315859 0.718060
O O3 0.925349 0.281944 0.693987
O O4 0.000000 0.305151 0.000000
O O5 0.899195 0.890860 0.543960
O O6 0.871884 0.926226 0.879886
O O7 0.028113 0.926445 0.747842
O O8 0.250000 0.250000 0.740317
O O9 0.268633 0.107215 0.764137
O O10 0.322857 0.205385 0.027761
O O11 0.355635 0.666152 0.783232
O O12 0.314217 0.529734 0.695422
O O13 0.750000 0.250000 0.673177
O O14 0.256933 0.000000 0.000000
#
# Coordination Sequence:
#
# PCOD9322554 Si02
#       6
#     8   8   8   8   8   8
#     4   9  18  33  61  85 113 157 200 254 301 351
#     4  10  21  37  57  86 122 155 202 246 315 389
#     4  10  18  34  54  82 116 151 209 247 285 365
#     4  10  22  38  55  85 124 161 195 257 318 377
#     4   9  18  35  58  81 117 153 198 254 305 355
#     4  12  23  33  56  83 120 163 200 244 309 360
#
# _framework density 22.515881
#
# number of rings (size 3 to 8) (size 9 to 14) (size 15 to 20)
#    0.000    2.000    1.667    3.000    4.667    2.000 
#    3.000    0.000    0.000   11.500    0.000    0.000 
#    0.000   10.667    0.000    0.000    0.000    0.000 
#
# Total GULP energy -133786.509065 kJ/mol
# GULP energy per Si atom -5574.437878 kJ/mol
# Density = 2.246463 g / cm^3
# Si number density = 22.515881 Si / 1000 Ang^3
#
#
#
# Elastic Constant Matrix: (Units=GPa)
#
#
# Indices 1 2 3 4 5 6 
#
# 1 205.3287 53.5359 15.8174 0.0000 0.0000 0.0000
# 2 53.5359 95.7923 17.1187 0.0000 0.0000 0.0000
# 3 15.8174 17.1187 67.0089 0.0000 0.0000 0.0000
# 4 0.0000 0.0000 0.0000 8.5257 0.0000 0.0000
# 5 0.0000 0.0000 0.0000 0.0000 1.6187 0.0000
# 6 0.0000 0.0000 0.0000 0.0000 0.0000 48.7014
#
#
#
# Elastic Compliance Matrix: (Units=1/GPa)
#
#
# Indices 1 2 3 4 5 6 
#
# 1 0.005721 -0.003097 -0.000559 0.000000 0.000000 0.000000
# 2 -0.003097 0.012616 -0.002492 0.000000 0.000000 0.000000
# 3 -0.000559 -0.002492 0.015692 0.000000 0.000000 0.000000
# 4 0.000000 0.000000 0.000000 0.117292 0.000000 0.000000
# 5 0.000000 0.000000 0.000000 0.000000 0.617773 0.000000
# 6 0.000000 0.000000 0.000000 0.000000 0.000000 0.020533
#
#
# Mechanical properties :
#
#
# Convention : Reuss Voigt Hill
#
# Bulk Modulus (GPa) = 46.01527 60.11933 53.06730
# Shear Modulus (GPa) = 6.17919 30.54638 18.36278
#
# Velocity S-wave (km/s) = 1.65841 3.68728 2.85888
# Velocity P-wave (km/s) = 4.91409 6.69977 5.87517
#
# Compressibility (1/GPa) = 0.02173192
#
# Stress axis : x y z
#
# Youngs Moduli (GPa) = 174.79800 79.26714 63.72694
#
# Poissons Ratio (x) = 0.24552 0.03563
# Poissons Ratio (y) = 0.54141 0.15879
# Poissons Ratio (z) = 0.09774 0.19752
#
# Static dielectric constant tensor:
#      x y z
#    x 1.886500 0.000000 0.000000 
#    y 0.000000 1.820300 0.000000 
#    z 0.000000 0.000000 1.975430 
# 
# From -- ./inp_files/14942.got.cif
#   From: 2010.05.17/outbox.cif.g08.bks.cpg/sg21_8_cif.got.tgz:14942.got - 2010.06.03 23:14:55.
