data_PCOD9322448
_publ_section_title
;
Structure prediction by ZEFSAII (Michael W. Deem and Ramdas Pophale) SiO2 
 PCOD9322448
Probable space group: C 2 2 2
;
_chemical_formula_sum "Si O2"
_cell_formula_units_Z 32
_cell_length_a 12.921467
_cell_length_b 12.529521
_cell_length_c 7.712724
_cell_angle_alpha 90.000000
_cell_angle_beta 90.000000
_cell_angle_gamma 90.000000
_cell_volume 1248.688412
_symmetry_space_group_name_H-M "C 2 2 2"
_symmetry_group_IT_number 21
_symmetry_cell_setting 'orthorhombic'
loop_
_space_group_symop_operation_xyz
x,y,z
-x,-y,z
x,-y,-z
-x,y,-z
1/2+x,1/2+y,z
1/2-x,1/2-y,z
1/2+x,1/2-y,-z
1/2-x,1/2+y,-z
loop_
_atom_site_type_symbol
_atom_site_label
_atom_site_fract_x
_atom_site_fract_y
_atom_site_fract_z
Si Si1 0.830644 0.428882 0.726766
Si Si2 0.127999 0.275194 0.981156
Si Si3 0.397697 0.564474 0.825792
Si Si4 0.850966 0.326026 0.382423
O O1 0.873161 0.384210 0.908269
O O2 0.704738 0.421342 0.710751
O O3 0.882613 0.355152 0.578250
O O4 0.843037 0.553608 0.693328
O O5 0.250000 0.250000 0.968501
O O6 0.084639 0.181338 0.099402
O O7 0.092143 0.273999 0.781918
O O8 0.500000 0.500000 0.760278
O O9 0.365007 0.500000 0.000000
O O10 0.750000 0.250000 0.403190
#
# Coordination Sequence:
#
# PCOD9322448 Si02
#       4
#     8   8   8   8
#     4  10  19  32  52  79 111 149 195 248 307 365
#     4   9  17  31  51  73 106 148 190 242 299 357
#     4  10  19  32  52  80 117 157 192 238 306 378
#     4  10  18  29  51  80 108 142 192 252 305 354
#
# _framework density 25.62689
#
# number of rings (size 3 to 8) (size 9 to 14) (size 15 to 20)
#    0.000    2.250    0.000    7.500    0.000    0.000 
#    0.000    2.500    0.000   30.000    0.000   29.750 
#    0.000   36.000    0.000    0.500    0.000    0.000 
#
# Total GULP energy -89135.502275 kJ/mol
# GULP energy per Si atom -5570.968892 kJ/mol
# Density = 2.556856 g / cm^3
# Si number density = 25.626890 Si / 1000 Ang^3
#
#
#
# Elastic Constant Matrix: (Units=GPa)
#
#
# Indices 1 2 3 4 5 6 
#
# 1 110.1875 7.1972 22.9808 0.0000 0.0000 0.0000
# 2 7.1972 120.1885 27.1591 0.0000 0.0000 0.0000
# 3 22.9808 27.1591 124.4436 0.0000 0.0000 0.0000
# 4 0.0000 0.0000 0.0000 -0.9594 0.0000 0.0000
# 5 0.0000 0.0000 0.0000 0.0000 14.8636 0.0000
# 6 0.0000 0.0000 0.0000 0.0000 0.0000 12.2307
#
#
#
# Elastic Compliance Matrix: (Units=1/GPa)
#
#
# Indices 1 2 3 4 5 6 
#
# 1 0.009443 -0.000180 -0.001704 0.000000 0.000000 0.000000
# 2 -0.000180 0.008755 -0.001878 0.000000 0.000000 0.000000
# 3 -0.001704 -0.001878 0.008760 0.000000 0.000000 0.000000
# 4 0.000000 0.000000 0.000000 -1.042354 0.000000 0.000000
# 5 0.000000 0.000000 0.000000 0.000000 0.067278 0.000000
# 6 0.000000 0.000000 0.000000 0.000000 0.000000 0.081762
#
#
# Mechanical properties :
#
#
# Convention : Reuss Voigt Hill
#
# Bulk Modulus (GPa) = 51.45663 52.16598 51.81130
# Shear Modulus (GPa) = -5.86612 25.05914 9.59651
#
# Velocity S-wave (km/s) = -1.51460 3.13044 1.93722
# Velocity P-wave (km/s) = 4.13087 5.78501 5.02645
#
# Compressibility (1/GPa) = 0.01943384
#
# Stress axis : x y z
#
# Youngs Moduli (GPa) = 105.90200 114.21625 114.15161
#
# Poissons Ratio (x) = 0.02059 0.19456
# Poissons Ratio (y) = 0.01909 0.21432
# Poissons Ratio (z) = 0.18050 0.21444
#
# Static dielectric constant tensor:
#      x y z
#    x 2.151460 0.000000 0.000000 
#    y 0.000000 1.994590 0.000000 
#    z 0.000000 0.000000 2.066930 
# 
# From -- ./inp_files/14113.got.cif
#   From: 2010.05.17/outbox.cif.g08.bks.cpg/sg21_8_cif.got.tgz:14113.got - 2010.06.03 23:14:55.
