data_PCOD9322062
_publ_section_title
;
Structure prediction by ZEFSAII (Michael W. Deem and Ramdas Pophale) SiO2 
 PCOD9322062
Probable space group: C 2 2 21
;
_chemical_formula_sum "Si O2"
_cell_formula_units_Z 32
_cell_length_a 12.410110
_cell_length_b 4.839401
_cell_length_c 17.266544
_cell_angle_alpha 90.000000
_cell_angle_beta 90.000000
_cell_angle_gamma 90.000000
_cell_volume 1036.985445
_symmetry_space_group_name_H-M "C 2 2 21"
_symmetry_group_IT_number 20
_symmetry_cell_setting 'orthorhombic'
loop_
_space_group_symop_operation_xyz
x,y,z
-x,-y,1/2+z
x,-y,-z
-x,y,1/2-z
1/2+x,1/2+y,z
1/2-x,1/2-y,1/2+z
1/2+x,1/2-y,-z
1/2-x,1/2+y,1/2-z
loop_
_atom_site_type_symbol
_atom_site_label
_atom_site_fract_x
_atom_site_fract_y
_atom_site_fract_z
Si Si1 0.639492 0.002764 0.825944
Si Si2 0.117997 0.691691 0.348355
Si Si3 0.696005 0.645254 0.419236
Si Si4 0.561866 0.559098 0.907407
O O1 0.777074 0.078365 0.842201
O O2 0.644282 0.960043 0.734110
O O3 0.673736 0.761987 0.894590
O O4 0.594865 0.295273 0.855655
O O5 0.981637 0.681443 0.340841
O O6 0.075169 0.970547 0.408431
O O7 0.726675 0.500000 0.500000
O O8 0.647746 0.954086 0.411132
O O9 0.578499 0.500000 0.000000
#
# Coordination Sequence:
#
# PCOD9322062 Si02
#       4
#     8   8   8   8
#     4  12  26  48  75 106 145 196 247 300 365 443
#     4  12  26  46  72 108 147 190 243 306 367 433
#     4  12  25  45  73 107 145 193 246 304 366 436
#     4  12  26  47  73 107 147 193 244 302 365 438
#
# _framework density 30.858675999999999
#
# number of rings (size 3 to 8) (size 9 to 14) (size 15 to 20)
#    0.000    0.000    0.000   10.500    0.000    4.000 
#    0.000    0.000    0.000    0.000    0.000    0.000 
#    0.000    0.000    0.000    0.000    0.000    0.000 
#
# Total GULP energy -89767.889995 kJ/mol
# GULP energy per Si atom -5610.493125 kJ/mol
# Density = 3.078844 g / cm^3
# Si number density = 30.858676 Si / 1000 Ang^3
#
#
#
# Elastic Constant Matrix: (Units=GPa)
#
#
# Indices 1 2 3 4 5 6 
#
# 1 166.8741 72.9281 77.0805 0.0000 0.0000 0.0000
# 2 72.9281 320.7238 145.8680 0.0000 0.0000 0.0000
# 3 77.0805 145.8680 247.8226 0.0000 0.0000 0.0000
# 4 0.0000 0.0000 0.0000 62.2846 0.0000 0.0000
# 5 0.0000 0.0000 0.0000 0.0000 85.7641 0.0000
# 6 0.0000 0.0000 0.0000 0.0000 0.0000 107.0610
#
#
#
# Elastic Compliance Matrix: (Units=1/GPa)
#
#
# Indices 1 2 3 4 5 6 
#
# 1 0.007160 -0.000840 -0.001732 0.000000 0.000000 0.000000
# 2 -0.000840 0.004356 -0.002303 0.000000 0.000000 0.000000
# 3 -0.001732 -0.002303 0.005929 0.000000 0.000000 0.000000
# 4 0.000000 0.000000 0.000000 0.016055 0.000000 0.000000
# 5 0.000000 0.000000 0.000000 0.000000 0.011660 0.000000
# 6 0.000000 0.000000 0.000000 0.000000 0.000000 0.009340
#
#
# Mechanical properties :
#
#
# Convention : Reuss Voigt Hill
#
# Bulk Modulus (GPa) = 129.95677 147.46375 138.71026
# Shear Modulus (GPa) = 74.83107 80.32486 77.57796
#
# Velocity S-wave (km/s) = 4.92973 5.10749 5.01940
# Velocity P-wave (km/s) = 8.63759 9.09244 8.86793
#
# Compressibility (1/GPa) = 0.00769487
#
# Stress axis : x y z
#
# Youngs Moduli (GPa) = 139.66608 229.55133 168.65031
#
# Poissons Ratio (x) = 0.19285 0.29218
# Poissons Ratio (y) = 0.11734 0.38837
# Poissons Ratio (z) = 0.24197 0.52862
#
# Static dielectric constant tensor:
#      x y z
#    x 2.526120 0.000000 0.000000 
#    y 0.000000 2.259570 0.000000 
#    z 0.000000 0.000000 2.226570 
# 
# From -- ./inp_files/12465.got.cif
#   From: 2010.05.17/outbox.cif.g08.bks.cpg/sg20_7_cif.got.tgz:12465.got - 2010.06.03 22:52:26.
