data_PCOD9322680
_publ_section_title
;
Structure prediction by ZEFSAII (Michael W. Deem and Ramdas Pophale) SiO2 
 PCOD9322680
Probable space group: C 2 2 2
;
_chemical_formula_sum "Si O2"
_cell_formula_units_Z 48
_cell_length_a 9.299111
_cell_length_b 24.205621
_cell_length_c 10.806564
_cell_angle_alpha 90.000000
_cell_angle_beta 90.000000
_cell_angle_gamma 90.000000
_cell_volume 2432.457666
_symmetry_space_group_name_H-M "C 2 2 2"
_symmetry_group_IT_number 21
_symmetry_cell_setting 'orthorhombic'
loop_
_space_group_symop_operation_xyz
x,y,z
-x,-y,z
x,-y,-z
-x,y,-z
1/2+x,1/2+y,z
1/2-x,1/2-y,z
1/2+x,1/2-y,-z
1/2-x,1/2+y,-z
loop_
_atom_site_type_symbol
_atom_site_label
_atom_site_fract_x
_atom_site_fract_y
_atom_site_fract_z
Si Si1 0.331640 0.309366 0.798703
Si Si2 0.654160 0.797126 0.439381
Si Si3 0.404999 0.240337 0.161288
Si Si4 0.343909 0.615035 0.446522
Si Si5 0.565318 0.127745 0.119023
Si Si6 0.571645 0.059172 0.370065
O O1 0.250000 0.250000 0.782740
O O2 0.485114 0.290703 0.852243
O O3 0.354592 0.342472 0.669867
O O4 0.229738 0.349931 0.879246
O O5 0.500000 0.805237 0.500000
O O6 0.750000 0.750000 0.503822
O O7 0.618488 0.771873 0.306386
O O8 0.752650 0.851300 0.449497
O O9 0.250000 0.250000 0.101967
O O10 0.471875 0.183191 0.120410
O O11 0.500000 0.601009 0.500000
O O12 0.242343 0.564982 0.399348
O O13 0.544644 0.097145 0.250408
O O14 0.500000 0.096075 0.000000
O O15 0.500000 0.076569 0.500000
O O16 0.500000 0.000000 0.344522
#
# Coordination Sequence:
#
# PCOD9322680 Si02
#       6
#     8   8   8   8   8   8
#     4   9  18  31  47  77 121 159 194 233 274 334
#     4  11  18  26  44  76 118 160 196 231 274 336
#     4  10  19  29  47  78 114 153 191 228 274 334
#     4  11  19  30  53  83 115 152 193 241 299 358
#     4  10  21  37  57  81 111 152 195 234 282 341
#     4  10  22  41  62  83 110 142 185 247 306 351
#
# _framework density 19.733128000000001
#
# number of rings (size 3 to 8) (size 9 to 14) (size 15 to 20)
#    0.000    1.833    0.000    8.500    0.000    2.333 
#    0.000    2.500    0.000    0.000    0.000    0.000 
#    0.000   13.333    0.000    0.000    0.000    0.000 
#
# Total GULP energy -133761.061157 kJ/mol
# GULP energy per Si atom -5573.377548 kJ/mol
# Density = 1.968821 g / cm^3
# Si number density = 19.733128 Si / 1000 Ang^3
#
#
#
# Elastic Constant Matrix: (Units=GPa)
#
#
# Indices 1 2 3 4 5 6 
#
# 1 169.8186 54.8896 48.3321 0.0000 0.0000 0.0000
# 2 54.8896 87.0911 25.2863 0.0000 0.0000 0.0000
# 3 48.3321 25.2863 117.1855 0.0000 0.0000 0.0000
# 4 0.0000 0.0000 0.0000 16.3750 0.0000 0.0000
# 5 0.0000 0.0000 0.0000 0.0000 20.2788 0.0000
# 6 0.0000 0.0000 0.0000 0.0000 0.0000 27.9229
#
#
#
# Elastic Compliance Matrix: (Units=1/GPa)
#
#
# Indices 1 2 3 4 5 6 
#
# 1 0.007957 -0.004334 -0.002347 0.000000 0.000000 0.000000
# 2 -0.004334 0.014610 -0.001365 0.000000 0.000000 0.000000
# 3 -0.002347 -0.001365 0.009796 0.000000 0.000000 0.000000
# 4 0.000000 0.000000 0.000000 0.061069 0.000000 0.000000
# 5 0.000000 0.000000 0.000000 0.000000 0.049313 0.000000
# 6 0.000000 0.000000 0.000000 0.000000 0.000000 0.035813
#
#
# Mechanical properties :
#
#
# Convention : Reuss Voigt Hill
#
# Bulk Modulus (GPa) = 61.45567 70.12349 65.78958
# Shear Modulus (GPa) = 24.99090 29.28781 27.13935
#
# Velocity S-wave (km/s) = 3.56257 3.85670 3.71255
# Velocity P-wave (km/s) = 6.93784 7.44616 7.19649
#
# Compressibility (1/GPa) = 0.01627189
#
# Stress axis : x y z
#
# Youngs Moduli (GPa) = 125.67002 68.44642 102.08295
#
# Poissons Ratio (x) = 0.29663 0.23957
# Poissons Ratio (y) = 0.54463 0.13935
# Poissons Ratio (z) = 0.29492 0.09344
#
# Static dielectric constant tensor:
#      x y z
#    x 1.782540 0.000000 0.000000 
#    y 0.000000 1.709010 0.000000 
#    z 0.000000 0.000000 1.704940 
# 
# From -- ./inp_files/23033.got.cif
#   From: 2010.05.17/outbox.cif.g08.bks.cpg/sg21_12_cif.got.tgz:23033.got - 2010.06.03 23:14:55.
