data_PCOD9322049
_publ_section_title
;
Structure prediction by ZEFSAII (Michael W. Deem and Ramdas Pophale) SiO2 
 PCOD9322049
Probable space group: C 2 2 21
;
_chemical_formula_sum "Si O2"
_cell_formula_units_Z 36
_cell_length_a 22.241935
_cell_length_b 11.953087
_cell_length_c 5.202081
_cell_angle_alpha 90.000000
_cell_angle_beta 90.000000
_cell_angle_gamma 90.000000
_cell_volume 1383.024132
_symmetry_space_group_name_H-M "C 2 2 21"
_symmetry_group_IT_number 20
_symmetry_cell_setting 'orthorhombic'
loop_
_space_group_symop_operation_xyz
x,y,z
-x,-y,1/2+z
x,-y,-z
-x,y,1/2-z
1/2+x,1/2+y,z
1/2-x,1/2-y,1/2+z
1/2+x,1/2-y,-z
1/2-x,1/2+y,1/2-z
loop_
_atom_site_type_symbol
_atom_site_label
_atom_site_fract_x
_atom_site_fract_y
_atom_site_fract_z
Si Si1 0.603103 0.304731 0.091224
Si Si2 0.000000 0.069888 0.750000
Si Si3 0.115981 0.627965 0.512045
Si Si4 0.268860 0.818690 0.274318
Si Si5 0.500000 0.801328 0.250000
Si Si6 0.693158 0.500000 0.000000
O O1 0.562902 0.368214 0.310236
O O2 0.628257 0.201494 0.259732
O O3 0.648022 0.394161 0.960719
O O4 0.547863 0.267702 0.912821
O O5 0.985361 0.000000 0.500000
O O6 0.133950 0.500000 0.500000
O O7 0.159262 0.673028 0.737828
O O8 0.045058 0.630610 0.569435
O O9 0.249696 0.767126 0.544990
O O10 0.236757 0.938262 0.208964
#
# Coordination Sequence:
#
# PCOD9322049 Si02
#       6
#     8   4   8   8   4   4
#     4  12  26  47  76 117 163 206 278 343 425 497
#     4  12  25  41  72 108 152 201 250 327 408 472
#     4  12  28  49  78 113 162 219 281 345 414 505
#     4  12  28  55  82 120 165 217 278 341 420 505
#     4  12  27  49  78 116 160 217 276 347 416 510
#     4  12  26  50  82 124 162 226 268 358 422 516
#
# _framework density 26.029913000000001
#
# number of rings (size 3 to 8) (size 9 to 14) (size 15 to 20)
#    0.000    0.000    6.667    2.000    3.111    2.667 
#    4.000    0.000    0.000    0.000    0.000    0.000 
#    0.000    0.000    0.000    0.000    0.000    0.000 
#
# Total GULP energy -100596.992442 kJ/mol
# GULP energy per Si atom -5588.721802 kJ/mol
# Density = 2.597067 g / cm^3
# Si number density = 26.029913 Si / 1000 Ang^3
#
#
#
# Elastic Constant Matrix: (Units=GPa)
#
#
# Indices 1 2 3 4 5 6 
#
# 1 184.2994 31.7483 29.1559 0.0000 0.0000 0.0000
# 2 31.7483 161.0253 35.3342 0.0000 0.0000 0.0000
# 3 29.1559 35.3342 104.6958 0.0000 0.0000 0.0000
# 4 0.0000 0.0000 0.0000 12.3606 0.0000 0.0000
# 5 0.0000 0.0000 0.0000 0.0000 39.7261 0.0000
# 6 0.0000 0.0000 0.0000 0.0000 0.0000 42.8284
#
#
#
# Elastic Compliance Matrix: (Units=1/GPa)
#
#
# Indices 1 2 3 4 5 6 
#
# 1 0.005782 -0.000850 -0.001323 0.000000 0.000000 0.000000
# 2 -0.000850 0.006832 -0.002069 0.000000 0.000000 0.000000
# 3 -0.001323 -0.002069 0.010618 0.000000 0.000000 0.000000
# 4 0.000000 0.000000 0.000000 0.080903 0.000000 0.000000
# 5 0.000000 0.000000 0.000000 0.000000 0.025172 0.000000
# 6 0.000000 0.000000 0.000000 0.000000 0.000000 0.023349
#
#
# Mechanical properties :
#
#
# Convention : Reuss Voigt Hill
#
# Bulk Modulus (GPa) = 67.80716 71.38860 69.59788
# Shear Modulus (GPa) = 30.11043 42.56850 36.33947
#
# Velocity S-wave (km/s) = 3.40481 4.04836 3.74045
# Velocity P-wave (km/s) = 6.44696 7.02406 6.74168
#
# Compressibility (1/GPa) = 0.01474771
#
# Stress axis : x y z
#
# Youngs Moduli (GPa) = 172.96087 146.37590 94.17687
#
# Poissons Ratio (x) = 0.12435 0.12463
# Poissons Ratio (y) = 0.14694 0.19486
# Poissons Ratio (z) = 0.22889 0.30286
#
# Static dielectric constant tensor:
#      x y z
#    x 2.072890 0.000000 0.000000 
#    y 0.000000 2.199720 0.000000 
#    z 0.000000 0.000000 2.077880 
# 
# From -- ./inp_files/1281.got.cif
#   From: 2010.05.17/outbox.cif.g08.bks.cpg/sg20_1_cif.got.tgz:1281.got - 2010.06.03 22:52:26.
