data_PCOD9322065
_publ_section_title
;
Structure prediction by ZEFSAII (Michael W. Deem and Ramdas Pophale) SiO2 
 PCOD9322065
Probable space group: C 2 2 21
;
_chemical_formula_sum "Si O2"
_cell_formula_units_Z 32
_cell_length_a 16.540880
_cell_length_b 8.642643
_cell_length_c 8.168572
_cell_angle_alpha 90.000000
_cell_angle_beta 90.000000
_cell_angle_gamma 90.000000
_cell_volume 1167.753900
_symmetry_space_group_name_H-M "C 2 2 21"
_symmetry_group_IT_number 20
_symmetry_cell_setting 'orthorhombic'
loop_
_space_group_symop_operation_xyz
x,y,z
-x,-y,1/2+z
x,-y,-z
-x,y,1/2-z
1/2+x,1/2+y,z
1/2-x,1/2-y,1/2+z
1/2+x,1/2-y,-z
1/2-x,1/2+y,1/2-z
loop_
_atom_site_type_symbol
_atom_site_label
_atom_site_fract_x
_atom_site_fract_y
_atom_site_fract_z
Si Si1 0.790842 0.363023 0.777763
Si Si2 0.000000 0.271062 0.250000
Si Si3 0.344332 0.329249 0.929313
Si Si4 0.562068 0.179105 0.096527
Si Si5 0.846847 0.000000 0.500000
O O1 0.732584 0.260316 0.665268
O O2 0.860007 0.420163 0.656155
O O3 0.844481 0.281249 0.914499
O O4 0.716692 0.453909 0.858509
O O5 0.923552 0.175466 0.182445
O O6 0.975934 0.359203 0.417527
O O7 0.329598 0.500000 0.000000
O O8 0.500000 0.184818 0.250000
O O9 0.598127 0.354430 0.059197
#
# Coordination Sequence:
#
# PCOD9322065 Si02
#       5
#     8   4   8   8   4
#     4  12  25  46  71 109 156 202 244 308 380 452
#     4  12  26  42  78 114 152 186 254 324 376 430
#     4  12  26  43  75 114 153 195 248 316 377 445
#     4  12  27  46  76 112 155 196 252 318 372 443
#     4  12  26  44  78 112 152 200 252 308 380 450
#
# _framework density 27.403033000000001
#
# number of rings (size 3 to 8) (size 9 to 14) (size 15 to 20)
#    0.000    0.000    7.500    1.500    3.500    0.000 
#    0.000    0.000    5.500    0.000    0.000    0.000 
#    0.000    0.000    0.000    0.000    0.000    0.000 
#
# Total GULP energy -89399.721189 kJ/mol
# GULP energy per Si atom -5587.482574 kJ/mol
# Density = 2.734066 g / cm^3
# Si number density = 27.403033 Si / 1000 Ang^3
#
#
#
# Elastic Constant Matrix: (Units=GPa)
#
#
# Indices 1 2 3 4 5 6 
#
# 1 216.7497 31.6077 97.6836 0.0000 0.0000 0.0000
# 2 31.6077 58.3498 41.2731 0.0000 0.0000 0.0000
# 3 97.6836 41.2731 235.5500 0.0000 0.0000 0.0000
# 4 0.0000 0.0000 0.0000 26.9606 0.0000 0.0000
# 5 0.0000 0.0000 0.0000 0.0000 73.7641 0.0000
# 6 0.0000 0.0000 0.0000 0.0000 0.0000 40.9741
#
#
#
# Elastic Compliance Matrix: (Units=1/GPa)
#
#
# Indices 1 2 3 4 5 6 
#
# 1 0.005810 -0.001647 -0.002121 0.000000 0.000000 0.000000
# 2 -0.001647 0.020030 -0.002827 0.000000 0.000000 0.000000
# 3 -0.002121 -0.002827 0.005620 0.000000 0.000000 0.000000
# 4 0.000000 0.000000 0.000000 0.037091 0.000000 0.000000
# 5 0.000000 0.000000 0.000000 0.000000 0.013557 0.000000
# 6 0.000000 0.000000 0.000000 0.000000 0.000000 0.024406
#
#
# Mechanical properties :
#
#
# Convention : Reuss Voigt Hill
#
# Bulk Modulus (GPa) = 54.73222 94.64203 74.68712
# Shear Modulus (GPa) = 39.74839 51.01211 45.38025
#
# Velocity S-wave (km/s) = 3.81269 4.31925 4.07385
# Velocity P-wave (km/s) = 6.27683 7.71275 7.03154
#
# Compressibility (1/GPa) = 0.01827077
#
# Stress axis : x y z
#
# Youngs Moduli (GPa) = 172.13163 49.92629 177.93282
#
# Poissons Ratio (x) = 0.08223 0.37733
# Poissons Ratio (y) = 0.28349 0.50294
# Poissons Ratio (z) = 0.36503 0.14112
#
# Static dielectric constant tensor:
#      x y z
#    x 2.083570 0.000000 0.000000 
#    y 0.000000 2.300640 0.000000 
#    z 0.000000 0.000000 2.281640 
# 
# From -- ./inp_files/6849.got.cif
#   From: 2010.05.17/outbox.cif.g08.bks.cpg/sg20_4_cif.got.tgz:6849.got - 2010.06.03 22:52:26.
