data_PCOD9322968
_publ_section_title
;
Structure prediction by ZEFSAII (Michael W. Deem and Ramdas Pophale) SiO2 
 PCOD9322968
Probable space group: C 2 2 2
;
_chemical_formula_sum "Si O2"
_cell_formula_units_Z 64
_cell_length_a 28.812424
_cell_length_b 11.635317
_cell_length_c 9.448795
_cell_angle_alpha 90.000000
_cell_angle_beta 90.000000
_cell_angle_gamma 90.000000
_cell_volume 3167.629974
_symmetry_space_group_name_H-M "C 2 2 2"
_symmetry_group_IT_number 21
_symmetry_cell_setting 'orthorhombic'
loop_
_space_group_symop_operation_xyz
x,y,z
-x,-y,z
x,-y,-z
-x,y,-z
1/2+x,1/2+y,z
1/2-x,1/2-y,z
1/2+x,1/2-y,-z
1/2-x,1/2+y,-z
loop_
_atom_site_type_symbol
_atom_site_label
_atom_site_fract_x
_atom_site_fract_y
_atom_site_fract_z
Si Si1 0.350439 0.224443 0.066681
Si Si2 0.987038 0.369426 0.165617
Si Si3 0.806640 0.037602 0.837071
Si Si4 0.429881 0.265384 0.269367
Si Si5 0.890794 0.262402 0.234391
Si Si6 0.603450 0.516260 0.668970
Si Si7 0.281413 0.134162 0.263499
Si Si8 0.135153 0.368634 0.482985
O O1 0.328297 0.335781 0.141155
O O2 0.401082 0.214692 0.135937
O O3 0.314443 0.130566 0.123779
O O4 0.357983 0.243950 0.902532
O O5 0.933259 0.346157 0.195629
O O6 0.000000 0.500000 0.203262
O O7 0.018496 0.281039 0.254824
O O8 0.000000 0.353045 0.000000
O O9 0.845393 0.980535 0.739153
O O10 0.757706 0.038189 0.757316
O O11 0.801671 0.000000 0.000000
O O12 0.423810 0.403532 0.274250
O O13 0.402332 0.208832 0.399918
O O14 0.861399 0.311644 0.364160
O O15 0.913923 0.140753 0.280362
O O16 0.605569 0.500000 0.500000
O O17 0.250000 0.250000 0.274139
O O18 0.317165 0.129487 0.393319
O O19 0.119268 0.500000 0.500000
#
# Coordination Sequence:
#
# PCOD9322968 Si02
#       8
#     8   8   8   8   8   8   8   8
#     4   9  19  38  61  91 126 164 212 271 326 380
#     4  11  24  43  68 101 131 172 220 271 323 384
#     4  10  19  36  65  92 123 166 223 265 329 394
#     4  10  21  43  65  91 135 168 210 273 332 388
#     4  12  23  41  68 101 126 171 231 264 329 405
#     4  11  23  41  67  96 133 179 207 273 347 395
#     4   9  21  40  60  86 130 174 211 274 334 380
#     4  11  24  42  61  91 131 178 215 262 339 395
#
# _framework density 20.20438
#
# number of rings (size 3 to 8) (size 9 to 14) (size 15 to 20)
#    0.000    1.625    3.750    1.500    0.000    2.500 
#    0.000    4.375    0.000    0.000    0.000    0.000 
#    0.000    0.000    0.000    0.000    0.000    0.000 
#
# Total GULP energy -178396.790434 kJ/mol
# GULP energy per Si atom -5574.899701 kJ/mol
# Density = 2.015839 g / cm^3
# Si number density = 20.204380 Si / 1000 Ang^3
#
#
#
# Elastic Constant Matrix: (Units=GPa)
#
#
# Indices 1 2 3 4 5 6 
#
# 1 82.2811 15.4731 19.3250 0.0000 0.0000 0.0000
# 2 15.4731 79.8295 10.7792 0.0000 0.0000 0.0000
# 3 19.3250 10.7792 108.7831 0.0000 0.0000 0.0000
# 4 0.0000 0.0000 0.0000 21.3390 0.0000 0.0000
# 5 0.0000 0.0000 0.0000 0.0000 16.3535 0.0000
# 6 0.0000 0.0000 0.0000 0.0000 0.0000 19.3229
#
#
#
# Elastic Compliance Matrix: (Units=1/GPa)
#
#
# Indices 1 2 3 4 5 6 
#
# 1 0.013069 -0.002250 -0.002099 0.000000 0.000000 0.000000
# 2 -0.002250 0.013084 -0.000897 0.000000 0.000000 0.000000
# 3 -0.002099 -0.000897 0.009654 0.000000 0.000000 0.000000
# 4 0.000000 0.000000 0.000000 0.046862 0.000000 0.000000
# 5 0.000000 0.000000 0.000000 0.000000 0.061149 0.000000
# 6 0.000000 0.000000 0.000000 0.000000 0.000000 0.051752
#
#
# Mechanical properties :
#
#
# Convention : Reuss Voigt Hill
#
# Bulk Modulus (GPa) = 39.49948 40.22760 39.86354
# Shear Modulus (GPa) = 23.30992 26.42418 24.86705
#
# Velocity S-wave (km/s) = 3.40031 3.62034 3.51205
# Velocity P-wave (km/s) = 5.91680 6.11795 6.01822
#
# Compressibility (1/GPa) = 0.02531679
#
# Stress axis : x y z
#
# Youngs Moduli (GPa) = 76.51408 76.42998 103.58063
#
# Poissons Ratio (x) = 0.17195 0.21740
# Poissons Ratio (y) = 0.17214 0.09289
# Poissons Ratio (z) = 0.16059 0.06854
#
# Static dielectric constant tensor:
#      x y z
#    x 1.719870 0.000000 0.000000 
#    y 0.000000 1.785190 0.000000 
#    z 0.000000 0.000000 1.748700 
# 
# From -- ./inp_files/19817.got.cif
#   From: 2010.05.17/outbox.cif.g08.bks.cpg/sg21_10_cif.got.tgz:19817.got - 2010.06.03 23:14:55.
