data_PCOD9322116
_publ_section_title
;
Structure prediction by ZEFSAII (Michael W. Deem and Ramdas Pophale) SiO2 
 PCOD9322116
Probable space group: C 2 2 21
;
_chemical_formula_sum "Si O2"
_cell_formula_units_Z 32
_cell_length_a 9.205654
_cell_length_b 17.142746
_cell_length_c 7.742750
_cell_angle_alpha 90.000000
_cell_angle_beta 90.000000
_cell_angle_gamma 90.000000
_cell_volume 1221.884835
_symmetry_space_group_name_H-M "C 2 2 21"
_symmetry_group_IT_number 20
_symmetry_cell_setting 'orthorhombic'
loop_
_space_group_symop_operation_xyz
x,y,z
-x,-y,1/2+z
x,-y,-z
-x,y,1/2-z
1/2+x,1/2+y,z
1/2-x,1/2-y,1/2+z
1/2+x,1/2-y,-z
1/2-x,1/2+y,1/2-z
loop_
_atom_site_type_symbol
_atom_site_label
_atom_site_fract_x
_atom_site_fract_y
_atom_site_fract_z
Si Si1 0.768174 0.258007 0.674802
Si Si2 0.019321 0.334403 0.446953
Si Si3 0.876024 0.500000 0.000000
Si Si4 0.877399 0.096210 0.367158
Si Si5 0.000000 0.860532 0.250000
O O1 0.677540 0.204563 0.538725
O O2 0.668573 0.325079 0.761203
O O3 0.855827 0.192106 0.784550
O O4 0.899462 0.301833 0.574602
O O5 0.026927 0.427087 0.450721
O O6 0.000000 0.312138 0.250000
O O7 0.763752 0.459214 0.868640
O O8 0.947976 0.105189 0.561116
O O9 0.000000 0.057516 0.250000
#
# Coordination Sequence:
#
# PCOD9322116 Si02
#       5
#     8   8   4   8   4
#     4  12  27  53  90 125 167 228 298 347 426 524
#     4  12  30  52  87 128 173 228 285 362 432 515
#     4  12  30  54  76 128 174 224 278 358 446 498
#     4  12  30  50  86 124 170 227 282 356 431 517
#     4  12  26  50  80 126 164 214 290 348 412 504
#
# _framework density 26.189049000000001
#
# number of rings (size 3 to 8) (size 9 to 14) (size 15 to 20)
#    0.000    0.000    2.500    5.250   15.750    0.000 
#    0.000    0.000    0.000    0.000    0.000    0.000 
#    0.000    0.000    0.000    0.000    0.000    0.000 
#
# Total GULP energy -89288.567891 kJ/mol
# GULP energy per Si atom -5580.535493 kJ/mol
# Density = 2.612944 g / cm^3
# Si number density = 26.189049 Si / 1000 Ang^3
#
#
#
# Elastic Constant Matrix: (Units=GPa)
#
#
# Indices 1 2 3 4 5 6 
#
# 1 97.0697 33.1457 33.1246 0.0000 0.0000 0.0000
# 2 33.1457 153.6405 23.4065 0.0000 0.0000 0.0000
# 3 33.1246 23.4065 109.4853 0.0000 0.0000 0.0000
# 4 0.0000 0.0000 0.0000 33.7410 0.0000 0.0000
# 5 0.0000 0.0000 0.0000 0.0000 59.0946 0.0000
# 6 0.0000 0.0000 0.0000 0.0000 0.0000 34.1886
#
#
#
# Elastic Compliance Matrix: (Units=1/GPa)
#
#
# Indices 1 2 3 4 5 6 
#
# 1 0.012125 -0.002126 -0.003214 0.000000 0.000000 0.000000
# 2 -0.002126 0.007101 -0.000875 0.000000 0.000000 0.000000
# 3 -0.003214 -0.000875 0.010293 0.000000 0.000000 0.000000
# 4 0.000000 0.000000 0.000000 0.029637 0.000000 0.000000
# 5 0.000000 0.000000 0.000000 0.000000 0.016922 0.000000
# 6 0.000000 0.000000 0.000000 0.000000 0.000000 0.029250
#
#
# Mechanical properties :
#
#
# Convention : Reuss Voigt Hill
#
# Bulk Modulus (GPa) = 58.51735 59.94991 59.23363
# Shear Modulus (GPa) = 40.50135 43.43943 41.97039
#
# Velocity S-wave (km/s) = 3.93682 4.07712 4.00758
# Velocity P-wave (km/s) = 6.56182 6.71601 6.63936
#
# Compressibility (1/GPa) = 0.01708895
#
# Stress axis : x y z
#
# Youngs Moduli (GPa) = 82.47746 140.83229 97.15370
#
# Poissons Ratio (x) = 0.29942 0.31222
# Poissons Ratio (y) = 0.17535 0.08499
# Poissons Ratio (z) = 0.26506 0.12320
#
# Static dielectric constant tensor:
#      x y z
#    x 3.172590 0.000000 0.000000 
#    y 0.000000 2.094690 0.000000 
#    z 0.000000 0.000000 1.548190 
# 
# From -- ./inp_files/5842.got.cif
#   From: 2010.05.17/outbox.cif.g08.bks.cpg/sg20_3_cif.got.tgz:5842.got - 2010.06.03 22:52:26.
