data_PCOD9322020
_publ_section_title
;
Structure prediction by ZEFSAII (Michael W. Deem and Ramdas Pophale) SiO2 
 PCOD9322020
Probable space group: C 2 2 21
;
_chemical_formula_sum "Si O2"
_cell_formula_units_Z 36
_cell_length_a 11.668385
_cell_length_b 28.987748
_cell_length_c 5.038526
_cell_angle_alpha 90.000000
_cell_angle_beta 90.000000
_cell_angle_gamma 90.000000
_cell_volume 1704.232062
_symmetry_space_group_name_H-M "C 2 2 21"
_symmetry_group_IT_number 20
_symmetry_cell_setting 'orthorhombic'
loop_
_space_group_symop_operation_xyz
x,y,z
-x,-y,1/2+z
x,-y,-z
-x,y,1/2-z
1/2+x,1/2+y,z
1/2-x,1/2-y,1/2+z
1/2+x,1/2-y,-z
1/2-x,1/2+y,1/2-z
loop_
_atom_site_type_symbol
_atom_site_label
_atom_site_fract_x
_atom_site_fract_y
_atom_site_fract_z
Si Si1 0.369508 0.951181 0.140203
Si Si2 0.832526 0.252535 0.979977
Si Si3 0.426306 0.652564 0.000853
Si Si4 0.687019 0.895509 0.885408
Si Si5 0.000000 0.328891 0.750000
O O1 0.500000 0.951212 0.250000
O O2 0.305459 0.937805 0.409700
O O3 0.335823 0.914099 0.912563
O O4 0.348664 0.000000 0.000000
O O5 0.763223 0.255682 0.253568
O O6 0.912307 0.207711 0.986920
O O7 0.910717 0.296467 0.908353
O O8 0.500000 0.638850 0.250000
O O9 0.300274 0.633316 0.055254
O O10 0.500000 0.636712 0.750000
O O11 0.578449 0.861830 0.933255
#
# Coordination Sequence:
#
# PCOD9322020 Si02
#       5
#     8   8   8   8   4
#     4  12  24  45  71 108 143 174 216 289 377 444
#     4  12  27  42  63  97 144 190 234 292 343 406
#     4  12  26  47  68  97 140 201 248 291 348 414
#     4  12  26  43  72 104 141 180 235 294 351 430
#     4  12  26  42  70 104 146 182 238 286 352 410
#
# _framework density 21.123882999999999
#
# number of rings (size 3 to 8) (size 9 to 14) (size 15 to 20)
#    0.000    0.000    5.556    4.667    3.111    1.778 
#    0.000    0.000    0.000   13.333    0.000    0.000 
#    0.000    0.000    0.000    0.000    0.000    0.000 
#
# Total GULP energy -100645.026722 kJ/mol
# GULP energy per Si atom -5591.390373 kJ/mol
# Density = 2.107580 g / cm^3
# Si number density = 21.123883 Si / 1000 Ang^3
#
#
#
# Elastic Constant Matrix: (Units=GPa)
#
#
# Indices 1 2 3 4 5 6 
#
# 1 113.1775 35.5756 35.7303 0.0000 0.0000 0.0000
# 2 35.5756 77.3672 19.4216 0.0000 0.0000 0.0000
# 3 35.7303 19.4216 116.0444 0.0000 0.0000 0.0000
# 4 0.0000 0.0000 0.0000 34.2418 0.0000 0.0000
# 5 0.0000 0.0000 0.0000 0.0000 28.8649 0.0000
# 6 0.0000 0.0000 0.0000 0.0000 0.0000 12.4305
#
#
#
# Elastic Compliance Matrix: (Units=1/GPa)
#
#
# Indices 1 2 3 4 5 6 
#
# 1 0.011067 -0.004419 -0.002668 0.000000 0.000000 0.000000
# 2 -0.004419 0.015257 -0.001193 0.000000 0.000000 0.000000
# 3 -0.002668 -0.001193 0.009638 0.000000 0.000000 0.000000
# 4 0.000000 0.000000 0.000000 0.029204 0.000000 0.000000
# 5 0.000000 0.000000 0.000000 0.000000 0.034644 0.000000
# 6 0.000000 0.000000 0.000000 0.000000 0.000000 0.080447
#
#
# Mechanical properties :
#
#
# Convention : Reuss Voigt Hill
#
# Bulk Modulus (GPa) = 51.53956 54.22712 52.88334
# Shear Modulus (GPa) = 24.59598 29.49821 27.04709
#
# Velocity S-wave (km/s) = 3.41599 3.74095 3.58215
# Velocity P-wave (km/s) = 6.32537 6.66231 6.49602
#
# Compressibility (1/GPa) = 0.01940257
#
# Stress axis : x y z
#
# Youngs Moduli (GPa) = 90.35821 65.54420 103.75072
#
# Poissons Ratio (x) = 0.28965 0.27680
# Poissons Ratio (y) = 0.39931 0.12375
# Poissons Ratio (z) = 0.24107 0.07818
#
# Static dielectric constant tensor:
#      x y z
#    x 1.762160 0.000000 0.000000 
#    y 0.000000 1.794630 0.000000 
#    z 0.000000 0.000000 1.770730 
# 
# From -- ./inp_files/1362.got.cif
#   From: 2010.05.17/outbox.cif.g08.bks.cpg/sg20_1_cif.got.tgz:1362.got - 2010.06.03 22:52:26.
