data_PCOD9322468
_publ_section_title
;
Structure prediction by ZEFSAII (Michael W. Deem and Ramdas Pophale) SiO2 
 PCOD9322468
Probable space group: C 2 2 2
;
_chemical_formula_sum "Si O2"
_cell_formula_units_Z 48
_cell_length_a 25.723263
_cell_length_b 9.727055
_cell_length_c 7.220384
_cell_angle_alpha 90.000000
_cell_angle_beta 90.000000
_cell_angle_gamma 90.000000
_cell_volume 1806.623790
_symmetry_space_group_name_H-M "C 2 2 2"
_symmetry_group_IT_number 21
_symmetry_cell_setting 'orthorhombic'
loop_
_space_group_symop_operation_xyz
x,y,z
-x,-y,z
x,-y,-z
-x,y,-z
1/2+x,1/2+y,z
1/2-x,1/2-y,z
1/2+x,1/2-y,-z
1/2-x,1/2+y,-z
loop_
_atom_site_type_symbol
_atom_site_label
_atom_site_fract_x
_atom_site_fract_y
_atom_site_fract_z
Si Si1 0.887514 0.004450 0.291176
Si Si2 0.065528 0.273329 0.666420
Si Si3 0.122237 0.541560 0.742678
Si Si4 0.716502 0.133295 0.086080
Si Si5 0.453070 0.736615 0.777846
Si Si6 0.807910 0.769245 0.302622
O O1 0.926450 0.908691 0.176118
O O2 0.833706 0.919113 0.305673
O O3 0.908974 0.000000 0.500000
O O4 0.890620 0.166227 0.258177
O O5 0.081554 0.430016 0.678441
O O6 0.053493 0.253468 0.447543
O O7 0.014674 0.245619 0.792905
O O8 0.169158 0.445656 0.817828
O O9 0.084590 0.644858 0.859271
O O10 0.153729 0.652770 0.616156
O O11 0.750000 0.250000 0.190296
O O12 0.695743 0.220432 0.911071
O O13 0.747265 0.000000 0.000000
O O14 0.750000 0.750000 0.376839
#
# Coordination Sequence:
#
# PCOD9322468 Si02
#       6
#     8   8   8   8   8   8
#     4   9  18  33  53  78 106 140 179 215 261 321
#     4  10  18  30  53  81 105 138 180 219 265 328
#     4  10  19  30  51  79 102 129 175 222 263 312
#     4   9  19  35  55  76  99 136 184 226 266 316
#     4   9  18  33  51  75 111 143 171 216 274 330
#     4   9  19  37  54  71 106 147 176 218 275 320
#
# _framework density 26.568895000000001
#
# number of rings (size 3 to 8) (size 9 to 14) (size 15 to 20)
#    0.000    2.667    0.000    1.500    0.000    7.333 
#    0.000    5.000    0.000   35.000    0.000    9.333 
#    0.000    0.000    0.000    0.000    0.000    0.000 
#
# Total GULP energy -133777.385563 kJ/mol
# GULP energy per Si atom -5574.057732 kJ/mol
# Density = 2.650842 g / cm^3
# Si number density = 26.568895 Si / 1000 Ang^3
#
#
#
# Elastic Constant Matrix: (Units=GPa)
#
#
# Indices 1 2 3 4 5 6 
#
# 1 139.4804 83.5831 -6.4548 0.0000 0.0000 0.0000
# 2 83.5831 217.6570 13.6674 0.0000 0.0000 0.0000
# 3 -6.4548 13.6674 60.7027 0.0000 0.0000 0.0000
# 4 0.0000 0.0000 0.0000 28.6025 0.0000 0.0000
# 5 0.0000 0.0000 0.0000 0.0000 21.3620 0.0000
# 6 0.0000 0.0000 0.0000 0.0000 0.0000 34.5697
#
#
#
# Elastic Compliance Matrix: (Units=1/GPa)
#
#
# Indices 1 2 3 4 5 6 
#
# 1 0.009515 -0.003771 0.001861 0.000000 0.000000 0.000000
# 2 -0.003771 0.006155 -0.001787 0.000000 0.000000 0.000000
# 3 0.001861 -0.001787 0.017074 0.000000 0.000000 0.000000
# 4 0.000000 0.000000 0.000000 0.034962 0.000000 0.000000
# 5 0.000000 0.000000 0.000000 0.000000 0.046812 0.000000
# 6 0.000000 0.000000 0.000000 0.000000 0.000000 0.028927
#
#
# Mechanical properties :
#
#
# Convention : Reuss Voigt Hill
#
# Bulk Modulus (GPa) = 39.44728 66.60352 53.02540
# Shear Modulus (GPa) = 31.38959 38.70978 35.04969
#
# Velocity S-wave (km/s) = 3.44094 3.82115 3.63602
# Velocity P-wave (km/s) = 5.53770 6.67764 6.13421
#
# Compressibility (1/GPa) = 0.02535029
#
# Stress axis : x y z
#
# Youngs Moduli (GPa) = 105.09471 162.47951 58.56902
#
# Poissons Ratio (x) = 0.61268 -0.10899
# Poissons Ratio (y) = 0.39629 0.10465
# Poissons Ratio (z) = -0.19556 0.29030
#
# Static dielectric constant tensor:
#      x y z
#    x 2.236020 0.000000 0.000000 
#    y 0.000000 2.104100 0.000000 
#    z 0.000000 0.000000 2.294840 
# 
# From -- ./inp_files/22784.got.cif
#   From: 2010.05.17/outbox.cif.g08.bks.cpg/sg21_12_cif.got.tgz:22784.got - 2010.06.03 23:14:55.
