data_PCOD9322314
_publ_section_title
;
Structure prediction by ZEFSAII (Michael W. Deem and Ramdas Pophale) SiO2 
 PCOD9322314
Probable space group: C 2 2 2
;
_chemical_formula_sum "Si O2"
_cell_formula_units_Z 56
_cell_length_a 17.714664
_cell_length_b 22.917281
_cell_length_c 5.468594
_cell_angle_alpha 90.000000
_cell_angle_beta 90.000000
_cell_angle_gamma 90.000000
_cell_volume 2220.095675
_symmetry_space_group_name_H-M "C 2 2 2"
_symmetry_group_IT_number 21
_symmetry_cell_setting 'orthorhombic'
loop_
_space_group_symop_operation_xyz
x,y,z
-x,-y,z
x,-y,-z
-x,y,-z
1/2+x,1/2+y,z
1/2-x,1/2-y,z
1/2+x,1/2-y,-z
1/2-x,1/2+y,-z
loop_
_atom_site_type_symbol
_atom_site_label
_atom_site_fract_x
_atom_site_fract_y
_atom_site_fract_z
Si Si1 0.973279 0.400914 0.750000
Si Si2 0.818634 0.142089 0.750000
Si Si3 0.910363 0.966853 0.750000
Si Si4 0.924079 0.716665 0.750000
Si Si5 0.251859 0.012322 0.250000
Si Si6 0.587355 0.342297 0.250000
Si Si7 0.346525 0.817276 0.750000
O O1 0.018012 0.337386 0.750000
O O2 0.000000 0.429499 0.500000
O O3 0.886003 0.381803 0.750000
O O4 0.000000 0.429499 0.000000
O O5 0.789141 0.075031 0.750000
O O6 0.864307 0.154684 0.501331
O O7 0.742560 0.179213 0.750000
O O8 0.864307 0.154684 0.998668
O O9 0.951848 0.905006 0.750000
O O10 0.925807 0.000000 0.500000
O O11 0.818016 0.965398 0.750000
O O12 0.925807 0.000000 0.000000
O O13 0.957674 0.781785 0.750000
O O14 0.875376 0.710599 0.502946
O O15 0.875376 0.710599 0.997054
O O16 0.294929 0.000000 0.500000
O O17 0.294929 0.000000 0.000000
#
# Coordination Sequence:
#
# PCOD9322314 Si02
#       7
#     8   8   8   8   8   8   8
#     4   8  16  34  54  64  86 122 166 212 234 274
#     4  12  21  30  48  72 102 137 167 190 242 303
#     4  10  16  30  46  63  91 137 162 195 230 279
#     4  10  21  35  49  70  98 130 169 203 245 280
#     4  10  16  30  46  63  91 137 162 195 230 279
#     4  12  21  30  48  72 102 137 167 190 242 303
#     4  10  21  35  49  70  98 130 169 203 245 280
#
# _framework density 25.224138
#
# number of rings (size 3 to 8) (size 9 to 14) (size 15 to 20)
#    0.000    1.714    5.714    1.714    0.000    3.429 
#    0.000    0.000    0.000    0.000    0.000    0.000 
#    0.000   61.714    0.000    0.000    0.000    0.000 
#
# Total GULP energy -156556.254742 kJ/mol
# GULP energy per Si atom -5591.294812 kJ/mol
# Density = 2.516673 g / cm^3
# Si number density = 25.224138 Si / 1000 Ang^3
#
#
#
# Elastic Constant Matrix: (Units=GPa)
#
#
# Indices 1 2 3 4 5 6 
#
# 1 50.8436 1.2758 41.2720 0.0000 0.0000 0.0000
# 2 1.2758 96.3634 25.8421 0.0000 0.0000 0.0000
# 3 41.2720 25.8421 292.8456 0.0000 0.0000 0.0000
# 4 0.0000 0.0000 0.0000 31.4330 0.0000 0.0000
# 5 0.0000 0.0000 0.0000 0.0000 26.0683 0.0000
# 6 0.0000 0.0000 0.0000 0.0000 0.0000 0.2588
#
#
#
# Elastic Compliance Matrix: (Units=1/GPa)
#
#
# Indices 1 2 3 4 5 6 
#
# 1 0.022238 0.000559 -0.003183 0.000000 0.000000 0.000000
# 2 0.000559 0.010643 -0.001018 0.000000 0.000000 0.000000
# 3 -0.003183 -0.001018 0.003953 0.000000 0.000000 0.000000
# 4 0.000000 0.000000 0.000000 0.031814 0.000000 0.000000
# 5 0.000000 0.000000 0.000000 0.000000 0.038361 0.000000
# 6 0.000000 0.000000 0.000000 0.000000 0.000000 3.864002
#
#
# Mechanical properties :
#
#
# Convention : Reuss Voigt Hill
#
# Bulk Modulus (GPa) = 33.84076 64.09247 48.96662
# Shear Modulus (GPa) = 1.25372 36.32953 18.79162
#
# Velocity S-wave (km/s) = 0.70577 3.79920 2.73240
# Velocity P-wave (km/s) = 3.75623 6.68652 5.42305
#
# Compressibility (1/GPa) = 0.02955017
#
# Stress axis : x y z
#
# Youngs Moduli (GPa) = 44.96744 93.95862 252.95539
#
# Poissons Ratio (x) = -0.05255 0.80528
# Poissons Ratio (y) = -0.02515 0.25751
# Poissons Ratio (z) = 0.14315 0.09565
#
# Static dielectric constant tensor:
#      x y z
#    x 1.964630 0.000000 0.000000 
#    y 0.000000 2.064040 0.000000 
#    z 0.000000 0.000000 2.015140 
# 
# From -- ./inp_files/6156.got.cif
#   From: 2010.05.17/outbox.cif.g08.bks.cpg/sg21_4_cif.got.tgz:6156.got - 2010.06.03 23:14:55.
