data_PCOD9322714
_publ_section_title
;
Structure prediction by ZEFSAII (Michael W. Deem and Ramdas Pophale) SiO2 
 PCOD9322714
Probable space group: C 2 2 2
;
_chemical_formula_sum "Si O2"
_cell_formula_units_Z 52
_cell_length_a 22.701339
_cell_length_b 14.910054
_cell_length_c 8.168913
_cell_angle_alpha 90.000000
_cell_angle_beta 90.000000
_cell_angle_gamma 90.000000
_cell_volume 2764.998889
_symmetry_space_group_name_H-M "C 2 2 2"
_symmetry_group_IT_number 21
_symmetry_cell_setting 'orthorhombic'
loop_
_space_group_symop_operation_xyz
x,y,z
-x,-y,z
x,-y,-z
-x,y,-z
1/2+x,1/2+y,z
1/2-x,1/2-y,z
1/2+x,1/2-y,-z
1/2-x,1/2+y,-z
loop_
_atom_site_type_symbol
_atom_site_label
_atom_site_fract_x
_atom_site_fract_y
_atom_site_fract_z
Si Si1 0.832527 0.431355 0.847191
Si Si2 0.500000 0.500000 0.737475
Si Si3 0.317489 0.556623 0.309883
Si Si4 0.790256 0.500000 0.500000
Si Si5 0.393314 0.250460 0.162450
Si Si6 0.891424 0.108292 0.591705
Si Si7 0.000000 0.854662 0.000000
Si Si8 0.279864 0.661872 0.001250
O O1 0.826234 0.468021 0.660523
O O2 0.882425 0.354767 0.849217
O O3 0.841541 0.500000 0.000000
O O4 0.769855 0.383944 0.889269
O O5 0.450817 0.554518 0.636898
O O6 0.475934 0.422501 0.859827
O O7 0.257184 0.567255 0.414494
O O8 0.369293 0.607864 0.406151
O O9 0.341705 0.454425 0.318904
O O10 0.303481 0.591526 0.132303
O O11 0.397421 0.291765 0.343584
O O12 0.448433 0.292128 0.067644
O O13 0.334857 0.297468 0.093013
O O14 0.250000 0.750000 0.083772
#
# Coordination Sequence:
#
# PCOD9322714 Si02
#       8
#     8   4   8   4   8   8   4   8
#     4  11  22  39  59  86 117 155 199 247 301 355
#     4   9  16  31  54  80 114 162 192 233 290 355
#     4  10  19  31  50  83 116 159 189 231 286 350
#     4  10  20  34  58  79 113 152 188 236 292 356
#     4  10  21  36  56  84 114 152 198 251 295 350
#     4   9  19  31  49  78 115 151 194 234 286 343
#     4   9  18  34  57  86 114 150 205 246 292 349
#     4  10  20  33  54  82 118 155 193 235 289 356
#
# _framework density 18.806516999999999
#
# number of rings (size 3 to 8) (size 9 to 14) (size 15 to 20)
#    0.000    2.308    1.538    2.769    0.000    3.692 
#    0.000    0.385    0.000    0.000    0.000    1.077 
#    0.000    0.000    0.000    0.000    0.000    0.000 
#
# Total GULP energy -144744.314839 kJ/mol
# GULP energy per Si atom -5567.089032 kJ/mol
# Density = 1.876371 g / cm^3
# Si number density = 18.806517 Si / 1000 Ang^3
#
#
#
# Elastic Constant Matrix: (Units=GPa)
#
#
# Indices 1 2 3 4 5 6 
#
# 1 61.3038 39.6296 22.0495 0.0000 0.0000 0.0000
# 2 39.6296 91.0933 45.9737 0.0000 0.0000 0.0000
# 3 22.0495 45.9737 94.6868 0.0000 0.0000 0.0000
# 4 0.0000 0.0000 0.0000 23.8076 0.0000 0.0000
# 5 0.0000 0.0000 0.0000 0.0000 20.8264 0.0000
# 6 0.0000 0.0000 0.0000 0.0000 0.0000 27.8764
#
#
#
# Elastic Compliance Matrix: (Units=1/GPa)
#
#
# Indices 1 2 3 4 5 6 
#
# 1 0.022725 -0.009558 -0.000651 0.000000 0.000000 0.000000
# 2 -0.009558 0.018561 -0.006786 0.000000 0.000000 0.000000
# 3 -0.000651 -0.006786 0.014008 0.000000 0.000000 0.000000
# 4 0.000000 0.000000 0.000000 0.042003 0.000000 0.000000
# 5 0.000000 0.000000 0.000000 0.000000 0.048016 0.000000
# 6 0.000000 0.000000 0.000000 0.000000 0.000000 0.035873
#
#
# Mechanical properties :
#
#
# Convention : Reuss Voigt Hill
#
# Bulk Modulus (GPa) = 46.94165 51.37661 49.15913
# Shear Modulus (GPa) = 22.49450 23.79751 23.14600
#
# Velocity S-wave (km/s) = 3.46222 3.56109 3.51200
# Velocity P-wave (km/s) = 6.40290 6.65479 6.53006
#
# Compressibility (1/GPa) = 0.02130304
#
# Stress axis : x y z
#
# Youngs Moduli (GPa) = 44.00438 53.87740 71.38922
#
# Poissons Ratio (x) = 0.51494 0.04650
# Poissons Ratio (y) = 0.42058 0.48446
# Poissons Ratio (z) = 0.02866 0.36562
#
# Static dielectric constant tensor:
#      x y z
#    x 1.666980 0.000000 0.000000 
#    y 0.000000 1.684230 0.000000 
#    z 0.000000 0.000000 1.711840 
# 
# From -- ./inp_files/18583.got.cif
#   From: 2010.05.17/outbox.cif.g08.bks.cpg/sg21_10_cif.got.tgz:18583.got - 2010.06.03 23:14:55.
