data_PCOD9322328
_publ_section_title
;
Structure prediction by ZEFSAII (Michael W. Deem and Ramdas Pophale) SiO2 
 PCOD9322328
Probable space group: C 2 2 2
;
_chemical_formula_sum "Si O2"
_cell_formula_units_Z 64
_cell_length_a 18.670152
_cell_length_b 29.612537
_cell_length_c 5.513896
_cell_angle_alpha 90.000000
_cell_angle_beta 90.000000
_cell_angle_gamma 90.000000
_cell_volume 3048.470807
_symmetry_space_group_name_H-M "C 2 2 2"
_symmetry_group_IT_number 21
_symmetry_cell_setting 'orthorhombic'
loop_
_space_group_symop_operation_xyz
x,y,z
-x,-y,z
x,-y,-z
-x,y,-z
1/2+x,1/2+y,z
1/2-x,1/2-y,z
1/2+x,1/2-y,-z
1/2-x,1/2+y,-z
loop_
_atom_site_type_symbol
_atom_site_label
_atom_site_fract_x
_atom_site_fract_y
_atom_site_fract_z
Si Si1 0.700920 0.576602 0.969634
Si Si2 0.803854 0.655735 0.784687
Si Si3 0.162194 0.048033 0.479482
Si Si4 0.033003 0.635400 0.249268
Si Si5 0.585057 0.352341 0.007025
Si Si6 0.085516 0.854434 0.505016
Si Si7 0.807432 0.289291 0.717290
Si Si8 0.526423 0.762228 0.254783
O O1 0.749813 0.618326 0.888007
O O2 0.705212 0.545888 0.732731
O O3 0.709267 0.554978 0.235028
O O4 0.621216 0.598409 0.988345
O O5 0.882071 0.633280 0.763606
O O6 0.792627 0.677138 0.514671
O O7 0.802833 0.690672 0.009457
O O8 0.117675 0.094866 0.492615
O O9 0.121138 0.000000 0.500000
O O10 0.000000 0.617092 0.500000
O O11 0.013494 0.689050 0.250686
O O12 0.000000 0.616719 0.000000
O O13 0.608487 0.330884 0.754016
O O14 0.500000 0.357525 0.000000
O O15 0.608814 0.330300 0.258116
O O16 0.000000 0.859597 0.500000
O O17 0.750000 0.250000 0.693027
O O18 0.890116 0.272840 0.710935
O O19 0.500000 0.738021 0.500000
O O20 0.500000 0.740498 0.000000
#
# Coordination Sequence:
#
# PCOD9322328 Si02
#       8
#     8   8   8   8   8   8   8   8
#     4  10  21  33  51  77 102 139 180 226 273 316
#     4  12  21  36  55  80 115 142 178 229 271 337
#     4  10  19  33  49  71 105 141 176 218 271 331
#     4  10  16  30  54  79 103 137 164 209 290 322
#     4   8  14  27  44  63  87 130 174 204 259 312
#     4   8  14  24  41  65  92 117 160 220 267 306
#     4  12  23  35  55  84 113 147 178 217 275 340
#     4  10  16  32  54  77 105 140 172 211 280 330
#
# _framework density 20.994133999999999
#
# number of rings (size 3 to 8) (size 9 to 14) (size 15 to 20)
#    0.000    2.000    5.000    1.500    0.000    0.250 
#    0.000    0.000    0.000    9.750    0.000    0.000 
#    0.000    7.500    0.000    0.000    0.000    0.000 
#
# Total GULP energy -178175.551144 kJ/mol
# GULP energy per Si atom -5567.985973 kJ/mol
# Density = 2.094635 g / cm^3
# Si number density = 20.994134 Si / 1000 Ang^3
#
#
#
# Elastic Constant Matrix: (Units=GPa)
#
#
# Indices 1 2 3 4 5 6 
#
# 1 75.0900 26.9866 10.4511 0.0000 0.0000 0.0000
# 2 26.9866 58.7903 14.2400 0.0000 0.0000 0.0000
# 3 10.4511 14.2400 238.7122 0.0000 0.0000 0.0000
# 4 0.0000 0.0000 0.0000 59.0473 0.0000 0.0000
# 5 0.0000 0.0000 0.0000 0.0000 24.2009 0.0000
# 6 0.0000 0.0000 0.0000 0.0000 0.0000 5.6234
#
#
#
# Elastic Compliance Matrix: (Units=1/GPa)
#
#
# Indices 1 2 3 4 5 6 
#
# 1 0.015965 -0.007264 -0.000266 0.000000 0.000000 0.000000
# 2 -0.007264 0.020564 -0.000909 0.000000 0.000000 0.000000
# 3 -0.000266 -0.000909 0.004255 0.000000 0.000000 0.000000
# 4 0.000000 0.000000 0.000000 0.016936 0.000000 0.000000
# 5 0.000000 0.000000 0.000000 0.000000 0.041321 0.000000
# 6 0.000000 0.000000 0.000000 0.000000 0.000000 0.177828
#
#
# Mechanical properties :
#
#
# Convention : Reuss Voigt Hill
#
# Bulk Modulus (GPa) = 41.82829 52.88312 47.35571
# Shear Modulus (GPa) = 16.57197 39.16864 27.87030
#
# Velocity S-wave (km/s) = 2.81261 4.32405 3.64748
# Velocity P-wave (km/s) = 5.52401 7.08337 6.35172
#
# Compressibility (1/GPa) = 0.02390726
#
# Stress axis : x y z
#
# Youngs Moduli (GPa) = 62.63719 48.62835 235.01870
#
# Poissons Ratio (x) = 0.35324 0.06243
# Poissons Ratio (y) = 0.45500 0.21356
# Poissons Ratio (z) = 0.01664 0.04419
#
# Static dielectric constant tensor:
#      x y z
#    x 1.756560 0.000000 0.000000 
#    y 0.000000 1.792940 0.000000 
#    z 0.000000 0.000000 1.950470 
# 
# From -- ./inp_files/5394.got.cif
#   From: 2010.05.17/outbox.cif.g08.bks.cpg/sg21_3_cif.got.tgz:5394.got - 2010.06.03 23:14:55.
