data_PCOD9322141
_publ_section_title
;
Structure prediction by ZEFSAII (Michael W. Deem and Ramdas Pophale) SiO2 
 PCOD9322141
Probable space group: C 2 2 21
;
_chemical_formula_sum "Si O2"
_cell_formula_units_Z 28
_cell_length_a 13.940835
_cell_length_b 7.096117
_cell_length_c 10.866421
_cell_angle_alpha 90.000000
_cell_angle_beta 90.000000
_cell_angle_gamma 90.000000
_cell_volume 1074.969350
_symmetry_space_group_name_H-M "C 2 2 21"
_symmetry_group_IT_number 20
_symmetry_cell_setting 'orthorhombic'
loop_
_space_group_symop_operation_xyz
x,y,z
-x,-y,1/2+z
x,-y,-z
-x,y,1/2-z
1/2+x,1/2+y,z
1/2-x,1/2-y,1/2+z
1/2+x,1/2-y,-z
1/2-x,1/2+y,1/2-z
loop_
_atom_site_type_symbol
_atom_site_label
_atom_site_fract_x
_atom_site_fract_y
_atom_site_fract_z
Si Si1 0.900919 0.734893 0.808446
Si Si2 0.337627 0.795494 0.554152
Si Si3 0.000405 0.000000 0.500000
Si Si4 0.770310 0.370954 0.830748
O O1 0.841505 0.860616 0.710669
O O2 0.000000 0.662113 0.750000
O O3 0.928755 0.839300 0.451858
O O4 0.931814 0.886875 0.908178
O O5 0.249762 0.732103 0.461665
O O6 0.311011 0.798497 0.698628
O O7 0.362996 0.000000 0.500000
O O8 0.337784 0.947001 0.154776
#
# Coordination Sequence:
#
# PCOD9322141 Si02
#       4
#     8   8   4   8
#     4  12  28  58  86 132 180 245 301 382 461 547
#     4  12  27  58  93 133 187 246 308 381 466 551
#     4  12  28  56  90 134 180 246 310 378 468 556
#     4  12  27  58  88 136 187 239 312 379 463 549
#
# _framework density 26.047252
#
# number of rings (size 3 to 8) (size 9 to 14) (size 15 to 20)
#    0.000    0.000    5.714    1.714    2.000    0.000 
#   30.857    0.000    0.000    0.000    0.000    0.000 
#    0.000    0.000    0.000    0.000    0.000    0.000 
#
# Total GULP energy -78100.921626 kJ/mol
# GULP energy per Si atom -5578.637259 kJ/mol
# Density = 2.598797 g / cm^3
# Si number density = 26.047252 Si / 1000 Ang^3
#
#
#
# Elastic Constant Matrix: (Units=GPa)
#
#
# Indices 1 2 3 4 5 6 
#
# 1 148.5015 91.2415 71.7997 0.0000 0.0000 0.0000
# 2 91.2415 187.4326 71.1322 0.0000 0.0000 0.0000
# 3 71.7997 71.1322 202.1166 0.0000 0.0000 0.0000
# 4 0.0000 0.0000 0.0000 55.6912 0.0000 0.0000
# 5 0.0000 0.0000 0.0000 0.0000 14.4953 0.0000
# 6 0.0000 0.0000 0.0000 0.0000 0.0000 141.3820
#
#
#
# Elastic Compliance Matrix: (Units=1/GPa)
#
#
# Indices 1 2 3 4 5 6 
#
# 1 0.010396 -0.004223 -0.002207 0.000000 0.000000 0.000000
# 2 -0.004223 0.007873 -0.001271 0.000000 0.000000 0.000000
# 3 -0.002207 -0.001271 0.006179 0.000000 0.000000 0.000000
# 4 0.000000 0.000000 0.000000 0.017956 0.000000 0.000000
# 5 0.000000 0.000000 0.000000 0.000000 0.068988 0.000000
# 6 0.000000 0.000000 0.000000 0.000000 0.000000 0.007073
#
#
# Mechanical properties :
#
#
# Convention : Reuss Voigt Hill
#
# Bulk Modulus (GPa) = 110.53731 111.82195 111.17963
# Shear Modulus (GPa) = 36.52806 62.57219 49.55013
#
# Velocity S-wave (km/s) = 3.74889 4.90660 4.36629
# Velocity P-wave (km/s) = 7.82741 8.66737 8.25807
#
# Compressibility (1/GPa) = 0.00904672
#
# Stress axis : x y z
#
# Youngs Moduli (GPa) = 96.19487 127.01207 161.84559
#
# Poissons Ratio (x) = 0.53638 0.35714
# Poissons Ratio (y) = 0.40624 0.20566
# Poissons Ratio (z) = 0.21227 0.16139
#
# Static dielectric constant tensor:
#      x y z
#    x 2.044950 0.000000 0.000000 
#    y 0.000000 2.125740 0.000000 
#    z 0.000000 0.000000 1.578380 
# 
# From -- ./inp_files/10445.got.cif
#   From: 2010.05.17/outbox.cif.g08.bks.cpg/sg20_6_cif.got.tgz:10445.got - 2010.06.03 22:52:26.
