data_PCOD9322572
_publ_section_title
;
Structure prediction by ZEFSAII (Michael W. Deem and Ramdas Pophale) SiO2 
 PCOD9322572
Probable space group: C 2 2 2
;
_chemical_formula_sum "Si O2"
_cell_formula_units_Z 36
_cell_length_a 14.894470
_cell_length_b 14.718740
_cell_length_c 7.588865
_cell_angle_alpha 90.000000
_cell_angle_beta 90.000000
_cell_angle_gamma 90.000000
_cell_volume 1663.690416
_symmetry_space_group_name_H-M "C 2 2 2"
_symmetry_group_IT_number 21
_symmetry_cell_setting 'orthorhombic'
loop_
_space_group_symop_operation_xyz
x,y,z
-x,-y,z
x,-y,-z
-x,y,-z
1/2+x,1/2+y,z
1/2-x,1/2-y,z
1/2+x,1/2-y,-z
1/2-x,1/2+y,-z
loop_
_atom_site_type_symbol
_atom_site_label
_atom_site_fract_x
_atom_site_fract_y
_atom_site_fract_z
Si Si1 0.266631 0.061232 0.324619
Si Si2 0.404899 0.466180 0.709379
Si Si3 0.036521 0.407584 0.197959
Si Si4 0.750000 0.750000 0.486103
Si Si5 0.434737 0.265977 0.651895
O O1 0.356830 0.084106 0.218812
O O2 0.226866 0.159113 0.380508
O O3 0.288176 0.000000 0.500000
O O4 0.187906 0.008603 0.223527
O O5 0.500000 0.500000 0.779265
O O6 0.402537 0.500000 0.500000
O O7 0.405334 0.358579 0.745765
O O8 0.000000 0.500000 0.285890
O O9 0.995132 0.314864 0.272418
O O10 0.000000 0.408412 0.000000
O O11 0.659912 0.775609 0.590605
O O12 0.500000 0.303846 0.500000
#
# Coordination Sequence:
#
# PCOD9322572 Si02
#       5
#     8   8   8   4   8
#     4  11  21  37  66 102 135 174 227 287 346 399
#     4  10  18  34  60 103 138 161 208 290 340 383
#     4  11  27  45  62  92 140 183 224 280 349 416
#     4  12  20  32  64 108 122 162 228 288 338 392
#     4  12  21  37  68 100 132 169 226 280 337 409
#
# _framework density 21.638642000000001
#
# number of rings (size 3 to 8) (size 9 to 14) (size 15 to 20)
#    0.000    0.889    8.889    1.333    0.000    0.000 
#    0.000    1.111    0.000    0.667    0.000    0.000 
#    0.000    0.000    0.000    0.000    0.000    0.000 
#
# Total GULP energy -100329.161640 kJ/mol
# GULP energy per Si atom -5573.842313 kJ/mol
# Density = 2.158939 g / cm^3
# Si number density = 21.638642 Si / 1000 Ang^3
#
#
#
# Elastic Constant Matrix: (Units=GPa)
#
#
# Indices 1 2 3 4 5 6 
#
# 1 220.6021 60.1476 32.2569 0.0000 0.0000 0.0000
# 2 60.1476 192.5997 14.1945 0.0000 0.0000 0.0000
# 3 32.2569 14.1945 36.5027 0.0000 0.0000 0.0000
# 4 0.0000 0.0000 0.0000 -2.8766 0.0000 0.0000
# 5 0.0000 0.0000 0.0000 0.0000 -22.7654 0.0000
# 6 0.0000 0.0000 0.0000 0.0000 0.0000 56.8477
#
#
#
# Elastic Compliance Matrix: (Units=1/GPa)
#
#
# Indices 1 2 3 4 5 6 
#
# 1 0.005556 -0.001414 -0.004360 0.000000 0.000000 0.000000
# 2 -0.001414 0.005705 -0.000969 0.000000 0.000000 0.000000
# 3 -0.004360 -0.000969 0.031625 0.000000 0.000000 0.000000
# 4 0.000000 0.000000 0.000000 -0.347631 0.000000 0.000000
# 5 0.000000 0.000000 0.000000 0.000000 -0.043926 0.000000
# 6 0.000000 0.000000 0.000000 0.000000 0.000000 0.017591
#
#
# Mechanical properties :
#
#
# Convention : Reuss Voigt Hill
#
# Bulk Modulus (GPa) = 34.01341 73.65583 53.83462
# Shear Modulus (GPa) = -16.24461 29.11483 6.43511
#
# Velocity S-wave (km/s) = -2.74290 3.67209 1.72637
# Velocity P-wave (km/s) = 2.39198 7.21747 5.37650
#
# Compressibility (1/GPa) = 0.02940017
#
# Stress axis : x y z
#
# Youngs Moduli (GPa) = 179.98380 175.28306 31.62058
#
# Poissons Ratio (x) = 0.24781 0.13787
# Poissons Ratio (y) = 0.25446 0.03064
# Poissons Ratio (z) = 0.78474 0.16987
#
# Static dielectric constant tensor:
#      x y z
#    x 1.824360 0.000000 0.000000 
#    y 0.000000 1.901640 0.000000 
#    z 0.000000 0.000000 1.827590 
# 
# From -- ./inp_files/14393.got.cif
#   From: 2010.05.17/outbox.cif.g08.bks.cpg/sg21_8_cif.got.tgz:14393.got - 2010.06.03 23:14:55.
