data_PCOD9322974
_publ_section_title
;
Structure prediction by ZEFSAII (Michael W. Deem and Ramdas Pophale) SiO2 
 PCOD9322974
Probable space group: C 2 2 2
;
_chemical_formula_sum "Si O2"
_cell_formula_units_Z 48
_cell_length_a 14.272784
_cell_length_b 26.690330
_cell_length_c 5.739270
_cell_angle_alpha 90.000000
_cell_angle_beta 90.000000
_cell_angle_gamma 90.000000
_cell_volume 2186.348018
_symmetry_space_group_name_H-M "C 2 2 2"
_symmetry_group_IT_number 21
_symmetry_cell_setting 'orthorhombic'
loop_
_space_group_symop_operation_xyz
x,y,z
-x,-y,z
x,-y,-z
-x,y,-z
1/2+x,1/2+y,z
1/2-x,1/2-y,z
1/2+x,1/2-y,-z
1/2-x,1/2+y,-z
loop_
_atom_site_type_symbol
_atom_site_label
_atom_site_fract_x
_atom_site_fract_y
_atom_site_fract_z
Si Si1 0.604763 0.417629 0.934434
Si Si2 0.102861 0.817545 0.615379
Si Si3 0.269121 0.955654 0.675750
Si Si4 0.891753 0.385863 0.943311
Si Si5 0.261584 0.370259 0.688557
Si Si6 0.444818 0.212745 0.251005
O O1 0.603665 0.366254 0.781535
O O2 0.667070 0.458385 0.796478
O O3 0.500000 0.432555 0.000000
O O4 0.662493 0.401155 0.160445
O O5 0.183104 0.823837 0.421009
O O6 0.112500 0.764551 0.743523
O O7 0.000000 0.818358 0.500000
O O8 0.344142 0.938169 0.867697
O O9 0.265417 0.906779 0.517357
O O10 0.291602 0.000000 0.500000
O O11 0.891439 0.340049 0.759739
O O12 0.829287 0.363525 0.152914
O O13 0.000000 0.395151 0.000000
O O14 0.500000 0.212124 0.500000
O O15 0.500000 0.214122 0.000000
#
# Coordination Sequence:
#
# PCOD9322974 Si02
#       6
#     8   8   8   8   8   8
#     4  10  19  37  65  97 139 185 223 277 352 427
#     4  10  19  36  69  97 138 184 230 283 345 426
#     4  10  24  44  67  98 136 172 238 310 357 436
#     4  10  24  45  72  92 138 189 238 302 376 426
#     4  10  22  41  67  98 134 178 229 294 348 435
#     4  10  23  40  71 102 140 191 241 293 356 439
#
# _framework density 21.954416999999999
#
# number of rings (size 3 to 8) (size 9 to 14) (size 15 to 20)
#    0.000    2.000    1.667    0.500    7.000    2.667 
#    0.000   14.167    0.000    0.000    0.000    0.000 
#    0.000    0.000    0.000    0.000    0.000    0.000 
#
# Total GULP energy -133894.170567 kJ/mol
# GULP energy per Si atom -5578.923774 kJ/mol
# Density = 2.190445 g / cm^3
# Si number density = 21.954417 Si / 1000 Ang^3
#
#
#
# Elastic Constant Matrix: (Units=GPa)
#
#
# Indices 1 2 3 4 5 6 
#
# 1 153.0881 44.6678 50.4472 0.0000 0.0000 0.0000
# 2 44.6678 92.3987 26.0900 0.0000 0.0000 0.0000
# 3 50.4472 26.0900 93.4682 0.0000 0.0000 0.0000
# 4 0.0000 0.0000 0.0000 59.1071 0.0000 0.0000
# 5 0.0000 0.0000 0.0000 0.0000 37.8033 0.0000
# 6 0.0000 0.0000 0.0000 0.0000 0.0000 6.4538
#
#
#
# Elastic Compliance Matrix: (Units=1/GPa)
#
#
# Indices 1 2 3 4 5 6 
#
# 1 0.008706 -0.003128 -0.003825 0.000000 0.000000 0.000000
# 2 -0.003128 0.012873 -0.001905 0.000000 0.000000 0.000000
# 3 -0.003825 -0.001905 0.013295 0.000000 0.000000 0.000000
# 4 0.000000 0.000000 0.000000 0.016918 0.000000 0.000000
# 5 0.000000 0.000000 0.000000 0.000000 0.026453 0.000000
# 6 0.000000 0.000000 0.000000 0.000000 0.000000 0.154947
#
#
# Mechanical properties :
#
#
# Convention : Reuss Voigt Hill
#
# Bulk Modulus (GPa) = 58.28682 64.59610 61.44146
# Shear Modulus (GPa) = 19.48352 35.18951 27.33652
#
# Velocity S-wave (km/s) = 2.98225 4.00790 3.53249
# Velocity P-wave (km/s) = 6.20202 7.13473 6.68466
#
# Compressibility (1/GPa) = 0.01715654
#
# Stress axis : x y z
#
# Youngs Moduli (GPa) = 114.86937 77.68313 75.21530
#
# Poissons Ratio (x) = 0.24302 0.28773
# Poissons Ratio (y) = 0.35935 0.14327
# Poissons Ratio (z) = 0.43942 0.14797
#
# Static dielectric constant tensor:
#      x y z
#    x 1.699400 0.000000 0.000000 
#    y 0.000000 1.791570 0.000000 
#    z 0.000000 0.000000 1.975520 
# 
# From -- ./inp_files/4134.got.cif
#   From: 2010.05.17/outbox.cif.g08.bks.cpg/sg21_3_cif.got.tgz:4134.got - 2010.06.03 23:14:55.
