data_PCOD9322522
_publ_section_title
;
Structure prediction by ZEFSAII (Michael W. Deem and Ramdas Pophale) SiO2 
 PCOD9322522
Probable space group: C 2 2 2
;
_chemical_formula_sum "Si O2"
_cell_formula_units_Z 32
_cell_length_a 5.116609
_cell_length_b 14.986029
_cell_length_c 18.320149
_cell_angle_alpha 90.000000
_cell_angle_beta 90.000000
_cell_angle_gamma 90.000000
_cell_volume 1404.745989
_symmetry_space_group_name_H-M "C 2 2 2"
_symmetry_group_IT_number 21
_symmetry_cell_setting 'orthorhombic'
loop_
_space_group_symop_operation_xyz
x,y,z
-x,-y,z
x,-y,-z
-x,y,-z
1/2+x,1/2+y,z
1/2-x,1/2-y,z
1/2+x,1/2-y,-z
1/2-x,1/2+y,-z
loop_
_atom_site_type_symbol
_atom_site_label
_atom_site_fract_x
_atom_site_fract_y
_atom_site_fract_z
Si Si1 0.288700 0.142557 0.063635
Si Si2 0.755501 0.939560 0.698906
Si Si3 0.770917 0.857430 0.854004
Si Si4 0.246918 0.356960 0.543400
O O1 0.250000 0.250000 0.055332
O O2 0.472922 0.114259 0.130536
O O3 0.993313 0.112827 0.086272
O O4 0.500000 0.117584 0.000000
O O5 0.833458 0.888021 0.772974
O O6 0.718487 0.878516 0.628396
O O7 0.500000 0.000000 0.710802
O O8 0.000000 0.000000 0.679683
O O9 0.750000 0.750000 0.859031
O O10 0.500000 0.390239 0.500000
O O11 0.250000 0.250000 0.537479
O O12 0.000000 0.392726 0.500000
#
# Coordination Sequence:
#
# PCOD9322522 Si02
#       4
#     8   8   8   8
#     4  10  18  32  58  91 118 144 192 254 305 349
#     4  12  25  40  60  87 124 164 203 248 295 356
#     4  10  21  37  59  86 118 156 196 244 300 357
#     4  10  22  41  65  91 120 156 200 250 303 359
#
# _framework density 22.779920000000001
#
# number of rings (size 3 to 8) (size 9 to 14) (size 15 to 20)
#    0.000    1.500    0.000    6.750    0.000    3.000 
#    0.000   10.000    0.000   11.250    0.000    0.000 
#    0.000    0.000    0.000    0.000    0.000    0.000 
#
# Total GULP energy -89238.358668 kJ/mol
# GULP energy per Si atom -5577.397417 kJ/mol
# Density = 2.272807 g / cm^3
# Si number density = 22.779920 Si / 1000 Ang^3
#
#
#
# Elastic Constant Matrix: (Units=GPa)
#
#
# Indices 1 2 3 4 5 6 
#
# 1 189.7734 22.5884 35.5877 0.0000 0.0000 0.0000
# 2 22.5884 48.3505 12.4096 0.0000 0.0000 0.0000
# 3 35.5877 12.4096 125.4338 0.0000 0.0000 0.0000
# 4 0.0000 0.0000 0.0000 -44.6330 0.0000 0.0000
# 5 0.0000 0.0000 0.0000 0.0000 42.5866 0.0000
# 6 0.0000 0.0000 0.0000 0.0000 0.0000 -22.6249
#
#
#
# Elastic Compliance Matrix: (Units=1/GPa)
#
#
# Indices 1 2 3 4 5 6 
#
# 1 0.005815 -0.002353 -0.001417 0.000000 0.000000 0.000000
# 2 -0.002353 0.022173 -0.001526 0.000000 0.000000 0.000000
# 3 -0.001417 -0.001526 0.008525 0.000000 0.000000 0.000000
# 4 0.000000 0.000000 0.000000 -0.022405 0.000000 0.000000
# 5 0.000000 0.000000 0.000000 0.000000 0.023482 0.000000
# 6 0.000000 0.000000 0.000000 0.000000 0.000000 -0.044199
#
#
# Mechanical properties :
#
#
# Convention : Reuss Voigt Hill
#
# Bulk Modulus (GPa) = 38.57806 56.08099 47.32952
# Shear Modulus (GPa) = 396.05719 14.59721 205.32720
#
# Velocity S-wave (km/s) = 13.19999 2.53414 9.50425
# Velocity P-wave (km/s) = 15.78897 5.76494 11.88542
#
# Compressibility (1/GPa) = 0.02592147
#
# Stress axis : x y z
#
# Youngs Moduli (GPa) = 171.96117 45.09927 117.29697
#
# Poissons Ratio (x) = 0.10612 0.16622
# Poissons Ratio (y) = 0.40464 0.17900
# Poissons Ratio (z) = 0.24368 0.06883
#
# Static dielectric constant tensor:
#      x y z
#    x 1.836690 0.000000 0.000000 
#    y 0.000000 1.855060 0.000000 
#    z 0.000000 0.000000 1.848070 
# 
# From -- ./inp_files/34316.got.cif
#   From: 2010.05.17/outbox.cif.g08.bks.cpg/sg21_18_cif.got.tgz:34316.got - 2010.06.03 23:14:55.
