data_PCOD9322043
_publ_section_title
;
Structure prediction by ZEFSAII (Michael W. Deem and Ramdas Pophale) SiO2 
 PCOD9322043
Probable space group: C 2 2 21
;
_chemical_formula_sum "Si O2"
_cell_formula_units_Z 40
_cell_length_a 7.468211
_cell_length_b 12.403534
_cell_length_c 16.883108
_cell_angle_alpha 90.000000
_cell_angle_beta 90.000000
_cell_angle_gamma 90.000000
_cell_volume 1563.919590
_symmetry_space_group_name_H-M "C 2 2 21"
_symmetry_group_IT_number 20
_symmetry_cell_setting 'orthorhombic'
loop_
_space_group_symop_operation_xyz
x,y,z
-x,-y,1/2+z
x,-y,-z
-x,y,1/2-z
1/2+x,1/2+y,z
1/2-x,1/2-y,1/2+z
1/2+x,1/2-y,-z
1/2-x,1/2+y,1/2-z
loop_
_atom_site_type_symbol
_atom_site_label
_atom_site_fract_x
_atom_site_fract_y
_atom_site_fract_z
Si Si1 0.788345 0.554098 0.580708
Si Si2 0.842778 0.074455 0.314831
Si Si3 0.159799 0.290715 0.564131
Si Si4 0.307015 0.147039 0.334703
Si Si5 0.338950 0.867032 0.118671
O O1 0.854201 0.500000 0.500000
O O2 0.675014 0.661105 0.565295
O O3 0.701439 0.451511 0.622543
O O4 0.961362 0.588190 0.631009
O O5 0.825242 0.160374 0.385960
O O6 0.681229 0.109037 0.255356
O O7 0.000000 0.075533 0.250000
O O8 0.797817 0.959388 0.353740
O O9 0.169834 0.335319 0.474730
O O10 0.978941 0.327489 0.609307
O O11 0.202420 0.259434 0.333797
#
# Coordination Sequence:
#
# PCOD9322043 Si02
#       5
#     8   8   8   8   8
#     4  12  24  49  78 116 156 206 257 330 393 468
#     4  12  29  49  77 118 161 212 265 330 403 466
#     4  12  25  51  84 110 157 211 270 326 397 477
#     4  12  28  49  77 117 154 205 265 327 401 466
#     4  12  25  51  81 111 160 211 262 325 396 480
#
# _framework density 25.576764000000001
#
# number of rings (size 3 to 8) (size 9 to 14) (size 15 to 20)
#    0.000    0.000    6.000    2.400    5.600    0.000 
#    0.000    1.000    0.000    0.000    0.000    0.000 
#    0.000    0.000    0.000    0.000    0.000    0.000 
#
# Total GULP energy -111907.126309 kJ/mol
# GULP energy per Si atom -5595.356315 kJ/mol
# Density = 2.551855 g / cm^3
# Si number density = 25.576764 Si / 1000 Ang^3
#
#
#
# Elastic Constant Matrix: (Units=GPa)
#
#
# Indices 1 2 3 4 5 6 
#
# 1 79.8929 16.6197 6.4087 0.0000 0.0000 0.0000
# 2 16.6197 217.7448 49.3284 0.0000 0.0000 0.0000
# 3 6.4087 49.3284 75.0228 0.0000 0.0000 0.0000
# 4 0.0000 0.0000 0.0000 22.9787 0.0000 0.0000
# 5 0.0000 0.0000 0.0000 0.0000 36.7540 0.0000
# 6 0.0000 0.0000 0.0000 0.0000 0.0000 40.1151
#
#
#
# Elastic Compliance Matrix: (Units=1/GPa)
#
#
# Indices 1 2 3 4 5 6 
#
# 1 0.012736 -0.000853 -0.000527 0.000000 0.000000 0.000000
# 2 -0.000853 0.005453 -0.003513 0.000000 0.000000 0.000000
# 3 -0.000527 -0.003513 0.015684 0.000000 0.000000 0.000000
# 4 0.000000 0.000000 0.000000 0.043519 0.000000 0.000000
# 5 0.000000 0.000000 0.000000 0.000000 0.027208 0.000000
# 6 0.000000 0.000000 0.000000 0.000000 0.000000 0.024928
#
#
# Mechanical properties :
#
#
# Convention : Reuss Voigt Hill
#
# Bulk Modulus (GPa) = 41.51412 57.48604 49.50008
# Shear Modulus (GPa) = 33.93425 39.98981 36.96203
#
# Velocity S-wave (km/s) = 3.64642 3.95843 3.80563
# Velocity P-wave (km/s) = 5.83052 6.58915 6.22141
#
# Compressibility (1/GPa) = 0.02408819
#
# Stress axis : x y z
#
# Youngs Moduli (GPa) = 78.51486 183.37106 63.75893
#
# Poissons Ratio (x) = 0.15635 0.03362
# Poissons Ratio (y) = 0.06695 0.22398
# Poissons Ratio (z) = 0.04141 0.64416
#
# Static dielectric constant tensor:
#      x y z
#    x 2.200750 0.000000 0.000000 
#    y 0.000000 1.965260 0.000000 
#    z 0.000000 0.000000 2.002650 
# 
# From -- ./inp_files/23130.got.cif
#   From: 2010.05.17/outbox.cif.g08.bks.cpg/sg20_12_cif.got.tgz:23130.got - 2010.06.03 22:52:26.
