data_PCOD9322682
_publ_section_title
;
Structure prediction by ZEFSAII (Michael W. Deem and Ramdas Pophale) SiO2 
 PCOD9322682
Probable space group: C 2 2 2
;
_chemical_formula_sum "Si O2"
_cell_formula_units_Z 56
_cell_length_a 19.230071
_cell_length_b 5.541210
_cell_length_c 25.897193
_cell_angle_alpha 90.000000
_cell_angle_beta 90.000000
_cell_angle_gamma 90.000000
_cell_volume 2759.549511
_symmetry_space_group_name_H-M "C 2 2 2"
_symmetry_group_IT_number 21
_symmetry_cell_setting 'orthorhombic'
loop_
_space_group_symop_operation_xyz
x,y,z
-x,-y,z
x,-y,-z
-x,y,-z
1/2+x,1/2+y,z
1/2-x,1/2-y,z
1/2+x,1/2-y,-z
1/2-x,1/2+y,-z
loop_
_atom_site_type_symbol
_atom_site_label
_atom_site_fract_x
_atom_site_fract_y
_atom_site_fract_z
Si Si1 0.581027 1.000000 0.716427
Si Si2 0.253461 0.500000 0.635461
Si Si3 0.084753 0.500000 0.939871
Si Si4 0.415006 0.500000 0.764973
Si Si5 0.617859 0.500000 0.558130
Si Si6 0.396953 1.000000 0.405669
Si Si7 0.084555 0.000000 0.114386
O O1 0.609850 0.747433 0.738088
O O2 0.584415 1.000000 0.654601
O O3 0.500000 0.000000 0.732078
O O4 0.609850 0.252567 0.738088
O O5 0.250000 0.750000 0.665443
O O6 0.322878 0.500000 0.601914
O O7 0.188016 0.500000 0.595868
O O8 0.250000 0.250000 0.665443
O O9 0.107555 0.749814 0.912604
O O10 0.000000 0.500000 0.937747
O O11 0.107555 0.250186 0.912604
O O12 0.104634 0.500000 0.000000
O O13 0.500000 0.500000 0.760821
O O14 0.396988 0.500000 0.825280
O O15 0.645809 0.500000 0.500000
O O16 0.579729 0.753040 0.567835
O O17 0.579729 0.246960 0.567835
O O18 0.000000 0.000000 0.111604
#
# Coordination Sequence:
#
# PCOD9322682 Si02
#       7
#     8   8   8   8   8   8   8
#     4  10  19  31  45  59  77 102 135 171 207 239
#     4   8  16  27  42  64  86 103 121 147 185 227
#     4   9  15  21  30  46  69  95 119 149 198 253
#     4   9  17  28  42  57  71  95 133 176 212 234
#     4  10  19  31  48  68  86 103 124 151 190 238
#     4  10  19  30  45  64  84 105 127 157 197 235
#     4   9  15  23  34  48  67  90 122 162 201 238
#
# _framework density 20.293168000000001
#
# number of rings (size 3 to 8) (size 9 to 14) (size 15 to 20)
#    0.000    2.714    0.000    2.571    0.000   10.286 
#    0.000    0.000    0.000    2.571    0.000    0.000 
#    0.000    0.000    0.000    0.000    0.000    0.000 
#
# Total GULP energy -155982.220841 kJ/mol
# GULP energy per Si atom -5570.793601 kJ/mol
# Density = 2.024698 g / cm^3
# Si number density = 20.293168 Si / 1000 Ang^3
#
#
#
# Elastic Constant Matrix: (Units=GPa)
#
#
# Indices 1 2 3 4 5 6 
#
# 1 37.6611 -3.3780 -13.3023 0.0000 0.0000 0.0000
# 2 -3.3780 262.9735 74.9450 0.0000 0.0000 0.0000
# 3 -13.3023 74.9450 96.3502 0.0000 0.0000 0.0000
# 4 0.0000 0.0000 0.0000 39.1085 0.0000 0.0000
# 5 0.0000 0.0000 0.0000 0.0000 11.6042 0.0000
# 6 0.0000 0.0000 0.0000 0.0000 0.0000 -10.1350
#
#
#
# Elastic Compliance Matrix: (Units=1/GPa)
#
#
# Indices 1 2 3 4 5 6 
#
# 1 0.028100 -0.000957 0.004624 0.000000 0.000000 0.000000
# 2 -0.000957 0.004918 -0.003958 0.000000 0.000000 0.000000
# 3 0.004624 -0.003958 0.014096 0.000000 0.000000 0.000000
# 4 0.000000 0.000000 0.000000 0.025570 0.000000 0.000000
# 5 0.000000 0.000000 0.000000 0.000000 0.086176 0.000000
# 6 0.000000 0.000000 0.000000 0.000000 0.000000 -0.098668
#
#
# Mechanical properties :
#
#
# Convention : Reuss Voigt Hill
#
# Bulk Modulus (GPa) = 21.49042 57.05714 39.27378
# Shear Modulus (GPa) = 65.54461 30.69687 48.12074
#
# Velocity S-wave (km/s) = 5.68937 3.89353 4.87486
# Velocity P-wave (km/s) = 7.33291 6.95631 7.14709
#
# Compressibility (1/GPa) = 0.04653237
#
# Stress axis : x y z
#
# Youngs Moduli (GPa) = 35.58725 203.32251 70.94386
#
# Poissons Ratio (x) = 0.19453 -0.32803
# Poissons Ratio (y) = 0.03405 0.28078
# Poissons Ratio (z) = -0.16455 0.80470
#
# Static dielectric constant tensor:
#      x y z
#    x 1.740150 0.000000 0.000000 
#    y 0.000000 1.810230 0.000000 
#    z 0.000000 0.000000 1.659890 
# 
# From -- ./inp_files/37906.got.cif
#   From: 2010.05.17/outbox.cif.g08.bks.cpg/sg21_19_cif.got.tgz:37906.got - 2010.06.03 23:14:55.
