data_PCOD9322592
_publ_section_title
;
Structure prediction by ZEFSAII (Michael W. Deem and Ramdas Pophale) SiO2 
 PCOD9322592
Probable space group: C 2 2 2
;
_chemical_formula_sum "Si O2"
_cell_formula_units_Z 40
_cell_length_a 5.289108
_cell_length_b 14.281353
_cell_length_c 23.310436
_cell_angle_alpha 90.000000
_cell_angle_beta 90.000000
_cell_angle_gamma 90.000000
_cell_volume 1760.768199
_symmetry_space_group_name_H-M "C 2 2 2"
_symmetry_group_IT_number 21
_symmetry_cell_setting 'orthorhombic'
loop_
_space_group_symop_operation_xyz
x,y,z
-x,-y,z
x,-y,-z
-x,y,-z
1/2+x,1/2+y,z
1/2-x,1/2-y,z
1/2+x,1/2-y,-z
1/2-x,1/2+y,-z
loop_
_atom_site_type_symbol
_atom_site_label
_atom_site_fract_x
_atom_site_fract_y
_atom_site_fract_z
Si Si1 0.738899 0.442254 0.163162
Si Si2 0.751299 0.862742 0.463855
Si Si3 0.262027 0.887171 0.284987
Si Si4 0.504929 0.314827 0.064159
Si Si5 0.743921 0.598552 0.334411
O O1 0.500000 0.500000 0.187742
O O2 0.811119 0.377646 0.217202
O O3 0.592975 0.389620 0.111544
O O4 0.000000 0.500000 0.148061
O O5 0.500000 0.885545 0.500000
O O6 0.750000 0.750000 0.453356
O O7 0.769367 0.911751 0.402384
O O8 0.000000 0.884637 0.500000
O O9 0.497714 0.850117 0.319893
O O10 0.995732 0.851844 0.306702
O O11 0.255371 0.997289 0.303468
O O12 0.750000 0.250000 0.062184
O O13 0.250000 0.250000 0.074527
O O14 0.500000 0.357799 0.000000
#
# Coordination Sequence:
#
# PCOD9322592 Si02
#       5
#     8   8   8   8   8
#     4  12  21  39  68  97 130 169 216 275 326 383
#     4  10  21  37  55  77 109 150 198 248 297 366
#     4  10  19  35  55  82 118 150 188 247 313 365
#     4  10  23  44  65  92 135 180 219 269 331 397
#     4  10  18  35  56  78 113 154 183 242 312 368
#
# _framework density 22.717358000000001
#
# number of rings (size 3 to 8) (size 9 to 14) (size 15 to 20)
#    0.000    1.600    4.000    2.400    0.000    0.400 
#    0.000   16.000    0.000    0.000    0.000    0.000 
#    0.000    0.000    0.000    0.000    0.000    0.000 
#
# Total GULP energy -111511.795284 kJ/mol
# GULP energy per Si atom -5575.589764 kJ/mol
# Density = 2.266565 g / cm^3
# Si number density = 22.717358 Si / 1000 Ang^3
#
#
#
# Elastic Constant Matrix: (Units=GPa)
#
#
# Indices 1 2 3 4 5 6 
#
# 1 222.6828 14.4814 62.9820 0.0000 0.0000 0.0000
# 2 14.4814 72.4744 33.5995 0.0000 0.0000 0.0000
# 3 62.9820 33.5995 186.4709 0.0000 0.0000 0.0000
# 4 0.0000 0.0000 0.0000 18.7976 0.0000 0.0000
# 5 0.0000 0.0000 0.0000 0.0000 42.3398 0.0000
# 6 0.0000 0.0000 0.0000 0.0000 0.0000 -16.9454
#
#
#
# Elastic Compliance Matrix: (Units=1/GPa)
#
#
# Indices 1 2 3 4 5 6 
#
# 1 0.004969 -0.000234 -0.001636 0.000000 0.000000 0.000000
# 2 -0.000234 0.015067 -0.002636 0.000000 0.000000 0.000000
# 3 -0.001636 -0.002636 0.006390 0.000000 0.000000 0.000000
# 4 0.000000 0.000000 0.000000 0.053198 0.000000 0.000000
# 5 0.000000 0.000000 0.000000 0.000000 0.023618 0.000000
# 6 0.000000 0.000000 0.000000 0.000000 0.000000 -0.059013
#
#
# Mechanical properties :
#
#
# Convention : Reuss Voigt Hill
#
# Bulk Modulus (GPa) = 57.42634 78.19488 67.81061
# Shear Modulus (GPa) = 84.68012 33.54274 59.11143
#
# Velocity S-wave (km/s) = 6.11199 3.84673 5.10655
# Velocity P-wave (km/s) = 8.66845 7.36378 8.04261
#
# Compressibility (1/GPa) = 0.01741361
#
# Stress axis : x y z
#
# Youngs Moduli (GPa) = 201.26240 66.37146 156.48867
#
# Poissons Ratio (x) = 0.01555 0.25601
# Poissons Ratio (y) = 0.04717 0.41245
# Poissons Ratio (z) = 0.32926 0.17493
#
# Static dielectric constant tensor:
#      x y z
#    x 1.859510 0.000000 0.000000 
#    y 0.000000 1.831070 0.000000 
#    z 0.000000 0.000000 1.856340 
# 
# From -- ./inp_files/34676.got.cif
#   From: 2010.05.17/outbox.cif.g08.bks.cpg/sg21_18_cif.got.tgz:34676.got - 2010.06.03 23:14:55.
