data_PCOD9322152
_publ_section_title
;
Structure prediction by ZEFSAII (Michael W. Deem and Ramdas Pophale) SiO2 
 PCOD9322152
Probable space group: C 2 2 21
;
_chemical_formula_sum "Si O2"
_cell_formula_units_Z 36
_cell_length_a 12.698522
_cell_length_b 8.372076
_cell_length_c 13.727093
_cell_angle_alpha 90.000000
_cell_angle_beta 90.000000
_cell_angle_gamma 90.000000
_cell_volume 1459.368318
_symmetry_space_group_name_H-M "C 2 2 21"
_symmetry_group_IT_number 20
_symmetry_cell_setting 'orthorhombic'
loop_
_space_group_symop_operation_xyz
x,y,z
-x,-y,1/2+z
x,-y,-z
-x,y,1/2-z
1/2+x,1/2+y,z
1/2-x,1/2-y,1/2+z
1/2+x,1/2-y,-z
1/2-x,1/2+y,1/2-z
loop_
_atom_site_type_symbol
_atom_site_label
_atom_site_fract_x
_atom_site_fract_y
_atom_site_fract_z
Si Si1 0.608587 0.199142 0.868047
Si Si2 0.220165 0.173371 0.950766
Si Si3 0.172921 0.178670 0.729386
Si Si4 0.911179 0.099622 0.096409
Si Si5 0.000000 0.574072 0.250000
O O1 0.832080 0.241348 0.066121
O O2 0.557057 0.964165 0.169915
O O3 0.709911 0.229087 0.800846
O O4 0.516853 0.328160 0.860396
O O5 0.168160 0.155884 0.845041
O O6 0.152953 0.287012 0.022452
O O7 0.229896 0.000000 0.000000
O O8 0.088982 0.314511 0.702984
O O9 0.145900 0.020550 0.669766
O O10 0.938064 0.000000 0.000000
#
# Coordination Sequence:
#
# PCOD9322152 Si02
#       5
#     8   8   8   8   4
#     4  12  30  56  85 126 170 233 292 367 436 530
#     4  12  31  54  91 126 176 232 298 369 448 530
#     4  12  31  57  84 131 176 231 291 372 439 531
#     4  12  29  56  86 127 174 229 299 362 445 528
#     4  12  32  50  94 124 176 230 294 354 452 524
#
# _framework density 24.668206000000001
#
# number of rings (size 3 to 8) (size 9 to 14) (size 15 to 20)
#    0.000    0.000    2.222    3.333   18.667    0.000 
#    4.000    0.000    0.000    0.000    0.000    0.000 
#    0.000    0.000    0.000    0.000    0.000    0.000 
#
# Total GULP energy -101143.481720 kJ/mol
# GULP energy per Si atom -5619.082318 kJ/mol
# Density = 2.461206 g / cm^3
# Si number density = 24.668206 Si / 1000 Ang^3
#
#
#
# Elastic Constant Matrix: (Units=GPa)
#
#
# Indices 1 2 3 4 5 6 
#
# 1 188.3355 93.8849 55.2275 0.0000 0.0000 0.0000
# 2 93.8849 150.2067 58.5831 0.0000 0.0000 0.0000
# 3 55.2275 58.5831 170.2581 0.0000 0.0000 0.0000
# 4 0.0000 0.0000 0.0000 50.6656 0.0000 0.0000
# 5 0.0000 0.0000 0.0000 0.0000 40.1018 0.0000
# 6 0.0000 0.0000 0.0000 0.0000 0.0000 41.1456
#
#
#
# Elastic Compliance Matrix: (Units=1/GPa)
#
#
# Indices 1 2 3 4 5 6 
#
# 1 0.007855 -0.004523 -0.000992 0.000000 0.000000 0.000000
# 2 -0.004523 0.010294 -0.002075 0.000000 0.000000 0.000000
# 3 -0.000992 -0.002075 0.006909 0.000000 0.000000 0.000000
# 4 0.000000 0.000000 0.000000 0.019737 0.000000 0.000000
# 5 0.000000 0.000000 0.000000 0.000000 0.024937 0.000000
# 6 0.000000 0.000000 0.000000 0.000000 0.000000 0.024304
#
#
# Mechanical properties :
#
#
# Convention : Reuss Voigt Hill
#
# Bulk Modulus (GPa) = 101.22532 102.68793 101.95662
# Shear Modulus (GPa) = 44.44139 46.45623 45.44881
#
# Velocity S-wave (km/s) = 4.24909 4.34434 4.29698
# Velocity P-wave (km/s) = 8.07446 8.17817 8.12648
#
# Compressibility (1/GPa) = 0.00987895
#
# Stress axis : x y z
#
# Youngs Moduli (GPa) = 127.30416 97.14644 144.73828
#
# Poissons Ratio (x) = 0.43939 0.14354
# Poissons Ratio (y) = 0.57580 0.30030
# Poissons Ratio (z) = 0.12625 0.20156
#
# Static dielectric constant tensor:
#      x y z
#    x 1.908460 0.000000 0.000000 
#    y 0.000000 1.933330 0.000000 
#    z 0.000000 0.000000 1.946240 
# 
# From -- ./inp_files/13664.got.cif
#   From: 2010.05.17/outbox.cif.g08.bks.cpg/sg20_7_cif.got.tgz:13664.got - 2010.06.03 22:52:26.
