data_PCOD9322886
_publ_section_title
;
Structure prediction by ZEFSAII (Michael W. Deem and Ramdas Pophale) SiO2 
 PCOD9322886
Probable space group: C 2 2 2
;
_chemical_formula_sum "Si O2"
_cell_formula_units_Z 56
_cell_length_a 12.088720
_cell_length_b 14.450236
_cell_length_c 13.960375
_cell_angle_alpha 90.000000
_cell_angle_beta 90.000000
_cell_angle_gamma 90.000000
_cell_volume 2438.666110
_symmetry_space_group_name_H-M "C 2 2 2"
_symmetry_group_IT_number 21
_symmetry_cell_setting 'orthorhombic'
loop_
_space_group_symop_operation_xyz
x,y,z
-x,-y,z
x,-y,-z
-x,y,-z
1/2+x,1/2+y,z
1/2-x,1/2-y,z
1/2+x,1/2-y,-z
1/2-x,1/2+y,-z
loop_
_atom_site_type_symbol
_atom_site_label
_atom_site_fract_x
_atom_site_fract_y
_atom_site_fract_z
Si Si1 0.777912 0.641342 0.811458
Si Si2 0.667071 0.163133 0.744997
Si Si3 0.000368 0.751826 0.606376
Si Si4 0.044650 0.903517 0.110173
Si Si5 0.822928 0.916259 0.399163
Si Si6 0.004526 0.306041 0.113111
Si Si7 0.200982 0.119197 0.605909
O O1 0.750000 0.750000 0.819904
O O2 0.676562 0.594976 0.870043
O O3 0.900017 0.634391 0.853158
O O4 0.776245 0.615947 0.699228
O O5 0.750000 0.250000 0.746705
O O6 0.557583 0.185659 0.682472
O O7 0.739792 0.089677 0.689667
O O8 0.617987 0.149611 0.849492
O O9 0.079636 0.842282 0.605430
O O10 0.000000 0.710801 0.500000
O O11 0.879320 0.793941 0.622547
O O12 0.003515 0.802723 0.149106
O O13 0.000000 0.000000 0.154214
O O14 0.000000 0.903948 0.000000
O O15 0.756782 0.883516 0.496008
O O16 0.863773 0.021308 0.398411
O O17 0.000000 0.300264 0.000000
#
# Coordination Sequence:
#
# PCOD9322886 Si02
#       7
#     8   8   8   8   8   8   8
#     4  10  21  36  59  90 121 156 197 243 295 352
#     4  10  21  36  56  85 116 155 200 241 292 355
#     4   9  17  31  55  86 118 149 186 233 286 347
#     4   9  19  36  61  94 124 150 192 248 300 348
#     4   9  20  35  55  85 119 151 190 241 295 347
#     4  10  22  40  60  83 116 158 200 244 298 356
#     4  10  19  35  58  84 115 152 192 240 293 351
#
# _framework density 22.963374000000002
#
# number of rings (size 3 to 8) (size 9 to 14) (size 15 to 20)
#    0.000    2.429    0.000    2.143    0.000   12.000 
#    0.000    2.143    0.000    2.571    0.000    0.000 
#    0.000    0.000    0.000    0.000    0.000    0.000 
#
# Total GULP energy -156157.130729 kJ/mol
# GULP energy per Si atom -5577.040383 kJ/mol
# Density = 2.291111 g / cm^3
# Si number density = 22.963374 Si / 1000 Ang^3
#
#
#
# Elastic Constant Matrix: (Units=GPa)
#
#
# Indices 1 2 3 4 5 6 
#
# 1 89.1755 23.3295 36.5984 0.0000 0.0000 0.0000
# 2 23.3295 40.5315 12.7263 0.0000 0.0000 0.0000
# 3 36.5984 12.7263 85.0295 0.0000 0.0000 0.0000
# 4 0.0000 0.0000 0.0000 14.0178 0.0000 0.0000
# 5 0.0000 0.0000 0.0000 0.0000 35.9942 0.0000
# 6 0.0000 0.0000 0.0000 0.0000 0.0000 23.3843
#
#
#
# Elastic Compliance Matrix: (Units=1/GPa)
#
#
# Indices 1 2 3 4 5 6 
#
# 1 0.015344 -0.007091 -0.005543 0.000000 0.000000 0.000000
# 2 -0.007091 0.029166 -0.001313 0.000000 0.000000 0.000000
# 3 -0.005543 -0.001313 0.014343 0.000000 0.000000 0.000000
# 4 0.000000 0.000000 0.000000 0.071338 0.000000 0.000000
# 5 0.000000 0.000000 0.000000 0.000000 0.027782 0.000000
# 6 0.000000 0.000000 0.000000 0.000000 0.000000 0.042764
#
#
# Mechanical properties :
#
#
# Convention : Reuss Voigt Hill
#
# Bulk Modulus (GPa) = 32.30150 40.00499 36.15325
# Shear Modulus (GPa) = 20.92480 24.15142 22.53811
#
# Velocity S-wave (km/s) = 3.02193 3.24657 3.13626
# Velocity P-wave (km/s) = 5.12573 5.61361 5.37521
#
# Compressibility (1/GPa) = 0.03095832
#
# Stress axis : x y z
#
# Youngs Moduli (GPa) = 65.17238 34.28631 69.72069
#
# Poissons Ratio (x) = 0.24314 0.38646
# Poissons Ratio (y) = 0.46216 0.09154
# Poissons Ratio (z) = 0.36125 0.04502
#
# Static dielectric constant tensor:
#      x y z
#    x 1.861700 0.000000 0.000000 
#    y 0.000000 1.888330 0.000000 
#    z 0.000000 0.000000 1.931530 
# 
# From -- ./inp_files/31579.got.cif
#   From: 2010.05.17/outbox.cif.g08.bks.cpg/sg21_16_cif.got.tgz:31579.got - 2010.06.03 23:14:55.
