data_PCOD9322347
_publ_section_title
;
Structure prediction by ZEFSAII (Michael W. Deem and Ramdas Pophale) SiO2 
 PCOD9322347
Probable space group: C 2 2 2
;
_chemical_formula_sum "Si O2"
_cell_formula_units_Z 60
_cell_length_a 23.237887
_cell_length_b 14.845815
_cell_length_c 9.805173
_cell_angle_alpha 90.000000
_cell_angle_beta 90.000000
_cell_angle_gamma 90.000000
_cell_volume 3382.641249
_symmetry_space_group_name_H-M "C 2 2 2"
_symmetry_group_IT_number 21
_symmetry_cell_setting 'orthorhombic'
loop_
_space_group_symop_operation_xyz
x,y,z
-x,-y,z
x,-y,-z
-x,y,-z
1/2+x,1/2+y,z
1/2-x,1/2-y,z
1/2+x,1/2-y,-z
1/2-x,1/2+y,-z
loop_
_atom_site_type_symbol
_atom_site_label
_atom_site_fract_x
_atom_site_fract_y
_atom_site_fract_z
Si Si1 0.314469 0.789053 0.858818
Si Si2 0.148555 0.321722 0.829419
Si Si3 0.078570 0.158997 0.147432
Si Si4 0.750000 0.250000 0.361395
Si Si5 0.693377 0.004919 0.839119
Si Si6 0.948602 0.179109 0.162785
Si Si7 0.913448 0.985812 0.655769
Si Si8 0.719988 0.559873 0.618392
O O1 0.250000 0.750000 0.836272
O O2 0.366224 0.721270 0.817217
O O3 0.318338 0.891289 0.801242
O O4 0.326298 0.801627 0.020358
O O5 0.196302 0.283055 0.727942
O O6 0.144024 0.429757 0.814304
O O7 0.090676 0.265728 0.810011
O O8 0.015804 0.204615 0.163046
O O9 0.079588 0.071361 0.243992
O O10 0.075213 0.140151 0.983349
O O11 0.727494 0.338561 0.433724
O O12 0.746695 0.964132 0.756052
O O13 0.706507 0.000000 0.000000
O O14 0.941425 0.100485 0.272892
O O15 0.845896 0.963562 0.642874
O O16 0.933775 0.000000 0.500000
O O17 0.745951 0.500000 0.500000
#
# Coordination Sequence:
#
# PCOD9322347 Si02
#       8
#     8   8   8   4   8   8   8   8
#     4  10  18  32  52  82 110 136 173 225 270 308
#     4   9  17  31  55  79 102 140 181 217 261 319
#     4  10  22  35  54  79 109 142 180 220 270 320
#     4  10  16  34  56  72 106 146 174 216 264 328
#     4   9  19  33  54  79 108 139 181 222 262 317
#     4  10  20  37  55  77 107 143 181 221 265 321
#     4  11  22  36  53  79 109 143 179 223 267 323
#     4  10  21  35  51  81 110 142 180 217 272 319
#
# _framework density 17.737618000000001
#
# number of rings (size 3 to 8) (size 9 to 14) (size 15 to 20)
#    0.000    2.133    2.000    1.600    0.000    3.200 
#    6.000    0.667    0.000    4.000    0.000    0.000 
#    0.000    3.467    0.000    0.000    0.000    0.000 
#
# Total GULP energy -167044.082783 kJ/mol
# GULP energy per Si atom -5568.136093 kJ/mol
# Density = 1.769725 g / cm^3
# Si number density = 17.737618 Si / 1000 Ang^3
#
#
#
# Elastic Constant Matrix: (Units=GPa)
#
#
# Indices 1 2 3 4 5 6 
#
# 1 115.9270 58.7265 24.5197 0.0000 0.0000 0.0000
# 2 58.7265 150.0979 37.6537 0.0000 0.0000 0.0000
# 3 24.5197 37.6537 46.5903 0.0000 0.0000 0.0000
# 4 0.0000 0.0000 0.0000 15.8517 0.0000 0.0000
# 5 0.0000 0.0000 0.0000 0.0000 6.2613 0.0000
# 6 0.0000 0.0000 0.0000 0.0000 0.0000 4.0892
#
#
#
# Elastic Compliance Matrix: (Units=1/GPa)
#
#
# Indices 1 2 3 4 5 6 
#
# 1 0.011066 -0.003598 -0.002916 0.000000 0.000000 0.000000
# 2 -0.003598 0.009526 -0.005806 0.000000 0.000000 0.000000
# 3 -0.002916 -0.005806 0.027690 0.000000 0.000000 0.000000
# 4 0.000000 0.000000 0.000000 0.063085 0.000000 0.000000
# 5 0.000000 0.000000 0.000000 0.000000 0.159711 0.000000
# 6 0.000000 0.000000 0.000000 0.000000 0.000000 0.244544
#
#
# Mechanical properties :
#
#
# Convention : Reuss Voigt Hill
#
# Bulk Modulus (GPa) = 42.29489 61.60167 51.94828
# Shear Modulus (GPa) = 9.12173 18.02147 13.57160
#
# Velocity S-wave (km/s) = 2.27019 3.19094 2.76910
# Velocity P-wave (km/s) = 5.54691 6.95564 6.29083
#
# Compressibility (1/GPa) = 0.02364352
#
# Stress axis : x y z
#
# Youngs Moduli (GPa) = 90.37095 104.97100 36.11382
#
# Poissons Ratio (x) = 0.37768 0.10530
# Poissons Ratio (y) = 0.32515 0.20966
# Poissons Ratio (z) = 0.26350 0.60942
#
# Static dielectric constant tensor:
#      x y z
#    x 1.600870 0.000000 0.000000 
#    y 0.000000 1.615340 0.000000 
#    z 0.000000 0.000000 1.659060 
# 
# From -- ./inp_files/18622.got.cif
#   From: 2010.05.17/outbox.cif.g08.bks.cpg/sg21_10_cif.got.tgz:18622.got - 2010.06.03 23:14:55.
