data_PCOD9322660
_publ_section_title
;
Structure prediction by ZEFSAII (Michael W. Deem and Ramdas Pophale) SiO2 
 PCOD9322660
Probable space group: C 2 2 2
;
_chemical_formula_sum "Si O2"
_cell_formula_units_Z 48
_cell_length_a 19.199978
_cell_length_b 15.368671
_cell_length_c 8.569078
_cell_angle_alpha 90.000000
_cell_angle_beta 90.000000
_cell_angle_gamma 90.000000
_cell_volume 2528.547641
_symmetry_space_group_name_H-M "C 2 2 2"
_symmetry_group_IT_number 21
_symmetry_cell_setting 'orthorhombic'
loop_
_space_group_symop_operation_xyz
x,y,z
-x,-y,z
x,-y,-z
-x,y,-z
1/2+x,1/2+y,z
1/2-x,1/2-y,z
1/2+x,1/2-y,-z
1/2-x,1/2+y,-z
loop_
_atom_site_type_symbol
_atom_site_label
_atom_site_fract_x
_atom_site_fract_y
_atom_site_fract_z
Si Si1 0.343624 0.968144 0.734550
Si Si2 0.861800 0.630075 0.933904
Si Si3 0.474954 0.275746 0.844063
Si Si4 0.431614 0.182083 0.397394
Si Si5 0.750000 0.250000 0.179203
Si Si6 0.366743 0.331066 0.603293
Si Si7 0.216390 0.000000 0.500000
O O1 0.390475 0.907517 0.624272
O O2 0.367675 0.063963 0.787302
O O3 0.268983 0.979276 0.646528
O O4 0.354680 0.918380 0.900897
O O5 0.922314 0.700519 0.906060
O O6 0.788921 0.679153 0.921190
O O7 0.538051 0.226003 0.759084
O O8 0.434908 0.334221 0.715829
O O9 0.500000 0.323888 0.000000
O O10 0.500000 0.166086 0.500000
O O11 0.384879 0.256107 0.478730
O O12 0.693397 0.294585 0.286969
O O13 0.334606 0.418557 0.532728
#
# Coordination Sequence:
#
# PCOD9322660 Si02
#       7
#     8   8   8   8   4   8   4
#     4  11  23  39  59  97 128 165 204 259 313 385
#     4  10  22  38  61  92 131 162 207 255 313 377
#     4  10  20  42  63  92 124 167 208 257 309 380
#     4  10  22  39  61  92 122 167 211 249 316 383
#     4  10  18  40  62  86 124 172 198 258 310 378
#     4  10  22  39  64  89 127 165 214 260 312 373
#     4  12  24  42  62  94 134 162 214 268 312 366
#
# _framework density 18.983229000000001
#
# number of rings (size 3 to 8) (size 9 to 14) (size 15 to 20)
#    0.000    1.667    3.333    1.000    4.667    2.000 
#    0.000    3.750    0.000    1.000    0.000    0.000 
#    0.000    0.000    0.000    0.000    0.000    0.000 
#
# Total GULP energy -133718.218852 kJ/mol
# GULP energy per Si atom -5571.592452 kJ/mol
# Density = 1.894002 g / cm^3
# Si number density = 18.983229 Si / 1000 Ang^3
#
#
#
# Elastic Constant Matrix: (Units=GPa)
#
#
# Indices 1 2 3 4 5 6 
#
# 1 203.4826 98.6011 137.0005 0.0000 0.0000 0.0000
# 2 98.6011 107.6073 79.8500 0.0000 0.0000 0.0000
# 3 137.0005 79.8500 184.5530 0.0000 0.0000 0.0000
# 4 0.0000 0.0000 0.0000 21.9273 0.0000 0.0000
# 5 0.0000 0.0000 0.0000 0.0000 13.0755 0.0000
# 6 0.0000 0.0000 0.0000 0.0000 0.0000 27.7477
#
#
#
# Elastic Compliance Matrix: (Units=1/GPa)
#
#
# Indices 1 2 3 4 5 6 
#
# 1 0.012405 -0.006677 -0.006320 0.000000 0.000000 0.000000
# 2 -0.006677 0.017282 -0.002521 0.000000 0.000000 0.000000
# 3 -0.006320 -0.002521 0.011200 0.000000 0.000000 0.000000
# 4 0.000000 0.000000 0.000000 0.045605 0.000000 0.000000
# 5 0.000000 0.000000 0.000000 0.000000 0.076479 0.000000
# 6 0.000000 0.000000 0.000000 0.000000 0.000000 0.036039
#
#
# Mechanical properties :
#
#
# Convention : Reuss Voigt Hill
#
# Bulk Modulus (GPa) = 101.49891 125.17182 113.33536
# Shear Modulus (GPa) = 21.42902 24.56285 22.99594
#
# Velocity S-wave (km/s) = 3.36347 3.60102 3.48427
# Velocity P-wave (km/s) = 8.28659 9.13077 8.71891
#
# Compressibility (1/GPa) = 0.00985232
#
# Stress axis : x y z
#
# Youngs Moduli (GPa) = 80.61420 57.86465 89.28349
#
# Poissons Ratio (x) = 0.38637 0.56423
# Poissons Ratio (y) = 0.53827 0.22504
# Poissons Ratio (z) = 0.50944 0.14585
#
# Static dielectric constant tensor:
#      x y z
#    x 1.659880 0.000000 0.000000 
#    y 0.000000 1.664710 0.000000 
#    z 0.000000 0.000000 1.742440 
# 
# From -- ./inp_files/15041.got.cif
#   From: 2010.05.17/outbox.cif.g08.bks.cpg/sg21_8_cif.got.tgz:15041.got - 2010.06.03 23:14:55.
