data_PCOD9322963
_publ_section_title
;
Structure prediction by ZEFSAII (Michael W. Deem and Ramdas Pophale) SiO2 
 PCOD9322963
Probable space group: C 2 2 2
;
_chemical_formula_sum "Si O2"
_cell_formula_units_Z 52
_cell_length_a 27.677907
_cell_length_b 9.803803
_cell_length_c 9.172526
_cell_angle_alpha 90.000000
_cell_angle_beta 90.000000
_cell_angle_gamma 90.000000
_cell_volume 2488.953443
_symmetry_space_group_name_H-M "C 2 2 2"
_symmetry_group_IT_number 21
_symmetry_cell_setting 'orthorhombic'
loop_
_space_group_symop_operation_xyz
x,y,z
-x,-y,z
x,-y,-z
-x,y,-z
1/2+x,1/2+y,z
1/2-x,1/2-y,z
1/2+x,1/2-y,-z
1/2-x,1/2+y,-z
loop_
_atom_site_type_symbol
_atom_site_label
_atom_site_fract_x
_atom_site_fract_y
_atom_site_fract_z
Si Si1 0.414311 0.052428 0.845908
Si Si2 0.500000 0.500000 0.246374
Si Si3 0.794388 0.340979 0.761195
Si Si4 0.541646 0.762798 0.600825
Si Si5 0.654872 0.722939 0.962943
Si Si6 0.885792 0.629872 0.401894
Si Si7 0.734547 0.500000 0.000000
Si Si8 0.074907 0.000000 0.000000
O O1 0.446108 0.150327 0.744717
O O2 0.364246 0.140168 0.878815
O O3 0.407230 0.914919 0.752756
O O4 0.433385 0.000000 0.000000
O O5 0.521258 0.379828 0.343192
O O6 0.542126 0.545882 0.135321
O O7 0.750000 0.250000 0.710530
O O8 0.828732 0.370131 0.625780
O O9 0.829883 0.263093 0.873671
O O10 0.768495 0.449545 0.868056
O O11 0.500000 0.827417 0.500000
O O12 0.588368 0.751617 0.493465
O O13 0.700948 0.622036 0.932579
O O14 0.609038 0.624299 0.954934
O O15 0.897529 0.500000 0.500000
#
# Coordination Sequence:
#
# PCOD9322963 Si02
#       8
#     8   4   8   8   8   8   4   4
#     4  11  21  41  72  98 126 180 229 282 337 404
#     4  11  23  44  68  92 134 174 228 280 356 404
#     4  10  19  36  63  93 133 175 220 275 340 402
#     4  11  26  46  63  97 137 182 224 280 351 421
#     4  10  19  37  65  99 133 163 228 285 348 386
#     4  10  23  41  63  89 136 174 223 276 334 416
#     4   9  20  35  62 103 136 171 222 297 343 404
#     4  10  22  39  68 104 126 160 228 307 317 413
#
# _framework density 20.892316999999998
#
# number of rings (size 3 to 8) (size 9 to 14) (size 15 to 20)
#    0.000    1.692    3.077    1.154    2.154    2.769 
#    0.000    5.385    0.000    0.000    0.000    0.000 
#    0.000    0.000    0.000    0.000    0.000    0.000 
#
# Total GULP energy -144775.469047 kJ/mol
# GULP energy per Si atom -5568.287271 kJ/mol
# Density = 2.084476 g / cm^3
# Si number density = 20.892317 Si / 1000 Ang^3
#
#
#
# Elastic Constant Matrix: (Units=GPa)
#
#
# Indices 1 2 3 4 5 6 
#
# 1 110.4537 43.9666 54.8359 0.0000 0.0000 0.0000
# 2 43.9666 82.6902 41.6117 0.0000 0.0000 0.0000
# 3 54.8359 41.6117 117.7975 0.0000 0.0000 0.0000
# 4 0.0000 0.0000 0.0000 16.9787 0.0000 0.0000
# 5 0.0000 0.0000 0.0000 0.0000 723.2557 0.0000
# 6 0.0000 0.0000 0.0000 0.0000 0.0000 13.1991
#
#
#
# Elastic Compliance Matrix: (Units=1/GPa)
#
#
# Indices 1 2 3 4 5 6 
#
# 1 0.013153 -0.004758 -0.004442 0.000000 0.000000 0.000000
# 2 -0.004758 0.016429 -0.003589 0.000000 0.000000 0.000000
# 3 -0.004442 -0.003589 0.011825 0.000000 0.000000 0.000000
# 4 0.000000 0.000000 0.000000 0.058897 0.000000 0.000000
# 5 0.000000 0.000000 0.000000 0.000000 0.001383 0.000000
# 6 0.000000 0.000000 0.000000 0.000000 0.000000 0.075762
#
#
# Mechanical properties :
#
#
# Convention : Reuss Voigt Hill
#
# Bulk Modulus (GPa) = 63.17454 65.75222 64.46338
# Shear Modulus (GPa) = 24.00355 162.05519 93.02937
#
# Velocity S-wave (km/s) = 3.39325 8.81676 6.68017
# Velocity P-wave (km/s) = 6.75692 11.62701 9.50903
#
# Compressibility (1/GPa) = 0.01582916
#
# Stress axis : x y z
#
# Youngs Moduli (GPa) = 76.02935 60.86769 84.56944
#
# Poissons Ratio (x) = 0.28961 0.37566
# Poissons Ratio (y) = 0.36175 0.30349
# Poissons Ratio (z) = 0.33772 0.21843
#
# Static dielectric constant tensor:
#      x y z
#    x 1.840840 0.000000 0.000000 
#    y 0.000000 1.821680 0.000000 
#    z 0.000000 0.000000 1.763660 
# 
# From -- ./inp_files/19149.got.cif
#   From: 2010.05.17/outbox.cif.g08.bks.cpg/sg21_10_cif.got.tgz:19149.got - 2010.06.03 23:14:55.
