data_PCOD9322627
_publ_section_title
;
Structure prediction by ZEFSAII (Michael W. Deem and Ramdas Pophale) SiO2 
 PCOD9322627
Probable space group: C 2 2 2
;
_chemical_formula_sum "Si O2"
_cell_formula_units_Z 32
_cell_length_a 5.131189
_cell_length_b 14.374998
_cell_length_c 19.515896
_cell_angle_alpha 90.000000
_cell_angle_beta 90.000000
_cell_angle_gamma 90.000000
_cell_volume 1439.508719
_symmetry_space_group_name_H-M "C 2 2 2"
_symmetry_group_IT_number 21
_symmetry_cell_setting 'orthorhombic'
loop_
_space_group_symop_operation_xyz
x,y,z
-x,-y,z
x,-y,-z
-x,y,-z
1/2+x,1/2+y,z
1/2-x,1/2-y,z
1/2+x,1/2-y,-z
1/2-x,1/2+y,-z
loop_
_atom_site_type_symbol
_atom_site_label
_atom_site_fract_x
_atom_site_fract_y
_atom_site_fract_z
Si Si1 0.699326 0.918032 0.626007
Si Si2 0.000000 0.000000 0.000000
Si Si3 0.861568 0.347529 0.928913
Si Si4 0.500000 0.500000 0.500000
Si Si5 0.750000 0.750000 0.548663
Si Si6 0.500000 0.000000 0.832749
Si Si7 0.500000 0.500000 0.739694
O O1 0.604675 0.818261 0.603662
O O2 0.500000 0.000000 0.643597
O O3 0.820474 0.945990 0.552819
O O4 0.089540 0.080451 0.686561
O O5 0.162226 0.070979 0.047575
O O6 0.750000 0.250000 0.900804
O O7 0.043358 0.406437 0.877764
O O8 0.000000 0.320533 0.000000
O O9 0.500000 0.724932 0.500000
O O10 0.246672 0.979824 0.787121
#
# Coordination Sequence:
#
# PCOD9322627 Si02
#       7
#     8   2   8   2   4   4   4
#     4  11  23  45  70 100 144 187 234 301 358 428
#     4  12  20  44  70 108 154 178 224 300 376 422
#     4  12  25  42  76 109 141 187 239 305 372 430
#     4  10  18  36  70  98 124 178 230 282 370 406
#     4  12  26  42  72 116 140 174 244 312 372 434
#     4  12  25  50  70 103 152 194 242 302 348 431
#     4  11  27  47  71 100 144 206 246 278 363 433
#
# _framework density 22.229807000000001
#
# number of rings (size 3 to 8) (size 9 to 14) (size 15 to 20)
#    0.000    0.500    6.250    2.625    3.500    0.000 
#    4.500    0.000    0.000    0.000    0.000    0.000 
#    0.000    0.000    0.000    0.000    0.000    0.000 
#
# Total GULP energy -89106.323351 kJ/mol
# GULP energy per Si atom -5569.145209 kJ/mol
# Density = 2.217921 g / cm^3
# Si number density = 22.229807 Si / 1000 Ang^3
#
#
#
# Elastic Constant Matrix: (Units=GPa)
#
#
# Indices 1 2 3 4 5 6 
#
# 1 94.4088 23.3390 26.2542 0.0000 0.0000 0.0000
# 2 23.3390 117.8808 24.6396 0.0000 0.0000 0.0000
# 3 26.2542 24.6396 106.4241 0.0000 0.0000 0.0000
# 4 0.0000 0.0000 0.0000 2.2154 0.0000 0.0000
# 5 0.0000 0.0000 0.0000 0.0000 46.9617 0.0000
# 6 0.0000 0.0000 0.0000 0.0000 0.0000 27.3512
#
#
#
# Elastic Compliance Matrix: (Units=1/GPa)
#
#
# Indices 1 2 3 4 5 6 
#
# 1 0.011727 -0.001804 -0.002475 0.000000 0.000000 0.000000
# 2 -0.001804 0.009192 -0.001683 0.000000 0.000000 0.000000
# 3 -0.002475 -0.001683 0.010397 0.000000 0.000000 0.000000
# 4 0.000000 0.000000 0.000000 0.451387 0.000000 0.000000
# 5 0.000000 0.000000 0.000000 0.000000 0.021294 0.000000
# 6 0.000000 0.000000 0.000000 0.000000 0.000000 0.036561
#
#
# Mechanical properties :
#
#
# Convention : Reuss Voigt Hill
#
# Bulk Modulus (GPa) = 51.57224 51.90882 51.74053
# Shear Modulus (GPa) = 8.94541 31.60440 20.27490
#
# Velocity S-wave (km/s) = 2.00818 3.77465 3.02331
# Velocity P-wave (km/s) = 5.35042 6.51145 5.95928
#
# Compressibility (1/GPa) = 0.01939028
#
# Stress axis : x y z
#
# Youngs Moduli (GPa) = 85.27613 108.78800 96.18495
#
# Poissons Ratio (x) = 0.19629 0.23807
# Poissons Ratio (y) = 0.15387 0.16189
# Poissons Ratio (z) = 0.21107 0.18310
#
# Static dielectric constant tensor:
#      x y z
#    x 1.873020 0.000000 0.000000 
#    y 0.000000 2.145530 0.000000 
#    z 0.000000 0.000000 1.850680 
# 
# From -- ./inp_files/34425.got.cif
#   From: 2010.05.17/outbox.cif.g08.bks.cpg/sg21_18_cif.got.tgz:34425.got - 2010.06.03 23:14:55.
