data_PCOD9322532
_publ_section_title
;
Structure prediction by ZEFSAII (Michael W. Deem and Ramdas Pophale) SiO2 
 PCOD9322532
Probable space group: C 2 2 2
;
_chemical_formula_sum "Si O2"
_cell_formula_units_Z 48
_cell_length_a 16.279628
_cell_length_b 19.389393
_cell_length_c 7.620494
_cell_angle_alpha 90.000000
_cell_angle_beta 90.000000
_cell_angle_gamma 90.000000
_cell_volume 2405.424974
_symmetry_space_group_name_H-M "C 2 2 2"
_symmetry_group_IT_number 21
_symmetry_cell_setting 'orthorhombic'
loop_
_space_group_symop_operation_xyz
x,y,z
-x,-y,z
x,-y,-z
-x,y,-z
1/2+x,1/2+y,z
1/2-x,1/2-y,z
1/2+x,1/2-y,-z
1/2-x,1/2+y,-z
loop_
_atom_site_type_symbol
_atom_site_label
_atom_site_fract_x
_atom_site_fract_y
_atom_site_fract_z
Si Si1 0.246516 0.328118 0.865320
Si Si2 0.083661 0.470820 0.297806
Si Si3 0.912014 0.827064 0.098767
Si Si4 0.915859 0.975379 0.202006
Si Si5 0.744155 0.965315 0.687448
Si Si6 0.584976 0.830240 0.112731
O O1 0.250000 0.250000 0.799321
O O2 0.239586 0.383802 0.711812
O O3 0.332045 0.336374 0.973323
O O4 0.166648 0.337898 0.991014
O O5 0.081504 0.500000 0.500000
O O6 0.165777 0.502477 0.213630
O O7 0.085269 0.388823 0.263135
O O8 0.000000 0.500000 0.216805
O O9 0.908438 0.893319 0.222821
O O10 0.910587 0.749666 0.175485
O O11 0.000000 0.833278 0.000000
O O12 0.833137 0.011565 0.255861
O O13 0.000000 0.000000 0.288755
O O14 0.921427 0.000000 0.000000
O O15 0.737527 0.000000 0.500000
O O16 0.500000 0.837066 0.000000
#
# Coordination Sequence:
#
# PCOD9322532 Si02
#       6
#     8   8   8   8   8   8
#     4  10  20  35  56  83 115 150 187 239 292 338
#     4  10  22  39  56  80 116 156 193 242 295 345
#     4  10  18  33  55  87 115 142 186 237 287 338
#     4  11  19  34  61  87 112 149 189 233 285 341
#     4  11  23  37  55  83 115 152 193 235 290 348
#     4  10  21  34  57  87 113 144 196 244 284 340
#
# _framework density 19.954892999999998
#
# number of rings (size 3 to 8) (size 9 to 14) (size 15 to 20)
#    0.000    1.667    3.333    2.000    0.000    2.000 
#    0.000    3.333    0.000    2.000    0.000    0.000 
#    0.000    0.000    0.000    0.000    0.000    0.000 
#
# Total GULP energy -133625.342949 kJ/mol
# GULP energy per Si atom -5567.722623 kJ/mol
# Density = 1.990947 g / cm^3
# Si number density = 19.954893 Si / 1000 Ang^3
#
#
#
# Elastic Constant Matrix: (Units=GPa)
#
#
# Indices 1 2 3 4 5 6 
#
# 1 176.7219 29.4251 19.3166 0.0000 0.0000 0.0000
# 2 29.4251 202.5086 43.6551 0.0000 0.0000 0.0000
# 3 19.3166 43.6551 50.6435 0.0000 0.0000 0.0000
# 4 0.0000 0.0000 0.0000 25.3621 0.0000 0.0000
# 5 0.0000 0.0000 0.0000 0.0000 6.1933 0.0000
# 6 0.0000 0.0000 0.0000 0.0000 0.0000 30.0105
#
#
#
# Elastic Compliance Matrix: (Units=1/GPa)
#
#
# Indices 1 2 3 4 5 6 
#
# 1 0.005939 -0.000460 -0.001869 0.000000 0.000000 0.000000
# 2 -0.000460 0.006101 -0.005083 0.000000 0.000000 0.000000
# 3 -0.001869 -0.005083 0.024841 0.000000 0.000000 0.000000
# 4 0.000000 0.000000 0.000000 0.039429 0.000000 0.000000
# 5 0.000000 0.000000 0.000000 0.000000 0.161466 0.000000
# 6 0.000000 0.000000 0.000000 0.000000 0.000000 0.033322
#
#
# Mechanical properties :
#
#
# Convention : Reuss Voigt Hill
#
# Bulk Modulus (GPa) = 45.33878 68.29639 56.81758
# Shear Modulus (GPa) = 17.04890 34.81165 25.93028
#
# Velocity S-wave (km/s) = 2.92614 4.18127 3.60869
# Velocity P-wave (km/s) = 5.84691 7.59015 6.77483
#
# Compressibility (1/GPa) = 0.02205618
#
# Stress axis : x y z
#
# Youngs Moduli (GPa) = 168.36449 163.91398 40.25666
#
# Poissons Ratio (x) = 0.07543 0.07523
# Poissons Ratio (y) = 0.07748 0.20464
# Poissons Ratio (z) = 0.31464 0.83324
#
# Static dielectric constant tensor:
#      x y z
#    x 1.856630 0.000000 0.000000 
#    y 0.000000 1.715900 0.000000 
#    z 0.000000 0.000000 1.722160 
# 
# From -- ./inp_files/14948.got.cif
#   From: 2010.05.17/outbox.cif.g08.bks.cpg/sg21_8_cif.got.tgz:14948.got - 2010.06.03 23:14:55.
