data_PCOD9322608
_publ_section_title
;
Structure prediction by ZEFSAII (Michael W. Deem and Ramdas Pophale) SiO2 
 PCOD9322608
Probable space group: C 2 2 2
;
_chemical_formula_sum "Si O2"
_cell_formula_units_Z 32
_cell_length_a 32.141638
_cell_length_b 8.412397
_cell_length_c 5.498630
_cell_angle_alpha 90.000000
_cell_angle_beta 90.000000
_cell_angle_gamma 90.000000
_cell_volume 1486.764773
_symmetry_space_group_name_H-M "C 2 2 2"
_symmetry_group_IT_number 21
_symmetry_cell_setting 'orthorhombic'
loop_
_space_group_symop_operation_xyz
x,y,z
-x,-y,z
x,-y,-z
-x,y,-z
1/2+x,1/2+y,z
1/2-x,1/2-y,z
1/2+x,1/2-y,-z
1/2-x,1/2+y,-z
loop_
_atom_site_type_symbol
_atom_site_label
_atom_site_fract_x
_atom_site_fract_y
_atom_site_fract_z
Si Si1 0.546947 0.065900 0.752094
Si Si2 0.276645 0.500000 0.000000
Si Si3 0.170708 0.167284 0.353130
Si Si4 0.579321 0.397336 0.746750
Si Si5 0.750000 0.750000 0.638192
O O1 0.546113 0.256423 0.763702
O O2 0.500000 0.000000 0.752058
O O3 0.565989 0.000000 0.500000
O O4 0.567362 0.000000 0.000000
O O5 0.307099 0.634727 0.901190
O O6 0.251545 0.411665 0.793675
O O7 0.122740 0.199504 0.299121
O O8 0.206532 0.261735 0.493176
O O9 0.168697 0.000000 0.500000
O O10 0.572487 0.500000 0.500000
O O11 0.581623 0.500000 0.000000
#
# Coordination Sequence:
#
# PCOD9322608 Si02
#       5
#     8   4   8   8   4
#     4  10  22  44  67  95 140 171 199 267 345 390
#     4  10  18  36  56  80 118 161 209 270 322 368
#     4   9  19  35  58  84 120 163 215 273 316 362
#     4  11  22  41  71  99 125 174 232 268 317 395
#     4  10  20  34  58  84 120 164 212 266 328 374
#
# _framework density 21.523244999999999
#
# number of rings (size 3 to 8) (size 9 to 14) (size 15 to 20)
#    0.000    2.000    1.250    2.250    0.000    0.000 
#    0.000   21.250    2.750    0.000    0.000    0.000 
#    0.000    0.000    0.000    0.000    0.000    0.000 
#
# Total GULP energy -89074.606650 kJ/mol
# GULP energy per Si atom -5567.162916 kJ/mol
# Density = 2.147426 g / cm^3
# Si number density = 21.523245 Si / 1000 Ang^3
#
#
#
# Elastic Constant Matrix: (Units=GPa)
#
#
# Indices 1 2 3 4 5 6 
#
# 1 87.8862 47.4415 17.3958 0.0000 0.0000 0.0000
# 2 47.4415 83.3019 43.2734 0.0000 0.0000 0.0000
# 3 17.3958 43.2734 155.8824 0.0000 0.0000 0.0000
# 4 0.0000 0.0000 0.0000 47.6499 0.0000 0.0000
# 5 0.0000 0.0000 0.0000 0.0000 6.7731 0.0000
# 6 0.0000 0.0000 0.0000 0.0000 0.0000 34.5661
#
#
#
# Elastic Compliance Matrix: (Units=1/GPa)
#
#
# Indices 1 2 3 4 5 6 
#
# 1 0.016536 -0.009884 0.000899 0.000000 0.000000 0.000000
# 2 -0.009884 0.019936 -0.004431 0.000000 0.000000 0.000000
# 3 0.000899 -0.004431 0.007545 0.000000 0.000000 0.000000
# 4 0.000000 0.000000 0.000000 0.020986 0.000000 0.000000
# 5 0.000000 0.000000 0.000000 0.000000 0.147642 0.000000
# 6 0.000000 0.000000 0.000000 0.000000 0.000000 0.028930
#
#
# Mechanical properties :
#
#
# Convention : Reuss Voigt Hill
#
# Bulk Modulus (GPa) = 58.19750 60.36579 59.28165
# Shear Modulus (GPa) = 18.23909 32.39514 25.31711
#
# Velocity S-wave (km/s) = 2.91419 3.88380 3.43340
# Velocity P-wave (km/s) = 6.19850 6.94403 6.58183
#
# Compressibility (1/GPa) = 0.01718287
#
# Stress axis : x y z
#
# Youngs Moduli (GPa) = 60.47373 50.16141 132.53953
#
# Poissons Ratio (x) = 0.49581 -0.11909
# Poissons Ratio (y) = 0.59774 0.58730
# Poissons Ratio (z) = -0.05434 0.22227
#
# Static dielectric constant tensor:
#      x y z
#    x 1.827970 0.000000 0.000000 
#    y 0.000000 1.776410 0.000000 
#    z 0.000000 0.000000 1.980810 
# 
# From -- ./inp_files/7782.got.cif
#   From: 2010.05.17/outbox.cif.g08.bks.cpg/sg21_4_cif.got.tgz:7782.got - 2010.06.03 23:14:55.
