data_PCOD9322908
_publ_section_title
;
Structure prediction by ZEFSAII (Michael W. Deem and Ramdas Pophale) SiO2 
 PCOD9322908
Probable space group: C 2 2 2
;
_chemical_formula_sum "Si O2"
_cell_formula_units_Z 32
_cell_length_a 33.396119
_cell_length_b 7.939378
_cell_length_c 5.274592
_cell_angle_alpha 90.000000
_cell_angle_beta 90.000000
_cell_angle_gamma 90.000000
_cell_volume 1398.528597
_symmetry_space_group_name_H-M "C 2 2 2"
_symmetry_group_IT_number 21
_symmetry_cell_setting 'orthorhombic'
loop_
_space_group_symop_operation_xyz
x,y,z
-x,-y,z
x,-y,-z
-x,y,-z
1/2+x,1/2+y,z
1/2-x,1/2-y,z
1/2+x,1/2-y,-z
1/2-x,1/2+y,-z
loop_
_atom_site_type_symbol
_atom_site_label
_atom_site_fract_x
_atom_site_fract_y
_atom_site_fract_z
Si Si1 0.205633 0.298068 0.704977
Si Si2 0.675060 0.814619 0.200734
Si Si3 0.582794 0.815960 0.081375
Si Si4 0.455480 0.694017 0.423165
O O1 0.250000 0.250000 0.616509
O O2 0.176736 0.236624 0.480337
O O3 0.193535 0.496269 0.750823
O O4 0.200812 0.223569 0.985605
O O5 0.630910 0.812094 0.080763
O O6 0.572413 0.785330 0.373341
O O7 0.560148 0.706868 0.865944
O O8 0.569369 0.000000 0.000000
O O9 0.454635 0.500000 0.500000
O O10 0.500000 0.756162 0.500000
#
# Coordination Sequence:
#
# PCOD9322908 Si02
#       4
#     8   8   8   8
#     4  10  19  35  62  85 121 167 214 263 341 405
#     4  10  21  37  61  92 126 171 214 280 343 392
#     4  12  23  41  75 103 137 182 229 295 344 407
#     4  11  26  46  69  99 143 188 228 280 348 419
#
# _framework density 22.88119
#
# number of rings (size 3 to 8) (size 9 to 14) (size 15 to 20)
#    0.000    1.250    2.500    4.500    3.500    5.000 
#    0.000    0.000   55.000    0.000    0.000    0.000 
#    0.000    0.000    0.000    0.000    0.000    0.000 
#
# Total GULP energy -89144.184289 kJ/mol
# GULP energy per Si atom -5571.511518 kJ/mol
# Density = 2.282911 g / cm^3
# Si number density = 22.881190 Si / 1000 Ang^3
#
#
#
# Elastic Constant Matrix: (Units=GPa)
#
#
# Indices 1 2 3 4 5 6 
#
# 1 100.6561 10.5367 3.3651 0.0000 0.0000 0.0000
# 2 10.5367 27.0190 -6.3977 0.0000 0.0000 0.0000
# 3 3.3651 -6.3977 153.4507 0.0000 0.0000 0.0000
# 4 0.0000 0.0000 0.0000 25.7976 0.0000 0.0000
# 5 0.0000 0.0000 0.0000 0.0000 388.5949 0.0000
# 6 0.0000 0.0000 0.0000 0.0000 0.0000 22.7294
#
#
#
# Elastic Compliance Matrix: (Units=1/GPa)
#
#
# Indices 1 2 3 4 5 6 
#
# 1 0.010382 -0.004144 -0.000400 0.000000 0.000000 0.000000
# 2 -0.004144 0.039034 0.001718 0.000000 0.000000 0.000000
# 3 -0.000400 0.001718 0.006597 0.000000 0.000000 0.000000
# 4 0.000000 0.000000 0.000000 0.038763 0.000000 0.000000
# 5 0.000000 0.000000 0.000000 0.000000 0.002573 0.000000
# 6 0.000000 0.000000 0.000000 0.000000 0.000000 0.043996
#
#
# Mechanical properties :
#
#
# Convention : Reuss Voigt Hill
#
# Bulk Modulus (GPa) = 19.85645 32.90378 26.38011
# Shear Modulus (GPa) = 30.52804 105.66583 68.09693
#
# Velocity S-wave (km/s) = 3.65663 6.80297 5.46129
# Velocity P-wave (km/s) = 5.15023 8.72461 7.16392
#
# Compressibility (1/GPa) = 0.05036147
#
# Stress axis : x y z
#
# Youngs Moduli (GPa) = 96.32099 25.61889 151.58013
#
# Poissons Ratio (x) = 0.10615 0.06070
# Poissons Ratio (y) = 0.39911 -0.26045
# Poissons Ratio (z) = 0.03857 -0.04402
#
# Static dielectric constant tensor:
#      x y z
#    x 1.948440 0.000000 0.000000 
#    y 0.000000 1.868260 0.000000 
#    z 0.000000 0.000000 2.100030 
# 
# From -- ./inp_files/7768.got.cif
#   From: 2010.05.17/outbox.cif.g08.bks.cpg/sg21_4_cif.got.tgz:7768.got - 2010.06.03 23:14:55.
