data_PCOD9322093
_publ_section_title
;
Structure prediction by ZEFSAII (Michael W. Deem and Ramdas Pophale) SiO2 
 PCOD9322093
Probable space group: C 2 2 21
;
_chemical_formula_sum "Si O2"
_cell_formula_units_Z 60
_cell_length_a 18.394589
_cell_length_b 5.545301
_cell_length_c 23.592153
_cell_angle_alpha 90.000000
_cell_angle_beta 90.000000
_cell_angle_gamma 90.000000
_cell_volume 2406.482952
_symmetry_space_group_name_H-M "C 2 2 21"
_symmetry_group_IT_number 20
_symmetry_cell_setting 'orthorhombic'
loop_
_space_group_symop_operation_xyz
x,y,z
-x,-y,1/2+z
x,-y,-z
-x,y,1/2-z
1/2+x,1/2+y,z
1/2-x,1/2-y,1/2+z
1/2+x,1/2-y,-z
1/2-x,1/2+y,1/2-z
loop_
_atom_site_type_symbol
_atom_site_label
_atom_site_fract_x
_atom_site_fract_y
_atom_site_fract_z
Si Si1 0.197633 0.067738 0.565465
Si Si2 0.334065 0.167266 0.401772
Si Si3 0.533879 0.845238 0.079783
Si Si4 0.122286 0.430642 0.403965
Si Si5 0.304291 0.546365 0.712056
Si Si6 0.627612 0.500000 0.000000
Si Si7 0.363898 0.913952 0.779629
Si Si8 0.942769 0.250766 0.295759
O O1 0.167118 0.335214 0.575365
O O2 0.192668 0.000000 0.500000
O O3 0.280879 0.054833 0.585545
O O4 0.160016 0.832571 0.594785
O O5 0.313532 0.274335 0.341097
O O6 0.325606 0.358062 0.453017
O O7 0.416464 0.077009 0.406638
O O8 0.452820 0.909238 0.062478
O O9 0.527056 0.719416 0.141297
O O10 0.576190 0.684669 0.034402
O O11 0.105674 0.504849 0.339219
O O12 0.219145 0.516866 0.722825
O O13 0.359144 0.335644 0.696661
O O14 0.343554 0.638404 0.769324
O O15 0.421934 0.991912 0.732373
O O16 0.000000 0.142688 0.250000
#
# Coordination Sequence:
#
# PCOD9322093 Si02
#       8
#     8   8   8   8   8   4   8   8
#     4  12  30  52  80 115 159 209 265 336 400 475
#     4  12  28  48  80 116 150 210 272 337 400 485
#     4  12  28  50  76 116 157 208 272 330 407 484
#     4  12  31  50  82 117 161 209 267 327 405 481
#     4  12  26  44  79 110 155 201 262 330 401 485
#     4  12  28  50  82 110 160 214 278 338 404 488
#     4  12  26  45  75 113 152 201 257 323 401 477
#     4  12  26  47  74 112 155 204 263 329 404 481
#
# _framework density 24.932652999999998
#
# number of rings (size 3 to 8) (size 9 to 14) (size 15 to 20)
#    0.000    0.000    6.667    1.600   12.133    2.667 
#    0.000    0.000    0.000    0.000    0.000    0.000 
#    0.000    0.000    0.000    0.000    0.000    0.000 
#
# Total GULP energy -167701.294909 kJ/mol
# GULP energy per Si atom -5590.043164 kJ/mol
# Density = 2.487590 g / cm^3
# Si number density = 24.932653 Si / 1000 Ang^3
#
#
#
# Elastic Constant Matrix: (Units=GPa)
#
#
# Indices 1 2 3 4 5 6 
#
# 1 131.0663 35.7508 2.1030 0.0000 0.0000 0.0000
# 2 35.7508 63.6003 13.8748 0.0000 0.0000 0.0000
# 3 2.1030 13.8748 107.1676 0.0000 0.0000 0.0000
# 4 0.0000 0.0000 0.0000 31.0068 0.0000 0.0000
# 5 0.0000 0.0000 0.0000 0.0000 -7.4620 0.0000
# 6 0.0000 0.0000 0.0000 0.0000 0.0000 4.3127
#
#
#
# Elastic Compliance Matrix: (Units=1/GPa)
#
#
# Indices 1 2 3 4 5 6 
#
# 1 0.009037 -0.005188 0.000494 0.000000 0.000000 0.000000
# 2 -0.005188 0.019158 -0.002379 0.000000 0.000000 0.000000
# 3 0.000494 -0.002379 0.009629 0.000000 0.000000 0.000000
# 4 0.000000 0.000000 0.000000 0.032251 0.000000 0.000000
# 5 0.000000 0.000000 0.000000 0.000000 -0.134011 0.000000
# 6 0.000000 0.000000 0.000000 0.000000 0.000000 0.231874
#
#
# Mechanical properties :
#
#
# Convention : Reuss Voigt Hill
#
# Bulk Modulus (GPa) = 42.22857 45.03238 43.63047
# Shear Modulus (GPa) = 26.31931 22.24520 24.28225
#
# Velocity S-wave (km/s) = 3.25255 2.99023 3.12414
# Velocity P-wave (km/s) = 5.57488 5.47931 5.52730
#
# Compressibility (1/GPa) = 0.02368065
#
# Stress axis : x y z
#
# Youngs Moduli (GPa) = 110.65865 52.19721 103.84833
#
# Poissons Ratio (x) = 0.27078 -0.05133
# Poissons Ratio (y) = 0.57405 0.24701
# Poissons Ratio (z) = -0.05470 0.12415
#
# Static dielectric constant tensor:
#      x y z
#    x 2.002380 0.000000 0.000000 
#    y 0.000000 2.109110 0.000000 
#    z 0.000000 0.000000 2.030370 
# 
# From -- ./inp_files/30512.got.cif
#   From: 2010.05.17/outbox.cif.g08.bks.cpg/sg20_16_cif.got.tgz:30512.got - 2010.06.03 22:52:26.
