data_PCOD9322990
_publ_section_title
;
Structure prediction by ZEFSAII (Michael W. Deem and Ramdas Pophale) SiO2 
 PCOD9322990
Probable space group: C 2 2 2
;
_chemical_formula_sum "Si O2"
_cell_formula_units_Z 36
_cell_length_a 15.501852
_cell_length_b 9.879233
_cell_length_c 11.237739
_cell_angle_alpha 90.000000
_cell_angle_beta 90.000000
_cell_angle_gamma 90.000000
_cell_volume 1721.019360
_symmetry_space_group_name_H-M "C 2 2 2"
_symmetry_group_IT_number 21
_symmetry_cell_setting 'orthorhombic'
loop_
_space_group_symop_operation_xyz
x,y,z
-x,-y,z
x,-y,-z
-x,y,-z
1/2+x,1/2+y,z
1/2-x,1/2-y,z
1/2+x,1/2-y,-z
1/2-x,1/2+y,-z
loop_
_atom_site_type_symbol
_atom_site_label
_atom_site_fract_x
_atom_site_fract_y
_atom_site_fract_z
Si Si1 0.860545 0.062766 0.169760
Si Si2 0.733926 0.087304 0.380603
Si Si3 0.973550 0.797996 0.135813
Si Si4 0.097413 0.453166 0.215302
Si Si5 0.776102 0.500000 0.000000
O O1 0.807448 0.038575 0.288692
O O2 0.932353 0.174936 0.189424
O O3 0.915686 0.932996 0.127482
O O4 0.789839 0.098775 0.069430
O O5 0.750000 0.250000 0.395188
O O6 0.739804 0.000000 0.500000
O O7 0.644125 0.041551 0.316008
O O8 0.920838 0.705678 0.227986
O O9 0.000000 0.753109 0.000000
O O10 0.000000 0.500000 0.186890
O O11 0.161034 0.451037 0.102562
#
# Coordination Sequence:
#
# PCOD9322990 Si02
#       5
#     8   8   8   8   4
#     4  10  21  41  64 101 140 184 230 285 356 426
#     4  11  27  47  72  96 136 187 252 314 362 420
#     4  11  20  38  68 103 149 183 224 281 356 447
#     4  11  24  40  64 100 140 182 232 292 363 431
#     4  10  19  37  60  98 140 182 222 281 349 432
#
# _framework density 20.917835
#
# number of rings (size 3 to 8) (size 9 to 14) (size 15 to 20)
#    0.000    1.333    2.222    3.667    3.111    4.889 
#    4.000    2.222    0.000    0.000    0.000    0.000 
#    0.000    0.000    0.000    0.000    0.000    0.000 
#
# Total GULP energy -100210.131702 kJ/mol
# GULP energy per Si atom -5567.229539 kJ/mol
# Density = 2.087023 g / cm^3
# Si number density = 20.917835 Si / 1000 Ang^3
#
#
#
# Elastic Constant Matrix: (Units=GPa)
#
#
# Indices 1 2 3 4 5 6 
#
# 1 167.0514 49.0105 65.6656 0.0000 0.0000 0.0000
# 2 49.0105 101.6387 45.7821 0.0000 0.0000 0.0000
# 3 65.6656 45.7821 117.7542 0.0000 0.0000 0.0000
# 4 0.0000 0.0000 0.0000 21.3274 0.0000 0.0000
# 5 0.0000 0.0000 0.0000 0.0000 23.5130 0.0000
# 6 0.0000 0.0000 0.0000 0.0000 0.0000 -121.4497
#
#
#
# Elastic Compliance Matrix: (Units=1/GPa)
#
#
# Indices 1 2 3 4 5 6 
#
# 1 0.008074 -0.002261 -0.003623 0.000000 0.000000 0.000000
# 2 -0.002261 0.012561 -0.003623 0.000000 0.000000 0.000000
# 3 -0.003623 -0.003623 0.011921 0.000000 0.000000 0.000000
# 4 0.000000 0.000000 0.000000 0.046888 0.000000 0.000000
# 5 0.000000 0.000000 0.000000 0.000000 0.042530 0.000000
# 6 0.000000 0.000000 0.000000 0.000000 0.000000 -0.008234
#
#
# Mechanical properties :
#
#
# Convention : Reuss Voigt Hill
#
# Bulk Modulus (GPa) = 73.84530 78.59563 76.22046
# Shear Modulus (GPa) = 36.42509 -0.25613 18.08448
#
# Velocity S-wave (km/s) = 4.17747 -0.35031 2.94351
# Velocity P-wave (km/s) = 7.65816 6.12303 6.93321
#
# Compressibility (1/GPa) = 0.01354182
#
# Stress axis : x y z
#
# Youngs Moduli (GPa) = 123.85713 79.61212 83.88405
#
# Poissons Ratio (x) = 0.18002 0.30393
# Poissons Ratio (y) = 0.28006 0.30388
# Poissons Ratio (z) = 0.44876 0.28841
#
# Static dielectric constant tensor:
#      x y z
#    x 1.776370 0.000000 0.000000 
#    y 0.000000 1.944860 0.000000 
#    z 0.000000 0.000000 1.989290 
# 
# From -- ./inp_files/24917.got.cif
#   From: 2010.05.17/outbox.cif.g08.bks.cpg/sg21_13_cif.got.tgz:24917.got - 2010.06.03 23:14:55.
