data_PCOD9322734
_publ_section_title
;
Structure prediction by ZEFSAII (Michael W. Deem and Ramdas Pophale) SiO2 
 PCOD9322734
Probable space group: C 2 2 2
;
_chemical_formula_sum "Si O2"
_cell_formula_units_Z 58
_cell_length_a 9.335304
_cell_length_b 18.485668
_cell_length_c 17.488475
_cell_angle_alpha 90.000000
_cell_angle_beta 90.000000
_cell_angle_gamma 90.000000
_cell_volume 3017.974421
_symmetry_space_group_name_H-M "C 2 2 2"
_symmetry_group_IT_number 21
_symmetry_cell_setting 'orthorhombic'
loop_
_space_group_symop_operation_xyz
x,y,z
-x,-y,z
x,-y,-z
-x,y,-z
1/2+x,1/2+y,z
1/2-x,1/2-y,z
1/2+x,1/2-y,-z
1/2-x,1/2+y,-z
loop_
_atom_site_type_symbol
_atom_site_label
_atom_site_fract_x
_atom_site_fract_y
_atom_site_fract_z
Si Si1 0.992726 0.923665 0.712834
Si Si2 0.239400 0.328399 0.667298
Si Si3 0.500000 0.500000 0.000000
Si Si4 0.676088 0.578418 0.865902
Si Si5 0.556044 0.851551 0.816743
Si Si6 0.008182 0.584518 0.591303
Si Si7 0.902076 0.772874 0.931747
Si Si8 0.786512 0.337844 0.709001
O O1 0.893047 0.864214 0.673842
O O2 0.902299 0.945326 0.788878
O O3 0.143792 0.884350 0.725443
O O4 0.000000 0.000000 0.668796
O O5 0.250000 0.250000 0.631628
O O6 0.160685 0.321108 0.749900
O O7 0.135895 0.380021 0.621803
O O8 0.608965 0.540306 0.940647
O O9 0.848259 0.582089 0.851281
O O10 0.628979 0.661722 0.875613
O O11 0.537761 0.794286 0.884686
O O12 0.403774 0.857655 0.774703
O O13 0.137499 0.629499 0.632067
O O14 0.000000 0.500000 0.614568
O O15 0.000000 0.588575 0.500000
O O16 0.750000 0.750000 0.965701
O O17 0.000000 0.797487 0.000000
O O18 0.750000 0.250000 0.706767
#
# Coordination Sequence:
#
# PCOD9322734 Si02
#       8
#     8   8   2   8   8   8   8   8
#     4  11  21  35  60  89 113 151 203 256 302 356
#     4  10  19  37  62  84 116 153 197 247 301 358
#     4  12  20  36  60  82 120 164 204 254 308 400
#     4  10  20  36  55  79 115 159 199 246 312 374
#     4   9  20  38  57  82 115 154 196 253 310 365
#     4  10  22  41  62  87 127 172 201 239 310 382
#     4  10  19  32  51  75 107 144 189 241 300 358
#     4  11  22  39  65  95 122 156 212 264 305 369
#
# _framework density 19.218187
#
# number of rings (size 3 to 8) (size 9 to 14) (size 15 to 20)
#    0.000    1.793    1.379    5.379    0.000    2.207 
#    0.000    0.690    0.000    3.310    0.000    0.000 
#    0.000    0.000    0.000    0.000    0.000    0.000 
#
# Total GULP energy -161477.808081 kJ/mol
# GULP energy per Si atom -5568.200279 kJ/mol
# Density = 1.917445 g / cm^3
# Si number density = 19.218187 Si / 1000 Ang^3
#
#
#
# Elastic Constant Matrix: (Units=GPa)
#
#
# Indices 1 2 3 4 5 6 
#
# 1 131.2933 63.1634 27.4020 0.0000 0.0000 0.0000
# 2 63.1634 113.8962 23.0363 0.0000 0.0000 0.0000
# 3 27.4020 23.0363 60.1364 0.0000 0.0000 0.0000
# 4 0.0000 0.0000 0.0000 11.9044 0.0000 0.0000
# 5 0.0000 0.0000 0.0000 0.0000 -7.7953 0.0000
# 6 0.0000 0.0000 0.0000 0.0000 0.0000 32.3179
#
#
#
# Elastic Compliance Matrix: (Units=1/GPa)
#
#
# Indices 1 2 3 4 5 6 
#
# 1 0.010822 -0.005424 -0.002853 0.000000 0.000000 0.000000
# 2 -0.005424 0.012236 -0.002216 0.000000 0.000000 0.000000
# 3 -0.002853 -0.002216 0.018778 0.000000 0.000000 0.000000
# 4 0.000000 0.000000 0.000000 0.084002 0.000000 0.000000
# 5 0.000000 0.000000 0.000000 0.000000 -0.128282 0.000000
# 6 0.000000 0.000000 0.000000 0.000000 0.000000 0.030943
#
#
# Mechanical properties :
#
#
# Convention : Reuss Voigt Hill
#
# Bulk Modulus (GPa) = 47.96315 59.16992 53.56653
# Shear Modulus (GPa) = 88.59863 20.06702 54.33282
#
# Velocity S-wave (km/s) = 6.79717 3.23486 5.32287
# Velocity P-wave (km/s) = 9.30663 6.69386 8.10621
#
# Compressibility (1/GPa) = 0.02084934
#
# Stress axis : x y z
#
# Youngs Moduli (GPa) = 92.40841 81.72495 53.25471
#
# Poissons Ratio (x) = 0.44329 0.15194
# Poissons Ratio (y) = 0.50124 0.11799
# Poissons Ratio (z) = 0.26365 0.18108
#
# Static dielectric constant tensor:
#      x y z
#    x 1.619370 0.000000 0.000000 
#    y 0.000000 1.727960 0.000000 
#    z 0.000000 0.000000 1.677300 
# 
# From -- ./inp_files/35819.got.cif
#   From: 2010.05.17/outbox.cif.g08.bks.cpg/sg21_18_cif.got.tgz:35819.got - 2010.06.03 23:14:55.
