data_PCOD9322265
_publ_section_title
;
Structure prediction by ZEFSAII (Michael W. Deem and Ramdas Pophale) SiO2 
 PCOD9322265
Probable space group: C 2 2 2
;
_chemical_formula_sum "Si O2"
_cell_formula_units_Z 48
_cell_length_a 27.924529
_cell_length_b 10.811771
_cell_length_c 8.268975
_cell_angle_alpha 90.000000
_cell_angle_beta 90.000000
_cell_angle_gamma 90.000000
_cell_volume 2496.516117
_symmetry_space_group_name_H-M "C 2 2 2"
_symmetry_group_IT_number 21
_symmetry_cell_setting 'orthorhombic'
loop_
_space_group_symop_operation_xyz
x,y,z
-x,-y,z
x,-y,-z
-x,y,-z
1/2+x,1/2+y,z
1/2-x,1/2-y,z
1/2+x,1/2-y,-z
1/2-x,1/2+y,-z
loop_
_atom_site_type_symbol
_atom_site_label
_atom_site_fract_x
_atom_site_fract_y
_atom_site_fract_z
Si Si1 0.235964 0.614753 0.379586
Si Si2 0.674118 0.437215 0.172741
Si Si3 0.867347 0.700869 0.674029
Si Si4 0.474242 0.881090 0.320008
Si Si5 0.884863 0.112999 0.609501
Si Si6 0.513645 0.367219 0.693176
O O1 0.242652 0.500000 0.500000
O O2 0.250000 0.750000 0.452393
O O3 0.273078 0.600183 0.231907
O O4 0.180847 0.620999 0.324453
O O5 0.640785 0.314742 0.198508
O O6 0.655998 0.544776 0.292884
O O7 0.672795 0.500000 0.000000
O O8 0.916425 0.622028 0.677158
O O9 0.868638 0.777178 0.505353
O O10 0.500000 0.875598 0.500000
O O11 0.486446 0.750483 0.238753
O O12 0.500000 0.000000 0.244218
O O13 0.930067 0.154895 0.711967
O O14 0.905054 0.000000 0.500000
O O15 0.500000 0.500000 0.761686
O O16 0.500000 0.370022 0.500000
#
# Coordination Sequence:
#
# PCOD9322265 Si02
#       6
#     8   8   8   8   8   8
#     4  10  21  38  59  87 119 148 189 255 307 349
#     4  10  21  37  55  80 116 157 200 248 296 350
#     4  10  19  34  58  87 116 151 193 244 296 351
#     4  10  19  29  49  89 123 148 175 229 290 358
#     4  10  16  29  54  82 110 142 186 238 296 340
#     4  10  14  25  47  82 108 145 178 230 275 341
#
# _framework density 19.226794000000002
#
# number of rings (size 3 to 8) (size 9 to 14) (size 15 to 20)
#    0.000    2.000    5.000    3.500    2.333    0.000 
#    0.000    7.500    0.000    4.500    0.000    2.333 
#    0.000    0.000    0.000    0.000    0.000    0.000 
#
# Total GULP energy -133601.320131 kJ/mol
# GULP energy per Si atom -5566.721672 kJ/mol
# Density = 1.918303 g / cm^3
# Si number density = 19.226794 Si / 1000 Ang^3
#
#
#
# Elastic Constant Matrix: (Units=GPa)
#
#
# Indices 1 2 3 4 5 6 
#
# 1 165.2577 42.3579 19.7536 0.0000 0.0000 0.0000
# 2 42.3579 117.8615 28.2775 0.0000 0.0000 0.0000
# 3 19.7536 28.2775 33.4770 0.0000 0.0000 0.0000
# 4 0.0000 0.0000 0.0000 10.1709 0.0000 0.0000
# 5 0.0000 0.0000 0.0000 0.0000 -1.1411 0.0000
# 6 0.0000 0.0000 0.0000 0.0000 0.0000 14.1119
#
#
#
# Elastic Compliance Matrix: (Units=1/GPa)
#
#
# Indices 1 2 3 4 5 6 
#
# 1 0.006822 -0.001864 -0.002451 0.000000 0.000000 0.000000
# 2 -0.001864 0.011150 -0.008319 0.000000 0.000000 0.000000
# 3 -0.002451 -0.008319 0.038344 0.000000 0.000000 0.000000
# 4 0.000000 0.000000 0.000000 0.098320 0.000000 0.000000
# 5 0.000000 0.000000 0.000000 0.000000 -0.876333 0.000000
# 6 0.000000 0.000000 0.000000 0.000000 0.000000 0.070862
#
#
# Mechanical properties :
#
#
# Convention : Reuss Voigt Hill
#
# Bulk Modulus (GPa) = 32.20683 55.26381 43.73532
# Shear Modulus (GPa) = -8.12720 19.70881 5.79081
#
# Velocity S-wave (km/s) = -2.05820 3.20514 1.73735
# Velocity P-wave (km/s) = 3.33753 6.51942 5.17890
#
# Compressibility (1/GPa) = 0.03104932
#
# Stress axis : x y z
#
# Youngs Moduli (GPa) = 146.58859 89.68505 26.07948
#
# Poissons Ratio (x) = 0.16714 0.06393
# Poissons Ratio (y) = 0.27318 0.21695
# Poissons Ratio (z) = 0.35931 0.74606
#
# Static dielectric constant tensor:
#      x y z
#    x 1.731060 0.000000 0.000000 
#    y 0.000000 1.785400 0.000000 
#    z 0.000000 0.000000 1.679990 
# 
# From -- ./inp_files/19748.got.cif
#   From: 2010.05.17/outbox.cif.g08.bks.cpg/sg21_10_cif.got.tgz:19748.got - 2010.06.03 23:14:55.
