data_PCOD9322978
_publ_section_title
;
Structure prediction by ZEFSAII (Michael W. Deem and Ramdas Pophale) SiO2 
 PCOD9322978
Probable space group: C 2 2 2
;
_chemical_formula_sum "Si O2"
_cell_formula_units_Z 58
_cell_length_a 26.958860
_cell_length_b 11.220337
_cell_length_c 8.673699
_cell_angle_alpha 90.000000
_cell_angle_beta 90.000000
_cell_angle_gamma 90.000000
_cell_volume 2623.685477
_symmetry_space_group_name_H-M "C 2 2 2"
_symmetry_group_IT_number 21
_symmetry_cell_setting 'orthorhombic'
loop_
_space_group_symop_operation_xyz
x,y,z
-x,-y,z
x,-y,-z
-x,y,-z
1/2+x,1/2+y,z
1/2-x,1/2-y,z
1/2+x,1/2-y,-z
1/2-x,1/2+y,-z
loop_
_atom_site_type_symbol
_atom_site_label
_atom_site_fract_x
_atom_site_fract_y
_atom_site_fract_z
Si Si1 0.000000 0.000000 0.500000
Si Si2 0.405524 0.427439 0.315043
Si Si3 0.229839 0.386751 0.583368
Si Si4 0.056384 0.839422 0.987561
Si Si5 0.892947 0.607701 0.107574
Si Si6 0.199901 0.312814 0.901260
Si Si7 0.883777 0.187745 0.288427
Si Si8 0.871486 0.677214 0.425686
O O1 0.039301 0.074043 0.394656
O O2 0.381573 0.554781 0.355617
O O3 0.373166 0.310210 0.350513
O O4 0.414887 0.424089 0.131424
O O5 0.256468 0.500000 0.500000
O O6 0.250000 0.250000 0.578216
O O7 0.217198 0.405868 0.766286
O O8 0.180835 0.370784 0.480594
O O9 0.075658 0.821621 0.158410
O O10 0.067052 0.711332 0.911844
O O11 0.000000 0.871688 0.000000
O O12 0.889343 0.589948 0.290920
O O13 0.908393 0.500000 0.000000
O O14 0.838860 0.645063 0.032822
O O15 0.250000 0.250000 0.961040
O O16 0.166760 0.221816 0.798597
O O17 0.897479 0.288390 0.412808
#
# Coordination Sequence:
#
# PCOD9322978 Si02
#       8
#     2   8   8   8   8   8   8   8
#     4  12  20  32  58  88 130 172 218 276 346 408
#     4  11  21  34  56  89 124 168 207 266 335 402
#     4  10  21  37  60  89 119 162 211 263 325 401
#     4  10  22  37  57  85 118 164 213 265 331 410
#     4  10  21  39  59  81 115 156 210 268 331 400
#     4   9  20  37  58  83 117 160 204 260 324 400
#     4  10  19  37  57  86 127 162 207 262 332 402
#     4  10  21  36  57  86 118 160 204 261 327 393
#
# _framework density 22.106307000000001
#
# number of rings (size 3 to 8) (size 9 to 14) (size 15 to 20)
#    0.000    1.931    1.379    2.069    0.000    4.690 
#    0.000    4.138    0.000    0.000    0.000    3.862 
#    0.000    0.000    0.000    0.000    0.000    0.000 
#
# Total GULP energy -161494.182791 kJ/mol
# GULP energy per Si atom -5568.764924 kJ/mol
# Density = 2.205599 g / cm^3
# Si number density = 22.106307 Si / 1000 Ang^3
#
#
#
# Elastic Constant Matrix: (Units=GPa)
#
#
# Indices 1 2 3 4 5 6 
#
# 1 47.3262 17.4338 11.9690 0.0000 0.0000 0.0000
# 2 17.4338 74.7142 19.1634 0.0000 0.0000 0.0000
# 3 11.9690 19.1634 113.9334 0.0000 0.0000 0.0000
# 4 0.0000 0.0000 0.0000 34.6529 0.0000 0.0000
# 5 0.0000 0.0000 0.0000 0.0000 14.1011 0.0000
# 6 0.0000 0.0000 0.0000 0.0000 0.0000 -6.1900
#
#
#
# Elastic Compliance Matrix: (Units=1/GPa)
#
#
# Indices 1 2 3 4 5 6 
#
# 1 0.023396 -0.005046 -0.001609 0.000000 0.000000 0.000000
# 2 -0.005046 0.015076 -0.002006 0.000000 0.000000 0.000000
# 3 -0.001609 -0.002006 0.009283 0.000000 0.000000 0.000000
# 4 0.000000 0.000000 0.000000 0.028858 0.000000 0.000000
# 5 0.000000 0.000000 0.000000 0.000000 0.070917 0.000000
# 6 0.000000 0.000000 0.000000 0.000000 0.000000 -0.161551
#
#
# Mechanical properties :
#
#
# Convention : Reuss Voigt Hill
#
# Bulk Modulus (GPa) = 32.85871 37.01178 34.93524
# Shear Modulus (GPa) = 371.86591 21.00665 196.43628
#
# Velocity S-wave (km/s) = 12.98392 3.08597 9.43678
# Velocity P-wave (km/s) = 15.48136 5.42923 11.60063
#
# Compressibility (1/GPa) = 0.03043333
#
# Stress axis : x y z
#
# Youngs Moduli (GPa) = 42.74266 66.32921 107.71880
#
# Poissons Ratio (x) = 0.33473 0.17332
# Poissons Ratio (y) = 0.21570 0.21605
# Poissons Ratio (z) = 0.06877 0.13303
#
# Static dielectric constant tensor:
#      x y z
#    x 1.929290 0.000000 0.000000 
#    y 0.000000 1.913610 0.000000 
#    z 0.000000 0.000000 1.979270 
# 
# From -- ./inp_files/19785.got.cif
#   From: 2010.05.17/outbox.cif.g08.bks.cpg/sg21_10_cif.got.tgz:19785.got - 2010.06.03 23:14:55.
