data_PCOD9322898
_publ_section_title
;
Structure prediction by ZEFSAII (Michael W. Deem and Ramdas Pophale) SiO2 
 PCOD9322898
Probable space group: C 2 2 2
;
_chemical_formula_sum "Si O2"
_cell_formula_units_Z 48
_cell_length_a 8.519182
_cell_length_b 18.446231
_cell_length_c 14.420934
_cell_angle_alpha 90.000000
_cell_angle_beta 90.000000
_cell_angle_gamma 90.000000
_cell_volume 2266.203618
_symmetry_space_group_name_H-M "C 2 2 2"
_symmetry_group_IT_number 21
_symmetry_cell_setting 'orthorhombic'
loop_
_space_group_symop_operation_xyz
x,y,z
-x,-y,z
x,-y,-z
-x,y,-z
1/2+x,1/2+y,z
1/2-x,1/2-y,z
1/2+x,1/2-y,-z
1/2-x,1/2+y,-z
loop_
_atom_site_type_symbol
_atom_site_label
_atom_site_fract_x
_atom_site_fract_y
_atom_site_fract_z
Si Si1 0.336300 0.631936 0.118005
Si Si2 0.612467 0.693873 0.413834
Si Si3 0.173431 0.514535 0.888901
Si Si4 0.297915 0.668355 0.910282
Si Si5 0.192906 0.172814 0.683302
Si Si6 0.822012 0.415453 0.480358
O O1 0.303236 0.546265 0.135416
O O2 0.518303 0.652986 0.106917
O O3 0.266018 0.667579 0.209434
O O4 0.262872 0.658601 0.020974
O O5 0.500000 0.718296 0.500000
O O6 0.750000 0.750000 0.390707
O O7 0.494318 0.673957 0.331718
O O8 0.701677 0.624005 0.451730
O O9 0.214301 0.597696 0.867273
O O10 0.000000 0.500000 0.849857
O O11 0.164444 0.500000 0.000000
O O12 0.250000 0.750000 0.882534
O O13 0.250000 0.250000 0.645462
O O14 0.270178 0.110024 0.621903
O O15 0.813330 0.500000 0.500000
O O16 0.000000 0.391702 0.500000
#
# Coordination Sequence:
#
# PCOD9322898 Si02
#       6
#     8   8   8   8   8   8
#     4  10  22  40  60  93 131 170 215 267 319 382
#     4  10  19  35  60  87 114 156 196 245 304 377
#     4   9  19  38  62  87 119 165 212 258 318 382
#     4  10  21  39  65  91 126 177 222 264 321 386
#     4  11  23  38  61  93 124 157 203 264 313 368
#     4  10  21  41  63  86 119 160 205 247 314 389
#
# _framework density 21.180797999999999
#
# number of rings (size 3 to 8) (size 9 to 14) (size 15 to 20)
#    0.000    2.000    0.000    4.500    0.000   12.333 
#    9.000    0.000    0.000    0.000    0.000    0.000 
#    0.000    0.000    0.000    0.000    0.000    0.000 
#
# Total GULP energy -133882.634045 kJ/mol
# GULP energy per Si atom -5578.443085 kJ/mol
# Density = 2.113259 g / cm^3
# Si number density = 21.180798 Si / 1000 Ang^3
#
#
#
# Elastic Constant Matrix: (Units=GPa)
#
#
# Indices 1 2 3 4 5 6 
#
# 1 100.4725 58.5398 0.6466 0.0000 0.0000 0.0000
# 2 58.5398 174.8629 9.3302 0.0000 0.0000 0.0000
# 3 0.6466 9.3302 45.5536 0.0000 0.0000 0.0000
# 4 0.0000 0.0000 0.0000 -0.3635 0.0000 0.0000
# 5 0.0000 0.0000 0.0000 0.0000 0.7029 0.0000
# 6 0.0000 0.0000 0.0000 0.0000 0.0000 37.1409
#
#
#
# Elastic Compliance Matrix: (Units=1/GPa)
#
#
# Indices 1 2 3 4 5 6 
#
# 1 0.012386 -0.004183 0.000681 0.000000 0.000000 0.000000
# 2 -0.004183 0.007194 -0.001414 0.000000 0.000000 0.000000
# 3 0.000681 -0.001414 0.022232 0.000000 0.000000 0.000000
# 4 0.000000 0.000000 0.000000 -2.751013 0.000000 0.000000
# 5 0.000000 0.000000 0.000000 0.000000 1.422583 0.000000
# 6 0.000000 0.000000 0.000000 0.000000 0.000000 0.026924
#
#
# Mechanical properties :
#
#
# Convention : Reuss Voigt Hill
#
# Bulk Modulus (GPa) = 31.26933 50.88024 41.07478
# Shear Modulus (GPa) = -4.03486 24.32090 10.14302
#
# Velocity S-wave (km/s) = -1.38170 3.39226 2.19070
# Velocity P-wave (km/s) = 3.49995 6.27832 5.08266
#
# Compressibility (1/GPa) = 0.03198022
#
# Stress axis : x y z
#
# Youngs Moduli (GPa) = 80.73863 138.99509 44.97992
#
# Poissons Ratio (x) = 0.58138 -0.03063
# Poissons Ratio (y) = 0.33771 0.06361
# Poissons Ratio (z) = -0.05498 0.19657
#
# Static dielectric constant tensor:
#      x y z
#    x 2.705270 0.000000 0.000000 
#    y 0.000000 1.775880 0.000000 
#    z 0.000000 0.000000 1.781060 
# 
# From -- ./inp_files/30496.got.cif
#   From: 2010.05.17/outbox.cif.g08.bks.cpg/sg21_16_cif.got.tgz:30496.got - 2010.06.03 23:14:55.
