data_PCOD9322182
_publ_section_title
;
Structure prediction by ZEFSAII (Michael W. Deem and Ramdas Pophale) SiO2 
 PCOD9322182
Probable space group: C 2 2 21
;
_chemical_formula_sum "Si O2"
_cell_formula_units_Z 32
_cell_length_a 12.000000
_cell_length_b 15.000000
_cell_length_c 18.000000
_cell_angle_alpha 90.000000
_cell_angle_beta 90.000000
_cell_angle_gamma 90.000000
_cell_volume 3240.000000
_symmetry_space_group_name_H-M "C 2 2 21"
_symmetry_group_IT_number 20
_symmetry_cell_setting 'orthorhombic'
loop_
_space_group_symop_operation_xyz
x,y,z
-x,-y,1/2+z
x,-y,-z
-x,y,1/2-z
1/2+x,1/2+y,z
1/2-x,1/2-y,1/2+z
1/2+x,1/2-y,-z
1/2-x,1/2+y,1/2-z
loop_
_atom_site_type_symbol
_atom_site_label
_atom_site_fract_x
_atom_site_fract_y
_atom_site_fract_z
Si Si1 0.615334 0.393619 0.648345
Si Si2 0.827204 0.288595 0.909371
Si Si3 0.761365 0.567761 0.801898
Si Si4 0.855309 0.298231 0.079817
Si Si5 0.062409 0.564866 0.930274
Si Si6 0.796324 0.907851 0.129426
Si Si7 0.644366 0.604001 0.181076
Si Si8 0.536123 0.930052 0.673732
O O1 0.643449 0.306524 0.600148
O O2 0.647147 0.493709 0.620113
O O3 0.483742 0.383760 0.662037
O O4 0.667427 0.383863 0.730988
O O5 0.856156 0.186048 0.889655
O O6 0.721151 0.327417 0.864096
O O7 0.924559 0.355580 0.883300
O O8 0.808518 0.303376 0.996611
O O9 0.786392 0.649147 0.856929
O O10 0.736764 0.595972 0.717272
O O11 0.667180 0.501059 0.832781
O O12 0.865627 0.499607 0.806515
O O13 0.973730 0.353953 0.077086
O O14 0.188366 0.597548 0.924184
O O15 0.053615 0.495524 0.861780
O O16 0.038675 0.500000 0.000000
O O17 0.500000 0.885878 0.750000
#
# Coordination Sequence:
#
# PCOD9322182 Si02
#       8
#     8   8   8   8   8   8   8   8
#     4  10  22  42  62  90 122 164 210 252 302 376
#     4  11  23  39  60  93 126 163 203 254 313 371
#     4   9  20  38  66  92 115 158 213 255 307 365
#     4  11  23  38  62  93 123 158 207 251 311 372
#     4  11  22  39  63  91 123 157 201 259 312 363
#     4  11  23  40  62  90 125 162 205 253 310 365
#     4   9  20  42  67  84 121 162 207 257 304 368
#     4  10  19  39  62  91 119 155 205 258 305 361
#
# _framework density 9.8765429999999999
#
# number of rings (size 3 to 8) (size 9 to 14) (size 15 to 20)
#    0.000    1.750    2.500    1.500    1.750    1.000 
#    4.500    3.750    0.000    0.000    0.000    0.000 
#    0.000    0.000    0.000    0.000    0.000    0.000 
#
# Total GULP energy -178372.062608 kJ/mol
# GULP energy per Si atom -5574.126957 kJ/mol
# Density = 0.985406 g / cm^3
# Si number density = 9.876543 Si / 1000 Ang^3
#
#
#
# Elastic Constant Matrix: (Units=GPa)
#
#
# Indices 1 2 3 4 5 6 
#
# 1 17.6542 9.9900 7.6382 0.0000 0.0000 0.0000
# 2 9.9900 128.4932 37.0352 0.0000 0.0000 0.0000
# 3 7.6382 37.0352 72.8487 0.0000 0.0000 0.0000
# 4 0.0000 0.0000 0.0000 35.5179 0.0000 0.0000
# 5 0.0000 0.0000 0.0000 0.0000 18.3865 0.0000
# 6 0.0000 0.0000 0.0000 0.0000 0.0000 18.3861
#
#
#
# Elastic Compliance Matrix: (Units=1/GPa)
#
#
# Indices 1 2 3 4 5 6 
#
# 1 0.060557 -0.003372 -0.004635 0.000000 0.000000 0.000000
# 2 -0.003372 0.009306 -0.004378 0.000000 0.000000 0.000000
# 3 -0.004635 -0.004378 0.016439 0.000000 0.000000 0.000000
# 4 0.000000 0.000000 0.000000 0.028155 0.000000 0.000000
# 5 0.000000 0.000000 0.000000 0.000000 0.054388 0.000000
# 6 0.000000 0.000000 0.000000 0.000000 0.000000 0.054389
#
#
# Mechanical properties :
#
#
# Convention : Reuss Voigt Hill
#
# Bulk Modulus (GPa) = 16.25158 36.48032 26.36595
# Shear Modulus (GPa) = 18.62098 25.41363 22.01730
#
# Velocity S-wave (km/s) = 3.07365 3.59076 3.34222
# Velocity P-wave (km/s) = 4.56527 5.97492 5.31702
#
# Compressibility (1/GPa) = 0.06153248
#
# Stress axis : x y z
#
# Youngs Moduli (GPa) = 16.51329 107.45227 60.83243
#
# Poissons Ratio (x) = 0.36235 0.28196
# Poissons Ratio (y) = 0.05569 0.26631
# Poissons Ratio (z) = 0.07654 0.47039
#
# Static dielectric constant tensor:
#      x y z
#    x 1.753890 0.000000 0.000000 
#    y 0.000000 1.684040 0.000000 
#    z 0.000000 0.000000 1.704640 
# 
# From -- ./inp_files/24455.got.cif
#   From: 2010.05.17/outbox.ucp.g08.bks.cvg/sg20_13_cif.got.tgz:24455.got - 2010.06.11 15:13:06.
