data_PCOD9322106
_publ_section_title
;
Structure prediction by ZEFSAII (Michael W. Deem and Ramdas Pophale) SiO2 
 PCOD9322106
Probable space group: C 2 2 21
;
_chemical_formula_sum "Si O2"
_cell_formula_units_Z 32
_cell_length_a 5.001139
_cell_length_b 29.620288
_cell_length_c 8.642876
_cell_angle_alpha 90.000000
_cell_angle_beta 90.000000
_cell_angle_gamma 90.000000
_cell_volume 1280.313970
_symmetry_space_group_name_H-M "C 2 2 21"
_symmetry_group_IT_number 20
_symmetry_cell_setting 'orthorhombic'
loop_
_space_group_symop_operation_xyz
x,y,z
-x,-y,1/2+z
x,-y,-z
-x,y,1/2-z
1/2+x,1/2+y,z
1/2-x,1/2-y,1/2+z
1/2+x,1/2-y,-z
1/2-x,1/2+y,1/2-z
loop_
_atom_site_type_symbol
_atom_site_label
_atom_site_fract_x
_atom_site_fract_y
_atom_site_fract_z
Si Si1 0.746067 0.410939 0.143942
Si Si2 0.892217 0.727330 0.572497
Si Si3 0.413809 0.862012 0.577765
Si Si4 0.392342 0.541576 0.079869
O O1 0.500000 0.397523 0.250000
O O2 0.000000 0.421896 0.250000
O O3 0.638068 0.450557 0.036760
O O4 0.829848 0.372020 0.027560
O O5 0.146931 0.739136 0.463433
O O6 0.000000 0.727133 0.750000
O O7 0.779867 0.679091 0.512314
O O8 0.500000 0.850084 0.750000
O O9 0.261206 0.910338 0.585270
O O10 0.500000 0.531724 0.250000
O O11 0.238041 0.500000 0.000000
#
# Coordination Sequence:
#
# PCOD9322106 Si02
#       4
#     8   8   8   8
#     4  12  26  48  78 114 153 207 264 328 394 469
#     4  12  29  53  86 123 162 209 264 331 402 483
#     4  12  27  51  84 117 164 211 271 330 405 476
#     4  12  28  52  80 119 161 216 275 336 397 475
#
# _framework density 24.993867999999999
#
# number of rings (size 3 to 8) (size 9 to 14) (size 15 to 20)
#    0.000    0.000    5.000    3.750    3.500    2.000 
#    4.500    0.000    0.000    0.000    0.000    0.000 
#    0.000    0.000    0.000    0.000    0.000    0.000 
#
# Total GULP energy -89600.303523 kJ/mol
# GULP energy per Si atom -5600.018970 kJ/mol
# Density = 2.493698 g / cm^3
# Si number density = 24.993868 Si / 1000 Ang^3
#
#
#
# Elastic Constant Matrix: (Units=GPa)
#
#
# Indices 1 2 3 4 5 6 
#
# 1 121.8641 26.8482 54.5644 0.0000 0.0000 0.0000
# 2 26.8482 141.9283 54.9369 0.0000 0.0000 0.0000
# 3 54.5644 54.9369 212.1879 0.0000 0.0000 0.0000
# 4 0.0000 0.0000 0.0000 41.1323 0.0000 0.0000
# 5 0.0000 0.0000 0.0000 0.0000 20.7639 0.0000
# 6 0.0000 0.0000 0.0000 0.0000 0.0000 40.3090
#
#
#
# Elastic Compliance Matrix: (Units=1/GPa)
#
#
# Indices 1 2 3 4 5 6 
#
# 1 0.009384 -0.000935 -0.002171 0.000000 0.000000 0.000000
# 2 -0.000935 0.007924 -0.001811 0.000000 0.000000 0.000000
# 3 -0.002171 -0.001811 0.005740 0.000000 0.000000 0.000000
# 4 0.000000 0.000000 0.000000 0.024312 0.000000 0.000000
# 5 0.000000 0.000000 0.000000 0.000000 0.048161 0.000000
# 6 0.000000 0.000000 0.000000 0.000000 0.000000 0.024808
#
#
# Mechanical properties :
#
#
# Convention : Reuss Voigt Hill
#
# Bulk Modulus (GPa) = 75.67911 83.18659 79.43285
# Shear Modulus (GPa) = 37.15628 43.08309 40.11968
#
# Velocity S-wave (km/s) = 3.85985 4.15631 4.01082
# Velocity P-wave (km/s) = 7.08586 7.50921 7.30060
#
# Compressibility (1/GPa) = 0.01321369
#
# Stress axis : x y z
#
# Youngs Moduli (GPa) = 106.56561 126.20402 174.21584
#
# Poissons Ratio (x) = 0.11797 0.37823
# Poissons Ratio (y) = 0.09961 0.31553
# Poissons Ratio (z) = 0.23136 0.22857
#
# Static dielectric constant tensor:
#      x y z
#    x 2.139540 0.000000 0.000000 
#    y 0.000000 2.112670 0.000000 
#    z 0.000000 0.000000 1.934130 
# 
# From -- ./inp_files/5235.got.cif
#   From: 2010.05.17/outbox.cif.g08.bks.cpg/sg20_3_cif.got.tgz:5235.got - 2010.06.03 22:52:26.
