data_PCOD9322595
_publ_section_title
;
Structure prediction by ZEFSAII (Michael W. Deem and Ramdas Pophale) SiO2 
 PCOD9322595
Probable space group: C 2 2 2
;
_chemical_formula_sum "Si O2"
_cell_formula_units_Z 56
_cell_length_a 16.224346
_cell_length_b 19.129344
_cell_length_c 9.841881
_cell_angle_alpha 90.000000
_cell_angle_beta 90.000000
_cell_angle_gamma 90.000000
_cell_volume 3054.536972
_symmetry_space_group_name_H-M "C 2 2 2"
_symmetry_group_IT_number 21
_symmetry_cell_setting 'orthorhombic'
loop_
_space_group_symop_operation_xyz
x,y,z
-x,-y,z
x,-y,-z
-x,y,-z
1/2+x,1/2+y,z
1/2-x,1/2-y,z
1/2+x,1/2-y,-z
1/2-x,1/2+y,-z
loop_
_atom_site_type_symbol
_atom_site_label
_atom_site_fract_x
_atom_site_fract_y
_atom_site_fract_z
Si Si1 0.011802 0.788853 0.661289
Si Si2 0.233124 0.069536 0.573031
Si Si3 0.952963 0.935629 0.646904
Si Si4 0.682520 0.094496 0.867559
Si Si5 0.842294 0.570772 0.825779
Si Si6 0.703550 0.323746 0.670469
Si Si7 0.995205 0.345028 0.840137
O O1 0.107256 0.807990 0.685118
O O2 0.987031 0.721294 0.746510
O O3 0.000000 0.775851 0.500000
O O4 0.962028 0.858175 0.704985
O O5 0.142752 0.047998 0.628132
O O6 0.290873 0.093977 0.695199
O O7 0.218854 0.130415 0.464221
O O8 0.268262 0.000000 0.500000
O O9 0.000000 0.929700 0.500000
O O10 0.000000 0.000000 0.717558
O O11 0.758420 0.130202 0.791926
O O12 0.597963 0.129755 0.815999
O O13 0.671978 0.012361 0.836888
O O14 0.687673 0.102111 0.030393
O O15 0.937513 0.594211 0.814694
O O16 0.750000 0.250000 0.663514
O O17 0.000000 0.326846 0.000000
#
# Coordination Sequence:
#
# PCOD9322595 Si02
#       7
#     8   8   8   8   8   8   8
#     4  11  22  39  60  88 120 159 206 249 304 372
#     4  12  21  37  61  94 122 154 206 260 311 363
#     4  10  18  35  59  82 111 158 201 236 301 368
#     4  10  21  43  63  89 121 164 212 246 310 372
#     4  10  23  38  66  93 121 160 205 265 301 363
#     4  12  23  38  62  90 125 163 199 252 313 372
#     4  10  22  42  62  85 122 166 205 246 309 374
#
# _framework density 18.333383000000001
#
# number of rings (size 3 to 8) (size 9 to 14) (size 15 to 20)
#    0.000    1.286    7.143    0.429    2.000    1.714 
#    2.571    0.714    0.000    0.429    0.000    0.000 
#    0.000    0.000    0.000    0.000    0.000    0.000 
#
# Total GULP energy -156252.887645 kJ/mol
# GULP energy per Si atom -5580.460273 kJ/mol
# Density = 1.829166 g / cm^3
# Si number density = 18.333383 Si / 1000 Ang^3
#
#
#
# Elastic Constant Matrix: (Units=GPa)
#
#
# Indices 1 2 3 4 5 6 
#
# 1 76.9503 3.5641 34.8758 0.0000 0.0000 0.0000
# 2 3.5641 88.4605 23.5965 0.0000 0.0000 0.0000
# 3 34.8758 23.5965 52.1863 0.0000 0.0000 0.0000
# 4 0.0000 0.0000 0.0000 18.9453 0.0000 0.0000
# 5 0.0000 0.0000 0.0000 0.0000 16.7620 0.0000
# 6 0.0000 0.0000 0.0000 0.0000 0.0000 20.5464
#
#
#
# Elastic Compliance Matrix: (Units=1/GPa)
#
#
# Indices 1 2 3 4 5 6 
#
# 1 0.019332 0.003033 -0.014291 0.000000 0.000000 0.000000
# 2 0.003033 0.013331 -0.008055 0.000000 0.000000 0.000000
# 3 -0.014291 -0.008055 0.032355 0.000000 0.000000 0.000000
# 4 0.000000 0.000000 0.000000 0.052783 0.000000 0.000000
# 5 0.000000 0.000000 0.000000 0.000000 0.059659 0.000000
# 6 0.000000 0.000000 0.000000 0.000000 0.000000 0.048670
#
#
# Mechanical properties :
#
#
# Convention : Reuss Voigt Hill
#
# Bulk Modulus (GPa) = 37.88948 37.96331 37.92640
# Shear Modulus (GPa) = 18.27806 21.62147 19.94977
#
# Velocity S-wave (km/s) = 3.16093 3.43789 3.30231
# Velocity P-wave (km/s) = 5.83385 6.04243 5.93905
#
# Compressibility (1/GPa) = 0.02639255
#
# Stress axis : x y z
#
# Youngs Moduli (GPa) = 51.72798 75.01409 30.90750
#
# Poissons Ratio (x) = -0.22753 0.44169
# Poissons Ratio (y) = -0.15690 0.24895
# Poissons Ratio (z) = 0.73924 0.60421
#
# Static dielectric constant tensor:
#      x y z
#    x 1.625930 0.000000 0.000000 
#    y 0.000000 1.657720 0.000000 
#    z 0.000000 0.000000 1.631400 
# 
# From -- ./inp_files/15284.got.cif
#   From: 2010.05.17/outbox.cif.g08.bks.cpg/sg21_8_cif.got.tgz:15284.got - 2010.06.03 23:14:55.
