data_PCOD9322284
_publ_section_title
;
Structure prediction by ZEFSAII (Michael W. Deem and Ramdas Pophale) SiO2 
 PCOD9322284
Probable space group: C 2 2 2
;
_chemical_formula_sum "Si O2"
_cell_formula_units_Z 56
_cell_length_a 19.028650
_cell_length_b 5.698094
_cell_length_c 25.872426
_cell_angle_alpha 90.000000
_cell_angle_beta 90.000000
_cell_angle_gamma 90.000000
_cell_volume 2805.270475
_symmetry_space_group_name_H-M "C 2 2 2"
_symmetry_group_IT_number 21
_symmetry_cell_setting 'orthorhombic'
loop_
_space_group_symop_operation_xyz
x,y,z
-x,-y,z
x,-y,-z
-x,y,-z
1/2+x,1/2+y,z
1/2-x,1/2-y,z
1/2+x,1/2-y,-z
1/2-x,1/2+y,-z
loop_
_atom_site_type_symbol
_atom_site_label
_atom_site_fract_x
_atom_site_fract_y
_atom_site_fract_z
Si Si1 0.678577 0.881566 0.142358
Si Si2 0.822739 0.326803 0.039912
Si Si3 0.081116 0.251289 0.480121
Si Si4 0.922536 0.990885 0.900519
Si Si5 0.581638 0.241143 0.643523
Si Si6 0.929439 0.657227 0.800302
Si Si7 0.420167 0.263572 0.683097
O O1 0.750000 0.750000 0.156464
O O2 0.615887 0.720762 0.120071
O O3 0.696746 0.047122 0.093856
O O4 0.641896 0.011785 0.189820
O O5 0.750000 0.250000 0.014119
O O6 0.871355 0.117722 0.057337
O O7 0.859708 0.500000 0.000000
O O8 0.112146 0.500000 0.500000
O O9 0.082789 0.259917 0.418312
O O10 0.000000 0.251131 0.500000
O O11 0.110873 0.000000 0.500000
O O12 0.931347 0.827265 0.849694
O O13 0.000000 0.000000 0.922926
O O14 0.500050 0.251964 0.661524
O O15 0.612494 0.492245 0.662461
O O16 0.610280 0.992292 0.666007
O O17 0.924731 0.778488 0.744975
O O18 0.000000 0.500000 0.800353
#
# Coordination Sequence:
#
# PCOD9322284 Si02
#       7
#     8   8   8   8   8   8   8
#     4  11  23  42  63  90 118 150 198 241 296 365
#     4  11  24  42  69  92 114 156 199 234 296 370
#     4  10  16  24  37  55  88 138 192 248 295 351
#     4  11  24  40  66  89 124 152 190 248 298 350
#     4  10  18  27  42  66 101 138 198 261 291 355
#     4  11  22  35  59  86 112 156 195 249 301 354
#     4  10  19  29  45  71 103 139 194 250 298 345
#
# _framework density 19.962426000000001
#
# number of rings (size 3 to 8) (size 9 to 14) (size 15 to 20)
#    0.000    1.429    4.286    4.714    4.000    0.000 
#    0.000    2.143    0.000    0.000    0.000    0.000 
#    0.000    0.000    0.000    0.000    0.000    8.571 
#
# Total GULP energy -156189.936209 kJ/mol
# GULP energy per Si atom -5578.212007 kJ/mol
# Density = 1.991699 g / cm^3
# Si number density = 19.962426 Si / 1000 Ang^3
#
#
#
# Elastic Constant Matrix: (Units=GPa)
#
#
# Indices 1 2 3 4 5 6 
#
# 1 58.6384 7.1166 -0.9710 0.0000 0.0000 0.0000
# 2 7.1166 125.4943 23.7443 0.0000 0.0000 0.0000
# 3 -0.9710 23.7443 108.5081 0.0000 0.0000 0.0000
# 4 0.0000 0.0000 0.0000 31.8007 0.0000 0.0000
# 5 0.0000 0.0000 0.0000 0.0000 0.8048 0.0000
# 6 0.0000 0.0000 0.0000 0.0000 0.0000 16.3914
#
#
#
# Elastic Compliance Matrix: (Units=1/GPa)
#
#
# Indices 1 2 3 4 5 6 
#
# 1 0.017187 -0.001047 0.000383 0.000000 0.000000 0.000000
# 2 -0.001047 0.008376 -0.001842 0.000000 0.000000 0.000000
# 3 0.000383 -0.001842 0.009622 0.000000 0.000000 0.000000
# 4 0.000000 0.000000 0.000000 0.031446 0.000000 0.000000
# 5 0.000000 0.000000 0.000000 0.000000 1.242558 0.000000
# 6 0.000000 0.000000 0.000000 0.000000 0.000000 0.061008
#
#
# Mechanical properties :
#
#
# Convention : Reuss Voigt Hill
#
# Bulk Modulus (GPa) = 33.14222 39.15784 36.15003
# Shear Modulus (GPa) = 3.60941 27.31610 15.46276
#
# Velocity S-wave (km/s) = 1.34612 3.70317 2.78617
# Velocity P-wave (km/s) = 4.36513 6.15979 5.33842
#
# Compressibility (1/GPa) = 0.03017299
#
# Stress axis : x y z
#
# Youngs Moduli (GPa) = 58.18318 119.38229 103.92330
#
# Poissons Ratio (x) = 0.12501 -0.03980
# Poissons Ratio (y) = 0.06092 0.19146
# Poissons Ratio (z) = -0.02228 0.21994
#
# Static dielectric constant tensor:
#      x y z
#    x 1.639250 0.000000 0.000000 
#    y 0.000000 1.853710 0.000000 
#    z 0.000000 0.000000 1.658490 
# 
# From -- ./inp_files/38869.got.cif
#   From: 2010.05.17/outbox.cif.g08.bks.cpg/sg21_20_cif.got.tgz:38869.got - 2010.06.03 23:14:55.
