data_PCOD9322488
_publ_section_title
;
Structure prediction by ZEFSAII (Michael W. Deem and Ramdas Pophale) SiO2 
 PCOD9322488
Probable space group: C 2 2 2
;
_chemical_formula_sum "Si O2"
_cell_formula_units_Z 48
_cell_length_a 19.396747
_cell_length_b 8.090302
_cell_length_c 16.006378
_cell_angle_alpha 90.000000
_cell_angle_beta 90.000000
_cell_angle_gamma 90.000000
_cell_volume 2511.809528
_symmetry_space_group_name_H-M "C 2 2 2"
_symmetry_group_IT_number 21
_symmetry_cell_setting 'orthorhombic'
loop_
_space_group_symop_operation_xyz
x,y,z
-x,-y,z
x,-y,-z
-x,y,-z
1/2+x,1/2+y,z
1/2-x,1/2-y,z
1/2+x,1/2-y,-z
1/2-x,1/2+y,-z
loop_
_atom_site_type_symbol
_atom_site_label
_atom_site_fract_x
_atom_site_fract_y
_atom_site_fract_z
Si Si1 0.684272 0.549468 0.092716
Si Si2 0.675019 0.306692 0.351814
Si Si3 0.578516 0.701555 0.497541
Si Si4 0.333817 0.125902 0.160398
Si Si5 0.328753 0.294812 0.339905
Si Si6 0.331596 0.772721 0.162160
O O1 0.648884 0.727995 0.096313
O O2 0.751726 0.582554 0.150503
O O3 0.639268 0.399466 0.128396
O O4 0.706330 0.500000 0.000000
O O5 0.750000 0.250000 0.383303
O O6 0.619704 0.250907 0.419459
O O7 0.669950 0.504376 0.335303
O O8 0.666366 0.223913 0.261981
O O9 0.578149 0.500000 0.500000
O O10 0.500000 0.759188 0.500000
O O11 0.619575 0.752686 0.414441
O O12 0.346099 0.200645 0.252889
O O13 0.363733 0.947071 0.136949
O O14 0.250000 0.250000 0.361236
O O15 0.250000 0.750000 0.137123
#
# Coordination Sequence:
#
# PCOD9322488 Si02
#       6
#     8   8   8   8   8   8
#     4  10  19  28  43  69 104 142 174 216 266 324
#     4  10  18  31  51  75 103 142 186 222 267 325
#     4   9  20  34  52  77 106 142 186 235 275 312
#     4  10  19  29  44  70 102 142 178 210 266 324
#     4  11  17  32  52  74 106 144 185 224 264 332
#     4   9  17  29  44  66 101 137 173 215 257 316
#
# _framework density 19.109728
#
# number of rings (size 3 to 8) (size 9 to 14) (size 15 to 20)
#    0.000    2.167    3.333    2.500    7.000    0.000 
#    0.000    2.500    0.000    8.000    0.000    0.000 
#    0.000    2.667    5.667    0.500    0.000    0.000 
#
# Total GULP energy -133607.522256 kJ/mol
# GULP energy per Si atom -5566.980094 kJ/mol
# Density = 1.906623 g / cm^3
# Si number density = 19.109728 Si / 1000 Ang^3
#
#
#
# Elastic Constant Matrix: (Units=GPa)
#
#
# Indices 1 2 3 4 5 6 
#
# 1 38.8853 5.3620 21.2633 0.0000 0.0000 0.0000
# 2 5.3620 140.9466 20.9619 0.0000 0.0000 0.0000
# 3 21.2633 20.9619 80.8443 0.0000 0.0000 0.0000
# 4 0.0000 0.0000 0.0000 18.6246 0.0000 0.0000
# 5 0.0000 0.0000 0.0000 0.0000 -3.2738 0.0000
# 6 0.0000 0.0000 0.0000 0.0000 0.0000 8.8125
#
#
#
# Elastic Compliance Matrix: (Units=1/GPa)
#
#
# Indices 1 2 3 4 5 6 
#
# 1 0.030037 0.000034 -0.007909 0.000000 0.000000 0.000000
# 2 0.000034 0.007379 -0.001922 0.000000 0.000000 0.000000
# 3 -0.007909 -0.001922 0.014948 0.000000 0.000000 0.000000
# 4 0.000000 0.000000 0.000000 0.053693 0.000000 0.000000
# 5 0.000000 0.000000 0.000000 0.000000 -0.305457 0.000000
# 6 0.000000 0.000000 0.000000 0.000000 0.000000 0.113476
#
#
# Mechanical properties :
#
#
# Convention : Reuss Voigt Hill
#
# Bulk Modulus (GPa) = 30.51645 39.53896 35.02770
# Shear Modulus (GPa) = -90.24192 19.03858 -35.60167
#
# Velocity S-wave (km/s) = -6.87936 3.15981 -4.32095
# Velocity P-wave (km/s) = 6.86272 5.83506 2.55432
#
# Compressibility (1/GPa) = 0.03276921
#
# Stress axis : x y z
#
# Youngs Moduli (GPa) = 33.29253 135.51073 66.89858
#
# Poissons Ratio (x) = -0.00454 0.52909
# Poissons Ratio (y) = -0.00112 0.12859
# Poissons Ratio (z) = 0.26330 0.26048
#
# Static dielectric constant tensor:
#      x y z
#    x 1.637110 0.000000 0.000000 
#    y 0.000000 1.822450 0.000000 
#    z 0.000000 0.000000 1.669870 
# 
# From -- ./inp_files/33166.got.cif
#   From: 2010.05.17/outbox.cif.g08.bks.cpg/sg21_17_cif.got.tgz:33166.got - 2010.06.03 23:14:55.
