data_PCOD9322745
_publ_section_title
;
Structure prediction by ZEFSAII (Michael W. Deem and Ramdas Pophale) SiO2 
 PCOD9322745
Probable space group: C 2 2 2
;
_chemical_formula_sum "Si O2"
_cell_formula_units_Z 56
_cell_length_a 5.185186
_cell_length_b 16.277934
_cell_length_c 34.717734
_cell_angle_alpha 90.000000
_cell_angle_beta 90.000000
_cell_angle_gamma 90.000000
_cell_volume 2930.319630
_symmetry_space_group_name_H-M "C 2 2 2"
_symmetry_group_IT_number 21
_symmetry_cell_setting 'orthorhombic'
loop_
_space_group_symop_operation_xyz
x,y,z
-x,-y,z
x,-y,-z
-x,y,-z
1/2+x,1/2+y,z
1/2-x,1/2-y,z
1/2+x,1/2-y,-z
1/2-x,1/2+y,-z
loop_
_atom_site_type_symbol
_atom_site_label
_atom_site_fract_x
_atom_site_fract_y
_atom_site_fract_z
Si Si1 0.746540 0.057190 0.687350
Si Si2 0.001440 0.598815 0.908757
Si Si3 0.504129 0.806752 0.830880
Si Si4 0.750967 0.348894 0.523219
Si Si5 0.503374 0.807190 0.255342
Si Si6 0.499748 0.399390 0.955653
Si Si7 0.245758 0.056816 0.398885
O O1 0.624956 0.124947 0.716031
O O2 0.796878 0.092194 0.644354
O O3 0.500000 0.000000 0.682390
O O4 0.000000 0.000000 0.698255
O O5 0.248125 0.627621 0.932770
O O6 0.000000 0.500000 0.909119
O O7 0.013021 0.628461 0.865037
O O8 0.748323 0.627240 0.931514
O O9 0.750000 0.750000 0.838586
O O10 0.547544 0.842133 0.787659
O O11 0.250000 0.750000 0.831702
O O12 0.500000 0.377882 0.500000
O O13 0.750000 0.250000 0.522743
O O14 0.760002 0.378191 0.567017
O O15 0.000000 0.378605 0.500000
O O16 0.750000 0.750000 0.250433
O O17 0.250000 0.750000 0.266285
O O18 0.500000 0.500000 0.956316
O O19 0.500000 0.372473 0.000000
O O20 0.500000 0.000000 0.399913
O O21 0.000000 0.000000 0.406457
#
# Coordination Sequence:
#
# PCOD9322745 Si02
#       7
#     8   8   8   8   8   8   8
#     4  10  21  38  58  84 116 145 179 232 286 327
#     4  10  19  32  53  79 101 131 177 217 256 312
#     4  10  21  37  55  76 108 143 173 215 270 321
#     4  10  21  36  53  77 108 141 181 227 270 314
#     4  10  21  38  59  83 109 146 191 224 267 338
#     4   9  17  30  50  76 104 132 168 217 263 305
#     4  10  21  36  55  80 109 142 180 220 272 333
#
# _framework density 19.110544000000001
#
# number of rings (size 3 to 8) (size 9 to 14) (size 15 to 20)
#    0.000    2.143    0.000    3.000    0.000    4.571 
#    0.000    4.286    0.000    8.571    0.000    0.000 
#    0.000    0.000    0.000    0.000    0.000    0.000 
#
# Total GULP energy -156001.851164 kJ/mol
# GULP energy per Si atom -5571.494684 kJ/mol
# Density = 1.906705 g / cm^3
# Si number density = 19.110544 Si / 1000 Ang^3
#
#
#
# Elastic Constant Matrix: (Units=GPa)
#
#
# Indices 1 2 3 4 5 6 
#
# 1 172.5880 31.5040 52.2874 0.0000 0.0000 0.0000
# 2 31.5040 25.3886 53.3136 0.0000 0.0000 0.0000
# 3 52.2874 53.3136 156.7321 0.0000 0.0000 0.0000
# 4 0.0000 0.0000 0.0000 -16.5299 0.0000 0.0000
# 5 0.0000 0.0000 0.0000 0.0000 29.8546 0.0000
# 6 0.0000 0.0000 0.0000 0.0000 0.0000 8.0859
#
#
#
# Elastic Compliance Matrix: (Units=1/GPa)
#
#
# Indices 1 2 3 4 5 6 
#
# 1 0.007740 -0.014638 0.002397 0.000000 0.000000 0.000000
# 2 -0.014638 0.165545 -0.051428 0.000000 0.000000 0.000000
# 3 0.002397 -0.051428 0.023074 0.000000 0.000000 0.000000
# 4 0.000000 0.000000 0.000000 -0.060496 0.000000 0.000000
# 5 0.000000 0.000000 0.000000 0.000000 0.033496 0.000000
# 6 0.000000 0.000000 0.000000 0.000000 0.000000 0.123673
#
#
# Mechanical properties :
#
#
# Convention : Reuss Voigt Hill
#
# Bulk Modulus (GPa) = 14.48824 69.87986 42.18405
# Shear Modulus (GPa) = 11.27714 18.78903 15.03308
#
# Velocity S-wave (km/s) = 2.43183 3.13897 2.80775
# Velocity P-wave (km/s) = 3.93482 7.05571 5.71252
#
# Compressibility (1/GPa) = 0.06902150
#
# Stress axis : x y z
#
# Youngs Moduli (GPa) = 129.20086 6.04067 43.33835
#
# Poissons Ratio (x) = 0.08842 -0.10388
# Poissons Ratio (y) = 1.89120 2.22880
# Poissons Ratio (z) = -0.30969 0.31066
#
# Static dielectric constant tensor:
#      x y z
#    x 1.665670 0.000000 0.000000 
#    y 0.000000 1.692810 0.000000 
#    z 0.000000 0.000000 1.696130 
# 
# From -- ./inp_files/39497.got.cif
#   From: 2010.05.17/outbox.cif.g08.bks.cpg/sg21_20_cif.got.tgz:39497.got - 2010.06.03 23:14:55.
