data_PCOD9322871
_publ_section_title
;
Structure prediction by ZEFSAII (Michael W. Deem and Ramdas Pophale) SiO2 
 PCOD9322871
Probable space group: C 2 2 2
;
_chemical_formula_sum "Si O2"
_cell_formula_units_Z 46
_cell_length_a 14.506066
_cell_length_b 22.792227
_cell_length_c 8.624114
_cell_angle_alpha 90.000000
_cell_angle_beta 90.000000
_cell_angle_gamma 90.000000
_cell_volume 2851.352427
_symmetry_space_group_name_H-M "C 2 2 2"
_symmetry_group_IT_number 21
_symmetry_cell_setting 'orthorhombic'
loop_
_space_group_symop_operation_xyz
x,y,z
-x,-y,z
x,-y,-z
-x,y,-z
1/2+x,1/2+y,z
1/2-x,1/2-y,z
1/2+x,1/2-y,-z
1/2-x,1/2+y,-z
loop_
_atom_site_type_symbol
_atom_site_label
_atom_site_fract_x
_atom_site_fract_y
_atom_site_fract_z
Si Si1 0.359298 0.068051 0.954714
Si Si2 0.500000 0.000000 0.500000
Si Si3 0.419514 0.778813 0.603449
Si Si4 0.737899 0.669258 0.893960
Si Si5 0.464695 0.905191 0.739885
Si Si6 0.605263 0.252699 0.950307
Si Si7 0.750000 0.750000 0.609242
O O1 0.269012 0.102322 0.899831
O O2 0.437575 0.079565 0.823152
O O3 0.395142 0.095493 0.116284
O O4 0.350286 0.000000 0.000000
O O5 0.554341 0.043891 0.614473
O O6 0.500000 0.750453 0.500000
O O7 0.457440 0.842809 0.655712
O O8 0.393392 0.749526 0.765693
O O9 0.330455 0.776418 0.495653
O O10 0.721826 0.697299 0.725230
O O11 0.648191 0.686211 0.991794
O O12 0.825526 0.705433 0.968861
O O13 0.500000 0.242110 0.000000
#
# Coordination Sequence:
#
# PCOD9322871 Si02
#       7
#     8   2   8   8   8   8   4
#     4  11  20  36  53  77 107 150 191 219 262 333
#     4  12  20  34  44  84 112 150 182 212 274 338
#     4  12  21  31  51  77 108 142 178 228 280 323
#     4  10  21  35  53  76 105 144 187 226 271 338
#     4  11  21  31  51  74 113 147 181 217 266 329
#     4  10  19  35  53  73 102 142 181 223 277 328
#     4  10  22  34  48  80 110 144 186 230 282 326
#
# _framework density 16.132695999999999
#
# number of rings (size 3 to 8) (size 9 to 14) (size 15 to 20)
#    0.000    1.391    4.348    5.739    0.000    0.000 
#    0.000    0.000    0.000    0.522    0.000    0.000 
#    0.000    0.000    0.000    0.000    0.000    0.000 
#
# Total GULP energy -128148.620444 kJ/mol
# GULP energy per Si atom -5571.679150 kJ/mol
# Density = 1.609598 g / cm^3
# Si number density = 16.132696 Si / 1000 Ang^3
#
#
#
# Elastic Constant Matrix: (Units=GPa)
#
#
# Indices 1 2 3 4 5 6 
#
# 1 51.1750 17.1741 27.0644 0.0000 0.0000 0.0000
# 2 17.1741 64.4689 28.5825 0.0000 0.0000 0.0000
# 3 27.0644 28.5825 125.0024 0.0000 0.0000 0.0000
# 4 0.0000 0.0000 0.0000 49.0868 0.0000 0.0000
# 5 0.0000 0.0000 0.0000 0.0000 19.2681 0.0000
# 6 0.0000 0.0000 0.0000 0.0000 0.0000 25.0233
#
#
#
# Elastic Compliance Matrix: (Units=1/GPa)
#
#
# Indices 1 2 3 4 5 6 
#
# 1 0.023131 -0.004386 -0.004005 0.000000 0.000000 0.000000
# 2 -0.004386 0.018093 -0.003187 0.000000 0.000000 0.000000
# 3 -0.004005 -0.003187 0.009596 0.000000 0.000000 0.000000
# 4 0.000000 0.000000 0.000000 0.020372 0.000000 0.000000
# 5 0.000000 0.000000 0.000000 0.000000 0.051899 0.000000
# 6 0.000000 0.000000 0.000000 0.000000 0.000000 0.039963
#
#
# Mechanical properties :
#
#
# Convention : Reuss Voigt Hill
#
# Bulk Modulus (GPa) = 36.15044 42.92091 39.53568
# Shear Modulus (GPa) = 25.58435 29.86400 27.72418
#
# Velocity S-wave (km/s) = 3.98662 4.30716 4.14999
# Velocity P-wave (km/s) = 6.60664 7.16926 6.89369
#
# Compressibility (1/GPa) = 0.02766218
#
# Stress axis : x y z
#
# Youngs Moduli (GPa) = 43.23207 55.27015 104.21197
#
# Poissons Ratio (x) = 0.24243 0.41739
# Poissons Ratio (y) = 0.18963 0.33216
# Poissons Ratio (z) = 0.17315 0.17617
#
# Static dielectric constant tensor:
#      x y z
#    x 1.476060 0.000000 0.000000 
#    y 0.000000 1.597040 0.000000 
#    z 0.000000 0.000000 1.567840 
# 
# From -- ./inp_files/15370.got.cif
#   From: 2010.05.17/outbox.cif.g08.bks.cpg/sg21_8_cif.got.tgz:15370.got - 2010.06.03 23:14:55.
