data_PCOD9322069
_publ_section_title
;
Structure prediction by ZEFSAII (Michael W. Deem and Ramdas Pophale) SiO2 
 PCOD9322069
Probable space group: C 2 2 21
;
_chemical_formula_sum "Si O2"
_cell_formula_units_Z 40
_cell_length_a 8.790410
_cell_length_b 20.278396
_cell_length_c 8.560899
_cell_angle_alpha 90.000000
_cell_angle_beta 90.000000
_cell_angle_gamma 90.000000
_cell_volume 1526.026604
_symmetry_space_group_name_H-M "C 2 2 21"
_symmetry_group_IT_number 20
_symmetry_cell_setting 'orthorhombic'
loop_
_space_group_symop_operation_xyz
x,y,z
-x,-y,1/2+z
x,-y,-z
-x,y,1/2-z
1/2+x,1/2+y,z
1/2-x,1/2-y,1/2+z
1/2+x,1/2-y,-z
1/2-x,1/2+y,1/2-z
loop_
_atom_site_type_symbol
_atom_site_label
_atom_site_fract_x
_atom_site_fract_y
_atom_site_fract_z
Si Si1 0.500000 0.267933 0.250000
Si Si2 0.004084 0.292268 0.042881
Si Si3 0.740788 0.887458 0.536694
Si Si4 0.732001 0.380554 0.319254
Si Si5 0.000000 0.460981 0.750000
Si Si6 0.263580 0.000000 0.500000
Si Si7 0.500000 0.664631 0.250000
O O1 0.421769 0.220560 0.375038
O O2 0.623129 0.317726 0.316809
O O3 0.106700 0.346382 0.132421
O O4 0.980604 0.220899 0.117337
O O5 0.835805 0.317822 0.004842
O O6 0.778779 0.910594 0.358824
O O7 0.600549 0.923802 0.620439
O O8 0.871499 0.880134 0.666553
O O9 0.680188 0.432388 0.454062
O O10 0.124871 0.497901 0.851618
#
# Coordination Sequence:
#
# PCOD9322069 Si02
#       7
#     4   8   8   8   4   4   4
#     4  12  29  46  81 117 166 213 264 340 424 492
#     4  12  25  46  77 119 166 208 264 329 412 497
#     4  12  26  47  74 118 160 207 265 332 408 487
#     4  12  27  51  76 119 163 214 273 339 408 493
#     4  12  27  47  80 104 148 206 284 338 394 482
#     4  12  28  50  78 112 154 214 284 344 398 490
#     4  12  26  45  77 119 170 211 252 328 420 488
#
# _framework density 26.211863000000001
#
# number of rings (size 3 to 8) (size 9 to 14) (size 15 to 20)
#    0.000    0.000    6.000    3.000    2.800    1.600 
#    0.000    3.000    0.000    1.200    0.000    0.000 
#    0.000    0.000    0.000    0.000    0.000    0.000 
#
# Total GULP energy -111678.277947 kJ/mol
# GULP energy per Si atom -5583.913897 kJ/mol
# Density = 2.615220 g / cm^3
# Si number density = 26.211863 Si / 1000 Ang^3
#
#
#
# Elastic Constant Matrix: (Units=GPa)
#
#
# Indices 1 2 3 4 5 6 
#
# 1 88.1982 17.4539 25.1537 0.0000 0.0000 0.0000
# 2 17.4539 54.5745 29.3818 0.0000 0.0000 0.0000
# 3 25.1537 29.3818 149.8500 0.0000 0.0000 0.0000
# 4 0.0000 0.0000 0.0000 34.9304 0.0000 0.0000
# 5 0.0000 0.0000 0.0000 0.0000 51.1039 0.0000
# 6 0.0000 0.0000 0.0000 0.0000 0.0000 38.0719
#
#
#
# Elastic Compliance Matrix: (Units=1/GPa)
#
#
# Indices 1 2 3 4 5 6 
#
# 1 0.012382 -0.003176 -0.001456 0.000000 0.000000 0.000000
# 2 -0.003176 0.021301 -0.003643 0.000000 0.000000 0.000000
# 3 -0.001456 -0.003643 0.007632 0.000000 0.000000 0.000000
# 4 0.000000 0.000000 0.000000 0.028628 0.000000 0.000000
# 5 0.000000 0.000000 0.000000 0.000000 0.019568 0.000000
# 6 0.000000 0.000000 0.000000 0.000000 0.000000 0.026266
#
#
# Mechanical properties :
#
#
# Convention : Reuss Voigt Hill
#
# Bulk Modulus (GPa) = 40.38078 48.51128 44.44603
# Shear Modulus (GPa) = 35.56628 39.53010 37.54819
#
# Velocity S-wave (km/s) = 3.68758 3.88764 3.78893
# Velocity P-wave (km/s) = 5.79396 6.22087 6.01120
#
# Compressibility (1/GPa) = 0.02476426
#
# Stress axis : x y z
#
# Youngs Moduli (GPa) = 80.76369 46.94626 131.02621
#
# Poissons Ratio (x) = 0.14911 0.19072
# Poissons Ratio (y) = 0.25652 0.47738
# Poissons Ratio (z) = 0.11756 0.17104
#
# Static dielectric constant tensor:
#      x y z
#    x 2.131500 0.000000 0.000000 
#    y 0.000000 2.061240 0.000000 
#    z 0.000000 0.000000 2.205400 
# 
# From -- ./inp_files/6188.got.cif
#   From: 2010.05.17/outbox.cif.g08.bks.cpg/sg20_4_cif.got.tgz:6188.got - 2010.06.03 22:52:26.
