data_PCOD9322725
_publ_section_title
;
Structure prediction by ZEFSAII (Michael W. Deem and Ramdas Pophale) SiO2 
 PCOD9322725
Probable space group: C 2 2 2
;
_chemical_formula_sum "Si O2"
_cell_formula_units_Z 56
_cell_length_a 7.339980
_cell_length_b 23.226204
_cell_length_c 18.057141
_cell_angle_alpha 90.000000
_cell_angle_beta 90.000000
_cell_angle_gamma 90.000000
_cell_volume 3078.379101
_symmetry_space_group_name_H-M "C 2 2 2"
_symmetry_group_IT_number 21
_symmetry_cell_setting 'orthorhombic'
loop_
_space_group_symop_operation_xyz
x,y,z
-x,-y,z
x,-y,-z
-x,y,-z
1/2+x,1/2+y,z
1/2-x,1/2-y,z
1/2+x,1/2-y,-z
1/2-x,1/2+y,-z
loop_
_atom_site_type_symbol
_atom_site_label
_atom_site_fract_x
_atom_site_fract_y
_atom_site_fract_z
Si Si1 0.494328 0.069416 0.916566
Si Si2 0.782400 0.183468 0.501432
Si Si3 0.710692 0.570615 0.793680
Si Si4 0.297619 0.629427 0.353363
Si Si5 0.789318 0.505201 0.587672
Si Si6 0.795186 0.885135 0.358631
Si Si7 0.227694 0.934522 0.790094
O O1 0.313553 0.084241 0.869847
O O2 0.665668 0.083094 0.863903
O O3 0.500000 0.000000 0.922361
O O4 0.500000 0.092758 0.000000
O O5 0.750000 0.250000 0.517777
O O6 0.715089 0.169519 0.417871
O O7 0.706707 0.145043 0.569559
O O8 0.000000 0.171125 0.500000
O O9 0.769368 0.615405 0.729420
O O10 0.760888 0.503324 0.775366
O O11 0.490873 0.571740 0.797985
O O12 0.283383 0.566580 0.389783
O O13 0.510796 0.645088 0.345870
O O14 0.785339 0.500000 0.500000
O O15 0.678506 0.451655 0.618763
O O16 0.000000 0.500000 0.612020
O O17 0.706809 0.894652 0.278332
#
# Coordination Sequence:
#
# PCOD9322725 Si02
#       7
#     8   8   8   8   8   8   8
#     4   9  18  30  44  65  99 137 161 188 240 300
#     4  10  22  37  50  65  93 134 170 204 247 296
#     4   9  17  28  45  70  96 125 164 203 239 286
#     4  10  19  32  49  66  92 131 166 202 247 289
#     4  11  21  27  41  73  97 118 161 208 250 282
#     4  10  19  32  49  66  92 131 166 202 247 289
#     4   9  17  28  45  70  96 125 164 203 239 286
#
# _framework density 18.191392
#
# number of rings (size 3 to 8) (size 9 to 14) (size 15 to 20)
#    0.000    2.286    2.857    0.429    2.000    2.286 
#    0.000    2.857    0.000    0.000    0.000    0.000 
#    0.000    1.143    0.571    0.000    0.000    0.000 
#
# Total GULP energy -155906.173064 kJ/mol
# GULP energy per Si atom -5568.077609 kJ/mol
# Density = 1.814999 g / cm^3
# Si number density = 18.191392 Si / 1000 Ang^3
#
#
#
# Elastic Constant Matrix: (Units=GPa)
#
#
# Indices 1 2 3 4 5 6 
#
# 1 59.8713 -17.9209 20.1877 0.0000 0.0000 0.0000
# 2 -17.9209 35.1820 16.3097 0.0000 0.0000 0.0000
# 3 20.1877 16.3097 156.6523 0.0000 0.0000 0.0000
# 4 0.0000 0.0000 0.0000 6.9990 0.0000 0.0000
# 5 0.0000 0.0000 0.0000 0.0000 -9.0109 0.0000
# 6 0.0000 0.0000 0.0000 0.0000 0.0000 -10.2822
#
#
#
# Elastic Compliance Matrix: (Units=1/GPa)
#
#
# Indices 1 2 3 4 5 6 
#
# 1 0.022077 0.013201 -0.004219 0.000000 0.000000 0.000000
# 2 0.013201 0.037759 -0.005633 0.000000 0.000000 0.000000
# 3 -0.004219 -0.005633 0.007514 0.000000 0.000000 0.000000
# 4 0.000000 0.000000 0.000000 0.142878 0.000000 0.000000
# 5 0.000000 0.000000 0.000000 0.000000 -0.110977 0.000000
# 6 0.000000 0.000000 0.000000 0.000000 0.000000 -0.097256
#
#
# Mechanical properties :
#
#
# Convention : Reuss Voigt Hill
#
# Bulk Modulus (GPa) = 13.50465 32.09540 22.80002
# Shear Modulus (GPa) = 250.26039 13.08312 131.67176
#
# Velocity S-wave (km/s) = 11.74178 2.68469 8.51695
# Velocity P-wave (km/s) = 13.82988 5.22413 10.45364
#
# Compressibility (1/GPa) = 0.07404859
#
# Stress axis : x y z
#
# Youngs Moduli (GPa) = 45.29656 26.48358 133.08945
#
# Poissons Ratio (x) = -0.34962 0.56157
# Poissons Ratio (y) = -0.59798 0.74963
# Poissons Ratio (z) = 0.19113 0.14917
#
# Static dielectric constant tensor:
#      x y z
#    x 1.703590 0.000000 0.000000 
#    y 0.000000 1.589140 0.000000 
#    z 0.000000 0.000000 1.681040 
# 
# From -- ./inp_files/30753.got.cif
#   From: 2010.05.17/outbox.cif.g08.bks.cpg/sg21_16_cif.got.tgz:30753.got - 2010.06.03 23:14:55.
