data_PCOD9322733
_publ_section_title
;
Structure prediction by ZEFSAII (Michael W. Deem and Ramdas Pophale) SiO2 
 PCOD9322733
Probable space group: C 2 2 2
;
_chemical_formula_sum "Si O2"
_cell_formula_units_Z 64
_cell_length_a 18.393476
_cell_length_b 12.891492
_cell_length_c 11.522975
_cell_angle_alpha 90.000000
_cell_angle_beta 90.000000
_cell_angle_gamma 90.000000
_cell_volume 2732.320327
_symmetry_space_group_name_H-M "C 2 2 2"
_symmetry_group_IT_number 21
_symmetry_cell_setting 'orthorhombic'
loop_
_space_group_symop_operation_xyz
x,y,z
-x,-y,z
x,-y,-z
-x,y,-z
1/2+x,1/2+y,z
1/2-x,1/2-y,z
1/2+x,1/2-y,-z
1/2-x,1/2+y,-z
loop_
_atom_site_type_symbol
_atom_site_label
_atom_site_fract_x
_atom_site_fract_y
_atom_site_fract_z
Si Si1 0.105097 0.621284 0.422683
Si Si2 0.886304 0.597118 0.077703
Si Si3 0.050620 0.617055 0.674299
Si Si4 0.104621 0.873585 0.428499
Si Si5 0.451886 0.368375 0.321005
Si Si6 0.264924 0.628583 0.036145
Si Si7 0.422725 0.342782 0.059873
Si Si8 0.751322 0.123517 0.298654
O O1 0.092674 0.590846 0.556076
O O2 0.034366 0.592768 0.346851
O O3 0.106287 0.747486 0.426193
O O4 0.179070 0.588479 0.363067
O O5 0.911596 0.579889 0.208885
O O6 0.799566 0.598656 0.052473
O O7 0.914390 0.715351 0.052015
O O8 0.913742 0.500000 0.000000
O O9 0.050962 0.742713 0.678346
O O10 0.092048 0.901803 0.563479
O O11 0.178418 0.909618 0.370297
O O12 0.034867 0.899905 0.349217
O O13 0.426208 0.388694 0.190597
O O14 0.250000 0.750000 0.048212
O O15 0.348017 0.616214 0.996509
O O16 0.254660 0.586923 0.166280
O O17 0.500000 0.367670 0.000000
O O18 0.750000 0.250000 0.297875
#
# Coordination Sequence:
#
# PCOD9322733 Si02
#       8
#     8   8   8   8   8   8   8   8
#     4   8  14  25  43  66  91 123 165 215 260 299
#     4  10  21  35  51  73 104 144 180 214 257 313
#     4   8  15  28  45  66  92 126 170 215 253 299
#     4   8  13  22  38  65  96 125 158 203 259 309
#     4   8  14  24  40  65  98 128 160 207 255 304
#     4   9  19  32  47  72 102 133 174 218 259 308
#     4  10  19  32  51  75 105 139 174 216 264 311
#     4   9  15  24  41  65  93 126 165 209 260 313
#
# _framework density 23.423314999999999
#
# number of rings (size 3 to 8) (size 9 to 14) (size 15 to 20)
#    0.000    3.250    0.000    2.250    0.000    7.250 
#    0.000    5.000    0.000    1.125    0.000   21.000 
#    0.000    0.000    0.000    0.125    0.000    0.000 
#
# Total GULP energy -178832.774797 kJ/mol
# GULP energy per Si atom -5588.524212 kJ/mol
# Density = 2.337000 g / cm^3
# Si number density = 23.423315 Si / 1000 Ang^3
#
#
#
# Elastic Constant Matrix: (Units=GPa)
#
#
# Indices 1 2 3 4 5 6 
#
# 1 242.9611 32.8881 168.4637 0.0000 0.0000 0.0000
# 2 32.8881 82.6877 33.8548 0.0000 0.0000 0.0000
# 3 168.4637 33.8548 219.6657 0.0000 0.0000 0.0000
# 4 0.0000 0.0000 0.0000 32.7567 0.0000 0.0000
# 5 0.0000 0.0000 0.0000 0.0000 36.7945 0.0000
# 6 0.0000 0.0000 0.0000 0.0000 0.0000 23.7336
#
#
#
# Elastic Compliance Matrix: (Units=1/GPa)
#
#
# Indices 1 2 3 4 5 6 
#
# 1 0.008838 -0.000790 -0.006656 0.000000 0.000000 0.000000
# 2 -0.000790 0.012979 -0.001394 0.000000 0.000000 0.000000
# 3 -0.006656 -0.001394 0.009872 0.000000 0.000000 0.000000
# 4 0.000000 0.000000 0.000000 0.030528 0.000000 0.000000
# 5 0.000000 0.000000 0.000000 0.000000 0.027178 0.000000
# 6 0.000000 0.000000 0.000000 0.000000 0.000000 0.042134
#
#
# Mechanical properties :
#
#
# Convention : Reuss Voigt Hill
#
# Bulk Modulus (GPa) = 71.38996 112.85863 92.12430
# Shear Modulus (GPa) = 32.49282 39.33082 35.91182
#
# Velocity S-wave (km/s) = 3.72855 4.10217 3.91981
# Velocity P-wave (km/s) = 7.00575 8.40974 7.73965
#
# Compressibility (1/GPa) = 0.01400757
#
# Stress axis : x y z
#
# Youngs Moduli (GPa) = 113.14578 77.04854 101.29582
#
# Poissons Ratio (x) = 0.06087 0.67426
# Poissons Ratio (y) = 0.08938 0.14125
# Poissons Ratio (z) = 0.75313 0.10744
#
# Static dielectric constant tensor:
#      x y z
#    x 1.806940 0.000000 0.000000 
#    y 0.000000 2.037540 0.000000 
#    z 0.000000 0.000000 1.813070 
# 
# From -- ./inp_files/26303.got.cif
#   From: 2010.05.17/outbox.cif.g08.bks.cpg/sg21_14_cif.got.tgz:26303.got - 2010.06.03 23:14:55.
