data_PCOD9322492
_publ_section_title
;
Structure prediction by ZEFSAII (Michael W. Deem and Ramdas Pophale) SiO2 
 PCOD9322492
Probable space group: C 2 2 2
;
_chemical_formula_sum "Si O2"
_cell_formula_units_Z 64
_cell_length_a 30.213847
_cell_length_b 15.026835
_cell_length_c 7.163445
_cell_angle_alpha 90.000000
_cell_angle_beta 90.000000
_cell_angle_gamma 90.000000
_cell_volume 3252.336508
_symmetry_space_group_name_H-M "C 2 2 2"
_symmetry_group_IT_number 21
_symmetry_cell_setting 'orthorhombic'
loop_
_space_group_symop_operation_xyz
x,y,z
-x,-y,z
x,-y,-z
-x,y,-z
1/2+x,1/2+y,z
1/2-x,1/2-y,z
1/2+x,1/2-y,-z
1/2-x,1/2+y,-z
loop_
_atom_site_type_symbol
_atom_site_label
_atom_site_fract_x
_atom_site_fract_y
_atom_site_fract_z
Si Si1 0.885183 0.172103 0.345218
Si Si2 0.677689 0.513907 0.725688
Si Si3 0.642122 0.129325 0.349831
Si Si4 0.130690 0.834121 0.784633
Si Si5 0.951209 0.791629 0.947679
Si Si6 0.658096 0.862635 0.211286
Si Si7 0.222843 0.488368 0.724932
Si Si8 0.076437 0.591655 0.059225
O O1 0.856220 0.094730 0.253527
O O2 0.862382 0.266817 0.302258
O O3 0.884777 0.162993 0.568030
O O4 0.933494 0.176718 0.253597
O O5 0.679436 0.500000 0.500000
O O6 0.658560 0.423641 0.813801
O O7 0.727738 0.532730 0.788634
O O8 0.644831 0.120119 0.572244
O O9 0.598599 0.084654 0.263320
O O10 0.685483 0.086984 0.256765
O O11 0.159772 0.744184 0.810348
O O12 0.087148 0.824119 0.911046
O O13 0.949850 0.683726 0.951050
O O14 0.000000 0.822656 0.000000
O O15 0.702217 0.921537 0.187888
O O16 0.618824 0.895666 0.078105
O O17 0.225745 0.500000 0.500000
O O18 0.053958 0.500000 0.000000
#
# Coordination Sequence:
#
# PCOD9322492 Si02
#       8
#     8   8   8   8   8   8   8   8
#     4   9  19  36  55  74 105 140 167 209 263 305
#     4   9  18  33  53  78 104 137 179 215 251 293
#     4   9  17  30  49  75 106 142 173 201 244 296
#     4   9  19  36  55  74 105 140 167 209 263 305
#     4  10  22  38  56  79 100 126 171 216 261 318
#     4   9  17  30  49  75 106 142 173 201 244 296
#     4   9  16  27  49  79 107 138 179 211 235 290
#     4  10  18  31  53  76 104 135 165 203 253 307
#
# _framework density 19.678162
#
# number of rings (size 3 to 8) (size 9 to 14) (size 15 to 20)
#    0.000    2.750    1.250    0.000    0.000    2.250 
#    0.000    8.750    0.000    6.750    0.000    7.000 
#    0.000    0.000    0.000    0.000    0.000    0.000 
#
# Total GULP energy -178493.924264 kJ/mol
# GULP energy per Si atom -5577.935133 kJ/mol
# Density = 1.963337 g / cm^3
# Si number density = 19.678162 Si / 1000 Ang^3
#
#
#
# Elastic Constant Matrix: (Units=GPa)
#
#
# Indices 1 2 3 4 5 6 
#
# 1 90.8037 14.7177 1.0123 0.0000 0.0000 0.0000
# 2 14.7177 56.5035 -4.0105 0.0000 0.0000 0.0000
# 3 1.0123 -4.0105 50.6643 0.0000 0.0000 0.0000
# 4 0.0000 0.0000 0.0000 16.8643 0.0000 0.0000
# 5 0.0000 0.0000 0.0000 0.0000 17.6178 0.0000
# 6 0.0000 0.0000 0.0000 0.0000 0.0000 12.2755
#
#
#
# Elastic Compliance Matrix: (Units=1/GPa)
#
#
# Indices 1 2 3 4 5 6 
#
# 1 0.011509 -0.003031 -0.000470 0.000000 0.000000 0.000000
# 2 -0.003031 0.018596 0.001533 0.000000 0.000000 0.000000
# 3 -0.000470 0.001533 0.019868 0.000000 0.000000 0.000000
# 4 0.000000 0.000000 0.000000 0.059297 0.000000 0.000000
# 5 0.000000 0.000000 0.000000 0.000000 0.056761 0.000000
# 6 0.000000 0.000000 0.000000 0.000000 0.000000 0.081463
#
#
# Mechanical properties :
#
#
# Convention : Reuss Voigt Hill
#
# Bulk Modulus (GPa) = 21.72162 24.60118 23.16140
# Shear Modulus (GPa) = 18.74218 21.76831 20.25524
#
# Velocity S-wave (km/s) = 3.08950 3.32959 3.21179
# Velocity P-wave (km/s) = 4.87741 5.22594 5.05468
#
# Compressibility (1/GPa) = 0.04603709
#
# Stress axis : x y z
#
# Youngs Moduli (GPa) = 86.88618 53.77401 50.33097
#
# Poissons Ratio (x) = 0.16300 0.02365
# Poissons Ratio (y) = 0.26337 -0.07714
# Poissons Ratio (z) = 0.04083 -0.08241
#
# Static dielectric constant tensor:
#      x y z
#    x 1.637930 0.000000 0.000000 
#    y 0.000000 1.707010 0.000000 
#    z 0.000000 0.000000 1.776010 
# 
# From -- ./inp_files/19860.got.cif
#   From: 2010.05.17/outbox.cif.g08.bks.cpg/sg21_10_cif.got.tgz:19860.got - 2010.06.03 23:14:55.
