data_PCOD9322822
_publ_section_title
;
Structure prediction by ZEFSAII (Michael W. Deem and Ramdas Pophale) SiO2 
 PCOD9322822
Probable space group: C 2 2 2
;
_chemical_formula_sum "Si O2"
_cell_formula_units_Z 64
_cell_length_a 10.972121
_cell_length_b 26.325409
_cell_length_c 12.927681
_cell_angle_alpha 90.000000
_cell_angle_beta 90.000000
_cell_angle_gamma 90.000000
_cell_volume 3734.103425
_symmetry_space_group_name_H-M "C 2 2 2"
_symmetry_group_IT_number 21
_symmetry_cell_setting 'orthorhombic'
loop_
_space_group_symop_operation_xyz
x,y,z
-x,-y,z
x,-y,-z
-x,y,-z
1/2+x,1/2+y,z
1/2-x,1/2-y,z
1/2+x,1/2-y,-z
1/2-x,1/2+y,-z
loop_
_atom_site_type_symbol
_atom_site_label
_atom_site_fract_x
_atom_site_fract_y
_atom_site_fract_z
Si Si1 0.499999 0.789372 0.377780
Si Si2 0.259259 0.858606 0.378753
Si Si3 0.253383 0.940872 0.208219
Si Si4 0.259260 0.141394 0.378753
Si Si5 0.000000 0.180819 0.290740
Si Si6 0.500000 0.403784 0.125393
Si Si7 0.642151 0.942787 1.000000
Si Si8 0.753383 0.559128 0.208219
O O1 0.500000 0.772812 0.500000
O O2 0.375254 0.821356 0.362470
O O3 0.624745 0.821357 0.362470
O O4 0.500000 0.741410 0.301560
O O5 0.278431 0.908248 0.309133
O O6 0.255107 0.870306 0.500000
O O7 0.126829 0.836476 0.345451
O O8 0.115075 0.933398 0.171591
O O9 0.284390 1.000000 0.222982
O O10 0.322276 0.918494 0.108037
O O11 0.126831 0.163525 0.345450
O O12 0.278431 0.091753 0.309132
O O13 0.000000 0.152142 0.179465
O O14 0.384926 0.433398 0.171591
O O15 0.500000 0.402569 0.000000
O O16 0.677724 0.918494 0.108037
O O17 0.500000 0.948398 0.000000
O O18 0.699574 0.000000 0.000000
#
# Coordination Sequence:
#
# PCOD9322822 Si02
#       8
#     8   8   8   8   8   8   8   8
#     4  10  20  36  58  79 103 139 180 222 263 316
#     4  10  21  35  54  82 110 139 177 218 266 319
#     4  10  20  33  54  79 107 142 177 216 260 311
#     4  10  21  35  54  82 110 139 177 218 266 319
#     4  10  20  35  59  79 104 137 178 224 271 314
#     4  10  19  34  55  80 106 135 177 221 267 316
#     4   9  18  31  49  71  96 137 183 214 249 299
#     4  10  20  33  54  79 107 142 177 216 260 311
#
# _framework density 17.139323000000001
#
# number of rings (size 3 to 8) (size 9 to 14) (size 15 to 20)
#    0.000    2.125    1.250    2.250    1.750    3.000 
#    0.000    0.000    2.750    9.750    0.000    0.000 
#    0.000    0.000    0.000    0.000    0.000    0.000 
#
# Total GULP energy -178183.416043 kJ/mol
# GULP energy per Si atom -5568.231751 kJ/mol
# Density = 1.710031 g / cm^3
# Si number density = 17.139323 Si / 1000 Ang^3
#
#
#
# Elastic Constant Matrix: (Units=GPa)
#
#
# Indices 1 2 3 4 5 6 
#
# 1 73.3148 10.2858 13.2677 0.0000 0.0000 0.0000
# 2 10.2858 74.0120 47.2402 0.0000 0.0000 0.0000
# 3 13.2677 47.2402 99.0996 0.0000 0.0000 0.0000
# 4 0.0000 0.0000 0.0000 10.0023 0.0000 0.0000
# 5 0.0000 0.0000 0.0000 0.0000 -60.0319 0.0000
# 6 0.0000 0.0000 0.0000 0.0000 0.0000 52.4680
#
#
#
# Elastic Compliance Matrix: (Units=1/GPa)
#
#
# Indices 1 2 3 4 5 6 
#
# 1 0.014038 -0.001080 -0.001365 0.000000 0.000000 0.000000
# 2 -0.001080 0.019503 -0.009152 0.000000 0.000000 0.000000
# 3 -0.001365 -0.009152 0.014636 0.000000 0.000000 0.000000
# 4 0.000000 0.000000 0.000000 0.099977 0.000000 0.000000
# 5 0.000000 0.000000 0.000000 0.000000 -0.016658 0.000000
# 6 0.000000 0.000000 0.000000 0.000000 0.000000 0.019059
#
#
# Mechanical properties :
#
#
# Convention : Reuss Voigt Hill
#
# Bulk Modulus (GPa) = 40.02588 43.11263 41.56926
# Shear Modulus (GPa) = 27.46066 12.19654 19.82860
#
# Velocity S-wave (km/s) = 4.00709 2.67050 3.40502
# Velocity P-wave (km/s) = 6.69425 5.89216 6.30597
#
# Compressibility (1/GPa) = 0.02498383
#
# Stress axis : x y z
#
# Youngs Moduli (GPa) = 71.23382 51.27355 68.32236
#
# Poissons Ratio (x) = 0.05537 0.09324
# Poissons Ratio (y) = 0.07693 0.62532
# Poissons Ratio (z) = 0.09721 0.46928
#
# Static dielectric constant tensor:
#      x y z
#    x 1.550420 0.000000 0.000000 
#    y 0.000000 1.581690 0.000000 
#    z 0.000000 0.000000 1.575210 
# 
# From -- ./inp_files/24392.got.cif
#   From: 2010.05.17/outbox.cif.g08.bks.cpg/sg21_13_cif.got.tgz:24392.got - 2010.06.03 23:14:55.
