data_PCOD9322021
_publ_section_title
;
Structure prediction by ZEFSAII (Michael W. Deem and Ramdas Pophale) SiO2 
 PCOD9322021
Probable space group: C 2 2 21
;
_chemical_formula_sum "Si O2"
_cell_formula_units_Z 32
_cell_length_a 18.398056
_cell_length_b 5.804721
_cell_length_c 12.581196
_cell_angle_alpha 90.000000
_cell_angle_beta 90.000000
_cell_angle_gamma 90.000000
_cell_volume 1343.616149
_symmetry_space_group_name_H-M "C 2 2 21"
_symmetry_group_IT_number 20
_symmetry_cell_setting 'orthorhombic'
loop_
_space_group_symop_operation_xyz
x,y,z
-x,-y,1/2+z
x,-y,-z
-x,y,1/2-z
1/2+x,1/2+y,z
1/2-x,1/2-y,1/2+z
1/2+x,1/2-y,-z
1/2-x,1/2+y,1/2-z
loop_
_atom_site_type_symbol
_atom_site_label
_atom_site_fract_x
_atom_site_fract_y
_atom_site_fract_z
Si Si1 0.829156 0.000000 0.000000
Si Si2 0.720572 0.617538 0.711342
Si Si3 0.440956 0.256383 0.839627
Si Si4 0.583407 0.821784 0.787443
Si Si5 0.048513 0.500000 0.000000
O O1 0.882888 0.865495 0.920861
O O2 0.780161 0.140312 0.916767
O O3 0.749647 0.361418 0.741378
O O4 0.636373 0.623230 0.750183
O O5 0.500000 0.343040 0.750000
O O6 0.397840 0.056674 0.775507
O O7 0.497490 0.153790 0.926157
O O8 0.500000 0.794158 0.750000
O O9 0.590968 0.852863 0.913039
#
# Coordination Sequence:
#
# PCOD9322021 Si02
#       5
#     4   8   8   8   4
#     4  12  24  45  74 102 156 213 246 318 392 447
#     4  12  29  50  74 109 149 199 257 305 375 464
#     4   9  19  36  67 111 147 189 250 311 384 455
#     4   9  19  41  72 107 144 191 252 314 374 453
#     4   8  16  35  64 102 148 183 230 312 376 431
#
# _framework density 23.816326
#
# number of rings (size 3 to 8) (size 9 to 14) (size 15 to 20)
#    0.000    2.500    0.000    4.500    0.000    7.000 
#    0.000    6.250    0.000    3.000    0.000    0.000 
#    0.000    0.000    0.000    0.000    0.000    0.000 
#
# Total GULP energy -89083.606403 kJ/mol
# GULP energy per Si atom -5567.725400 kJ/mol
# Density = 2.376212 g / cm^3
# Si number density = 23.816326 Si / 1000 Ang^3
#
#
#
# Elastic Constant Matrix: (Units=GPa)
#
#
# Indices 1 2 3 4 5 6 
#
# 1 78.0206 33.5573 30.4231 0.0000 0.0000 0.0000
# 2 33.5573 102.5967 63.6914 0.0000 0.0000 0.0000
# 3 30.4231 63.6914 230.1448 0.0000 0.0000 0.0000
# 4 0.0000 0.0000 0.0000 21.2692 0.0000 0.0000
# 5 0.0000 0.0000 0.0000 0.0000 37.2392 0.0000
# 6 0.0000 0.0000 0.0000 0.0000 0.0000 18.8258
#
#
#
# Elastic Compliance Matrix: (Units=1/GPa)
#
#
# Indices 1 2 3 4 5 6 
#
# 1 0.015024 -0.004445 -0.000756 0.000000 0.000000 0.000000
# 2 -0.004445 0.013084 -0.003033 0.000000 0.000000 0.000000
# 3 -0.000756 -0.003033 0.005284 0.000000 0.000000 0.000000
# 4 0.000000 0.000000 0.000000 0.047016 0.000000 0.000000
# 5 0.000000 0.000000 0.000000 0.000000 0.026853 0.000000
# 6 0.000000 0.000000 0.000000 0.000000 0.000000 0.053118
#
#
# Mechanical properties :
#
#
# Convention : Reuss Voigt Hill
#
# Bulk Modulus (GPa) = 59.08773 74.01175 66.54974
# Shear Modulus (GPa) = 27.39889 34.33953 30.86921
#
# Velocity S-wave (km/s) = 3.39547 3.80129 3.60410
# Velocity P-wave (km/s) = 6.34318 7.09999 6.73223
#
# Compressibility (1/GPa) = 0.01692399
#
# Stress axis : x y z
#
# Youngs Moduli (GPa) = 66.56207 76.43091 189.23358
#
# Poissons Ratio (x) = 0.33971 0.14305
# Poissons Ratio (y) = 0.29584 0.57400
# Poissons Ratio (z) = 0.05032 0.23184
#
# Static dielectric constant tensor:
#      x y z
#    x 2.050920 0.000000 0.000000 
#    y 0.000000 2.060090 0.000000 
#    z 0.000000 0.000000 2.329570 
# 
# From -- ./inp_files/16085.got.cif
#   From: 2010.05.17/outbox.cif.g08.bks.cpg/sg20_9_cif.got.tgz:16085.got - 2010.06.03 22:52:26.
