data_PCOD9322145
_publ_section_title
;
Structure prediction by ZEFSAII (Michael W. Deem and Ramdas Pophale) SiO2 
 PCOD9322145
Probable space group: C 2 2 21
;
_chemical_formula_sum "Si O2"
_cell_formula_units_Z 24
_cell_length_a 20.756759
_cell_length_b 9.193231
_cell_length_c 4.749325
_cell_angle_alpha 90.000000
_cell_angle_beta 90.000000
_cell_angle_gamma 90.000000
_cell_volume 906.274177
_symmetry_space_group_name_H-M "C 2 2 21"
_symmetry_group_IT_number 20
_symmetry_cell_setting 'orthorhombic'
loop_
_space_group_symop_operation_xyz
x,y,z
-x,-y,1/2+z
x,-y,-z
-x,y,1/2-z
1/2+x,1/2+y,z
1/2-x,1/2-y,1/2+z
1/2+x,1/2-y,-z
1/2-x,1/2+y,1/2-z
loop_
_atom_site_type_symbol
_atom_site_label
_atom_site_fract_x
_atom_site_fract_y
_atom_site_fract_z
Si Si1 0.117383 0.742296 0.634400
Si Si2 0.789909 0.000000 0.000000
Si Si3 0.049899 0.500000 0.000000
Si Si4 0.199549 0.500000 0.500000
Si Si5 0.500000 0.585670 0.250000
O O1 0.093248 0.632775 0.880947
O O2 0.152925 0.632934 0.423107
O O3 0.050789 0.822334 0.571505
O O4 0.167247 0.876105 0.649065
O O5 0.743236 0.056471 0.754261
O O6 0.000000 0.458627 0.750000
O O7 0.463966 0.500000 0.500000
#
# Coordination Sequence:
#
# PCOD9322145 Si02
#       5
#     8   4   4   4   4
#     4  12  28  54  84 123 172 224 292 365 440 527
#     4  12  29  54  82 118 168 225 294 354 434 514
#     4  12  28  48  84 130 178 228 290 360 454 538
#     4  12  29  52  84 118 162 229 292 362 422 516
#     4  12  30  48  80 126 172 228 280 364 458 526
#
# _framework density 26.482053000000001
#
# number of rings (size 3 to 8) (size 9 to 14) (size 15 to 20)
#    0.000    0.000    3.333    4.000    4.667    8.000 
#    0.000    0.000    0.000    0.000    0.000    0.000 
#    0.000    0.000    0.000    0.000    0.000    0.000 
#
# Total GULP energy -67053.372661 kJ/mol
# GULP energy per Si atom -5587.781055 kJ/mol
# Density = 2.642178 g / cm^3
# Si number density = 26.482053 Si / 1000 Ang^3
#
#
#
# Elastic Constant Matrix: (Units=GPa)
#
#
# Indices 1 2 3 4 5 6 
#
# 1 155.6351 55.6244 57.7528 0.0000 0.0000 0.0000
# 2 55.6244 132.2496 42.4457 0.0000 0.0000 0.0000
# 3 57.7528 42.4457 146.1251 0.0000 0.0000 0.0000
# 4 0.0000 0.0000 0.0000 40.1491 0.0000 0.0000
# 5 0.0000 0.0000 0.0000 0.0000 34.1617 0.0000
# 6 0.0000 0.0000 0.0000 0.0000 0.0000 65.0794
#
#
#
# Elastic Compliance Matrix: (Units=1/GPa)
#
#
# Indices 1 2 3 4 5 6 
#
# 1 0.008318 -0.002695 -0.002505 0.000000 0.000000 0.000000
# 2 -0.002695 0.009212 -0.001611 0.000000 0.000000 0.000000
# 3 -0.002505 -0.001611 0.008301 0.000000 0.000000 0.000000
# 4 0.000000 0.000000 0.000000 0.024907 0.000000 0.000000
# 5 0.000000 0.000000 0.000000 0.000000 0.029273 0.000000
# 6 0.000000 0.000000 0.000000 0.000000 0.000000 0.015366
#
#
# Mechanical properties :
#
#
# Convention : Reuss Voigt Hill
#
# Bulk Modulus (GPa) = 81.89583 82.85061 82.37322
# Shear Modulus (GPa) = 44.22161 46.42383 45.32272
#
# Velocity S-wave (km/s) = 4.09084 4.19146 4.14146
# Velocity P-wave (km/s) = 7.30106 7.40121 7.35131
#
# Compressibility (1/GPa) = 0.01221063
#
# Stress axis : x y z
#
# Youngs Moduli (GPa) = 120.22430 108.55645 120.46318
#
# Poissons Ratio (x) = 0.29251 0.30173
# Poissons Ratio (y) = 0.32395 0.19404
# Poissons Ratio (z) = 0.30113 0.17486
#
# Static dielectric constant tensor:
#      x y z
#    x 2.045970 0.000000 0.000000 
#    y 0.000000 2.145410 0.000000 
#    z 0.000000 0.000000 1.933070 
# 
# From -- ./inp_files/3483.got.cif
#   From: 2010.05.17/outbox.cif.g08.bks.cpg/sg20_2_cif.got.tgz:3483.got - 2010.06.03 22:52:26.
