data_PCOD9322170
_publ_section_title
;
Structure prediction by ZEFSAII (Michael W. Deem and Ramdas Pophale) SiO2 
 PCOD9322170
Probable space group: C 2 2 21
;
_chemical_formula_sum "Si O2"
_cell_formula_units_Z 30
_cell_length_a 21.000000
_cell_length_b 12.000000
_cell_length_c 12.000000
_cell_angle_alpha 90.000000
_cell_angle_beta 90.000000
_cell_angle_gamma 90.000000
_cell_volume 3024.000000
_symmetry_space_group_name_H-M "C 2 2 21"
_symmetry_group_IT_number 20
_symmetry_cell_setting 'orthorhombic'
loop_
_space_group_symop_operation_xyz
x,y,z
-x,-y,1/2+z
x,-y,-z
-x,y,1/2-z
1/2+x,1/2+y,z
1/2-x,1/2-y,1/2+z
1/2+x,1/2-y,-z
1/2-x,1/2+y,1/2-z
loop_
_atom_site_type_symbol
_atom_site_label
_atom_site_fract_x
_atom_site_fract_y
_atom_site_fract_z
Si Si1 0.804267 0.342425 0.224794
Si Si2 0.553367 0.460516 0.160478
Si Si3 0.122572 0.809169 0.902024
Si Si4 0.503811 0.258509 0.030553
Si Si5 0.859952 0.573875 0.247096
Si Si6 0.335218 0.298629 0.353011
Si Si7 0.000000 0.605211 0.250000
Si Si8 0.379570 0.130105 0.002381
O O1 0.838988 0.252499 0.304284
O O2 0.817847 0.466700 0.268766
O O3 0.729943 0.322538 0.209078
O O4 0.832789 0.347945 0.099649
O O5 0.500000 0.489651 0.250000
O O6 0.593359 0.570568 0.130460
O O7 0.515395 0.386910 0.067345
O O8 0.606790 0.370646 0.197958
O O9 0.164216 0.825012 0.014796
O O10 0.061209 0.737643 0.944296
O O11 0.506637 0.184548 0.142665
O O12 0.435785 0.219487 0.986634
O O13 0.849754 0.668818 0.337402
O O14 0.934352 0.538823 0.244074
O O15 0.848989 0.632535 0.126103
O O16 0.402601 0.000000 0.000000
#
# Coordination Sequence:
#
# PCOD9322170 Si02
#       8
#     8   8   8   8   8   8   4   8
#     4  11  27  41  63 102 134 176 224 277 342 404
#     4  11  22  42  69  99 131 178 230 277 342 409
#     4  11  26  41  65  98 137 179 218 287 341 399
#     4  10  18  38  63  92 131 171 217 265 331 400
#     4  10  21  41  70  93 125 174 218 274 328 403
#     4  11  24  45  68  90 132 182 229 274 336 418
#     4  10  16  38  66  92 122 162 220 262 316 396
#     4   9  21  38  64  99 132 170 217 277 334 399
#
# _framework density 9.9206350000000008
#
# number of rings (size 3 to 8) (size 9 to 14) (size 15 to 20)
#    0.000    1.600    3.333    2.400    5.600    5.867 
#    0.000    0.000    0.000    0.000    0.000    0.000 
#    0.000    0.000    0.000    0.000    0.000    0.000 
#
# Total GULP energy -167245.106038 kJ/mol
# GULP energy per Si atom -5574.836868 kJ/mol
# Density = 0.989806 g / cm^3
# Si number density = 9.920635 Si / 1000 Ang^3
#
#
#
# Elastic Constant Matrix: (Units=GPa)
#
#
# Indices 1 2 3 4 5 6 
#
# 1 109.2613 61.1272 21.0619 0.0000 0.0000 0.0000
# 2 61.1272 87.8647 18.9373 0.0000 0.0000 0.0000
# 3 21.0619 18.9373 59.8452 0.0000 0.0000 0.0000
# 4 0.0000 0.0000 0.0000 25.9805 0.0000 0.0000
# 5 0.0000 0.0000 0.0000 0.0000 36.9288 0.0000
# 6 0.0000 0.0000 0.0000 0.0000 0.0000 102.1134
#
#
#
# Elastic Compliance Matrix: (Units=1/GPa)
#
#
# Indices 1 2 3 4 5 6 
#
# 1 0.015239 -0.010137 -0.002155 0.000000 0.000000 0.000000
# 2 -0.010137 0.018958 -0.002431 0.000000 0.000000 0.000000
# 3 -0.002155 -0.002431 0.018238 0.000000 0.000000 0.000000
# 4 0.000000 0.000000 0.000000 0.038490 0.000000 0.000000
# 5 0.000000 0.000000 0.000000 0.000000 0.027079 0.000000
# 6 0.000000 0.000000 0.000000 0.000000 0.000000 0.009793
#
#
# Mechanical properties :
#
#
# Convention : Reuss Voigt Hill
#
# Bulk Modulus (GPa) = 43.50359 51.02490 47.26425
# Shear Modulus (GPa) = 30.32003 43.39421 36.85712
#
# Velocity S-wave (km/s) = 3.91337 4.68168 4.31466
# Velocity P-wave (km/s) = 6.51097 7.41597 6.97815
#
# Compressibility (1/GPa) = 0.02298661
#
# Stress axis : x y z
#
# Youngs Moduli (GPa) = 65.61974 52.74910 54.83151
#
# Poissons Ratio (x) = 0.53474 0.11819
# Poissons Ratio (y) = 0.66521 0.13331
# Poissons Ratio (z) = 0.14144 0.12824
#
# Static dielectric constant tensor:
#      x y z
#    x 1.731940 0.000000 0.000000 
#    y 0.000000 1.689430 0.000000 
#    z 0.000000 0.000000 0.443770 
# 
# From -- ./inp_files/16378.got.cif
#   From: 2010.05.17/outbox.ucp.g08.bks.cvg/sg20_9_cif.got.tgz:16378.got - 2010.06.11 15:13:06.
