data_PCOD9322952
_publ_section_title
;
Structure prediction by ZEFSAII (Michael W. Deem and Ramdas Pophale) SiO2 
 PCOD9322952
Probable space group: C 2 2 2
;
_chemical_formula_sum "Si O2"
_cell_formula_units_Z 44
_cell_length_a 15.491327
_cell_length_b 11.698253
_cell_length_c 11.233719
_cell_angle_alpha 90.000000
_cell_angle_beta 90.000000
_cell_angle_gamma 90.000000
_cell_volume 2035.790987
_symmetry_space_group_name_H-M "C 2 2 2"
_symmetry_group_IT_number 21
_symmetry_cell_setting 'orthorhombic'
loop_
_space_group_symop_operation_xyz
x,y,z
-x,-y,z
x,-y,-z
-x,y,-z
1/2+x,1/2+y,z
1/2-x,1/2-y,z
1/2+x,1/2-y,-z
1/2-x,1/2+y,-z
loop_
_atom_site_type_symbol
_atom_site_label
_atom_site_fract_x
_atom_site_fract_y
_atom_site_fract_z
Si Si1 0.956607 0.742958 0.371582
Si Si2 0.149401 0.780330 0.980817
Si Si3 0.346326 0.049541 0.122799
Si Si4 0.000000 0.500000 0.736792
Si Si5 0.821361 0.098364 0.738392
Si Si6 0.932146 0.903229 0.795930
O O1 0.017597 0.813055 0.283050
O O2 0.000000 0.757876 0.500000
O O3 0.965470 0.609067 0.337078
O O4 0.863073 0.806980 0.350480
O O5 0.250000 0.750000 0.004596
O O6 0.108503 0.838240 0.093649
O O7 0.109260 0.664644 0.926904
O O8 0.147629 0.864143 0.869511
O O9 0.279624 0.083453 0.228074
O O10 0.418781 0.968861 0.178840
O O11 0.305502 0.000000 0.000000
O O12 0.861794 0.973627 0.718250
O O13 0.000000 0.000000 0.834033
#
# Coordination Sequence:
#
# PCOD9322952 Si02
#       6
#     8   8   8   4   8   8
#     4  11  25  44  68  90 130 181 235 287 336 394
#     4  10  19  36  61  94 139 171 203 263 341 423
#     4  11  22  38  68 103 142 178 219 273 353 437
#     4  12  24  44  68  96 136 181 233 284 348 410
#     4  10  21  40  65  96 135 175 214 274 347 407
#     4  10  22  37  63  97 129 167 221 275 340 404
#
# _framework density 21.613222
#
# number of rings (size 3 to 8) (size 9 to 14) (size 15 to 20)
#    0.000    1.455    1.818    4.364    0.000    8.364 
#    0.000    0.000   16.000    0.000    0.000    0.000 
#    0.000    0.000    0.000    0.000    0.000    0.000 
#
# Total GULP energy -122669.937731 kJ/mol
# GULP energy per Si atom -5575.906260 kJ/mol
# Density = 2.156403 g / cm^3
# Si number density = 21.613222 Si / 1000 Ang^3
#
#
#
# Elastic Constant Matrix: (Units=GPa)
#
#
# Indices 1 2 3 4 5 6 
#
# 1 107.1781 37.6189 60.9485 0.0000 0.0000 0.0000
# 2 37.6189 85.0763 5.8114 0.0000 0.0000 0.0000
# 3 60.9485 5.8114 69.3041 0.0000 0.0000 0.0000
# 4 0.0000 0.0000 0.0000 13.0381 0.0000 0.0000
# 5 0.0000 0.0000 0.0000 0.0000 22.4372 0.0000
# 6 0.0000 0.0000 0.0000 0.0000 0.0000 27.4598
#
#
#
# Elastic Compliance Matrix: (Units=1/GPa)
#
#
# Indices 1 2 3 4 5 6 
#
# 1 0.024340 -0.009354 -0.020621 0.000000 0.000000 0.000000
# 2 -0.009354 0.015417 0.006933 0.000000 0.000000 0.000000
# 3 -0.020621 0.006933 0.031983 0.000000 0.000000 0.000000
# 4 0.000000 0.000000 0.000000 0.076698 0.000000 0.000000
# 5 0.000000 0.000000 0.000000 0.000000 0.044569 0.000000
# 6 0.000000 0.000000 0.000000 0.000000 0.000000 0.036417
#
#
# Mechanical properties :
#
#
# Convention : Reuss Voigt Hill
#
# Bulk Modulus (GPa) = 38.97698 52.25733 45.61715
# Shear Modulus (GPa) = 17.60202 23.06566 20.33384
#
# Velocity S-wave (km/s) = 2.85688 3.27035 3.07058
# Velocity P-wave (km/s) = 5.38102 6.20412 5.80717
#
# Compressibility (1/GPa) = 0.02565617
#
# Stress axis : x y z
#
# Youngs Moduli (GPa) = 41.08474 64.86481 31.26696
#
# Poissons Ratio (x) = 0.60675 0.64476
# Poissons Ratio (y) = 0.38431 -0.21679
# Poissons Ratio (z) = 0.84721 -0.44974
#
# Static dielectric constant tensor:
#      x y z
#    x 1.927760 0.000000 0.000000 
#    y 0.000000 1.888830 0.000000 
#    z 0.000000 0.000000 1.771660 
# 
# From -- ./inp_files/25964.got.cif
#   From: 2010.05.17/outbox.cif.g08.bks.cpg/sg21_13_cif.got.tgz:25964.got - 2010.06.03 23:14:55.
