data_PCOD9322034
_publ_section_title
;
Structure prediction by ZEFSAII (Michael W. Deem and Ramdas Pophale) SiO2 
 PCOD9322034
Probable space group: C 2 2 21
;
_chemical_formula_sum "Si O2"
_cell_formula_units_Z 52
_cell_length_a 10.234419
_cell_length_b 15.061034
_cell_length_c 13.320621
_cell_angle_alpha 90.000000
_cell_angle_beta 90.000000
_cell_angle_gamma 90.000000
_cell_volume 2053.252943
_symmetry_space_group_name_H-M "C 2 2 21"
_symmetry_group_IT_number 20
_symmetry_cell_setting 'orthorhombic'
loop_
_space_group_symop_operation_xyz
x,y,z
-x,-y,1/2+z
x,-y,-z
-x,y,1/2-z
1/2+x,1/2+y,z
1/2-x,1/2-y,1/2+z
1/2+x,1/2-y,-z
1/2-x,1/2+y,1/2-z
loop_
_atom_site_type_symbol
_atom_site_label
_atom_site_fract_x
_atom_site_fract_y
_atom_site_fract_z
Si Si1 0.259059 0.913813 0.147624
Si Si2 0.479338 0.134768 0.000243
Si Si3 0.116295 0.000000 0.500000
Si Si4 0.771179 0.613441 0.630972
Si Si5 0.872526 0.707581 0.189825
Si Si6 0.064271 0.169192 0.001962
Si Si7 0.854605 0.104142 0.295656
O O1 0.375281 0.915522 0.068044
O O2 0.320832 0.889104 0.255048
O O3 0.154350 0.846305 0.096045
O O4 0.182399 0.004821 0.170635
O O5 0.622218 0.112519 0.957500
O O6 0.432292 0.131923 0.114759
O O7 0.484688 0.241111 0.986121
O O8 0.029565 0.914151 0.513907
O O9 0.191780 0.024634 0.601977
O O10 0.681118 0.701312 0.638501
O O11 0.000000 0.263016 0.750000
O O12 0.763038 0.657702 0.258474
O O13 0.652143 0.660593 0.100696
O O14 0.000000 0.110076 0.250000
#
# Coordination Sequence:
#
# PCOD9322034 Si02
#       7
#     8   8   4   8   8   8   8
#     4  12  27  48  79 115 161 214 274 336 418 489
#     4  12  26  49  79 113 163 208 270 336 423 485
#     4  12  26  46  76 110 154 200 274 330 412 486
#     4  12  28  48  77 119 158 213 267 350 414 500
#     4  12  28  49  82 119 169 219 280 349 424 505
#     4  12  24  47  77 112 153 214 262 330 399 494
#     4  12  27  49  81 120 159 219 279 337 414 504
#
# _framework density 25.325668
#
# number of rings (size 3 to 8) (size 9 to 14) (size 15 to 20)
#    0.000    0.000    6.154    2.308    2.154    4.923 
#    0.000    0.000    0.000    0.000    0.000    0.000 
#    0.000    0.000    0.000    0.000    0.000    0.000 
#
# Total GULP energy -145235.016438 kJ/mol
# GULP energy per Si atom -5585.962171 kJ/mol
# Density = 2.526803 g / cm^3
# Si number density = 25.325668 Si / 1000 Ang^3
#
#
#
# Elastic Constant Matrix: (Units=GPa)
#
#
# Indices 1 2 3 4 5 6 
#
# 1 133.2685 36.1184 20.5173 0.0000 0.0000 0.0000
# 2 36.1184 100.5236 -3.2993 0.0000 0.0000 0.0000
# 3 20.5173 -3.2993 63.4104 0.0000 0.0000 0.0000
# 4 0.0000 0.0000 0.0000 19.9832 0.0000 0.0000
# 5 0.0000 0.0000 0.0000 0.0000 42.5413 0.0000
# 6 0.0000 0.0000 0.0000 0.0000 0.0000 -154.7582
#
#
#
# Elastic Compliance Matrix: (Units=1/GPa)
#
#
# Indices 1 2 3 4 5 6 
#
# 1 0.008861 -0.003284 -0.003038 0.000000 0.000000 0.000000
# 2 -0.003284 0.011182 0.001644 0.000000 0.000000 0.000000
# 3 -0.003038 0.001644 0.016839 0.000000 0.000000 0.000000
# 4 0.000000 0.000000 0.000000 0.050042 0.000000 0.000000
# 5 0.000000 0.000000 0.000000 0.000000 0.023507 0.000000
# 6 0.000000 0.000000 0.000000 0.000000 0.000000 -0.006462
#
#
# Mechanical properties :
#
#
# Convention : Reuss Voigt Hill
#
# Bulk Modulus (GPa) = 36.32793 44.87502 40.60148
# Shear Modulus (GPa) = 40.81662 -2.18899 19.31381
#
# Velocity S-wave (km/s) = 4.01892 -0.93071 2.76455
# Velocity P-wave (km/s) = 5.99258 4.07464 5.12415
#
# Compressibility (1/GPa) = 0.02752703
#
# Stress axis : x y z
#
# Youngs Moduli (GPa) = 112.85049 89.43196 59.38657
#
# Poissons Ratio (x) = 0.29366 0.18042
# Poissons Ratio (y) = 0.37056 -0.09765
# Poissons Ratio (z) = 0.34284 -0.14705
#
# Static dielectric constant tensor:
#      x y z
#    x 2.201430 0.000000 0.000000 
#    y 0.000000 1.985750 0.000000 
#    z 0.000000 0.000000 3.435440 
# 
# From -- ./inp_files/20176.got.cif
#   From: 2010.05.17/outbox.cif.g08.bks.cpg/sg20_11_cif.got.tgz:20176.got - 2010.06.03 22:52:26.
