data_PCOD9322927
_publ_section_title
;
Structure prediction by ZEFSAII (Michael W. Deem and Ramdas Pophale) SiO2 
 PCOD9322927
Probable space group: C 2 2 2
;
_chemical_formula_sum "Si O2"
_cell_formula_units_Z 42
_cell_length_a 15.520375
_cell_length_b 10.647679
_cell_length_c 11.464532
_cell_angle_alpha 90.000000
_cell_angle_beta 90.000000
_cell_angle_gamma 90.000000
_cell_volume 1894.582367
_symmetry_space_group_name_H-M "C 2 2 2"
_symmetry_group_IT_number 21
_symmetry_cell_setting 'orthorhombic'
loop_
_space_group_symop_operation_xyz
x,y,z
-x,-y,z
x,-y,-z
-x,y,-z
1/2+x,1/2+y,z
1/2-x,1/2-y,z
1/2+x,1/2-y,-z
1/2-x,1/2+y,-z
loop_
_atom_site_type_symbol
_atom_site_label
_atom_site_fract_x
_atom_site_fract_y
_atom_site_fract_z
Si Si1 0.856632 0.124929 0.558576
Si Si2 0.250000 0.750000 0.361563
Si Si3 0.214591 0.500000 0.000000
Si Si4 0.447882 0.132764 0.900485
Si Si5 0.727437 0.976364 0.249775
Si Si6 0.441200 0.826188 0.698494
Si Si7 0.000000 0.500000 0.500000
O O1 0.825938 0.211943 0.451598
O O2 0.776070 0.087584 0.641783
O O3 0.918884 0.192258 0.647776
O O4 0.891431 0.000000 0.500000
O O5 0.226366 0.624148 0.288012
O O6 0.147412 0.604353 0.053021
O O7 0.265399 0.464663 0.117894
O O8 0.471689 0.183537 0.773892
O O9 0.500000 0.000000 0.891656
O O10 0.500000 0.207031 0.000000
O O11 0.638255 0.896781 0.236681
O O12 0.447875 0.913350 0.585979
#
# Coordination Sequence:
#
# PCOD9322927 Si02
#       7
#     8   4   4   8   8   8   2
#     4  10  22  37  58  87 125 168 198 250 316 375
#     4  10  20  34  52  86 122 160 200 248 314 364
#     4  10  19  36  56  86 130 144 211 262 302 385
#     4   9  16  31  51  82 115 148 187 260 306 333
#     4  11  20  36  58  84 125 163 199 253 317 366
#     4  12  19  36  58  87 121 153 206 255 306 363
#     4  12  24  28  60  96 108 148 208 254 296 356
#
# _framework density 22.168475000000001
#
# number of rings (size 3 to 8) (size 9 to 14) (size 15 to 20)
#    0.000    1.714    6.667    1.143    1.333    0.000 
#    3.429    0.476    0.000    0.000    0.000    0.000 
#   22.857    0.000    0.000    0.000    0.000    0.000 
#
# Total GULP energy -116937.333793 kJ/mol
# GULP energy per Si atom -5568.444466 kJ/mol
# Density = 2.211802 g / cm^3
# Si number density = 22.168475 Si / 1000 Ang^3
#
#
#
# Elastic Constant Matrix: (Units=GPa)
#
#
# Indices 1 2 3 4 5 6 
#
# 1 28.3518 10.0190 23.0820 0.0000 0.0000 0.0000
# 2 10.0190 77.2491 40.0629 0.0000 0.0000 0.0000
# 3 23.0820 40.0629 164.1081 0.0000 0.0000 0.0000
# 4 0.0000 0.0000 0.0000 -228.1039 0.0000 0.0000
# 5 0.0000 0.0000 0.0000 0.0000 7.1937 0.0000
# 6 0.0000 0.0000 0.0000 0.0000 0.0000 7.5308
#
#
#
# Elastic Compliance Matrix: (Units=1/GPa)
#
#
# Indices 1 2 3 4 5 6 
#
# 1 0.040289 -0.002618 -0.005028 0.000000 0.000000 0.000000
# 2 -0.002618 0.014992 -0.003292 0.000000 0.000000 0.000000
# 3 -0.005028 -0.003292 0.007604 0.000000 0.000000 0.000000
# 4 0.000000 0.000000 0.000000 -0.004384 0.000000 0.000000
# 5 0.000000 0.000000 0.000000 0.000000 0.139010 0.000000
# 6 0.000000 0.000000 0.000000 0.000000 0.000000 0.132789
#
#
# Mechanical properties :
#
#
# Convention : Reuss Voigt Hill
#
# Bulk Modulus (GPa) = 24.38376 46.22629 35.30503
# Shear Modulus (GPa) = 13.66700 -29.57287 -7.95293
#
# Velocity S-wave (km/s) = 2.48565 -3.65637 -1.89612
# Velocity P-wave (km/s) = 4.38875 1.75276 3.34165
#
# Compressibility (1/GPa) = 0.04101090
#
# Stress axis : x y z
#
# Youngs Moduli (GPa) = 24.82042 66.70314 131.50519
#
# Poissons Ratio (x) = 0.17463 0.66116
# Poissons Ratio (y) = 0.06498 0.43287
# Poissons Ratio (z) = 0.12479 0.21956
#
# Static dielectric constant tensor:
#      x y z
#    x 2.152460 0.000000 0.000000 
#    y 0.000000 2.057910 0.000000 
#    z 0.000000 0.000000 1.901000 
# 
# From -- ./inp_files/25994.got.cif
#   From: 2010.05.17/outbox.cif.g08.bks.cpg/sg21_13_cif.got.tgz:25994.got - 2010.06.03 23:14:55.
