data_PCOD9322894
_publ_section_title
;
Structure prediction by ZEFSAII (Michael W. Deem and Ramdas Pophale) SiO2 
 PCOD9322894
Probable space group: C 2 2 2
;
_chemical_formula_sum "Si O2"
_cell_formula_units_Z 40
_cell_length_a 17.230679
_cell_length_b 8.151763
_cell_length_c 13.545763
_cell_angle_alpha 90.000000
_cell_angle_beta 90.000000
_cell_angle_gamma 90.000000
_cell_volume 1902.643446
_symmetry_space_group_name_H-M "C 2 2 2"
_symmetry_group_IT_number 21
_symmetry_cell_setting 'orthorhombic'
loop_
_space_group_symop_operation_xyz
x,y,z
-x,-y,z
x,-y,-z
-x,y,-z
1/2+x,1/2+y,z
1/2-x,1/2-y,z
1/2+x,1/2-y,-z
1/2-x,1/2+y,-z
loop_
_atom_site_type_symbol
_atom_site_label
_atom_site_fract_x
_atom_site_fract_y
_atom_site_fract_z
Si Si1 0.956660 0.338732 0.297782
Si Si2 0.619237 0.029052 0.885884
Si Si3 0.436254 0.618158 0.813513
Si Si4 0.812106 0.370881 0.419149
Si Si5 0.734239 0.557433 0.236486
O O1 0.923063 0.405974 0.191648
O O2 0.886533 0.291023 0.368217
O O3 0.000000 0.500000 0.338646
O O4 0.016816 0.193750 0.279192
O O5 0.590561 0.215141 0.867137
O O6 0.709795 0.016828 0.855844
O O7 0.605192 0.000000 0.000000
O O8 0.500000 0.500000 0.863529
O O9 0.356079 0.529338 0.785949
O O10 0.838188 0.500000 0.500000
O O11 0.750000 0.250000 0.467009
O O12 0.766052 0.457650 0.329348
O O13 0.750000 0.750000 0.256660
#
# Coordination Sequence:
#
# PCOD9322894 Si02
#       5
#     8   8   8   8   8
#     4   9  20  37  58  81 113 151 183 223 282 344
#     4   9  19  38  58  77 112 157 188 215 271 346
#     4  10  19  35  59  86 111 140 185 242 285 316
#     4  11  22  37  58  83 111 148 189 230 278 338
#     4   9  19  38  60  82 112 148 186 229 279 337
#
# _framework density 21.023381000000001
#
# number of rings (size 3 to 8) (size 9 to 14) (size 15 to 20)
#    0.000    2.400    0.000    3.000    0.000    4.000 
#    0.000   22.000    0.000    4.200    0.000    0.000 
#    0.000    0.000    0.000    0.000    0.000    0.000 
#
# Total GULP energy -111610.167276 kJ/mol
# GULP energy per Si atom -5580.508364 kJ/mol
# Density = 2.097553 g / cm^3
# Si number density = 21.023381 Si / 1000 Ang^3
#
#
#
# Elastic Constant Matrix: (Units=GPa)
#
#
# Indices 1 2 3 4 5 6 
#
# 1 167.5360 15.2944 29.0464 0.0000 0.0000 0.0000
# 2 15.2944 28.5746 -0.1271 0.0000 0.0000 0.0000
# 3 29.0464 -0.1271 61.1228 0.0000 0.0000 0.0000
# 4 0.0000 0.0000 0.0000 15.2897 0.0000 0.0000
# 5 0.0000 0.0000 0.0000 0.0000 -12.9900 0.0000
# 6 0.0000 0.0000 0.0000 0.0000 0.0000 29.8355
#
#
#
# Elastic Compliance Matrix: (Units=1/GPa)
#
#
# Indices 1 2 3 4 5 6 
#
# 1 0.006874 -0.003694 -0.003274 0.000000 0.000000 0.000000
# 2 -0.003694 0.036981 0.001832 0.000000 0.000000 0.000000
# 3 -0.003274 0.001832 0.017920 0.000000 0.000000 0.000000
# 4 0.000000 0.000000 0.000000 0.065403 0.000000 0.000000
# 5 0.000000 0.000000 0.000000 0.000000 -0.076982 0.000000
# 6 0.000000 0.000000 0.000000 0.000000 0.000000 0.033517
#
#
# Mechanical properties :
#
#
# Convention : Reuss Voigt Hill
#
# Bulk Modulus (GPa) = 19.41599 38.40675 28.91137
# Shear Modulus (GPa) = 44.98302 20.62835 32.80568
#
# Velocity S-wave (km/s) = 4.63067 3.13583 3.95452
# Velocity P-wave (km/s) = 6.15193 5.60531 5.88497
#
# Compressibility (1/GPa) = 0.05150394
#
# Stress axis : x y z
#
# Youngs Moduli (GPa) = 145.48166 27.04068 55.80284
#
# Poissons Ratio (x) = 0.09988 0.18271
# Poissons Ratio (y) = 0.53736 -0.10224
# Poissons Ratio (z) = 0.47633 -0.04954
#
# Static dielectric constant tensor:
#      x y z
#    x 1.797440 0.000000 0.000000 
#    y 0.000000 1.797220 0.000000 
#    z 0.000000 0.000000 1.705500 
# 
# From -- ./inp_files/32080.got.cif
#   From: 2010.05.17/outbox.cif.g08.bks.cpg/sg21_17_cif.got.tgz:32080.got - 2010.06.03 23:14:55.
