data_PCOD9322193
_publ_section_title
;
Structure prediction by ZEFSAII (Michael W. Deem and Ramdas Pophale) SiO2 
 PCOD9322193
Probable space group: C 2 2 21
;
_chemical_formula_sum "Si O2"
_cell_formula_units_Z 32
_cell_length_a 21.000000
_cell_length_b 9.000000
_cell_length_c 18.000000
_cell_angle_alpha 90.000000
_cell_angle_beta 90.000000
_cell_angle_gamma 90.000000
_cell_volume 3402.000000
_symmetry_space_group_name_H-M "C 2 2 21"
_symmetry_group_IT_number 20
_symmetry_cell_setting 'orthorhombic'
loop_
_space_group_symop_operation_xyz
x,y,z
-x,-y,1/2+z
x,-y,-z
-x,y,1/2-z
1/2+x,1/2+y,z
1/2-x,1/2-y,1/2+z
1/2+x,1/2-y,-z
1/2-x,1/2+y,1/2-z
loop_
_atom_site_type_symbol
_atom_site_label
_atom_site_fract_x
_atom_site_fract_y
_atom_site_fract_z
Si Si1 0.800733 0.853027 0.038857
Si Si2 0.380800 0.923267 0.922564
Si Si3 0.005601 0.646555 0.161079
Si Si4 0.910434 0.409589 0.424938
Si Si5 0.211106 0.319373 0.170263
Si Si6 0.201561 0.850753 0.047171
Si Si7 0.550234 0.665782 0.973544
Si Si8 0.236317 0.485436 0.321855
O O1 0.856806 0.739550 0.055077
O O2 0.765623 0.883713 0.116362
O O3 0.747328 0.773996 0.986943
O O4 0.823844 0.000000 0.000000
O O5 0.438486 0.916535 0.866272
O O6 0.321896 0.997703 0.879659
O O7 0.397512 0.000000 0.000000
O O8 0.000000 0.673741 0.250000
O O9 0.057072 0.524341 0.132718
O O10 0.019916 0.784823 0.105002
O O11 0.889078 0.500000 0.500000
O O12 0.853359 0.333012 0.378624
O O13 0.958974 0.288159 0.460758
O O14 0.212229 0.413959 0.245630
O O15 0.230716 0.147633 0.185859
O O16 0.126909 0.826338 0.036521
O O17 0.215403 0.879013 0.133596
O O18 0.216976 0.000000 0.000000
O O19 0.533226 0.500000 0.000000
#
# Coordination Sequence:
#
# PCOD9322193 Si02
#       8
#     8   8   8   8   8   8   8   8
#     4  11  22  35  61  91 121 159 199 250 297 371
#     4  11  21  42  61  81 122 168 207 240 310 379
#     4  11  25  42  63  91 122 165 213 259 306 362
#     4  10  20  39  63  88 113 160 216 257 292 367
#     4  11  22  35  54  90 127 153 203 254 308 364
#     4  11  18  40  61  86 122 159 204 239 307 366
#     4  10  21  37  68  92 118 164 210 263 305 360
#     4  11  23  35  58  89 125 163 193 256 318 365
#
# _framework density 9.4062319999999993
#
# number of rings (size 3 to 8) (size 9 to 14) (size 15 to 20)
#    0.000    1.250    5.000    3.000    3.500    2.500 
#    0.000    0.625    0.000    0.000    0.000    0.000 
#    0.000    0.000    0.000    0.000    0.000    0.000 
#
# Total GULP energy -178579.052097 kJ/mol
# GULP energy per Si atom -5580.595378 kJ/mol
# Density = 0.938482 g / cm^3
# Si number density = 9.406232 Si / 1000 Ang^3
#
#
#
# Elastic Constant Matrix: (Units=GPa)
#
#
# Indices 1 2 3 4 5 6 
#
# 1 45.4908 -0.5869 18.1236 0.0000 0.0000 0.0000
# 2 -0.5869 51.6925 49.2091 0.0000 0.0000 0.0000
# 3 18.1236 49.2091 152.8894 0.0000 0.0000 0.0000
# 4 0.0000 0.0000 0.0000 31.5183 0.0000 0.0000
# 5 0.0000 0.0000 0.0000 0.0000 31.0167 0.0000
# 6 0.0000 0.0000 0.0000 0.0000 0.0000 13.8468
#
#
#
# Elastic Compliance Matrix: (Units=1/GPa)
#
#
# Indices 1 2 3 4 5 6 
#
# 1 0.023701 0.004244 -0.004175 0.000000 0.000000 0.000000
# 2 0.004244 0.028651 -0.009725 0.000000 0.000000 0.000000
# 3 -0.004175 -0.009725 0.010166 0.000000 0.000000 0.000000
# 4 0.000000 0.000000 0.000000 0.031728 0.000000 0.000000
# 5 0.000000 0.000000 0.000000 0.000000 0.032241 0.000000
# 6 0.000000 0.000000 0.000000 0.000000 0.000000 0.072219
#
#
# Mechanical properties :
#
#
# Convention : Reuss Voigt Hill
#
# Bulk Modulus (GPa) = 23.14559 42.61829 32.88194
# Shear Modulus (GPa) = 21.51296 27.49816 24.50556
#
# Velocity S-wave (km/s) = 3.38531 3.82737 3.61310
# Velocity P-wave (km/s) = 5.25456 6.49885 5.90955
#
# Compressibility (1/GPa) = 0.04320478
#
# Stress axis : x y z
#
# Youngs Moduli (GPa) = 42.19282 34.90304 98.37077
#
# Poissons Ratio (x) = -0.14813 0.41074
# Poissons Ratio (y) = -0.17906 0.95662
# Poissons Ratio (z) = 0.17617 0.33942
#
# Static dielectric constant tensor:
#      x y z
#    x 1.680770 0.000000 0.000000 
#    y 0.000000 1.687370 0.000000 
#    z 0.000000 0.000000 1.639280 
# 
# From -- ./inp_files/25496.got.cif
#   From: 2010.05.17/outbox.ucp.g08.bks.cvg/sg20_13_cif.got.tgz:25496.got - 2010.06.11 15:13:06.
