data_PCOD9322159
_publ_section_title
;
Structure prediction by ZEFSAII (Michael W. Deem and Ramdas Pophale) SiO2 
 PCOD9322159
Probable space group: C 2 2 21
;
_chemical_formula_sum "Si O2"
_cell_formula_units_Z 32
_cell_length_a 21.200460
_cell_length_b 7.324302
_cell_length_c 7.920439
_cell_angle_alpha 90.000000
_cell_angle_beta 90.000000
_cell_angle_gamma 90.000000
_cell_volume 1229.874454
_symmetry_space_group_name_H-M "C 2 2 21"
_symmetry_group_IT_number 20
_symmetry_cell_setting 'orthorhombic'
loop_
_space_group_symop_operation_xyz
x,y,z
-x,-y,1/2+z
x,-y,-z
-x,y,1/2-z
1/2+x,1/2+y,z
1/2-x,1/2-y,1/2+z
1/2+x,1/2-y,-z
1/2-x,1/2+y,1/2-z
loop_
_atom_site_type_symbol
_atom_site_label
_atom_site_fract_x
_atom_site_fract_y
_atom_site_fract_z
Si Si1 0.844315 0.197113 0.788768
Si Si2 0.703853 0.932247 0.194680
Si Si3 0.966566 0.705691 0.062351
Si Si4 0.592926 0.781713 0.051753
O O1 0.776805 0.102992 0.775631
O O2 0.821355 0.406441 0.809038
O O3 0.902281 0.181434 0.917147
O O4 0.876756 0.181033 0.606913
O O5 0.647476 0.782222 0.193492
O O6 0.705367 0.000000 0.000000
O O7 0.000000 0.695198 0.250000
O O8 0.020858 0.779963 0.936684
O O9 0.951291 0.500000 0.000000
O O10 0.584850 0.000000 0.000000
#
# Coordination Sequence:
#
# PCOD9322159 Si02
#       4
#     8   8   8   8
#     4   9  17  29  49  69  94 130 161 195 251 302
#     4   9  18  32  47  71 102 127 159 210 253 292
#     4   9  16  28  48  73  96 126 170 212 244 284
#     4   7  14  29  45  65  94 123 159 207 241 272
#
# _framework density 26.018915
#
# number of rings (size 3 to 8) (size 9 to 14) (size 15 to 20)
#    0.000    4.000    0.000    1.500    0.000    4.000 
#    0.000    0.000    0.000    9.000    0.000    0.000 
#    0.000    0.000    0.000    0.000    0.000    0.000 
#
# Total GULP energy -89112.649858 kJ/mol
# GULP energy per Si atom -5569.540616 kJ/mol
# Density = 2.595969 g / cm^3
# Si number density = 26.018915 Si / 1000 Ang^3
#
#
#
# Elastic Constant Matrix: (Units=GPa)
#
#
# Indices 1 2 3 4 5 6 
#
# 1 291.0638 52.9596 33.7894 0.0000 0.0000 0.0000
# 2 52.9596 44.1528 24.7896 0.0000 0.0000 0.0000
# 3 33.7894 24.7896 57.2268 0.0000 0.0000 0.0000
# 4 0.0000 0.0000 0.0000 14.8756 0.0000 0.0000
# 5 0.0000 0.0000 0.0000 0.0000 18.7912 0.0000
# 6 0.0000 0.0000 0.0000 0.0000 0.0000 26.8107
#
#
#
# Elastic Compliance Matrix: (Units=1/GPa)
#
#
# Indices 1 2 3 4 5 6 
#
# 1 0.004402 -0.005049 -0.000412 0.000000 0.000000 0.000000
# 2 -0.005049 0.035718 -0.012491 0.000000 0.000000 0.000000
# 3 -0.000412 -0.012491 0.023129 0.000000 0.000000 0.000000
# 4 0.000000 0.000000 0.000000 0.067224 0.000000 0.000000
# 5 0.000000 0.000000 0.000000 0.000000 0.053216 0.000000
# 6 0.000000 0.000000 0.000000 0.000000 0.000000 0.037299
#
#
# Mechanical properties :
#
#
# Convention : Reuss Voigt Hill
#
# Bulk Modulus (GPa) = 36.57095 68.39117 52.48106
# Shear Modulus (GPa) = 18.79652 30.82248 24.80950
#
# Velocity S-wave (km/s) = 2.69070 3.44556 3.09126
# Velocity P-wave (km/s) = 4.87229 6.49395 5.74067
#
# Compressibility (1/GPa) = 0.02734411
#
# Stress axis : x y z
#
# Youngs Moduli (GPa) = 227.16122 27.99743 43.23644
#
# Poissons Ratio (x) = 0.14135 0.01782
# Poissons Ratio (y) = 1.14689 0.54007
# Poissons Ratio (z) = 0.09364 0.34972
#
# Static dielectric constant tensor:
#      x y z
#    x 2.211770 0.000000 0.000000 
#    y 0.000000 2.228150 0.000000 
#    z 0.000000 0.000000 2.130020 
# 
# From -- ./inp_files/16107.got.cif
#   From: 2010.05.17/outbox.cif.g08.bks.cpg/sg20_9_cif.got.tgz:16107.got - 2010.06.03 22:52:26.
