data_PCOD9322650
_publ_section_title
;
Structure prediction by ZEFSAII (Michael W. Deem and Ramdas Pophale) SiO2 
 PCOD9322650
Probable space group: C 2 2 2
;
_chemical_formula_sum "Si O2"
_cell_formula_units_Z 30
_cell_length_a 22.604843
_cell_length_b 11.485073
_cell_length_c 5.074662
_cell_angle_alpha 90.000000
_cell_angle_beta 90.000000
_cell_angle_gamma 90.000000
_cell_volume 1317.474979
_symmetry_space_group_name_H-M "C 2 2 2"
_symmetry_group_IT_number 21
_symmetry_cell_setting 'orthorhombic'
loop_
_space_group_symop_operation_xyz
x,y,z
-x,-y,z
x,-y,-z
-x,y,-z
1/2+x,1/2+y,z
1/2-x,1/2-y,z
1/2+x,1/2-y,-z
1/2-x,1/2+y,-z
loop_
_atom_site_type_symbol
_atom_site_label
_atom_site_fract_x
_atom_site_fract_y
_atom_site_fract_z
Si Si1 0.625125 0.500000 0.500000
Si Si2 0.430783 0.182358 0.656813
Si Si3 0.682091 0.718363 0.795350
Si Si4 0.000000 0.500000 0.000000
Si Si5 0.918426 0.187973 0.850764
O O1 0.664772 0.597785 0.646696
O O2 0.583201 0.434503 0.708855
O O3 0.359257 0.181441 0.667183
O O4 0.443514 0.217821 0.357511
O O5 0.444114 0.290094 0.859091
O O6 0.458389 0.073264 0.802303
O O7 0.750000 0.750000 0.796195
O O8 0.651708 0.708840 0.084016
#
# Coordination Sequence:
#
# PCOD9322650 Si02
#       5
#     4   8   8   2   8
#     4  10  18  38  70  89 136 187 206 300 356 412
#     4   9  23  39  65  94 132 179 225 285 353 418
#     4   9  20  40  62 101 139 181 237 291 345 425
#     4  12  24  50  72 100 144 190 228 312 364 420
#     4   9  20  39  60  96 123 183 226 282 344 415
#
# _framework density 22.770831999999999
#
# number of rings (size 3 to 8) (size 9 to 14) (size 15 to 20)
#    1.600    1.067    0.000    0.800    0.000    7.467 
#    4.800    0.000    0.000   19.200    0.000    0.000 
#    0.000    0.000    0.000    0.000    0.000    0.000 
#
# Total GULP energy -83530.257982 kJ/mol
# GULP energy per Si atom -5568.683865 kJ/mol
# Density = 2.271900 g / cm^3
# Si number density = 22.770832 Si / 1000 Ang^3
#
#
#
# Elastic Constant Matrix: (Units=GPa)
#
#
# Indices 1 2 3 4 5 6 
#
# 1 128.2563 57.9817 43.5828 0.0000 0.0000 0.0000
# 2 57.9817 119.8278 45.2181 0.0000 0.0000 0.0000
# 3 43.5828 45.2181 157.8562 0.0000 0.0000 0.0000
# 4 0.0000 0.0000 0.0000 44.6643 0.0000 0.0000
# 5 0.0000 0.0000 0.0000 0.0000 29.2175 0.0000
# 6 0.0000 0.0000 0.0000 0.0000 0.0000 32.9653
#
#
#
# Elastic Compliance Matrix: (Units=1/GPa)
#
#
# Indices 1 2 3 4 5 6 
#
# 1 0.010325 -0.004395 -0.001592 0.000000 0.000000 0.000000
# 2 -0.004395 0.011228 -0.002003 0.000000 0.000000 0.000000
# 3 -0.001592 -0.002003 0.007348 0.000000 0.000000 0.000000
# 4 0.000000 0.000000 0.000000 0.022389 0.000000 0.000000
# 5 0.000000 0.000000 0.000000 0.000000 0.034226 0.000000
# 6 0.000000 0.000000 0.000000 0.000000 0.000000 0.030335
#
#
# Mechanical properties :
#
#
# Convention : Reuss Voigt Hill
#
# Bulk Modulus (GPa) = 77.39088 77.72284 77.55686
# Shear Modulus (GPa) = 36.72768 38.64657 37.68713
#
# Velocity S-wave (km/s) = 4.02048 4.12417 4.07266
# Velocity P-wave (km/s) = 7.45741 7.54222 7.49994
#
# Compressibility (1/GPa) = 0.01292142
#
# Stress axis : x y z
#
# Youngs Moduli (GPa) = 96.85487 89.06445 136.09197
#
# Poissons Ratio (x) = 0.39146 0.21660
# Poissons Ratio (y) = 0.42571 0.27255
# Poissons Ratio (z) = 0.15415 0.17837
#
# Static dielectric constant tensor:
#      x y z
#    x 1.947570 0.000000 0.000000 
#    y 0.000000 1.890450 0.000000 
#    z 0.000000 0.000000 1.907120 
# 
# From -- ./inp_files/7121.got.cif
#   From: 2010.05.17/outbox.cif.g08.bks.cpg/sg21_4_cif.got.tgz:7121.got - 2010.06.03 23:14:55.
