data_PCOD9322562
_publ_section_title
;
Structure prediction by ZEFSAII (Michael W. Deem and Ramdas Pophale) SiO2 
 PCOD9322562
Probable space group: C 2 2 2
;
_chemical_formula_sum "Si O2"
_cell_formula_units_Z 46
_cell_length_a 5.538912
_cell_length_b 22.807759
_cell_length_c 19.620800
_cell_angle_alpha 90.000000
_cell_angle_beta 90.000000
_cell_angle_gamma 90.000000
_cell_volume 2478.699000
_symmetry_space_group_name_H-M "C 2 2 2"
_symmetry_group_IT_number 21
_symmetry_cell_setting 'orthorhombic'
loop_
_space_group_symop_operation_xyz
x,y,z
-x,-y,z
x,-y,-z
-x,y,-z
1/2+x,1/2+y,z
1/2-x,1/2-y,z
1/2+x,1/2-y,-z
1/2-x,1/2+y,-z
loop_
_atom_site_type_symbol
_atom_site_label
_atom_site_fract_x
_atom_site_fract_y
_atom_site_fract_z
Si Si1 0.141174 0.594035 0.433853
Si Si2 0.964244 0.140555 0.321722
Si Si3 0.498955 0.787174 0.077939
Si Si4 0.352167 0.942662 0.695209
Si Si5 0.429593 0.161641 0.782568
Si Si6 0.500000 0.500000 0.500000
Si Si7 0.750000 0.250000 0.705990
O O1 0.286084 0.638953 0.385989
O O2 0.324554 0.543278 0.457970
O O3 0.000000 0.616798 0.500000
O O4 0.947876 0.568731 0.380979
O O5 0.833988 0.155279 0.250364
O O6 0.070822 0.074539 0.312834
O O7 0.149654 0.193716 0.334288
O O8 0.750000 0.750000 0.087240
O O9 0.470416 0.835047 0.137177
O O10 0.250000 0.750000 0.084927
O O11 0.500000 0.809304 0.000000
O O12 0.432400 0.892333 0.747886
O O13 0.500000 0.000000 0.717084
O O14 0.544059 0.221268 0.752777
#
# Coordination Sequence:
#
# PCOD9322562 Si02
#       7
#     8   8   8   8   8   2   4
#     4  11  21  34  54  84 109 139 181 242 297 351
#     4  10  21  34  56  86 109 151 189 241 295 359
#     4  10  20  34  57  90 127 158 194 246 300 356
#     4  10  21  36  54  83 115 146 193 244 296 351
#     4  10  20  33  56  85 115 153 192 240 289 356
#     4  12  22  36  60  82 108 140 182 242 302 358
#     4  10  18  34  56  82 108 146 192 230 288 352
#
# _framework density 18.558122999999998
#
# number of rings (size 3 to 8) (size 9 to 14) (size 15 to 20)
#    0.000    1.739    0.870    4.957    2.435    2.087 
#    0.000    0.000    0.000    0.522  307.478    0.000 
#    0.000    0.000    0.000    0.000    0.000    0.000 
#
# Total GULP energy -128051.117228 kJ/mol
# GULP energy per Si atom -5567.439879 kJ/mol
# Density = 1.851588 g / cm^3
# Si number density = 18.558123 Si / 1000 Ang^3
#
#
#
# Elastic Constant Matrix: (Units=GPa)
#
#
# Indices 1 2 3 4 5 6 
#
# 1 84.6366 21.8625 30.8038 0.0000 0.0000 0.0000
# 2 21.8625 69.2779 36.8569 0.0000 0.0000 0.0000
# 3 30.8038 36.8569 138.5338 0.0000 0.0000 0.0000
# 4 0.0000 0.0000 0.0000 5.0889 0.0000 0.0000
# 5 0.0000 0.0000 0.0000 0.0000 12.9895 0.0000
# 6 0.0000 0.0000 0.0000 0.0000 0.0000 27.9070
#
#
#
# Elastic Compliance Matrix: (Units=1/GPa)
#
#
# Indices 1 2 3 4 5 6 
#
# 1 0.013396 -0.003079 -0.002160 0.000000 0.000000 0.000000
# 2 -0.003079 0.017522 -0.003977 0.000000 0.000000 0.000000
# 3 -0.002160 -0.003977 0.008757 0.000000 0.000000 0.000000
# 4 0.000000 0.000000 0.000000 0.196508 0.000000 0.000000
# 5 0.000000 0.000000 0.000000 0.000000 0.076985 0.000000
# 6 0.000000 0.000000 0.000000 0.000000 0.000000 0.035833
#
#
# Mechanical properties :
#
#
# Convention : Reuss Voigt Hill
#
# Bulk Modulus (GPa) = 47.07140 52.38829 49.72984
# Shear Modulus (GPa) = 13.35061 22.72541 18.03801
#
# Velocity S-wave (km/s) = 2.68506 3.50316 3.12103
# Velocity P-wave (km/s) = 5.91879 6.68232 6.31211
#
# Compressibility (1/GPa) = 0.02124432
#
# Stress axis : x y z
#
# Youngs Moduli (GPa) = 74.64640 57.07081 114.19681
#
# Poissons Ratio (x) = 0.17570 0.24663
# Poissons Ratio (y) = 0.22981 0.45418
# Poissons Ratio (z) = 0.16122 0.22698
#
# Static dielectric constant tensor:
#      x y z
#    x 1.821220 0.000000 0.000000 
#    y 0.000000 1.663330 0.000000 
#    z 0.000000 0.000000 1.627430 
# 
# From -- ./inp_files/35041.got.cif
#   From: 2010.05.17/outbox.cif.g08.bks.cpg/sg21_18_cif.got.tgz:35041.got - 2010.06.03 23:14:55.
