data_PCOD9322544
_publ_section_title
;
Structure prediction by ZEFSAII (Michael W. Deem and Ramdas Pophale) SiO2 
 PCOD9322544
Probable space group: C 2 2 2
;
_chemical_formula_sum "Si O2"
_cell_formula_units_Z 54
_cell_length_a 31.745119
_cell_length_b 14.290784
_cell_length_c 5.718620
_cell_angle_alpha 90.000000
_cell_angle_beta 90.000000
_cell_angle_gamma 90.000000
_cell_volume 2594.324239
_symmetry_space_group_name_H-M "C 2 2 2"
_symmetry_group_IT_number 21
_symmetry_cell_setting 'orthorhombic'
loop_
_space_group_symop_operation_xyz
x,y,z
-x,-y,z
x,-y,-z
-x,y,-z
1/2+x,1/2+y,z
1/2-x,1/2-y,z
1/2+x,1/2-y,-z
1/2-x,1/2+y,-z
loop_
_atom_site_type_symbol
_atom_site_label
_atom_site_fract_x
_atom_site_fract_y
_atom_site_fract_z
Si Si1 0.269855 0.854595 0.367183
Si Si2 0.500000 0.000000 0.000000
Si Si3 0.262147 0.641052 0.860726
Si Si4 0.575283 0.703283 0.238731
Si Si5 0.445969 0.834946 0.156562
Si Si6 0.000000 0.796520 0.500000
Si Si7 0.647288 0.389206 0.016930
Si Si8 0.861491 0.274036 0.370970
O O1 0.250000 0.750000 0.364813
O O2 0.255224 0.896151 0.113863
O O3 0.319882 0.836566 0.387111
O O4 0.254652 0.899108 0.613829
O O5 0.530796 0.066510 0.148479
O O6 0.250000 0.750000 0.860336
O O7 0.312627 0.640261 0.862774
O O8 0.536814 0.650519 0.363306
O O9 0.612008 0.746335 0.400382
O O10 0.553359 0.787674 0.098659
O O11 0.600913 0.637591 0.067574
O O12 0.471288 0.768206 0.332785
O O13 0.396756 0.830202 0.222445
O O14 0.651437 0.324914 0.249030
O O15 0.650216 0.500000 0.000000
#
# Coordination Sequence:
#
# PCOD9322544 Si02
#       8
#     8   2   8   8   8   4   8   8
#     4  10  18  33  62  88 118 166 220 261 311 392
#     4  12  20  42  64 100 128 156 208 274 336 388
#     4  10  19  35  60  91 120 170 218 266 322 389
#     4  10  20  38  60  89 124 167 214 264 326 393
#     4  10  22  36  64  92 126 161 207 266 322 408
#     4  10  18  39  62  93 116 168 208 250 333 407
#     4  11  23  38  61  95 130 166 226 279 326 378
#     4  10  21  38  61  92 122 174 219 261 323 397
#
# _framework density 20.814668999999999
#
# number of rings (size 3 to 8) (size 9 to 14) (size 15 to 20)
#    0.000    1.778    4.444    1.778    2.074    0.889 
#    0.000    0.000    1.630   27.556    0.000    0.000 
#    0.000    0.000    0.000    0.000    0.000    0.000 
#
# Total GULP energy -150369.663491 kJ/mol
# GULP energy per Si atom -5569.246796 kJ/mol
# Density = 2.076729 g / cm^3
# Si number density = 20.814669 Si / 1000 Ang^3
#
#
#
# Elastic Constant Matrix: (Units=GPa)
#
#
# Indices 1 2 3 4 5 6 
#
# 1 139.1744 9.9736 29.0046 0.0000 0.0000 0.0000
# 2 9.9736 62.8721 6.9367 0.0000 0.0000 0.0000
# 3 29.0046 6.9367 119.6250 0.0000 0.0000 0.0000
# 4 0.0000 0.0000 0.0000 -229.0552 0.0000 0.0000
# 5 0.0000 0.0000 0.0000 0.0000 66.5622 0.0000
# 6 0.0000 0.0000 0.0000 0.0000 0.0000 10.8174
#
#
#
# Elastic Compliance Matrix: (Units=1/GPa)
#
#
# Indices 1 2 3 4 5 6 
#
# 1 0.007631 -0.001013 -0.001792 0.000000 0.000000 0.000000
# 2 -0.001013 0.016142 -0.000690 0.000000 0.000000 0.000000
# 3 -0.001792 -0.000690 0.008834 0.000000 0.000000 0.000000
# 4 0.000000 0.000000 0.000000 -0.004366 0.000000 0.000000
# 5 0.000000 0.000000 0.000000 0.000000 0.015024 0.000000
# 6 0.000000 0.000000 0.000000 0.000000 0.000000 0.092443
#
#
# Mechanical properties :
#
#
# Convention : Reuss Voigt Hill
#
# Bulk Modulus (GPa) = 39.03590 45.94459 42.49025
# Shear Modulus (GPa) = 33.06063 -11.95134 10.55465
#
# Velocity S-wave (km/s) = 3.98971 -2.39880 2.25428
# Velocity P-wave (km/s) = 6.32602 3.80115 5.21859
#
# Compressibility (1/GPa) = 0.02561744
#
# Stress axis : x y z
#
# Youngs Moduli (GPa) = 131.04136 61.94962 113.20066
#
# Poissons Ratio (x) = 0.06275 0.20280
# Poissons Ratio (y) = 0.13273 0.07816
# Poissons Ratio (z) = 0.23477 0.04277
#
# Static dielectric constant tensor:
#      x y z
#    x 3.029210 0.000000 0.000000 
#    y 0.000000 1.731940 0.000000 
#    z 0.000000 0.000000 1.878760 
# 
# From -- ./inp_files/8069.got.cif
#   From: 2010.05.17/outbox.cif.g08.bks.cpg/sg21_5_cif.got.tgz:8069.got - 2010.06.03 23:14:55.
