data_PCOD9322607
_publ_section_title
;
Structure prediction by ZEFSAII (Michael W. Deem and Ramdas Pophale) SiO2 
 PCOD9322607
Probable space group: C 2 2 2
;
_chemical_formula_sum "Si O2"
_cell_formula_units_Z 40
_cell_length_a 16.189781
_cell_length_b 12.828817
_cell_length_c 9.088597
_cell_angle_alpha 90.000000
_cell_angle_beta 90.000000
_cell_angle_gamma 90.000000
_cell_volume 1887.662859
_symmetry_space_group_name_H-M "C 2 2 2"
_symmetry_group_IT_number 21
_symmetry_cell_setting 'orthorhombic'
loop_
_space_group_symop_operation_xyz
x,y,z
-x,-y,z
x,-y,-z
-x,y,-z
1/2+x,1/2+y,z
1/2-x,1/2-y,z
1/2+x,1/2-y,-z
1/2-x,1/2+y,-z
loop_
_atom_site_type_symbol
_atom_site_label
_atom_site_fract_x
_atom_site_fract_y
_atom_site_fract_z
Si Si1 0.656209 0.203594 0.681582
Si Si2 0.829658 0.517885 0.824951
Si Si3 0.855981 0.921653 0.816088
Si Si4 0.151755 0.276564 0.662249
Si Si5 0.080212 0.137381 0.101078
O O1 0.750000 0.250000 0.698696
O O2 0.637803 0.201832 0.508407
O O3 0.597868 0.278691 0.776184
O O4 0.645591 0.087928 0.744569
O O5 0.733748 0.534409 0.780041
O O6 0.870619 0.624497 0.763877
O O7 0.837856 0.500000 0.000000
O O8 0.888856 0.832441 0.709621
O O9 0.913392 0.022027 0.831272
O O10 0.848030 0.866464 0.976125
O O11 0.250000 0.250000 0.682550
O O12 0.000000 0.153818 0.000000
#
# Coordination Sequence:
#
# PCOD9322607 Si02
#       5
#     8   8   8   8   8
#     4  11  20  36  56  88 128 164 210 265 321 379
#     4  11  18  32  58  91 122 158 208 267 319 370
#     4  10  18  36  55  85 121 160 210 255 314 372
#     4   9  21  32  55  90 125 164 206 263 323 377
#     4  11  22  37  60  88 122 165 210 259 312 379
#
# _framework density 21.190225000000002
#
# number of rings (size 3 to 8) (size 9 to 14) (size 15 to 20)
#    0.000    1.600    4.000    3.000    0.000    2.400 
#    0.000    1.000    0.000   11.400    0.000    5.600 
#    0.000    0.000    0.000    0.000    0.000    0.000 
#
# Total GULP energy -111633.502522 kJ/mol
# GULP energy per Si atom -5581.675126 kJ/mol
# Density = 2.114199 g / cm^3
# Si number density = 21.190225 Si / 1000 Ang^3
#
#
#
# Elastic Constant Matrix: (Units=GPa)
#
#
# Indices 1 2 3 4 5 6 
#
# 1 32.7640 22.4013 19.8592 0.0000 0.0000 0.0000
# 2 22.4013 196.5097 129.7106 0.0000 0.0000 0.0000
# 3 19.8592 129.7106 144.1529 0.0000 0.0000 0.0000
# 4 0.0000 0.0000 0.0000 35.0210 0.0000 0.0000
# 5 0.0000 0.0000 0.0000 0.0000 19.3183 0.0000
# 6 0.0000 0.0000 0.0000 0.0000 0.0000 11.3232
#
#
#
# Elastic Compliance Matrix: (Units=1/GPa)
#
#
# Indices 1 2 3 4 5 6 
#
# 1 0.033590 -0.001908 -0.002911 0.000000 0.000000 0.000000
# 2 -0.001908 0.012641 -0.011111 0.000000 0.000000 0.000000
# 3 -0.002911 -0.011111 0.017336 0.000000 0.000000 0.000000
# 4 0.000000 0.000000 0.000000 0.028554 0.000000 0.000000
# 5 0.000000 0.000000 0.000000 0.000000 0.051765 0.000000
# 6 0.000000 0.000000 0.000000 0.000000 0.000000 0.088314
#
#
# Mechanical properties :
#
#
# Convention : Reuss Voigt Hill
#
# Bulk Modulus (GPa) = 31.53893 79.70766 55.62330
# Shear Modulus (GPa) = 18.20642 26.56286 22.38464
#
# Velocity S-wave (km/s) = 2.93437 3.54438 3.25370
# Velocity P-wave (km/s) = 5.13778 7.37883 6.35783
#
# Compressibility (1/GPa) = 0.03170684
#
# Stress axis : x y z
#
# Youngs Moduli (GPa) = 29.77077 79.11051 57.68276
#
# Poissons Ratio (x) = 0.15092 0.16791
# Poissons Ratio (y) = 0.05679 0.64093
# Poissons Ratio (z) = 0.08666 0.87902
#
# Static dielectric constant tensor:
#      x y z
#    x 1.846380 0.000000 0.000000 
#    y 0.000000 1.769520 0.000000 
#    z 0.000000 0.000000 1.756010 
# 
# From -- ./inp_files/12734.got.cif
#   From: 2010.05.17/outbox.cif.g08.bks.cpg/sg21_7_cif.got.tgz:12734.got - 2010.06.03 23:14:55.
