data_PCOD9322277
_publ_section_title
;
Structure prediction by ZEFSAII (Michael W. Deem and Ramdas Pophale) SiO2 
 PCOD9322277
Probable space group: C 2 2 2
;
_chemical_formula_sum "Si O2"
_cell_formula_units_Z 28
_cell_length_a 30.598829
_cell_length_b 5.394418
_cell_length_c 8.671974
_cell_angle_alpha 90.000000
_cell_angle_beta 90.000000
_cell_angle_gamma 90.000000
_cell_volume 1431.420951
_symmetry_space_group_name_H-M "C 2 2 2"
_symmetry_group_IT_number 21
_symmetry_cell_setting 'orthorhombic'
loop_
_space_group_symop_operation_xyz
x,y,z
-x,-y,z
x,-y,-z
-x,y,-z
1/2+x,1/2+y,z
1/2-x,1/2-y,z
1/2+x,1/2-y,-z
1/2-x,1/2+y,-z
loop_
_atom_site_type_symbol
_atom_site_label
_atom_site_fract_x
_atom_site_fract_y
_atom_site_fract_z
Si Si1 0.481487 0.248406 0.821132
Si Si2 0.207329 0.919010 0.178356
Si Si3 0.750000 0.250000 0.596434
Si Si4 0.882022 0.251739 0.101652
O O1 0.500000 0.500000 0.751466
O O2 0.429323 0.237617 0.820823
O O3 0.500000 0.000000 0.748146
O O4 0.500000 0.248452 0.000000
O O5 0.250000 0.750000 0.202436
O O6 0.161654 0.779109 0.202628
O O7 0.211829 0.154972 0.289748
O O8 0.208900 0.000000 0.000000
O O9 0.760696 0.500000 0.500000
O O10 0.877173 0.500000 0.000000
O O11 0.883942 0.000000 0.000000
#
# Coordination Sequence:
#
# PCOD9322277 Si02
#       4
#     8   8   4   8
#     4  10  15  27  42  67 109 158 195 222 289 362
#     4  11  23  39  62  89 123 159 206 253 310 360
#     4  12  26  44  64  84 118 170 210 254 300 362
#     4  11  20  29  50  79 113 159 197 236 295 365
#
# _framework density 19.560981000000002
#
# number of rings (size 3 to 8) (size 9 to 14) (size 15 to 20)
#    0.000    1.143    8.571    0.857    4.000    0.000 
#    0.000    0.000    0.000    0.000    0.000    0.000 
#    0.000    1.143   10.286    0.571    0.000    0.000 
#
# Total GULP energy -78025.291863 kJ/mol
# GULP energy per Si atom -5573.235133 kJ/mol
# Density = 1.951646 g / cm^3
# Si number density = 19.560981 Si / 1000 Ang^3
#
#
#
# Elastic Constant Matrix: (Units=GPa)
#
#
# Indices 1 2 3 4 5 6 
#
# 1 209.8876 71.1845 19.9239 0.0000 0.0000 0.0000
# 2 71.1845 194.7207 34.5234 0.0000 0.0000 0.0000
# 3 19.9239 34.5234 56.9282 0.0000 0.0000 0.0000
# 4 0.0000 0.0000 0.0000 15.6386 0.0000 0.0000
# 5 0.0000 0.0000 0.0000 0.0000 -2.6808 0.0000
# 6 0.0000 0.0000 0.0000 0.0000 0.0000 60.7372
#
#
#
# Elastic Compliance Matrix: (Units=1/GPa)
#
#
# Indices 1 2 3 4 5 6 
#
# 1 0.005470 -0.001860 -0.000786 0.000000 0.000000 0.000000
# 2 -0.001860 0.006387 -0.003222 0.000000 0.000000 0.000000
# 3 -0.000786 -0.003222 0.019795 0.000000 0.000000 0.000000
# 4 0.000000 0.000000 0.000000 0.063944 0.000000 0.000000
# 5 0.000000 0.000000 0.000000 0.000000 -0.373022 0.000000
# 6 0.000000 0.000000 0.000000 0.000000 0.000000 0.016464
#
#
# Mechanical properties :
#
#
# Convention : Reuss Voigt Hill
#
# Bulk Modulus (GPa) = 50.21424 79.20001 64.70712
# Shear Modulus (GPa) = -20.61132 37.13263 8.26066
#
# Velocity S-wave (km/s) = -3.24959 4.36168 2.05723
# Velocity P-wave (km/s) = 3.41271 8.12049 6.22852
#
# Compressibility (1/GPa) = 0.01991467
#
# Stress axis : x y z
#
# Youngs Moduli (GPa) = 182.81471 156.57011 50.51719
#
# Poissons Ratio (x) = 0.29126 0.03972
# Poissons Ratio (y) = 0.34009 0.16278
# Poissons Ratio (z) = 0.14374 0.50450
#
# Static dielectric constant tensor:
#      x y z
#    x 1.712130 0.000000 0.000000 
#    y 0.000000 1.726390 0.000000 
#    z 0.000000 0.000000 1.704390 
# 
# From -- ./inp_files/19275.got.cif
#   From: 2010.05.17/outbox.cif.g08.bks.cpg/sg21_10_cif.got.tgz:19275.got - 2010.06.03 23:14:55.
