data_PCOD9322499
_publ_section_title
;
Structure prediction by ZEFSAII (Michael W. Deem and Ramdas Pophale) SiO2 
 PCOD9322499
Probable space group: C 2 2 2
;
_chemical_formula_sum "Si O2"
_cell_formula_units_Z 48
_cell_length_a 27.487481
_cell_length_b 21.175771
_cell_length_c 5.616780
_cell_angle_alpha 90.000000
_cell_angle_beta 90.000000
_cell_angle_gamma 90.000000
_cell_volume 3269.351288
_symmetry_space_group_name_H-M "C 2 2 2"
_symmetry_group_IT_number 21
_symmetry_cell_setting 'orthorhombic'
loop_
_space_group_symop_operation_xyz
x,y,z
-x,-y,z
x,-y,-z
-x,y,-z
1/2+x,1/2+y,z
1/2-x,1/2-y,z
1/2+x,1/2-y,-z
1/2-x,1/2+y,-z
loop_
_atom_site_type_symbol
_atom_site_label
_atom_site_fract_x
_atom_site_fract_y
_atom_site_fract_z
Si Si1 0.000000 0.906915 0.000000
Si Si2 0.078932 0.187716 0.844390
Si Si3 0.309817 0.631430 0.156947
Si Si4 0.085644 0.943537 0.682855
Si Si5 0.830879 0.000000 0.000000
Si Si6 0.790252 0.195954 0.656956
Si Si7 0.598146 0.706752 0.357641
O O1 0.964407 0.863064 0.842426
O O2 0.037309 0.944031 0.838648
O O3 0.132730 0.153799 0.848323
O O4 0.076866 0.229727 0.607915
O O5 0.074901 0.220984 0.102139
O O6 0.304774 0.555677 0.142953
O O7 0.288623 0.656501 0.408252
O O8 0.287378 0.658876 0.910296
O O9 0.092747 0.870170 0.614595
O O10 0.080365 0.000000 0.500000
O O11 0.133803 0.961581 0.825945
O O12 0.750000 0.250000 0.651251
O O13 0.845170 0.223284 0.655506
#
# Coordination Sequence:
#
# PCOD9322499 Si02
#       7
#     4   8   8   8   4   8   8
#     4  10  20  35  34  56  72 108 150 178 206 235
#     4   9  17  32  41  52  77  99 135 172 202 244
#     4  10  20  32  44  65  80 107 133 165 226 257
#     4  11  22  33  40  53  79 112 145 182 213 258
#     4  12  20  35  44  56  88 114 134 180 216 287
#     4  10  18  32  49  63  78  95 130 175 218 265
#     4   9  18  33  41  55  74  95 127 165 219 251
#
# _framework density 14.681811
#
# number of rings (size 3 to 8) (size 9 to 14) (size 15 to 20)
#    0.000    2.000    5.000    2.500    0.000    3.000 
#    3.000    0.000    0.000    0.000    0.000    0.000 
#    0.000    0.000    0.000    0.000    0.000    0.000 
#
# Total GULP energy -133636.104055 kJ/mol
# GULP energy per Si atom -5568.171002 kJ/mol
# Density = 1.464839 g / cm^3
# Si number density = 14.681811 Si / 1000 Ang^3
#
#
#
# Elastic Constant Matrix: (Units=GPa)
#
#
# Indices 1 2 3 4 5 6 
#
# 1 45.2137 27.5198 18.1493 0.0000 0.0000 0.0000
# 2 27.5198 33.0380 19.2896 0.0000 0.0000 0.0000
# 3 18.1493 19.2896 124.3782 0.0000 0.0000 0.0000
# 4 0.0000 0.0000 0.0000 15.3860 0.0000 0.0000
# 5 0.0000 0.0000 0.0000 0.0000 22.5203 0.0000
# 6 0.0000 0.0000 0.0000 0.0000 0.0000 34.7372
#
#
#
# Elastic Compliance Matrix: (Units=1/GPa)
#
#
# Indices 1 2 3 4 5 6 
#
# 1 0.044939 -0.036950 -0.000827 0.000000 0.000000 0.000000
# 2 -0.036950 0.063663 -0.004482 0.000000 0.000000 0.000000
# 3 -0.000827 -0.004482 0.008856 0.000000 0.000000 0.000000
# 4 0.000000 0.000000 0.000000 0.064994 0.000000 0.000000
# 5 0.000000 0.000000 0.000000 0.000000 0.044404 0.000000
# 6 0.000000 0.000000 0.000000 0.000000 0.000000 0.028788
#
#
# Mechanical properties :
#
#
# Convention : Reuss Voigt Hill
#
# Bulk Modulus (GPa) = 30.35779 36.94970 33.65375
# Shear Modulus (GPa) = 14.23923 23.70680 18.97302
#
# Velocity S-wave (km/s) = 3.11763 4.02270 3.59873
# Velocity P-wave (km/s) = 5.80358 6.84089 6.34347
#
# Compressibility (1/GPa) = 0.03294047
#
# Stress axis : x y z
#
# Youngs Moduli (GPa) = 22.25221 15.70761 112.92135
#
# Poissons Ratio (x) = 0.58040 0.09339
# Poissons Ratio (y) = 0.82223 0.50607
# Poissons Ratio (z) = 0.01840 0.07040
#
# Static dielectric constant tensor:
#      x y z
#    x 1.483750 0.000000 0.000000 
#    y 0.000000 1.490120 0.000000 
#    z 0.000000 0.000000 1.627890 
# 
# From -- ./inp_files/7496.got.cif
#   From: 2010.05.17/outbox.cif.g08.bks.cpg/sg21_4_cif.got.tgz:7496.got - 2010.06.03 23:14:55.
