data_PCOD9322257
_publ_section_title
;
Structure prediction by ZEFSAII (Michael W. Deem and Ramdas Pophale) SiO2 
 PCOD9322257
Probable space group: C 2 2 21
;
_chemical_formula_sum "Si O2"
_cell_formula_units_Z 32
_cell_length_a 15.000000
_cell_length_b 9.000000
_cell_length_c 24.000000
_cell_angle_alpha 90.000000
_cell_angle_beta 90.000000
_cell_angle_gamma 90.000000
_cell_volume 3240.000000
_symmetry_space_group_name_H-M "C 2 2 21"
_symmetry_group_IT_number 20
_symmetry_cell_setting 'orthorhombic'
loop_
_space_group_symop_operation_xyz
x,y,z
-x,-y,1/2+z
x,-y,-z
-x,y,1/2-z
1/2+x,1/2+y,z
1/2-x,1/2-y,1/2+z
1/2+x,1/2-y,-z
1/2-x,1/2+y,1/2-z
loop_
_atom_site_type_symbol
_atom_site_label
_atom_site_fract_x
_atom_site_fract_y
_atom_site_fract_z
Si Si1 0.420400 0.929398 0.402242
Si Si2 0.060454 0.643185 0.697235
Si Si3 0.348316 0.672391 0.986287
Si Si4 0.899392 0.988250 0.770716
Si Si5 0.219283 0.115102 0.950731
Si Si6 0.950463 0.283618 0.519839
Si Si7 0.249714 0.512430 0.326116
Si Si8 0.273577 0.650871 0.861388
O O1 0.498720 0.883270 0.358335
O O2 0.417414 0.822713 0.456923
O O3 0.324176 0.926007 0.370820
O O4 0.439652 0.084664 0.434372
O O5 0.084942 0.816499 0.709640
O O6 0.154364 0.555327 0.693308
O O7 0.000000 0.593812 0.750000
O O8 0.445672 0.746335 0.986020
O O9 0.309358 0.680898 0.923844
O O10 0.358108 0.500000 0.000000
O O11 0.282313 0.745837 0.032084
O O12 0.000000 0.038525 0.750000
O O13 0.830318 0.009203 0.718561
O O14 0.847270 0.066654 0.822910
O O15 0.115714 0.156781 0.958449
O O16 0.233484 0.056878 0.887971
O O17 0.243158 0.000000 0.000000
O O18 0.242393 0.689398 0.333478
#
# Coordination Sequence:
#
# PCOD9322257 Si02
#       8
#     8   8   8   8   8   8   8   8
#     4  11  23  45  71 105 143 185 233 293 361 427
#     4  11  25  47  74 101 137 193 235 289 360 423
#     4  12  26  43  69 107 140 187 241 292 365 427
#     4  11  27  47  72 103 140 186 242 294 355 417
#     4  12  25  45  70 103 145 190 230 291 361 429
#     4  11  25  42  69 105 143 183 234 292 354 432
#     4  12  25  46  70 104 142 186 236 291 355 426
#     4  12  25  45  72 102 145 183 239 301 347 432
#
# _framework density 9.8765429999999999
#
# number of rings (size 3 to 8) (size 9 to 14) (size 15 to 20)
#    0.000    0.500    2.500    5.625    8.750    0.500 
#    2.250    0.000    0.000    0.000    0.000    0.000 
#    0.000    0.000    0.000    0.000    0.000    0.000 
#
# Total GULP energy -178836.821398 kJ/mol
# GULP energy per Si atom -5588.650669 kJ/mol
# Density = 0.985406 g / cm^3
# Si number density = 9.876543 Si / 1000 Ang^3
#
#
#
# Elastic Constant Matrix: (Units=GPa)
#
#
# Indices 1 2 3 4 5 6 
#
# 1 158.7660 23.0768 57.1281 0.0000 0.0000 0.0000
# 2 23.0768 59.3310 33.4613 0.0000 0.0000 0.0000
# 3 57.1281 33.4613 147.8002 0.0000 0.0000 0.0000
# 4 0.0000 0.0000 0.0000 38.1520 0.0000 0.0000
# 5 0.0000 0.0000 0.0000 0.0000 57.0944 0.0000
# 6 0.0000 0.0000 0.0000 0.0000 0.0000 41.4991
#
#
#
# Elastic Compliance Matrix: (Units=1/GPa)
#
#
# Indices 1 2 3 4 5 6 
#
# 1 0.007424 -0.001455 -0.002540 0.000000 0.000000 0.000000
# 2 -0.001455 0.019607 -0.003876 0.000000 0.000000 0.000000
# 3 -0.002540 -0.003876 0.008625 0.000000 0.000000 0.000000
# 4 0.000000 0.000000 0.000000 0.026211 0.000000 0.000000
# 5 0.000000 0.000000 0.000000 0.000000 0.017515 0.000000
# 6 0.000000 0.000000 0.000000 0.000000 0.000000 0.024097
#
#
# Mechanical properties :
#
#
# Convention : Reuss Voigt Hill
#
# Bulk Modulus (GPa) = 50.21880 65.91440 58.06660
# Shear Modulus (GPa) = 39.72675 44.16452 41.94564
#
# Velocity S-wave (km/s) = 4.48947 4.73359 4.61314
# Velocity P-wave (km/s) = 7.23548 7.95722 7.60492
#
# Compressibility (1/GPa) = 0.01991286
#
# Stress axis : x y z
#
# Youngs Moduli (GPa) = 134.69679 51.00282 115.93744
#
# Poissons Ratio (x) = 0.07421 0.29450
# Poissons Ratio (y) = 0.19598 0.44943
# Poissons Ratio (z) = 0.34215 0.19771
#
# Static dielectric constant tensor:
#      x y z
#    x 1.681510 0.000000 0.000000 
#    y 0.000000 1.732770 0.000000 
#    z 0.000000 0.000000 1.680060 
# 
# From -- ./inp_files/29335.got.cif
#   From: 2010.05.17/outbox.ucp.g08.bks.cvg/sg20_15_cif.got.tgz:29335.got - 2010.06.11 15:13:06.
