data_PCOD9322066
_publ_section_title
;
Structure prediction by ZEFSAII (Michael W. Deem and Ramdas Pophale) SiO2 
 PCOD9322066
Probable space group: C 2 2 21
;
_chemical_formula_sum "Si O2"
_cell_formula_units_Z 64
_cell_length_a 8.770416
_cell_length_b 11.434668
_cell_length_c 30.096027
_cell_angle_alpha 90.000000
_cell_angle_beta 90.000000
_cell_angle_gamma 90.000000
_cell_volume 3018.234096
_symmetry_space_group_name_H-M "C 2 2 21"
_symmetry_group_IT_number 20
_symmetry_cell_setting 'orthorhombic'
loop_
_space_group_symop_operation_xyz
x,y,z
-x,-y,1/2+z
x,-y,-z
-x,y,1/2-z
1/2+x,1/2+y,z
1/2-x,1/2-y,1/2+z
1/2+x,1/2-y,-z
1/2-x,1/2+y,1/2-z
loop_
_atom_site_type_symbol
_atom_site_label
_atom_site_fract_x
_atom_site_fract_y
_atom_site_fract_z
Si Si1 0.582919 0.675027 0.702751
Si Si2 0.673606 0.480055 0.913259
Si Si3 0.080438 0.928233 0.660118
Si Si4 0.111054 0.316636 0.870394
Si Si5 0.816612 0.274719 0.451210
Si Si6 0.029968 0.820237 0.039296
Si Si7 0.013175 0.577639 0.619252
Si Si8 0.073892 0.273807 0.205664
O O1 0.500000 0.661539 0.750000
O O2 0.629497 0.550478 0.681415
O O3 0.473574 0.743964 0.668450
O O4 0.744730 0.737923 0.708805
O O5 0.538563 0.461191 0.878211
O O6 0.720615 0.349743 0.927675
O O7 0.606383 0.553938 0.953853
O O8 0.810165 0.557307 0.892928
O O9 0.213613 0.845463 0.641131
O O10 0.994851 0.853381 0.697050
O O11 0.080435 0.251425 0.916726
O O12 0.043607 0.446096 0.874430
O O13 0.908534 0.244649 0.495826
O O14 0.652748 0.330932 0.461278
O O15 0.919797 0.355467 0.419443
O O16 0.977482 0.648963 0.663744
O O17 0.000000 0.325161 0.250000
#
# Coordination Sequence:
#
# PCOD9322066 Si02
#       8
#     8   8   8   8   8   8   8   8
#     4  12  27  48  72 105 145 186 237 298 358 425
#     4  12  25  46  76 101 142 187 239 292 360 423
#     4  12  25  46  76 102 139 187 240 289 359 426
#     4  12  25  48  74 103 143 191 233 295 359 425
#     4  12  27  48  70 107 144 186 241 298 354 435
#     4  12  26  47  73 105 146 186 239 295 361 423
#     4  12  25  48  76 100 145 193 232 295 364 420
#     4  12  26  47  71 106 143 183 242 293 355 430
#
# _framework density 21.204450000000001
#
# number of rings (size 3 to 8) (size 9 to 14) (size 15 to 20)
#    0.000    0.000    5.000    5.250    3.500    1.000 
#    4.500    0.000    0.000    0.000    0.000    0.000 
#    0.000    0.000    0.000    0.000    0.000    0.000 
#
# Total GULP energy -179114.424918 kJ/mol
# GULP energy per Si atom -5597.325779 kJ/mol
# Density = 2.115619 g / cm^3
# Si number density = 21.204450 Si / 1000 Ang^3
#
#
#
# Elastic Constant Matrix: (Units=GPa)
#
#
# Indices 1 2 3 4 5 6 
#
# 1 158.4337 12.3509 49.4628 0.0000 0.0000 0.0000
# 2 12.3509 71.9585 9.5486 0.0000 0.0000 0.0000
# 3 49.4628 9.5486 137.4809 0.0000 0.0000 0.0000
# 4 0.0000 0.0000 0.0000 10.7643 0.0000 0.0000
# 5 0.0000 0.0000 0.0000 0.0000 31.1830 0.0000
# 6 0.0000 0.0000 0.0000 0.0000 0.0000 29.4281
#
#
#
# Elastic Compliance Matrix: (Units=1/GPa)
#
#
# Indices 1 2 3 4 5 6 
#
# 1 0.007167 -0.000896 -0.002516 0.000000 0.000000 0.000000
# 2 -0.000896 0.014138 -0.000659 0.000000 0.000000 0.000000
# 3 -0.002516 -0.000659 0.008225 0.000000 0.000000 0.000000
# 4 0.000000 0.000000 0.000000 0.092899 0.000000 0.000000
# 5 0.000000 0.000000 0.000000 0.000000 0.032069 0.000000
# 6 0.000000 0.000000 0.000000 0.000000 0.000000 0.033981
#
#
# Mechanical properties :
#
#
# Convention : Reuss Voigt Hill
#
# Bulk Modulus (GPa) = 46.75936 56.73308 51.74622
# Shear Modulus (GPa) = 24.53955 34.04248 29.29101
#
# Velocity S-wave (km/s) = 3.40558 4.01114 3.72070
# Velocity P-wave (km/s) = 6.12891 6.94735 6.55092
#
# Compressibility (1/GPa) = 0.02138609
#
# Stress axis : x y z
#
# Youngs Moduli (GPa) = 139.52314 70.73015 121.58227
#
# Poissons Ratio (x) = 0.06339 0.30595
# Poissons Ratio (y) = 0.12505 0.08018
# Poissons Ratio (z) = 0.35109 0.04665
#
# Static dielectric constant tensor:
#      x y z
#    x 1.802450 0.000000 0.000000 
#    y 0.000000 1.780710 0.000000 
#    z 0.000000 0.000000 1.743850 
# 
# From -- ./inp_files/31075.got.cif
#   From: 2010.05.17/outbox.cif.g08.bks.cpg/sg20_16_cif.got.tgz:31075.got - 2010.06.03 22:52:26.
