data_PCOD9322192
_publ_section_title
;
Structure prediction by ZEFSAII (Michael W. Deem and Ramdas Pophale) SiO2 
 PCOD9322192
Probable space group: C 2 2 21
;
_chemical_formula_sum "Si O2"
_cell_formula_units_Z 28
_cell_length_a 15.000000
_cell_length_b 12.000000
_cell_length_c 15.000000
_cell_angle_alpha 90.000000
_cell_angle_beta 90.000000
_cell_angle_gamma 90.000000
_cell_volume 2700.000000
_symmetry_space_group_name_H-M "C 2 2 21"
_symmetry_group_IT_number 20
_symmetry_cell_setting 'orthorhombic'
loop_
_space_group_symop_operation_xyz
x,y,z
-x,-y,1/2+z
x,-y,-z
-x,y,1/2-z
1/2+x,1/2+y,z
1/2-x,1/2-y,1/2+z
1/2+x,1/2-y,-z
1/2-x,1/2+y,1/2-z
loop_
_atom_site_type_symbol
_atom_site_label
_atom_site_fract_x
_atom_site_fract_y
_atom_site_fract_z
Si Si1 0.364484 0.714089 0.874339
Si Si2 0.113638 0.000000 0.000000
Si Si3 0.500000 0.158284 0.250000
Si Si4 0.583946 0.211501 0.813651
Si Si5 0.662843 0.466056 0.603106
Si Si6 0.337717 0.973604 0.693763
Si Si7 0.017885 0.184670 0.463117
Si Si8 0.281557 0.385551 0.654703
O O1 0.430656 0.767926 0.803779
O O2 0.352466 0.584641 0.849703
O O3 0.272628 0.780243 0.882408
O O4 0.411861 0.731299 0.968664
O O5 0.173716 0.036362 0.082183
O O6 0.047179 0.102466 0.982843
O O7 0.565571 0.083400 0.189332
O O8 0.500000 0.193987 0.750000
O O9 0.543047 0.230101 0.911278
O O10 0.639104 0.324022 0.791818
O O11 0.645524 0.103941 0.814399
O O12 0.666838 0.500000 0.500000
O O13 0.761102 0.424972 0.629309
O O14 0.577075 0.386724 0.606858
O O15 0.290788 0.951107 0.788399
#
# Coordination Sequence:
#
# PCOD9322192 Si02
#       8
#     8   4   4   8   8   8   8   8
#     4  10  20  41  59  87 118 154 196 242 295 351
#     4  10  20  40  60  88 116 150 194 244 294 350
#     4  10  24  40  58  84 122 158 200 240 290 356
#     4  11  22  39  61  88 119 157 197 240 295 351
#     4  10  20  39  62  87 118 151 194 248 294 347
#     4  11  22  41  59  87 123 157 199 241 293 351
#     4  10  21  40  62  88 118 150 198 245 293 352
#     4  10  23  39  60  87 120 156 196 243 296 352
#
# _framework density 10.370369999999999
#
# number of rings (size 3 to 8) (size 9 to 14) (size 15 to 20)
#    0.000    1.714    4.286    0.857    0.000    3.429 
#    3.857    0.000    0.000    0.000    0.000    0.000 
#    0.000    0.000    0.000    0.000    0.000    0.000 
#
# Total GULP energy -155981.215370 kJ/mol
# GULP energy per Si atom -5570.757692 kJ/mol
# Density = 1.034677 g / cm^3
# Si number density = 10.370370 Si / 1000 Ang^3
#
#
#
# Elastic Constant Matrix: (Units=GPa)
#
#
# Indices 1 2 3 4 5 6 
#
# 1 101.7447 16.9895 14.6639 0.0000 0.0000 0.0000
# 2 16.9895 50.3014 19.4616 0.0000 0.0000 0.0000
# 3 14.6639 19.4616 21.4076 0.0000 0.0000 0.0000
# 4 0.0000 0.0000 0.0000 17.1344 0.0000 0.0000
# 5 0.0000 0.0000 0.0000 0.0000 41.7735 0.0000
# 6 0.0000 0.0000 0.0000 0.0000 0.0000 8.5034
#
#
#
# Elastic Compliance Matrix: (Units=1/GPa)
#
#
# Indices 1 2 3 4 5 6 
#
# 1 0.010954 -0.001229 -0.006386 0.000000 0.000000 0.000000
# 2 -0.001229 0.030804 -0.027162 0.000000 0.000000 0.000000
# 3 -0.006386 -0.027162 0.075780 0.000000 0.000000 0.000000
# 4 0.000000 0.000000 0.000000 0.058362 0.000000 0.000000
# 5 0.000000 0.000000 0.000000 0.000000 0.023939 0.000000
# 6 0.000000 0.000000 0.000000 0.000000 0.000000 0.117599
#
#
# Mechanical properties :
#
#
# Convention : Reuss Voigt Hill
#
# Bulk Modulus (GPa) = 20.84045 30.63152 25.73598
# Shear Modulus (GPa) = 12.40730 21.63817 17.02273
#
# Velocity S-wave (km/s) = 2.44849 3.23347 2.86796
# Velocity P-wave (km/s) = 4.25010 5.36109 4.83759
#
# Compressibility (1/GPa) = 0.04798362
#
# Stress axis : x y z
#
# Youngs Moduli (GPa) = 91.28962 32.46291 13.19607
#
# Poissons Ratio (x) = 0.03990 0.08427
# Poissons Ratio (y) = 0.11220 0.35844
# Poissons Ratio (z) = 0.58299 0.88177
#
# Static dielectric constant tensor:
#      x y z
#    x 1.735500 0.000000 0.000000 
#    y 0.000000 1.761210 0.000000 
#    z 0.000000 0.000000 1.819000 
# 
# From -- ./inp_files/20781.got.cif
#   From: 2010.05.17/outbox.ucp.g08.bks.cvg/sg20_11_cif.got.tgz:20781.got - 2010.06.11 15:13:06.
