data_PCOD9322493
_publ_section_title
;
Structure prediction by ZEFSAII (Michael W. Deem and Ramdas Pophale) SiO2 
 PCOD9322493
Probable space group: C 2 2 2
;
_chemical_formula_sum "Si O2"
_cell_formula_units_Z 64
_cell_length_a 8.439399
_cell_length_b 15.075563
_cell_length_c 25.729627
_cell_angle_alpha 90.000000
_cell_angle_beta 90.000000
_cell_angle_gamma 90.000000
_cell_volume 3273.546771
_symmetry_space_group_name_H-M "C 2 2 2"
_symmetry_group_IT_number 21
_symmetry_cell_setting 'orthorhombic'
loop_
_space_group_symop_operation_xyz
x,y,z
-x,-y,z
x,-y,-z
-x,y,-z
1/2+x,1/2+y,z
1/2-x,1/2-y,z
1/2+x,1/2-y,-z
1/2-x,1/2+y,-z
loop_
_atom_site_type_symbol
_atom_site_label
_atom_site_fract_x
_atom_site_fract_y
_atom_site_fract_z
Si Si1 0.689803 0.850705 0.389995
Si Si2 0.191215 0.148438 0.000000
Si Si3 0.308246 0.350762 0.113671
Si Si4 0.310198 0.850705 0.389996
Si Si5 0.811380 0.851700 0.499999
Si Si6 0.191289 0.500001 0.310202
Si Si7 0.191614 0.000000 0.807106
Si Si8 0.308246 0.649238 0.113670
O O1 0.750000 0.750000 0.383948
O O2 0.500000 0.848728 0.391568
O O3 0.748908 0.888271 0.445438
O O4 0.742569 0.913768 0.343080
O O5 0.250000 0.250000 0.000000
O O6 0.242459 0.113311 0.056449
O O7 0.242460 0.113311 0.943552
O O8 0.000000 0.145254 0.000000
O O9 0.250000 0.250000 0.119369
O O10 0.254690 0.414228 0.160016
O O11 0.500000 0.349826 0.113915
O O12 0.250000 0.750000 0.383949
O O13 0.251095 0.888271 0.445440
O O14 0.257431 0.913768 0.343081
O O15 0.750000 0.750000 0.499999
O O16 0.000000 0.853128 0.500000
O O17 0.251138 0.500002 0.251682
O O18 0.000000 0.500000 0.309452
O O19 0.245311 0.085771 0.839985
O O20 0.000000 0.000000 0.807026
O O21 0.250000 0.750000 0.119368
#
# Coordination Sequence:
#
# PCOD9322493 Si02
#       8
#     8   8   8   8   8   8   8   8
#     4  10  20  37  58  81 108 140 175 215 261 311
#     4   8  14  27  49  75 104 132 166 207 255 313
#     4   9  18  33  53  78 105 137 171 212 262 313
#     4  10  20  37  58  81 108 140 175 215 261 311
#     4  10  18  31  54  85 114 140 170 209 259 315
#     4  10  24  41  56  75 104 142 183 220 261 310
#     4  10  22  37  53  75 104 136 178 222 261 306
#     4   9  18  33  53  78 105 137 171 212 262 313
#
# _framework density 19.550661000000002
#
# number of rings (size 3 to 8) (size 9 to 14) (size 15 to 20)
#    0.000    2.500    0.000    3.375    0.000    5.000 
#    0.000   10.000    0.000    0.000    0.000    9.625 
#    0.000    0.000    0.000    0.000    0.000    0.000 
#
# Total GULP energy -178482.140533 kJ/mol
# GULP energy per Si atom -5577.566892 kJ/mol
# Density = 1.950616 g / cm^3
# Si number density = 19.550661 Si / 1000 Ang^3
#
#
#
# Elastic Constant Matrix: (Units=GPa)
#
#
# Indices 1 2 3 4 5 6 
#
# 1 37.3087 20.3024 34.0788 0.0000 0.0000 0.0000
# 2 20.3024 111.6469 97.6334 0.0000 0.0000 0.0000
# 3 34.0788 97.6334 238.5055 0.0000 0.0000 0.0000
# 4 0.0000 0.0000 0.0000 36.1877 0.0000 0.0000
# 5 0.0000 0.0000 0.0000 0.0000 31.2664 0.0000
# 6 0.0000 0.0000 0.0000 0.0000 0.0000 17.2708
#
#
#
# Elastic Compliance Matrix: (Units=1/GPa)
#
#
# Indices 1 2 3 4 5 6 
#
# 1 0.031371 -0.002780 -0.003344 0.000000 0.000000 0.000000
# 2 -0.002780 0.014197 -0.005414 0.000000 0.000000 0.000000
# 3 -0.003344 -0.005414 0.006887 0.000000 0.000000 0.000000
# 4 0.000000 0.000000 0.000000 0.027634 0.000000 0.000000
# 5 0.000000 0.000000 0.000000 0.000000 0.031983 0.000000
# 6 0.000000 0.000000 0.000000 0.000000 0.000000 0.057901
#
#
# Mechanical properties :
#
#
# Convention : Reuss Voigt Hill
#
# Bulk Modulus (GPa) = 34.03959 76.83225 55.43592
# Shear Modulus (GPa) = 24.64947 32.64140 28.64543
#
# Velocity S-wave (km/s) = 3.55463 4.09048 3.83193
# Velocity P-wave (km/s) = 5.85627 7.85454 6.92783
#
# Compressibility (1/GPa) = 0.02937756
#
# Stress axis : x y z
#
# Youngs Moduli (GPa) = 31.87644 70.43630 145.19915
#
# Poissons Ratio (x) = 0.19581 0.48561
# Poissons Ratio (y) = 0.08862 0.78618
# Poissons Ratio (z) = 0.10661 0.38138
#
# Static dielectric constant tensor:
#      x y z
#    x 1.671560 0.000000 0.000000 
#    y 0.000000 1.682050 0.000000 
#    z 0.000000 0.000000 1.700710 
# 
# From -- ./inp_files/38521.got.cif
#   From: 2010.05.17/outbox.cif.g08.bks.cpg/sg21_20_cif.got.tgz:38521.got - 2010.06.03 23:14:55.
