data_PCOD9322858
_publ_section_title
;
Structure prediction by ZEFSAII (Michael W. Deem and Ramdas Pophale) SiO2 
 PCOD9322858
Probable space group: C 2 2 2
;
_chemical_formula_sum "Si O2"
_cell_formula_units_Z 56
_cell_length_a 7.904339
_cell_length_b 17.519500
_cell_length_c 17.771475
_cell_angle_alpha 90.000000
_cell_angle_beta 90.000000
_cell_angle_gamma 90.000000
_cell_volume 2460.995051
_symmetry_space_group_name_H-M "C 2 2 2"
_symmetry_group_IT_number 21
_symmetry_cell_setting 'orthorhombic'
loop_
_space_group_symop_operation_xyz
x,y,z
-x,-y,z
x,-y,-z
-x,y,-z
1/2+x,1/2+y,z
1/2-x,1/2-y,z
1/2+x,1/2-y,-z
1/2-x,1/2+y,-z
loop_
_atom_site_type_symbol
_atom_site_label
_atom_site_fract_x
_atom_site_fract_y
_atom_site_fract_z
Si Si1 0.454754 0.827878 0.418147
Si Si2 0.262870 0.586278 0.020210
Si Si3 0.065337 0.358181 0.109106
Si Si4 0.964247 0.588192 0.731286
Si Si5 0.056601 0.086139 0.739763
Si Si6 0.049757 0.153119 0.581662
Si Si7 0.076293 0.799334 0.133389
O O1 0.500000 0.859826 0.500000
O O2 0.519772 0.870341 0.344748
O O3 0.251830 0.835291 0.414233
O O4 0.516930 0.740225 0.415023
O O5 0.226859 0.621937 0.939167
O O6 0.306867 0.500000 0.000000
O O7 0.088657 0.594271 0.069527
O O8 0.383543 0.636974 0.071343
O O9 0.059130 0.379477 0.196056
O O10 0.035219 0.268591 0.101771
O O11 0.761423 0.593830 0.742894
O O12 0.000000 0.500000 0.723926
O O13 0.999052 0.104627 0.654506
O O14 0.003571 0.154630 0.795495
O O15 0.000000 0.000000 0.760908
O O16 0.000000 0.120867 0.500000
O O17 0.250000 0.750000 0.153177
#
# Coordination Sequence:
#
# PCOD9322858 Si02
#       7
#     8   8   8   8   8   8   8
#     4   9  19  35  59  92 118 156 214 259 299 363
#     4  10  19  34  62  91 115 152 203 258 301 367
#     4  10  19  35  64  86 114 158 213 248 294 374
#     4  11  21  36  63  89 122 165 211 254 310 370
#     4  11  23  39  60  91 127 159 206 258 317 371
#     4   9  19  36  61  85 117 168 204 249 310 378
#     4  10  20  39  64  86 120 165 209 251 306 381
#
# _framework density 22.755025
#
# number of rings (size 3 to 8) (size 9 to 14) (size 15 to 20)
#    0.000    2.000    2.857    2.571    2.000    1.714 
#    0.000   10.000    0.000    1.714    0.000    0.000 
#    0.000    0.000    0.000    0.000    0.000    0.000 
#
# Total GULP energy -156532.300718 kJ/mol
# GULP energy per Si atom -5590.439311 kJ/mol
# Density = 2.270323 g / cm^3
# Si number density = 22.755025 Si / 1000 Ang^3
#
#
#
# Elastic Constant Matrix: (Units=GPa)
#
#
# Indices 1 2 3 4 5 6 
#
# 1 36.1458 13.0039 23.8522 0.0000 0.0000 0.0000
# 2 13.0039 160.5908 79.4487 0.0000 0.0000 0.0000
# 3 23.8522 79.4487 197.6171 0.0000 0.0000 0.0000
# 4 0.0000 0.0000 0.0000 50.9556 0.0000 0.0000
# 5 0.0000 0.0000 0.0000 0.0000 24.8624 0.0000
# 6 0.0000 0.0000 0.0000 0.0000 0.0000 45.8851
#
#
#
# Elastic Compliance Matrix: (Units=1/GPa)
#
#
# Indices 1 2 3 4 5 6 
#
# 1 0.030142 -0.000800 -0.003316 0.000000 0.000000 0.000000
# 2 -0.000800 0.007794 -0.003037 0.000000 0.000000 0.000000
# 3 -0.003316 -0.003037 0.006682 0.000000 0.000000 0.000000
# 4 0.000000 0.000000 0.000000 0.019625 0.000000 0.000000
# 5 0.000000 0.000000 0.000000 0.000000 0.040221 0.000000
# 6 0.000000 0.000000 0.000000 0.000000 0.000000 0.021794
#
#
# Mechanical properties :
#
#
# Convention : Reuss Voigt Hill
#
# Bulk Modulus (GPa) = 32.99142 69.66258 51.32700
# Shear Modulus (GPa) = 33.18544 42.87719 38.03131
#
# Velocity S-wave (km/s) = 3.82302 4.34556 4.09263
# Velocity P-wave (km/s) = 5.83243 7.47389 6.70359
#
# Compressibility (1/GPa) = 0.03031091
#
# Stress axis : x y z
#
# Youngs Moduli (GPa) = 33.17622 128.29929 149.66559
#
# Poissons Ratio (x) = 0.10264 0.49637
# Poissons Ratio (y) = 0.02654 0.45453
# Poissons Ratio (z) = 0.11003 0.38964
#
# Static dielectric constant tensor:
#      x y z
#    x 2.382780 0.000000 0.000000 
#    y 0.000000 1.812590 0.000000 
#    z 0.000000 0.000000 1.782940 
# 
# From -- ./inp_files/31586.got.cif
#   From: 2010.05.17/outbox.cif.g08.bks.cpg/sg21_16_cif.got.tgz:31586.got - 2010.06.03 23:14:55.
