data_PCOD9322771
_publ_section_title
;
Structure prediction by ZEFSAII (Michael W. Deem and Ramdas Pophale) SiO2 
 PCOD9322771
Probable space group: C 2 2 2
;
_chemical_formula_sum "Si O2"
_cell_formula_units_Z 64
_cell_length_a 8.618208
_cell_length_b 24.016478
_cell_length_c 18.772329
_cell_angle_alpha 90.000000
_cell_angle_beta 90.000000
_cell_angle_gamma 90.000000
_cell_volume 3885.477937
_symmetry_space_group_name_H-M "C 2 2 2"
_symmetry_group_IT_number 21
_symmetry_cell_setting 'orthorhombic'
loop_
_space_group_symop_operation_xyz
x,y,z
-x,-y,z
x,-y,-z
-x,y,-z
1/2+x,1/2+y,z
1/2-x,1/2-y,z
1/2+x,1/2-y,-z
1/2-x,1/2+y,-z
loop_
_atom_site_type_symbol
_atom_site_label
_atom_site_fract_x
_atom_site_fract_y
_atom_site_fract_z
Si Si1 0.315346 0.686861 0.273452
Si Si2 0.310905 1.000000 0.916944
Si Si3 0.686123 0.813143 0.577655
Si Si4 0.312001 0.119575 0.859954
Si Si5 0.812001 0.619575 0.140046
Si Si6 0.315346 0.313138 0.273452
Si Si7 0.313281 0.811914 0.000000
Si Si8 0.686123 0.186857 0.577655
O O1 0.250000 0.750000 0.264450
O O2 0.256469 0.663515 0.349623
O O3 0.257589 0.647974 0.209726
O O4 0.500000 0.690587 0.274078
O O5 0.263929 0.943818 0.876447
O O6 0.500000 0.000000 0.919257
O O7 0.263929 0.056182 0.876447
O O8 0.260347 0.000000 0.000000
O O9 0.750000 0.750000 0.575807
O O10 0.500000 0.811754 0.583553
O O11 0.726202 0.838392 0.500000
O O12 0.500000 0.120917 0.854657
O O13 0.265219 0.155424 0.929113
O O14 0.742411 0.647974 0.209726
O O15 0.765219 0.655424 0.070887
O O16 0.250000 0.250000 0.264450
O O17 0.256469 0.336485 0.349623
O O18 0.250000 0.750000 0.000000
O O19 0.500000 0.810542 0.000000
O O20 0.750000 0.250000 0.575807
#
# Coordination Sequence:
#
# PCOD9322771 Si02
#       8
#     8   8   8   8   8   8   8   8
#     4  11  21  32  47  70 102 136 167 201 243 292
#     4   9  16  32  57  77  92 119 164 211 253 294
#     4   9  16  27  45  69  97 129 163 198 238 287
#     4  10  19  33  52  73  96 125 163 206 248 293
#     4  10  19  33  52  73  96 125 163 206 248 293
#     4  11  21  32  47  70 102 136 167 201 243 292
#     4  10  20  31  47  69  95 126 159 196 239 290
#     4   9  16  27  45  69  97 129 163 198 238 287
#
# _framework density 16.471589999999999
#
# number of rings (size 3 to 8) (size 9 to 14) (size 15 to 20)
#    0.000    2.125    1.250    5.250    0.000    4.500 
#    0.000    0.625    0.000    0.750    0.000    0.875 
#    0.000    7.000    0.000    0.000    0.000    0.000 
#
# Total GULP energy -178410.054458 kJ/mol
# GULP energy per Si atom -5575.314202 kJ/mol
# Density = 1.643410 g / cm^3
# Si number density = 16.471590 Si / 1000 Ang^3
#
#
#
# Elastic Constant Matrix: (Units=GPa)
#
#
# Indices 1 2 3 4 5 6 
#
# 1 61.4094 31.5540 55.5181 0.0000 0.0000 0.0000
# 2 31.5540 108.5036 78.6927 0.0000 0.0000 0.0000
# 3 55.5181 78.6927 199.4703 0.0000 0.0000 0.0000
# 4 0.0000 0.0000 0.0000 -0.1387 0.0000 0.0000
# 5 0.0000 0.0000 0.0000 0.0000 24.0585 0.0000
# 6 0.0000 0.0000 0.0000 0.0000 0.0000 15.5331
#
#
#
# Elastic Compliance Matrix: (Units=1/GPa)
#
#
# Indices 1 2 3 4 5 6 
#
# 1 0.022344 -0.002784 -0.005121 0.000000 0.000000 0.000000
# 2 -0.002784 0.013257 -0.004455 0.000000 0.000000 0.000000
# 3 -0.005121 -0.004455 0.008196 0.000000 0.000000 0.000000
# 4 0.000000 0.000000 0.000000 -7.208261 0.000000 0.000000
# 5 0.000000 0.000000 0.000000 0.000000 0.041565 0.000000
# 6 0.000000 0.000000 0.000000 0.000000 0.000000 0.064378
#
#
# Mechanical properties :
#
#
# Convention : Reuss Voigt Hill
#
# Bulk Modulus (GPa) = 52.41789 77.87922 65.14856
# Shear Modulus (GPa) = -0.71150 21.46513 10.37682
#
# Velocity S-wave (km/s) = -0.65794 3.61385 2.51267
# Velocity P-wave (km/s) = 5.59599 8.04964 6.93224
#
# Compressibility (1/GPa) = 0.01907746
#
# Stress axis : x y z
#
# Youngs Moduli (GPa) = 44.75451 75.43163 122.00977
#
# Poissons Ratio (x) = 0.21001 0.62476
# Poissons Ratio (y) = 0.12460 0.54357
# Poissons Ratio (z) = 0.22917 0.33606
#
# Static dielectric constant tensor:
#      x y z
#    x 1.560100 0.000000 0.000000 
#    y 0.000000 1.529510 0.000000 
#    z 0.000000 0.000000 1.585340 
# 
# From -- ./inp_files/35931.got.cif
#   From: 2010.05.17/outbox.cif.g08.bks.cpg/sg21_18_cif.got.tgz:35931.got - 2010.06.03 23:14:55.
