data_PCOD9322002
_publ_section_title
;
Structure prediction by ZEFSAII (Michael W. Deem and Ramdas Pophale) SiO2 
 PCOD9322002
Probable space group: C 2 2 21
;
_chemical_formula_sum "Si O2"
_cell_formula_units_Z 32
_cell_length_a 30.241085
_cell_length_b 9.386355
_cell_length_c 4.993987
_cell_angle_alpha 90.000000
_cell_angle_beta 90.000000
_cell_angle_gamma 90.000000
_cell_volume 1417.560986
_symmetry_space_group_name_H-M "C 2 2 21"
_symmetry_group_IT_number 20
_symmetry_cell_setting 'orthorhombic'
loop_
_space_group_symop_operation_xyz
x,y,z
-x,-y,1/2+z
x,-y,-z
-x,y,1/2-z
1/2+x,1/2+y,z
1/2-x,1/2-y,1/2+z
1/2+x,1/2-y,-z
1/2-x,1/2+y,1/2-z
loop_
_atom_site_type_symbol
_atom_site_label
_atom_site_fract_x
_atom_site_fract_y
_atom_site_fract_z
Si Si1 0.000000 0.919596 0.750000
Si Si2 0.467535 0.000000 0.000000
Si Si3 0.914910 0.224014 0.996544
Si Si4 0.856757 0.839570 0.490792
Si Si5 0.729178 0.827635 0.985329
O O1 0.040182 0.842098 0.608313
O O2 0.978931 0.000000 0.500000
O O3 0.433602 0.877245 0.914569
O O4 0.500000 0.964998 0.250000
O O5 0.879255 0.210659 0.233520
O O6 0.893621 0.152354 0.739197
O O7 0.820335 0.722626 0.411948
O O8 0.837032 0.000000 0.500000
O O9 0.739788 0.748137 0.264991
O O10 0.734012 0.000000 0.000000
#
# Coordination Sequence:
#
# PCOD9322002 Si02
#       5
#     4   4   8   8   8
#     4  12  24  42  66  94 136 186 238 288 348 412
#     4  12  26  46  66  94 136 192 238 296 352 416
#     4  12  26  43  69  99 141 184 238 292 354 412
#     4  12  26  46  72 107 143 181 234 295 355 426
#     4  12  27  50  81 112 149 192 237 295 366 442
#
# _framework density 22.573983999999999
#
# number of rings (size 3 to 8) (size 9 to 14) (size 15 to 20)
#    0.000    0.000    1.250    9.750    5.250    0.000 
#    0.000    0.000    0.000    0.000    0.000    0.000 
#    0.000    0.000    0.000    0.000    0.000    0.000 
#
# Total GULP energy -89457.704718 kJ/mol
# GULP energy per Si atom -5591.106545 kJ/mol
# Density = 2.252260 g / cm^3
# Si number density = 22.573984 Si / 1000 Ang^3
#
#
#
# Elastic Constant Matrix: (Units=GPa)
#
#
# Indices 1 2 3 4 5 6 
#
# 1 72.3024 28.0559 -1.9719 0.0000 0.0000 0.0000
# 2 28.0559 142.7710 6.9257 0.0000 0.0000 0.0000
# 3 -1.9719 6.9257 89.3081 0.0000 0.0000 0.0000
# 4 0.0000 0.0000 0.0000 25.9814 0.0000 0.0000
# 5 0.0000 0.0000 0.0000 0.0000 34.8455 0.0000
# 6 0.0000 0.0000 0.0000 0.0000 0.0000 40.9569
#
#
#
# Elastic Compliance Matrix: (Units=1/GPa)
#
#
# Indices 1 2 3 4 5 6 
#
# 1 0.015001 -0.002975 0.000562 0.000000 0.000000 0.000000
# 2 -0.002975 0.007621 -0.000657 0.000000 0.000000 0.000000
# 3 0.000562 -0.000657 0.011261 0.000000 0.000000 0.000000
# 4 0.000000 0.000000 0.000000 0.038489 0.000000 0.000000
# 5 0.000000 0.000000 0.000000 0.000000 0.028698 0.000000
# 6 0.000000 0.000000 0.000000 0.000000 0.000000 0.024416
#
#
# Mechanical properties :
#
#
# Convention : Reuss Voigt Hill
#
# Bulk Modulus (GPa) = 36.04613 41.15566 38.60090
# Shear Modulus (GPa) = 35.49325 38.44819 36.97072
#
# Velocity S-wave (km/s) = 3.96954 4.13147 4.05131
# Velocity P-wave (km/s) = 6.08377 6.40545 6.24668
#
# Compressibility (1/GPa) = 0.02774223
#
# Stress axis : x y z
#
# Youngs Moduli (GPa) = 66.66431 131.22159 88.80580
#
# Poissons Ratio (x) = 0.39039 -0.04990
# Poissons Ratio (y) = 0.19833 0.05831
# Poissons Ratio (z) = -0.03746 0.08617
#
# Static dielectric constant tensor:
#      x y z
#    x 1.868030 0.000000 0.000000 
#    y 0.000000 2.066070 0.000000 
#    z 0.000000 0.000000 1.743960 
# 
# From -- ./inp_files/4524.got.cif
#   From: 2010.05.17/outbox.cif.g08.bks.cpg/sg20_3_cif.got.tgz:4524.got - 2010.06.03 22:52:26.
