data_PCOD9322000
_publ_section_title
;
Structure prediction by ZEFSAII (Michael W. Deem and Ramdas Pophale) SiO2 
 PCOD9322000
Probable space group: C 2 2 21
;
_chemical_formula_sum "Si O2"
_cell_formula_units_Z 36
_cell_length_a 7.535249
_cell_length_b 22.033358
_cell_length_c 9.346157
_cell_angle_alpha 90.000000
_cell_angle_beta 90.000000
_cell_angle_gamma 90.000000
_cell_volume 1551.712902
_symmetry_space_group_name_H-M "C 2 2 21"
_symmetry_group_IT_number 20
_symmetry_cell_setting 'orthorhombic'
loop_
_space_group_symop_operation_xyz
x,y,z
-x,-y,1/2+z
x,-y,-z
-x,y,1/2-z
1/2+x,1/2+y,z
1/2-x,1/2-y,1/2+z
1/2+x,1/2-y,-z
1/2-x,1/2+y,1/2-z
loop_
_atom_site_type_symbol
_atom_site_label
_atom_site_fract_x
_atom_site_fract_y
_atom_site_fract_z
Si Si1 0.629319 0.122773 0.125538
Si Si2 0.295168 0.334928 0.282098
Si Si3 0.641625 0.242111 0.979141
Si Si4 0.428376 0.949089 0.102593
Si Si5 0.500000 0.663240 0.250000
O O1 0.500000 0.103214 0.250000
O O2 0.828329 0.127250 0.189509
O O3 0.559963 0.190261 0.081009
O O4 0.589826 0.079509 0.990798
O O5 0.500000 0.348760 0.250000
O O6 0.264021 0.284167 0.403343
O O7 0.233246 0.302210 0.136298
O O8 0.194927 0.393832 0.342491
O O9 0.550821 0.292950 0.881503
O O10 0.500000 0.975795 0.250000
O O11 0.343380 0.000000 0.000000
#
# Coordination Sequence:
#
# PCOD9322000 Si02
#       5
#     8   8   8   8   4
#     4  12  26  46  73 111 155 210 260 330 400 481
#     4  12  27  46  80 120 160 212 261 333 415 494
#     4  12  24  41  71 115 164 191 250 326 411 489
#     4  12  28  53  80 108 157 219 280 335 398 475
#     4  12  26  40  72 112 160 210 252 318 412 496
#
# _framework density 23.200168999999999
#
# number of rings (size 3 to 8) (size 9 to 14) (size 15 to 20)
#    0.000    0.000    4.444    5.333    6.222    0.000 
#    0.000    1.111   12.222    0.000    0.000    0.000 
#    0.000    0.000    0.000    0.000    0.000    0.000 
#
# Total GULP energy -100526.196911 kJ/mol
# GULP energy per Si atom -5584.788717 kJ/mol
# Density = 2.314736 g / cm^3
# Si number density = 23.200169 Si / 1000 Ang^3
#
#
#
# Elastic Constant Matrix: (Units=GPa)
#
#
# Indices 1 2 3 4 5 6 
#
# 1 141.0510 48.7760 59.6475 0.0000 0.0000 0.0000
# 2 48.7760 147.5849 75.4726 0.0000 0.0000 0.0000
# 3 59.6475 75.4726 192.3004 0.0000 0.0000 0.0000
# 4 0.0000 0.0000 0.0000 44.0276 0.0000 0.0000
# 5 0.0000 0.0000 0.0000 0.0000 44.4533 0.0000
# 6 0.0000 0.0000 0.0000 0.0000 0.0000 -2.4538
#
#
#
# Elastic Compliance Matrix: (Units=1/GPa)
#
#
# Indices 1 2 3 4 5 6 
#
# 1 0.008540 -0.001836 -0.001928 0.000000 0.000000 0.000000
# 2 -0.001836 0.008872 -0.002912 0.000000 0.000000 0.000000
# 3 -0.001928 -0.002912 0.006941 0.000000 0.000000 0.000000
# 4 0.000000 0.000000 0.000000 0.022713 0.000000 0.000000
# 5 0.000000 0.000000 0.000000 0.000000 0.022496 0.000000
# 6 0.000000 0.000000 0.000000 0.000000 0.000000 -0.407533
#
#
# Mechanical properties :
#
#
# Convention : Reuss Voigt Hill
#
# Bulk Modulus (GPa) = 90.91410 94.30316 92.60863
# Shear Modulus (GPa) = -15.57875 37.00811 10.71468
#
# Velocity S-wave (km/s) = -2.59413 3.99829 2.15137
# Velocity P-wave (km/s) = 5.50447 7.87724 6.79522
#
# Compressibility (1/GPa) = 0.01099939
#
# Stress axis : x y z
#
# Youngs Moduli (GPa) = 117.09515 112.71355 144.06449
#
# Poissons Ratio (x) = 0.20699 0.27779
# Poissons Ratio (y) = 0.21503 0.41958
# Poissons Ratio (z) = 0.22578 0.32827
#
# Static dielectric constant tensor:
#      x y z
#    x 1.930390 0.000000 0.000000 
#    y 0.000000 1.847050 0.000000 
#    z 0.000000 0.000000 1.973830 
# 
# From -- ./inp_files/5906.got.cif
#   From: 2010.05.17/outbox.cif.g08.bks.cpg/sg20_3_cif.got.tgz:5906.got - 2010.06.03 22:52:26.
