data_PCOD9322837
_publ_section_title
;
Structure prediction by ZEFSAII (Michael W. Deem and Ramdas Pophale) SiO2 
 PCOD9322837
Probable space group: C 2 2 2
;
_chemical_formula_sum "Si O2"
_cell_formula_units_Z 48
_cell_length_a 19.379241
_cell_length_b 8.101668
_cell_length_c 13.824504
_cell_angle_alpha 90.000000
_cell_angle_beta 90.000000
_cell_angle_gamma 90.000000
_cell_volume 2170.504868
_symmetry_space_group_name_H-M "C 2 2 2"
_symmetry_group_IT_number 21
_symmetry_cell_setting 'orthorhombic'
loop_
_space_group_symop_operation_xyz
x,y,z
-x,-y,z
x,-y,-z
-x,y,-z
1/2+x,1/2+y,z
1/2-x,1/2-y,z
1/2+x,1/2-y,-z
1/2-x,1/2+y,-z
loop_
_atom_site_type_symbol
_atom_site_label
_atom_site_fract_x
_atom_site_fract_y
_atom_site_fract_z
Si Si1 0.714800 0.429111 0.313249
Si Si2 0.513745 0.821326 0.284016
Si Si3 0.341398 0.898597 0.773063
Si Si4 0.173605 0.304649 0.014723
Si Si5 0.500000 0.750123 0.500000
Si Si6 0.876128 0.000000 0.500000
Si Si7 0.889874 0.223963 0.171836
O O1 0.750000 0.250000 0.331288
O O2 0.772503 0.564058 0.286865
O O3 0.670849 0.474637 0.406747
O O4 0.663592 0.398441 0.223220
O O5 0.595956 0.808587 0.281450
O O6 0.488498 0.828576 0.394693
O O7 0.464951 0.702689 0.220896
O O8 0.500000 0.000000 0.237707
O O9 0.332056 0.791787 0.870230
O O10 0.364237 0.088675 0.800252
O O11 0.250000 0.250000 0.982855
O O12 0.167056 0.500000 0.000000
O O13 0.118932 0.217053 0.943903
O O14 0.430056 0.647992 0.514427
#
# Coordination Sequence:
#
# PCOD9322837 Si02
#       7
#     8   8   8   8   4   4   8
#     4  10  20  39  59  87 124 163 207 260 316 378
#     4  10  20  37  59  83 117 160 207 261 309 380
#     4   9  20  33  56  89 117 150 203 261 314 362
#     4  10  19  34  58  87 120 161 204 261 324 382
#     4  11  23  40  56  84 119 163 208 246 326 379
#     4  11  24  38  60  84 117 170 206 254 319 386
#     4   9  17  35  58  81 118 160 200 247 311 378
#
# _framework density 22.114671000000001
#
# number of rings (size 3 to 8) (size 9 to 14) (size 15 to 20)
#    0.000    2.167    1.667    2.750    0.000    3.333 
#    0.000    3.333    0.000    0.000    0.000    1.167 
#    0.000    0.000    0.000    0.000    0.000    0.000 
#
# Total GULP energy -133837.336951 kJ/mol
# GULP energy per Si atom -5576.555706 kJ/mol
# Density = 2.206434 g / cm^3
# Si number density = 22.114671 Si / 1000 Ang^3
#
#
#
# Elastic Constant Matrix: (Units=GPa)
#
#
# Indices 1 2 3 4 5 6 
#
# 1 150.1995 40.9645 67.5902 0.0000 0.0000 0.0000
# 2 40.9645 42.0406 33.4166 0.0000 0.0000 0.0000
# 3 67.5902 33.4166 121.0564 0.0000 0.0000 0.0000
# 4 0.0000 0.0000 0.0000 26.9897 0.0000 0.0000
# 5 0.0000 0.0000 0.0000 0.0000 34.7911 0.0000
# 6 0.0000 0.0000 0.0000 0.0000 0.0000 41.9965
#
#
#
# Elastic Compliance Matrix: (Units=1/GPa)
#
#
# Indices 1 2 3 4 5 6 
#
# 1 0.010278 -0.006986 -0.003810 0.000000 0.000000 0.000000
# 2 -0.006986 0.035222 -0.005822 0.000000 0.000000 0.000000
# 3 -0.003810 -0.005822 0.011995 0.000000 0.000000 0.000000
# 4 0.000000 0.000000 0.000000 0.037051 0.000000 0.000000
# 5 0.000000 0.000000 0.000000 0.000000 0.028743 0.000000
# 6 0.000000 0.000000 0.000000 0.000000 0.000000 0.023811
#
#
# Mechanical properties :
#
#
# Convention : Reuss Voigt Hill
#
# Bulk Modulus (GPa) = 41.22350 66.35991 53.79170
# Shear Modulus (GPa) = 26.53617 32.17715 29.35666
#
# Velocity S-wave (km/s) = 3.46777 3.81860 3.64740
# Velocity P-wave (km/s) = 5.89195 7.03666 6.48960
#
# Compressibility (1/GPa) = 0.02425801
#
# Stress axis : x y z
#
# Youngs Moduli (GPa) = 97.29844 28.39164 83.36852
#
# Poissons Ratio (x) = 0.19835 0.31763
# Poissons Ratio (y) = 0.67975 0.48537
# Poissons Ratio (z) = 0.37070 0.16530
#
# Static dielectric constant tensor:
#      x y z
#    x 1.836580 0.000000 0.000000 
#    y 0.000000 1.851390 0.000000 
#    z 0.000000 0.000000 1.750070 
# 
# From -- ./inp_files/32865.got.cif
#   From: 2010.05.17/outbox.cif.g08.bks.cpg/sg21_17_cif.got.tgz:32865.got - 2010.06.03 23:14:55.
