data_PCOD9322704
_publ_section_title
;
Structure prediction by ZEFSAII (Michael W. Deem and Ramdas Pophale) SiO2 
 PCOD9322704
Probable space group: C 2 2 2
;
_chemical_formula_sum "Si O2"
_cell_formula_units_Z 36
_cell_length_a 22.328296
_cell_length_b 5.091209
_cell_length_c 19.212670
_cell_angle_alpha 90.000000
_cell_angle_beta 90.000000
_cell_angle_gamma 90.000000
_cell_volume 2184.058314
_symmetry_space_group_name_H-M "C 2 2 2"
_symmetry_group_IT_number 21
_symmetry_cell_setting 'orthorhombic'
loop_
_space_group_symop_operation_xyz
x,y,z
-x,-y,z
x,-y,-z
-x,y,-z
1/2+x,1/2+y,z
1/2-x,1/2-y,z
1/2+x,1/2-y,-z
1/2-x,1/2+y,-z
loop_
_atom_site_type_symbol
_atom_site_label
_atom_site_fract_x
_atom_site_fract_y
_atom_site_fract_z
Si Si1 0.137342 0.569299 0.866503
Si Si2 0.750000 0.250000 0.956211
Si Si3 0.070389 0.942985 0.081348
Si Si4 0.793663 0.500087 0.425402
Si Si5 0.293924 0.000992 0.727606
O O1 0.197732 0.617212 0.910979
O O2 0.095075 0.344849 0.899438
O O3 0.158413 0.497714 0.789264
O O4 0.104271 0.846602 0.871167
O O5 0.725926 0.500000 0.000000
O O6 0.000000 0.000000 0.090633
O O7 0.083211 0.000000 0.000000
O O8 0.827303 0.500000 0.500000
O O9 0.750000 0.250000 0.425482
O O10 0.823613 0.501098 0.349492
O O11 0.750000 0.750000 0.425644
O O12 0.250000 0.250000 0.733434
O O13 0.250000 0.750000 0.734465
#
# Coordination Sequence:
#
# PCOD9322704 Si02
#       5
#     8   4   8   8   8
#     4  12  22  36  54  75 103 130 163 207 256 307
#     4  12  24  34  50  76 108 134 162 198 256 324
#     4  11  24  41  56  70  91 129 178 222 255 286
#     4   8  14  25  42  63  93 133 165 185 216 278
#     4  10  19  31  46  72 106 133 157 192 244 297
#
# _framework density 16.483074999999999
#
# number of rings (size 3 to 8) (size 9 to 14) (size 15 to 20)
#    0.000    1.556    1.111    6.000    1.556    1.778 
#    0.000    0.000    0.000    0.000    0.000    0.000 
#    0.000    5.333    0.000    0.000    0.000    0.000 
#
# Total GULP energy -100342.219690 kJ/mol
# GULP energy per Si atom -5574.567761 kJ/mol
# Density = 1.644556 g / cm^3
# Si number density = 16.483075 Si / 1000 Ang^3
#
#
#
# Elastic Constant Matrix: (Units=GPa)
#
#
# Indices 1 2 3 4 5 6 
#
# 1 59.7259 6.0844 22.2975 0.0000 0.0000 0.0000
# 2 6.0844 103.7240 0.9541 0.0000 0.0000 0.0000
# 3 22.2975 0.9541 126.6374 0.0000 0.0000 0.0000
# 4 0.0000 0.0000 0.0000 23.1963 0.0000 0.0000
# 5 0.0000 0.0000 0.0000 0.0000 11.0991 0.0000
# 6 0.0000 0.0000 0.0000 0.0000 0.0000 24.9720
#
#
#
# Elastic Compliance Matrix: (Units=1/GPa)
#
#
# Indices 1 2 3 4 5 6 
#
# 1 0.018030 -0.001029 -0.003167 0.000000 0.000000 0.000000
# 2 -0.001029 0.009700 0.000108 0.000000 0.000000 0.000000
# 3 -0.003167 0.000108 0.008453 0.000000 0.000000 0.000000
# 4 0.000000 0.000000 0.000000 0.043110 0.000000 0.000000
# 5 0.000000 0.000000 0.000000 0.000000 0.090097 0.000000
# 6 0.000000 0.000000 0.000000 0.000000 0.000000 0.040045
#
#
# Mechanical properties :
#
#
# Convention : Reuss Voigt Hill
#
# Bulk Modulus (GPa) = 35.70270 38.75104 37.22687
# Shear Modulus (GPa) = 22.03153 29.23692 25.63422
#
# Velocity S-wave (km/s) = 3.65994 4.21616 3.94786
# Velocity P-wave (km/s) = 6.29027 6.87474 6.58899
#
# Compressibility (1/GPa) = 0.02800908
#
# Stress axis : x y z
#
# Youngs Moduli (GPa) = 55.46242 103.08954 118.29626
#
# Poissons Ratio (x) = 0.10603 0.37463
# Poissons Ratio (y) = 0.05704 -0.01278
# Poissons Ratio (z) = 0.17564 -0.01113
#
# Static dielectric constant tensor:
#      x y z
#    x 1.562940 0.000000 0.000000 
#    y 0.000000 1.587090 0.000000 
#    z 0.000000 0.000000 1.630110 
# 
# From -- ./inp_files/36959.got.cif
#   From: 2010.05.17/outbox.cif.g08.bks.cpg/sg21_19_cif.got.tgz:36959.got - 2010.06.03 23:14:55.
