data_PCOD9322957
_publ_section_title
;
Structure prediction by ZEFSAII (Michael W. Deem and Ramdas Pophale) SiO2 
 PCOD9322957
Probable space group: C 2 2 2
;
_chemical_formula_sum "Si O2"
_cell_formula_units_Z 64
_cell_length_a 11.775498
_cell_length_b 32.067506
_cell_length_c 8.866677
_cell_angle_alpha 90.000000
_cell_angle_beta 90.000000
_cell_angle_gamma 90.000000
_cell_volume 3348.153463
_symmetry_space_group_name_H-M "C 2 2 2"
_symmetry_group_IT_number 21
_symmetry_cell_setting 'orthorhombic'
loop_
_space_group_symop_operation_xyz
x,y,z
-x,-y,z
x,-y,-z
-x,y,-z
1/2+x,1/2+y,z
1/2-x,1/2-y,z
1/2+x,1/2-y,-z
1/2-x,1/2+y,-z
loop_
_atom_site_type_symbol
_atom_site_label
_atom_site_fract_x
_atom_site_fract_y
_atom_site_fract_z
Si Si1 0.320008 0.064381 0.132278
Si Si2 0.419466 0.331865 0.808722
Si Si3 0.686038 0.205665 0.661129
Si Si4 0.687760 0.827717 0.674945
Si Si5 0.962523 0.733910 0.828753
Si Si6 0.533897 0.904858 0.671759
Si Si7 0.124132 0.521434 0.186506
Si Si8 0.160097 0.142733 0.143285
O O1 0.426821 0.085738 0.219060
O O2 0.220573 0.098035 0.136484
O O3 0.296901 0.018894 0.206501
O O4 0.348372 0.049435 0.960922
O O5 0.318113 0.340042 0.694546
O O6 0.451826 0.283135 0.802533
O O7 0.535086 0.357133 0.782702
O O8 0.367439 0.341485 0.973982
O O9 0.750000 0.250000 0.648974
O O10 0.671326 0.185599 0.497257
O O11 0.562315 0.214782 0.727616
O O12 0.758319 0.175064 0.769116
O O13 0.652793 0.789305 0.782267
O O14 0.606371 0.865420 0.722540
O O15 0.000000 0.726897 0.000000
O O16 0.500000 0.897763 0.500000
O O17 0.611535 0.946220 0.679130
O O18 0.000000 0.500000 0.167495
#
# Coordination Sequence:
#
# PCOD9322957 Si02
#       8
#     8   8   8   8   8   8   8   8
#     4  10  19  36  62  88 118 149 192 237 305 365
#     4  11  23  41  56  83 115 159 207 248 301 347
#     4  12  23  41  60  84 119 157 203 254 307 355
#     4  12  26  37  58  86 121 162 205 255 297 357
#     4  12  22  40  60  84 114 153 208 257 304 352
#     4  11  21  37  55  90 125 151 193 240 304 362
#     4   9  19  35  60  91 123 154 184 242 313 376
#     4  11  22  40  62  84 115 159 202 254 297 362
#
# _framework density 19.115013999999999
#
# number of rings (size 3 to 8) (size 9 to 14) (size 15 to 20)
#    0.000    1.000    2.500    7.875    0.000    3.750 
#    0.000    0.000    0.000   12.750    0.000    0.000 
#    0.000   28.000    0.000    0.000    0.000    0.000 
#
# Total GULP energy -178722.989467 kJ/mol
# GULP energy per Si atom -5585.093421 kJ/mol
# Density = 1.907151 g / cm^3
# Si number density = 19.115014 Si / 1000 Ang^3
#
#
#
# Elastic Constant Matrix: (Units=GPa)
#
#
# Indices 1 2 3 4 5 6 
#
# 1 106.3677 69.0613 28.7545 0.0000 0.0000 0.0000
# 2 69.0613 137.3776 27.6861 0.0000 0.0000 0.0000
# 3 28.7545 27.6861 40.0155 0.0000 0.0000 0.0000
# 4 0.0000 0.0000 0.0000 24.3106 0.0000 0.0000
# 5 0.0000 0.0000 0.0000 0.0000 26.1088 0.0000
# 6 0.0000 0.0000 0.0000 0.0000 0.0000 32.9138
#
#
#
# Elastic Compliance Matrix: (Units=1/GPa)
#
#
# Indices 1 2 3 4 5 6 
#
# 1 0.015324 -0.006373 -0.006602 0.000000 0.000000 0.000000
# 2 -0.006373 0.011109 -0.003107 0.000000 0.000000 0.000000
# 3 -0.006602 -0.003107 0.031884 0.000000 0.000000 0.000000
# 4 0.000000 0.000000 0.000000 0.041134 0.000000 0.000000
# 5 0.000000 0.000000 0.000000 0.000000 0.038301 0.000000
# 6 0.000000 0.000000 0.000000 0.000000 0.000000 0.030382
#
#
# Mechanical properties :
#
#
# Convention : Reuss Voigt Hill
#
# Bulk Modulus (GPa) = 38.23599 59.41826 48.82713
# Shear Modulus (GPa) = 23.92160 27.21725 25.56942
#
# Velocity S-wave (km/s) = 3.54143 3.77751 3.66137
# Velocity P-wave (km/s) = 6.06373 7.08366 6.59345
#
# Compressibility (1/GPa) = 0.02615337
#
# Stress axis : x y z
#
# Youngs Moduli (GPa) = 65.25766 90.01668 31.36369
#
# Poissons Ratio (x) = 0.57367 0.20707
# Poissons Ratio (y) = 0.41588 0.09744
# Poissons Ratio (z) = 0.43084 0.27965
#
# Static dielectric constant tensor:
#      x y z
#    x 1.684010 0.000000 0.000000 
#    y 0.000000 1.683540 0.000000 
#    z 0.000000 0.000000 1.677590 
# 
# From -- ./inp_files/13683.got.cif
#   From: 2010.05.17/outbox.cif.g08.bks.cpg/sg21_7_cif.got.tgz:13683.got - 2010.06.03 23:14:55.
