data_PCOD9322352
_publ_section_title
;
Structure prediction by ZEFSAII (Michael W. Deem and Ramdas Pophale) SiO2 
 PCOD9322352
Probable space group: C 2 2 2
;
_chemical_formula_sum "Si O2"
_cell_formula_units_Z 58
_cell_length_a 8.150414
_cell_length_b 17.370689
_cell_length_c 18.045208
_cell_angle_alpha 90.000000
_cell_angle_beta 90.000000
_cell_angle_gamma 90.000000
_cell_volume 2554.809995
_symmetry_space_group_name_H-M "C 2 2 2"
_symmetry_group_IT_number 21
_symmetry_cell_setting 'orthorhombic'
loop_
_space_group_symop_operation_xyz
x,y,z
-x,-y,z
x,-y,-z
-x,y,-z
1/2+x,1/2+y,z
1/2-x,1/2-y,z
1/2+x,1/2-y,-z
1/2-x,1/2+y,-z
loop_
_atom_site_type_symbol
_atom_site_label
_atom_site_fract_x
_atom_site_fract_y
_atom_site_fract_z
Si Si1 0.465806 0.400162 0.381271
Si Si2 0.739306 0.549840 0.237088
Si Si3 0.388891 0.886653 0.219159
Si Si4 0.597707 0.209180 0.068019
Si Si5 0.027959 0.255326 0.684334
Si Si6 0.659414 0.825913 0.452304
Si Si7 0.388794 0.310073 0.162910
Si Si8 0.000000 0.000000 0.500000
O O1 0.378687 0.435383 0.307955
O O2 0.559428 0.321491 0.362707
O O3 0.307052 0.382938 0.432962
O O4 0.584181 0.448260 0.435561
O O5 0.767294 0.458999 0.225425
O O6 0.660631 0.601538 0.171557
O O7 0.925766 0.584720 0.239799
O O8 0.386402 0.849850 0.136866
O O9 0.353123 0.817886 0.277297
O O10 0.750000 0.250000 0.029790
O O11 0.529520 0.286841 0.107576
O O12 0.500000 0.173209 0.000000
O O13 0.911411 0.301697 0.628201
O O14 0.935816 0.220032 0.755344
O O15 0.500000 0.848935 0.500000
O O16 0.750000 0.750000 0.485057
O O17 0.250000 0.250000 0.139942
#
# Coordination Sequence:
#
# PCOD9322352 Si02
#       8
#     8   8   8   8   8   8   8   2
#     4  10  22  41  61  81 132 178 229 272 362 416
#     4  10  19  38  70  95 123 172 217 300 339 397
#     4  10  20  38  67 102 128 158 240 278 339 409
#     4  11  24  41  67  99 140 181 224 275 340 426
#     4   9  17  35  64  87 118 168 220 271 332 410
#     4  10  20  34  58  88 118 160 213 269 330 405
#     4  10  16  36  67  91 122 176 222 268 334 408
#     4  12  28  44  54  96 132 190 232 296 364 440
#
# _framework density 22.702273999999999
#
# number of rings (size 3 to 8) (size 9 to 14) (size 15 to 20)
#    0.000    1.931    4.138    1.655    3.862    1.103 
#    7.448    4.138    0.000    0.828    0.000    0.000 
#    0.000    0.000    0.000    0.000    0.000    0.000 
#
# Total GULP energy -161457.231416 kJ/mol
# GULP energy per Si atom -5567.490738 kJ/mol
# Density = 2.265060 g / cm^3
# Si number density = 22.702274 Si / 1000 Ang^3
#
#
#
# Elastic Constant Matrix: (Units=GPa)
#
#
# Indices 1 2 3 4 5 6 
#
# 1 40.4790 25.9876 22.9756 0.0000 0.0000 0.0000
# 2 25.9876 168.5609 57.8091 0.0000 0.0000 0.0000
# 3 22.9756 57.8091 124.2095 0.0000 0.0000 0.0000
# 4 0.0000 0.0000 0.0000 13.0903 0.0000 0.0000
# 5 0.0000 0.0000 0.0000 0.0000 -47.7920 0.0000
# 6 0.0000 0.0000 0.0000 0.0000 0.0000 29.4013
#
#
#
# Elastic Compliance Matrix: (Units=1/GPa)
#
#
# Indices 1 2 3 4 5 6 
#
# 1 0.028920 -0.003122 -0.003896 0.000000 0.000000 0.000000
# 2 -0.003122 0.007397 -0.002865 0.000000 0.000000 0.000000
# 3 -0.003896 -0.002865 0.010105 0.000000 0.000000 0.000000
# 4 0.000000 0.000000 0.000000 0.076392 0.000000 0.000000
# 5 0.000000 0.000000 0.000000 0.000000 -0.020924 0.000000
# 6 0.000000 0.000000 0.000000 0.000000 0.000000 0.034012
#
#
# Mechanical properties :
#
#
# Convention : Reuss Voigt Hill
#
# Bulk Modulus (GPa) = 37.51708 60.75489 49.13599
# Shear Modulus (GPa) = 30.38512 14.03840 22.21176
#
# Velocity S-wave (km/s) = 3.66241 2.48940 3.13132
# Velocity P-wave (km/s) = 5.86906 5.92305 5.89612
#
# Compressibility (1/GPa) = 0.02665453
#
# Stress axis : x y z
#
# Youngs Moduli (GPa) = 34.57779 135.19904 98.96112
#
# Poissons Ratio (x) = 0.42216 0.38558
# Poissons Ratio (y) = 0.10797 0.28351
# Poissons Ratio (z) = 0.13472 0.38733
#
# Static dielectric constant tensor:
#      x y z
#    x 1.865890 0.000000 0.000000 
#    y 0.000000 1.955270 0.000000 
#    z 0.000000 0.000000 1.805740 
# 
# From -- ./inp_files/35804.got.cif
#   From: 2010.05.17/outbox.cif.g08.bks.cpg/sg21_18_cif.got.tgz:35804.got - 2010.06.03 23:14:55.
