data_PCOD9322588
_publ_section_title
;
Structure prediction by ZEFSAII (Michael W. Deem and Ramdas Pophale) SiO2 
 PCOD9322588
Probable space group: C 2 2 2
;
_chemical_formula_sum "Si O2"
_cell_formula_units_Z 38
_cell_length_a 13.238644
_cell_length_b 5.422334
_cell_length_c 21.339114
_cell_angle_alpha 90.000000
_cell_angle_beta 90.000000
_cell_angle_gamma 90.000000
_cell_volume 1531.814417
_symmetry_space_group_name_H-M "C 2 2 2"
_symmetry_group_IT_number 21
_symmetry_cell_setting 'orthorhombic'
loop_
_space_group_symop_operation_xyz
x,y,z
-x,-y,z
x,-y,-z
-x,y,-z
1/2+x,1/2+y,z
1/2-x,1/2-y,z
1/2+x,1/2-y,-z
1/2-x,1/2+y,-z
loop_
_atom_site_type_symbol
_atom_site_label
_atom_site_fract_x
_atom_site_fract_y
_atom_site_fract_z
Si Si1 0.356429 0.104128 0.634365
Si Si2 0.846560 0.377013 0.063922
Si Si3 0.095864 0.147833 0.753809
Si Si4 0.250000 0.250000 0.277784
Si Si5 0.500000 0.000000 0.153467
Si Si6 0.818075 0.500000 0.500000
Si Si7 0.000000 0.000000 0.000000
O O1 0.250000 0.250000 0.629454
O O2 0.420018 0.270879 0.681536
O O3 0.381649 0.043892 0.563234
O O4 0.333365 0.863358 0.675397
O O5 0.750000 0.250000 0.095613
O O6 0.911279 0.574282 0.103723
O O7 0.926977 0.168592 0.042998
O O8 0.809079 0.500000 0.000000
O O9 0.080596 0.379361 0.798202
O O10 0.194745 0.975870 0.756939
O O11 0.000000 0.000000 0.776991
O O12 0.750000 0.750000 0.489730
#
# Coordination Sequence:
#
# PCOD9322588 Si02
#       7
#     8   8   8   4   4   4   2
#     4   9  19  37  65 102 138 184 245 310 377 442
#     4  12  26  47  81 113 144 189 239 300 375 444
#     4  11  25  43  69 100 149 196 248 310 374 453
#     4  10  20  42  70  94 136 198 246 300 374 446
#     4  12  27  46  70 109 152 194 250 312 370 457
#     4  10  18  34  68 111 139 188 260 324 389 466
#     4  12  22  48  80 108 156 184 230 298 364 448
#
# _framework density 24.807183999999999
#
# number of rings (size 3 to 8) (size 9 to 14) (size 15 to 20)
#    0.000    1.263    4.211    1.263    1.474    4.211 
#    0.000    0.000    6.947    9.474    0.000    0.000 
#    0.000    0.000    0.000    0.000    0.000    0.000 
#
# Total GULP energy -105856.193731 kJ/mol
# GULP energy per Si atom -5571.378617 kJ/mol
# Density = 2.475072 g / cm^3
# Si number density = 24.807184 Si / 1000 Ang^3
#
#
#
# Elastic Constant Matrix: (Units=GPa)
#
#
# Indices 1 2 3 4 5 6 
#
# 1 126.7381 34.1415 40.9932 0.0000 0.0000 0.0000
# 2 34.1415 96.2335 24.6658 0.0000 0.0000 0.0000
# 3 40.9932 24.6658 120.2394 0.0000 0.0000 0.0000
# 4 0.0000 0.0000 0.0000 -137.9007 0.0000 0.0000
# 5 0.0000 0.0000 0.0000 0.0000 45.7317 0.0000
# 6 0.0000 0.0000 0.0000 0.0000 0.0000 39.7765
#
#
#
# Elastic Compliance Matrix: (Units=1/GPa)
#
#
# Indices 1 2 3 4 5 6 
#
# 1 0.009479 -0.002675 -0.002683 0.000000 0.000000 0.000000
# 2 -0.002675 0.011723 -0.001493 0.000000 0.000000 0.000000
# 3 -0.002683 -0.001493 0.009538 0.000000 0.000000 0.000000
# 4 0.000000 0.000000 0.000000 -0.007252 0.000000 0.000000
# 5 0.000000 0.000000 0.000000 0.000000 0.021867 0.000000
# 6 0.000000 0.000000 0.000000 0.000000 0.000000 0.025140
#
#
# Mechanical properties :
#
#
# Convention : Reuss Voigt Hill
#
# Bulk Modulus (GPa) = 58.69288 60.31243 59.50266
# Shear Modulus (GPa) = 55.63228 5.74885 30.69057
#
# Velocity S-wave (km/s) = 4.74073 1.52396 3.52115
# Velocity P-wave (km/s) = 7.32646 5.24041 6.36942
#
# Compressibility (1/GPa) = 0.01703784
#
# Stress axis : x y z
#
# Youngs Moduli (GPa) = 105.49977 85.30151 104.84798
#
# Poissons Ratio (x) = 0.22820 0.28128
# Poissons Ratio (y) = 0.28223 0.15652
# Poissons Ratio (z) = 0.28303 0.12734
#
# Static dielectric constant tensor:
#      x y z
#    x 2.046620 0.000000 0.000000 
#    y 0.000000 1.866680 0.000000 
#    z 0.000000 0.000000 1.980930 
# 
# From -- ./inp_files/38716.got.cif
#   From: 2010.05.17/outbox.cif.g08.bks.cpg/sg21_20_cif.got.tgz:38716.got - 2010.06.03 23:14:55.
