data_PCOD9322027
_publ_section_title
;
Structure prediction by ZEFSAII (Michael W. Deem and Ramdas Pophale) SiO2 
 PCOD9322027
Probable space group: C 2 2 21
;
_chemical_formula_sum "Si O2"
_cell_formula_units_Z 40
_cell_length_a 17.817039
_cell_length_b 6.605115
_cell_length_c 15.796330
_cell_angle_alpha 90.000000
_cell_angle_beta 90.000000
_cell_angle_gamma 90.000000
_cell_volume 1858.968848
_symmetry_space_group_name_H-M "C 2 2 21"
_symmetry_group_IT_number 20
_symmetry_cell_setting 'orthorhombic'
loop_
_space_group_symop_operation_xyz
x,y,z
-x,-y,1/2+z
x,-y,-z
-x,y,1/2-z
1/2+x,1/2+y,z
1/2-x,1/2-y,1/2+z
1/2+x,1/2-y,-z
1/2-x,1/2+y,1/2-z
loop_
_atom_site_type_symbol
_atom_site_label
_atom_site_fract_x
_atom_site_fract_y
_atom_site_fract_z
Si Si1 0.344848 0.000000 0.000000
Si Si2 0.235094 0.134237 0.585034
Si Si3 0.401295 0.777989 0.361185
Si Si4 0.500000 0.086040 0.250000
Si Si5 0.894550 0.042399 0.784936
Si Si6 0.539747 0.321471 0.564147
O O1 0.401799 0.857419 0.051361
O O2 0.294192 0.143056 0.058457
O O3 0.320611 0.137042 0.614745
O O4 0.182060 0.057779 0.661369
O O5 0.228169 0.000000 0.500000
O O6 0.387147 0.577665 0.303209
O O7 0.452328 0.730436 0.443169
O O8 0.453510 0.942885 0.313399
O O9 0.564285 0.240725 0.282849
O O10 0.948852 0.906021 0.842290
O O11 0.558979 0.500000 0.500000
#
# Coordination Sequence:
#
# PCOD9322027 Si02
#       6
#     4   8   8   4   8   8
#     4  12  24  46  76  94 148 188 226 286 370 414
#     4  12  29  47  69 108 147 183 239 298 366 430
#     4  12  29  44  73 109 142 185 243 295 362 422
#     4  12  24  46  76  98 142 186 240 288 356 420
#     4  12  24  49  70 104 139 185 241 293 350 438
#     4  12  24  46  74 104 138 189 239 290 347 431
#
# _framework density 21.517306000000001
#
# number of rings (size 3 to 8) (size 9 to 14) (size 15 to 20)
#    0.000    0.000    8.000    1.200    5.600    1.600 
#    0.000    0.000    0.000    0.000    0.000    0.000 
#    0.000    0.000    0.000    0.000    0.000    0.000 
#
# Total GULP energy -111787.150281 kJ/mol
# GULP energy per Si atom -5589.357514 kJ/mol
# Density = 2.146833 g / cm^3
# Si number density = 21.517306 Si / 1000 Ang^3
#
#
#
# Elastic Constant Matrix: (Units=GPa)
#
#
# Indices 1 2 3 4 5 6 
#
# 1 185.2100 50.3688 36.6836 0.0000 0.0000 0.0000
# 2 50.3688 128.3547 35.2302 0.0000 0.0000 0.0000
# 3 36.6836 35.2302 49.1403 0.0000 0.0000 0.0000
# 4 0.0000 0.0000 0.0000 27.1004 0.0000 0.0000
# 5 0.0000 0.0000 0.0000 0.0000 41.4739 0.0000
# 6 0.0000 0.0000 0.0000 0.0000 0.0000 20.7624
#
#
#
# Elastic Compliance Matrix: (Units=1/GPa)
#
#
# Indices 1 2 3 4 5 6 
#
# 1 0.006570 -0.001534 -0.003805 0.000000 0.000000 0.000000
# 2 -0.001534 0.010058 -0.006066 0.000000 0.000000 0.000000
# 3 -0.003805 -0.006066 0.027539 0.000000 0.000000 0.000000
# 4 0.000000 0.000000 0.000000 0.036900 0.000000 0.000000
# 5 0.000000 0.000000 0.000000 0.000000 0.024112 0.000000
# 6 0.000000 0.000000 0.000000 0.000000 0.000000 0.048164
#
#
# Mechanical properties :
#
#
# Convention : Reuss Voigt Hill
#
# Bulk Modulus (GPa) = 46.82119 67.47448 57.14784
# Shear Modulus (GPa) = 27.28214 33.89549 30.58882
#
# Velocity S-wave (km/s) = 3.56464 3.97327 3.77449
# Velocity P-wave (km/s) = 6.22489 7.24399 6.75369
#
# Compressibility (1/GPa) = 0.02135785
#
# Stress axis : x y z
#
# Youngs Moduli (GPa) = 152.20614 99.42646 36.31225
#
# Poissons Ratio (x) = 0.15251 0.13817
# Poissons Ratio (y) = 0.23346 0.22026
# Poissons Ratio (z) = 0.57913 0.60308
#
# Static dielectric constant tensor:
#      x y z
#    x 1.783650 0.000000 0.000000 
#    y 0.000000 1.856350 0.000000 
#    z 0.000000 0.000000 1.819790 
# 
# From -- ./inp_files/22652.got.cif
#   From: 2010.05.17/outbox.cif.g08.bks.cpg/sg20_12_cif.got.tgz:22652.got - 2010.06.03 22:52:26.
