data_PCOD9322266
_publ_section_title
;
Structure prediction by ZEFSAII (Michael W. Deem and Ramdas Pophale) SiO2 
 PCOD9322266
Probable space group: C 2 2 2
;
_chemical_formula_sum "Si O2"
_cell_formula_units_Z 36
_cell_length_a 19.194920
_cell_length_b 12.956971
_cell_length_c 6.864363
_cell_angle_alpha 90.000000
_cell_angle_beta 90.000000
_cell_angle_gamma 90.000000
_cell_volume 1707.222143
_symmetry_space_group_name_H-M "C 2 2 2"
_symmetry_group_IT_number 21
_symmetry_cell_setting 'orthorhombic'
loop_
_space_group_symop_operation_xyz
x,y,z
-x,-y,z
x,-y,-z
-x,y,-z
1/2+x,1/2+y,z
1/2-x,1/2-y,z
1/2+x,1/2-y,-z
1/2-x,1/2+y,-z
loop_
_atom_site_type_symbol
_atom_site_label
_atom_site_fract_x
_atom_site_fract_y
_atom_site_fract_z
Si Si1 0.832294 0.174970 0.186931
Si Si2 0.700513 0.000000 0.500000
Si Si3 0.325037 0.897501 0.126382
Si Si4 0.580577 0.518266 0.266708
Si Si5 0.303838 0.664420 0.646317
O O1 0.756884 0.133549 0.117958
O O2 0.857031 0.283435 0.094444
O O3 0.822665 0.193929 0.422008
O O4 0.882028 0.078083 0.167422
O O5 0.658952 0.930795 0.650780
O O6 0.752992 0.933588 0.369393
O O7 0.340332 0.000000 0.000000
O O8 0.500000 0.500000 0.218685
O O9 0.585818 0.500000 0.500000
O O10 0.626242 0.623901 0.248028
O O11 0.250000 0.750000 0.724827
#
# Coordination Sequence:
#
# PCOD9322266 Si02
#       5
#     8   4   8   8   8
#     4   9  16  31  45  70 116 143 172 234 279 315
#     4  10  16  30  47  70 107 140 172 222 272 322
#     4  10  18  30  48  75 112 141 177 225 275 320
#     4   9  16  27  49  80 111 146 182 224 280 341
#     4  10  14  26  49  74 109 147 176 226 283 322
#
# _framework density 21.086886
#
# number of rings (size 3 to 8) (size 9 to 14) (size 15 to 20)
#    0.000    2.444   10.000    0.000    0.000    0.000 
#    4.000    0.000    0.000    0.667    0.000    3.111 
#    6.667    0.000    0.000    0.000    0.000    0.000 
#
# Total GULP energy -100259.458942 kJ/mol
# GULP energy per Si atom -5569.969941 kJ/mol
# Density = 2.103889 g / cm^3
# Si number density = 21.086886 Si / 1000 Ang^3
#
#
#
# Elastic Constant Matrix: (Units=GPa)
#
#
# Indices 1 2 3 4 5 6 
#
# 1 91.0842 55.4725 13.4933 0.0000 0.0000 0.0000
# 2 55.4725 186.3233 34.5067 0.0000 0.0000 0.0000
# 3 13.4933 34.5067 92.8328 0.0000 0.0000 0.0000
# 4 0.0000 0.0000 0.0000 36.9616 0.0000 0.0000
# 5 0.0000 0.0000 0.0000 0.0000 -1.2995 0.0000
# 6 0.0000 0.0000 0.0000 0.0000 0.0000 19.7874
#
#
#
# Elastic Compliance Matrix: (Units=1/GPa)
#
#
# Indices 1 2 3 4 5 6 
#
# 1 0.013432 -0.003906 -0.000500 0.000000 0.000000 0.000000
# 2 -0.003906 0.006900 -0.001997 0.000000 0.000000 0.000000
# 3 -0.000500 -0.001997 0.011587 0.000000 0.000000 0.000000
# 4 0.000000 0.000000 0.000000 0.027055 0.000000 0.000000
# 5 0.000000 0.000000 0.000000 0.000000 -0.769501 0.000000
# 6 0.000000 0.000000 0.000000 0.000000 0.000000 0.050537
#
#
# Mechanical properties :
#
#
# Convention : Reuss Voigt Hill
#
# Bulk Modulus (GPa) = 52.32397 64.13170 58.22783
# Shear Modulus (GPa) = -7.80260 28.87440 10.53590
#
# Velocity S-wave (km/s) = -1.92568 3.70443 2.23769
# Velocity P-wave (km/s) = 4.46352 6.98399 5.86085
#
# Compressibility (1/GPa) = 0.01911170
#
# Stress axis : x y z
#
# Youngs Moduli (GPa) = 74.44886 144.93064 86.30316
#
# Poissons Ratio (x) = 0.56615 0.04318
# Poissons Ratio (y) = 0.29082 0.17234
# Poissons Ratio (z) = 0.03725 0.28942
#
# Static dielectric constant tensor:
#      x y z
#    x 1.732850 0.000000 0.000000 
#    y 0.000000 2.144600 0.000000 
#    z 0.000000 0.000000 1.915440 
# 
# From -- ./inp_files/17374.got.cif
#   From: 2010.05.17/outbox.cif.g08.bks.cpg/sg21_9_cif.got.tgz:17374.got - 2010.06.03 23:14:55.
