data_PCOD9322943
_publ_section_title
;
Structure prediction by ZEFSAII (Michael W. Deem and Ramdas Pophale) SiO2 
 PCOD9322943
Probable space group: C 2 2 2
;
_chemical_formula_sum "Si O2"
_cell_formula_units_Z 48
_cell_length_a 13.231717
_cell_length_b 20.339993
_cell_length_c 8.944589
_cell_angle_alpha 90.000000
_cell_angle_beta 90.000000
_cell_angle_gamma 90.000000
_cell_volume 2407.284350
_symmetry_space_group_name_H-M "C 2 2 2"
_symmetry_group_IT_number 21
_symmetry_cell_setting 'orthorhombic'
loop_
_space_group_symop_operation_xyz
x,y,z
-x,-y,z
x,-y,-z
-x,y,-z
1/2+x,1/2+y,z
1/2-x,1/2-y,z
1/2+x,1/2-y,-z
1/2-x,1/2+y,-z
loop_
_atom_site_type_symbol
_atom_site_label
_atom_site_fract_x
_atom_site_fract_y
_atom_site_fract_z
Si Si1 0.365987 0.586559 0.662722
Si Si2 0.548641 0.651675 0.833930
Si Si3 0.907614 0.402494 0.401298
Si Si4 0.805089 0.685402 0.348667
Si Si5 0.809184 0.940280 0.679710
Si Si6 0.497014 0.799969 0.173656
O O1 0.468352 0.618668 0.720625
O O2 0.275195 0.633685 0.715531
O O3 0.352221 0.512035 0.717845
O O4 0.353729 0.581279 0.482682
O O5 0.652415 0.612680 0.800661
O O6 0.557147 0.729568 0.802648
O O7 0.500000 0.644529 0.000000
O O8 0.859749 0.350049 0.515213
O O9 0.812115 0.445167 0.345912
O O10 0.950374 0.360383 0.264314
O O11 0.000000 0.431357 0.500000
O O12 0.750000 0.750000 0.405304
O O13 0.888631 0.707629 0.231214
O O14 0.500000 0.814504 0.000000
#
# Coordination Sequence:
#
# PCOD9322943 Si02
#       6
#     8   8   8   8   8   8
#     4  10  21  38  58  85 115 150 195 240 288 352
#     4  11  23  36  55  85 124 159 191 238 290 354
#     4   9  21  38  61  87 112 148 196 251 292 346
#     4  10  19  36  60  83 108 147 193 240 291 341
#     4  10  22  38  59  86 114 155 194 237 296 352
#     4  10  22  38  55  85 118 151 193 243 297 344
#
# _framework density 19.93948
#
# number of rings (size 3 to 8) (size 9 to 14) (size 15 to 20)
#    0.000    2.000    1.667    1.000    4.667    5.333 
#    0.000   14.167    0.000    1.000    0.000    0.000 
#    0.000    0.000    0.000    0.000    0.000    0.000 
#
# Total GULP energy -133930.347076 kJ/mol
# GULP energy per Si atom -5580.431128 kJ/mol
# Density = 1.989410 g / cm^3
# Si number density = 19.939480 Si / 1000 Ang^3
#
#
#
# Elastic Constant Matrix: (Units=GPa)
#
#
# Indices 1 2 3 4 5 6 
#
# 1 62.3467 2.5711 17.8557 0.0000 0.0000 0.0000
# 2 2.5711 72.8221 25.5668 0.0000 0.0000 0.0000
# 3 17.8557 25.5668 32.1685 0.0000 0.0000 0.0000
# 4 0.0000 0.0000 0.0000 -188.6895 0.0000 0.0000
# 5 0.0000 0.0000 0.0000 0.0000 10.6443 0.0000
# 6 0.0000 0.0000 0.0000 0.0000 0.0000 14.1300
#
#
#
# Elastic Compliance Matrix: (Units=1/GPa)
#
#
# Indices 1 2 3 4 5 6 
#
# 1 0.020055 0.004439 -0.014659 0.000000 0.000000 0.000000
# 2 0.004439 0.020029 -0.018382 0.000000 0.000000 0.000000
# 3 -0.014659 -0.018382 0.053833 0.000000 0.000000 0.000000
# 4 0.000000 0.000000 0.000000 -0.005300 0.000000 0.000000
# 5 0.000000 0.000000 0.000000 0.000000 0.093947 0.000000
# 6 0.000000 0.000000 0.000000 0.000000 0.000000 0.070772
#
#
# Mechanical properties :
#
#
# Convention : Reuss Voigt Hill
#
# Bulk Modulus (GPa) = 27.24011 28.81382 28.02697
# Shear Modulus (GPa) = 15.49046 -24.69346 -4.60150
#
# Velocity S-wave (km/s) = 2.79027 -3.52294 -1.52077
# Velocity P-wave (km/s) = 4.90631 1.43740 3.31706
#
# Compressibility (1/GPa) = 0.03671057
#
# Stress axis : x y z
#
# Youngs Moduli (GPa) = 49.86373 49.92707 18.57590
#
# Poissons Ratio (x) = -0.22161 0.27231
# Poissons Ratio (y) = -0.22133 0.34147
# Poissons Ratio (z) = 0.73097 0.91778
#
# Static dielectric constant tensor:
#      x y z
#    x 1.786210 0.000000 0.000000 
#    y 0.000000 1.694960 0.000000 
#    z 0.000000 0.000000 1.692880 
# 
# From -- ./inp_files/13335.got.cif
#   From: 2010.05.17/outbox.cif.g08.bks.cpg/sg21_7_cif.got.tgz:13335.got - 2010.06.03 23:14:55.
