data_PCOD9322460
_publ_section_title
;
Structure prediction by ZEFSAII (Michael W. Deem and Ramdas Pophale) SiO2 
 PCOD9322460
Probable space group: C 2 2 2
;
_chemical_formula_sum "Si O2"
_cell_formula_units_Z 64
_cell_length_a 15.409737
_cell_length_b 19.689825
_cell_length_c 11.742532
_cell_angle_alpha 90.000000
_cell_angle_beta 90.000000
_cell_angle_gamma 90.000000
_cell_volume 3562.860638
_symmetry_space_group_name_H-M "C 2 2 2"
_symmetry_group_IT_number 21
_symmetry_cell_setting 'orthorhombic'
loop_
_space_group_symop_operation_xyz
x,y,z
-x,-y,z
x,-y,-z
-x,y,-z
1/2+x,1/2+y,z
1/2-x,1/2-y,z
1/2+x,1/2-y,-z
1/2-x,1/2+y,-z
loop_
_atom_site_type_symbol
_atom_site_label
_atom_site_fract_x
_atom_site_fract_y
_atom_site_fract_z
Si Si1 0.601449 0.260535 0.511428
Si Si2 0.515442 0.263803 0.868041
Si Si3 0.804860 0.441866 0.755568
Si Si4 0.138452 0.580153 0.272478
Si Si5 0.316712 0.312736 0.263517
Si Si6 0.154937 0.738772 0.255077
Si Si7 0.026858 0.600866 0.870786
Si Si8 0.900756 0.399381 0.527779
O O1 0.500000 0.280644 0.500000
O O2 0.652171 0.303679 0.605302
O O3 0.646274 0.258743 0.388150
O O4 0.600457 0.181629 0.551552
O O5 0.597650 0.301103 0.812908
O O6 0.424796 0.276331 0.804170
O O7 0.529526 0.182527 0.854076
O O8 0.500000 0.278801 0.000000
O O9 0.793774 0.523024 0.767783
O O10 0.729282 0.385613 0.755243
O O11 0.876024 0.422950 0.849191
O O12 0.856399 0.433343 0.635449
O O13 0.148032 0.658174 0.238912
O O14 0.144460 0.583592 0.409139
O O15 0.042549 0.568161 0.217555
O O16 0.250000 0.250000 0.241060
O O17 0.250000 0.750000 0.208318
O O18 0.000000 0.586644 0.000000
O O19 0.000000 0.417982 0.500000
#
# Coordination Sequence:
#
# PCOD9322460 Si02
#       8
#     8   8   8   8   8   8   8   8
#     4  10  18  33  56  81 115 144 187 236 278 338
#     4  10  21  39  58  84 114 147 193 243 282 329
#     4  12  22  33  53  82 118 156 187 227 284 349
#     4  10  22  34  50  81 116 148 186 230 284 349
#     4  12  21  35  57  86 117 154 193 232 280 346
#     4  10  21  38  60  83 108 146 189 240 291 333
#     4  10  20  36  55  78 116 159 191 225 279 339
#     4  10  18  30  50  76 111 150 183 221 281 339
#
# _framework density 17.963093000000001
#
# number of rings (size 3 to 8) (size 9 to 14) (size 15 to 20)
#    0.000    1.500    5.000    1.125    1.750    2.000 
#    2.250    0.000    0.000    0.750    0.000    1.750 
#    0.000    0.000    0.000    0.000    0.000    0.000 
#
# Total GULP energy -178406.281464 kJ/mol
# GULP energy per Si atom -5575.196296 kJ/mol
# Density = 1.792221 g / cm^3
# Si number density = 17.963093 Si / 1000 Ang^3
#
#
#
# Elastic Constant Matrix: (Units=GPa)
#
#
# Indices 1 2 3 4 5 6 
#
# 1 108.9832 38.8390 48.9097 0.0000 0.0000 0.0000
# 2 38.8390 67.0483 38.0443 0.0000 0.0000 0.0000
# 3 48.9097 38.0443 60.2783 0.0000 0.0000 0.0000
# 4 0.0000 0.0000 0.0000 7.4011 0.0000 0.0000
# 5 0.0000 0.0000 0.0000 0.0000 13.9953 0.0000
# 6 0.0000 0.0000 0.0000 0.0000 0.0000 25.5430
#
#
#
# Elastic Compliance Matrix: (Units=1/GPa)
#
#
# Indices 1 2 3 4 5 6 
#
# 1 0.014744 -0.002731 -0.010240 0.000000 0.000000 0.000000
# 2 -0.002731 0.023742 -0.012769 0.000000 0.000000 0.000000
# 3 -0.010240 -0.012769 0.032958 0.000000 0.000000 0.000000
# 4 0.000000 0.000000 0.000000 0.135115 0.000000 0.000000
# 5 0.000000 0.000000 0.000000 0.000000 0.071453 0.000000
# 6 0.000000 0.000000 0.000000 0.000000 0.000000 0.039150
#
#
# Mechanical properties :
#
#
# Convention : Reuss Voigt Hill
#
# Bulk Modulus (GPa) = 50.08910 54.21066 52.14988
# Shear Modulus (GPa) = 13.32284 16.75565 15.03924
#
# Velocity S-wave (km/s) = 2.72633 3.05746 2.89663
# Velocity P-wave (km/s) = 6.15268 6.53518 6.34681
#
# Compressibility (1/GPa) = 0.01996442
#
# Stress axis : x y z
#
# Youngs Moduli (GPa) = 67.82198 42.12028 30.34199
#
# Poissons Ratio (x) = 0.11501 0.31071
# Poissons Ratio (y) = 0.18519 0.38743
# Poissons Ratio (z) = 0.69452 0.53783
#
# Static dielectric constant tensor:
#      x y z
#    x 1.642820 0.000000 0.000000 
#    y 0.000000 1.663090 0.000000 
#    z 0.000000 0.000000 1.632160 
# 
# From -- ./inp_files/25495.got.cif
#   From: 2010.05.17/outbox.cif.g08.bks.cpg/sg21_13_cif.got.tgz:25495.got - 2010.06.03 23:14:55.
