data_PCOD9322249
_publ_section_title
;
Structure prediction by ZEFSAII (Michael W. Deem and Ramdas Pophale) SiO2 
 PCOD9322249
Probable space group: C 2 2 21
;
_chemical_formula_sum "Si O2"
_cell_formula_units_Z 24
_cell_length_a 27.000000
_cell_length_b 6.000000
_cell_length_c 15.000000
_cell_angle_alpha 90.000000
_cell_angle_beta 90.000000
_cell_angle_gamma 90.000000
_cell_volume 2430.000000
_symmetry_space_group_name_H-M "C 2 2 21"
_symmetry_group_IT_number 20
_symmetry_cell_setting 'orthorhombic'
loop_
_space_group_symop_operation_xyz
x,y,z
-x,-y,1/2+z
x,-y,-z
-x,y,1/2-z
1/2+x,1/2+y,z
1/2-x,1/2-y,1/2+z
1/2+x,1/2-y,-z
1/2-x,1/2+y,1/2-z
loop_
_atom_site_type_symbol
_atom_site_label
_atom_site_fract_x
_atom_site_fract_y
_atom_site_fract_z
Si Si1 0.632578 0.000000 0.000000
Si Si2 0.583223 0.383959 0.600013
Si Si3 0.957898 0.500000 0.000000
Si Si4 0.544515 0.302913 0.072951
Si Si5 0.214402 0.327439 0.138808
Si Si6 0.806183 0.173995 0.154847
Si Si7 0.000000 0.028609 0.750000
Si Si8 0.231847 0.500000 0.500000
O O1 0.594936 0.176736 0.045658
O O2 0.668050 0.920019 0.081057
O O3 0.579589 0.500000 0.500000
O O4 0.638048 0.422066 0.640636
O O5 0.539596 0.428556 0.674556
O O6 0.575154 0.128266 0.571340
O O7 0.996125 0.344213 0.947197
O O8 0.538156 0.363225 0.177446
O O9 0.541483 0.500000 0.000000
O O10 0.199430 0.266253 0.242045
O O11 0.260669 0.499386 0.145576
O O12 0.234865 0.133875 0.072557
O O13 0.798546 0.340666 0.069074
#
# Coordination Sequence:
#
# PCOD9322249 Si02
#       8
#     4   8   4   8   8   8   4   4
#     4  11  28  44  75 108 146 191 246 295 374 428
#     4  12  26  46  71 106 143 188 238 300 356 428
#     4  11  21  48  68  98 144 174 240 286 354 420
#     4  11  25  47  69 103 143 187 233 301 360 425
#     4  12  26  47  72 111 144 193 243 305 360 439
#     4  12  27  46  75 106 148 199 245 291 377 433
#     4  12  24  46  74 100 146 184 236 304 352 418
#     4  12  23  48  73  96 156 185 236 311 350 426
#
# _framework density 9.8765429999999999
#
# number of rings (size 3 to 8) (size 9 to 14) (size 15 to 20)
#    0.000    0.333    6.667    1.500    3.500    3.333 
#    3.000    0.000    0.000    0.000    0.000    0.000 
#    0.000    0.000    0.000    0.000    0.000    0.000 
#
# Total GULP energy -133647.989879 kJ/mol
# GULP energy per Si atom -5568.666245 kJ/mol
# Density = 0.985406 g / cm^3
# Si number density = 9.876543 Si / 1000 Ang^3
#
#
#
# Elastic Constant Matrix: (Units=GPa)
#
#
# Indices 1 2 3 4 5 6 
#
# 1 161.0997 43.9182 56.4081 0.0000 0.0000 0.0000
# 2 43.9182 62.4070 51.3556 0.0000 0.0000 0.0000
# 3 56.4081 51.3556 207.4048 0.0000 0.0000 0.0000
# 4 0.0000 0.0000 0.0000 46.1175 0.0000 0.0000
# 5 0.0000 0.0000 0.0000 0.0000 44.8815 0.0000
# 6 0.0000 0.0000 0.0000 0.0000 0.0000 25.3674
#
#
#
# Elastic Compliance Matrix: (Units=1/GPa)
#
#
# Indices 1 2 3 4 5 6 
#
# 1 0.007831 -0.004720 -0.000961 0.000000 0.000000 0.000000
# 2 -0.004720 0.022969 -0.004404 0.000000 0.000000 0.000000
# 3 -0.000961 -0.004404 0.006173 0.000000 0.000000 0.000000
# 4 0.000000 0.000000 0.000000 0.021684 0.000000 0.000000
# 5 0.000000 0.000000 0.000000 0.000000 0.022281 0.000000
# 6 0.000000 0.000000 0.000000 0.000000 0.000000 0.039421
#
#
# Mechanical properties :
#
#
# Convention : Reuss Voigt Hill
#
# Bulk Modulus (GPa) = 59.51002 81.58615 70.54809
# Shear Modulus (GPa) = 34.21633 41.88856 38.05244
#
# Velocity S-wave (km/s) = 4.16649 4.61000 4.39384
# Velocity P-wave (km/s) = 7.30332 8.35038 7.84434
#
# Compressibility (1/GPa) = 0.01680389
#
# Stress axis : x y z
#
# Youngs Moduli (GPa) = 127.70538 43.53633 161.98846
#
# Poissons Ratio (x) = 0.20548 0.15567
# Poissons Ratio (y) = 0.60275 0.71336
# Poissons Ratio (z) = 0.12272 0.19172
#
# Static dielectric constant tensor:
#      x y z
#    x 1.702840 0.000000 0.000000 
#    y 0.000000 1.837620 0.000000 
#    z 0.000000 0.000000 1.681860 
# 
# From -- ./inp_files/17861.got.cif
#   From: 2010.05.17/outbox.ucp.g08.bks.cvg/sg20_9_cif.got.tgz:17861.got - 2010.06.11 15:13:06.
