data_PCOD9322555
_publ_section_title
;
Structure prediction by ZEFSAII (Michael W. Deem and Ramdas Pophale) SiO2 
 PCOD9322555
Probable space group: C 2 2 2
;
_chemical_formula_sum "Si O2"
_cell_formula_units_Z 44
_cell_length_a 19.219149
_cell_length_b 13.776167
_cell_length_c 8.888786
_cell_angle_alpha 90.000000
_cell_angle_beta 90.000000
_cell_angle_gamma 90.000000
_cell_volume 2353.450147
_symmetry_space_group_name_H-M "C 2 2 2"
_symmetry_group_IT_number 21
_symmetry_cell_setting 'orthorhombic'
loop_
_space_group_symop_operation_xyz
x,y,z
-x,-y,z
x,-y,-z
-x,y,-z
1/2+x,1/2+y,z
1/2-x,1/2-y,z
1/2+x,1/2-y,-z
1/2-x,1/2+y,-z
loop_
_atom_site_type_symbol
_atom_site_label
_atom_site_fract_x
_atom_site_fract_y
_atom_site_fract_z
Si Si1 0.930712 0.673218 0.067117
Si Si2 0.829245 0.789707 0.601630
Si Si3 0.824798 0.196422 0.743564
Si Si4 0.276414 0.514219 0.319008
Si Si5 0.871411 0.398586 0.240765
Si Si6 0.000000 0.500000 0.263123
O O1 0.879181 0.747968 0.149691
O O2 0.963153 0.587726 0.170336
O O3 0.891136 0.617022 0.933011
O O4 0.000000 0.723681 0.000000
O O5 0.750000 0.750000 0.595180
O O6 0.851774 0.795564 0.428645
O O7 0.826610 0.892515 0.685175
O O8 0.868292 0.708757 0.693034
O O9 0.750000 0.250000 0.756117
O O10 0.807175 0.081754 0.758298
O O11 0.266729 0.500000 0.500000
O O12 0.201111 0.544949 0.256558
O O13 0.932598 0.451168 0.333389
#
# Coordination Sequence:
#
# PCOD9322555 Si02
#       6
#     8   8   8   8   8   4
#     4  10  21  37  53  77 113 147 175 217 271 322
#     4   8  17  33  53  80 110 136 171 223 269 313
#     4  10  19  33  55  81 109 141 179 220 268 323
#     4   9  18  34  56  81 109 139 176 226 273 314
#     4  10  18  34  55  78 108 138 176 221 268 315
#     4  10  21  36  53  72 107 148 175 212 267 324
#
# _framework density 18.695957
#
# number of rings (size 3 to 8) (size 9 to 14) (size 15 to 20)
#    0.000    2.545    0.000    4.636    0.000    2.182 
#    0.000   11.364    0.000    7.636    0.000   15.273 
#    0.000    0.000    0.000    0.000    0.000    0.000 
#
# Total GULP energy -122511.267589 kJ/mol
# GULP energy per Si atom -5568.693981 kJ/mol
# Density = 1.865340 g / cm^3
# Si number density = 18.695957 Si / 1000 Ang^3
#
#
#
# Elastic Constant Matrix: (Units=GPa)
#
#
# Indices 1 2 3 4 5 6 
#
# 1 90.7842 64.4085 33.2328 0.0000 0.0000 0.0000
# 2 64.4085 156.3003 35.7658 0.0000 0.0000 0.0000
# 3 33.2328 35.7658 26.3456 0.0000 0.0000 0.0000
# 4 0.0000 0.0000 0.0000 25.3699 0.0000 0.0000
# 5 0.0000 0.0000 0.0000 0.0000 35.0570 0.0000
# 6 0.0000 0.0000 0.0000 0.0000 0.0000 34.8338
#
#
#
# Elastic Compliance Matrix: (Units=1/GPa)
#
#
# Indices 1 2 3 4 5 6 
#
# 1 0.022022 -0.003943 -0.022426 0.000000 0.000000 0.000000
# 2 -0.003943 0.009987 -0.008584 0.000000 0.000000 0.000000
# 3 -0.022426 -0.008584 0.077899 0.000000 0.000000 0.000000
# 4 0.000000 0.000000 0.000000 0.039417 0.000000 0.000000
# 5 0.000000 0.000000 0.000000 0.000000 0.028525 0.000000
# 6 0.000000 0.000000 0.000000 0.000000 0.000000 0.028708
#
#
# Mechanical properties :
#
#
# Convention : Reuss Voigt Hill
#
# Bulk Modulus (GPa) = 24.99895 60.02713 42.51304
# Shear Modulus (GPa) = 17.25345 28.38702 22.82023
#
# Velocity S-wave (km/s) = 3.04113 3.90083 3.49749
# Velocity P-wave (km/s) = 5.07264 7.24330 6.25288
#
# Compressibility (1/GPa) = 0.04000167
#
# Stress axis : x y z
#
# Youngs Moduli (GPa) = 45.40923 100.12860 12.83721
#
# Poissons Ratio (x) = 0.39483 0.28788
# Poissons Ratio (y) = 0.17906 0.11020
# Poissons Ratio (z) = 1.01833 0.85951
#
# Static dielectric constant tensor:
#      x y z
#    x 1.646750 0.000000 0.000000 
#    y 0.000000 1.679880 0.000000 
#    z 0.000000 0.000000 1.697600 
# 
# From -- ./inp_files/14882.got.cif
#   From: 2010.05.17/outbox.cif.g08.bks.cpg/sg21_8_cif.got.tgz:14882.got - 2010.06.03 23:14:55.
