data_PCOD9322502
_publ_section_title
;
Structure prediction by ZEFSAII (Michael W. Deem and Ramdas Pophale) SiO2 
 PCOD9322502
Probable space group: C 2 2 2
;
_chemical_formula_sum "Si O2"
_cell_formula_units_Z 58
_cell_length_a 5.165135
_cell_length_b 31.574597
_cell_length_c 19.901692
_cell_angle_alpha 90.000000
_cell_angle_beta 90.000000
_cell_angle_gamma 90.000000
_cell_volume 3245.708359
_symmetry_space_group_name_H-M "C 2 2 2"
_symmetry_group_IT_number 21
_symmetry_cell_setting 'orthorhombic'
loop_
_space_group_symop_operation_xyz
x,y,z
-x,-y,z
x,-y,-z
-x,y,-z
1/2+x,1/2+y,z
1/2-x,1/2-y,z
1/2+x,1/2-y,-z
1/2-x,1/2+y,-z
loop_
_atom_site_type_symbol
_atom_site_label
_atom_site_fract_x
_atom_site_fract_y
_atom_site_fract_z
Si Si1 0.864451 0.343666 0.194109
Si Si2 0.498537 0.779772 0.076160
Si Si3 0.134360 0.110137 0.230480
Si Si4 0.500000 0.500000 0.500000
Si Si5 0.745053 0.972150 0.300523
Si Si6 0.877642 0.843385 0.374724
Si Si7 0.319133 0.073348 0.435139
Si Si8 0.364389 0.202622 0.660645
O O1 0.953874 0.314575 0.132786
O O2 0.592255 0.368033 0.187441
O O3 0.859558 0.315228 0.262630
O O4 0.085478 0.378301 0.203422
O O5 0.250000 0.750000 0.079890
O O6 0.750000 0.750000 0.087124
O O7 0.500000 0.797336 0.000000
O O8 0.135049 0.060608 0.246771
O O9 0.110161 0.133805 0.302274
O O10 0.660285 0.532095 0.455763
O O11 0.610178 0.942502 0.359591
O O12 0.500000 0.000000 0.277121
O O13 0.000000 0.000000 0.320968
O O14 0.816915 0.881557 0.425069
O O15 0.649443 0.808316 0.368247
O O16 0.158212 0.823367 0.383886
O O17 0.500000 0.078496 0.500000
O O18 0.250000 0.250000 0.661762
#
# Coordination Sequence:
#
# PCOD9322502 Si02
#       8
#     8   8   8   2   8   8   8   8
#     4  10  18  32  50  76 107 140 177 224 259 304
#     4  10  20  32  48  75 112 152 185 215 259 312
#     4   9  19  32  50  74 104 138 176 212 268 319
#     4  12  22  36  56  82  96 132 178 200 236 344
#     4  11  21  36  54  77 109 139 168 215 272 329
#     4   9  21  35  53  76 107 133 163 225 272 306
#     4  11  24  37  54  80 107 136 175 208 263 330
#     4  10  19  34  56  80  99 134 182 221 266 311
#
# _framework density 17.869752999999999
#
# number of rings (size 3 to 8) (size 9 to 14) (size 15 to 20)
#    0.000    1.931    0.690    3.517    1.931    4.414 
#    0.000    0.000    0.000    1.655    0.000    0.000 
#    0.000    8.276    0.000    0.000    0.000    0.000 
#
# Total GULP energy -161443.080291 kJ/mol
# GULP energy per Si atom -5567.002769 kJ/mol
# Density = 1.782908 g / cm^3
# Si number density = 17.869753 Si / 1000 Ang^3
#
#
#
# Elastic Constant Matrix: (Units=GPa)
#
#
# Indices 1 2 3 4 5 6 
#
# 1 89.3619 26.1391 18.2738 0.0000 0.0000 0.0000
# 2 26.1391 82.0410 43.3527 0.0000 0.0000 0.0000
# 3 18.2738 43.3527 57.1621 0.0000 0.0000 0.0000
# 4 0.0000 0.0000 0.0000 24.6045 0.0000 0.0000
# 5 0.0000 0.0000 0.0000 0.0000 23.4799 0.0000
# 6 0.0000 0.0000 0.0000 0.0000 0.0000 27.5238
#
#
#
# Elastic Compliance Matrix: (Units=1/GPa)
#
#
# Indices 1 2 3 4 5 6 
#
# 1 0.012430 -0.003105 -0.001619 0.000000 0.000000 0.000000
# 2 -0.003105 0.021117 -0.015023 0.000000 0.000000 0.000000
# 3 -0.001619 -0.015023 0.029405 0.000000 0.000000 0.000000
# 4 0.000000 0.000000 0.000000 0.040643 0.000000 0.000000
# 5 0.000000 0.000000 0.000000 0.000000 0.042590 0.000000
# 6 0.000000 0.000000 0.000000 0.000000 0.000000 0.036332
#
#
# Mechanical properties :
#
#
# Convention : Reuss Voigt Hill
#
# Bulk Modulus (GPa) = 42.62795 44.89958 43.76376
# Shear Modulus (GPa) = 21.75537 24.50827 23.13182
#
# Velocity S-wave (km/s) = 3.49297 3.70739 3.60177
# Velocity P-wave (km/s) = 6.33833 6.59597 6.46843
#
# Compressibility (1/GPa) = 0.02345879
#
# Stress axis : x y z
#
# Youngs Moduli (GPa) = 80.45268 47.35605 34.00770
#
# Poissons Ratio (x) = 0.14703 0.05505
# Poissons Ratio (y) = 0.24979 0.51089
# Poissons Ratio (z) = 0.13024 0.71141
#
# Static dielectric constant tensor:
#      x y z
#    x 1.650600 0.000000 0.000000 
#    y 0.000000 1.605880 0.000000 
#    z 0.000000 0.000000 1.661640 
# 
# From -- ./inp_files/35257.got.cif
#   From: 2010.05.17/outbox.cif.g08.bks.cpg/sg21_18_cif.got.tgz:35257.got - 2010.06.03 23:14:55.
