data_PCOD9322566
_publ_section_title
;
Structure prediction by ZEFSAII (Michael W. Deem and Ramdas Pophale) SiO2 
 PCOD9322566
Probable space group: C 2 2 2
;
_chemical_formula_sum "Si O2"
_cell_formula_units_Z 48
_cell_length_a 12.531228
_cell_length_b 22.364274
_cell_length_c 7.637726
_cell_angle_alpha 90.000000
_cell_angle_beta 90.000000
_cell_angle_gamma 90.000000
_cell_volume 2140.486586
_symmetry_space_group_name_H-M "C 2 2 2"
_symmetry_group_IT_number 21
_symmetry_cell_setting 'orthorhombic'
loop_
_space_group_symop_operation_xyz
x,y,z
-x,-y,z
x,-y,-z
-x,y,-z
1/2+x,1/2+y,z
1/2-x,1/2-y,z
1/2+x,1/2-y,-z
1/2-x,1/2+y,-z
loop_
_atom_site_type_symbol
_atom_site_label
_atom_site_fract_x
_atom_site_fract_y
_atom_site_fract_z
Si Si1 0.391026 0.100600 0.907280
Si Si2 0.343976 0.368610 0.357920
Si Si3 0.408729 0.654274 0.267683
Si Si4 0.681211 0.435906 0.989691
Si Si5 0.820267 0.297716 0.839588
Si Si6 0.954237 0.285783 0.305069
O O1 0.293113 0.055173 0.899303
O O2 0.412684 0.148115 0.750780
O O3 0.500000 0.078448 0.000000
O O4 0.338832 0.144287 0.049065
O O5 0.464326 0.350442 0.303586
O O6 0.350983 0.377165 0.565898
O O7 0.255181 0.317277 0.321429
O O8 0.314595 0.419841 0.217816
O O9 0.376921 0.618408 0.093593
O O10 0.385546 0.725751 0.276913
O O11 0.625262 0.500000 0.000000
O O12 0.750000 0.250000 0.939391
O O13 0.938359 0.275538 0.806688
O O14 0.000000 0.288022 0.500000
#
# Coordination Sequence:
#
# PCOD9322566 Si02
#       6
#     8   8   8   8   8   8
#     4   9  23  39  62  94 125 163 208 270 333 395
#     4  10  22  40  60  95 129 168 213 272 319 398
#     4  11  22  39  62  97 131 173 214 262 341 393
#     4  11  26  44  66  90 122 178 233 279 323 381
#     4  10  18  34  57  88 132 167 195 250 323 396
#     4  11  21  36  60  98 132 166 204 261 340 414
#
# _framework density 22.424807000000001
#
# number of rings (size 3 to 8) (size 9 to 14) (size 15 to 20)
#    0.000    1.667    3.333    0.500    7.000    3.667 
#    0.000    1.667    0.000    0.000    0.000    0.000 
#    0.000    0.000    0.000    0.000    0.000    0.000 
#
# Total GULP energy -133639.582783 kJ/mol
# GULP energy per Si atom -5568.315949 kJ/mol
# Density = 2.237377 g / cm^3
# Si number density = 22.424807 Si / 1000 Ang^3
#
#
#
# Elastic Constant Matrix: (Units=GPa)
#
#
# Indices 1 2 3 4 5 6 
#
# 1 74.9313 8.6626 14.6246 0.0000 0.0000 0.0000
# 2 8.6626 83.4270 32.6765 0.0000 0.0000 0.0000
# 3 14.6246 32.6765 102.3840 0.0000 0.0000 0.0000
# 4 0.0000 0.0000 0.0000 24.8007 0.0000 0.0000
# 5 0.0000 0.0000 0.0000 0.0000 34.6418 0.0000
# 6 0.0000 0.0000 0.0000 0.0000 0.0000 -82.8126
#
#
#
# Elastic Compliance Matrix: (Units=1/GPa)
#
#
# Indices 1 2 3 4 5 6 
#
# 1 0.013770 -0.000754 -0.001726 0.000000 0.000000 0.000000
# 2 -0.000754 0.013740 -0.004278 0.000000 0.000000 0.000000
# 3 -0.001726 -0.004278 0.011379 0.000000 0.000000 0.000000
# 4 0.000000 0.000000 0.000000 0.040321 0.000000 0.000000
# 5 0.000000 0.000000 0.000000 0.000000 0.028867 0.000000
# 6 0.000000 0.000000 0.000000 0.000000 0.000000 -0.012075
#
#
# Mechanical properties :
#
#
# Convention : Reuss Voigt Hill
#
# Bulk Modulus (GPa) = 39.41092 41.40773 40.40932
# Shear Modulus (GPa) = 42.38198 8.97789 25.67994
#
# Velocity S-wave (km/s) = 4.35208 2.00306 3.38769
# Velocity P-wave (km/s) = 6.54729 4.88415 5.77589
#
# Compressibility (1/GPa) = 0.02537368
#
# Stress axis : x y z
#
# Youngs Moduli (GPa) = 72.62370 72.77897 87.88131
#
# Poissons Ratio (x) = 0.05485 0.15171
# Poissons Ratio (y) = 0.05473 0.37592
# Poissons Ratio (z) = 0.12537 0.31132
#
# Static dielectric constant tensor:
#      x y z
#    x 2.214380 0.000000 0.000000 
#    y 0.000000 1.938260 0.000000 
#    z 0.000000 0.000000 4.237340 
# 
# From -- ./inp_files/13343.got.cif
#   From: 2010.05.17/outbox.cif.g08.bks.cpg/sg21_7_cif.got.tgz:13343.got - 2010.06.03 23:14:55.
