data_PCOD9322326
_publ_section_title
;
Structure prediction by ZEFSAII (Michael W. Deem and Ramdas Pophale) SiO2 
 PCOD9322326
Probable space group: C 2 2 2
;
_chemical_formula_sum "Si O2"
_cell_formula_units_Z 48
_cell_length_a 17.053483
_cell_length_b 5.210329
_cell_length_c 27.620349
_cell_angle_alpha 90.000000
_cell_angle_beta 90.000000
_cell_angle_gamma 90.000000
_cell_volume 2454.185589
_symmetry_space_group_name_H-M "C 2 2 2"
_symmetry_group_IT_number 21
_symmetry_cell_setting 'orthorhombic'
loop_
_space_group_symop_operation_xyz
x,y,z
-x,-y,z
x,-y,-z
-x,y,-z
1/2+x,1/2+y,z
1/2-x,1/2-y,z
1/2+x,1/2-y,-z
1/2-x,1/2+y,-z
loop_
_atom_site_type_symbol
_atom_site_label
_atom_site_fract_x
_atom_site_fract_y
_atom_site_fract_z
Si Si1 0.053645 0.249911 0.133858
Si Si2 0.339435 0.155591 0.225752
Si Si3 0.085481 0.123331 0.731849
Si Si4 0.155717 0.749594 0.470321
Si Si5 0.551958 0.251742 0.378595
Si Si6 0.410087 0.749404 0.978190
O O1 0.116830 0.269814 0.176028
O O2 0.086837 0.245887 0.079360
O O3 0.000000 0.500000 0.137662
O O4 0.000000 0.000000 0.139325
O O5 0.250000 0.250000 0.218362
O O6 0.365556 0.360701 0.266439
O O7 0.371274 0.863798 0.239494
O O8 0.076227 0.224824 0.677513
O O9 0.000000 0.000000 0.747953
O O10 0.129521 0.500000 0.500000
O O11 0.250000 0.750000 0.468536
O O12 0.122405 0.745509 0.416421
O O13 0.129888 0.000000 0.500000
O O14 0.500000 0.500000 0.389732
O O15 0.500000 0.000000 0.384576
O O16 0.371233 0.500000 0.000000
O O17 0.500000 0.749564 0.000000
O O18 0.371830 0.000000 0.000000
#
# Coordination Sequence:
#
# PCOD9322326 Si02
#       6
#     8   8   8   8   8   8
#     4  12  21  34  60  87 112 154 197 247 299 349
#     4  12  26  41  60  90 127 160 200 253 313 374
#     4  11  23  45  66  88 121 159 210 256 306 371
#     4  10  22  39  58  86 125 164 202 242 291 362
#     4  11  23  39  64  92 118 153 200 259 310 354
#     4  10  16  30  50  83 112 136 190 252 283 333
#
# _framework density 19.558423000000001
#
# number of rings (size 3 to 8) (size 9 to 14) (size 15 to 20)
#    0.000    1.000    3.333    6.500    0.000    3.333 
#    0.000    1.667    0.000    1.000    0.000    0.000 
#    0.000    0.000    0.000    0.000    0.000    0.000 
#
# Total GULP energy -133772.616154 kJ/mol
# GULP energy per Si atom -5573.859006 kJ/mol
# Density = 1.951391 g / cm^3
# Si number density = 19.558423 Si / 1000 Ang^3
#
#
#
# Elastic Constant Matrix: (Units=GPa)
#
#
# Indices 1 2 3 4 5 6 
#
# 1 62.9693 43.7543 38.5536 0.0000 0.0000 0.0000
# 2 43.7543 191.9766 37.0134 0.0000 0.0000 0.0000
# 3 38.5536 37.0134 99.7411 0.0000 0.0000 0.0000
# 4 0.0000 0.0000 0.0000 42.7632 0.0000 0.0000
# 5 0.0000 0.0000 0.0000 0.0000 3.3579 0.0000
# 6 0.0000 0.0000 0.0000 0.0000 0.0000 15.3471
#
#
#
# Elastic Compliance Matrix: (Units=1/GPa)
#
#
# Indices 1 2 3 4 5 6 
#
# 1 0.023147 -0.003824 -0.007528 0.000000 0.000000 0.000000
# 2 -0.003824 0.006242 -0.000838 0.000000 0.000000 0.000000
# 3 -0.007528 -0.000838 0.013247 0.000000 0.000000 0.000000
# 4 0.000000 0.000000 0.000000 0.023385 0.000000 0.000000
# 5 0.000000 0.000000 0.000000 0.000000 0.297802 0.000000
# 6 0.000000 0.000000 0.000000 0.000000 0.000000 0.065159
#
#
# Mechanical properties :
#
#
# Convention : Reuss Voigt Hill
#
# Bulk Modulus (GPa) = 54.77893 65.92553 60.35223
# Shear Modulus (GPa) = 10.88262 27.98470 19.43366
#
# Velocity S-wave (km/s) = 2.36141 3.78673 3.15560
# Velocity P-wave (km/s) = 5.95849 7.27319 6.64842
#
# Compressibility (1/GPa) = 0.01825520
#
# Stress axis : x y z
#
# Youngs Moduli (GPa) = 43.20192 160.20084 75.48923
#
# Poissons Ratio (x) = 0.61263 0.56829
# Poissons Ratio (y) = 0.16521 0.06328
# Poissons Ratio (z) = 0.32523 0.13429
#
# Static dielectric constant tensor:
#      x y z
#    x 1.732430 0.000000 0.000000 
#    y 0.000000 1.708900 0.000000 
#    z 0.000000 0.000000 1.628080 
# 
# From -- ./inp_files/39328.got.cif
#   From: 2010.05.17/outbox.cif.g08.bks.cpg/sg21_20_cif.got.tgz:39328.got - 2010.06.03 23:14:55.
