data_PCOD9322783
_publ_section_title
;
Structure prediction by ZEFSAII (Michael W. Deem and Ramdas Pophale) SiO2 
 PCOD9322783
Probable space group: C 2 2 2
;
_chemical_formula_sum "Si O2"
_cell_formula_units_Z 48
_cell_length_a 14.901639
_cell_length_b 8.339780
_cell_length_c 18.665370
_cell_angle_alpha 90.000000
_cell_angle_beta 90.000000
_cell_angle_gamma 90.000000
_cell_volume 2319.664818
_symmetry_space_group_name_H-M "C 2 2 2"
_symmetry_group_IT_number 21
_symmetry_cell_setting 'orthorhombic'
loop_
_space_group_symop_operation_xyz
x,y,z
-x,-y,z
x,-y,-z
-x,y,-z
1/2+x,1/2+y,z
1/2-x,1/2-y,z
1/2+x,1/2-y,-z
1/2-x,1/2+y,-z
loop_
_atom_site_type_symbol
_atom_site_label
_atom_site_fract_x
_atom_site_fract_y
_atom_site_fract_z
Si Si1 0.999999 0.196250 0.581945
Si Si2 0.852093 0.191238 0.306804
Si Si3 0.146122 0.694098 0.000001
Si Si4 0.853737 0.307629 0.154588
Si Si5 0.352093 0.308765 0.306802
Si Si6 0.646262 0.192374 0.845413
O O1 0.913608 0.247952 0.627798
O O2 0.000000 0.250947 0.500000
O O3 0.086390 0.247954 0.627798
O O4 0.000000 0.000000 0.580984
O O5 0.750000 0.250000 0.313335
O O6 0.890557 0.244509 0.229576
O O7 0.851000 0.000002 0.307059
O O8 0.250000 0.750000 0.000001
O O9 0.107913 0.745888 0.077249
O O10 0.143789 0.500000 0.000000
O O11 0.107914 0.745890 0.922753
O O12 0.750000 0.250000 0.154297
O O13 0.856470 0.500001 0.156861
O O14 0.250000 0.250000 0.313332
O O15 0.390558 0.255496 0.229574
O O16 0.750000 0.250000 0.845704
#
# Coordination Sequence:
#
# PCOD9322783 Si02
#       6
#     8   8   8   8   8   8
#     4   9  20  38  57  76 101 134 168 203 251 311
#     4  10  19  33  54  78 103 133 169 207 251 301
#     4   8  14  22  36  61  94 131 168 204 240 285
#     4   9  15  25  42  67  99 133 169 206 246 290
#     4  10  19  33  54  78 103 133 169 207 251 301
#     4   9  15  25  42  67  99 133 169 206 246 290
#
# _framework density 20.692644000000001
#
# number of rings (size 3 to 8) (size 9 to 14) (size 15 to 20)
#    0.000    2.833    0.000    4.000    0.000    2.000 
#    0.000    3.333    0.000    8.000    0.000    7.000 
#    0.000    0.000    0.000    0.000    0.000    0.000 
#
# Total GULP energy -133770.506167 kJ/mol
# GULP energy per Si atom -5573.771090 kJ/mol
# Density = 2.064555 g / cm^3
# Si number density = 20.692644 Si / 1000 Ang^3
#
#
#
# Elastic Constant Matrix: (Units=GPa)
#
#
# Indices 1 2 3 4 5 6 
#
# 1 92.0967 10.9210 78.7812 0.0000 0.0000 0.0000
# 2 10.9210 36.3365 31.8258 0.0000 0.0000 0.0000
# 3 78.7812 31.8258 271.6399 0.0000 0.0000 0.0000
# 4 0.0000 0.0000 0.0000 25.1797 0.0000 0.0000
# 5 0.0000 0.0000 0.0000 0.0000 71.2851 0.0000
# 6 0.0000 0.0000 0.0000 0.0000 0.0000 2.9547
#
#
#
# Elastic Compliance Matrix: (Units=1/GPa)
#
#
# Indices 1 2 3 4 5 6 
#
# 1 0.014459 -0.000750 -0.004106 0.000000 0.000000 0.000000
# 2 -0.000750 0.030706 -0.003380 0.000000 0.000000 0.000000
# 3 -0.004106 -0.003380 0.005268 0.000000 0.000000 0.000000
# 4 0.000000 0.000000 0.000000 0.039715 0.000000 0.000000
# 5 0.000000 0.000000 0.000000 0.000000 0.014028 0.000000
# 6 0.000000 0.000000 0.000000 0.000000 0.000000 0.338448
#
#
# Mechanical properties :
#
#
# Convention : Reuss Voigt Hill
#
# Bulk Modulus (GPa) = 29.44423 71.45881 50.45152
# Shear Modulus (GPa) = 10.62887 38.45355 24.54121
#
# Velocity S-wave (km/s) = 2.26885 4.31550 3.44755
# Velocity P-wave (km/s) = 4.59606 7.70972 6.34679
#
# Compressibility (1/GPa) = 0.03396251
#
# Stress axis : x y z
#
# Youngs Moduli (GPa) = 69.16084 32.56646 189.82267
#
# Poissons Ratio (x) = 0.02442 0.77933
# Poissons Ratio (y) = 0.05185 0.64163
# Poissons Ratio (z) = 0.28395 0.11008
#
# Static dielectric constant tensor:
#      x y z
#    x 1.612890 0.000000 0.000000 
#    y 0.000000 1.713740 0.000000 
#    z 0.000000 0.000000 1.791610 
# 
# From -- ./inp_files/36635.got.cif
#   From: 2010.05.17/outbox.cif.g08.bks.cpg/sg21_19_cif.got.tgz:36635.got - 2010.06.03 23:14:55.
