data_PCOD9322715
_publ_section_title
;
Structure prediction by ZEFSAII (Michael W. Deem and Ramdas Pophale) SiO2 
 PCOD9322715
Probable space group: C 2 2 2
;
_chemical_formula_sum "Si O2"
_cell_formula_units_Z 46
_cell_length_a 17.252638
_cell_length_b 5.274922
_cell_length_c 28.440375
_cell_angle_alpha 90.000000
_cell_angle_beta 90.000000
_cell_angle_gamma 90.000000
_cell_volume 2588.253861
_symmetry_space_group_name_H-M "C 2 2 2"
_symmetry_group_IT_number 21
_symmetry_cell_setting 'orthorhombic'
loop_
_space_group_symop_operation_xyz
x,y,z
-x,-y,z
x,-y,-z
-x,y,-z
1/2+x,1/2+y,z
1/2-x,1/2-y,z
1/2+x,1/2-y,-z
1/2-x,1/2+y,-z
loop_
_atom_site_type_symbol
_atom_site_label
_atom_site_fract_x
_atom_site_fract_y
_atom_site_fract_z
Si Si1 0.000000 0.500000 0.500000
Si Si2 0.342958 0.249998 0.970240
Si Si3 0.054259 0.250705 0.673249
Si Si4 0.699127 0.500000 0.500000
Si Si5 0.081544 0.143062 0.572835
Si Si6 0.946102 0.249991 0.121790
Si Si7 0.946167 0.749754 0.774998
O O1 0.942511 0.646920 0.534871
O O2 0.250000 0.250000 0.963576
O O3 0.386018 0.249972 0.920648
O O4 0.363844 0.500000 0.000000
O O5 0.363846 0.000000 0.000000
O O6 0.102720 0.235600 0.625005
O O7 0.000000 0.500000 0.669284
O O8 0.095880 0.256510 0.724263
O O9 0.000000 0.000000 0.674962
O O10 0.750000 0.750000 0.505254
O O11 0.645522 0.478831 0.546398
O O12 0.000000 0.000000 0.578127
O O13 0.000000 0.500000 0.118561
O O14 0.906773 0.250359 0.173811
O O15 0.000000 0.000000 0.118494
O O16 0.000000 0.500000 0.774617
O O17 0.000000 0.000000 0.775117
#
# Coordination Sequence:
#
# PCOD9322715 Si02
#       7
#     2   8   8   4   8   8   8
#     4  12  16  32  56  80 108 118 182 226 252 282
#     4  10  21  35  49  70 101 134 167 204 247 295
#     4   9  17  28  49  76  98 124 161 211 256 288
#     4  12  26  38  51  75 112 144 168 204 268 326
#     4  11  21  34  56  78 100 135 177 220 248 299
#     4  10  19  31  51  75 101 131 164 206 247 296
#     4   8  15  28  44  71 102 123 154 202 256 295
#
# _framework density 17.772597999999999
#
# number of rings (size 3 to 8) (size 9 to 14) (size 15 to 20)
#    0.000    2.087    2.609    1.565    0.000    2.087 
#    0.000    0.000    0.000    1.043    0.000    3.652 
#    0.000    0.000    0.000    0.000    0.000    0.000 
#
# Total GULP energy -128042.962171 kJ/mol
# GULP energy per Si atom -5567.085312 kJ/mol
# Density = 1.773215 g / cm^3
# Si number density = 17.772598 Si / 1000 Ang^3
#
#
#
# Elastic Constant Matrix: (Units=GPa)
#
#
# Indices 1 2 3 4 5 6 
#
# 1 30.1014 11.0394 39.5630 0.0000 0.0000 0.0000
# 2 11.0394 113.8259 29.6259 0.0000 0.0000 0.0000
# 3 39.5630 29.6259 229.1276 0.0000 0.0000 0.0000
# 4 0.0000 0.0000 0.0000 25.0043 0.0000 0.0000
# 5 0.0000 0.0000 0.0000 0.0000-1660.6227 0.0000
# 6 0.0000 0.0000 0.0000 0.0000 0.0000 12.2985
#
#
#
# Elastic Compliance Matrix: (Units=1/GPa)
#
#
# Indices 1 2 3 4 5 6 
#
# 1 0.043571 -0.002347 -0.007220 0.000000 0.000000 0.000000
# 2 -0.002347 0.009218 -0.000787 0.000000 0.000000 0.000000
# 3 -0.007220 -0.000787 0.005713 0.000000 0.000000 0.000000
# 4 0.000000 0.000000 0.000000 0.039993 0.000000 0.000000
# 5 0.000000 0.000000 0.000000 0.000000 -0.000602 0.000000
# 6 0.000000 0.000000 0.000000 0.000000 0.000000 0.081311
#
#
# Mechanical properties :
#
#
# Convention : Reuss Voigt Hill
#
# Bulk Modulus (GPa) = 26.45845 59.27908 42.86877
# Shear Modulus (GPa) = 23.52853 -305.14222 -140.80684
#
# Velocity S-wave (km/s) = 3.64244 -13.11736 -8.91061
# Velocity P-wave (km/s) = 5.71046 13.99978 9.03837
#
# Compressibility (1/GPa) = 0.03779511
#
# Stress axis : x y z
#
# Youngs Moduli (GPa) = 22.95104 108.48721 175.04727
#
# Poissons Ratio (x) = 0.25458 1.26383
# Poissons Ratio (y) = 0.05386 0.13770
# Poissons Ratio (z) = 0.16570 0.08534
#
# Static dielectric constant tensor:
#      x y z
#    x 1.580090 0.000000 0.000000 
#    y 0.000000 3.264950 0.000000 
#    z 0.000000 0.000000 1.686500 
# 
# From -- ./inp_files/39380.got.cif
#   From: 2010.05.17/outbox.cif.g08.bks.cpg/sg21_20_cif.got.tgz:39380.got - 2010.06.03 23:14:55.
