data_PCOD9322287
_publ_section_title
;
Structure prediction by ZEFSAII (Michael W. Deem and Ramdas Pophale) SiO2 
 PCOD9322287
Probable space group: C 2 2 2
;
_chemical_formula_sum "Si O2"
_cell_formula_units_Z 32
_cell_length_a 7.131796
_cell_length_b 33.874439
_cell_length_c 5.389492
_cell_angle_alpha 90.000000
_cell_angle_beta 90.000000
_cell_angle_gamma 90.000000
_cell_volume 1302.023597
_symmetry_space_group_name_H-M "C 2 2 2"
_symmetry_group_IT_number 21
_symmetry_cell_setting 'orthorhombic'
loop_
_space_group_symop_operation_xyz
x,y,z
-x,-y,z
x,-y,-z
-x,y,-z
1/2+x,1/2+y,z
1/2-x,1/2-y,z
1/2+x,1/2-y,-z
1/2-x,1/2+y,-z
loop_
_atom_site_type_symbol
_atom_site_label
_atom_site_fract_x
_atom_site_fract_y
_atom_site_fract_z
Si Si1 0.784280 0.324029 0.797624
Si Si2 0.228621 0.545951 0.501116
Si Si3 0.215515 0.705465 0.293811
Si Si4 0.777523 0.412794 0.995232
O O1 0.707860 0.321182 0.518728
O O2 0.761322 0.367053 0.919167
O O3 0.000464 0.309462 0.750760
O O4 0.703685 0.297060 0.016432
O O5 0.279327 0.500000 0.500000
O O6 0.297030 0.563193 0.761301
O O7 0.000000 0.547776 0.500000
O O8 0.288713 0.571801 0.262573
O O9 0.250000 0.750000 0.382358
O O10 0.000000 0.420182 0.000000
#
# Coordination Sequence:
#
# PCOD9322287 Si02
#       4
#     8   8   8   8
#     4  10  19  30  44  62  81 106 143 179 210 252
#     4   9  17  24  34  53  75 100 135 170 194 220
#     4  10  19  30  44  60  79 102 134 182 223 251
#     4  10  16  25  40  52  74 106 131 173 201 223
#
# _framework density 24.577128999999999
#
# number of rings (size 3 to 8) (size 9 to 14) (size 15 to 20)
#    0.000    2.250    2.500    3.000    7.000    3.000 
#    0.000    0.000    0.000    0.000    0.000    0.000 
#    0.000    0.000    0.000    0.000    0.000    0.000 
#
# Total GULP energy -89249.298243 kJ/mol
# GULP energy per Si atom -5578.081140 kJ/mol
# Density = 2.452119 g / cm^3
# Si number density = 24.577129 Si / 1000 Ang^3
#
#
#
# Elastic Constant Matrix: (Units=GPa)
#
#
# Indices 1 2 3 4 5 6 
#
# 1 112.6721 8.8857 -8.9929 0.0000 0.0000 0.0000
# 2 8.8857 166.3133 75.8475 0.0000 0.0000 0.0000
# 3 -8.9929 75.8475 237.2231 0.0000 0.0000 0.0000
# 4 0.0000 0.0000 0.0000 55.4064 0.0000 0.0000
# 5 0.0000 0.0000 0.0000 0.0000 -32.2368 0.0000
# 6 0.0000 0.0000 0.0000 0.0000 0.0000 -25.9675
#
#
#
# Elastic Compliance Matrix: (Units=1/GPa)
#
#
# Indices 1 2 3 4 5 6 
#
# 1 0.008980 -0.000743 0.000578 0.000000 0.000000 0.000000
# 2 -0.000743 0.007101 -0.002298 0.000000 0.000000 0.000000
# 3 0.000578 -0.002298 0.004972 0.000000 0.000000 0.000000
# 4 0.000000 0.000000 0.000000 0.018048 0.000000 0.000000
# 5 0.000000 0.000000 0.000000 0.000000 -0.031020 0.000000
# 6 0.000000 0.000000 0.000000 0.000000 0.000000 -0.038510
#
#
# Mechanical properties :
#
#
# Convention : Reuss Voigt Hill
#
# Bulk Modulus (GPa) = 62.01387 74.18769 68.10078
# Shear Modulus (GPa) = -248.43713 28.80496 -109.81608
#
# Velocity S-wave (km/s) = -10.06500 3.42720 -6.69173
# Velocity P-wave (km/s) = 10.47784 6.77585 5.65124
#
# Compressibility (1/GPa) = 0.01612542
#
# Stress axis : x y z
#
# Youngs Moduli (GPa) = 111.35756 140.83117 201.11588
#
# Poissons Ratio (x) = 0.10470 -0.11627
# Poissons Ratio (y) = 0.08279 0.46226
# Poissons Ratio (z) = -0.06438 0.32370
#
# Static dielectric constant tensor:
#      x y z
#    x 2.350510 0.000000 0.000000 
#    y 0.000000 2.023000 0.000000 
#    z 0.000000 0.000000 2.347690 
# 
# From -- ./inp_files/2781.got.cif
#   From: 2010.05.17/outbox.cif.g08.bks.cpg/sg21_2_cif.got.tgz:2781.got - 2010.06.03 23:14:55.
