data_PCOD9322815
_publ_section_title
;
Structure prediction by ZEFSAII (Michael W. Deem and Ramdas Pophale) SiO2 
 PCOD9322815
Probable space group: C 2 2 2
;
_chemical_formula_sum "Si O2"
_cell_formula_units_Z 64
_cell_length_a 18.760569
_cell_length_b 15.317588
_cell_length_c 11.892333
_cell_angle_alpha 90.000000
_cell_angle_beta 90.000000
_cell_angle_gamma 90.000000
_cell_volume 3417.460092
_symmetry_space_group_name_H-M "C 2 2 2"
_symmetry_group_IT_number 21
_symmetry_cell_setting 'orthorhombic'
loop_
_space_group_symop_operation_xyz
x,y,z
-x,-y,z
x,-y,-z
-x,y,-z
1/2+x,1/2+y,z
1/2-x,1/2-y,z
1/2+x,1/2-y,-z
1/2-x,1/2+y,-z
loop_
_atom_site_type_symbol
_atom_site_label
_atom_site_fract_x
_atom_site_fract_y
_atom_site_fract_z
Si Si1 0.929421 0.541218 0.787157
Si Si2 0.714045 0.654384 0.228608
Si Si3 0.647604 0.916807 0.568357
Si Si4 0.930363 0.234259 0.424765
Si Si5 0.962650 0.736131 0.836276
Si Si6 0.708357 0.656973 0.483656
Si Si7 0.826375 0.427360 0.914352
Si Si8 0.615263 0.737094 0.051545
O O1 0.868676 0.563209 0.697499
O O2 0.947488 0.632628 0.844848
O O3 0.899621 0.469546 0.871663
O O4 0.000000 0.500000 0.732135
O O5 0.750000 0.750000 0.238722
O O6 0.689119 0.633296 0.354625
O O7 0.773273 0.586454 0.189247
O O8 0.659753 0.667814 0.124849
O O9 0.602176 0.829535 0.541960
O O10 0.730482 0.902715 0.538396
O O11 0.621031 0.000000 0.500000
O O12 0.950306 0.237629 0.292946
O O13 0.864909 0.168826 0.448836
O O14 0.000000 0.216881 0.500000
O O15 0.043359 0.748865 0.876544
O O16 0.910703 0.783928 0.925423
O O17 0.750000 0.750000 0.482158
O O18 0.841506 0.328952 0.956494
O O19 0.797224 0.500000 0.000000
#
# Coordination Sequence:
#
# PCOD9322815 Si02
#       8
#     8   8   8   8   8   8   8   8
#     4  11  21  31  50  77 115 152 180 222 276 343
#     4   9  19  33  53  73 100 148 190 225 263 331
#     4  10  22  33  50  80 111 149 180 227 281 336
#     4  10  21  34  55  82 106 145 187 233 280 332
#     4  10  20  32  51  80 109 143 182 228 277 329
#     4   9  18  38  54  72 110 149 187 231 282 334
#     4  11  20  33  50  78 110 148 187 221 269 335
#     4  10  19  34  52  77 111 146 182 225 275 328
#
# _framework density 18.727359
#
# number of rings (size 3 to 8) (size 9 to 14) (size 15 to 20)
#    0.000    2.000    2.500    1.500    3.500    2.250 
#    2.250    1.875    0.000    0.375    0.000    1.750 
#    0.000    0.000    0.000    0.000    0.000    0.000 
#
# Total GULP energy -178292.322854 kJ/mol
# GULP energy per Si atom -5571.635089 kJ/mol
# Density = 1.868473 g / cm^3
# Si number density = 18.727359 Si / 1000 Ang^3
#
#
#
# Elastic Constant Matrix: (Units=GPa)
#
#
# Indices 1 2 3 4 5 6 
#
# 1 81.3082 17.7384 47.2939 0.0000 0.0000 0.0000
# 2 17.7384 21.5448 18.9064 0.0000 0.0000 0.0000
# 3 47.2939 18.9064 89.7243 0.0000 0.0000 0.0000
# 4 0.0000 0.0000 0.0000 13.2568 0.0000 0.0000
# 5 0.0000 0.0000 0.0000 0.0000 70.8902 0.0000
# 6 0.0000 0.0000 0.0000 0.0000 0.0000 18.8594
#
#
#
# Elastic Compliance Matrix: (Units=1/GPa)
#
#
# Indices 1 2 3 4 5 6 
#
# 1 0.018890 -0.008361 -0.008195 0.000000 0.000000 0.000000
# 2 -0.008361 0.060645 -0.008372 0.000000 0.000000 0.000000
# 3 -0.008195 -0.008372 0.017229 0.000000 0.000000 0.000000
# 4 0.000000 0.000000 0.000000 0.075433 0.000000 0.000000
# 5 0.000000 0.000000 0.000000 0.000000 0.014106 0.000000
# 6 0.000000 0.000000 0.000000 0.000000 0.000000 0.053024
#
#
# Mechanical properties :
#
#
# Convention : Reuss Voigt Hill
#
# Bulk Modulus (GPa) = 21.31818 40.05052 30.68435
# Shear Modulus (GPa) = 16.40318 27.84386 22.12352
#
# Velocity S-wave (km/s) = 2.96276 3.86009 3.44080
# Velocity P-wave (km/s) = 4.80750 6.42648 5.67502
#
# Compressibility (1/GPa) = 0.04690831
#
# Stress axis : x y z
#
# Youngs Moduli (GPa) = 52.93906 16.48931 58.04181
#
# Poissons Ratio (x) = 0.13787 0.47565
# Poissons Ratio (y) = 0.44262 0.48592
# Poissons Ratio (z) = 0.43384 0.13805
#
# Static dielectric constant tensor:
#      x y z
#    x 1.646380 0.000000 0.000000 
#    y 0.000000 1.557510 0.000000 
#    z 0.000000 0.000000 1.678890 
# 
# From -- ./inp_files/26298.got.cif
#   From: 2010.05.17/outbox.cif.g08.bks.cpg/sg21_14_cif.got.tgz:26298.got - 2010.06.03 23:14:55.
