data_PCOD9322839
_publ_section_title
;
Structure prediction by ZEFSAII (Michael W. Deem and Ramdas Pophale) SiO2 
 PCOD9322839
Probable space group: C 2 2 2
;
_chemical_formula_sum "Si O2"
_cell_formula_units_Z 64
_cell_length_a 24.068121
_cell_length_b 11.938866
_cell_length_c 10.461755
_cell_angle_alpha 90.000000
_cell_angle_beta 90.000000
_cell_angle_gamma 90.000000
_cell_volume 3006.144200
_symmetry_space_group_name_H-M "C 2 2 2"
_symmetry_group_IT_number 21
_symmetry_cell_setting 'orthorhombic'
loop_
_space_group_symop_operation_xyz
x,y,z
-x,-y,z
x,-y,-z
-x,y,-z
1/2+x,1/2+y,z
1/2-x,1/2-y,z
1/2+x,1/2-y,-z
1/2-x,1/2+y,-z
loop_
_atom_site_type_symbol
_atom_site_label
_atom_site_fract_x
_atom_site_fract_y
_atom_site_fract_z
Si Si1 0.046216 0.754775 0.222521
Si Si2 0.805582 0.025522 0.257074
Si Si3 0.410689 0.872114 0.468808
Si Si4 0.689770 0.725224 0.173458
Si Si5 0.071770 0.237659 0.279635
Si Si6 0.162657 0.754156 0.110707
Si Si7 0.422661 0.483884 0.644563
Si Si8 0.790590 0.353944 0.362878
O O1 0.064819 0.670371 0.334862
O O2 0.095251 0.753076 0.117404
O O3 0.981735 0.729985 0.194791
O O4 0.049616 0.879589 0.284424
O O5 0.814222 0.125362 0.156093
O O6 0.749205 0.040668 0.336865
O O7 0.812407 0.909081 0.185063
O O8 0.857033 0.042467 0.353103
O O9 0.433362 0.791253 0.579768
O O10 0.343479 0.863512 0.454388
O O11 0.425023 0.000000 0.500000
O O12 0.750000 0.750000 0.231706
O O13 0.633482 0.771323 0.236067
O O14 0.686199 0.768329 0.028441
O O15 0.071203 0.102965 0.287455
O O16 0.184447 0.673632 0.222268
O O17 0.440844 0.500000 0.500000
O O18 0.750000 0.250000 0.398316
#
# Coordination Sequence:
#
# PCOD9322839 Si02
#       8
#     8   8   8   8   8   8   8   8
#     4  10  21  40  62  83 117 155 201 245 287 367
#     4   9  19  34  56  85 116 153 190 234 294 352
#     4  11  24  38  58  86 119 161 204 246 294 352
#     4  11  23  37  57  87 122 148 188 248 295 351
#     4  11  24  37  57  91 119 154 194 242 310 349
#     4   9  19  38  61  85 108 152 200 236 295 350
#     4  10  19  34  58  89 117 152 192 236 295 354
#     4   9  19  37  60  83 113 158 203 237 287 360
#
# _framework density 21.289731
#
# number of rings (size 3 to 8) (size 9 to 14) (size 15 to 20)
#    0.000    2.000    1.250    3.000    1.750    3.000 
#    0.000    0.000    0.000    4.500    0.000    1.750 
#    0.000    0.000    0.000    0.000    0.000    0.000 
#
# Total GULP energy -178569.148359 kJ/mol
# GULP energy per Si atom -5580.285886 kJ/mol
# Density = 2.124127 g / cm^3
# Si number density = 21.289731 Si / 1000 Ang^3
#
#
#
# Elastic Constant Matrix: (Units=GPa)
#
#
# Indices 1 2 3 4 5 6 
#
# 1 164.0527 1.9092 1.7127 0.0000 0.0000 0.0000
# 2 1.9092 57.0730 -1.3045 0.0000 0.0000 0.0000
# 3 1.7127 -1.3045 17.5920 0.0000 0.0000 0.0000
# 4 0.0000 0.0000 0.0000 11.6861 0.0000 0.0000
# 5 0.0000 0.0000 0.0000 0.0000 12.7935 0.0000
# 6 0.0000 0.0000 0.0000 0.0000 0.0000 -20.7909
#
#
#
# Elastic Compliance Matrix: (Units=1/GPa)
#
#
# Indices 1 2 3 4 5 6 
#
# 1 0.006105 -0.000218 -0.000610 0.000000 0.000000 0.000000
# 2 -0.000218 0.017559 0.001323 0.000000 0.000000 0.000000
# 3 -0.000610 0.001323 0.057002 0.000000 0.000000 0.000000
# 4 0.000000 0.000000 0.000000 0.085572 0.000000 0.000000
# 5 0.000000 0.000000 0.000000 0.000000 0.078164 0.000000
# 6 0.000000 0.000000 0.000000 0.000000 0.000000 -0.048098
#
#
# Mechanical properties :
#
#
# Convention : Reuss Voigt Hill
#
# Bulk Modulus (GPa) = 12.24674 27.03916 19.64295
# Shear Modulus (GPa) = 22.46866 16.49777 19.48322
#
# Velocity S-wave (km/s) = 3.25218 2.78675 3.02842
# Velocity P-wave (km/s) = 4.45726 4.80446 4.63411
#
# Compressibility (1/GPa) = 0.08165440
#
# Stress axis : x y z
#
# Youngs Moduli (GPa) = 163.81319 56.95100 17.54335
#
# Poissons Ratio (x) = 0.01242 0.01071
# Poissons Ratio (y) = 0.03574 -0.02321
# Poissons Ratio (z) = 0.10001 -0.07536
#
# Static dielectric constant tensor:
#      x y z
#    x 1.859070 0.000000 0.000000 
#    y 0.000000 1.766150 0.000000 
#    z 0.000000 0.000000 1.748810 
# 
# From -- ./inp_files/27477.got.cif
#   From: 2010.05.17/outbox.cif.g08.bks.cpg/sg21_14_cif.got.tgz:27477.got - 2010.06.03 23:14:55.
