data_PCOD9322705
_publ_section_title
;
Structure prediction by ZEFSAII (Michael W. Deem and Ramdas Pophale) SiO2 
 PCOD9322705
Probable space group: C 2 2 2
;
_chemical_formula_sum "Si O2"
_cell_formula_units_Z 64
_cell_length_a 26.326446
_cell_length_b 8.942198
_cell_length_c 17.253453
_cell_angle_alpha 90.000000
_cell_angle_beta 90.000000
_cell_angle_gamma 90.000000
_cell_volume 4061.743943
_symmetry_space_group_name_H-M "C 2 2 2"
_symmetry_group_IT_number 21
_symmetry_cell_setting 'orthorhombic'
loop_
_space_group_symop_operation_xyz
x,y,z
-x,-y,z
x,-y,-z
-x,y,-z
1/2+x,1/2+y,z
1/2-x,1/2-y,z
1/2+x,1/2-y,-z
1/2-x,1/2+y,-z
loop_
_atom_site_type_symbol
_atom_site_label
_atom_site_fract_x
_atom_site_fract_y
_atom_site_fract_z
Si Si1 0.060888 0.177698 0.838347
Si Si2 0.438315 0.827551 1.000000
Si Si3 0.000000 0.822932 0.407448
Si Si4 0.095089 0.320127 0.319219
Si Si5 0.404911 0.820127 0.319219
Si Si6 0.303579 0.820261 0.410067
Si Si7 0.196421 0.320261 0.410068
Si Si8 0.439112 0.322302 0.161653
O O1 0.088338 0.257690 0.767171
O O2 1.000000 0.204064 0.829510
O O3 0.068894 0.000000 0.836242
O O4 0.076981 0.244180 0.921277
O O5 0.423019 0.744180 0.921277
O O6 0.500000 0.826498 0.000000
O O7 0.421797 0.000000 0.000000
O O8 0.049523 0.748010 0.370077
O O9 0.000000 0.803745 0.500000
O O10 0.950477 0.748010 0.370077
O O11 0.000000 0.000000 0.389512
O O12 0.091153 0.500000 0.319242
O O13 0.148754 0.276628 0.357457
O O14 0.088338 0.257690 0.232829
O O15 0.351246 0.776628 0.357457
O O16 0.250000 0.750000 0.385970
O O17 0.313002 0.776591 0.500000
O O18 0.299388 0.000000 0.407827
O O19 0.250000 0.250000 0.385970
#
# Coordination Sequence:
#
# PCOD9322705 Si02
#       8
#     8   8   8   8   8   8   8   8
#     4  10  19  31  47  70 102 134 167 204 245 293
#     4   9  17  29  47  69  96 131 170 203 242 291
#     4  11  23  35  47  68  99 134 169 203 247 301
#     4  11  21  33  51  73 100 132 168 207 249 297
#     4  11  21  33  51  73 100 132 168 207 249 297
#     4   9  19  35  53  73  96 126 167 213 257 297
#     4   9  19  35  53  73  96 126 167 213 257 297
#     4  10  19  31  47  70 102 134 167 204 245 293
#
# _framework density 15.756779999999999
#
# number of rings (size 3 to 8) (size 9 to 14) (size 15 to 20)
#    0.000    2.000    1.250    3.000    0.000    6.500 
#    0.000    2.500    0.000    0.000    0.000    0.875 
#    0.000    0.000    0.000    0.000    0.000    0.000 
#
# Total GULP energy -178604.987955 kJ/mol
# GULP energy per Si atom -5581.405874 kJ/mol
# Density = 1.572092 g / cm^3
# Si number density = 15.756780 Si / 1000 Ang^3
#
#
#
# Elastic Constant Matrix: (Units=GPa)
#
#
# Indices 1 2 3 4 5 6 
#
# 1 116.4332 56.1511 83.7642 0.0000 0.0000 0.0000
# 2 56.1511 73.8651 68.2430 0.0000 0.0000 0.0000
# 3 83.7642 68.2430 138.4375 0.0000 0.0000 0.0000
# 4 0.0000 0.0000 0.0000 30.8369 0.0000 0.0000
# 5 0.0000 0.0000 0.0000 0.0000 14.1417 0.0000
# 6 0.0000 0.0000 0.0000 0.0000 0.0000 24.0110
#
#
#
# Elastic Compliance Matrix: (Units=1/GPa)
#
#
# Indices 1 2 3 4 5 6 
#
# 1 0.016594 -0.006130 -0.007019 0.000000 0.000000 0.000000
# 2 -0.006130 0.027125 -0.009662 0.000000 0.000000 0.000000
# 3 -0.007019 -0.009662 0.016233 0.000000 0.000000 0.000000
# 4 0.000000 0.000000 0.000000 0.032429 0.000000 0.000000
# 5 0.000000 0.000000 0.000000 0.000000 0.070713 0.000000
# 6 0.000000 0.000000 0.000000 0.000000 0.000000 0.041648
#
#
# Mechanical properties :
#
#
# Convention : Reuss Voigt Hill
#
# Bulk Modulus (GPa) = 69.78182 82.78361 76.28271
# Shear Modulus (GPa) = 19.59701 21.83643 20.71672
#
# Velocity S-wave (km/s) = 3.53047 3.72673 3.62992
# Velocity P-wave (km/s) = 7.81037 8.43626 8.12934
#
# Compressibility (1/GPa) = 0.01433038
#
# Stress axis : x y z
#
# Youngs Moduli (GPa) = 60.26093 36.86643 61.60152
#
# Poissons Ratio (x) = 0.22600 0.43238
# Poissons Ratio (y) = 0.36941 0.59520
# Poissons Ratio (z) = 0.42297 0.35621
#
# Static dielectric constant tensor:
#      x y z
#    x 1.494040 0.000000 0.000000 
#    y 0.000000 1.526210 0.000000 
#    z 0.000000 0.000000 1.519670 
# 
# From -- ./inp_files/37126.got.cif
#   From: 2010.05.17/outbox.cif.g08.bks.cpg/sg21_19_cif.got.tgz:37126.got - 2010.06.03 23:14:55.
