data_PCOD9322539
_publ_section_title
;
Structure prediction by ZEFSAII (Michael W. Deem and Ramdas Pophale) SiO2 
 PCOD9322539
Probable space group: C 2 2 2
;
_chemical_formula_sum "Si O2"
_cell_formula_units_Z 48
_cell_length_a 16.170096
_cell_length_b 8.370321
_cell_length_c 19.272230
_cell_angle_alpha 90.000000
_cell_angle_beta 90.000000
_cell_angle_gamma 90.000000
_cell_volume 2608.475018
_symmetry_space_group_name_H-M "C 2 2 2"
_symmetry_group_IT_number 21
_symmetry_cell_setting 'orthorhombic'
loop_
_space_group_symop_operation_xyz
x,y,z
-x,-y,z
x,-y,-z
-x,y,-z
1/2+x,1/2+y,z
1/2-x,1/2-y,z
1/2+x,1/2-y,-z
1/2-x,1/2+y,-z
loop_
_atom_site_type_symbol
_atom_site_label
_atom_site_fract_x
_atom_site_fract_y
_atom_site_fract_z
Si Si1 0.172306 0.871508 0.439322
Si Si2 0.410382 0.058847 0.078932
Si Si3 0.408397 0.939964 0.423061
Si Si4 0.591288 0.557794 0.078989
Si Si5 0.751096 0.555381 0.165566
Si Si6 0.237791 0.559559 0.673757
O O1 0.250000 0.750000 0.453515
O O2 0.097136 0.751200 0.427620
O O3 0.163026 0.000000 0.500000
O O4 0.192776 0.967890 0.369925
O O5 0.410215 0.250463 0.078724
O O6 0.332409 0.001832 0.123798
O O7 0.500000 0.000000 0.104649
O O8 0.401203 0.000000 0.000000
O O9 0.500000 0.000000 0.409705
O O10 0.383075 0.000000 0.500000
O O11 0.346152 0.007457 0.365368
O O12 0.500000 0.500000 0.100738
O O13 0.666511 0.502304 0.128006
O O14 0.605309 0.500000 0.000000
O O15 0.750000 0.750000 0.163405
O O16 0.758497 0.510685 0.246018
O O17 0.250000 0.750000 0.668683
#
# Coordination Sequence:
#
# PCOD9322539 Si02
#       6
#     8   8   8   8   8   8
#     4  10  18  33  58  83 106 141 184 222 265 325
#     4  10  19  34  53  77 103 137 180 223 270 321
#     4  10  21  37  55  81 112 140 176 228 273 316
#     4  10  19  35  55  78 106 139 176 223 273 322
#     4   9  20  35  53  77 109 143 181 221 268 323
#     4  10  19  36  56  77 106 145 182 218 267 326
#
# _framework density 18.401558000000001
#
# number of rings (size 3 to 8) (size 9 to 14) (size 15 to 20)
#    0.000    2.167    0.000    6.000    0.000    0.667 
#    0.000   23.333    0.000    0.000    0.000    0.000 
#    0.000    0.000    0.000    0.000    0.000    0.000 
#
# Total GULP energy -133924.239498 kJ/mol
# GULP energy per Si atom -5580.176646 kJ/mol
# Density = 1.835967 g / cm^3
# Si number density = 18.401558 Si / 1000 Ang^3
#
#
#
# Elastic Constant Matrix: (Units=GPa)
#
#
# Indices 1 2 3 4 5 6 
#
# 1 141.9179 46.0785 101.6985 0.0000 0.0000 0.0000
# 2 46.0785 91.6859 41.5942 0.0000 0.0000 0.0000
# 3 101.6985 41.5942 144.3039 0.0000 0.0000 0.0000
# 4 0.0000 0.0000 0.0000 24.9153 0.0000 0.0000
# 5 0.0000 0.0000 0.0000 0.0000 10.4473 0.0000
# 6 0.0000 0.0000 0.0000 0.0000 0.0000 -11.6089
#
#
#
# Elastic Compliance Matrix: (Units=1/GPa)
#
#
# Indices 1 2 3 4 5 6 
#
# 1 0.014988 -0.003153 -0.009654 0.000000 0.000000 0.000000
# 2 -0.003153 0.013211 -0.001586 0.000000 0.000000 0.000000
# 3 -0.009654 -0.001586 0.014191 0.000000 0.000000 0.000000
# 4 0.000000 0.000000 0.000000 0.040136 0.000000 0.000000
# 5 0.000000 0.000000 0.000000 0.000000 0.095719 0.000000
# 6 0.000000 0.000000 0.000000 0.000000 0.000000 -0.086141
#
#
# Mechanical properties :
#
#
# Convention : Reuss Voigt Hill
#
# Bulk Modulus (GPa) = 73.50863 84.07222 78.79043
# Shear Modulus (GPa) = 39.86476 17.31984 28.59230
#
# Velocity S-wave (km/s) = 4.65949 3.07125 3.94610
# Velocity P-wave (km/s) = 8.30551 7.63960 7.97950
#
# Compressibility (1/GPa) = 0.01360385
#
# Stress axis : x y z
#
# Youngs Moduli (GPa) = 66.71906 75.69564 70.46849
#
# Poissons Ratio (x) = 0.23866 0.68032
# Poissons Ratio (y) = 0.21036 0.11175
# Poissons Ratio (z) = 0.64412 0.12004
#
# Static dielectric constant tensor:
#      x y z
#    x 1.656520 0.000000 0.000000 
#    y 0.000000 1.648550 0.000000 
#    z 0.000000 0.000000 1.616550 
# 
# From -- ./inp_files/36895.got.cif
#   From: 2010.05.17/outbox.cif.g08.bks.cpg/sg21_19_cif.got.tgz:36895.got - 2010.06.03 23:14:55.
