data_PCOD9322884
_publ_section_title
;
Structure prediction by ZEFSAII (Michael W. Deem and Ramdas Pophale) SiO2 
 PCOD9322884
Probable space group: C 2 2 2
;
_chemical_formula_sum "Si O2"
_cell_formula_units_Z 26
_cell_length_a 17.182755
_cell_length_b 7.564086
_cell_length_c 11.029344
_cell_angle_alpha 90.000000
_cell_angle_beta 90.000000
_cell_angle_gamma 90.000000
_cell_volume 1433.504095
_symmetry_space_group_name_H-M "C 2 2 2"
_symmetry_group_IT_number 21
_symmetry_cell_setting 'orthorhombic'
loop_
_space_group_symop_operation_xyz
x,y,z
-x,-y,z
x,-y,-z
-x,y,-z
1/2+x,1/2+y,z
1/2-x,1/2-y,z
1/2+x,1/2-y,-z
1/2-x,1/2+y,-z
loop_
_atom_site_type_symbol
_atom_site_label
_atom_site_fract_x
_atom_site_fract_y
_atom_site_fract_z
Si Si1 0.341362 0.500000 0.500000
Si Si2 0.456528 0.777743 0.375634
Si Si3 0.589530 0.129990 0.773609
Si Si4 0.500000 0.000000 0.000000
Si Si5 0.750000 0.250000 0.682198
O O1 0.394811 0.632492 0.419489
O O2 0.286851 0.605163 0.592699
O O3 0.500000 0.823918 0.500000
O O4 0.529964 0.731257 0.289440
O O5 0.419534 0.946015 0.304610
O O6 0.556492 0.103071 0.907821
O O7 0.678195 0.183706 0.762098
#
# Coordination Sequence:
#
# PCOD9322884 Si02
#       5
#     4   8   8   2   4
#     4  12  23  34  54  91 130 150 176 227 300 354
#     4  10  19  35  57  82 117 158 184 219 277 368
#     4  10  21  38  61  81 113 153 202 234 285 328
#     4   8  20  44  62  70 104 166 200 236 276 340
#     4  12  24  32  54  94 122 148 182 244 294 338
#
# _framework density 18.137374999999999
#
# number of rings (size 3 to 8) (size 9 to 14) (size 15 to 20)
#    0.000    1.846    3.077    4.154    0.000    0.000 
#    0.000    6.154    0.000    7.385    0.000    0.000 
#    0.000    0.000    0.000    0.000    0.000    0.000 
#
# Total GULP energy -72381.763177 kJ/mol
# GULP energy per Si atom -5567.827937 kJ/mol
# Density = 1.809609 g / cm^3
# Si number density = 18.137375 Si / 1000 Ang^3
#
#
#
# Elastic Constant Matrix: (Units=GPa)
#
#
# Indices 1 2 3 4 5 6 
#
# 1 186.6135 48.8882 73.7047 0.0000 0.0000 0.0000
# 2 48.8882 54.2164 33.2566 0.0000 0.0000 0.0000
# 3 73.7047 33.2566 150.1999 0.0000 0.0000 0.0000
# 4 0.0000 0.0000 0.0000 3.4020 0.0000 0.0000
# 5 0.0000 0.0000 0.0000 0.0000 26.2161 0.0000
# 6 0.0000 0.0000 0.0000 0.0000 0.0000 29.5131
#
#
#
# Elastic Compliance Matrix: (Units=1/GPa)
#
#
# Indices 1 2 3 4 5 6 
#
# 1 0.007824 -0.005439 -0.002635 0.000000 0.000000 0.000000
# 2 -0.005439 0.025124 -0.002894 0.000000 0.000000 0.000000
# 3 -0.002635 -0.002894 0.008592 0.000000 0.000000 0.000000
# 4 0.000000 0.000000 0.000000 0.293944 0.000000 0.000000
# 5 0.000000 0.000000 0.000000 0.000000 0.038145 0.000000
# 6 0.000000 0.000000 0.000000 0.000000 0.000000 0.033883
#
#
# Mechanical properties :
#
#
# Convention : Reuss Voigt Hill
#
# Bulk Modulus (GPa) = 51.00999 78.08099 64.54549
# Shear Modulus (GPa) = 11.46834 27.50493 19.48663
#
# Velocity S-wave (km/s) = 2.51729 3.89842 3.28135
# Velocity P-wave (km/s) = 6.05263 7.96284 7.07252
#
# Compressibility (1/GPa) = 0.01960400
#
# Stress axis : x y z
#
# Youngs Moduli (GPa) = 127.80622 39.80231 116.39155
#
# Poissons Ratio (x) = 0.21648 0.30672
# Poissons Ratio (y) = 0.69513 0.33683
# Poissons Ratio (z) = 0.33680 0.11519
#
# Static dielectric constant tensor:
#      x y z
#    x 1.650570 0.000000 0.000000 
#    y 0.000000 1.698280 0.000000 
#    z 0.000000 0.000000 1.627700 
# 
# From -- ./inp_files/15896.got.cif
#   From: 2010.05.17/outbox.cif.g08.bks.cpg/sg21_8_cif.got.tgz:15896.got - 2010.06.03 23:14:55.
