data_PCOD9322637
_publ_section_title
;
Structure prediction by ZEFSAII (Michael W. Deem and Ramdas Pophale) SiO2 
 PCOD9322637
Probable space group: C 2 2 2
;
_chemical_formula_sum "Si O2"
_cell_formula_units_Z 64
_cell_length_a 14.535215
_cell_length_b 12.382451
_cell_length_c 17.596632
_cell_angle_alpha 90.000000
_cell_angle_beta 90.000000
_cell_angle_gamma 90.000000
_cell_volume 3167.069762
_symmetry_space_group_name_H-M "C 2 2 2"
_symmetry_group_IT_number 21
_symmetry_cell_setting 'orthorhombic'
loop_
_space_group_symop_operation_xyz
x,y,z
-x,-y,z
x,-y,-z
-x,y,-z
1/2+x,1/2+y,z
1/2-x,1/2-y,z
1/2+x,1/2-y,-z
1/2-x,1/2+y,-z
loop_
_atom_site_type_symbol
_atom_site_label
_atom_site_fract_x
_atom_site_fract_y
_atom_site_fract_z
Si Si1 0.782873 0.644033 0.688791
Si Si2 0.600235 0.460220 0.840111
Si Si3 0.608242 0.015972 0.911771
Si Si4 0.133720 0.000646 0.660527
Si Si5 0.255453 0.632217 0.141630
Si Si6 0.987322 0.831196 0.410449
Si Si7 0.001720 0.630014 0.309736
Si Si8 0.645417 0.221267 0.814890
O O1 0.750000 0.750000 0.644196
O O2 0.739655 0.537101 0.652090
O O3 0.727686 0.647857 0.768704
O O4 0.889920 0.648969 0.706090
O O5 0.500000 0.500000 0.860835
O O6 0.612570 0.472543 0.748453
O O7 0.672021 0.540352 0.881286
O O8 0.611598 0.332984 0.851942
O O9 0.645875 0.127408 0.877902
O O10 0.500000 0.000000 0.901744
O O11 0.657151 0.921444 0.866537
O O12 0.630396 0.000000 0.000000
O O13 0.068204 0.099735 0.632463
O O14 0.104037 0.896511 0.613192
O O15 0.250000 0.750000 0.104726
O O16 0.984278 0.708563 0.381383
O O17 0.000000 0.838006 0.500000
O O18 0.927693 0.674729 0.247437
O O19 0.000000 0.500000 0.318877
O O20 0.750000 0.250000 0.787051
#
# Coordination Sequence:
#
# PCOD9322637 Si02
#       8
#     8   8   8   8   8   8   8   8
#     4  10  20  36  64  93 125 161 218 268 331 397
#     4  11  21  36  66 101 127 159 216 287 338 380
#     4  11  25  45  66  92 132 185 225 264 338 421
#     4  10  18  37  64  93 122 164 224 283 329 396
#     4  10  22  37  61  98 128 163 209 270 327 395
#     4  11  22  39  64  92 129 182 232 284 345 414
#     4  12  25  39  65  96 134 174 217 287 342 411
#     4  12  24  43  70 101 135 170 227 288 346 407
#
# _framework density 20.207953
#
# number of rings (size 3 to 8) (size 9 to 14) (size 15 to 20)
#    0.000    1.125    5.000    2.625    7.000    0.750 
#    0.000    0.000   11.000    0.375    0.000    0.000 
#    0.000    0.000    0.000    0.000    0.000    0.000 
#
# Total GULP energy -178337.108789 kJ/mol
# GULP energy per Si atom -5573.034650 kJ/mol
# Density = 2.016196 g / cm^3
# Si number density = 20.207953 Si / 1000 Ang^3
#
#
#
# Elastic Constant Matrix: (Units=GPa)
#
#
# Indices 1 2 3 4 5 6 
#
# 1 100.4464 48.2396 25.7176 0.0000 0.0000 0.0000
# 2 48.2396 177.9691 24.8731 0.0000 0.0000 0.0000
# 3 25.7176 24.8731 35.7188 0.0000 0.0000 0.0000
# 4 0.0000 0.0000 0.0000 33.2405 0.0000 0.0000
# 5 0.0000 0.0000 0.0000 0.0000 10.1190 0.0000
# 6 0.0000 0.0000 0.0000 0.0000 0.0000 34.2326
#
#
#
# Elastic Compliance Matrix: (Units=1/GPa)
#
#
# Indices 1 2 3 4 5 6 
#
# 1 0.013123 -0.002478 -0.007723 0.000000 0.000000 0.000000
# 2 -0.002478 0.006693 -0.002877 0.000000 0.000000 0.000000
# 3 -0.007723 -0.002877 0.035560 0.000000 0.000000 0.000000
# 4 0.000000 0.000000 0.000000 0.030084 0.000000 0.000000
# 5 0.000000 0.000000 0.000000 0.000000 0.098824 0.000000
# 6 0.000000 0.000000 0.000000 0.000000 0.000000 0.029212
#
#
# Mechanical properties :
#
#
# Convention : Reuss Voigt Hill
#
# Bulk Modulus (GPa) = 34.22193 56.86613 45.54403
# Shear Modulus (GPa) = 20.04892 29.87201 24.96046
#
# Velocity S-wave (km/s) = 3.15323 3.84895 3.51833
# Velocity P-wave (km/s) = 5.49807 6.92489 6.25231
#
# Compressibility (1/GPa) = 0.02922103
#
# Stress axis : x y z
#
# Youngs Moduli (GPa) = 76.20308 149.41972 28.12127
#
# Poissons Ratio (x) = 0.37021 0.21719
# Poissons Ratio (y) = 0.18880 0.08089
# Poissons Ratio (z) = 0.58853 0.42981
#
# Static dielectric constant tensor:
#      x y z
#    x 1.770310 0.000000 0.000000 
#    y 0.000000 1.760130 0.000000 
#    z 0.000000 0.000000 1.751720 
# 
# From -- ./inp_files/36730.got.cif
#   From: 2010.05.17/outbox.cif.g08.bks.cpg/sg21_19_cif.got.tgz:36730.got - 2010.06.03 23:14:55.
