data_PCOD9322661
_publ_section_title
;
Structure prediction by ZEFSAII (Michael W. Deem and Ramdas Pophale) SiO2 
 PCOD9322661
Probable space group: C 2 2 2
;
_chemical_formula_sum "Si O2"
_cell_formula_units_Z 36
_cell_length_a 24.061654
_cell_length_b 12.618426
_cell_length_c 5.267688
_cell_angle_alpha 90.000000
_cell_angle_beta 90.000000
_cell_angle_gamma 90.000000
_cell_volume 1599.376486
_symmetry_space_group_name_H-M "C 2 2 2"
_symmetry_group_IT_number 21
_symmetry_cell_setting 'orthorhombic'
loop_
_space_group_symop_operation_xyz
x,y,z
-x,-y,z
x,-y,-z
-x,y,-z
1/2+x,1/2+y,z
1/2-x,1/2-y,z
1/2+x,1/2-y,-z
1/2-x,1/2+y,-z
loop_
_atom_site_type_symbol
_atom_site_label
_atom_site_fract_x
_atom_site_fract_y
_atom_site_fract_z
Si Si1 0.677440 0.000000 0.000000
Si Si2 0.630578 0.613053 0.927394
Si Si3 0.939082 0.161051 0.581673
Si Si4 0.697291 0.802217 0.744105
Si Si5 0.598303 0.889789 0.397348
O O1 0.634563 0.072034 0.840231
O O2 0.715054 0.913445 0.864389
O O3 0.602035 0.624169 0.647955
O O4 0.673112 0.712146 0.932114
O O5 0.656569 0.500000 0.000000
O O6 0.584148 0.623444 0.147833
O O7 0.941048 0.289230 0.623779
O O8 0.000000 0.125226 0.500000
O O9 0.750000 0.750000 0.607118
O O10 0.645795 0.842706 0.580427
O O11 0.573122 0.000000 0.500000
#
# Coordination Sequence:
#
# PCOD9322661 Si02
#       5
#     4   8   8   8   8
#     4  10  18  40  64  85 128 166 213 272 326 384
#     4  11  24  43  62  96 132 172 218 269 323 393
#     4  11  23  42  66  93 129 170 220 272 328 393
#     4  10  22  38  62  95 128 173 214 268 327 395
#     4   9  20  39  61  89 127 168 211 271 331 385
#
# _framework density 22.508772
#
# number of rings (size 3 to 8) (size 9 to 14) (size 15 to 20)
#    0.000    1.778    2.222    1.333    1.556    4.000 
#    0.000    4.444    0.000    0.000    0.000    0.000 
#    0.000    0.000    0.000    0.000    0.000    0.000 
#
# Total GULP energy -100275.078306 kJ/mol
# GULP energy per Si atom -5570.837684 kJ/mol
# Density = 2.245754 g / cm^3
# Si number density = 22.508772 Si / 1000 Ang^3
#
#
#
# Elastic Constant Matrix: (Units=GPa)
#
#
# Indices 1 2 3 4 5 6 
#
# 1 43.6934 16.7745 -8.6385 0.0000 0.0000 0.0000
# 2 16.7745 155.5785 25.9174 0.0000 0.0000 0.0000
# 3 -8.6385 25.9174 76.1171 0.0000 0.0000 0.0000
# 4 0.0000 0.0000 0.0000 29.8869 0.0000 0.0000
# 5 0.0000 0.0000 0.0000 0.0000 -29.7801 0.0000
# 6 0.0000 0.0000 0.0000 0.0000 0.0000 13.9494
#
#
#
# Elastic Compliance Matrix: (Units=1/GPa)
#
#
# Indices 1 2 3 4 5 6 
#
# 1 0.024960 -0.003353 0.003974 0.000000 0.000000 0.000000
# 2 -0.003353 0.007265 -0.002854 0.000000 0.000000 0.000000
# 3 0.003974 -0.002854 0.014561 0.000000 0.000000 0.000000
# 4 0.000000 0.000000 0.000000 0.033459 0.000000 0.000000
# 5 0.000000 0.000000 0.000000 0.000000 -0.033579 0.000000
# 6 0.000000 0.000000 0.000000 0.000000 0.000000 0.071688
#
#
# Mechanical properties :
#
#
# Convention : Reuss Voigt Hill
#
# Bulk Modulus (GPa) = 23.62997 38.16620 30.89809
# Shear Modulus (GPa) = 36.51640 18.90030 27.70835
#
# Velocity S-wave (km/s) = 4.03217 2.90088 3.51237
# Velocity P-wave (km/s) = 5.67440 5.31160 5.49599
#
# Compressibility (1/GPa) = 0.04231913
#
# Stress axis : x y z
#
# Youngs Moduli (GPa) = 40.06432 137.65326 68.67887
#
# Poissons Ratio (x) = 0.46159 -0.27296
# Poissons Ratio (y) = 0.13435 0.19602
# Poissons Ratio (z) = -0.15923 0.39288
#
# Static dielectric constant tensor:
#      x y z
#    x 1.876620 0.000000 0.000000 
#    y 0.000000 2.134370 0.000000 
#    z 0.000000 0.000000 1.910310 
# 
# From -- ./inp_files/2683.got.cif
#   From: 2010.05.17/outbox.cif.g08.bks.cpg/sg21_2_cif.got.tgz:2683.got - 2010.06.03 23:14:55.
