data_PCOD9322105
_publ_section_title
;
Structure prediction by ZEFSAII (Michael W. Deem and Ramdas Pophale) SiO2 
 PCOD9322105
Probable space group: C 2 2 21
;
_chemical_formula_sum "Si O2"
_cell_formula_units_Z 32
_cell_length_a 5.181383
_cell_length_b 8.256040
_cell_length_c 28.613316
_cell_angle_alpha 90.000000
_cell_angle_beta 90.000000
_cell_angle_gamma 90.000000
_cell_volume 1224.012000
_symmetry_space_group_name_H-M "C 2 2 21"
_symmetry_group_IT_number 20
_symmetry_cell_setting 'orthorhombic'
loop_
_space_group_symop_operation_xyz
x,y,z
-x,-y,1/2+z
x,-y,-z
-x,y,1/2-z
1/2+x,1/2+y,z
1/2-x,1/2-y,1/2+z
1/2+x,1/2-y,-z
1/2-x,1/2+y,1/2-z
loop_
_atom_site_type_symbol
_atom_site_label
_atom_site_fract_x
_atom_site_fract_y
_atom_site_fract_z
Si Si1 0.523195 0.234645 0.435909
Si Si2 0.805071 0.000000 0.500000
Si Si3 0.500000 0.810667 0.750000
Si Si4 0.330161 0.475974 0.310440
Si Si5 0.982553 0.260151 0.126304
O O1 0.481323 0.361265 0.477824
O O2 0.751447 0.286225 0.401100
O O3 0.253803 0.227384 0.408825
O O4 0.624999 0.070780 0.459337
O O5 0.541988 0.690484 0.793423
O O6 0.272122 0.928959 0.765106
O O7 0.486196 0.602428 0.341184
O O8 0.091736 0.413777 0.342001
#
# Coordination Sequence:
#
# PCOD9322105 Si02
#       5
#     8   4   4   8   8
#     4  12  30  52  80 115 155 204 257 317 384 456
#     4  12  30  52  80 114 156 204 256 318 384 456
#     4  12  26  48  76 112 152 200 252 312 380 452
#     4  12  27  48  78 113 154 202 254 315 380 454
#     4  12  29  51  80 115 155 204 257 317 382 455
#
# _framework density 26.143536000000001
#
# number of rings (size 3 to 8) (size 9 to 14) (size 15 to 20)
#    0.000    0.000    0.000    7.500    0.000   27.000 
#    0.000    0.000    0.000    0.000    0.000    0.000 
#    0.000    0.000    0.000    0.000    0.000    0.000 
#
# Total GULP energy -89957.773472 kJ/mol
# GULP energy per Si atom -5622.360842 kJ/mol
# Density = 2.608403 g / cm^3
# Si number density = 26.143536 Si / 1000 Ang^3
#
#
#
# Elastic Constant Matrix: (Units=GPa)
#
#
# Indices 1 2 3 4 5 6 
#
# 1 117.4185 28.1493 32.4273 0.0000 0.0000 0.0000
# 2 28.1493 116.4522 16.3166 0.0000 0.0000 0.0000
# 3 32.4273 16.3166 86.1346 0.0000 0.0000 0.0000
# 4 0.0000 0.0000 0.0000 43.1145 0.0000 0.0000
# 5 0.0000 0.0000 0.0000 0.0000 39.6908 0.0000
# 6 0.0000 0.0000 0.0000 0.0000 0.0000 34.1621
#
#
#
# Elastic Compliance Matrix: (Units=1/GPa)
#
#
# Indices 1 2 3 4 5 6 
#
# 1 0.009907 -0.001923 -0.003365 0.000000 0.000000 0.000000
# 2 -0.001923 0.009195 -0.001018 0.000000 0.000000 0.000000
# 3 -0.003365 -0.001018 0.013070 0.000000 0.000000 0.000000
# 4 0.000000 0.000000 0.000000 0.023194 0.000000 0.000000
# 5 0.000000 0.000000 0.000000 0.000000 0.025195 0.000000
# 6 0.000000 0.000000 0.000000 0.000000 0.000000 0.029272
#
#
# Mechanical properties :
#
#
# Convention : Reuss Voigt Hill
#
# Bulk Modulus (GPa) = 51.12860 52.64353 51.88606
# Shear Modulus (GPa) = 38.77038 39.60096 39.18567
#
# Velocity S-wave (km/s) = 3.85513 3.89620 3.87572
# Velocity P-wave (km/s) = 6.27816 6.35772 6.31807
#
# Compressibility (1/GPa) = 0.01955852
#
# Stress axis : x y z
#
# Youngs Moduli (GPa) = 100.93840 108.75827 76.51400
#
# Poissons Ratio (x) = 0.20917 0.25750
# Poissons Ratio (y) = 0.19413 0.07787
# Poissons Ratio (z) = 0.33970 0.11069
#
# Static dielectric constant tensor:
#      x y z
#    x 1.985360 0.000000 0.000000 
#    y 0.000000 1.953730 0.000000 
#    z 0.000000 0.000000 2.053610 
# 
# From -- ./inp_files/30627.got.cif
#   From: 2010.05.17/outbox.cif.g08.bks.cpg/sg20_16_cif.got.tgz:30627.got - 2010.06.03 22:52:26.
