data_PCOD9322087
_publ_section_title
;
Structure prediction by ZEFSAII (Michael W. Deem and Ramdas Pophale) SiO2 
 PCOD9322087
Probable space group: C 2 2 21
;
_chemical_formula_sum "Si O2"
_cell_formula_units_Z 32
_cell_length_a 5.009524
_cell_length_b 26.116451
_cell_length_c 9.379473
_cell_angle_alpha 90.000000
_cell_angle_beta 90.000000
_cell_angle_gamma 90.000000
_cell_volume 1227.125720
_symmetry_space_group_name_H-M "C 2 2 21"
_symmetry_group_IT_number 20
_symmetry_cell_setting 'orthorhombic'
loop_
_space_group_symop_operation_xyz
x,y,z
-x,-y,1/2+z
x,-y,-z
-x,y,1/2-z
1/2+x,1/2+y,z
1/2-x,1/2-y,1/2+z
1/2+x,1/2-y,-z
1/2-x,1/2+y,1/2-z
loop_
_atom_site_type_symbol
_atom_site_label
_atom_site_fract_x
_atom_site_fract_y
_atom_site_fract_z
Si Si1 0.500000 0.207397 0.250000
Si Si2 0.500000 0.774065 0.250000
Si Si3 0.084473 0.949520 0.917308
Si Si4 0.944714 0.351718 0.019075
Si Si5 0.734651 0.934771 0.157948
O O1 0.245002 0.239086 0.196903
O O2 0.416825 0.170936 0.380212
O O3 0.641852 0.804818 0.380669
O O4 0.245137 0.897852 0.965970
O O5 0.000000 0.951857 0.750000
O O6 0.800820 0.949048 0.997576
O O7 0.207032 0.000000 0.000000
O O8 0.152853 0.376973 0.128334
O O9 0.500000 0.959674 0.250000
O O10 0.000000 0.938076 0.250000
#
# Coordination Sequence:
#
# PCOD9322087 Si02
#       5
#     4   4   8   8   8
#     4  12  30  48  79 126 161 220 280 356 432 526
#     4  12  28  48  83 116 165 216 282 350 444 514
#     4  12  29  53  89 128 174 236 298 363 438 526
#     4  12  27  51  84 118 177 212 293 353 440 508
#     4  12  25  50  84 118 163 224 285 355 433 504
#
# _framework density 26.077197999999999
#
# number of rings (size 3 to 8) (size 9 to 14) (size 15 to 20)
#    0.000    0.000    3.750    3.750   10.500    1.000 
#    0.000    3.750    0.000    0.000    0.000    0.000 
#    0.000    0.000    0.000    0.000    0.000    0.000 
#
# Total GULP energy -89190.617043 kJ/mol
# GULP energy per Si atom -5574.413565 kJ/mol
# Density = 2.601784 g / cm^3
# Si number density = 26.077198 Si / 1000 Ang^3
#
#
#
# Elastic Constant Matrix: (Units=GPa)
#
#
# Indices 1 2 3 4 5 6 
#
# 1 141.9876 38.3659 64.7940 0.0000 0.0000 0.0000
# 2 38.3659 108.4114 55.5917 0.0000 0.0000 0.0000
# 3 64.7940 55.5917 258.4623 0.0000 0.0000 0.0000
# 4 0.0000 0.0000 0.0000 22.5187 0.0000 0.0000
# 5 0.0000 0.0000 0.0000 0.0000 48.6452 0.0000
# 6 0.0000 0.0000 0.0000 0.0000 0.0000 33.1549
#
#
#
# Elastic Compliance Matrix: (Units=1/GPa)
#
#
# Indices 1 2 3 4 5 6 
#
# 1 0.008364 -0.002118 -0.001641 0.000000 0.000000 0.000000
# 2 -0.002118 0.010904 -0.001814 0.000000 0.000000 0.000000
# 3 -0.001641 -0.001814 0.004671 0.000000 0.000000 0.000000
# 4 0.000000 0.000000 0.000000 0.044407 0.000000 0.000000
# 5 0.000000 0.000000 0.000000 0.000000 0.020557 0.000000
# 6 0.000000 0.000000 0.000000 0.000000 0.000000 0.030161
#
#
# Mechanical properties :
#
#
# Convention : Reuss Voigt Hill
#
# Bulk Modulus (GPa) = 78.17835 91.81828 84.99831
# Shear Modulus (GPa) = 37.18121 44.20442 40.69281
#
# Velocity S-wave (km/s) = 3.78009 4.12167 3.95457
# Velocity P-wave (km/s) = 7.00691 7.61167 7.31554
#
# Compressibility (1/GPa) = 0.01279127
#
# Stress axis : x y z
#
# Youngs Moduli (GPa) = 119.55694 91.70822 214.10133
#
# Poissons Ratio (x) = 0.19428 0.35138
# Poissons Ratio (y) = 0.25328 0.38843
# Poissons Ratio (z) = 0.19621 0.16638
#
# Static dielectric constant tensor:
#      x y z
#    x 2.087950 0.000000 0.000000 
#    y 0.000000 2.225790 0.000000 
#    z 0.000000 0.000000 2.136020 
# 
# From -- ./inp_files/5271.got.cif
#   From: 2010.05.17/outbox.cif.g08.bks.cpg/sg20_3_cif.got.tgz:5271.got - 2010.06.03 22:52:26.
