data_PCOD9322286
_publ_section_title
;
Structure prediction by ZEFSAII (Michael W. Deem and Ramdas Pophale) SiO2 
 PCOD9322286
Probable space group: C 2 2 2
;
_chemical_formula_sum "Si O2"
_cell_formula_units_Z 46
_cell_length_a 11.918701
_cell_length_b 18.187881
_cell_length_c 11.028955
_cell_angle_alpha 90.000000
_cell_angle_beta 90.000000
_cell_angle_gamma 90.000000
_cell_volume 2390.811817
_symmetry_space_group_name_H-M "C 2 2 2"
_symmetry_group_IT_number 21
_symmetry_cell_setting 'orthorhombic'
loop_
_space_group_symop_operation_xyz
x,y,z
-x,-y,z
x,-y,-z
-x,y,-z
1/2+x,1/2+y,z
1/2-x,1/2-y,z
1/2+x,1/2-y,-z
1/2-x,1/2+y,-z
loop_
_atom_site_type_symbol
_atom_site_label
_atom_site_fract_x
_atom_site_fract_y
_atom_site_fract_z
Si Si1 0.500000 0.000000 0.000000
Si Si2 0.395156 0.664271 0.414764
Si Si3 0.509923 0.912093 0.364040
Si Si4 0.835520 0.601501 0.841976
Si Si5 0.612108 0.474223 0.245398
Si Si6 0.750000 0.250000 0.220673
Si Si7 0.746925 0.927862 0.414109
O O1 0.580989 0.945680 0.924656
O O2 0.500000 0.687062 0.500000
O O3 0.422957 0.590193 0.339131
O O4 0.345574 0.718805 0.312947
O O5 0.294925 0.636578 0.502565
O O6 0.500000 0.883104 0.500000
O O7 0.408438 0.887928 0.280868
O O8 0.640709 0.901009 0.335711
O O9 0.500000 0.000000 0.363826
O O10 0.720607 0.556132 0.824517
O O11 0.796011 0.684582 0.864225
O O12 0.500000 0.500000 0.177554
O O13 0.659632 0.540879 0.325368
O O14 0.717552 0.000000 0.500000
#
# Coordination Sequence:
#
# PCOD9322286 Si02
#       7
#     2   8   8   8   8   4   8
#     4  12  24  48  80  88 104 154 244 284 300 384
#     4  10  19  30  48  81 126 182 202 221 293 387
#     4  11  16  28  52  90 126 153 197 254 302 355
#     4  11  23  41  65  94 119 165 210 269 324 363
#     4  10  17  30  54  86 123 152 200 252 296 362
#     4  10  24  38  54  84 134 166 198 256 330 380
#     4  10  16  24  44  79 120 165 209 244 279 333
#
# _framework density 19.240327000000001
#
# number of rings (size 3 to 8) (size 9 to 14) (size 15 to 20)
#    0.000    1.565    6.087    2.087    0.000    2.087 
#    0.000    0.435    7.652    0.000    0.000    0.000 
#    0.000    0.000    0.000    0.000    0.000    0.000 
#
# Total GULP energy -128068.832666 kJ/mol
# GULP energy per Si atom -5568.210116 kJ/mol
# Density = 1.919653 g / cm^3
# Si number density = 19.240327 Si / 1000 Ang^3
#
#
#
# Elastic Constant Matrix: (Units=GPa)
#
#
# Indices 1 2 3 4 5 6 
#
# 1 153.8146 45.0829 29.5354 0.0000 0.0000 0.0000
# 2 45.0829 75.2714 28.2273 0.0000 0.0000 0.0000
# 3 29.5354 28.2273 35.8724 0.0000 0.0000 0.0000
# 4 0.0000 0.0000 0.0000 7.9441 0.0000 0.0000
# 5 0.0000 0.0000 0.0000 0.0000 13.0263 0.0000
# 6 0.0000 0.0000 0.0000 0.0000 0.0000 13.5589
#
#
#
# Elastic Compliance Matrix: (Units=1/GPa)
#
#
# Indices 1 2 3 4 5 6 
#
# 1 0.008298 -0.003416 -0.004144 0.000000 0.000000 0.000000
# 2 -0.003416 0.020253 -0.013124 0.000000 0.000000 0.000000
# 3 -0.004144 -0.013124 0.041616 0.000000 0.000000 0.000000
# 4 0.000000 0.000000 0.000000 0.125879 0.000000 0.000000
# 5 0.000000 0.000000 0.000000 0.000000 0.076768 0.000000
# 6 0.000000 0.000000 0.000000 0.000000 0.000000 0.073752
#
#
# Mechanical properties :
#
#
# Convention : Reuss Voigt Hill
#
# Bulk Modulus (GPa) = 34.72434 52.29439 43.50937
# Shear Modulus (GPa) = 12.57752 17.71339 15.14545
#
# Velocity S-wave (km/s) = 2.55954 3.03749 2.80870
# Velocity P-wave (km/s) = 5.17898 6.28812 5.76031
#
# Compressibility (1/GPa) = 0.02879824
#
# Stress axis : x y z
#
# Youngs Moduli (GPa) = 120.50548 49.37583 24.02925
#
# Poissons Ratio (x) = 0.16867 0.09959
# Poissons Ratio (y) = 0.41165 0.31536
# Poissons Ratio (z) = 0.49943 0.64801
#
# Static dielectric constant tensor:
#      x y z
#    x 1.751040 0.000000 0.000000 
#    y 0.000000 1.690690 0.000000 
#    z 0.000000 0.000000 1.688490 
# 
# From -- ./inp_files/24101.got.cif
#   From: 2010.05.17/outbox.cif.g08.bks.cpg/sg21_13_cif.got.tgz:24101.got - 2010.06.03 23:14:55.
