data_PCOD9322636
_publ_section_title
;
Structure prediction by ZEFSAII (Michael W. Deem and Ramdas Pophale) SiO2 
 PCOD9322636
Probable space group: C 2 2 2
;
_chemical_formula_sum "Si O2"
_cell_formula_units_Z 48
_cell_length_a 10.156905
_cell_length_b 28.947632
_cell_length_c 8.481692
_cell_angle_alpha 90.000000
_cell_angle_beta 90.000000
_cell_angle_gamma 90.000000
_cell_volume 2493.773072
_symmetry_space_group_name_H-M "C 2 2 2"
_symmetry_group_IT_number 21
_symmetry_cell_setting 'orthorhombic'
loop_
_space_group_symop_operation_xyz
x,y,z
-x,-y,z
x,-y,-z
-x,y,-z
1/2+x,1/2+y,z
1/2-x,1/2-y,z
1/2+x,1/2-y,-z
1/2-x,1/2+y,-z
loop_
_atom_site_type_symbol
_atom_site_label
_atom_site_fract_x
_atom_site_fract_y
_atom_site_fract_z
Si Si1 0.763753 0.907396 0.705211
Si Si2 0.474229 0.150570 0.817693
Si Si3 0.495788 0.343932 0.308653
Si Si4 0.093066 0.253140 0.653345
Si Si5 0.348719 0.505962 0.691053
Si Si6 0.264593 0.893990 0.673559
O O1 0.651118 0.881876 0.797708
O O2 0.904087 0.883968 0.741521
O O3 0.737652 0.898223 0.517875
O O4 0.768280 0.961297 0.744047
O O5 0.438579 0.199839 0.742727
O O6 0.596725 0.125236 0.732487
O O7 0.500000 0.157395 0.000000
O O8 0.500000 0.343882 0.500000
O O9 0.548668 0.293900 0.258055
O O10 0.347407 0.357932 0.270446
O O11 0.250000 0.250000 0.617458
O O12 0.000000 0.254661 0.500000
O O13 0.500000 0.500000 0.745151
O O14 0.353314 0.500000 0.500000
O O15 0.282245 0.554968 0.728732
#
# Coordination Sequence:
#
# PCOD9322636 Si02
#       6
#     8   8   8   8   8   8
#     4  10  18  37  64  91 123 155 197 253 307 362
#     4  12  27  43  56  83 128 171 205 248 297 355
#     4   9  18  33  62  93 118 147 191 246 306 362
#     4  11  23  41  67  96 119 152 201 254 308 367
#     4   9  16  30  62 101 125 144 193 263 315 354
#     4  10  20  37  63  94 120 158 201 251 309 359
#
# _framework density 19.247941999999998
#
# number of rings (size 3 to 8) (size 9 to 14) (size 15 to 20)
#    0.000    1.833    3.333    1.500    4.667    0.667 
#    3.000    5.000    0.000    1.000    0.000    0.000 
#    0.000    0.000    0.000    0.000    0.000    0.000 
#
# Total GULP energy -133913.962559 kJ/mol
# GULP energy per Si atom -5579.748440 kJ/mol
# Density = 1.920413 g / cm^3
# Si number density = 19.247942 Si / 1000 Ang^3
#
#
#
# Elastic Constant Matrix: (Units=GPa)
#
#
# Indices 1 2 3 4 5 6 
#
# 1 96.9471 37.6973 22.9737 0.0000 0.0000 0.0000
# 2 37.6973 138.5661 21.3771 0.0000 0.0000 0.0000
# 3 22.9737 21.3771 29.6449 0.0000 0.0000 0.0000
# 4 0.0000 0.0000 0.0000 -9.9482 0.0000 0.0000
# 5 0.0000 0.0000 0.0000 0.0000 -2.0241 0.0000
# 6 0.0000 0.0000 0.0000 0.0000 0.0000 13.0455
#
#
#
# Elastic Compliance Matrix: (Units=1/GPa)
#
#
# Indices 1 2 3 4 5 6 
#
# 1 0.013242 -0.002272 -0.008624 0.000000 0.000000 0.000000
# 2 -0.002272 0.008510 -0.004376 0.000000 0.000000 0.000000
# 3 -0.008624 -0.004376 0.043571 0.000000 0.000000 0.000000
# 4 0.000000 0.000000 0.000000 -0.100520 0.000000 0.000000
# 5 0.000000 0.000000 0.000000 0.000000 -0.494056 0.000000
# 6 0.000000 0.000000 0.000000 0.000000 0.000000 0.076655
#
#
# Mechanical properties :
#
#
# Convention : Reuss Voigt Hill
#
# Bulk Modulus (GPa) = 28.75222 47.69491 38.22357
# Shear Modulus (GPa) = -12.18137 12.42197 0.12030
#
# Velocity S-wave (km/s) = -2.51841 2.54316 0.25027
# Velocity P-wave (km/s) = 2.55220 5.78417 4.47047
#
# Compressibility (1/GPa) = 0.03477992
#
# Stress axis : x y z
#
# Youngs Moduli (GPa) = 75.51769 117.50907 22.95109
#
# Poissons Ratio (x) = 0.26699 0.19792
# Poissons Ratio (y) = 0.17158 0.10043
# Poissons Ratio (z) = 0.65123 0.51420
#
# Static dielectric constant tensor:
#      x y z
#    x 1.656270 0.000000 0.000000 
#    y 0.000000 1.688100 0.000000 
#    z 0.000000 0.000000 1.723860 
# 
# From -- ./inp_files/11509.got.cif
#   From: 2010.05.17/outbox.cif.g08.bks.cpg/sg21_6_cif.got.tgz:11509.got - 2010.06.03 23:14:55.
