data_PCOD9322922
_publ_section_title
;
Structure prediction by ZEFSAII (Michael W. Deem and Ramdas Pophale) SiO2 
 PCOD9322922
Probable space group: C 2 2 2
;
_chemical_formula_sum "Si O2"
_cell_formula_units_Z 38
_cell_length_a 5.302776
_cell_length_b 28.155864
_cell_length_c 13.502072
_cell_angle_alpha 90.000000
_cell_angle_beta 90.000000
_cell_angle_gamma 90.000000
_cell_volume 2015.916597
_symmetry_space_group_name_H-M "C 2 2 2"
_symmetry_group_IT_number 21
_symmetry_cell_setting 'orthorhombic'
loop_
_space_group_symop_operation_xyz
x,y,z
-x,-y,z
x,-y,-z
-x,y,-z
1/2+x,1/2+y,z
1/2-x,1/2-y,z
1/2+x,1/2-y,-z
1/2-x,1/2+y,-z
loop_
_atom_site_type_symbol
_atom_site_label
_atom_site_fract_x
_atom_site_fract_y
_atom_site_fract_z
Si Si1 0.534938 0.869296 0.262646
Si Si2 0.000000 0.000000 0.000000
Si Si3 0.459925 0.392865 0.612896
Si Si4 0.500550 0.217863 0.886599
Si Si5 0.176318 0.461261 0.157973
Si Si6 0.000000 0.000000 0.332210
O O1 0.296777 0.874790 0.335897
O O2 0.513638 0.822083 0.197569
O O3 0.540412 0.913121 0.185444
O O4 0.798213 0.875832 0.322757
O O5 0.899957 0.038982 0.919474
O O6 0.500000 0.377124 0.500000
O O7 0.442089 0.450800 0.612895
O O8 0.250000 0.250000 0.875169
O O9 0.750000 0.250000 0.878096
O O10 0.500000 0.198375 0.000000
O O11 0.273877 0.484964 0.259501
O O12 0.000000 0.500000 0.108690
#
# Coordination Sequence:
#
# PCOD9322922 Si02
#       6
#     8   2   8   8   8   4
#     4  11  23  40  64  90 124 160 199 259 307 362
#     4  10  22  32  50  82 126 180 200 244 272 392
#     4  11  22  38  62  91 124 165 209 252 300 356
#     4  10  22  43  67  93 118 153 204 254 307 368
#     4  10  19  36  52  81 128 163 208 236 301 358
#     4   9  19  35  53  82 122 166 208 252 288 338
#
# _framework density 18.849986999999999
#
# number of rings (size 3 to 8) (size 9 to 14) (size 15 to 20)
#    0.000    1.684    2.105    2.526    0.000    1.684 
#    5.684    2.105    0.000   12.632    0.000    0.000 
#    0.000    0.000    0.000    0.000    0.000    0.000 
#
# Total GULP energy -105827.448835 kJ/mol
# GULP energy per Si atom -5569.865728 kJ/mol
# Density = 1.880708 g / cm^3
# Si number density = 18.849987 Si / 1000 Ang^3
#
#
#
# Elastic Constant Matrix: (Units=GPa)
#
#
# Indices 1 2 3 4 5 6 
#
# 1 111.4243 40.3841 41.4711 0.0000 0.0000 0.0000
# 2 40.3841 89.0125 61.0689 0.0000 0.0000 0.0000
# 3 41.4711 61.0689 122.4567 0.0000 0.0000 0.0000
# 4 0.0000 0.0000 0.0000 -16.1397 0.0000 0.0000
# 5 0.0000 0.0000 0.0000 0.0000 -44.8776 0.0000
# 6 0.0000 0.0000 0.0000 0.0000 0.0000 19.6798
#
#
#
# Elastic Compliance Matrix: (Units=1/GPa)
#
#
# Indices 1 2 3 4 5 6 
#
# 1 0.011019 -0.003708 -0.001883 0.000000 0.000000 0.000000
# 2 -0.003708 0.018325 -0.007883 0.000000 0.000000 0.000000
# 3 -0.001883 -0.007883 0.012735 0.000000 0.000000 0.000000
# 4 0.000000 0.000000 0.000000 -0.061959 0.000000 0.000000
# 5 0.000000 0.000000 0.000000 0.000000 -0.022283 0.000000
# 6 0.000000 0.000000 0.000000 0.000000 0.000000 0.050814
#
#
# Mechanical properties :
#
#
# Convention : Reuss Voigt Hill
#
# Bulk Modulus (GPa) = 66.08361 67.63799 66.86080
# Shear Modulus (GPa) = 123.02840 3.73047 63.37943
#
# Velocity S-wave (km/s) = 8.08757 1.40831 5.80483
# Velocity P-wave (km/s) = 11.06099 6.21326 8.97079
#
# Compressibility (1/GPa) = 0.01513234
#
# Stress axis : x y z
#
# Youngs Moduli (GPa) = 90.75046 54.57121 78.52403
#
# Poissons Ratio (x) = 0.20233 0.14785
# Poissons Ratio (y) = 0.33646 0.61900
# Poissons Ratio (z) = 0.17087 0.43018
#
# Static dielectric constant tensor:
#      x y z
#    x 1.655770 0.000000 0.000000 
#    y 0.000000 1.677470 0.000000 
#    z 0.000000 0.000000 1.636990 
# 
# From -- ./inp_files/29280.got.cif
#   From: 2010.05.17/outbox.cif.g08.bks.cpg/sg21_15_cif.got.tgz:29280.got - 2010.06.03 23:14:55.
