data_PCOD9322042
_publ_section_title
;
Structure prediction by ZEFSAII (Michael W. Deem and Ramdas Pophale) SiO2 
 PCOD9322042
Probable space group: C 2 2 21
;
_chemical_formula_sum "Si O2"
_cell_formula_units_Z 24
_cell_length_a 16.878477
_cell_length_b 5.995035
_cell_length_c 9.417527
_cell_angle_alpha 90.000000
_cell_angle_beta 90.000000
_cell_angle_gamma 90.000000
_cell_volume 952.931873
_symmetry_space_group_name_H-M "C 2 2 21"
_symmetry_group_IT_number 20
_symmetry_cell_setting 'orthorhombic'
loop_
_space_group_symop_operation_xyz
x,y,z
-x,-y,1/2+z
x,-y,-z
-x,y,1/2-z
1/2+x,1/2+y,z
1/2-x,1/2-y,1/2+z
1/2+x,1/2-y,-z
1/2-x,1/2+y,1/2-z
loop_
_atom_site_type_symbol
_atom_site_label
_atom_site_fract_x
_atom_site_fract_y
_atom_site_fract_z
Si Si1 0.935478 0.999884 0.659742
Si Si2 0.299867 0.838572 0.378827
Si Si3 0.636622 0.135269 0.365845
O O1 0.851881 0.881562 0.636354
O O2 0.000000 0.862785 0.750000
O O3 0.969359 0.000000 0.500000
O O4 0.917635 0.215600 0.760374
O O5 0.209281 0.790103 0.416505
O O6 0.333997 0.000000 0.500000
O O7 0.315464 0.961998 0.232013
O O8 0.601024 0.000000 0.500000
#
# Coordination Sequence:
#
# PCOD9322042 Si02
#       3
#     8   8   8
#     4  12  29  51  73 110 158 204 257 320 382 460
#     4  12  24  48  79 111 151 201 258 318 384 459
#     4  12  26  45  82 115 149 199 262 319 386 457
#
# _framework density 25.185428000000002
#
# number of rings (size 3 to 8) (size 9 to 14) (size 15 to 20)
#    0.000    0.000    6.667    3.000    4.667    1.333 
#    0.000    0.000    0.000    0.000    0.000    0.000 
#    0.000    0.000    0.000    0.000    0.000    0.000 
#
# Total GULP energy -67033.210463 kJ/mol
# GULP energy per Si atom -5586.100872 kJ/mol
# Density = 2.512811 g / cm^3
# Si number density = 25.185428 Si / 1000 Ang^3
#
#
#
# Elastic Constant Matrix: (Units=GPa)
#
#
# Indices 1 2 3 4 5 6 
#
# 1 104.2075 18.5993 36.6962 0.0000 0.0000 0.0000
# 2 18.5993 89.9323 75.6508 0.0000 0.0000 0.0000
# 3 36.6962 75.6508 209.6153 0.0000 0.0000 0.0000
# 4 0.0000 0.0000 0.0000 77.0118 0.0000 0.0000
# 5 0.0000 0.0000 0.0000 0.0000 34.8200 0.0000
# 6 0.0000 0.0000 0.0000 0.0000 0.0000 60.5890
#
#
#
# Elastic Compliance Matrix: (Units=1/GPa)
#
#
# Indices 1 2 3 4 5 6 
#
# 1 0.010275 -0.000879 -0.001482 0.000000 0.000000 0.000000
# 2 -0.000879 0.016042 -0.005636 0.000000 0.000000 0.000000
# 3 -0.001482 -0.005636 0.007064 0.000000 0.000000 0.000000
# 4 0.000000 0.000000 0.000000 0.012985 0.000000 0.000000
# 5 0.000000 0.000000 0.000000 0.000000 0.028719 0.000000
# 6 0.000000 0.000000 0.000000 0.000000 0.000000 0.016505
#
#
# Mechanical properties :
#
#
# Convention : Reuss Voigt Hill
#
# Bulk Modulus (GPa) = 57.50865 73.96086 65.73475
# Shear Modulus (GPa) = 44.10025 52.67140 48.38583
#
# Velocity S-wave (km/s) = 4.18906 4.57808 4.38789
# Velocity P-wave (km/s) = 6.80304 7.57466 7.19919
#
# Compressibility (1/GPa) = 0.01738869
#
# Stress axis : x y z
#
# Youngs Moduli (GPa) = 97.32532 62.33635 141.56272
#
# Poissons Ratio (x) = 0.05477 0.20975
# Poissons Ratio (y) = 0.08551 0.79782
# Poissons Ratio (z) = 0.14420 0.35132
#
# Static dielectric constant tensor:
#      x y z
#    x 1.963390 0.000000 0.000000 
#    y 0.000000 2.093910 0.000000 
#    z 0.000000 0.000000 1.872320 
# 
# From -- ./inp_files/10422.got.cif
#   From: 2010.05.17/outbox.cif.g08.bks.cpg/sg20_6_cif.got.tgz:10422.got - 2010.06.03 22:52:26.
