data_PCOD9322156
_publ_section_title
;
Structure prediction by ZEFSAII (Michael W. Deem and Ramdas Pophale) SiO2 
 PCOD9322156
Probable space group: C 2 2 21
;
_chemical_formula_sum "Si O2"
_cell_formula_units_Z 20
_cell_length_a 7.192726
_cell_length_b 6.898454
_cell_length_c 15.124430
_cell_angle_alpha 90.000000
_cell_angle_beta 90.000000
_cell_angle_gamma 90.000000
_cell_volume 750.454395
_symmetry_space_group_name_H-M "C 2 2 21"
_symmetry_group_IT_number 20
_symmetry_cell_setting 'orthorhombic'
loop_
_space_group_symop_operation_xyz
x,y,z
-x,-y,1/2+z
x,-y,-z
-x,y,1/2-z
1/2+x,1/2+y,z
1/2-x,1/2-y,1/2+z
1/2+x,1/2-y,-z
1/2-x,1/2+y,1/2-z
loop_
_atom_site_type_symbol
_atom_site_label
_atom_site_fract_x
_atom_site_fract_y
_atom_site_fract_z
Si Si1 0.773089 0.618853 0.410979
Si Si2 0.500000 0.125236 0.250000
Si Si3 0.391687 0.507727 0.335674
O O1 0.789437 0.500000 0.500000
O O2 0.562231 0.616879 0.377687
O O3 0.835172 0.842298 0.404509
O O4 0.908727 0.528622 0.337907
O O5 0.722071 0.126737 0.298621
O O6 0.500000 0.388053 0.250000
#
# Coordination Sequence:
#
# PCOD9322156 Si02
#       3
#     8   4   8
#     4   9  16  36  54  85 109 152 185 235 275 344
#     4   6  18  32  54  76 114 142 182 230 278 326
#     4   7  17  34  54  78 113 145 186 231 282 327
#
# _framework density 26.650518999999999
#
# number of rings (size 3 to 8) (size 9 to 14) (size 15 to 20)
#    3.600    0.000    0.000    0.000    0.000    0.000 
#   14.400    8.000    0.000    0.000    0.000    0.000 
#    0.000    0.000    0.000    0.000    0.000    0.000 
#
# Total GULP energy -55725.413011 kJ/mol
# GULP energy per Si atom -5572.541301 kJ/mol
# Density = 2.658986 g / cm^3
# Si number density = 26.650519 Si / 1000 Ang^3
#
#
#
# Elastic Constant Matrix: (Units=GPa)
#
#
# Indices 1 2 3 4 5 6 
#
# 1 230.7125 52.4402 55.8294 0.0000 0.0000 0.0000
# 2 52.4402 93.6318 -9.0928 0.0000 0.0000 0.0000
# 3 55.8294 -9.0928 105.6311 0.0000 0.0000 0.0000
# 4 0.0000 0.0000 0.0000 12.2405 0.0000 0.0000
# 5 0.0000 0.0000 0.0000 0.0000 29.6199 0.0000
# 6 0.0000 0.0000 0.0000 0.0000 0.0000 23.1850
#
#
#
# Elastic Compliance Matrix: (Units=1/GPa)
#
#
# Indices 1 2 3 4 5 6 
#
# 1 0.006027 -0.003716 -0.003506 0.000000 0.000000 0.000000
# 2 -0.003716 0.013061 0.003088 0.000000 0.000000 0.000000
# 3 -0.003506 0.003088 0.011586 0.000000 0.000000 0.000000
# 4 0.000000 0.000000 0.000000 0.081696 0.000000 0.000000
# 5 0.000000 0.000000 0.000000 0.000000 0.033761 0.000000
# 6 0.000000 0.000000 0.000000 0.000000 0.000000 0.043131
#
#
# Mechanical properties :
#
#
# Convention : Reuss Voigt Hill
#
# Bulk Modulus (GPa) = 44.62741 69.81434 57.22088
# Shear Modulus (GPa) = 24.39044 35.06234 29.72639
#
# Velocity S-wave (km/s) = 3.02850 3.63110 3.34341
# Velocity P-wave (km/s) = 5.38617 6.62065 6.03506
#
# Compressibility (1/GPa) = 0.02240775
#
# Stress axis : x y z
#
# Youngs Moduli (GPa) = 165.90989 76.56167 86.31437
#
# Poissons Ratio (x) = 0.28452 0.30258
# Poissons Ratio (y) = 0.61655 -0.26658
# Poissons Ratio (z) = 0.58160 -0.23646
#
# Static dielectric constant tensor:
#      x y z
#    x 2.098220 0.000000 0.000000 
#    y 0.000000 2.182320 0.000000 
#    z 0.000000 0.000000 2.139320 
# 
# From -- ./inp_files/11676.got.cif
#   From: 2010.05.17/outbox.cif.g08.bks.cpg/sg20_6_cif.got.tgz:11676.got - 2010.06.03 22:52:26.
