data_PCOD9322092
_publ_section_title
;
Structure prediction by ZEFSAII (Michael W. Deem and Ramdas Pophale) SiO2 
 PCOD9322092
Probable space group: C 2 2 21
;
_chemical_formula_sum "Si O2"
_cell_formula_units_Z 32
_cell_length_a 26.880152
_cell_length_b 8.189185
_cell_length_c 5.439007
_cell_angle_alpha 90.000000
_cell_angle_beta 90.000000
_cell_angle_gamma 90.000000
_cell_volume 1197.269779
_symmetry_space_group_name_H-M "C 2 2 21"
_symmetry_group_IT_number 20
_symmetry_cell_setting 'orthorhombic'
loop_
_space_group_symop_operation_xyz
x,y,z
-x,-y,1/2+z
x,-y,-z
-x,y,1/2-z
1/2+x,1/2+y,z
1/2-x,1/2-y,1/2+z
1/2+x,1/2-y,-z
1/2-x,1/2+y,1/2-z
loop_
_atom_site_type_symbol
_atom_site_label
_atom_site_fract_x
_atom_site_fract_y
_atom_site_fract_z
Si Si1 0.412327 0.500000 0.500000
Si Si2 0.853974 0.000000 0.000000
Si Si3 0.500000 0.885072 0.250000
Si Si4 0.684289 0.786792 0.810727
Si Si5 0.750975 0.500000 0.000000
Si Si6 0.500000 0.695049 0.750000
Si Si7 0.596131 0.000000 0.000000
O O1 0.379082 0.449943 0.736394
O O2 0.451618 0.600196 0.665839
O O3 0.826805 0.167605 0.921181
O O4 0.509697 0.788951 0.498926
O O5 0.445126 0.962667 0.292436
O O6 0.632371 0.851486 0.924822
O O7 0.713409 0.948484 0.724177
O O8 0.717842 0.662244 0.966913
#
# Coordination Sequence:
#
# PCOD9322092 Si02
#       7
#     4   4   4   8   4   4   4
#     4  12  26  44  74 116 164 222 286 346 416 498
#     4  12  27  49  80 121 168 219 278 343 431 516
#     4  12  28  50  78 118 169 230 291 346 417 510
#     4  12  28  52  86 126 171 225 282 360 437 517
#     4  12  27  53  86 127 168 218 286 358 439 520
#     4  12  26  46  74 110 163 224 287 352 409 480
#     4  12  30  54  84 126 176 231 290 355 428 510
#
# _framework density 26.727477
#
# number of rings (size 3 to 8) (size 9 to 14) (size 15 to 20)
#    0.000    0.000    0.000    9.000    0.000   13.000 
#    0.000    0.000    0.000    3.000    0.000    0.000 
#    0.000    0.000    0.000    0.000    0.000    0.000 
#
# Total GULP energy -89314.255330 kJ/mol
# GULP energy per Si atom -5582.140958 kJ/mol
# Density = 2.666664 g / cm^3
# Si number density = 26.727477 Si / 1000 Ang^3
#
#
#
# Elastic Constant Matrix: (Units=GPa)
#
#
# Indices 1 2 3 4 5 6 
#
# 1 175.9349 65.2245 72.5810 0.0000 0.0000 0.0000
# 2 65.2245 100.2629 37.6087 0.0000 0.0000 0.0000
# 3 72.5810 37.6087 197.7551 0.0000 0.0000 0.0000
# 4 0.0000 0.0000 0.0000 137.6343 0.0000 0.0000
# 5 0.0000 0.0000 0.0000 0.0000 48.6669 0.0000
# 6 0.0000 0.0000 0.0000 0.0000 0.0000 68.5215
#
#
#
# Elastic Compliance Matrix: (Units=1/GPa)
#
#
# Indices 1 2 3 4 5 6 
#
# 1 0.008271 -0.004568 -0.002167 0.000000 0.000000 0.000000
# 2 -0.004568 0.013263 -0.000846 0.000000 0.000000 0.000000
# 3 -0.002167 -0.000846 0.006013 0.000000 0.000000 0.000000
# 4 0.000000 0.000000 0.000000 0.007266 0.000000 0.000000
# 5 0.000000 0.000000 0.000000 0.000000 0.020548 0.000000
# 6 0.000000 0.000000 0.000000 0.000000 0.000000 0.014594
#
#
# Mechanical properties :
#
#
# Convention : Reuss Voigt Hill
#
# Bulk Modulus (GPa) = 80.73964 91.64239 86.19101
# Shear Modulus (GPa) = 56.02588 70.86714 63.44651
#
# Velocity S-wave (km/s) = 4.58338 5.15483 4.87748
# Velocity P-wave (km/s) = 7.63439 8.35415 8.00237
#
# Compressibility (1/GPa) = 0.01238549
#
# Stress axis : x y z
#
# Youngs Moduli (GPa) = 120.89804 75.39984 166.30720
#
# Poissons Ratio (x) = 0.34442 0.36040
# Poissons Ratio (y) = 0.55226 0.14065
# Poissons Ratio (z) = 0.26200 0.06377
#
# Static dielectric constant tensor:
#      x y z
#    x 2.080600 0.000000 0.000000 
#    y 0.000000 2.422690 0.000000 
#    z 0.000000 0.000000 2.119780 
# 
# From -- ./inp_files/4550.got.cif
#   From: 2010.05.17/outbox.cif.g08.bks.cpg/sg20_3_cif.got.tgz:4550.got - 2010.06.03 22:52:26.
