data_PCOD9322641
_publ_section_title
;
Structure prediction by ZEFSAII (Michael W. Deem and Ramdas Pophale) SiO2 
 PCOD9322641
Probable space group: C 2 2 2
;
_chemical_formula_sum "Si O2"
_cell_formula_units_Z 34
_cell_length_a 15.124394
_cell_length_b 8.830323
_cell_length_c 13.484906
_cell_angle_alpha 90.000000
_cell_angle_beta 90.000000
_cell_angle_gamma 90.000000
_cell_volume 1800.953483
_symmetry_space_group_name_H-M "C 2 2 2"
_symmetry_group_IT_number 21
_symmetry_cell_setting 'orthorhombic'
loop_
_space_group_symop_operation_xyz
x,y,z
-x,-y,z
x,-y,-z
-x,y,-z
1/2+x,1/2+y,z
1/2-x,1/2-y,z
1/2+x,1/2-y,-z
1/2-x,1/2+y,-z
loop_
_atom_site_type_symbol
_atom_site_label
_atom_site_fract_x
_atom_site_fract_y
_atom_site_fract_z
Si Si1 0.069687 0.758703 0.357616
Si Si2 0.525545 0.241484 0.847027
Si Si3 0.354092 0.965265 0.111238
Si Si4 0.500000 0.500000 0.000000
Si Si5 0.750000 0.750000 0.759683
Si Si6 0.000000 0.000000 0.500000
Si Si7 0.000000 0.500000 0.500000
O O1 0.164270 0.764789 0.307143
O O2 0.058960 0.895709 0.431643
O O3 0.999866 0.775759 0.266877
O O4 0.053587 0.608849 0.424269
O O5 0.436604 0.154717 0.887489
O O6 0.603846 0.119069 0.846409
O O7 0.544507 0.382415 0.920595
O O8 0.273759 0.892887 0.171237
O O9 0.327396 0.000000 0.000000
#
# Coordination Sequence:
#
# PCOD9322641 Si02
#       7
#     8   8   8   2   4   2   2
#     4  10  21  39  59  92 113 157 200 265 305 372
#     4  10  19  34  62  89 123 159 222 246 296 358
#     4  10  18  38  55  84 123 168 197 253 294 371
#     4  12  18  30  60  98 116 174 214 262 272 360
#     4  10  22  36  60  88 128 152 204 258 320 362
#     4  10  22  40  60  80 120 144 206 258 308 362
#     4  10  20  40  72  80 112 164 220 250 320 366
#
# _framework density 18.878889000000001
#
# number of rings (size 3 to 8) (size 9 to 14) (size 15 to 20)
#    0.000    1.882    2.353    4.235    0.000    0.941 
#    8.471    0.000    0.000   11.294    0.000    0.000 
#    0.000    0.000    0.000    0.000    0.000    0.000 
#
# Total GULP energy -94761.302982 kJ/mol
# GULP energy per Si atom -5574.194293 kJ/mol
# Density = 1.883592 g / cm^3
# Si number density = 18.878889 Si / 1000 Ang^3
#
#
#
# Elastic Constant Matrix: (Units=GPa)
#
#
# Indices 1 2 3 4 5 6 
#
# 1 73.6262 44.1536 61.8006 0.0000 0.0000 0.0000
# 2 44.1536 130.3539 77.0127 0.0000 0.0000 0.0000
# 3 61.8006 77.0127 177.1794 0.0000 0.0000 0.0000
# 4 0.0000 0.0000 0.000019702.8764 0.0000 0.0000
# 5 0.0000 0.0000 0.0000 0.0000 63.6236 0.0000
# 6 0.0000 0.0000 0.0000 0.0000 0.0000 -2.0074
#
#
#
# Elastic Compliance Matrix: (Units=1/GPa)
#
#
# Indices 1 2 3 4 5 6 
#
# 1 0.020415 -0.003644 -0.005537 0.000000 0.000000 0.000000
# 2 -0.003644 0.010972 -0.003498 0.000000 0.000000 0.000000
# 3 -0.005537 -0.003498 0.009096 0.000000 0.000000 0.000000
# 4 0.000000 0.000000 0.000000 0.000051 0.000000 0.000000
# 5 0.000000 0.000000 0.000000 0.000000 0.015717 0.000000
# 6 0.000000 0.000000 0.000000 0.000000 0.000000 -0.498161
#
#
# Mechanical properties :
#
#
# Convention : Reuss Voigt Hill
#
# Bulk Modulus (GPa) = 66.11505 83.01037 74.56271
# Shear Modulus (GPa) = -12.15039 3966.11135 1976.98048
#
# Velocity S-wave (km/s) = -2.53967 45.88441 32.39544
# Velocity P-wave (km/s) = 5.14750 53.39698 37.93240
#
# Compressibility (1/GPa) = 0.01512515
#
# Stress axis : x y z
#
# Youngs Moduli (GPa) = 48.98378 91.13742 109.93968
#
# Poissons Ratio (x) = 0.33208 0.60874
# Poissons Ratio (y) = 0.17848 0.38461
# Poissons Ratio (z) = 0.27122 0.31883
#
# Static dielectric constant tensor:
#      x y z
#    x -8.409530 0.000000 0.000000 
#    y 0.000000 1.680450 0.000000 
#    z 0.000000 0.000000 1.693040 
# 
# From -- ./inp_files/24851.got.cif
#   From: 2010.05.17/outbox.cif.g08.bks.cpg/sg21_13_cif.got.tgz:24851.got - 2010.06.03 23:14:55.
