data_PCOD9322112
_publ_section_title
;
Structure prediction by ZEFSAII (Michael W. Deem and Ramdas Pophale) SiO2 
 PCOD9322112
Probable space group: C 2 2 21
;
_chemical_formula_sum "Si O2"
_cell_formula_units_Z 28
_cell_length_a 10.548278
_cell_length_b 21.753843
_cell_length_c 4.789189
_cell_angle_alpha 90.000000
_cell_angle_beta 90.000000
_cell_angle_gamma 90.000000
_cell_volume 1098.954049
_symmetry_space_group_name_H-M "C 2 2 21"
_symmetry_group_IT_number 20
_symmetry_cell_setting 'orthorhombic'
loop_
_space_group_symop_operation_xyz
x,y,z
-x,-y,1/2+z
x,-y,-z
-x,y,1/2-z
1/2+x,1/2+y,z
1/2-x,1/2-y,1/2+z
1/2+x,1/2-y,-z
1/2-x,1/2+y,1/2-z
loop_
_atom_site_type_symbol
_atom_site_label
_atom_site_fract_x
_atom_site_fract_y
_atom_site_fract_z
Si Si1 0.337589 0.345248 0.897697
Si Si2 0.000000 0.958206 0.750000
Si Si3 0.337588 0.845248 0.102303
Si Si4 0.000000 0.541794 0.750000
Si Si5 0.500000 0.250000 0.250000
O O1 0.393742 0.413729 0.884076
O O2 0.286265 0.333101 0.587960
O O3 0.213736 0.333101 0.087960
O O4 0.441914 0.302729 0.036888
O O5 0.948168 0.000000 0.500000
O O6 0.393742 0.913729 0.115925
O O7 0.441913 0.802728 0.963110
O O8 0.948169 0.500000 0.500000
#
# Coordination Sequence:
#
# PCOD9322112 Si02
#       5
#     8   4   8   4   4
#     4  12  27  47  77 112 151 203 255 318 392 460
#     4  12  27  49  76 113 161 208 264 324 382 464
#     4  12  27  47  77 112 151 203 255 318 392 460
#     4  12  27  49  76 113 161 208 264 324 382 464
#     4  12  26  50  76 110 154 190 256 324 384 462
#
# _framework density 25.478774000000001
#
# number of rings (size 3 to 8) (size 9 to 14) (size 15 to 20)
#    0.000    0.000    0.000   10.286    0.000   14.857 
#    0.000    0.000    0.000    0.000    0.000    0.000 
#    0.000    0.000    0.000    0.000    0.000    0.000 
#
# Total GULP energy -77934.827663 kJ/mol
# GULP energy per Si atom -5566.773404 kJ/mol
# Density = 2.542078 g / cm^3
# Si number density = 25.478774 Si / 1000 Ang^3
#
#
#
# Elastic Constant Matrix: (Units=GPa)
#
#
# Indices 1 2 3 4 5 6 
#
# 1 131.3254 45.3079 54.6325 0.0000 0.0000 0.0000
# 2 45.3079 176.7452 82.1234 0.0000 0.0000 0.0000
# 3 54.6325 82.1234 158.3981 0.0000 0.0000 0.0000
# 4 0.0000 0.0000 0.0000 108.2360 0.0000 0.0000
# 5 0.0000 0.0000 0.0000 0.0000 71.4750 0.0000
# 6 0.0000 0.0000 0.0000 0.0000 0.0000 -87.9160
#
#
#
# Elastic Compliance Matrix: (Units=1/GPa)
#
#
# Indices 1 2 3 4 5 6 
#
# 1 0.009064 -0.001147 -0.002531 0.000000 0.000000 0.000000
# 2 -0.001147 0.007599 -0.003544 0.000000 0.000000 0.000000
# 3 -0.002531 -0.003544 0.009024 0.000000 0.000000 0.000000
# 4 0.000000 0.000000 0.000000 0.009239 0.000000 0.000000
# 5 0.000000 0.000000 0.000000 0.000000 0.013991 0.000000
# 6 0.000000 0.000000 0.000000 0.000000 0.000000 -0.011374
#
#
# Mechanical properties :
#
#
# Convention : Reuss Voigt Hill
#
# Bulk Modulus (GPa) = 88.96062 92.28847 90.62454
# Shear Modulus (GPa) = 89.71351 37.31935 63.51643
#
# Velocity S-wave (km/s) = 5.94033 3.83132 4.99833
# Velocity P-wave (km/s) = 9.05767 7.47478 8.30403
#
# Compressibility (1/GPa) = 0.01124093
#
# Stress axis : x y z
#
# Youngs Moduli (GPa) = 110.33262 131.60318 110.82025
#
# Poissons Ratio (x) = 0.15098 0.28051
# Poissons Ratio (y) = 0.12658 0.39273
# Poissons Ratio (z) = 0.27928 0.46639
#
# Static dielectric constant tensor:
#      x y z
#    x 2.158750 0.000000 0.000000 
#    y 0.000000 1.953390 0.000000 
#    z 0.000000 0.000000 1.954600 
# 
# From -- ./inp_files/962.got.cif
#   From: 2010.05.17/outbox.cif.g08.bks.cpg/sg20_1_cif.got.tgz:962.got - 2010.06.03 22:52:26.
