data_PCOD9322528
_publ_section_title
;
Structure prediction by ZEFSAII (Michael W. Deem and Ramdas Pophale) SiO2 
 PCOD9322528
Probable space group: C 2 2 2
;
_chemical_formula_sum "Si O2"
_cell_formula_units_Z 58
_cell_length_a 16.971565
_cell_length_b 14.336095
_cell_length_c 12.777212
_cell_angle_alpha 90.000000
_cell_angle_beta 90.000000
_cell_angle_gamma 90.000000
_cell_volume 3108.771936
_symmetry_space_group_name_H-M "C 2 2 2"
_symmetry_group_IT_number 21
_symmetry_cell_setting 'orthorhombic'
loop_
_space_group_symop_operation_xyz
x,y,z
-x,-y,z
x,-y,-z
-x,y,-z
1/2+x,1/2+y,z
1/2-x,1/2-y,z
1/2+x,1/2-y,-z
1/2-x,1/2+y,-z
loop_
_atom_site_type_symbol
_atom_site_label
_atom_site_fract_x
_atom_site_fract_y
_atom_site_fract_z
Si Si1 0.884882 0.273169 0.310527
Si Si2 0.590983 0.889067 0.117997
Si Si3 0.571921 0.777576 0.318954
Si Si4 0.500000 0.500000 0.500000
Si Si5 0.642404 0.578611 0.623377
Si Si6 0.854489 0.389486 0.522617
Si Si7 0.899538 0.602203 0.882708
Si Si8 0.807022 0.119033 0.609661
O O1 0.849014 0.169786 0.307927
O O2 0.858746 0.328941 0.415795
O O3 0.866804 0.334130 0.209022
O O4 0.979392 0.255244 0.309353
O O5 0.606407 0.816476 0.209860
O O6 0.495293 0.894398 0.118247
O O7 0.620804 0.994142 0.138427
O O8 0.620472 0.866973 0.000938
O O9 0.572027 0.859259 0.406466
O O10 0.626028 0.691363 0.356423
O O11 0.554746 0.559354 0.577779
O O12 0.675589 0.480531 0.663738
O O13 0.684594 0.602056 0.514639
O O14 0.850412 0.500000 0.500000
O O15 0.785055 0.358508 0.604656
#
# Coordination Sequence:
#
# PCOD9322528 Si02
#       8
#     8   8   8   2   8   8   8   8
#     4  11  21  31  53  82 108 129 168 220 268 298
#     4   8  15  30  51  73 106 137 171 201 252 317
#     4  11  21  32  53  81 104 135 168 220 262 302
#     4   8  16  28  52  68  98 130 178 216 240 288
#     4  10  18  33  51  69 100 138 176 212 242 303
#     4  12  23  34  47  74 109 140 169 208 255 317
#     4   8  15  30  49  76 106 138 165 205 255 316
#     4  10  21  36  50  69  98 146 186 201 245 306
#
# _framework density 18.656884000000002
#
# number of rings (size 3 to 8) (size 9 to 14) (size 15 to 20)
#    0.000    2.207    2.759    4.138    0.000    2.207 
#    0.000    0.000    0.000    0.828    7.172    5.793 
#    0.000    0.000    0.000    0.000    0.000    0.000 
#
# Total GULP energy -161468.589273 kJ/mol
# GULP energy per Si atom -5567.882389 kJ/mol
# Density = 1.861442 g / cm^3
# Si number density = 18.656884 Si / 1000 Ang^3
#
#
#
# Elastic Constant Matrix: (Units=GPa)
#
#
# Indices 1 2 3 4 5 6 
#
# 1 26.1787 20.6648 10.9504 0.0000 0.0000 0.0000
# 2 20.6648 124.1661 55.5172 0.0000 0.0000 0.0000
# 3 10.9504 55.5172 78.4479 0.0000 0.0000 0.0000
# 4 0.0000 0.0000 0.0000 16.9156 0.0000 0.0000
# 5 0.0000 0.0000 0.0000 0.0000 -4.9600 0.0000
# 6 0.0000 0.0000 0.0000 0.0000 0.0000 16.7988
#
#
#
# Elastic Compliance Matrix: (Units=1/GPa)
#
#
# Indices 1 2 3 4 5 6 
#
# 1 0.044082 -0.006708 -0.001406 0.000000 0.000000 0.000000
# 2 -0.006708 0.012802 -0.008124 0.000000 0.000000 0.000000
# 3 -0.001406 -0.008124 0.018693 0.000000 0.000000 0.000000
# 4 0.000000 0.000000 0.000000 0.059117 0.000000 0.000000
# 5 0.000000 0.000000 0.000000 0.000000 -0.201612 0.000000
# 6 0.000000 0.000000 0.000000 0.000000 0.000000 0.059528
#
#
# Mechanical properties :
#
#
# Convention : Reuss Voigt Hill
#
# Bulk Modulus (GPa) = 23.20105 44.78416 33.99261
# Shear Modulus (GPa) = 126.73135 15.19490 70.96312
#
# Velocity S-wave (km/s) = 8.25075 2.85693 6.17402
# Velocity P-wave (km/s) = 10.16017 5.91092 8.31168
#
# Compressibility (1/GPa) = 0.04310149
#
# Stress axis : x y z
#
# Youngs Moduli (GPa) = 22.68497 78.10995 53.49623
#
# Poissons Ratio (x) = 0.52394 0.07523
# Poissons Ratio (y) = 0.15216 0.43460
# Poissons Ratio (z) = 0.03190 0.63456
#
# Static dielectric constant tensor:
#      x y z
#    x 1.884100 0.000000 0.000000 
#    y 0.000000 1.708890 0.000000 
#    z 0.000000 0.000000 1.643210 
# 
# From -- ./inp_files/26217.got.cif
#   From: 2010.05.17/outbox.cif.g08.bks.cpg/sg21_14_cif.got.tgz:26217.got - 2010.06.03 23:14:55.
