data_PCOD9322239
_publ_section_title
;
Structure prediction by ZEFSAII (Michael W. Deem and Ramdas Pophale) SiO2 
 PCOD9322239
Probable space group: C 2 2 21
;
_chemical_formula_sum "Si O2"
_cell_formula_units_Z 20
_cell_length_a 15.000000
_cell_length_b 9.000000
_cell_length_c 15.000000
_cell_angle_alpha 90.000000
_cell_angle_beta 90.000000
_cell_angle_gamma 90.000000
_cell_volume 2025.000000
_symmetry_space_group_name_H-M "C 2 2 21"
_symmetry_group_IT_number 20
_symmetry_cell_setting 'orthorhombic'
loop_
_space_group_symop_operation_xyz
x,y,z
-x,-y,1/2+z
x,-y,-z
-x,y,1/2-z
1/2+x,1/2+y,z
1/2-x,1/2-y,1/2+z
1/2+x,1/2-y,-z
1/2-x,1/2+y,1/2-z
loop_
_atom_site_type_symbol
_atom_site_label
_atom_site_fract_x
_atom_site_fract_y
_atom_site_fract_z
Si Si1 0.685207 0.879975 0.821795
Si Si2 0.877757 0.500000 0.000000
Si Si3 0.940522 0.201022 0.931121
Si Si4 0.500000 0.189659 0.250000
Si Si5 0.767896 0.963120 0.349594
Si Si6 0.721223 0.500000 0.500000
Si Si7 0.095808 0.000000 0.000000
O O1 0.580377 0.900463 0.797497
O O2 0.701784 0.703174 0.826554
O O3 0.741751 0.949237 0.739747
O O4 0.719215 0.944355 0.916680
O O5 0.935674 0.635056 0.031884
O O6 0.816551 0.455797 0.084109
O O7 0.952835 0.210225 0.825239
O O8 0.848619 0.122175 0.961128
O O9 0.028087 0.127848 0.971893
O O10 0.842957 0.035206 0.414219
#
# Coordination Sequence:
#
# PCOD9322239 Si02
#       7
#     8   4   8   4   8   4   4
#     4  12  25  46  70 100 138 189 237 291 350 421
#     4  11  22  44  68  99 140 182 231 290 352 406
#     4  11  23  46  70 100 143 182 230 288 347 422
#     4  12  24  44  68 100 136 182 228 294 342 400
#     4  11  24  45  69 100 139 186 236 289 348 419
#     4  11  26  44  73 102 136 192 237 276 360 421
#     4  10  24  44  71 101 136 188 226 288 350 421
#
# _framework density 9.8765429999999999
#
# number of rings (size 3 to 8) (size 9 to 14) (size 15 to 20)
#    0.000    0.800    6.000    1.200    0.000    0.800 
#    3.600    0.000    0.000    0.000    0.000    0.000 
#    0.000    0.000    0.000    0.000    0.000    0.000 
#
# Total GULP energy -111705.673759 kJ/mol
# GULP energy per Si atom -5585.283688 kJ/mol
# Density = 0.985406 g / cm^3
# Si number density = 9.876543 Si / 1000 Ang^3
#
#
#
# Elastic Constant Matrix: (Units=GPa)
#
#
# Indices 1 2 3 4 5 6 
#
# 1 131.3658 34.0386 82.5510 0.0000 0.0000 0.0000
# 2 34.0386 61.8440 56.7363 0.0000 0.0000 0.0000
# 3 82.5510 56.7363 193.0708 0.0000 0.0000 0.0000
# 4 0.0000 0.0000 0.0000 29.5336 0.0000 0.0000
# 5 0.0000 0.0000 0.0000 0.0000 -244.5752 0.0000
# 6 0.0000 0.0000 0.0000 0.0000 0.0000 9.4637
#
#
#
# Elastic Compliance Matrix: (Units=1/GPa)
#
#
# Indices 1 2 3 4 5 6 
#
# 1 0.010644 -0.002304 -0.003874 0.000000 0.000000 0.000000
# 2 -0.002304 0.022637 -0.005667 0.000000 0.000000 0.000000
# 3 -0.003874 -0.005667 0.008501 0.000000 0.000000 0.000000
# 4 0.000000 0.000000 0.000000 0.033860 0.000000 0.000000
# 5 0.000000 0.000000 0.000000 0.000000 -0.004089 0.000000
# 6 0.000000 0.000000 0.000000 0.000000 0.000000 0.105667
#
#
# Mechanical properties :
#
#
# Convention : Reuss Voigt Hill
#
# Bulk Modulus (GPa) = 55.27429 81.43693 68.35561
# Shear Modulus (GPa) = 24.16160 -26.91860 -1.37850
#
# Velocity S-wave (km/s) = 3.50119 -3.69556 -0.83629
# Velocity P-wave (km/s) = 6.66242 4.80702 5.80927
#
# Compressibility (1/GPa) = 0.01809159
#
# Stress axis : x y z
#
# Youngs Moduli (GPa) = 93.95213 44.17568 117.63320
#
# Poissons Ratio (x) = 0.10180 0.45568
# Poissons Ratio (y) = 0.21651 0.66661
# Poissons Ratio (z) = 0.36394 0.25034
#
# Static dielectric constant tensor:
#      x y z
#    x 1.721840 0.000000 0.000000 
#    y 0.000000 1.998750 0.000000 
#    z 0.000000 0.000000 1.673600 
# 
# From -- ./inp_files/18599.got.cif
#   From: 2010.05.17/outbox.ucp.g08.bks.cvg/sg20_10_cif.got.tgz:18599.got - 2010.06.11 15:13:06.
