data_PCOD9322370
_publ_section_title
;
Structure prediction by ZEFSAII (Michael W. Deem and Ramdas Pophale) SiO2 
 PCOD9322370
Probable space group: C 2 2 2
;
_chemical_formula_sum "Si O2"
_cell_formula_units_Z 56
_cell_length_a 14.353076
_cell_length_b 27.911717
_cell_length_c 5.680758
_cell_angle_alpha 90.000000
_cell_angle_beta 90.000000
_cell_angle_gamma 90.000000
_cell_volume 2275.819563
_symmetry_space_group_name_H-M "C 2 2 2"
_symmetry_group_IT_number 21
_symmetry_cell_setting 'orthorhombic'
loop_
_space_group_symop_operation_xyz
x,y,z
-x,-y,z
x,-y,-z
-x,y,-z
1/2+x,1/2+y,z
1/2-x,1/2-y,z
1/2+x,1/2-y,-z
1/2-x,1/2+y,-z
loop_
_atom_site_type_symbol
_atom_site_label
_atom_site_fract_x
_atom_site_fract_y
_atom_site_fract_z
Si Si1 0.746307 0.357916 0.750000
Si Si2 0.356935 0.769786 0.250000
Si Si3 0.307773 0.119837 0.750000
Si Si4 0.860664 0.485134 0.250000
Si Si5 0.053671 0.871301 0.750000
Si Si6 0.641946 0.234632 0.750000
Si Si7 0.357129 0.522134 0.750000
O O1 0.751701 0.383205 0.495676
O O2 0.642801 0.335575 0.750000
O O3 0.836045 0.323100 0.750000
O O4 0.751701 0.383205 0.004325
O O5 0.250000 0.750000 0.250000
O O6 0.352288 0.827505 0.250000
O O7 0.399316 0.753944 0.496435
O O8 0.399316 0.753944 0.003565
O O9 0.366523 0.072195 0.750000
O O10 0.900288 0.500000 0.500000
O O11 0.754956 0.509305 0.250000
O O12 0.900288 0.500000 0.000000
O O13 0.102874 0.923894 0.750000
O O14 0.000000 0.866300 0.500000
O O15 0.000000 0.866300 0.000000
O O16 0.750000 0.250000 0.750000
O O17 0.389433 0.500000 0.500000
O O18 0.389433 0.500000 0.000000
#
# Coordination Sequence:
#
# PCOD9322370 Si02
#       7
#     8   8   8   8   8   8   8
#     4  10  18  30  43  54  70  88 108 138 174 219
#     4   8  14  23  37  58  76  86  99 122 159 217
#     4  10  17  28  44  55  68  89 109 136 180 223
#     4  10  18  27  39  51  64  83 112 145 175 211
#     4  12  24  33  40  50  65  88 119 149 181 216
#     4   8  14  24  40  59  73  84  99 123 162 213
#     4  10  19  31  41  48  60  78 110 151 186 211
#
# _framework density 24.606521000000001
#
# number of rings (size 3 to 8) (size 9 to 14) (size 15 to 20)
#    0.000    2.286    0.000    6.000    0.000    1.714 
#    0.000    0.000    0.000    0.000    0.000    0.000 
#    0.000    0.000    0.000    0.000    0.000    0.000 
#
# Total GULP energy -155903.049872 kJ/mol
# GULP energy per Si atom -5567.966067 kJ/mol
# Density = 2.455052 g / cm^3
# Si number density = 24.606521 Si / 1000 Ang^3
#
#
#
# Elastic Constant Matrix: (Units=GPa)
#
#
# Indices 1 2 3 4 5 6 
#
# 1 71.2331 6.3433 27.9533 0.0000 0.0000 0.0000
# 2 6.3433 102.3083 32.5251 0.0000 0.0000 0.0000
# 3 27.9533 32.5251 353.7607 0.0000 0.0000 0.0000
# 4 0.0000 0.0000 0.0000 7.6441 0.0000 0.0000
# 5 0.0000 0.0000 0.0000 0.0000 -21.8650 0.0000
# 6 0.0000 0.0000 0.0000 0.0000 0.0000 -33.2455
#
#
#
# Elastic Compliance Matrix: (Units=1/GPa)
#
#
# Indices 1 2 3 4 5 6 
#
# 1 0.014518 -0.000552 -0.001096 0.000000 0.000000 0.000000
# 2 -0.000552 0.010090 -0.000884 0.000000 0.000000 0.000000
# 3 -0.001096 -0.000884 0.002995 0.000000 0.000000 0.000000
# 4 0.000000 0.000000 0.000000 0.130821 0.000000 0.000000
# 5 0.000000 0.000000 0.000000 0.000000 -0.045735 0.000000
# 6 0.000000 0.000000 0.000000 0.000000 0.000000 -0.030079
#
#
# Mechanical properties :
#
#
# Convention : Reuss Voigt Hill
#
# Bulk Modulus (GPa) = 44.36955 73.43840 58.90398
# Shear Modulus (GPa) = 52.52918 21.20539 36.86729
#
# Velocity S-wave (km/s) = 4.62537 2.93879 3.87495
# Velocity P-wave (km/s) = 6.82613 6.43624 6.63405
#
# Compressibility (1/GPa) = 0.02253798
#
# Stress axis : x y z
#
# Youngs Moduli (GPa) = 68.88093 99.11162 333.92427
#
# Poissons Ratio (x) = 0.05467 0.36613
# Poissons Ratio (y) = 0.03799 0.29521
# Poissons Ratio (z) = 0.07552 0.08762
#
# Static dielectric constant tensor:
#      x y z
#    x 1.974320 0.000000 0.000000 
#    y 0.000000 2.087190 0.000000 
#    z 0.000000 0.000000 1.983420 
# 
# From -- ./inp_files/7537.got.cif
#   From: 2010.05.17/outbox.cif.g08.bks.cpg/sg21_4_cif.got.tgz:7537.got - 2010.06.03 23:14:55.
