data_PCOD9322013
_publ_section_title
;
Structure prediction by ZEFSAII (Michael W. Deem and Ramdas Pophale) SiO2 
 PCOD9322013
Probable space group: C 2 2 21
;
_chemical_formula_sum "Si O2"
_cell_formula_units_Z 48
_cell_length_a 9.450118
_cell_length_b 28.043582
_cell_length_c 8.416837
_cell_angle_alpha 90.000000
_cell_angle_beta 90.000000
_cell_angle_gamma 90.000000
_cell_volume 2230.589396
_symmetry_space_group_name_H-M "C 2 2 21"
_symmetry_group_IT_number 20
_symmetry_cell_setting 'orthorhombic'
loop_
_space_group_symop_operation_xyz
x,y,z
-x,-y,1/2+z
x,-y,-z
-x,y,1/2-z
1/2+x,1/2+y,z
1/2-x,1/2-y,1/2+z
1/2+x,1/2-y,-z
1/2-x,1/2+y,1/2-z
loop_
_atom_site_type_symbol
_atom_site_label
_atom_site_fract_x
_atom_site_fract_y
_atom_site_fract_z
Si Si1 0.212129 0.808135 0.070462
Si Si2 0.283885 0.853603 0.409887
Si Si3 0.009667 0.718779 0.074822
Si Si4 0.989958 0.119020 0.432646
Si Si5 0.626162 0.957048 0.127221
Si Si6 0.883598 0.968309 0.358808
O O1 0.247026 0.839035 0.228070
O O2 0.089409 0.769141 0.098785
O O3 0.354444 0.782866 0.005089
O O4 0.140502 0.844280 0.946433
O O5 0.384504 0.811900 0.469522
O O6 0.371268 0.902888 0.436910
O O7 0.137017 0.858206 0.506257
O O8 0.000000 0.696670 0.250000
O O9 0.956196 0.076289 0.554458
O O10 0.000000 0.104003 0.250000
O O11 0.500000 0.965026 0.250000
O O12 0.764487 0.955638 0.235747
O O13 0.631797 0.000000 0.000000
O O14 0.000000 0.994009 0.250000
O O15 0.824255 0.000000 0.500000
#
# Coordination Sequence:
#
# PCOD9322013 Si02
#       6
#     8   8   8   8   8   8
#     4  12  24  47  72 103 148 194 238 301 367 435
#     4  12  26  48  73 103 148 196 242 300 374 434
#     4  12  26  43  72 106 142 189 244 298 358 438
#     4  12  25  43  71 106 142 184 240 302 359 438
#     4  12  27  49  73 106 149 198 244 303 367 435
#     4  12  24  44  73 105 140 187 237 296 359 432
#
# _framework density 21.518975999999999
#
# number of rings (size 3 to 8) (size 9 to 14) (size 15 to 20)
#    0.000    0.000    3.333    7.500    2.333    2.000 
#    0.000    0.000    0.000    0.000    0.000    0.000 
#    0.000    0.000    0.000    0.000    0.000    0.000 
#
# Total GULP energy -134174.446680 kJ/mol
# GULP energy per Si atom -5590.601945 kJ/mol
# Density = 2.147000 g / cm^3
# Si number density = 21.518976 Si / 1000 Ang^3
#
#
#
# Elastic Constant Matrix: (Units=GPa)
#
#
# Indices 1 2 3 4 5 6 
#
# 1 122.4314 31.8659 51.6471 0.0000 0.0000 0.0000
# 2 31.8659 107.9960 36.1738 0.0000 0.0000 0.0000
# 3 51.6471 36.1738 112.8253 0.0000 0.0000 0.0000
# 4 0.0000 0.0000 0.0000 27.5532 0.0000 0.0000
# 5 0.0000 0.0000 0.0000 0.0000 34.8024 0.0000
# 6 0.0000 0.0000 0.0000 0.0000 0.0000 25.2967
#
#
#
# Elastic Compliance Matrix: (Units=1/GPa)
#
#
# Indices 1 2 3 4 5 6 
#
# 1 0.010378 -0.001648 -0.004222 0.000000 0.000000 0.000000
# 2 -0.001648 0.010635 -0.002656 0.000000 0.000000 0.000000
# 3 -0.004222 -0.002656 0.011647 0.000000 0.000000 0.000000
# 4 0.000000 0.000000 0.000000 0.036293 0.000000 0.000000
# 5 0.000000 0.000000 0.000000 0.000000 0.028734 0.000000
# 6 0.000000 0.000000 0.000000 0.000000 0.000000 0.039531
#
#
# Mechanical properties :
#
#
# Convention : Reuss Voigt Hill
#
# Bulk Modulus (GPa) = 64.06435 64.73626 64.40031
# Shear Modulus (GPa) = 31.35325 32.43484 31.89405
#
# Velocity S-wave (km/s) = 3.82121 3.88657 3.85403
# Velocity P-wave (km/s) = 7.02173 7.09149 7.05669
#
# Compressibility (1/GPa) = 0.01560931
#
# Stress axis : x y z
#
# Youngs Moduli (GPa) = 96.35871 94.02633 85.85560
#
# Poissons Ratio (x) = 0.15494 0.36250
# Poissons Ratio (y) = 0.15879 0.22799
# Poissons Ratio (z) = 0.40685 0.24969
#
# Static dielectric constant tensor:
#      x y z
#    x 1.694710 0.000000 0.000000 
#    y 0.000000 1.813890 0.000000 
#    z 0.000000 0.000000 1.846640 
# 
# From -- ./inp_files/6471.got.cif
#   From: 2010.05.17/outbox.cif.g08.bks.cpg/sg20_4_cif.got.tgz:6471.got - 2010.06.03 22:52:26.
