data_PCOD9322558
_publ_section_title
;
Structure prediction by ZEFSAII (Michael W. Deem and Ramdas Pophale) SiO2 
 PCOD9322558
Probable space group: C 2 2 2
;
_chemical_formula_sum "Si O2"
_cell_formula_units_Z 48
_cell_length_a 19.393094
_cell_length_b 13.608556
_cell_length_c 8.484338
_cell_angle_alpha 90.000000
_cell_angle_beta 90.000000
_cell_angle_gamma 90.000000
_cell_volume 2239.118659
_symmetry_space_group_name_H-M "C 2 2 2"
_symmetry_group_IT_number 21
_symmetry_cell_setting 'orthorhombic'
loop_
_space_group_symop_operation_xyz
x,y,z
-x,-y,z
x,-y,-z
-x,y,-z
1/2+x,1/2+y,z
1/2-x,1/2-y,z
1/2+x,1/2-y,-z
1/2-x,1/2+y,-z
loop_
_atom_site_type_symbol
_atom_site_label
_atom_site_fract_x
_atom_site_fract_y
_atom_site_fract_z
Si Si1 0.135274 0.244478 0.665011
Si Si2 0.189959 0.532598 0.319585
Si Si3 0.742417 0.381950 0.840385
Si Si4 0.641315 0.238529 0.978949
Si Si5 0.500000 0.198934 0.500000
Si Si6 0.443742 0.082049 0.201048
Si Si7 0.250000 0.750000 0.556105
O O1 0.165779 0.355419 0.671970
O O2 0.062714 0.241857 0.576918
O O3 0.192976 0.198054 0.552537
O O4 0.129136 0.219245 0.847590
O O5 0.199898 0.500000 0.500000
O O6 0.252385 0.495717 0.205834
O O7 0.124985 0.478130 0.239711
O O8 0.669257 0.330076 0.873712
O O9 0.794199 0.339208 0.973080
O O10 0.774457 0.331180 0.681764
O O11 0.578340 0.171753 0.914666
O O12 0.470006 0.131483 0.361560
O O13 0.500000 0.000000 0.156231
#
# Coordination Sequence:
#
# PCOD9322558 Si02
#       7
#     8   8   8   8   4   8   4
#     4  12  22  34  55  81 115 156 209 248 299 370
#     4  11  18  33  54  82 108 150 205 248 288 355
#     4   9  18  36  55  70 107 154 204 254 296 336
#     4   9  21  35  47  75 109 158 201 249 293 346
#     4  12  21  34  50  74 110 161 194 242 287 366
#     4  11  19  34  49  72 116 155 195 235 294 358
#     4  10  18  34  56  74 106 158 200 248 292 356
#
# _framework density 21.437004000000002
#
# number of rings (size 3 to 8) (size 9 to 14) (size 15 to 20)
#    0.000    1.667    5.000    3.250    0.000    3.333 
#    3.000    0.000    0.000    0.000    0.000    0.000 
#    0.000   10.667    0.000   31.000    0.333    2.000 
#
# Total GULP energy -133802.769057 kJ/mol
# GULP energy per Si atom -5575.115377 kJ/mol
# Density = 2.138821 g / cm^3
# Si number density = 21.437004 Si / 1000 Ang^3
#
#
#
# Elastic Constant Matrix: (Units=GPa)
#
#
# Indices 1 2 3 4 5 6 
#
# 1 97.9740 26.4426 42.8660 0.0000 0.0000 0.0000
# 2 26.4426 35.9538 6.8908 0.0000 0.0000 0.0000
# 3 42.8660 6.8908 122.7097 0.0000 0.0000 0.0000
# 4 0.0000 0.0000 0.0000 16.1762 0.0000 0.0000
# 5 0.0000 0.0000 0.0000 0.0000 16.2602 0.0000
# 6 0.0000 0.0000 0.0000 0.0000 0.0000 33.4463
#
#
#
# Elastic Compliance Matrix: (Units=1/GPa)
#
#
# Indices 1 2 3 4 5 6 
#
# 1 0.014980 -0.010123 -0.004664 0.000000 0.000000 0.000000
# 2 -0.010123 0.034957 0.001573 0.000000 0.000000 0.000000
# 3 -0.004664 0.001573 0.009690 0.000000 0.000000 0.000000
# 4 0.000000 0.000000 0.000000 0.061819 0.000000 0.000000
# 5 0.000000 0.000000 0.000000 0.000000 0.061500 0.000000
# 6 0.000000 0.000000 0.000000 0.000000 0.000000 0.029899
#
#
# Mechanical properties :
#
#
# Convention : Reuss Voigt Hill
#
# Bulk Modulus (GPa) = 30.12160 45.44848 37.78504
# Shear Modulus (GPa) = 19.97291 25.20576 22.58934
#
# Velocity S-wave (km/s) = 3.05569 3.43272 3.24968
# Velocity P-wave (km/s) = 5.15086 6.07934 5.63426
#
# Compressibility (1/GPa) = 0.03319876
#
# Stress axis : x y z
#
# Youngs Moduli (GPa) = 66.75693 28.60657 103.19524
#
# Poissons Ratio (x) = 0.28959 0.48134
# Poissons Ratio (y) = 0.67578 -0.16235
# Poissons Ratio (z) = 0.31138 -0.04501
#
# Static dielectric constant tensor:
#      x y z
#    x 1.875940 0.000000 0.000000 
#    y 0.000000 1.873340 0.000000 
#    z 0.000000 0.000000 1.873240 
# 
# From -- ./inp_files/16607.got.cif
#   From: 2010.05.17/outbox.cif.g08.bks.cpg/sg21_9_cif.got.tgz:16607.got - 2010.06.03 23:14:55.
