data_PCOD9322366
_publ_section_title
;
Structure prediction by ZEFSAII (Michael W. Deem and Ramdas Pophale) SiO2 
 PCOD9322366
Probable space group: C 2 2 2
;
_chemical_formula_sum "Si O2"
_cell_formula_units_Z 34
_cell_length_a 7.146293
_cell_length_b 37.231758
_cell_length_c 5.394538
_cell_angle_alpha 90.000000
_cell_angle_beta 90.000000
_cell_angle_gamma 90.000000
_cell_volume 1435.319609
_symmetry_space_group_name_H-M "C 2 2 2"
_symmetry_group_IT_number 21
_symmetry_cell_setting 'orthorhombic'
loop_
_space_group_symop_operation_xyz
x,y,z
-x,-y,z
x,-y,-z
-x,y,-z
1/2+x,1/2+y,z
1/2-x,1/2-y,z
1/2+x,1/2-y,-z
1/2-x,1/2+y,-z
loop_
_atom_site_type_symbol
_atom_site_label
_atom_site_fract_x
_atom_site_fract_y
_atom_site_fract_z
Si Si1 0.000000 0.500000 0.500000
Si Si2 0.228511 0.595262 0.776985
Si Si3 0.726223 0.174369 0.972337
Si Si4 0.221299 0.708578 0.474877
Si Si5 0.691767 0.066577 0.270270
O O1 0.873396 0.473424 0.337379
O O2 0.272802 0.635081 0.867686
O O3 0.294617 0.583668 0.505776
O O4 0.002442 0.589474 0.753162
O O5 0.285051 0.569712 0.004087
O O6 0.791654 0.201027 0.753457
O O7 0.500000 0.176206 0.000000
O O8 0.794279 0.184059 0.248654
O O9 0.250000 0.750000 0.407071
O O10 0.000000 0.701537 0.500000
#
# Coordination Sequence:
#
# PCOD9322366 Si02
#       5
#     2   8   8   8   8
#     4   8  16  22  28  46  68 114 120 186 198 242
#     4   9  15  23  34  52  67  95 128 178 200 228
#     4  10  17  27  45  59  79 101 135 173 224 232
#     4  10  21  32  46  64  84 108 134 174 218 268
#     4   9  16  21  33  46  77  92 146 161 213 226
#
# _framework density 23.688103999999999
#
# number of rings (size 3 to 8) (size 9 to 14) (size 15 to 20)
#    0.000    2.824    2.353    2.118    6.588    7.529 
#    0.000    0.000    0.000    0.000    0.000    0.000 
#    0.000    0.000    0.000    0.000    0.000    0.000 
#
# Total GULP energy -94858.345079 kJ/mol
# GULP energy per Si atom -5579.902652 kJ/mol
# Density = 2.363419 g / cm^3
# Si number density = 23.688104 Si / 1000 Ang^3
#
#
#
# Elastic Constant Matrix: (Units=GPa)
#
#
# Indices 1 2 3 4 5 6 
#
# 1 90.1805 -11.6897 8.4344 0.0000 0.0000 0.0000
# 2 -11.6897 131.9746 60.2101 0.0000 0.0000 0.0000
# 3 8.4344 60.2101 235.7809 0.0000 0.0000 0.0000
# 4 0.0000 0.0000 0.0000 60.7524 0.0000 0.0000
# 5 0.0000 0.0000 0.0000 0.0000 -23.6150 0.0000
# 6 0.0000 0.0000 0.0000 0.0000 0.0000 -5.2133
#
#
#
# Elastic Compliance Matrix: (Units=1/GPa)
#
#
# Indices 1 2 3 4 5 6 
#
# 1 0.011333 0.001346 -0.000749 0.000000 0.000000 0.000000
# 2 0.001346 0.008736 -0.002279 0.000000 0.000000 0.000000
# 3 -0.000749 -0.002279 0.004850 0.000000 0.000000 0.000000
# 4 0.000000 0.000000 0.000000 0.016460 0.000000 0.000000
# 5 0.000000 0.000000 0.000000 0.000000 -0.042346 0.000000
# 6 0.000000 0.000000 0.000000 0.000000 0.000000 -0.191817
#
#
# Mechanical properties :
#
#
# Convention : Reuss Voigt Hill
#
# Bulk Modulus (GPa) = 46.39392 63.53838 54.96615
# Shear Modulus (GPa) = -27.43730 33.11690 2.83980
#
# Velocity S-wave (km/s) = -3.40703 3.74309 1.09610
# Velocity P-wave (km/s) = 2.03732 6.74997 4.98562
#
# Compressibility (1/GPa) = 0.02155455
#
# Stress axis : x y z
#
# Youngs Moduli (GPa) = 88.23511 114.46678 206.18524
#
# Poissons Ratio (x) = -0.15403 0.15444
# Poissons Ratio (y) = -0.11873 0.46990
# Poissons Ratio (z) = 0.06609 0.26087
#
# Static dielectric constant tensor:
#      x y z
#    x 1.688870 0.000000 0.000000 
#    y 0.000000 1.854920 0.000000 
#    z 0.000000 0.000000 1.930830 
# 
# From -- ./inp_files/2969.got.cif
#   From: 2010.05.17/outbox.cif.g08.bks.cpg/sg21_2_cif.got.tgz:2969.got - 2010.06.03 23:14:55.
