data_PCOD9322214
_publ_section_title
;
Structure prediction by ZEFSAII (Michael W. Deem and Ramdas Pophale) SiO2 
 PCOD9322214
Probable space group: C 2 2 21
;
_chemical_formula_sum "Si O2"
_cell_formula_units_Z 20
_cell_length_a 9.000000
_cell_length_b 24.000000
_cell_length_c 9.000000
_cell_angle_alpha 90.000000
_cell_angle_beta 90.000000
_cell_angle_gamma 90.000000
_cell_volume 1944.000000
_symmetry_space_group_name_H-M "C 2 2 21"
_symmetry_group_IT_number 20
_symmetry_cell_setting 'orthorhombic'
loop_
_space_group_symop_operation_xyz
x,y,z
-x,-y,1/2+z
x,-y,-z
-x,y,1/2-z
1/2+x,1/2+y,z
1/2-x,1/2-y,1/2+z
1/2+x,1/2-y,-z
1/2-x,1/2+y,1/2-z
loop_
_atom_site_type_symbol
_atom_site_label
_atom_site_fract_x
_atom_site_fract_y
_atom_site_fract_z
Si Si1 0.594729 0.282940 0.971241
Si Si2 0.069753 0.097631 0.901572
Si Si3 0.149959 0.924231 0.651341
Si Si4 0.344107 0.015914 0.829826
Si Si5 0.226348 0.203593 0.340734
O O1 0.422079 0.280201 0.931202
O O2 0.692217 0.275353 0.823947
O O3 0.622468 0.347119 0.015205
O O4 0.638435 0.236709 0.089418
O O5 0.209912 0.059432 0.860880
O O6 0.000000 0.118436 0.750000
O O7 0.933273 0.067834 0.991568
O O8 0.229157 0.863700 0.651688
O O9 0.000000 0.921151 0.750000
O O10 0.262561 0.968470 0.726697
O O11 0.500000 0.032728 0.750000
O O12 0.385382 0.000000 0.000000
#
# Coordination Sequence:
#
# PCOD9322214 Si02
#       5
#     8   8   8   8   8
#     4  10  22  42  65  98 131 173 223 282 334 404
#     4  11  25  44  74  99 132 187 245 284 336 426
#     4  11  21  48  73  93 133 189 236 282 339 413
#     4  12  27  46  68 103 144 179 231 296 360 407
#     4  10  21  42  66  97 133 170 228 278 337 401
#
# _framework density 10.288066000000001
#
# number of rings (size 3 to 8) (size 9 to 14) (size 15 to 20)
#    0.000    1.200    6.000    0.600    8.400    0.000 
#   10.800    0.000    0.000    0.000    0.000    0.000 
#    0.000    0.000    0.000    0.000    0.000    0.000 
#
# Total GULP energy -111569.476119 kJ/mol
# GULP energy per Si atom -5578.473806 kJ/mol
# Density = 1.026465 g / cm^3
# Si number density = 10.288066 Si / 1000 Ang^3
#
#
#
# Elastic Constant Matrix: (Units=GPa)
#
#
# Indices 1 2 3 4 5 6 
#
# 1 33.1436 5.5523 55.6622 0.0000 0.0000 0.0000
# 2 5.5523 15.1346 22.0847 0.0000 0.0000 0.0000
# 3 55.6622 22.0847 63.6455 0.0000 0.0000 0.0000
# 4 0.0000 0.0000 0.0000 29.1908 0.0000 0.0000
# 5 0.0000 0.0000 0.0000 0.0000 47.7760 0.0000
# 6 0.0000 0.0000 0.0000 0.0000 0.0000 28.3416
#
#
#
# Elastic Compliance Matrix: (Units=1/GPa)
#
#
# Indices 1 2 3 4 5 6 
#
# 1 -0.024458 -0.045051 0.037023 0.000000 0.000000 0.000000
# 2 -0.045051 0.050860 0.021752 0.000000 0.000000 0.000000
# 3 0.037023 0.021752 -0.024215 0.000000 0.000000 0.000000
# 4 0.000000 0.000000 0.000000 0.034257 0.000000 0.000000
# 5 0.000000 0.000000 0.000000 0.000000 0.020931 0.000000
# 6 0.000000 0.000000 0.000000 0.000000 0.000000 0.035284
#
#
# Mechanical properties :
#
#
# Convention : Reuss Voigt Hill
#
# Bulk Modulus (GPa) = 33.74444 30.94690 32.34567
# Shear Modulus (GPa) = 66.58522 22.96997 44.77759
#
# Velocity S-wave (km/s) = 5.69479 3.34479 4.67003
# Velocity P-wave (km/s) = 7.72504 5.47628 6.69574
#
# Compressibility (1/GPa) = 0.02963451
#
# Stress axis : x y z
#
# Youngs Moduli (GPa) = -40.88704 19.66177 -41.29747
#
# Poissons Ratio (x) = 0.88579 1.52894
# Poissons Ratio (y) = -1.84202 0.89831
# Poissons Ratio (z) = 1.51374 -0.42769
#
# Static dielectric constant tensor:
#      x y z
#    x 1.703550 0.000000 0.000000 
#    y 0.000000 1.740680 0.000000 
#    z 0.000000 0.000000 1.859750 
# 
# From -- ./inp_files/6127.got.cif
#   From: 2010.05.17/outbox.ucp.g08.bks.cvg/sg20_4_cif.got.tgz:6127.got - 2010.06.11 15:13:06.
