data_PCOD9322985
_publ_section_title
;
Structure prediction by ZEFSAII (Michael W. Deem and Ramdas Pophale) SiO2 
 PCOD9322985
Probable space group: C 2 2 2
;
_chemical_formula_sum "Si O2"
_cell_formula_units_Z 40
_cell_length_a 22.185858
_cell_length_b 7.905197
_cell_length_c 10.469337
_cell_angle_alpha 90.000000
_cell_angle_beta 90.000000
_cell_angle_gamma 90.000000
_cell_volume 1836.149783
_symmetry_space_group_name_H-M "C 2 2 2"
_symmetry_group_IT_number 21
_symmetry_cell_setting 'orthorhombic'
loop_
_space_group_symop_operation_xyz
x,y,z
-x,-y,z
x,-y,-z
-x,y,-z
1/2+x,1/2+y,z
1/2-x,1/2-y,z
1/2+x,1/2-y,-z
1/2-x,1/2+y,-z
loop_
_atom_site_type_symbol
_atom_site_label
_atom_site_fract_x
_atom_site_fract_y
_atom_site_fract_z
Si Si1 0.879045 0.316079 0.213503
Si Si2 0.316620 0.679749 0.433610
Si Si3 0.000949 0.705693 0.648492
Si Si4 0.250000 0.750000 0.814643
Si Si5 0.368451 0.191367 0.329479
Si Si6 0.314945 0.000000 0.000000
O O1 0.834956 0.188810 0.286667
O O2 0.945650 0.255772 0.256153
O O3 0.868695 0.499702 0.279918
O O4 0.857900 0.361018 0.070271
O O5 0.321800 0.500000 0.500000
O O6 0.250000 0.750000 0.446680
O O7 0.360690 0.796675 0.518373
O O8 0.000000 0.500000 0.641915
O O9 0.000000 0.766202 0.500000
O O10 0.065722 0.762452 0.703076
O O11 0.309375 0.720392 0.729010
O O12 0.228697 0.594971 0.901730
#
# Coordination Sequence:
#
# PCOD9322985 Si02
#       6
#     8   8   8   4   8   4
#     4  10  21  39  60  89 126 168 215 260 321 392
#     4  12  24  35  59  94 128 165 207 274 341 394
#     4   9  16  31  60  90 121 157 196 262 326 382
#     4  10  22  38  58  82 124 162 216 260 320 382
#     4  10  19  37  59  90 121 160 202 266 329 380
#     4  10  24  40  61  88 125 178 218 268 310 400
#
# _framework density 21.784714999999998
#
# number of rings (size 3 to 8) (size 9 to 14) (size 15 to 20)
#    0.000    1.800    3.000    1.800    4.200    0.000 
#    0.000   14.500    0.000    0.000    0.000    1.400 
#    0.000    0.000    0.000    0.000    0.000    0.000 
#
# Total GULP energy -111529.516226 kJ/mol
# GULP energy per Si atom -5576.475811 kJ/mol
# Density = 2.173513 g / cm^3
# Si number density = 21.784715 Si / 1000 Ang^3
#
#
#
# Elastic Constant Matrix: (Units=GPa)
#
#
# Indices 1 2 3 4 5 6 
#
# 1 181.4794 23.5407 52.2315 0.0000 0.0000 0.0000
# 2 23.5407 35.3840 13.5838 0.0000 0.0000 0.0000
# 3 52.2315 13.5838 86.2586 0.0000 0.0000 0.0000
# 4 0.0000 0.0000 0.0000 50.2041 0.0000 0.0000
# 5 0.0000 0.0000 0.0000 0.0000 13.4575 0.0000
# 6 0.0000 0.0000 0.0000 0.0000 0.0000 17.1243
#
#
#
# Elastic Compliance Matrix: (Units=1/GPa)
#
#
# Indices 1 2 3 4 5 6 
#
# 1 0.007003 -0.003226 -0.003732 0.000000 0.000000 0.000000
# 2 -0.003226 0.031566 -0.003017 0.000000 0.000000 0.000000
# 3 -0.003732 -0.003017 0.014328 0.000000 0.000000 0.000000
# 4 0.000000 0.000000 0.000000 0.019919 0.000000 0.000000
# 5 0.000000 0.000000 0.000000 0.000000 0.074308 0.000000
# 6 0.000000 0.000000 0.000000 0.000000 0.000000 0.058396
#
#
# Mechanical properties :
#
#
# Convention : Reuss Voigt Hill
#
# Bulk Modulus (GPa) = 30.35329 53.53712 41.94521
# Shear Modulus (GPa) = 21.14572 30.40825 25.77699
#
# Velocity S-wave (km/s) = 3.11893 3.74016 3.44359
# Velocity P-wave (km/s) = 5.18979 6.57880 5.92514
#
# Compressibility (1/GPa) = 0.03294535
#
# Stress axis : x y z
#
# Youngs Moduli (GPa) = 142.79647 31.67953 69.79208
#
# Poissons Ratio (x) = 0.10220 0.26049
# Poissons Ratio (y) = 0.46069 0.21059
# Poissons Ratio (z) = 0.53297 0.09559
#
# Static dielectric constant tensor:
#      x y z
#    x 1.815040 0.000000 0.000000 
#    y 0.000000 1.839100 0.000000 
#    z 0.000000 0.000000 1.850300 
# 
# From -- ./inp_files/26692.got.cif
#   From: 2010.05.17/outbox.cif.g08.bks.cpg/sg21_14_cif.got.tgz:26692.got - 2010.06.03 23:14:55.
