data_PCOD9322097
_publ_section_title
;
Structure prediction by ZEFSAII (Michael W. Deem and Ramdas Pophale) SiO2 
 PCOD9322097
Probable space group: C 2 2 21
;
_chemical_formula_sum "Si O2"
_cell_formula_units_Z 32
_cell_length_a 29.025181
_cell_length_b 4.806530
_cell_length_c 8.812340
_cell_angle_alpha 90.000000
_cell_angle_beta 90.000000
_cell_angle_gamma 90.000000
_cell_volume 1229.413107
_symmetry_space_group_name_H-M "C 2 2 21"
_symmetry_group_IT_number 20
_symmetry_cell_setting 'orthorhombic'
loop_
_space_group_symop_operation_xyz
x,y,z
-x,-y,1/2+z
x,-y,-z
-x,y,1/2-z
1/2+x,1/2+y,z
1/2-x,1/2-y,1/2+z
1/2+x,1/2-y,-z
1/2-x,1/2+y,1/2-z
loop_
_atom_site_type_symbol
_atom_site_label
_atom_site_fract_x
_atom_site_fract_y
_atom_site_fract_z
Si Si1 0.726152 0.907316 0.824953
Si Si2 0.360021 0.078523 0.154411
Si Si3 0.000000 0.260638 0.250000
Si Si4 0.409857 0.773764 0.394913
Si Si5 0.067002 0.000000 0.500000
O O1 0.762962 0.677288 0.776661
O O2 0.676734 0.790281 0.768401
O O3 0.727157 0.000000 0.000000
O O4 0.380716 0.807021 0.240391
O O5 0.401482 0.729531 0.912144
O O6 0.334597 0.000000 0.000000
O O7 0.031629 0.097374 0.369137
O O8 0.959897 0.398777 0.347889
O O9 0.414001 0.500000 0.500000
O O10 0.386565 0.000000 0.500000
#
# Coordination Sequence:
#
# PCOD9322097 Si02
#       5
#     8   8   4   8   4
#     4  12  29  54  86 124 166 217 272 345 426 514
#     4  12  28  49  81 120 166 215 283 350 423 505
#     4  12  26  46  72 110 158 216 278 340 420 488
#     4  12  28  47  74 109 160 215 276 340 414 500
#     4  12  28  52  78 118 170 222 284 356 414 512
#
# _framework density 26.028680999999999
#
# number of rings (size 3 to 8) (size 9 to 14) (size 15 to 20)
#    0.000    0.000    3.750    4.500    8.750    3.000 
#    0.000    0.000    0.000    0.000    0.000    0.000 
#    0.000    0.000    0.000    0.000    0.000    0.000 
#
# Total GULP energy -89340.179516 kJ/mol
# GULP energy per Si atom -5583.761220 kJ/mol
# Density = 2.596944 g / cm^3
# Si number density = 26.028681 Si / 1000 Ang^3
#
#
#
# Elastic Constant Matrix: (Units=GPa)
#
#
# Indices 1 2 3 4 5 6 
#
# 1 119.0741 19.8130 78.7537 0.0000 0.0000 0.0000
# 2 19.8130 93.0475 52.6768 0.0000 0.0000 0.0000
# 3 78.7537 52.6768 216.6814 0.0000 0.0000 0.0000
# 4 0.0000 0.0000 0.0000 49.3942 0.0000 0.0000
# 5 0.0000 0.0000 0.0000 0.0000 63.5574 0.0000
# 6 0.0000 0.0000 0.0000 0.0000 0.0000 38.8133
#
#
#
# Elastic Compliance Matrix: (Units=1/GPa)
#
#
# Indices 1 2 3 4 5 6 
#
# 1 0.011056 -0.000092 -0.003996 0.000000 0.000000 0.000000
# 2 -0.000092 0.012463 -0.002996 0.000000 0.000000 0.000000
# 3 -0.003996 -0.002996 0.006796 0.000000 0.000000 0.000000
# 4 0.000000 0.000000 0.000000 0.020245 0.000000 0.000000
# 5 0.000000 0.000000 0.000000 0.000000 0.015734 0.000000
# 6 0.000000 0.000000 0.000000 0.000000 0.000000 0.025764
#
#
# Mechanical properties :
#
#
# Convention : Reuss Voigt Hill
#
# Bulk Modulus (GPa) = 61.93331 81.25443 71.59387
# Shear Modulus (GPa) = 44.79876 48.85695 46.82785
#
# Velocity S-wave (km/s) = 4.15315 4.33719 4.24617
# Velocity P-wave (km/s) = 6.84428 7.50777 7.18369
#
# Compressibility (1/GPa) = 0.01614640
#
# Stress axis : x y z
#
# Youngs Moduli (GPa) = 90.44519 80.23652 147.14656
#
# Poissons Ratio (x) = 0.00738 0.58802
# Poissons Ratio (y) = 0.00832 0.44092
# Poissons Ratio (z) = 0.36143 0.24043
#
# Static dielectric constant tensor:
#      x y z
#    x 2.017890 0.000000 0.000000 
#    y 0.000000 2.062470 0.000000 
#    z 0.000000 0.000000 1.883250 
# 
# From -- ./inp_files/5171.got.cif
#   From: 2010.05.17/outbox.cif.g08.bks.cpg/sg20_3_cif.got.tgz:5171.got - 2010.06.03 22:52:26.
