data_PCOD9322135
_publ_section_title
;
Structure prediction by ZEFSAII (Michael W. Deem and Ramdas Pophale) SiO2 
 PCOD9322135
Probable space group: C 2 2 21
;
_chemical_formula_sum "Si O2"
_cell_formula_units_Z 32
_cell_length_a 4.821409
_cell_length_b 17.840229
_cell_length_c 13.765346
_cell_angle_alpha 90.000000
_cell_angle_beta 90.000000
_cell_angle_gamma 90.000000
_cell_volume 1184.026796
_symmetry_space_group_name_H-M "C 2 2 21"
_symmetry_group_IT_number 20
_symmetry_cell_setting 'orthorhombic'
loop_
_space_group_symop_operation_xyz
x,y,z
-x,-y,1/2+z
x,-y,-z
-x,y,1/2-z
1/2+x,1/2+y,z
1/2-x,1/2-y,1/2+z
1/2+x,1/2-y,-z
1/2-x,1/2+y,1/2-z
loop_
_atom_site_type_symbol
_atom_site_label
_atom_site_fract_x
_atom_site_fract_y
_atom_site_fract_z
Si Si1 0.924041 0.061057 0.435110
Si Si2 0.623458 0.843846 0.045115
Si Si3 0.271657 0.429276 0.314278
Si Si4 0.115330 0.708099 0.357879
O O1 0.648556 0.121557 0.597511
O O2 0.789552 0.134180 0.387957
O O3 0.753764 0.000000 0.500000
O O4 0.947705 0.002425 0.347194
O O5 0.821499 0.910241 0.002496
O O6 0.725280 0.784778 0.124621
O O7 0.600729 0.794297 0.946983
O O8 0.500000 0.386801 0.250000
O O9 0.000000 0.448042 0.250000
O O10 0.000000 0.699955 0.250000
#
# Coordination Sequence:
#
# PCOD9322135 Si02
#       4
#     8   8   8   8
#     4  12  27  51  88 129 183 235 301 383 454 544
#     4  12  29  56  85 133 186 240 309 386 459 550
#     4  12  30  53  90 137 183 244 309 377 469 554
#     4  12  29  55  88 128 180 247 309 375 464 550
#
# _framework density 27.026413999999999
#
# number of rings (size 3 to 8) (size 9 to 14) (size 15 to 20)
#    0.000    0.000    5.000    2.250   10.500    5.000 
#    0.000    0.000    0.000    4.500    0.000    0.000 
#    0.000    0.000    0.000    0.000    0.000    0.000 
#
# Total GULP energy -89254.923378 kJ/mol
# GULP energy per Si atom -5578.432711 kJ/mol
# Density = 2.696490 g / cm^3
# Si number density = 27.026414 Si / 1000 Ang^3
#
#
#
# Elastic Constant Matrix: (Units=GPa)
#
#
# Indices 1 2 3 4 5 6 
#
# 1 138.9911 74.6299 73.1333 0.0000 0.0000 0.0000
# 2 74.6299 190.1096 86.6598 0.0000 0.0000 0.0000
# 3 73.1333 86.6598 211.8026 0.0000 0.0000 0.0000
# 4 0.0000 0.0000 0.0000 55.0802 0.0000 0.0000
# 5 0.0000 0.0000 0.0000 0.0000 71.3388 0.0000
# 6 0.0000 0.0000 0.0000 0.0000 0.0000 49.4503
#
#
#
# Elastic Compliance Matrix: (Units=1/GPa)
#
#
# Indices 1 2 3 4 5 6 
#
# 1 0.009919 -0.002867 -0.002252 0.000000 0.000000 0.000000
# 2 -0.002867 0.007295 -0.001995 0.000000 0.000000 0.000000
# 3 -0.002252 -0.001995 0.006315 0.000000 0.000000 0.000000
# 4 0.000000 0.000000 0.000000 0.018155 0.000000 0.000000
# 5 0.000000 0.000000 0.000000 0.000000 0.014018 0.000000
# 6 0.000000 0.000000 0.000000 0.000000 0.000000 0.020222
#
#
# Mechanical properties :
#
#
# Convention : Reuss Voigt Hill
#
# Bulk Modulus (GPa) = 107.51036 112.19437 109.85236
# Shear Modulus (GPa) = 53.61768 55.60586 54.61177
#
# Velocity S-wave (km/s) = 4.45893 4.54085 4.50008
# Velocity P-wave (km/s) = 8.14712 8.31236 8.23015
#
# Compressibility (1/GPa) = 0.00930143
#
# Stress axis : x y z
#
# Youngs Moduli (GPa) = 100.81486 137.07942 158.35255
#
# Poissons Ratio (x) = 0.39307 0.35657
# Poissons Ratio (y) = 0.28908 0.31586
# Poissons Ratio (z) = 0.22701 0.27343
#
# Static dielectric constant tensor:
#      x y z
#    x 2.395610 0.000000 0.000000 
#    y 0.000000 2.125240 0.000000 
#    z 0.000000 0.000000 2.585800 
# 
# From -- ./inp_files/17513.got.cif
#   From: 2010.05.17/outbox.cif.g08.bks.cpg/sg20_9_cif.got.tgz:17513.got - 2010.06.03 22:52:26.
