data_PCOD9322856
_publ_section_title
;
Structure prediction by ZEFSAII (Michael W. Deem and Ramdas Pophale) SiO2 
 PCOD9322856
Probable space group: C 2 2 2
;
_chemical_formula_sum "Si O2"
_cell_formula_units_Z 64
_cell_length_a 15.603982
_cell_length_b 12.927426
_cell_length_c 17.212906
_cell_angle_alpha 90.000000
_cell_angle_beta 90.000000
_cell_angle_gamma 90.000000
_cell_volume 3472.175738
_symmetry_space_group_name_H-M "C 2 2 2"
_symmetry_group_IT_number 21
_symmetry_cell_setting 'orthorhombic'
loop_
_space_group_symop_operation_xyz
x,y,z
-x,-y,z
x,-y,-z
-x,y,-z
1/2+x,1/2+y,z
1/2-x,1/2-y,z
1/2+x,1/2-y,-z
1/2-x,1/2+y,-z
loop_
_atom_site_type_symbol
_atom_site_label
_atom_site_fract_x
_atom_site_fract_y
_atom_site_fract_z
Si Si1 0.328011 0.673848 0.828251
Si Si2 0.183057 0.153714 0.675503
Si Si3 0.397876 0.614571 0.994790
Si Si4 0.057937 0.588614 0.217834
Si Si5 0.991064 0.878717 0.592455
Si Si6 0.151074 0.219716 0.845184
Si Si7 0.717471 0.962316 0.285900
Si Si8 0.917545 0.291273 0.691869
O O1 0.250000 0.750000 0.845171
O O2 0.371513 0.651953 0.909855
O O3 0.283085 0.582234 0.778675
O O4 0.393254 0.731302 0.770811
O O5 0.250000 0.250000 0.668915
O O6 0.102425 0.160403 0.619066
O O7 0.145054 0.156090 0.764022
O O8 0.230681 0.044319 0.662477
O O9 0.361298 0.500000 0.000000
O O10 0.500000 0.612814 0.000000
O O11 0.367564 0.670291 0.072399
O O12 0.089212 0.682292 0.165500
O O13 0.143189 0.532133 0.247570
O O14 0.000000 0.500000 0.179032
O O15 0.999321 0.636422 0.287159
O O16 0.000000 0.876406 0.500000
O O17 0.058025 0.797741 0.630826
O O18 0.000000 0.000000 0.617878
O O19 0.250000 0.250000 0.846298
O O20 0.664901 0.865988 0.323878
#
# Coordination Sequence:
#
# PCOD9322856 Si02
#       8
#     8   8   8   8   8   8   8   8
#     4  10  21  38  57  80 115 155 195 245 298 353
#     4  11  20  38  64  92 118 160 204 249 298 367
#     4  11  24  36  52  81 119 156 198 254 300 353
#     4  10  19  34  61  93 118 151 203 255 297 360
#     4  11  24  41  61  92 125 158 199 249 306 371
#     4  11  20  36  61  86 117 160 208 254 304 365
#     4  10  19  35  62  91 116 152 209 244 298 360
#     4  10  20  38  63  86 120 158 196 249 303 361
#
# _framework density 18.432245999999999
#
# number of rings (size 3 to 8) (size 9 to 14) (size 15 to 20)
#    0.000    1.500    3.750    2.625    0.000    0.000 
#    0.000    4.375    0.000   12.375    0.000    0.000 
#    0.000    0.000    0.000    0.000    0.000    0.000 
#
# Total GULP energy -178358.694744 kJ/mol
# GULP energy per Si atom -5573.709211 kJ/mol
# Density = 1.839029 g / cm^3
# Si number density = 18.432246 Si / 1000 Ang^3
#
#
#
# Elastic Constant Matrix: (Units=GPa)
#
#
# Indices 1 2 3 4 5 6 
#
# 1 72.0388 30.8788 33.0933 0.0000 0.0000 0.0000
# 2 30.8788 116.1986 45.3026 0.0000 0.0000 0.0000
# 3 33.0933 45.3026 64.5589 0.0000 0.0000 0.0000
# 4 0.0000 0.0000 0.0000 18.7919 0.0000 0.0000
# 5 0.0000 0.0000 0.0000 0.0000 32.5838 0.0000
# 6 0.0000 0.0000 0.0000 0.0000 0.0000 16.7698
#
#
#
# Elastic Compliance Matrix: (Units=1/GPa)
#
#
# Indices 1 2 3 4 5 6 
#
# 1 0.018389 -0.001668 -0.008256 0.000000 0.000000 0.000000
# 2 -0.001668 0.011998 -0.007565 0.000000 0.000000 0.000000
# 3 -0.008256 -0.007565 0.025030 0.000000 0.000000 0.000000
# 4 0.000000 0.000000 0.000000 0.053214 0.000000 0.000000
# 5 0.000000 0.000000 0.000000 0.000000 0.030690 0.000000
# 6 0.000000 0.000000 0.000000 0.000000 0.000000 0.059631
#
#
# Mechanical properties :
#
#
# Convention : Reuss Voigt Hill
#
# Bulk Modulus (GPa) = 48.92231 52.37174 50.64703
# Shear Modulus (GPa) = 20.76902 23.19722 21.98312
#
# Velocity S-wave (km/s) = 3.36039 3.55140 3.45722
# Velocity P-wave (km/s) = 6.45412 6.72989 6.59344
#
# Compressibility (1/GPa) = 0.02044057
#
# Stress axis : x y z
#
# Youngs Moduli (GPa) = 54.38053 83.34429 39.95212
#
# Poissons Ratio (x) = 0.13902 0.32984
# Poissons Ratio (y) = 0.09071 0.30222
# Poissons Ratio (z) = 0.44896 0.63046
#
# Static dielectric constant tensor:
#      x y z
#    x 1.663750 0.000000 0.000000 
#    y 0.000000 1.694790 0.000000 
#    z 0.000000 0.000000 1.637340 
# 
# From -- ./inp_files/36737.got.cif
#   From: 2010.05.17/outbox.cif.g08.bks.cpg/sg21_19_cif.got.tgz:36737.got - 2010.06.03 23:14:55.
