data_PCOD9322476
_publ_section_title
;
Structure prediction by ZEFSAII (Michael W. Deem and Ramdas Pophale) SiO2 
 PCOD9322476
Probable space group: C 2 2 2
;
_chemical_formula_sum "Si O2"
_cell_formula_units_Z 48
_cell_length_a 16.509486
_cell_length_b 11.581369
_cell_length_c 12.343938
_cell_angle_alpha 90.000000
_cell_angle_beta 90.000000
_cell_angle_gamma 90.000000
_cell_volume 2360.191180
_symmetry_space_group_name_H-M "C 2 2 2"
_symmetry_group_IT_number 21
_symmetry_cell_setting 'orthorhombic'
loop_
_space_group_symop_operation_xyz
x,y,z
-x,-y,z
x,-y,-z
-x,y,-z
1/2+x,1/2+y,z
1/2-x,1/2-y,z
1/2+x,1/2-y,-z
1/2-x,1/2+y,-z
loop_
_atom_site_type_symbol
_atom_site_label
_atom_site_fract_x
_atom_site_fract_y
_atom_site_fract_z
Si Si1 0.772737 0.479668 0.123828
Si Si2 0.584722 0.463083 0.187339
Si Si3 0.218579 0.382376 0.333165
Si Si4 0.889102 0.918219 0.406027
Si Si5 0.408769 0.161988 0.502812
Si Si6 0.841322 0.721731 0.732456
O O1 0.673402 0.480700 0.131090
O O2 0.798538 0.575342 0.212182
O O3 0.817421 0.364344 0.169047
O O4 0.795353 0.500000 0.000000
O O5 0.500000 0.500000 0.127925
O O6 0.577000 0.552195 0.288555
O O7 0.602782 0.331519 0.231846
O O8 0.250000 0.250000 0.329967
O O9 0.295152 0.447636 0.383189
O O10 0.146796 0.402135 0.416315
O O11 0.903588 0.791736 0.452231
O O12 0.917922 0.000000 0.500000
O O13 0.500000 0.124032 0.500000
O O14 0.380855 0.165871 0.626792
O O15 0.750000 0.750000 0.692242
#
# Coordination Sequence:
#
# PCOD9322476 Si02
#       6
#     8   8   8   8   8   8
#     4  10  23  41  63  84 112 168 225 266 302 362
#     4  10  20  34  59  99 132 155 192 257 322 374
#     4   9  21  36  56  84 120 161 203 252 299 366
#     4  10  18  30  55  87 125 156 184 222 294 383
#     4  11  21  33  56  91 126 158 192 243 312 376
#     4  10  20  36  61  92 125 164 207 242 306 391
#
# _framework density 20.337336000000001
#
# number of rings (size 3 to 8) (size 9 to 14) (size 15 to 20)
#    0.000    2.000    1.667    2.500    4.667    2.333 
#    0.000    1.667    0.000    6.000    0.000    0.000 
#    0.000    0.000    0.000    0.000    0.000    0.000 
#
# Total GULP energy -133631.772051 kJ/mol
# GULP energy per Si atom -5567.990502 kJ/mol
# Density = 2.029105 g / cm^3
# Si number density = 20.337336 Si / 1000 Ang^3
#
#
#
# Elastic Constant Matrix: (Units=GPa)
#
#
# Indices 1 2 3 4 5 6 
#
# 1 142.8001 21.5826 55.5099 0.0000 0.0000 0.0000
# 2 21.5826 73.9670 32.2564 0.0000 0.0000 0.0000
# 3 55.5099 32.2564 154.2127 0.0000 0.0000 0.0000
# 4 0.0000 0.0000 0.0000 -7.4483 0.0000 0.0000
# 5 0.0000 0.0000 0.0000 0.0000 7.6244 0.0000
# 6 0.0000 0.0000 0.0000 0.0000 0.0000 22.2518
#
#
#
# Elastic Compliance Matrix: (Units=1/GPa)
#
#
# Indices 1 2 3 4 5 6 
#
# 1 0.008241 -0.001223 -0.002711 0.000000 0.000000 0.000000
# 2 -0.001223 0.015058 -0.002710 0.000000 0.000000 0.000000
# 3 -0.002711 -0.002710 0.008027 0.000000 0.000000 0.000000
# 4 0.000000 0.000000 0.000000 -0.134259 0.000000 0.000000
# 5 0.000000 0.000000 0.000000 0.000000 0.131157 0.000000
# 6 0.000000 0.000000 0.000000 0.000000 0.000000 0.044940
#
#
# Mechanical properties :
#
#
# Convention : Reuss Voigt Hill
#
# Bulk Modulus (GPa) = 55.43100 65.51974 60.47537
# Shear Modulus (GPa) = 54.07525 21.92766 38.00146
#
# Velocity S-wave (km/s) = 5.16206 3.28715 4.32737
# Velocity P-wave (km/s) = 7.92743 6.83327 7.40060
#
# Compressibility (1/GPa) = 0.01804045
#
# Stress axis : x y z
#
# Youngs Moduli (GPa) = 121.33970 66.41041 124.57837
#
# Poissons Ratio (x) = 0.08119 0.33771
# Poissons Ratio (y) = 0.14834 0.33755
# Poissons Ratio (z) = 0.32893 0.17994
#
# Static dielectric constant tensor:
#      x y z
#    x 1.798180 0.000000 0.000000 
#    y 0.000000 1.752320 0.000000 
#    z 0.000000 0.000000 1.700520 
# 
# From -- ./inp_files/25196.got.cif
#   From: 2010.05.17/outbox.cif.g08.bks.cpg/sg21_13_cif.got.tgz:25196.got - 2010.06.03 23:14:55.
