data_PCOD9322162
_publ_section_title
;
Structure prediction by ZEFSAII (Michael W. Deem and Ramdas Pophale) SiO2 
 PCOD9322162
Probable space group: C 2 2 21
;
_chemical_formula_sum "Si O2"
_cell_formula_units_Z 36
_cell_length_a 6.826275
_cell_length_b 10.465490
_cell_length_c 21.199011
_cell_angle_alpha 90.000000
_cell_angle_beta 90.000000
_cell_angle_gamma 90.000000
_cell_volume 1514.463976
_symmetry_space_group_name_H-M "C 2 2 21"
_symmetry_group_IT_number 20
_symmetry_cell_setting 'orthorhombic'
loop_
_space_group_symop_operation_xyz
x,y,z
-x,-y,1/2+z
x,-y,-z
-x,y,1/2-z
1/2+x,1/2+y,z
1/2-x,1/2-y,1/2+z
1/2+x,1/2-y,-z
1/2-x,1/2+y,1/2-z
loop_
_atom_site_type_symbol
_atom_site_label
_atom_site_fract_x
_atom_site_fract_y
_atom_site_fract_z
Si Si1 0.230013 0.787064 0.231112
Si Si2 0.755116 0.061007 0.317229
Si Si3 0.117528 0.931589 0.061117
Si Si4 0.608115 0.831420 0.891016
Si Si5 0.488642 0.000000 0.500000
O O1 0.319265 0.688917 0.281340
O O2 0.254348 0.726722 0.161088
O O3 0.000000 0.786290 0.250000
O O4 0.275908 0.937427 0.227364
O O5 0.550386 0.095059 0.349493
O O6 0.889365 0.015405 0.375430
O O7 0.023012 0.797028 0.077123
O O8 0.349749 0.915752 0.040063
O O9 0.035541 0.000000 0.000000
O O10 0.640395 0.923056 0.950066
#
# Coordination Sequence:
#
# PCOD9322162 Si02
#       5
#     8   8   8   8   4
#     4   9  18  33  54  76 103 139 176 217 266 315
#     4   9  17  33  56  76 106 139 175 218 265 311
#     4   8  16  31  55  74 102 143 172 217 266 308
#     4   9  16  32  55  74 105 141 172 217 267 306
#     4   8  16  30  50  74 104 136 172 220 260 314
#
# _framework density 23.770788
#
# number of rings (size 3 to 8) (size 9 to 14) (size 15 to 20)
#    0.667    2.667    0.000    0.000    0.000    0.000 
#    4.000    3.333   41.556    0.000    0.000    0.000 
#    0.000    0.000    0.000    0.000    0.000    0.000 
#
# Total GULP energy -100254.915662 kJ/mol
# GULP energy per Si atom -5569.717537 kJ/mol
# Density = 2.371668 g / cm^3
# Si number density = 23.770788 Si / 1000 Ang^3
#
#
#
# Elastic Constant Matrix: (Units=GPa)
#
#
# Indices 1 2 3 4 5 6 
#
# 1 59.2198 20.2172 13.0269 0.0000 0.0000 0.0000
# 2 20.2172 151.2444 81.4687 0.0000 0.0000 0.0000
# 3 13.0269 81.4687 138.5117 0.0000 0.0000 0.0000
# 4 0.0000 0.0000 0.0000 72.3488 0.0000 0.0000
# 5 0.0000 0.0000 0.0000 0.0000 10.0814 0.0000
# 6 0.0000 0.0000 0.0000 0.0000 0.0000 16.6873
#
#
#
# Elastic Compliance Matrix: (Units=1/GPa)
#
#
# Indices 1 2 3 4 5 6 
#
# 1 0.017709 -0.002152 -0.000400 0.000000 0.000000 0.000000
# 2 -0.002152 0.009939 -0.005644 0.000000 0.000000 0.000000
# 3 -0.000400 -0.005644 0.010577 0.000000 0.000000 0.000000
# 4 0.000000 0.000000 0.000000 0.013822 0.000000 0.000000
# 5 0.000000 0.000000 0.000000 0.000000 0.099193 0.000000
# 6 0.000000 0.000000 0.000000 0.000000 0.000000 0.059926
#
#
# Mechanical properties :
#
#
# Convention : Reuss Voigt Hill
#
# Bulk Modulus (GPa) = 45.79976 64.26683 55.03330
# Shear Modulus (GPa) = 21.29159 35.44103 28.36631
#
# Velocity S-wave (km/s) = 2.99608 3.86547 3.45820
# Velocity P-wave (km/s) = 5.59265 6.85691 6.25679
#
# Compressibility (1/GPa) = 0.02183417
#
# Stress axis : x y z
#
# Youngs Moduli (GPa) = 56.46910 100.60875 94.54725
#
# Poissons Ratio (x) = 0.21649 0.03781
# Poissons Ratio (y) = 0.12151 0.53360
# Poissons Ratio (z) = 0.02258 0.56781
#
# Static dielectric constant tensor:
#      x y z
#    x 1.957910 0.000000 0.000000 
#    y 0.000000 1.917760 0.000000 
#    z 0.000000 0.000000 1.931180 
# 
# From -- ./inp_files/28629.got.cif
#   From: 2010.05.17/outbox.cif.g08.bks.cpg/sg20_15_cif.got.tgz:28629.got - 2010.06.03 22:52:26.
