data_PCOD9322678
_publ_section_title
;
Structure prediction by ZEFSAII (Michael W. Deem and Ramdas Pophale) SiO2 
 PCOD9322678
Probable space group: C 2 2 2
;
_chemical_formula_sum "Si O2"
_cell_formula_units_Z 30
_cell_length_a 5.227483
_cell_length_b 21.421983
_cell_length_c 14.600007
_cell_angle_alpha 90.000000
_cell_angle_beta 90.000000
_cell_angle_gamma 90.000000
_cell_volume 1634.953342
_symmetry_space_group_name_H-M "C 2 2 2"
_symmetry_group_IT_number 21
_symmetry_cell_setting 'orthorhombic'
loop_
_space_group_symop_operation_xyz
x,y,z
-x,-y,z
x,-y,-z
-x,y,-z
1/2+x,1/2+y,z
1/2-x,1/2-y,z
1/2+x,1/2-y,-z
1/2-x,1/2+y,-z
loop_
_atom_site_type_symbol
_atom_site_label
_atom_site_fract_x
_atom_site_fract_y
_atom_site_fract_z
Si Si1 0.245593 0.071312 0.458693
Si Si2 0.500000 0.000000 0.000000
Si Si3 0.624581 0.568211 0.244191
Si Si4 0.500000 0.790340 0.000000
Si Si5 0.143410 0.601608 0.137440
O O1 0.500000 0.100131 0.500000
O O2 0.207766 0.071817 0.350428
O O3 0.000000 0.103942 0.500000
O O4 0.246773 0.000000 0.500000
O O5 0.672209 0.046168 0.062072
O O6 0.500000 0.500000 0.233290
O O7 0.390135 0.608666 0.202893
O O8 0.885778 0.581044 0.190269
O O9 0.750000 0.750000 0.024575
O O10 0.415152 0.835437 0.082737
#
# Coordination Sequence:
#
# PCOD9322678 Si02
#       5
#     8   2   8   4   8
#     4  10  19  29  46  71 112 173 190 206 264 337
#     4  10  20  34  48  82 118 144 184 224 296 376
#     4  12  20  34  51  83 126 159 187 234 277 357
#     4  11  24  47  64  79 110 153 212 264 298 345
#     4  11  24  35  57  85 113 158 194 242 302 347
#
# _framework density 18.349146999999999
#
# number of rings (size 3 to 8) (size 9 to 14) (size 15 to 20)
#    0.000    1.067    5.333    3.200    3.733    4.267 
#    0.000    0.000    0.000    0.000    0.000    0.000 
#    0.000   59.733    0.000    0.000    0.000    0.000 
#
# Total GULP energy -83603.739600 kJ/mol
# GULP energy per Si atom -5573.582640 kJ/mol
# Density = 1.830738 g / cm^3
# Si number density = 18.349147 Si / 1000 Ang^3
#
#
#
# Elastic Constant Matrix: (Units=GPa)
#
#
# Indices 1 2 3 4 5 6 
#
# 1 180.4554 27.7204 78.1839 0.0000 0.0000 0.0000
# 2 27.7204 60.9372 43.7574 0.0000 0.0000 0.0000
# 3 78.1839 43.7574 147.2458 0.0000 0.0000 0.0000
# 4 0.0000 0.0000 0.0000 6.6360 0.0000 0.0000
# 5 0.0000 0.0000 0.0000 0.0000 52.6168 0.0000
# 6 0.0000 0.0000 0.0000 0.0000 0.0000 16.2616
#
#
#
# Elastic Compliance Matrix: (Units=1/GPa)
#
#
# Indices 1 2 3 4 5 6 
#
# 1 0.007219 -0.000676 -0.003632 0.000000 0.000000 0.000000
# 2 -0.000676 0.020925 -0.005860 0.000000 0.000000 0.000000
# 3 -0.003632 -0.005860 0.010461 0.000000 0.000000 0.000000
# 4 0.000000 0.000000 0.000000 0.150694 0.000000 0.000000
# 5 0.000000 0.000000 0.000000 0.000000 0.019005 0.000000
# 6 0.000000 0.000000 0.000000 0.000000 0.000000 0.061495
#
#
# Mechanical properties :
#
#
# Convention : Reuss Voigt Hill
#
# Bulk Modulus (GPa) = 54.73322 76.44018 65.58670
# Shear Modulus (GPa) = 16.87906 31.03466 23.95686
#
# Velocity S-wave (km/s) = 3.03625 4.11705 3.61724
# Velocity P-wave (km/s) = 6.49502 8.02180 7.29844
#
# Compressibility (1/GPa) = 0.01827044
#
# Stress axis : x y z
#
# Youngs Moduli (GPa) = 138.52176 47.78884 95.58955
#
# Poissons Ratio (x) = 0.03229 0.34722
# Poissons Ratio (y) = 0.09359 0.56012
# Poissons Ratio (z) = 0.50316 0.28003
#
# Static dielectric constant tensor:
#      x y z
#    x 1.674470 0.000000 0.000000 
#    y 0.000000 1.613550 0.000000 
#    z 0.000000 0.000000 1.700900 
# 
# From -- ./inp_files/20695.got.cif
#   From: 2010.05.17/outbox.cif.g08.bks.cpg/sg21_11_cif.got.tgz:20695.got - 2010.06.03 23:14:55.
