data_PCOD9322846
_publ_section_title
;
Structure prediction by ZEFSAII (Michael W. Deem and Ramdas Pophale) SiO2 
 PCOD9322846
Probable space group: C 2 2 2
;
_chemical_formula_sum "Si O2"
_cell_formula_units_Z 64
_cell_length_a 18.145860
_cell_length_b 8.801752
_cell_length_c 21.410492
_cell_angle_alpha 90.000000
_cell_angle_beta 90.000000
_cell_angle_gamma 90.000000
_cell_volume 3419.584428
_symmetry_space_group_name_H-M "C 2 2 2"
_symmetry_group_IT_number 21
_symmetry_cell_setting 'orthorhombic'
loop_
_space_group_symop_operation_xyz
x,y,z
-x,-y,z
x,-y,-z
-x,y,-z
1/2+x,1/2+y,z
1/2-x,1/2-y,z
1/2+x,1/2-y,-z
1/2-x,1/2+y,-z
loop_
_atom_site_type_symbol
_atom_site_label
_atom_site_fract_x
_atom_site_fract_y
_atom_site_fract_z
Si Si1 0.083215 0.315422 0.991029
Si Si2 0.336399 0.220959 0.115993
Si Si3 0.166997 0.317452 0.631049
Si Si4 0.903661 0.854157 0.240729
Si Si5 0.582111 0.916527 0.860328
Si Si6 0.831916 0.682038 0.493464
Si Si7 0.331933 0.817662 0.642332
Si Si8 0.422148 0.697236 0.254763
O O1 0.095850 0.300139 0.917474
O O2 0.084680 0.500000 0.000000
O O3 0.133607 0.248203 0.045703
O O4 0.000000 0.262017 0.000000
O O5 0.250000 0.250000 0.119111
O O6 0.378221 0.307429 0.171542
O O7 0.358111 0.047677 0.131058
O O8 0.250000 0.250000 0.638778
O O9 0.138798 0.272514 0.561505
O O10 0.171136 0.499307 0.641660
O O11 0.109077 0.255483 0.680315
O O12 0.868344 0.753506 0.296101
O O13 0.990578 0.829147 0.249676
O O14 0.885917 0.032217 0.245786
O O15 0.592431 0.825212 0.797073
O O16 0.500000 0.000000 0.864315
O O17 0.826800 0.500000 0.500000
O O18 0.750000 0.750000 0.491383
O O19 0.866915 0.722281 0.426200
O O20 0.250000 0.750000 0.641822
#
# Coordination Sequence:
#
# PCOD9322846 Si02
#       8
#     8   8   8   8   8   8   8   8
#     4   9  15  33  62  89 109 150 204 242 283 367
#     4  11  22  37  62  95 124 152 200 258 308 352
#     4  10  20  35  57  86 118 149 201 259 307 362
#     4  11  23  40  55  83 124 158 201 250 310 366
#     4  11  19  39  67  89 112 161 212 243 299 372
#     4   8  16  31  52  81 111 149 196 247 304 369
#     4  10  19  34  59  83 115 158 198 245 313 372
#     4  11  24  38  58  84 116 160 207 250 296 375
#
# _framework density 18.715724000000002
#
# number of rings (size 3 to 8) (size 9 to 14) (size 15 to 20)
#    0.000    1.875    3.750    1.875    0.000    2.000 
#    0.000    5.625    0.000    6.000    0.000    0.000 
#    0.000    0.000    0.000    0.000    0.000    0.000 
#
# Total GULP energy -178186.016850 kJ/mol
# GULP energy per Si atom -5568.313027 kJ/mol
# Density = 1.867313 g / cm^3
# Si number density = 18.715724 Si / 1000 Ang^3
#
#
#
# Elastic Constant Matrix: (Units=GPa)
#
#
# Indices 1 2 3 4 5 6 
#
# 1 66.8043 23.1529 34.0806 0.0000 0.0000 0.0000
# 2 23.1529 57.2442 35.7284 0.0000 0.0000 0.0000
# 3 34.0806 35.7284 148.1199 0.0000 0.0000 0.0000
# 4 0.0000 0.0000 0.0000 18.4735 0.0000 0.0000
# 5 0.0000 0.0000 0.0000 0.0000 14.3722 0.0000
# 6 0.0000 0.0000 0.0000 0.0000 0.0000 21.9496
#
#
#
# Elastic Compliance Matrix: (Units=1/GPa)
#
#
# Indices 1 2 3 4 5 6 
#
# 1 0.018390 -0.005647 -0.002869 0.000000 0.000000 0.000000
# 2 -0.005647 0.022299 -0.004080 0.000000 0.000000 0.000000
# 3 -0.002869 -0.004080 0.008395 0.000000 0.000000 0.000000
# 4 0.000000 0.000000 0.000000 0.054132 0.000000 0.000000
# 5 0.000000 0.000000 0.000000 0.000000 0.069579 0.000000
# 6 0.000000 0.000000 0.000000 0.000000 0.000000 0.045559
#
#
# Mechanical properties :
#
#
# Convention : Reuss Voigt Hill
#
# Bulk Modulus (GPa) = 41.85331 50.89915 46.37623
# Shear Modulus (GPa) = 19.87993 22.90617 21.39305
#
# Velocity S-wave (km/s) = 3.26268 3.50222 3.38457
# Velocity P-wave (km/s) = 6.05018 6.60372 6.33300
#
# Compressibility (1/GPa) = 0.02389297
#
# Stress axis : x y z
#
# Youngs Moduli (GPa) = 54.37740 44.84450 119.11190
#
# Poissons Ratio (x) = 0.25325 0.34175
# Poissons Ratio (y) = 0.30708 0.48592
# Poissons Ratio (z) = 0.15602 0.18294
#
# Static dielectric constant tensor:
#      x y z
#    x 1.611120 0.000000 0.000000 
#    y 0.000000 1.658210 0.000000 
#    z 0.000000 0.000000 1.723820 
# 
# From -- ./inp_files/37718.got.cif
#   From: 2010.05.17/outbox.cif.g08.bks.cpg/sg21_19_cif.got.tgz:37718.got - 2010.06.03 23:14:55.
