data_PCOD9322202
_publ_section_title
;
Structure prediction by ZEFSAII (Michael W. Deem and Ramdas Pophale) SiO2 
 PCOD9322202
Probable space group: C 2 2 21
;
_chemical_formula_sum "Si O2"
_cell_formula_units_Z 32
_cell_length_a 30.000000
_cell_length_b 9.000000
_cell_length_c 12.000000
_cell_angle_alpha 90.000000
_cell_angle_beta 90.000000
_cell_angle_gamma 90.000000
_cell_volume 3240.000000
_symmetry_space_group_name_H-M "C 2 2 21"
_symmetry_group_IT_number 20
_symmetry_cell_setting 'orthorhombic'
loop_
_space_group_symop_operation_xyz
x,y,z
-x,-y,1/2+z
x,-y,-z
-x,y,1/2-z
1/2+x,1/2+y,z
1/2-x,1/2-y,1/2+z
1/2+x,1/2-y,-z
1/2-x,1/2+y,1/2-z
loop_
_atom_site_type_symbol
_atom_site_label
_atom_site_fract_x
_atom_site_fract_y
_atom_site_fract_z
Si Si1 0.117412 0.006701 0.251327
Si Si2 0.392833 0.768202 0.603364
Si Si3 0.351960 0.033023 0.747063
Si Si4 0.675091 0.301485 0.913857
Si Si5 0.265149 0.851788 0.812741
Si Si6 0.935341 0.711745 0.810969
Si Si7 0.473932 0.155251 0.564203
Si Si8 0.208929 0.982199 0.368891
O O1 0.142790 0.082203 0.147034
O O2 0.079538 0.117832 0.293639
O O3 0.100278 0.852375 0.201064
O O4 0.156355 0.997669 0.343319
O O5 0.379743 0.920121 0.667457
O O6 0.348241 0.732484 0.531093
O O7 0.435644 0.769992 0.518031
O O8 0.310967 0.949068 0.810291
O O9 0.329519 0.154787 0.664494
O O10 0.389056 0.116956 0.824108
O O11 0.725861 0.361090 0.907126
O O12 0.278997 0.679946 0.820523
O O13 0.237918 0.899225 0.701511
O O14 0.953136 0.657599 0.689000
O O15 0.974683 0.703388 0.903862
O O16 0.479044 0.000000 0.500000
O O17 0.218094 0.000000 0.500000
#
# Coordination Sequence:
#
# PCOD9322202 Si02
#       8
#     8   8   8   8   8   8   8   8
#     4  10  22  41  65  92 137 179 219 286 353 417
#     4  12  20  37  74 102 124 171 243 284 344 413
#     4  11  20  38  65  94 136 181 228 282 339 406
#     4  10  21  35  60  97 137 175 223 291 336 390
#     4  11  23  40  65 100 141 191 237 283 336 417
#     4  10  23  42  69  93 141 171 218 296 354 418
#     4  11  21  41  72 102 123 172 229 289 357 414
#     4  11  25  44  66  97 147 191 236 291 352 405
#
# _framework density 9.8765429999999999
#
# number of rings (size 3 to 8) (size 9 to 14) (size 15 to 20)
#    0.000    1.250    6.250    0.750    1.750    0.000 
#    2.250    0.625   13.750    0.000    0.000    0.000 
#    0.000    0.000    0.000    0.000    0.000    0.000 
#
# Total GULP energy -178416.726923 kJ/mol
# GULP energy per Si atom -5575.522716 kJ/mol
# Density = 0.985406 g / cm^3
# Si number density = 9.876543 Si / 1000 Ang^3
#
#
#
# Elastic Constant Matrix: (Units=GPa)
#
#
# Indices 1 2 3 4 5 6 
#
# 1 149.9079 41.4541 40.2595 0.0000 0.0000 0.0000
# 2 41.4541 107.5592 37.9105 0.0000 0.0000 0.0000
# 3 40.2595 37.9105 55.6255 0.0000 0.0000 0.0000
# 4 0.0000 0.0000 0.0000 19.4407 0.0000 0.0000
# 5 0.0000 0.0000 0.0000 0.0000 36.1686 0.0000
# 6 0.0000 0.0000 0.0000 0.0000 0.0000 28.8146
#
#
#
# Elastic Compliance Matrix: (Units=1/GPa)
#
#
# Indices 1 2 3 4 5 6 
#
# 1 0.008448 -0.001449 -0.005127 0.000000 0.000000 0.000000
# 2 -0.001449 0.012485 -0.007460 0.000000 0.000000 0.000000
# 3 -0.005127 -0.007460 0.026773 0.000000 0.000000 0.000000
# 4 0.000000 0.000000 0.000000 0.051439 0.000000 0.000000
# 5 0.000000 0.000000 0.000000 0.000000 0.027648 0.000000
# 6 0.000000 0.000000 0.000000 0.000000 0.000000 0.034705
#
#
# Mechanical properties :
#
#
# Convention : Reuss Voigt Hill
#
# Bulk Modulus (GPa) = 50.93367 61.37121 56.15244
# Shear Modulus (GPa) = 25.49528 29.78267 27.63898
#
# Velocity S-wave (km/s) = 3.59653 3.88719 3.74468
# Velocity P-wave (km/s) = 6.56413 7.16125 6.86918
#
# Compressibility (1/GPa) = 0.01963338
#
# Stress axis : x y z
#
# Youngs Moduli (GPa) = 118.36572 80.09533 37.35162
#
# Poissons Ratio (x) = 0.11606 0.19151
# Poissons Ratio (y) = 0.17151 0.27865
# Poissons Ratio (z) = 0.60687 0.59754
#
# Static dielectric constant tensor:
#      x y z
#    x 1.733730 0.000000 0.000000 
#    y 0.000000 1.741640 0.000000 
#    z 0.000000 0.000000 1.677020 
# 
# From -- ./inp_files/17263.got.cif
#   From: 2010.05.17/outbox.ucp.g08.bks.cvg/sg20_9_cif.got.tgz:17263.got - 2010.06.11 15:13:06.
