data_PCOD9322330
_publ_section_title
;
Structure prediction by ZEFSAII (Michael W. Deem and Ramdas Pophale) SiO2 
 PCOD9322330
Probable space group: C 2 2 2
;
_chemical_formula_sum "Si O2"
_cell_formula_units_Z 60
_cell_length_a 12.324940
_cell_length_b 27.929763
_cell_length_c 7.893908
_cell_angle_alpha 90.000000
_cell_angle_beta 90.000000
_cell_angle_gamma 90.000000
_cell_volume 2717.340895
_symmetry_space_group_name_H-M "C 2 2 2"
_symmetry_group_IT_number 21
_symmetry_cell_setting 'orthorhombic'
loop_
_space_group_symop_operation_xyz
x,y,z
-x,-y,z
x,-y,-z
-x,y,-z
1/2+x,1/2+y,z
1/2-x,1/2-y,z
1/2+x,1/2-y,-z
1/2-x,1/2+y,-z
loop_
_atom_site_type_symbol
_atom_site_label
_atom_site_fract_x
_atom_site_fract_y
_atom_site_fract_z
Si Si1 0.431056 0.722586 0.669063
Si Si2 0.414534 0.170981 0.255099
Si Si3 0.124810 0.494985 0.206615
Si Si4 0.750000 0.750000 0.556116
Si Si5 0.857700 0.339573 0.347953
Si Si6 0.018345 0.880121 0.697819
Si Si7 0.750947 0.403174 0.831267
Si Si8 0.207950 0.922161 0.219628
O O1 0.500000 0.734023 0.500000
O O2 0.421119 0.771930 0.770287
O O3 0.315597 0.715659 0.574194
O O4 0.477084 0.675593 0.760837
O O5 0.536038 0.150574 0.234900
O O6 0.388023 0.159997 0.453143
O O7 0.319376 0.145473 0.155057
O O8 0.169506 0.442489 0.248241
O O9 0.216171 0.532673 0.271358
O O10 0.000000 0.500000 0.266170
O O11 0.120915 0.500000 0.000000
O O12 0.818799 0.715022 0.673279
O O13 0.763619 0.376312 0.305973
O O14 0.138076 0.899388 0.733512
O O15 0.000000 0.873688 0.500000
O O16 0.921254 0.915174 0.753791
O O17 0.721856 0.419363 0.018898
#
# Coordination Sequence:
#
# PCOD9322330 Si02
#       8
#     8   8   8   4   8   8   8   8
#     4  10  17  33  57  84 114 162 208 241 281 362
#     4  10  19  35  59  89 117 159 207 253 300 354
#     4   9  20  41  66  90 117 161 203 239 302 385
#     4  10  16  30  54  86 116 156 208 246 286 356
#     4  10  19  33  57  89 119 153 206 252 295 359
#     4  11  23  40  64  87 120 166 210 248 299 368
#     4  11  23  40  62  89 124 158 205 261 306 365
#     4  11  23  39  63  90 122 160 204 256 314 363
#
# _framework density 22.080409
#
# number of rings (size 3 to 8) (size 9 to 14) (size 15 to 20)
#    0.000    1.733    2.667    5.200    0.000    2.133 
#    0.000    6.667    2.933    4.800    0.000    0.000 
#    0.000    0.000    0.000    0.000    0.000    0.000 
#
# Total GULP energy -167301.216701 kJ/mol
# GULP energy per Si atom -5576.707223 kJ/mol
# Density = 2.203015 g / cm^3
# Si number density = 22.080409 Si / 1000 Ang^3
#
#
#
# Elastic Constant Matrix: (Units=GPa)
#
#
# Indices 1 2 3 4 5 6 
#
# 1 138.8487 47.0010 1.1836 0.0000 0.0000 0.0000
# 2 47.0010 102.8506 2.5316 0.0000 0.0000 0.0000
# 3 1.1836 2.5316 11.5333 0.0000 0.0000 0.0000
# 4 0.0000 0.0000 0.0000 20.5997 0.0000 0.0000
# 5 0.0000 0.0000 0.0000 0.0000 30.2176 0.0000
# 6 0.0000 0.0000 0.0000 0.0000 0.0000 36.7949
#
#
#
# Elastic Compliance Matrix: (Units=1/GPa)
#
#
# Indices 1 2 3 4 5 6 
#
# 1 0.008520 -0.003893 -0.000020 0.000000 0.000000 0.000000
# 2 -0.003893 0.011554 -0.002137 0.000000 0.000000 0.000000
# 3 -0.000020 -0.002137 0.087176 0.000000 0.000000 0.000000
# 4 0.000000 0.000000 0.000000 0.048545 0.000000 0.000000
# 5 0.000000 0.000000 0.000000 0.000000 0.033093 0.000000
# 6 0.000000 0.000000 0.000000 0.000000 0.000000 0.027178
#
#
# Mechanical properties :
#
#
# Convention : Reuss Voigt Hill
#
# Bulk Modulus (GPa) = 10.50953 39.40724 24.95838
# Shear Modulus (GPa) = 19.23943 31.02353 25.13148
#
# Velocity S-wave (km/s) = 2.95504 3.75243 3.37735
# Velocity P-wave (km/s) = 4.05130 6.05477 5.15137
#
# Compressibility (1/GPa) = 0.09515174
#
# Stress axis : x y z
#
# Youngs Moduli (GPa) = 117.36997 86.54641 11.47099
#
# Poissons Ratio (x) = 0.33693 0.00023
# Poissons Ratio (y) = 0.45693 0.02451
# Poissons Ratio (z) = 0.00233 0.18493
#
# Static dielectric constant tensor:
#      x y z
#    x 1.923390 0.000000 0.000000 
#    y 0.000000 1.860020 0.000000 
#    z 0.000000 0.000000 1.808990 
# 
# From -- ./inp_files/13548.got.cif
#   From: 2010.05.17/outbox.cif.g08.bks.cpg/sg21_7_cif.got.tgz:13548.got - 2010.06.03 23:14:55.
