data_PCOD9322134
_publ_section_title
;
Structure prediction by ZEFSAII (Michael W. Deem and Ramdas Pophale) SiO2 
 PCOD9322134
Probable space group: C 2 2 21
;
_chemical_formula_sum "Si O2"
_cell_formula_units_Z 28
_cell_length_a 25.378227
_cell_length_b 7.896315
_cell_length_c 5.327232
_cell_angle_alpha 90.000000
_cell_angle_beta 90.000000
_cell_angle_gamma 90.000000
_cell_volume 1067.547857
_symmetry_space_group_name_H-M "C 2 2 21"
_symmetry_group_IT_number 20
_symmetry_cell_setting 'orthorhombic'
loop_
_space_group_symop_operation_xyz
x,y,z
-x,-y,1/2+z
x,-y,-z
-x,y,1/2-z
1/2+x,1/2+y,z
1/2-x,1/2-y,1/2+z
1/2+x,1/2-y,-z
1/2-x,1/2+y,1/2-z
loop_
_atom_site_type_symbol
_atom_site_label
_atom_site_fract_x
_atom_site_fract_y
_atom_site_fract_z
Si Si1 0.450980 0.000000 0.500000
Si Si2 0.120457 0.500000 0.500000
Si Si3 0.585886 0.500000 0.000000
Si Si4 0.752666 0.500000 0.500000
Si Si5 0.325157 0.719505 0.728363
Si Si6 0.000000 0.799257 0.750000
O O1 0.488085 0.834016 0.474062
O O2 0.414312 0.993299 0.252885
O O3 0.156283 0.667713 0.467340
O O4 0.622926 0.351689 0.099703
O O5 0.549400 0.575791 0.220522
O O6 0.712533 0.436545 0.289842
O O7 0.790518 0.346975 0.567674
#
# Coordination Sequence:
#
# PCOD9322134 Si02
#       6
#     4   4   4   4   8   4
#     4  12  28  54  86 117 173 234 296 361 425 544
#     4  12  27  51  85 124 168 237 283 368 439 520
#     4  12  30  50  86 131 185 237 299 384 438 552
#     4  12  27  51  85 128 172 236 294 371 448 554
#     4  12  27  51  85 129 179 233 299 371 457 530
#     4  12  30  54  82 132 168 242 300 366 452 528
#
# _framework density 26.228328999999999
#
# number of rings (size 3 to 8) (size 9 to 14) (size 15 to 20)
#    0.000    0.000    2.857    5.143    8.000    1.143 
#    0.000    0.000    0.000    0.000    0.000    0.000 
#    0.000    0.000    0.000    0.000    0.000    0.000 
#
# Total GULP energy -78509.238119 kJ/mol
# GULP energy per Si atom -5607.802723 kJ/mol
# Density = 2.616863 g / cm^3
# Si number density = 26.228329 Si / 1000 Ang^3
#
#
#
# Elastic Constant Matrix: (Units=GPa)
#
#
# Indices 1 2 3 4 5 6 
#
# 1 190.7305 69.1616 70.3648 0.0000 0.0000 0.0000
# 2 69.1616 112.1843 27.1337 0.0000 0.0000 0.0000
# 3 70.3648 27.1337 133.1563 0.0000 0.0000 0.0000
# 4 0.0000 0.0000 0.0000 56.1973 0.0000 0.0000
# 5 0.0000 0.0000 0.0000 0.0000 53.1244 0.0000
# 6 0.0000 0.0000 0.0000 0.0000 0.0000 98.1780
#
#
#
# Elastic Compliance Matrix: (Units=1/GPa)
#
#
# Indices 1 2 3 4 5 6 
#
# 1 0.007977 -0.004100 -0.003380 0.000000 0.000000 0.000000
# 2 -0.004100 0.011484 -0.000173 0.000000 0.000000 0.000000
# 3 -0.003380 -0.000173 0.009331 0.000000 0.000000 0.000000
# 4 0.000000 0.000000 0.000000 0.017794 0.000000 0.000000
# 5 0.000000 0.000000 0.000000 0.000000 0.018824 0.000000
# 6 0.000000 0.000000 0.000000 0.000000 0.000000 0.010186
#
#
# Mechanical properties :
#
#
# Convention : Reuss Voigt Hill
#
# Bulk Modulus (GPa) = 74.15599 85.48793 79.82196
# Shear Modulus (GPa) = 52.41283 59.46068 55.93676
#
# Velocity S-wave (km/s) = 4.47512 4.76651 4.62311
# Velocity P-wave (km/s) = 7.41868 7.93456 7.68096
#
# Compressibility (1/GPa) = 0.01348509
#
# Stress axis : x y z
#
# Youngs Moduli (GPa) = 125.36680 87.08090 107.16707
#
# Poissons Ratio (x) = 0.35704 0.36219
# Poissons Ratio (y) = 0.51402 0.01858
# Poissons Ratio (z) = 0.42369 0.01510
#
# Static dielectric constant tensor:
#      x y z
#    x 2.054960 0.000000 0.000000 
#    y 0.000000 2.062670 0.000000 
#    z 0.000000 0.000000 2.061300 
# 
# From -- ./inp_files/4016.got.cif
#   From: 2010.05.17/outbox.cif.g08.bks.cpg/sg20_3_cif.got.tgz:4016.got - 2010.06.03 22:52:26.
