data_PCOD9322746
_publ_section_title
;
Structure prediction by ZEFSAII (Michael W. Deem and Ramdas Pophale) SiO2 
 PCOD9322746
Probable space group: C 2 2 2
;
_chemical_formula_sum "Si O2"
_cell_formula_units_Z 48
_cell_length_a 5.200302
_cell_length_b 27.950813
_cell_length_c 14.581744
_cell_angle_alpha 90.000000
_cell_angle_beta 90.000000
_cell_angle_gamma 90.000000
_cell_volume 2119.495405
_symmetry_space_group_name_H-M "C 2 2 2"
_symmetry_group_IT_number 21
_symmetry_cell_setting 'orthorhombic'
loop_
_space_group_symop_operation_xyz
x,y,z
-x,-y,z
x,-y,-z
-x,y,-z
1/2+x,1/2+y,z
1/2-x,1/2-y,z
1/2+x,1/2-y,-z
1/2-x,1/2+y,-z
loop_
_atom_site_type_symbol
_atom_site_label
_atom_site_fract_x
_atom_site_fract_y
_atom_site_fract_z
Si Si1 0.451128 0.554868 0.638620
Si Si2 0.956539 0.054246 0.862944
Si Si3 0.448595 0.889189 0.359171
Si Si4 0.256779 0.200007 0.063208
Si Si5 0.033203 0.393477 0.860169
Si Si6 0.499614 0.776497 0.390585
O O1 0.500000 0.500000 0.611295
O O2 0.454048 0.555296 0.750759
O O3 0.679357 0.589678 0.606947
O O4 0.181114 0.577170 0.608671
O O5 0.670630 0.067517 0.892453
O O6 0.181333 0.091398 0.893222
O O7 0.000000 0.000000 0.890716
O O8 0.444017 0.893414 0.249144
O O9 0.492092 0.833469 0.378987
O O10 0.250000 0.250000 0.119788
O O11 0.624715 0.154673 0.884565
O O12 0.500000 0.211852 0.000000
O O13 0.000000 0.190351 0.000000
O O14 0.500000 0.768234 0.500000
O O15 0.750000 0.750000 0.352984
O O16 0.250000 0.750000 0.351248
#
# Coordination Sequence:
#
# PCOD9322746 Si02
#       6
#     8   8   8   8   8   8
#     4   9  17  30  50  77 108 138 168 208 260 314
#     4   9  17  30  50  77 106 133 165 207 257 311
#     4  10  19  32  53  80 105 133 174 220 260 301
#     4  10  21  37  54  72  99 137 173 206 256 318
#     4  10  19  32  53  79 102 131 172 216 257 300
#     4  10  21  37  55  75 104 144 182 217 268 328
#
# _framework density 22.646898
#
# number of rings (size 3 to 8) (size 9 to 14) (size 15 to 20)
#    0.000    2.333    0.000    3.000    0.000    4.667 
#    0.000    2.500    0.000   10.500    0.000    0.000 
#    0.000    0.000    0.000    0.000    0.000    0.000 
#
# Total GULP energy -133818.071613 kJ/mol
# GULP energy per Si atom -5575.752984 kJ/mol
# Density = 2.259535 g / cm^3
# Si number density = 22.646898 Si / 1000 Ang^3
#
#
#
# Elastic Constant Matrix: (Units=GPa)
#
#
# Indices 1 2 3 4 5 6 
#
# 1 148.4874 24.1880 -5.7304 0.0000 0.0000 0.0000
# 2 24.1880 98.0486 -27.9175 0.0000 0.0000 0.0000
# 3 -5.7304 -27.9175 46.2274 0.0000 0.0000 0.0000
# 4 0.0000 0.0000 0.0000 110.4704 0.0000 0.0000
# 5 0.0000 0.0000 0.0000 0.0000 -8.3506 0.0000
# 6 0.0000 0.0000 0.0000 0.0000 0.0000 43.6219
#
#
#
# Elastic Compliance Matrix: (Units=1/GPa)
#
#
# Indices 1 2 3 4 5 6 
#
# 1 0.007018 -0.001792 -0.000212 0.000000 0.000000 0.000000
# 2 -0.001792 0.012774 0.007493 0.000000 0.000000 0.000000
# 3 -0.000212 0.007493 0.026131 0.000000 0.000000 0.000000
# 4 0.000000 0.000000 0.000000 0.009052 0.000000 0.000000
# 5 0.000000 0.000000 0.000000 0.000000 -0.119752 0.000000
# 6 0.000000 0.000000 0.000000 0.000000 0.000000 0.022924
#
#
# Mechanical properties :
#
#
# Convention : Reuss Voigt Hill
#
# Bulk Modulus (GPa) = 17.57441 30.42708 24.00075
# Shear Modulus (GPa) = -147.65525 49.29655 -49.17935
#
# Velocity S-wave (km/s) = -8.08334 4.67062 -4.66507
# Velocity P-wave (km/s) = 8.90750 6.52310 4.28909
#
# Compressibility (1/GPa) = 0.05690091
#
# Stress axis : x y z
#
# Youngs Moduli (GPa) = 142.48537 78.28151 38.26906
#
# Poissons Ratio (x) = 0.14026 0.00812
# Poissons Ratio (y) = 0.25530 -0.28673
# Poissons Ratio (z) = 0.03022 -0.58653
#
# Static dielectric constant tensor:
#      x y z
#    x 1.735700 0.000000 0.000000 
#    y 0.000000 1.959610 0.000000 
#    z 0.000000 0.000000 1.875440 
# 
# From -- ./inp_files/35025.got.cif
#   From: 2010.05.17/outbox.cif.g08.bks.cpg/sg21_18_cif.got.tgz:35025.got - 2010.06.03 23:14:55.
