data_PCOD9322037
_publ_section_title
;
Structure prediction by ZEFSAII (Michael W. Deem and Ramdas Pophale) SiO2 
 PCOD9322037
Probable space group: C 2 2 21
;
_chemical_formula_sum "Si O2"
_cell_formula_units_Z 40
_cell_length_a 21.715302
_cell_length_b 9.318886
_cell_length_c 8.206813
_cell_angle_alpha 90.000000
_cell_angle_beta 90.000000
_cell_angle_gamma 90.000000
_cell_volume 1660.750570
_symmetry_space_group_name_H-M "C 2 2 21"
_symmetry_group_IT_number 20
_symmetry_cell_setting 'orthorhombic'
loop_
_space_group_symop_operation_xyz
x,y,z
-x,-y,1/2+z
x,-y,-z
-x,y,1/2-z
1/2+x,1/2+y,z
1/2-x,1/2-y,1/2+z
1/2+x,1/2-y,-z
1/2-x,1/2+y,1/2-z
loop_
_atom_site_type_symbol
_atom_site_label
_atom_site_fract_x
_atom_site_fract_y
_atom_site_fract_z
Si Si1 0.693442 0.524315 0.267227
Si Si2 0.294625 0.000000 0.500000
Si Si3 0.126490 0.248707 0.029306
Si Si4 0.783820 0.500000 0.000000
Si Si5 0.370835 0.246884 0.139635
Si Si6 0.494891 0.164054 0.944210
O O1 0.745724 0.586613 0.387649
O O2 0.654582 0.628778 0.149957
O O3 0.738134 0.443187 0.139717
O O4 0.651332 0.411323 0.362329
O O5 0.339801 0.892534 0.405222
O O6 0.132918 0.273592 0.834594
O O7 0.053260 0.235265 0.027863
O O8 0.824917 0.630969 0.061747
O O9 0.434815 0.220384 0.041561
O O10 0.500000 0.153828 0.750000
O O11 0.505431 0.000000 0.000000
#
# Coordination Sequence:
#
# PCOD9322037 Si02
#       6
#     8   4   8   4   8   8
#     4  12  28  48  79 124 170 218 276 342 438 504
#     4  12  28  43  82 117 174 218 274 348 422 524
#     4  12  26  51  78 120 164 221 280 355 421 511
#     4  12  24  47  80 121 172 214 274 342 426 520
#     4  12  26  49  82 117 167 220 280 353 423 512
#     4  12  28  50  80 115 158 218 292 352 422 508
#
# _framework density 24.085495000000002
#
# number of rings (size 3 to 8) (size 9 to 14) (size 15 to 20)
#    0.000    0.000    6.000    3.000    5.600    0.000 
#    0.000    4.000    0.000    0.000    0.000    0.000 
#    0.000    0.000    0.000    0.000    0.000    0.000 
#
# Total GULP energy -111475.291640 kJ/mol
# GULP energy per Si atom -5573.764582 kJ/mol
# Density = 2.403068 g / cm^3
# Si number density = 24.085495 Si / 1000 Ang^3
#
#
#
# Elastic Constant Matrix: (Units=GPa)
#
#
# Indices 1 2 3 4 5 6 
#
# 1 183.0676 71.7597 65.1837 0.0000 0.0000 0.0000
# 2 71.7597 132.1894 54.4814 0.0000 0.0000 0.0000
# 3 65.1837 54.4814 112.5041 0.0000 0.0000 0.0000
# 4 0.0000 0.0000 0.0000 35.0268 0.0000 0.0000
# 5 0.0000 0.0000 0.0000 0.0000 42.7426 0.0000
# 6 0.0000 0.0000 0.0000 0.0000 0.0000 103.7632
#
#
#
# Elastic Compliance Matrix: (Units=1/GPa)
#
#
# Indices 1 2 3 4 5 6 
#
# 1 0.007690 -0.002921 -0.003041 0.000000 0.000000 0.000000
# 2 -0.002921 0.010561 -0.003422 0.000000 0.000000 0.000000
# 3 -0.003041 -0.003422 0.012307 0.000000 0.000000 0.000000
# 4 0.000000 0.000000 0.000000 0.028550 0.000000 0.000000
# 5 0.000000 0.000000 0.000000 0.000000 0.023396 0.000000
# 6 0.000000 0.000000 0.000000 0.000000 0.000000 0.009637
#
#
# Mechanical properties :
#
#
# Convention : Reuss Voigt Hill
#
# Bulk Modulus (GPa) = 84.81240 90.06785 87.44012
# Shear Modulus (GPa) = 43.53877 52.06226 47.80051
#
# Velocity S-wave (km/s) = 4.25629 4.65430 4.45974
# Velocity P-wave (km/s) = 7.71000 8.14614 7.93107
#
# Compressibility (1/GPa) = 0.01179073
#
# Stress axis : x y z
#
# Youngs Moduli (GPa) = 130.03191 94.68757 81.25147
#
# Poissons Ratio (x) = 0.27662 0.24709
# Poissons Ratio (y) = 0.37988 0.27801
# Poissons Ratio (z) = 0.39543 0.32399
#
# Static dielectric constant tensor:
#      x y z
#    x 2.015280 0.000000 0.000000 
#    y 0.000000 1.968540 0.000000 
#    z 0.000000 0.000000 2.049910 
# 
# From -- ./inp_files/10008.got.cif
#   From: 2010.05.17/outbox.cif.g08.bks.cpg/sg20_6_cif.got.tgz:10008.got - 2010.06.03 22:52:26.
