data_PCOD9322523
_publ_section_title
;
Structure prediction by ZEFSAII (Michael W. Deem and Ramdas Pophale) SiO2 
 PCOD9322523
Probable space group: C 2 2 2
;
_chemical_formula_sum "Si O2"
_cell_formula_units_Z 44
_cell_length_a 8.353751
_cell_length_b 31.467551
_cell_length_c 7.680491
_cell_angle_alpha 90.000000
_cell_angle_beta 90.000000
_cell_angle_gamma 90.000000
_cell_volume 2018.986688
_symmetry_space_group_name_H-M "C 2 2 2"
_symmetry_group_IT_number 21
_symmetry_cell_setting 'orthorhombic'
loop_
_space_group_symop_operation_xyz
x,y,z
-x,-y,z
x,-y,-z
-x,y,-z
1/2+x,1/2+y,z
1/2-x,1/2-y,z
1/2+x,1/2-y,-z
1/2-x,1/2+y,-z
loop_
_atom_site_type_symbol
_atom_site_label
_atom_site_fract_x
_atom_site_fract_y
_atom_site_fract_z
Si Si1 0.392831 0.555344 0.324662
Si Si2 0.672663 0.985376 0.289375
Si Si3 0.500000 0.330167 0.000000
Si Si4 0.811586 0.629972 0.532503
Si Si5 0.182361 0.897131 0.820431
Si Si6 0.872370 0.789252 0.658526
O O1 0.500000 0.547176 0.500000
O O2 0.319878 0.514581 0.231784
O O3 0.247234 0.586356 0.377710
O O4 0.510939 0.581060 0.203923
O O5 0.500000 0.000000 0.228610
O O6 0.676131 0.000000 0.500000
O O7 0.700516 0.937833 0.215074
O O8 0.346429 0.361719 0.032529
O O9 0.531605 0.300744 0.166336
O O10 0.721048 0.630455 0.349034
O O11 0.742028 0.670068 0.630242
O O12 0.000000 0.630017 0.500000
O O13 0.750000 0.750000 0.671414
O O14 0.000000 0.784130 0.500000
#
# Coordination Sequence:
#
# PCOD9322523 Si02
#       6
#     8   8   4   8   8   8
#     4  10  18  32  58  95 135 187 244 296 348 419
#     4  11  20  31  58 102 141 189 251 308 359 418
#     4  12  26  50  75 112 150 190 252 301 376 450
#     4  11  20  39  70 107 140 189 240 298 367 440
#     4  11  22  39  69  99 146 194 241 305 361 440
#     4  12  26  51  81 110 146 186 240 305 378 461
#
# _framework density 21.793111
#
# number of rings (size 3 to 8) (size 9 to 14) (size 15 to 20)
#    0.000    0.909    7.273    2.727    0.000    0.727 
#    3.273    1.818    0.000    1.091    0.000    0.000 
#    0.000    0.000    0.000    0.000    0.000    0.000 
#
# Total GULP energy -122644.638992 kJ/mol
# GULP energy per Si atom -5574.756318 kJ/mol
# Density = 2.174351 g / cm^3
# Si number density = 21.793111 Si / 1000 Ang^3
#
#
#
# Elastic Constant Matrix: (Units=GPa)
#
#
# Indices 1 2 3 4 5 6 
#
# 1 114.2715 47.3549 32.6519 0.0000 0.0000 0.0000
# 2 47.3549 139.6014 54.5161 0.0000 0.0000 0.0000
# 3 32.6519 54.5161 103.1020 0.0000 0.0000 0.0000
# 4 0.0000 0.0000 0.0000 22.9255 0.0000 0.0000
# 5 0.0000 0.0000 0.0000 0.0000 5.2517 0.0000
# 6 0.0000 0.0000 0.0000 0.0000 0.0000 56.2211
#
#
#
# Elastic Compliance Matrix: (Units=1/GPa)
#
#
# Indices 1 2 3 4 5 6 
#
# 1 0.010443 -0.002837 -0.001807 0.000000 0.000000 0.000000
# 2 -0.002837 0.009798 -0.004282 0.000000 0.000000 0.000000
# 3 -0.001807 -0.004282 0.012536 0.000000 0.000000 0.000000
# 4 0.000000 0.000000 0.000000 0.043620 0.000000 0.000000
# 5 0.000000 0.000000 0.000000 0.000000 0.190413 0.000000
# 6 0.000000 0.000000 0.000000 0.000000 0.000000 0.017787
#
#
# Mechanical properties :
#
#
# Convention : Reuss Voigt Hill
#
# Bulk Modulus (GPa) = 67.00608 69.55786 68.28197
# Shear Modulus (GPa) = 16.26421 31.70979 23.98700
#
# Velocity S-wave (km/s) = 2.73481 3.81863 3.32123
# Velocity P-wave (km/s) = 6.38635 7.17142 6.79024
#
# Compressibility (1/GPa) = 0.01492402
#
# Stress axis : x y z
#
# Youngs Moduli (GPa) = 95.75748 102.06395 79.77135
#
# Poissons Ratio (x) = 0.28952 0.14418
# Poissons Ratio (y) = 0.27163 0.34161
# Poissons Ratio (z) = 0.17307 0.43707
#
# Static dielectric constant tensor:
#      x y z
#    x 1.789600 0.000000 0.000000 
#    y 0.000000 1.848760 0.000000 
#    z 0.000000 0.000000 1.886570 
# 
# From -- ./inp_files/11419.got.cif
#   From: 2010.05.17/outbox.cif.g08.bks.cpg/sg21_6_cif.got.tgz:11419.got - 2010.06.03 23:14:55.
