data_PCOD9322848
_publ_section_title
;
Structure prediction by ZEFSAII (Michael W. Deem and Ramdas Pophale) SiO2 
 PCOD9322848
Probable space group: C 2 2 2
;
_chemical_formula_sum "Si O2"
_cell_formula_units_Z 64
_cell_length_a 29.544371
_cell_length_b 11.187070
_cell_length_c 8.958537
_cell_angle_alpha 90.000000
_cell_angle_beta 90.000000
_cell_angle_gamma 90.000000
_cell_volume 2960.930377
_symmetry_space_group_name_H-M "C 2 2 2"
_symmetry_group_IT_number 21
_symmetry_cell_setting 'orthorhombic'
loop_
_space_group_symop_operation_xyz
x,y,z
-x,-y,z
x,-y,-z
-x,y,-z
1/2+x,1/2+y,z
1/2-x,1/2-y,z
1/2+x,1/2-y,-z
1/2-x,1/2+y,-z
loop_
_atom_site_type_symbol
_atom_site_label
_atom_site_fract_x
_atom_site_fract_y
_atom_site_fract_z
Si Si1 0.027568 0.379567 0.232987
Si Si2 0.633349 0.625842 0.578962
Si Si3 0.404324 0.278216 0.036250
Si Si4 0.171498 0.400988 0.104395
Si Si5 0.338953 0.527541 0.834985
Si Si6 0.392670 0.016332 0.656724
Si Si7 0.559097 0.736344 0.717498
Si Si8 0.798294 0.771100 0.358672
O O1 0.058759 0.307914 0.116048
O O2 0.063027 0.430939 0.352218
O O3 0.000000 0.500000 0.179719
O O4 0.991272 0.285129 0.291878
O O5 0.639393 0.500000 0.500000
O O6 0.651532 0.594496 0.744663
O O7 0.580154 0.651191 0.593729
O O8 0.661768 0.720690 0.481845
O O9 0.359156 0.196624 0.017010
O O10 0.384400 0.389555 0.134049
O O11 0.429152 0.312404 0.882685
O O12 0.135807 0.474037 0.203759
O O13 0.198479 0.329261 0.230300
O O14 0.194593 0.500000 0.000000
O O15 0.305383 0.607477 0.736183
O O16 0.321703 0.500000 0.000000
O O17 0.367902 0.000000 0.500000
O O18 0.409630 0.147280 0.693411
O O19 0.750000 0.750000 0.433702
#
# Coordination Sequence:
#
# PCOD9322848 Si02
#       8
#     8   8   8   8   8   8   8   8
#     4   9  21  33  55  91 132 169 203 264 326 363
#     4  10  22  42  65  87 118 171 210 252 320 381
#     4  10  19  34  59  90 121 160 212 261 301 372
#     4  10  19  36  61  90 123 161 198 245 316 382
#     4  10  20  40  68  88 119 167 220 259 310 377
#     4  10  20  34  53  87 127 164 204 252 312 385
#     4  11  19  33  59  86 117 162 215 253 306 373
#     4  10  23  42  64  93 127 154 199 262 327 396
#
# _framework density 21.614826999999998
#
# number of rings (size 3 to 8) (size 9 to 14) (size 15 to 20)
#    0.000    2.000    2.500    1.125    0.000    5.250 
#    0.000    6.875    0.000    5.250    0.000    0.000 
#    0.000    0.000    0.000    0.000    0.000    0.000 
#
# Total GULP energy -178273.664859 kJ/mol
# GULP energy per Si atom -5571.052027 kJ/mol
# Density = 2.156563 g / cm^3
# Si number density = 21.614827 Si / 1000 Ang^3
#
#
#
# Elastic Constant Matrix: (Units=GPa)
#
#
# Indices 1 2 3 4 5 6 
#
# 1 60.5136 20.4051 15.7010 0.0000 0.0000 0.0000
# 2 20.4051 57.1241 19.5403 0.0000 0.0000 0.0000
# 3 15.7010 19.5403 82.0233 0.0000 0.0000 0.0000
# 4 0.0000 0.0000 0.0000 20.2166 0.0000 0.0000
# 5 0.0000 0.0000 0.0000 0.0000 12.2459 0.0000
# 6 0.0000 0.0000 0.0000 0.0000 0.0000 12.4604
#
#
#
# Elastic Compliance Matrix: (Units=1/GPa)
#
#
# Indices 1 2 3 4 5 6 
#
# 1 0.019152 -0.006083 -0.002217 0.000000 0.000000 0.000000
# 2 -0.006083 0.020991 -0.003836 0.000000 0.000000 0.000000
# 3 -0.002217 -0.003836 0.013530 0.000000 0.000000 0.000000
# 4 0.000000 0.000000 0.000000 0.049464 0.000000 0.000000
# 5 0.000000 0.000000 0.000000 0.000000 0.081660 0.000000
# 6 0.000000 0.000000 0.000000 0.000000 0.000000 0.080254
#
#
# Mechanical properties :
#
#
# Convention : Reuss Voigt Hill
#
# Bulk Modulus (GPa) = 34.01310 34.55044 34.28177
# Shear Modulus (GPa) = 16.71555 18.58555 17.65055
#
# Velocity S-wave (km/s) = 2.78391 2.93550 2.86071
# Velocity P-wave (km/s) = 5.10918 5.24489 5.17748
#
# Compressibility (1/GPa) = 0.02940044
#
# Stress axis : x y z
#
# Youngs Moduli (GPa) = 52.21521 47.63998 73.91024
#
# Poissons Ratio (x) = 0.28978 0.16385
# Poissons Ratio (y) = 0.31761 0.28354
# Poissons Ratio (z) = 0.11576 0.18276
#
# Static dielectric constant tensor:
#      x y z
#    x 1.801290 0.000000 0.000000 
#    y 0.000000 1.859040 0.000000 
#    z 0.000000 0.000000 1.835230 
# 
# From -- ./inp_files/19836.got.cif
#   From: 2010.05.17/outbox.cif.g08.bks.cpg/sg21_10_cif.got.tgz:19836.got - 2010.06.03 23:14:55.
