data_PCOD9322930
_publ_section_title
;
Structure prediction by ZEFSAII (Michael W. Deem and Ramdas Pophale) SiO2 
 PCOD9322930
Probable space group: C 2 2 2
;
_chemical_formula_sum "Si O2"
_cell_formula_units_Z 48
_cell_length_a 14.518816
_cell_length_b 8.677365
_cell_length_c 15.625417
_cell_angle_alpha 90.000000
_cell_angle_beta 90.000000
_cell_angle_gamma 90.000000
_cell_volume 1968.569189
_symmetry_space_group_name_H-M "C 2 2 2"
_symmetry_group_IT_number 21
_symmetry_cell_setting 'orthorhombic'
loop_
_space_group_symop_operation_xyz
x,y,z
-x,-y,z
x,-y,-z
-x,y,-z
1/2+x,1/2+y,z
1/2-x,1/2-y,z
1/2+x,1/2-y,-z
1/2-x,1/2+y,-z
loop_
_atom_site_type_symbol
_atom_site_label
_atom_site_fract_x
_atom_site_fract_y
_atom_site_fract_z
Si Si1 0.349340 0.822039 0.639954
Si Si2 0.612771 0.175593 0.990781
Si Si3 0.386852 0.326559 0.835746
Si Si4 0.353346 0.679726 0.471060
Si Si5 0.894344 0.835139 0.182938
Si Si6 0.412071 0.123781 0.677281
O O1 0.250000 0.750000 0.636411
O O2 0.396371 0.770130 0.552318
O O3 0.389102 0.755084 0.728136
O O4 0.338251 0.003861 0.642170
O O5 0.641367 0.243355 0.899390
O O6 0.500000 0.173888 0.000000
O O7 0.644748 0.278701 0.070312
O O8 0.643456 0.000000 0.000000
O O9 0.350912 0.494916 0.809475
O O10 0.497319 0.346403 0.836860
O O11 0.378539 0.188074 0.768219
O O12 0.352659 0.500000 0.500000
O O13 0.250000 0.750000 0.460187
O O14 0.409640 0.729216 0.385947
O O15 0.500000 0.000000 0.678976
#
# Coordination Sequence:
#
# PCOD9322930 Si02
#       6
#     8   8   8   8   8   8
#     4  11  23  41  64  88 124 169 211 265 328 395
#     4   9  17  29  55  86 121 161 204 255 316 380
#     4  10  20  34  58  90 126 162 201 270 325 376
#     4  11  24  45  69  94 127 176 227 271 336 413
#     4  10  19  36  57  90 126 159 214 260 317 382
#     4  12  24  42  67  98 133 169 223 281 333 389
#
# _framework density 24.383191
#
# number of rings (size 3 to 8) (size 9 to 14) (size 15 to 20)
#    0.000    1.500    1.667    5.000    2.333    3.333 
#    0.000    0.833    0.000    7.000    0.000    0.000 
#    0.000    0.000    0.000    0.000    0.000    0.000 
#
# Total GULP energy -133995.429572 kJ/mol
# GULP energy per Si atom -5583.142899 kJ/mol
# Density = 2.432769 g / cm^3
# Si number density = 24.383191 Si / 1000 Ang^3
#
#
#
# Elastic Constant Matrix: (Units=GPa)
#
#
# Indices 1 2 3 4 5 6 
#
# 1 44.5248 -17.4641 -23.1384 0.0000 0.0000 0.0000
# 2 -17.4641 143.3272 20.8140 0.0000 0.0000 0.0000
# 3 -23.1384 20.8140 137.9540 0.0000 0.0000 0.0000
# 4 0.0000 0.0000 0.0000 62.9568 0.0000 0.0000
# 5 0.0000 0.0000 0.0000 0.0000 55.6143 0.0000
# 6 0.0000 0.0000 0.0000 0.0000 0.0000 17.0846
#
#
#
# Elastic Compliance Matrix: (Units=1/GPa)
#
#
# Indices 1 2 3 4 5 6 
#
# 1 0.025477 0.002539 0.003890 0.000000 0.000000 0.000000
# 2 0.002539 0.007386 -0.000689 0.000000 0.000000 0.000000
# 3 0.003890 -0.000689 0.008005 0.000000 0.000000 0.000000
# 4 0.000000 0.000000 0.000000 0.015884 0.000000 0.000000
# 5 0.000000 0.000000 0.000000 0.000000 0.017981 0.000000
# 6 0.000000 0.000000 0.000000 0.000000 0.000000 0.058532
#
#
# Mechanical properties :
#
#
# Convention : Reuss Voigt Hill
#
# Bulk Modulus (GPa) = 19.10208 31.80322 25.45265
# Shear Modulus (GPa) = 35.91074 50.17077 43.04075
#
# Velocity S-wave (km/s) = 3.84183 4.54099 4.20596
# Velocity P-wave (km/s) = 5.24697 6.36911 5.83508
#
# Compressibility (1/GPa) = 0.05235031
#
# Stress axis : x y z
#
# Youngs Moduli (GPa) = 39.25115 135.38308 124.91996
#
# Poissons Ratio (x) = -0.34379 -0.48594
# Poissons Ratio (y) = -0.09967 0.08601
# Poissons Ratio (z) = -0.15269 0.09321
#
# Static dielectric constant tensor:
#      x y z
#    x 2.094390 0.000000 0.000000 
#    y 0.000000 1.756130 0.000000 
#    z 0.000000 0.000000 1.968180 
# 
# From -- ./inp_files/32842.got.cif
#   From: 2010.05.17/outbox.cif.g08.bks.cpg/sg21_17_cif.got.tgz:32842.got - 2010.06.03 23:14:55.
