data_PCOD9322980
_publ_section_title
;
Structure prediction by ZEFSAII (Michael W. Deem and Ramdas Pophale) SiO2 
 PCOD9322980
Probable space group: C 2 2 2
;
_chemical_formula_sum "Si O2"
_cell_formula_units_Z 54
_cell_length_a 20.693724
_cell_length_b 24.041659
_cell_length_c 4.929463
_cell_angle_alpha 90.000000
_cell_angle_beta 90.000000
_cell_angle_gamma 90.000000
_cell_volume 2452.464314
_symmetry_space_group_name_H-M "C 2 2 2"
_symmetry_group_IT_number 21
_symmetry_cell_setting 'orthorhombic'
loop_
_space_group_symop_operation_xyz
x,y,z
-x,-y,z
x,-y,-z
-x,y,-z
1/2+x,1/2+y,z
1/2-x,1/2-y,z
1/2+x,1/2-y,-z
1/2-x,1/2+y,-z
loop_
_atom_site_type_symbol
_atom_site_label
_atom_site_fract_x
_atom_site_fract_y
_atom_site_fract_z
Si Si1 0.370139 0.853062 0.772835
Si Si2 0.500000 0.000000 0.500000
Si Si3 0.721689 0.000000 0.500000
Si Si4 0.388491 0.268008 0.107358
Si Si5 0.190066 0.894137 0.540644
Si Si6 0.270402 0.669376 0.026993
Si Si7 0.888088 0.571819 0.743061
Si Si8 0.929372 0.161828 0.389352
O O1 0.376885 0.876584 0.468476
O O2 0.406710 0.796310 0.851914
O O3 0.297399 0.839085 0.875444
O O4 0.391974 0.903855 0.958925
O O5 0.452531 0.039197 0.669962
O O6 0.769788 0.049851 0.571202
O O7 0.672177 0.029558 0.291521
O O8 0.313992 0.275179 0.001276
O O9 0.428251 0.305392 0.894675
O O10 0.396848 0.294094 0.403602
O O11 0.228902 0.852540 0.334491
O O12 0.118629 0.890973 0.410117
O O13 0.185478 0.871740 0.845235
O O14 0.000000 0.149250 0.500000
#
# Coordination Sequence:
#
# PCOD9322980 Si02
#       8
#     8   2   4   8   8   8   8   8
#     4  12  21  41  59 101 112 161 194 256 292 368
#     4  10  28  54  56  90 118 178 202 270 290 348
#     4  11  20  41  61  94 109 156 192 256 293 356
#     4  10  22  36  63  88 125 157 194 241 303 352
#     4  10  21  34  62  88 118 154 201 242 299 351
#     4  10  19  37  57  92 124 150 187 246 304 366
#     4  11  26  40  69  80 127 154 209 242 313 340
#     4  10  21  41  58  86 121 168 195 238 293 369
#
# _framework density 22.018668000000002
#
# number of rings (size 3 to 8) (size 9 to 14) (size 15 to 20)
#    0.000    1.481    2.963    1.778    0.000    5.333 
#    8.000    6.296    0.000    0.000    0.000    6.222 
#    0.000    0.000    0.000    0.000    0.000    0.000 
#
# Total GULP energy -150620.988621 kJ/mol
# GULP energy per Si atom -5578.555134 kJ/mol
# Density = 2.196855 g / cm^3
# Si number density = 22.018668 Si / 1000 Ang^3
#
#
#
# Elastic Constant Matrix: (Units=GPa)
#
#
# Indices 1 2 3 4 5 6 
#
# 1 107.8111 17.4909 -6.6455 0.0000 0.0000 0.0000
# 2 17.4909 93.3514 5.3367 0.0000 0.0000 0.0000
# 3 -6.6455 5.3367 91.3343 0.0000 0.0000 0.0000
# 4 0.0000 0.0000 0.0000 16.2653 0.0000 0.0000
# 5 0.0000 0.0000 0.0000 0.0000 13.0629 0.0000
# 6 0.0000 0.0000 0.0000 0.0000 0.0000 16.9408
#
#
#
# Elastic Compliance Matrix: (Units=1/GPa)
#
#
# Indices 1 2 3 4 5 6 
#
# 1 0.009625 -0.001850 0.000808 0.000000 0.000000 0.000000
# 2 -0.001850 0.011104 -0.000783 0.000000 0.000000 0.000000
# 3 0.000808 -0.000783 0.011053 0.000000 0.000000 0.000000
# 4 0.000000 0.000000 0.000000 0.061481 0.000000 0.000000
# 5 0.000000 0.000000 0.000000 0.000000 0.076553 0.000000
# 6 0.000000 0.000000 0.000000 0.000000 0.000000 0.059029
#
#
# Mechanical properties :
#
#
# Convention : Reuss Voigt Hill
#
# Bulk Modulus (GPa) = 35.54536 36.09568 35.82052
# Shear Modulus (GPa) = 20.67210 27.67477 24.17343
#
# Velocity S-wave (km/s) = 3.06738 3.54909 3.31699
# Velocity P-wave (km/s) = 5.35942 5.76399 5.56538
#
# Compressibility (1/GPa) = 0.02813306
#
# Stress axis : x y z
#
# Youngs Moduli (GPa) = 103.89180 90.06112 90.47007
#
# Poissons Ratio (x) = 0.16659 -0.07314
# Poissons Ratio (y) = 0.19217 0.07087
# Poissons Ratio (z) = -0.08399 0.07055
#
# Static dielectric constant tensor:
#      x y z
#    x 1.901260 0.000000 0.000000 
#    y 0.000000 1.863860 0.000000 
#    z 0.000000 0.000000 1.772620 
# 
# From -- ./inp_files/6097.got.cif
#   From: 2010.05.17/outbox.cif.g08.bks.cpg/sg21_4_cif.got.tgz:6097.got - 2010.06.03 23:14:55.
