data_PCOD9322268
_publ_section_title
;
Structure prediction by ZEFSAII (Michael W. Deem and Ramdas Pophale) SiO2 
 PCOD9322268
Probable space group: C 2 2 2
;
_chemical_formula_sum "Si O2"
_cell_formula_units_Z 52
_cell_length_a 12.566988
_cell_length_b 13.781104
_cell_length_c 12.639118
_cell_angle_alpha 90.000000
_cell_angle_beta 90.000000
_cell_angle_gamma 90.000000
_cell_volume 2188.930532
_symmetry_space_group_name_H-M "C 2 2 2"
_symmetry_group_IT_number 21
_symmetry_cell_setting 'orthorhombic'
loop_
_space_group_symop_operation_xyz
x,y,z
-x,-y,z
x,-y,-z
-x,y,-z
1/2+x,1/2+y,z
1/2-x,1/2-y,z
1/2+x,1/2-y,-z
1/2-x,1/2+y,-z
loop_
_atom_site_type_symbol
_atom_site_label
_atom_site_fract_x
_atom_site_fract_y
_atom_site_fract_z
Si Si1 0.282873 0.635735 0.361340
Si Si2 0.239196 0.132133 0.403599
Si Si3 0.034300 0.373584 0.379365
Si Si4 0.484871 0.348527 0.320674
Si Si5 0.914102 0.813057 0.907289
Si Si6 0.500000 0.000000 0.188704
Si Si7 0.804451 0.602006 0.867151
O O1 0.250000 0.750000 0.354051
O O2 0.242381 0.604625 0.474640
O O3 0.407900 0.614189 0.373299
O O4 0.241134 0.595101 0.252270
O O5 0.250000 0.250000 0.399106
O O6 0.345884 0.094128 0.352483
O O7 0.128257 0.105027 0.349635
O O8 0.023891 0.259066 0.368908
O O9 0.979356 0.414835 0.275093
O O10 0.000000 0.397931 0.500000
O O11 0.519308 0.342754 0.198081
O O12 0.866296 0.704467 0.888324
O O13 0.810148 0.881967 0.926971
O O14 0.000000 0.812719 0.000000
O O15 0.608162 0.015365 0.120266
#
# Coordination Sequence:
#
# PCOD9322268 Si02
#       7
#     8   8   8   8   8   4   8
#     4  10  14  28  52  77 119 161 202 246 309 373
#     4   9  18  26  45  81 116 160 209 256 303 359
#     4  11  20  31  50  83 128 171 206 242 303 378
#     4  10  17  32  53  83 118 155 213 275 313 351
#     4  10  20  39  63  88 117 161 224 278 327 371
#     4  12  21  36  59  88 134 164 199 236 327 398
#     4  10  20  37  60  92 122 161 201 266 328 382
#
# _framework density 23.755894000000001
#
# number of rings (size 3 to 8) (size 9 to 14) (size 15 to 20)
#    0.000    1.846    4.615    4.385    0.000    0.000 
#    8.308    0.385    0.000    3.692    0.000    7.538 
#    0.000    0.000    0.000    0.000    0.000    0.000 
#
# Total GULP energy -144824.525843 kJ/mol
# GULP energy per Si atom -5570.174071 kJ/mol
# Density = 2.370182 g / cm^3
# Si number density = 23.755894 Si / 1000 Ang^3
#
#
#
# Elastic Constant Matrix: (Units=GPa)
#
#
# Indices 1 2 3 4 5 6 
#
# 1 211.0187 22.8966 40.7771 0.0000 0.0000 0.0000
# 2 22.8966 81.5860 8.3738 0.0000 0.0000 0.0000
# 3 40.7771 8.3738 75.4370 0.0000 0.0000 0.0000
# 4 0.0000 0.0000 0.0000 -27.3278 0.0000 0.0000
# 5 0.0000 0.0000 0.0000 0.0000 42.8718 0.0000
# 6 0.0000 0.0000 0.0000 0.0000 0.0000 8.3746
#
#
#
# Elastic Compliance Matrix: (Units=1/GPa)
#
#
# Indices 1 2 3 4 5 6 
#
# 1 0.005411 -0.001233 -0.002788 0.000000 0.000000 0.000000
# 2 -0.001233 0.012679 -0.000741 0.000000 0.000000 0.000000
# 3 -0.002788 -0.000741 0.014846 0.000000 0.000000 0.000000
# 4 0.000000 0.000000 0.000000 -0.036593 0.000000 0.000000
# 5 0.000000 0.000000 0.000000 0.000000 0.023325 0.000000
# 6 0.000000 0.000000 0.000000 0.000000 0.000000 0.119409
#
#
# Mechanical properties :
#
#
# Convention : Reuss Voigt Hill
#
# Bulk Modulus (GPa) = 42.71319 56.90408 49.80863
# Shear Modulus (GPa) = 31.96825 24.51668 28.24247
#
# Velocity S-wave (km/s) = 3.67236 3.21600 3.45173
# Velocity P-wave (km/s) = 6.00005 6.14784 6.07439
#
# Compressibility (1/GPa) = 0.02341197
#
# Stress axis : x y z
#
# Youngs Moduli (GPa) = 184.79294 78.87075 67.36014
#
# Poissons Ratio (x) = 0.09721 0.18782
# Poissons Ratio (y) = 0.22776 0.04993
# Poissons Ratio (z) = 0.51526 0.05846
#
# Static dielectric constant tensor:
#      x y z
#    x 2.069880 0.000000 0.000000 
#    y 0.000000 2.033620 0.000000 
#    z 0.000000 0.000000 1.877540 
# 
# From -- ./inp_files/31698.got.cif
#   From: 2010.05.17/outbox.cif.g08.bks.cpg/sg21_16_cif.got.tgz:31698.got - 2010.06.03 23:14:55.
