data_PCOD9322879
_publ_section_title
;
Structure prediction by ZEFSAII (Michael W. Deem and Ramdas Pophale) SiO2 
 PCOD9322879
Probable space group: C 2 2 2
;
_chemical_formula_sum "Si O2"
_cell_formula_units_Z 40
_cell_length_a 7.546142
_cell_length_b 18.782039
_cell_length_c 11.550535
_cell_angle_alpha 90.000000
_cell_angle_beta 90.000000
_cell_angle_gamma 90.000000
_cell_volume 1637.079657
_symmetry_space_group_name_H-M "C 2 2 2"
_symmetry_group_IT_number 21
_symmetry_cell_setting 'orthorhombic'
loop_
_space_group_symop_operation_xyz
x,y,z
-x,-y,z
x,-y,-z
-x,y,-z
1/2+x,1/2+y,z
1/2-x,1/2-y,z
1/2+x,1/2-y,-z
1/2-x,1/2+y,-z
loop_
_atom_site_type_symbol
_atom_site_label
_atom_site_fract_x
_atom_site_fract_y
_atom_site_fract_z
Si Si1 0.120582 0.160124 0.236035
Si Si2 0.934587 0.292356 0.126135
Si Si3 0.706110 0.524798 0.122636
Si Si4 0.270775 0.093864 0.710828
Si Si5 0.289598 0.668511 0.510826
O O1 0.206556 0.109007 0.140617
O O2 0.237909 0.161558 0.352249
O O3 0.065432 0.236239 0.187017
O O4 0.931308 0.122135 0.266715
O O5 0.750000 0.250000 0.111911
O O6 0.893674 0.357685 0.209345
O O7 0.000000 0.312451 0.000000
O O8 0.500000 0.500000 0.118409
O O9 0.780801 0.484976 0.236337
O O10 0.784484 0.500000 0.000000
O O11 0.301363 0.112994 0.576359
O O12 0.500000 0.659273 0.500000
O O13 0.250000 0.750000 0.473231
#
# Coordination Sequence:
#
# PCOD9322879 Si02
#       5
#     8   8   8   8   8
#     4   9  19  32  52  87 114 153 202 250 298 361
#     4  10  21  35  58  92 126 157 207 260 313 364
#     4   9  18  31  53  80 119 154 195 249 313 367
#     4   9  18  34  54  82 118 159 189 250 316 356
#     4  10  19  35  56  83 119 151 201 256 308 364
#
# _framework density 24.433752999999999
#
# number of rings (size 3 to 8) (size 9 to 14) (size 15 to 20)
#    0.000    2.600    0.000    3.000    8.400    1.600 
#    0.000    4.000    0.000    0.600    0.000    1.400 
#    0.000    0.000    0.000    0.000    0.000    0.000 
#
# Total GULP energy -111880.453793 kJ/mol
# GULP energy per Si atom -5594.022690 kJ/mol
# Density = 2.437814 g / cm^3
# Si number density = 24.433753 Si / 1000 Ang^3
#
#
#
# Elastic Constant Matrix: (Units=GPa)
#
#
# Indices 1 2 3 4 5 6 
#
# 1 84.9386 3.8527 33.5289 0.0000 0.0000 0.0000
# 2 3.8527 90.6915 45.2883 0.0000 0.0000 0.0000
# 3 33.5289 45.2883 173.6100 0.0000 0.0000 0.0000
# 4 0.0000 0.0000 0.0000 27.1265 0.0000 0.0000
# 5 0.0000 0.0000 0.0000 0.0000 74.2802 0.0000
# 6 0.0000 0.0000 0.0000 0.0000 0.0000 7.2569
#
#
#
# Elastic Compliance Matrix: (Units=1/GPa)
#
#
# Indices 1 2 3 4 5 6 
#
# 1 0.012794 0.000794 -0.002678 0.000000 0.000000 0.000000
# 2 0.000794 0.012727 -0.003473 0.000000 0.000000 0.000000
# 3 -0.002678 -0.003473 0.007183 0.000000 0.000000 0.000000
# 4 0.000000 0.000000 0.000000 0.036864 0.000000 0.000000
# 5 0.000000 0.000000 0.000000 0.000000 0.013463 0.000000
# 6 0.000000 0.000000 0.000000 0.000000 0.000000 0.137801
#
#
# Mechanical properties :
#
#
# Convention : Reuss Voigt Hill
#
# Bulk Modulus (GPa) = 45.47595 57.17555 51.32575
# Shear Modulus (GPa) = 20.93124 39.50407 30.21765
#
# Velocity S-wave (km/s) = 2.93004 4.02529 3.52051
# Velocity P-wave (km/s) = 5.48627 6.71230 6.13001
#
# Compressibility (1/GPa) = 0.02198965
#
# Stress axis : x y z
#
# Youngs Moduli (GPa) = 78.15966 78.57228 139.21188
#
# Poissons Ratio (x) = -0.06237 0.37281
# Poissons Ratio (y) = -0.06204 0.48353
# Poissons Ratio (z) = 0.20931 0.27291
#
# Static dielectric constant tensor:
#      x y z
#    x 2.011460 0.000000 0.000000 
#    y 0.000000 1.859660 0.000000 
#    z 0.000000 0.000000 1.948690 
# 
# From -- ./inp_files/22306.got.cif
#   From: 2010.05.17/outbox.cif.g08.bks.cpg/sg21_12_cif.got.tgz:22306.got - 2010.06.03 23:14:55.
