data_PCOD9322634
_publ_section_title
;
Structure prediction by ZEFSAII (Michael W. Deem and Ramdas Pophale) SiO2 
 PCOD9322634
Probable space group: C 2 2 2
;
_chemical_formula_sum "Si O2"
_cell_formula_units_Z 60
_cell_length_a 16.533344
_cell_length_b 16.673503
_cell_length_c 9.360326
_cell_angle_alpha 90.000000
_cell_angle_beta 90.000000
_cell_angle_gamma 90.000000
_cell_volume 2580.349469
_symmetry_space_group_name_H-M "C 2 2 2"
_symmetry_group_IT_number 21
_symmetry_cell_setting 'orthorhombic'
loop_
_space_group_symop_operation_xyz
x,y,z
-x,-y,z
x,-y,-z
-x,y,-z
1/2+x,1/2+y,z
1/2-x,1/2-y,z
1/2+x,1/2-y,-z
1/2-x,1/2+y,-z
loop_
_atom_site_type_symbol
_atom_site_label
_atom_site_fract_x
_atom_site_fract_y
_atom_site_fract_z
Si Si1 0.160528 0.932012 0.103634
Si Si2 0.094217 0.526702 0.733597
Si Si3 0.186501 0.360563 0.779785
Si Si4 0.900264 0.833065 0.136631
Si Si5 0.583365 0.838553 0.044111
Si Si6 0.250000 0.250000 0.237994
Si Si7 0.197275 0.370710 0.454553
Si Si8 0.371454 0.451726 0.366904
O O1 0.223832 0.867932 0.160205
O O2 0.136105 0.982290 0.242146
O O3 0.094084 0.888489 0.004046
O O4 0.198546 0.000000 0.000000
O O5 0.147599 0.449303 0.767845
O O6 0.117773 0.593606 0.852599
O O7 0.125442 0.569367 0.588898
O O8 0.000000 0.500000 0.729844
O O9 0.190056 0.336696 0.614218
O O10 0.134549 0.318688 0.903113
O O11 0.937782 0.745531 0.120134
O O12 0.804005 0.810844 0.148455
O O13 0.917748 0.880371 0.283214
O O14 0.500000 0.877934 0.000000
O O15 0.192713 0.297599 0.344857
O O16 0.283848 0.415542 0.421527
O O17 0.406569 0.500000 0.500000
#
# Coordination Sequence:
#
# PCOD9322634 Si02
#       8
#     8   8   8   8   8   4   8   8
#     4  10  19  33  59  89 118 144 195 249 307 371
#     4  12  23  41  60  84 122 180 222 252 299 361
#     4  12  23  35  58  90 123 160 215 253 292 368
#     4  10  22  37  60  86 120 164 191 258 314 374
#     4  12  25  43  58  84 123 170 217 256 303 359
#     4  10  20  38  58  86 130 160 202 246 326 370
#     4  11  22  37  59  90 127 168 204 258 311 365
#     4  10  18  37  62  95 123 151 190 253 325 382
#
# _framework density 23.252662999999998
#
# number of rings (size 3 to 8) (size 9 to 14) (size 15 to 20)
#    0.000    1.067    5.333    2.400    1.867    2.133 
#    0.000    0.000    0.000    3.600    0.000    0.933 
#    0.000    0.000    0.000    0.000    0.000    0.000 
#
# Total GULP energy -167442.142695 kJ/mol
# GULP energy per Si atom -5581.404756 kJ/mol
# Density = 2.319974 g / cm^3
# Si number density = 23.252663 Si / 1000 Ang^3
#
#
#
# Elastic Constant Matrix: (Units=GPa)
#
#
# Indices 1 2 3 4 5 6 
#
# 1 44.2886 0.9943 17.5681 0.0000 0.0000 0.0000
# 2 0.9943 63.8954 29.7252 0.0000 0.0000 0.0000
# 3 17.5681 29.7252 149.1994 0.0000 0.0000 0.0000
# 4 0.0000 0.0000 0.0000 32.6618 0.0000 0.0000
# 5 0.0000 0.0000 0.0000 0.0000 5.5052 0.0000
# 6 0.0000 0.0000 0.0000 0.0000 0.0000 24.9332
#
#
#
# Elastic Compliance Matrix: (Units=1/GPa)
#
#
# Indices 1 2 3 4 5 6 
#
# 1 0.023746 0.001026 -0.003001 0.000000 0.000000 0.000000
# 2 0.001026 0.017294 -0.003566 0.000000 0.000000 0.000000
# 3 -0.003001 -0.003566 0.007766 0.000000 0.000000 0.000000
# 4 0.000000 0.000000 0.000000 0.030617 0.000000 0.000000
# 5 0.000000 0.000000 0.000000 0.000000 0.181645 0.000000
# 6 0.000000 0.000000 0.000000 0.000000 0.000000 0.040107
#
#
# Mechanical properties :
#
#
# Convention : Reuss Voigt Hill
#
# Bulk Modulus (GPa) = 26.50739 39.32875 32.91807
# Shear Modulus (GPa) = 15.39261 26.55978 20.97619
#
# Velocity S-wave (km/s) = 2.57567 3.38335 3.00675
# Velocity P-wave (km/s) = 4.50221 5.67566 5.12265
#
# Compressibility (1/GPa) = 0.03772534
#
# Stress axis : x y z
#
# Youngs Moduli (GPa) = 42.11170 57.82452 128.76184
#
# Poissons Ratio (x) = -0.05935 0.38636
# Poissons Ratio (y) = -0.04322 0.45920
# Poissons Ratio (z) = 0.12636 0.20622
#
# Static dielectric constant tensor:
#      x y z
#    x 1.881840 0.000000 0.000000 
#    y 0.000000 1.881870 0.000000 
#    z 0.000000 0.000000 1.927640 
# 
# From -- ./inp_files/16689.got.cif
#   From: 2010.05.17/outbox.cif.g08.bks.cpg/sg21_9_cif.got.tgz:16689.got - 2010.06.03 23:14:55.
