data_PCOD9322146
_publ_section_title
;
Structure prediction by ZEFSAII (Michael W. Deem and Ramdas Pophale) SiO2 
 PCOD9322146
Probable space group: C 2 2 21
;
_chemical_formula_sum "Si O2"
_cell_formula_units_Z 32
_cell_length_a 18.599103
_cell_length_b 4.682534
_cell_length_c 14.052640
_cell_angle_alpha 90.000000
_cell_angle_beta 90.000000
_cell_angle_gamma 90.000000
_cell_volume 1223.857517
_symmetry_space_group_name_H-M "C 2 2 21"
_symmetry_group_IT_number 20
_symmetry_cell_setting 'orthorhombic'
loop_
_space_group_symop_operation_xyz
x,y,z
-x,-y,1/2+z
x,-y,-z
-x,y,1/2-z
1/2+x,1/2+y,z
1/2-x,1/2-y,1/2+z
1/2+x,1/2-y,-z
1/2-x,1/2+y,1/2-z
loop_
_atom_site_type_symbol
_atom_site_label
_atom_site_fract_x
_atom_site_fract_y
_atom_site_fract_z
Si Si1 0.662258 0.793144 0.239401
Si Si2 0.215127 0.884660 0.399824
Si Si3 0.003141 0.000000 0.000000
Si Si4 0.431336 0.303116 0.310593
Si Si5 0.097980 0.500000 0.500000
O O1 0.724010 0.730502 0.161598
O O2 0.689498 0.653663 0.337080
O O3 0.590234 0.621910 0.216770
O O4 0.637495 0.115817 0.219420
O O5 0.148834 0.679823 0.428940
O O6 0.244648 0.000000 0.500000
O O7 0.952204 0.249771 0.043540
O O8 0.048632 0.831314 0.078860
O O9 0.500000 0.211334 0.250000
#
# Coordination Sequence:
#
# PCOD9322146 Si02
#       5
#     8   8   4   8   4
#     4  12  30  52  81 125 164 217 283 338 432 493
#     4  12  31  51  89 122 171 221 277 360 421 503
#     4  12  28  49  84 121 170 226 282 344 426 496
#     4  12  29  50  82 118 171 220 274 346 407 511
#     4  12  28  51  84 123 168 222 284 340 428 502
#
# _framework density 26.146830999999999
#
# number of rings (size 3 to 8) (size 9 to 14) (size 15 to 20)
#    0.000    0.000    1.250    5.250   17.500    0.000 
#    0.000    0.000    0.000    0.000    0.000    0.000 
#    0.000    0.000    0.000    0.000    0.000    0.000 
#
# Total GULP energy -89668.718580 kJ/mol
# GULP energy per Si atom -5604.294911 kJ/mol
# Density = 2.608732 g / cm^3
# Si number density = 26.146831 Si / 1000 Ang^3
#
#
#
# Elastic Constant Matrix: (Units=GPa)
#
#
# Indices 1 2 3 4 5 6 
#
# 1 105.9872 27.7715 62.7613 0.0000 0.0000 0.0000
# 2 27.7715 131.3605 42.7300 0.0000 0.0000 0.0000
# 3 62.7613 42.7300 212.2326 0.0000 0.0000 0.0000
# 4 0.0000 0.0000 0.0000 47.6888 0.0000 0.0000
# 5 0.0000 0.0000 0.0000 0.0000 52.3185 0.0000
# 6 0.0000 0.0000 0.0000 0.0000 0.0000 49.7875
#
#
#
# Elastic Compliance Matrix: (Units=1/GPa)
#
#
# Indices 1 2 3 4 5 6 
#
# 1 0.011688 -0.001441 -0.003166 0.000000 0.000000 0.000000
# 2 -0.001441 0.008324 -0.001250 0.000000 0.000000 0.000000
# 3 -0.003166 -0.001250 0.005900 0.000000 0.000000 0.000000
# 4 0.000000 0.000000 0.000000 0.020969 0.000000 0.000000
# 5 0.000000 0.000000 0.000000 0.000000 0.019114 0.000000
# 6 0.000000 0.000000 0.000000 0.000000 0.000000 0.020085
#
#
# Mechanical properties :
#
#
# Convention : Reuss Voigt Hill
#
# Bulk Modulus (GPa) = 70.43581 79.56733 75.00157
# Shear Modulus (GPa) = 48.76831 51.04678 49.90754
#
# Velocity S-wave (km/s) = 4.32345 4.42329 4.37365
# Velocity P-wave (km/s) = 7.20555 7.52226 7.36561
#
# Compressibility (1/GPa) = 0.01419732
#
# Stress axis : x y z
#
# Youngs Moduli (GPa) = 85.56131 120.13714 169.49993
#
# Poissons Ratio (x) = 0.17312 0.53665
# Poissons Ratio (y) = 0.12330 0.21183
# Poissons Ratio (z) = 0.27090 0.15014
#
# Static dielectric constant tensor:
#      x y z
#    x 1.962280 0.000000 0.000000 
#    y 0.000000 2.031640 0.000000 
#    z 0.000000 0.000000 2.141210 
# 
# From -- ./inp_files/21064.got.cif
#   From: 2010.05.17/outbox.cif.g08.bks.cpg/sg20_11_cif.got.tgz:21064.got - 2010.06.03 22:52:26.
