data_PCOD9322614
_publ_section_title
;
Structure prediction by ZEFSAII (Michael W. Deem and Ramdas Pophale) SiO2 
 PCOD9322614
Probable space group: C 2 2 2
;
_chemical_formula_sum "Si O2"
_cell_formula_units_Z 48
_cell_length_a 22.115531
_cell_length_b 11.338174
_cell_length_c 9.337658
_cell_angle_alpha 90.000000
_cell_angle_beta 90.000000
_cell_angle_gamma 90.000000
_cell_volume 2341.415302
_symmetry_space_group_name_H-M "C 2 2 2"
_symmetry_group_IT_number 21
_symmetry_cell_setting 'orthorhombic'
loop_
_space_group_symop_operation_xyz
x,y,z
-x,-y,z
x,-y,-z
-x,y,-z
1/2+x,1/2+y,z
1/2-x,1/2-y,z
1/2+x,1/2-y,-z
1/2-x,1/2+y,-z
loop_
_atom_site_type_symbol
_atom_site_label
_atom_site_fract_x
_atom_site_fract_y
_atom_site_fract_z
Si Si1 0.682342 0.209698 0.602493
Si Si2 0.572299 0.707999 0.012567
Si Si3 0.364262 0.936129 0.860530
Si Si4 0.445606 0.338981 0.695925
Si Si5 0.905183 0.404772 0.392084
Si Si6 0.412177 0.405347 0.296563
O O1 0.750000 0.250000 0.578434
O O2 0.678474 0.130409 0.746926
O O3 0.657424 0.134380 0.468880
O O4 0.635656 0.318235 0.629777
O O5 0.591825 0.834047 0.077300
O O6 0.597153 0.611539 0.124607
O O7 0.500000 0.699869 0.000000
O O8 0.587607 0.688197 0.847670
O O9 0.397780 0.032461 0.760973
O O10 0.337028 0.000000 0.000000
O O11 0.440282 0.216674 0.614909
O O12 0.413126 0.460099 0.651209
O O13 0.517402 0.365446 0.693207
O O14 0.932192 0.500000 0.500000
#
# Coordination Sequence:
#
# PCOD9322614 Si02
#       6
#     8   8   8   8   8   8
#     4  10  23  45  61  83 124 172 215 261 321 378
#     4   9  17  32  58  92 130 163 190 247 323 387
#     4  10  19  39  63  90 125 153 213 262 306 375
#     4  10  18  36  61  96 128 159 204 258 330 387
#     4  10  22  40  61  91 128 166 204 257 321 386
#     4   9  20  36  61  92 126 161 208 265 314 384
#
# _framework density 20.500420999999999
#
# number of rings (size 3 to 8) (size 9 to 14) (size 15 to 20)
#    0.000    2.333    1.667    0.500    0.000    3.667 
#   12.000   14.167    0.000    0.000    0.000    0.000 
#    0.000    0.000    0.000    0.000    0.000    0.000 
#
# Total GULP energy -133742.553896 kJ/mol
# GULP energy per Si atom -5572.606412 kJ/mol
# Density = 2.045376 g / cm^3
# Si number density = 20.500421 Si / 1000 Ang^3
#
#
#
# Elastic Constant Matrix: (Units=GPa)
#
#
# Indices 1 2 3 4 5 6 
#
# 1 49.7298 37.3934 10.8729 0.0000 0.0000 0.0000
# 2 37.3934 166.6468 53.7586 0.0000 0.0000 0.0000
# 3 10.8729 53.7586 102.4402 0.0000 0.0000 0.0000
# 4 0.0000 0.0000 0.0000 36.3366 0.0000 0.0000
# 5 0.0000 0.0000 0.0000 0.0000 11.7835 0.0000
# 6 0.0000 0.0000 0.0000 0.0000 0.0000 20.0707
#
#
#
# Elastic Compliance Matrix: (Units=1/GPa)
#
#
# Indices 1 2 3 4 5 6 
#
# 1 0.024200 -0.005539 0.000338 0.000000 0.000000 0.000000
# 2 -0.005539 0.008492 -0.003868 0.000000 0.000000 0.000000
# 3 0.000338 -0.003868 0.011756 0.000000 0.000000 0.000000
# 4 0.000000 0.000000 0.000000 0.027520 0.000000 0.000000
# 5 0.000000 0.000000 0.000000 0.000000 0.084865 0.000000
# 6 0.000000 0.000000 0.000000 0.000000 0.000000 0.049824
#
#
# Mechanical properties :
#
#
# Convention : Reuss Voigt Hill
#
# Bulk Modulus (GPa) = 38.00998 58.09629 48.05314
# Shear Modulus (GPa) = 21.40741 28.09095 24.74918
#
# Velocity S-wave (km/s) = 3.23498 3.70572 3.47832
# Velocity P-wave (km/s) = 5.70393 6.83450 6.29465
#
# Compressibility (1/GPa) = 0.02630888
#
# Stress axis : x y z
#
# Youngs Moduli (GPa) = 41.32255 117.76454 85.06392
#
# Poissons Ratio (x) = 0.65233 -0.02878
# Poissons Ratio (y) = 0.22890 0.32905
# Poissons Ratio (z) = -0.01398 0.45554
#
# Static dielectric constant tensor:
#      x y z
#    x 1.675840 0.000000 0.000000 
#    y 0.000000 1.766730 0.000000 
#    z 0.000000 0.000000 1.846450 
# 
# From -- ./inp_files/15342.got.cif
#   From: 2010.05.17/outbox.cif.g08.bks.cpg/sg21_8_cif.got.tgz:15342.got - 2010.06.03 23:14:55.
