data_PCOD9322491
_publ_section_title
;
Structure prediction by ZEFSAII (Michael W. Deem and Ramdas Pophale) SiO2 
 PCOD9322491
Probable space group: C 2 2 2
;
_chemical_formula_sum "Si O2"
_cell_formula_units_Z 36
_cell_length_a 20.195121
_cell_length_b 5.134180
_cell_length_c 18.997603
_cell_angle_alpha 90.000000
_cell_angle_beta 90.000000
_cell_angle_gamma 90.000000
_cell_volume 1969.773807
_symmetry_space_group_name_H-M "C 2 2 2"
_symmetry_group_IT_number 21
_symmetry_cell_setting 'orthorhombic'
loop_
_space_group_symop_operation_xyz
x,y,z
-x,-y,z
x,-y,-z
-x,y,-z
1/2+x,1/2+y,z
1/2-x,1/2-y,z
1/2+x,1/2-y,-z
1/2-x,1/2+y,-z
loop_
_atom_site_type_symbol
_atom_site_label
_atom_site_fract_x
_atom_site_fract_y
_atom_site_fract_z
Si Si1 0.857077 0.500000 0.500000
Si Si2 0.142092 0.908311 0.698562
Si Si3 0.202380 0.999373 0.846870
Si Si4 0.750000 0.750000 0.398457
Si Si5 0.925772 0.395460 0.360524
Si Si6 0.797663 0.000000 0.000000
O O1 0.807701 0.665459 0.451599
O O2 0.902776 0.366412 0.441696
O O3 0.211003 0.944708 0.654371
O O4 0.118422 0.615926 0.679449
O O5 0.155923 0.960478 0.780022
O O6 0.088527 0.116698 0.673124
O O7 0.250000 0.250000 0.838532
O O8 0.250000 0.750000 0.847334
O O9 0.167538 0.010174 0.923825
O O10 0.000000 0.500000 0.357429
O O11 0.750000 0.250000 0.999580
#
# Coordination Sequence:
#
# PCOD9322491 Si02
#       6
#     4   8   8   4   8   4
#     4  10  21  36  56  76 107 138 174 232 278 326
#     4  11  22  35  58  82 109 141 175 226 273 325
#     4  10  18  31  52  82 115 142 168 207 264 329
#     4  10  20  34  56  88 106 136 172 228 288 348
#     4  11  24  40  55  75 103 146 192 226 266 315
#     4   8  16  28  46  76 115 146 165 194 252 330
#
# _framework density 18.276212000000001
#
# number of rings (size 3 to 8) (size 9 to 14) (size 15 to 20)
#    0.000    1.778    1.111    3.667    3.111    2.667 
#    0.000    4.444    0.000    0.000    0.000    4.667 
#    0.000    0.000    0.000    0.000    0.000    0.000 
#
# Total GULP energy -100280.612774 kJ/mol
# GULP energy per Si atom -5571.145154 kJ/mol
# Density = 1.823461 g / cm^3
# Si number density = 18.276212 Si / 1000 Ang^3
#
#
#
# Elastic Constant Matrix: (Units=GPa)
#
#
# Indices 1 2 3 4 5 6 
#
# 1 59.0271 -1.8863 25.8459 0.0000 0.0000 0.0000
# 2 -1.8863 73.1819 -2.8437 0.0000 0.0000 0.0000
# 3 25.8459 -2.8437 169.6480 0.0000 0.0000 0.0000
# 4 0.0000 0.0000 0.0000 18.1355 0.0000 0.0000
# 5 0.0000 0.0000 0.0000 0.0000 28.2883 0.0000
# 6 0.0000 0.0000 0.0000 0.0000 0.0000 26.7145
#
#
#
# Elastic Compliance Matrix: (Units=1/GPa)
#
#
# Indices 1 2 3 4 5 6 
#
# 1 0.018162 0.000361 -0.002761 0.000000 0.000000 0.000000
# 2 0.000361 0.013681 0.000174 0.000000 0.000000 0.000000
# 3 -0.002761 0.000174 0.006318 0.000000 0.000000 0.000000
# 4 0.000000 0.000000 0.000000 0.055140 0.000000 0.000000
# 5 0.000000 0.000000 0.000000 0.000000 0.035350 0.000000
# 6 0.000000 0.000000 0.000000 0.000000 0.000000 0.037433
#
#
# Mechanical properties :
#
#
# Convention : Reuss Voigt Hill
#
# Bulk Modulus (GPa) = 29.66554 38.23208 33.94881
# Shear Modulus (GPa) = 27.50698 33.34372 30.42535
#
# Velocity S-wave (km/s) = 3.88373 4.27597 4.08456
# Velocity P-wave (km/s) = 6.03143 6.73372 6.39223
#
# Compressibility (1/GPa) = 0.03370915
#
# Stress axis : x y z
#
# Youngs Moduli (GPa) = 55.06057 73.09588 158.27536
#
# Poissons Ratio (x) = -0.02638 0.43698
# Poissons Ratio (y) = -0.01987 -0.02760
# Poissons Ratio (z) = 0.15202 -0.01274
#
# Static dielectric constant tensor:
#      x y z
#    x 1.631490 0.000000 0.000000 
#    y 0.000000 1.645890 0.000000 
#    z 0.000000 0.000000 1.685260 
# 
# From -- ./inp_files/34835.got.cif
#   From: 2010.05.17/outbox.cif.g08.bks.cpg/sg21_18_cif.got.tgz:34835.got - 2010.06.03 23:14:55.
