data_PCOD9322692
_publ_section_title
;
Structure prediction by ZEFSAII (Michael W. Deem and Ramdas Pophale) SiO2 
 PCOD9322692
Probable space group: C 2 2 2
;
_chemical_formula_sum "Si O2"
_cell_formula_units_Z 40
_cell_length_a 25.660448
_cell_length_b 5.050455
_cell_length_c 16.968201
_cell_angle_alpha 90.000000
_cell_angle_beta 90.000000
_cell_angle_gamma 90.000000
_cell_volume 2199.026891
_symmetry_space_group_name_H-M "C 2 2 2"
_symmetry_group_IT_number 21
_symmetry_cell_setting 'orthorhombic'
loop_
_space_group_symop_operation_xyz
x,y,z
-x,-y,z
x,-y,-z
-x,y,-z
1/2+x,1/2+y,z
1/2-x,1/2-y,z
1/2+x,1/2-y,-z
1/2-x,1/2+y,-z
loop_
_atom_site_type_symbol
_atom_site_label
_atom_site_fract_x
_atom_site_fract_y
_atom_site_fract_z
Si Si1 0.695656 0.369129 0.189371
Si Si2 0.811897 0.749593 0.445396
Si Si3 0.554611 0.884892 0.170948
Si Si4 0.907564 0.879488 0.913247
Si Si5 0.842638 0.623563 0.274074
O O1 0.750000 0.250000 0.158686
O O2 0.650362 0.360817 0.123829
O O3 0.691193 0.664399 0.223824
O O4 0.681428 0.166630 0.260438
O O5 0.822295 0.500000 0.500000
O O6 0.750000 0.750000 0.425630
O O7 0.841687 0.720044 0.363383
O O8 0.823469 0.000000 0.500000
O O9 0.558601 0.588033 0.137935
O O10 0.600021 0.894441 0.236243
O O11 0.500000 0.000000 0.201017
O O12 0.569341 0.087934 0.100071
O O13 0.906192 0.000000 0.000000
#
# Coordination Sequence:
#
# PCOD9322692 Si02
#       5
#     8   8   8   8   8
#     4  10  19  33  52  73 101 140 175 205 251 308
#     4  10  19  30  48  76 106 134 162 198 250 304
#     4  10  21  36  55  76  98 134 177 217 265 309
#     4  10  21  35  51  77 106 131 171 220 264 312
#     4  10  20  34  52  75 104 134 173 215 249 306
#
# _framework density 18.189864
#
# number of rings (size 3 to 8) (size 9 to 14) (size 15 to 20)
#    0.000    2.000    0.000    4.200    0.000    4.000 
#    0.000    6.000    0.000    0.600    0.000    1.400 
#    0.000    0.000    0.000    0.000    0.000    0.000 
#
# Total GULP energy -111542.405694 kJ/mol
# GULP energy per Si atom -5577.120285 kJ/mol
# Density = 1.814846 g / cm^3
# Si number density = 18.189864 Si / 1000 Ang^3
#
#
#
# Elastic Constant Matrix: (Units=GPa)
#
#
# Indices 1 2 3 4 5 6 
#
# 1 114.6741 32.7283 25.8497 0.0000 0.0000 0.0000
# 2 32.7283 99.2876 16.2415 0.0000 0.0000 0.0000
# 3 25.8497 16.2415 68.4514 0.0000 0.0000 0.0000
# 4 0.0000 0.0000 0.0000 30.5898 0.0000 0.0000
# 5 0.0000 0.0000 0.0000 0.0000 2.1776 0.0000
# 6 0.0000 0.0000 0.0000 0.0000 0.0000 29.7866
#
#
#
# Elastic Compliance Matrix: (Units=1/GPa)
#
#
# Indices 1 2 3 4 5 6 
#
# 1 0.010256 -0.002858 -0.003195 0.000000 0.000000 0.000000
# 2 -0.002858 0.011275 -0.001596 0.000000 0.000000 0.000000
# 3 -0.003195 -0.001596 0.016194 0.000000 0.000000 0.000000
# 4 0.000000 0.000000 0.000000 0.032691 0.000000 0.000000
# 5 0.000000 0.000000 0.000000 0.000000 0.459215 0.000000
# 6 0.000000 0.000000 0.000000 0.000000 0.000000 0.033572
#
#
# Mechanical properties :
#
#
# Convention : Reuss Voigt Hill
#
# Bulk Modulus (GPa) = 44.58850 48.00578 46.29714
# Shear Modulus (GPa) = 8.53276 26.35040 17.44158
#
# Velocity S-wave (km/s) = 2.16821 3.81022 3.09991
# Velocity P-wave (km/s) = 5.55286 6.76800 6.19032
#
# Compressibility (1/GPa) = 0.02242731
#
# Stress axis : x y z
#
# Youngs Moduli (GPa) = 97.50099 88.69229 61.75093
#
# Poissons Ratio (x) = 0.25350 0.19729
# Poissons Ratio (y) = 0.27867 0.09855
# Poissons Ratio (z) = 0.31151 0.14154
#
# Static dielectric constant tensor:
#      x y z
#    x 1.647830 0.000000 0.000000 
#    y 0.000000 1.622860 0.000000 
#    z 0.000000 0.000000 1.577420 
# 
# From -- ./inp_files/33697.got.cif
#   From: 2010.05.17/outbox.cif.g08.bks.cpg/sg21_17_cif.got.tgz:33697.got - 2010.06.03 23:14:55.
