data_PCOD9322099
_publ_section_title
;
Structure prediction by ZEFSAII (Michael W. Deem and Ramdas Pophale) SiO2 
 PCOD9322099
Probable space group: C 2 2 21
;
_chemical_formula_sum "Si O2"
_cell_formula_units_Z 28
_cell_length_a 5.349010
_cell_length_b 29.320373
_cell_length_c 7.701969
_cell_angle_alpha 90.000000
_cell_angle_beta 90.000000
_cell_angle_gamma 90.000000
_cell_volume 1207.938065
_symmetry_space_group_name_H-M "C 2 2 21"
_symmetry_group_IT_number 20
_symmetry_cell_setting 'orthorhombic'
loop_
_space_group_symop_operation_xyz
x,y,z
-x,-y,1/2+z
x,-y,-z
-x,y,1/2-z
1/2+x,1/2+y,z
1/2-x,1/2-y,1/2+z
1/2+x,1/2-y,-z
1/2-x,1/2+y,1/2-z
loop_
_atom_site_type_symbol
_atom_site_label
_atom_site_fract_x
_atom_site_fract_y
_atom_site_fract_z
Si Si1 0.333264 0.814152 0.405318
Si Si2 0.853716 0.090105 0.930529
Si Si3 0.500000 0.235301 0.250000
Si Si4 0.500000 0.530037 0.250000
Si Si5 0.500000 0.968837 0.250000
O O1 0.500000 0.834681 0.250000
O O2 0.159032 0.855933 0.462984
O O3 0.451738 0.795206 0.581347
O O4 0.213500 0.770481 0.310184
O O5 0.583652 0.065582 0.903915
O O6 0.000000 0.085443 0.750000
O O7 0.979620 0.061914 0.082555
O O8 0.246094 0.500289 0.267973
#
# Coordination Sequence:
#
# PCOD9322099 Si02
#       5
#     8   8   4   4   4
#     4  12  26  47  76 114 155 198 257 319 394 465
#     4  12  29  49  78 114 158 204 262 330 391 466
#     4  12  26  46  78 108 154 202 250 318 392 470
#     4  12  32  49  80 117 162 207 270 321 398 472
#     4  12  28  51  80 117 158 211 262 327 396 466
#
# _framework density 23.179994000000001
#
# number of rings (size 3 to 8) (size 9 to 14) (size 15 to 20)
#    0.000    0.000    7.143    0.857    8.000    5.714 
#    0.000    0.000    0.000    0.000    0.000    0.000 
#    0.000    0.000    0.000    0.000    0.000    0.000 
#
# Total GULP energy -78279.120132 kJ/mol
# GULP energy per Si atom -5591.365724 kJ/mol
# Density = 2.312723 g / cm^3
# Si number density = 23.179994 Si / 1000 Ang^3
#
#
#
# Elastic Constant Matrix: (Units=GPa)
#
#
# Indices 1 2 3 4 5 6 
#
# 1 93.6438 43.6612 32.0849 0.0000 0.0000 0.0000
# 2 43.6612 152.3837 50.7115 0.0000 0.0000 0.0000
# 3 32.0849 50.7115 125.4690 0.0000 0.0000 0.0000
# 4 0.0000 0.0000 0.0000 29.3977 0.0000 0.0000
# 5 0.0000 0.0000 0.0000 0.0000 34.6968 0.0000
# 6 0.0000 0.0000 0.0000 0.0000 0.0000 17.6820
#
#
#
# Elastic Compliance Matrix: (Units=1/GPa)
#
#
# Indices 1 2 3 4 5 6 
#
# 1 0.012772 -0.002972 -0.002065 0.000000 0.000000 0.000000
# 2 -0.002972 0.008274 -0.002584 0.000000 0.000000 0.000000
# 3 -0.002065 -0.002584 0.009542 0.000000 0.000000 0.000000
# 4 0.000000 0.000000 0.000000 0.034016 0.000000 0.000000
# 5 0.000000 0.000000 0.000000 0.000000 0.028821 0.000000
# 6 0.000000 0.000000 0.000000 0.000000 0.000000 0.056555
#
#
# Mechanical properties :
#
#
# Convention : Reuss Voigt Hill
#
# Bulk Modulus (GPa) = 65.16236 69.37908 67.27072
# Shear Modulus (GPa) = 29.35336 32.69121 31.02228
#
# Velocity S-wave (km/s) = 3.56240 3.75950 3.66228
# Velocity P-wave (km/s) = 6.71517 6.98861 6.85325
#
# Compressibility (1/GPa) = 0.01534628
#
# Stress axis : x y z
#
# Youngs Moduli (GPa) = 78.29598 120.86095 104.79445
#
# Poissons Ratio (x) = 0.35924 0.21637
# Poissons Ratio (y) = 0.23272 0.27079
# Poissons Ratio (z) = 0.16166 0.31231
#
# Static dielectric constant tensor:
#      x y z
#    x 1.971660 0.000000 0.000000 
#    y 0.000000 1.859650 0.000000 
#    z 0.000000 0.000000 1.941990 
# 
# From -- ./inp_files/5083.got.cif
#   From: 2010.05.17/outbox.cif.g08.bks.cpg/sg20_3_cif.got.tgz:5083.got - 2010.06.03 22:52:26.
