data_PCOD9322521
_publ_section_title
;
Structure prediction by ZEFSAII (Michael W. Deem and Ramdas Pophale) SiO2 
 PCOD9322521
Probable space group: C 2 2 2
;
_chemical_formula_sum "Si O2"
_cell_formula_units_Z 48
_cell_length_a 14.311943
_cell_length_b 14.109365
_cell_length_c 9.717829
_cell_angle_alpha 90.000000
_cell_angle_beta 90.000000
_cell_angle_gamma 90.000000
_cell_volume 1962.344801
_symmetry_space_group_name_H-M "C 2 2 2"
_symmetry_group_IT_number 21
_symmetry_cell_setting 'orthorhombic'
loop_
_space_group_symop_operation_xyz
x,y,z
-x,-y,z
x,-y,-z
-x,y,-z
1/2+x,1/2+y,z
1/2-x,1/2-y,z
1/2+x,1/2-y,-z
1/2-x,1/2+y,-z
loop_
_atom_site_type_symbol
_atom_site_label
_atom_site_fract_x
_atom_site_fract_y
_atom_site_fract_z
Si Si1 0.407347 0.169070 0.547426
Si Si2 0.666382 0.068882 0.883565
Si Si3 0.265017 0.545129 0.367184
Si Si4 0.136452 0.753495 0.733495
Si Si5 0.126459 0.105715 0.045392
Si Si6 0.855537 0.791038 0.789722
O O1 0.500000 0.115197 0.500000
O O2 0.315855 0.106488 0.559259
O O3 0.392951 0.243349 0.423974
O O4 0.412972 0.220785 0.693578
O O5 0.611526 0.158978 0.822585
O O6 0.759986 0.105042 0.960589
O O7 0.709486 0.014840 0.749450
O O8 0.621437 0.000000 0.000000
O O9 0.312803 0.500000 0.500000
O O10 0.337595 0.610467 0.287963
O O11 0.250000 0.750000 0.733722
O O12 0.104564 0.850483 0.806223
O O13 0.098349 0.182644 0.932557
O O14 0.098665 0.000000 0.000000
O O15 0.750000 0.750000 0.804685
#
# Coordination Sequence:
#
# PCOD9322521 Si02
#       6
#     8   8   8   8   8   8
#     4  11  25  40  55  83 127 175 207 240 303 379
#     4  10  18  32  57  97 124 143 188 258 319 360
#     4  11  20  35  62  94 121 151 201 258 308 365
#     4  10  20  36  60  90 122 150 203 259 307 360
#     4  10  19  33  59  94 117 145 194 265 321 360
#     4  10  20  35  60  87 115 154 201 252 306 358
#
# _framework density 24.460533000000002
#
# number of rings (size 3 to 8) (size 9 to 14) (size 15 to 20)
#    0.000    1.667    5.000    3.000    4.667    0.333 
#    0.000    0.833    0.000    6.500    0.000    0.000 
#    0.000    0.000    0.000    0.000    0.000    0.000 
#
# Total GULP energy -134079.335790 kJ/mol
# GULP energy per Si atom -5586.638991 kJ/mol
# Density = 2.440486 g / cm^3
# Si number density = 24.460533 Si / 1000 Ang^3
#
#
#
# Elastic Constant Matrix: (Units=GPa)
#
#
# Indices 1 2 3 4 5 6 
#
# 1 60.1337 -11.6232 5.5639 0.0000 0.0000 0.0000
# 2 -11.6232 67.7798 33.1812 0.0000 0.0000 0.0000
# 3 5.5639 33.1812 136.0660 0.0000 0.0000 0.0000
# 4 0.0000 0.0000 0.0000 53.2056 0.0000 0.0000
# 5 0.0000 0.0000 0.0000 0.0000 17.7732 0.0000
# 6 0.0000 0.0000 0.0000 0.0000 0.0000 -7.9592
#
#
#
# Elastic Compliance Matrix: (Units=1/GPa)
#
#
# Indices 1 2 3 4 5 6 
#
# 1 0.017518 0.003810 -0.001645 0.000000 0.000000 0.000000
# 2 0.003810 0.017582 -0.004443 0.000000 0.000000 0.000000
# 3 -0.001645 -0.004443 0.008500 0.000000 0.000000 0.000000
# 4 0.000000 0.000000 0.000000 0.018795 0.000000 0.000000
# 5 0.000000 0.000000 0.000000 0.000000 0.056264 0.000000
# 6 0.000000 0.000000 0.000000 0.000000 0.000000 -0.125641
#
#
# Mechanical properties :
#
#
# Convention : Reuss Voigt Hill
#
# Bulk Modulus (GPa) = 25.61325 35.35813 30.48569
# Shear Modulus (GPa) = 472.06843 28.39443 250.23143
#
# Velocity S-wave (km/s) = 13.90722 3.41079 10.12532
# Velocity P-wave (km/s) = 16.38216 5.47703 12.21419
#
# Compressibility (1/GPa) = 0.03904229
#
# Stress axis : x y z
#
# Youngs Moduli (GPa) = 57.08353 56.87573 117.64390
#
# Poissons Ratio (x) = -0.21667 0.19356
# Poissons Ratio (y) = -0.21746 0.52274
# Poissons Ratio (z) = 0.09392 0.25272
#
# Static dielectric constant tensor:
#      x y z
#    x 2.042530 0.000000 0.000000 
#    y 0.000000 2.016360 0.000000 
#    z 0.000000 0.000000 1.993330 
# 
# From -- ./inp_files/15013.got.cif
#   From: 2010.05.17/outbox.cif.g08.bks.cpg/sg21_8_cif.got.tgz:15013.got - 2010.06.03 23:14:55.
