data_PCOD9322390
_publ_section_title
;
Structure prediction by ZEFSAII (Michael W. Deem and Ramdas Pophale) SiO2 
 PCOD9322390
Probable space group: C 2 2 2
;
_chemical_formula_sum "Si O2"
_cell_formula_units_Z 58
_cell_length_a 7.228605
_cell_length_b 25.533877
_cell_length_c 16.438009
_cell_angle_alpha 90.000000
_cell_angle_beta 90.000000
_cell_angle_gamma 90.000000
_cell_volume 3034.034185
_symmetry_space_group_name_H-M "C 2 2 2"
_symmetry_group_IT_number 21
_symmetry_cell_setting 'orthorhombic'
loop_
_space_group_symop_operation_xyz
x,y,z
-x,-y,z
x,-y,-z
-x,y,-z
1/2+x,1/2+y,z
1/2-x,1/2-y,z
1/2+x,1/2-y,-z
1/2-x,1/2+y,-z
loop_
_atom_site_type_symbol
_atom_site_label
_atom_site_fract_x
_atom_site_fract_y
_atom_site_fract_z
Si Si1 0.032525 0.760015 0.594314
Si Si2 0.918997 0.054821 0.797451
Si Si3 0.571987 0.332515 0.737986
Si Si4 0.226639 0.807435 0.137217
Si Si5 0.996562 0.442535 0.749109
Si Si6 0.003313 0.329007 0.710373
Si Si7 0.500000 0.000000 0.000000
Si Si8 0.240683 0.077695 0.899806
O O1 0.250000 0.750000 0.599660
O O2 0.990061 0.806617 0.656949
O O3 0.947255 0.707549 0.634108
O O4 0.000000 0.769788 0.500000
O O5 0.961883 0.105330 0.742185
O O6 0.696450 0.056049 0.800380
O O7 0.026010 0.063691 0.882880
O O8 0.000000 0.000000 0.765457
O O9 0.471788 0.310456 0.817889
O O10 0.790064 0.320477 0.737612
O O11 0.250000 0.750000 0.099437
O O12 0.368885 0.814047 0.213173
O O13 0.252410 0.859995 0.083920
O O14 0.006647 0.391239 0.693369
O O15 0.838075 0.566720 0.812335
O O16 0.000000 0.500000 0.709879
O O17 0.641739 0.960449 0.955514
#
# Coordination Sequence:
#
# PCOD9322390 Si02
#       8
#     8   8   8   8   8   8   2   8
#     4  10  20  32  46  71 105 141 175 216 275 328
#     4  10  17  31  52  76 104 129 171 220 261 307
#     4   9  19  31  46  74 105 131 172 219 269 307
#     4  10  18  31  56  79 100 133 186 222 261 306
#     4  10  17  32  52  77 104 128 174 219 263 305
#     4   9  19  31  48  73 104 136 169 224 268 303
#     4  12  20  40  58  80 122 136 178 216 292 332
#     4  10  21  33  52  84 102 142 168 217 263 327
#
# _framework density 19.116461999999999
#
# number of rings (size 3 to 8) (size 9 to 14) (size 15 to 20)
#    0.000    2.207    3.448    0.000    1.931    0.000 
#    0.000    3.103    0.000    0.828   21.517    5.793 
#    0.000    0.000    0.000    0.000    0.000    0.000 
#
# Total GULP energy -161478.045561 kJ/mol
# GULP energy per Si atom -5568.208468 kJ/mol
# Density = 1.907295 g / cm^3
# Si number density = 19.116462 Si / 1000 Ang^3
#
#
#
# Elastic Constant Matrix: (Units=GPa)
#
#
# Indices 1 2 3 4 5 6 
#
# 1 63.6234 -2.4395 0.9601 0.0000 0.0000 0.0000
# 2 -2.4395 156.6006 18.2893 0.0000 0.0000 0.0000
# 3 0.9601 18.2893 27.3579 0.0000 0.0000 0.0000
# 4 0.0000 0.0000 0.0000 14.2612 0.0000 0.0000
# 5 0.0000 0.0000 0.0000 0.0000 10.2653 0.0000
# 6 0.0000 0.0000 0.0000 0.0000 0.0000 22.1972
#
#
#
# Elastic Compliance Matrix: (Units=1/GPa)
#
#
# Indices 1 2 3 4 5 6 
#
# 1 0.015742 0.000336 -0.000777 0.000000 0.000000 0.000000
# 2 0.000336 0.006934 -0.004647 0.000000 0.000000 0.000000
# 3 -0.000777 -0.004647 0.039686 0.000000 0.000000 0.000000
# 4 0.000000 0.000000 0.000000 0.070120 0.000000 0.000000
# 5 0.000000 0.000000 0.000000 0.000000 0.097416 0.000000
# 6 0.000000 0.000000 0.000000 0.000000 0.000000 0.045051
#
#
# Mechanical properties :
#
#
# Convention : Reuss Voigt Hill
#
# Bulk Modulus (GPa) = 19.16226 31.24463 25.20345
# Shear Modulus (GPa) = 16.52780 24.72953 20.62867
#
# Velocity S-wave (km/s) = 2.94357 3.60060 3.28854
# Velocity P-wave (km/s) = 4.64742 5.80221 5.25662
#
# Compressibility (1/GPa) = 0.05218590
#
# Stress axis : x y z
#
# Youngs Moduli (GPa) = 63.52396 144.22458 25.19749
#
# Poissons Ratio (x) = -0.04846 0.01958
# Poissons Ratio (y) = -0.02134 0.11709
# Poissons Ratio (z) = 0.04936 0.67022
#
# Static dielectric constant tensor:
#      x y z
#    x 1.746010 0.000000 0.000000 
#    y 0.000000 1.741570 0.000000 
#    z 0.000000 0.000000 1.638850 
# 
# From -- ./inp_files/30876.got.cif
#   From: 2010.05.17/outbox.cif.g08.bks.cpg/sg21_16_cif.got.tgz:30876.got - 2010.06.03 23:14:55.
