data_PCOD9322887
_publ_section_title
;
Structure prediction by ZEFSAII (Michael W. Deem and Ramdas Pophale) SiO2 
 PCOD9322887
Probable space group: C 2 2 2
;
_chemical_formula_sum "Si O2"
_cell_formula_units_Z 56
_cell_length_a 22.162731
_cell_length_b 14.413537
_cell_length_c 9.897729
_cell_angle_alpha 90.000000
_cell_angle_beta 90.000000
_cell_angle_gamma 90.000000
_cell_volume 3161.763643
_symmetry_space_group_name_H-M "C 2 2 2"
_symmetry_group_IT_number 21
_symmetry_cell_setting 'orthorhombic'
loop_
_space_group_symop_operation_xyz
x,y,z
-x,-y,z
x,-y,-z
-x,y,-z
1/2+x,1/2+y,z
1/2-x,1/2-y,z
1/2+x,1/2-y,-z
1/2-x,1/2+y,-z
loop_
_atom_site_type_symbol
_atom_site_label
_atom_site_fract_x
_atom_site_fract_y
_atom_site_fract_z
Si Si1 0.020892 0.896434 0.345269
Si Si2 0.123821 0.395374 0.838277
Si Si3 0.008144 0.732121 0.151665
Si Si4 0.819087 0.266654 0.639354
Si Si5 0.648134 0.394716 0.454002
Si Si6 0.713556 0.094541 0.408470
Si Si7 0.891760 0.390573 0.851676
O O1 0.995000 0.814636 0.254514
O O2 0.093017 0.879184 0.352422
O O3 0.000000 0.887047 0.500000
O O4 0.000000 0.000000 0.302038
O O5 0.071727 0.318483 0.815500
O O6 0.179085 0.395406 0.733172
O O7 0.101216 0.501048 0.819546
O O8 0.137087 0.384502 0.998231
O O9 0.957918 0.652637 0.152101
O O10 0.000000 0.771208 0.000000
O O11 0.750000 0.250000 0.685531
O O12 0.850238 0.172278 0.585879
O O13 0.813266 0.326453 0.503562
O O14 0.853261 0.329094 0.747995
O O15 0.639105 0.500000 0.500000
O O16 0.714999 0.389189 0.391609
O O17 0.706673 0.000000 0.500000
#
# Coordination Sequence:
#
# PCOD9322887 Si02
#       7
#     8   8   8   8   8   8   8
#     4  11  21  37  58  83 109 147 198 244 287 338
#     4  10  20  37  58  85 116 146 191 231 293 361
#     4  10  22  38  57  80 112 153 187 232 294 352
#     4  10  20  35  57  85 113 150 190 235 291 350
#     4  10  20  35  57  84 114 151 194 246 294 342
#     4  10  19  35  58  85 115 148 188 237 295 350
#     4  10  20  36  59  84 114 152 183 235 291 357
#
# _framework density 17.711634
#
# number of rings (size 3 to 8) (size 9 to 14) (size 15 to 20)
#    0.000    1.857    2.857    2.143    0.000    2.000 
#    0.000    5.000    0.000    1.714    0.000    0.000 
#    0.000    0.000    0.000    0.000    0.000    0.000 
#
# Total GULP energy -155946.470417 kJ/mol
# GULP energy per Si atom -5569.516801 kJ/mol
# Density = 1.767132 g / cm^3
# Si number density = 17.711634 Si / 1000 Ang^3
#
#
#
# Elastic Constant Matrix: (Units=GPa)
#
#
# Indices 1 2 3 4 5 6 
#
# 1 65.8631 12.8718 40.1524 0.0000 0.0000 0.0000
# 2 12.8718 104.3027 41.4590 0.0000 0.0000 0.0000
# 3 40.1524 41.4590 57.8281 0.0000 0.0000 0.0000
# 4 0.0000 0.0000 0.0000 28.9942 0.0000 0.0000
# 5 0.0000 0.0000 0.0000 0.0000 7.8515 0.0000
# 6 0.0000 0.0000 0.0000 0.0000 0.0000 14.6731
#
#
#
# Elastic Compliance Matrix: (Units=1/GPa)
#
#
# Indices 1 2 3 4 5 6 
#
# 1 0.028912 0.006170 -0.024498 0.000000 0.000000 0.000000
# 2 0.006170 0.014725 -0.014841 0.000000 0.000000 0.000000
# 3 -0.024498 -0.014841 0.044943 0.000000 0.000000 0.000000
# 4 0.000000 0.000000 0.000000 0.034490 0.000000 0.000000
# 5 0.000000 0.000000 0.000000 0.000000 0.127365 0.000000
# 6 0.000000 0.000000 0.000000 0.000000 0.000000 0.068152
#
#
# Mechanical properties :
#
#
# Convention : Reuss Voigt Hill
#
# Bulk Modulus (GPa) = 44.96137 46.32892 45.64514
# Shear Modulus (GPa) = 12.74411 19.20448 15.97429
#
# Velocity S-wave (km/s) = 2.68532 3.29642 3.00644
# Velocity P-wave (km/s) = 5.92072 6.37986 6.15457
#
# Compressibility (1/GPa) = 0.02224132
#
# Stress axis : x y z
#
# Youngs Moduli (GPa) = 34.58760 67.91111 22.25061
#
# Poissons Ratio (x) = -0.41899 0.54510
# Poissons Ratio (y) = -0.21339 0.33022
# Poissons Ratio (z) = 0.84733 1.00786
#
# Static dielectric constant tensor:
#      x y z
#    x 1.646020 0.000000 0.000000 
#    y 0.000000 1.629030 0.000000 
#    z 0.000000 0.000000 1.603200 
# 
# From -- ./inp_files/17699.got.cif
#   From: 2010.05.17/outbox.cif.g08.bks.cpg/sg21_9_cif.got.tgz:17699.got - 2010.06.03 23:14:55.
