data_PCOD9322649
_publ_section_title
;
Structure prediction by ZEFSAII (Michael W. Deem and Ramdas Pophale) SiO2 
 PCOD9322649
Probable space group: C 2 2 2
;
_chemical_formula_sum "Si O2"
_cell_formula_units_Z 60
_cell_length_a 10.816510
_cell_length_b 21.750899
_cell_length_c 11.885952
_cell_angle_alpha 90.000000
_cell_angle_beta 90.000000
_cell_angle_gamma 90.000000
_cell_volume 2796.393861
_symmetry_space_group_name_H-M "C 2 2 2"
_symmetry_group_IT_number 21
_symmetry_cell_setting 'orthorhombic'
loop_
_space_group_symop_operation_xyz
x,y,z
-x,-y,z
x,-y,-z
-x,y,-z
1/2+x,1/2+y,z
1/2-x,1/2-y,z
1/2+x,1/2-y,-z
1/2-x,1/2+y,-z
loop_
_atom_site_type_symbol
_atom_site_label
_atom_site_fract_x
_atom_site_fract_y
_atom_site_fract_z
Si Si1 0.691998 0.620625 0.438568
Si Si2 0.250000 0.250000 0.341273
Si Si3 0.801625 0.435668 0.762043
Si Si4 0.012459 0.645091 0.129273
Si Si5 0.421463 0.382799 0.678029
Si Si6 0.127733 0.101616 0.052083
Si Si7 0.232103 0.565932 0.166614
Si Si8 0.534134 0.281842 0.830241
O O1 0.748716 0.687632 0.412199
O O2 0.776625 0.572350 0.370391
O O3 0.669551 0.618290 0.570971
O O4 0.556495 0.612525 0.379700
O O5 0.366609 0.259164 0.260851
O O6 0.673320 0.423550 0.829232
O O7 0.837115 0.502790 0.805190
O O8 0.895278 0.383376 0.805220
O O9 0.134574 0.619711 0.189713
O O10 0.019155 0.718612 0.124690
O O11 0.000000 0.622946 0.000000
O O12 0.356808 0.432392 0.758944
O O13 0.437066 0.324690 0.762882
O O14 0.104045 0.174029 0.079471
O O15 0.227255 0.079860 0.961075
O O16 0.000000 0.078634 0.000000
#
# Coordination Sequence:
#
# PCOD9322649 Si02
#       8
#     8   4   8   8   8   8   8   8
#     4  10  21  42  73  95 134 170 225 280 347 400
#     4  10  18  38  68  92 126 170 214 264 328 410
#     4  12  24  45  67  94 133 187 227 265 329 412
#     4  12  26  42  66  99 135 186 224 275 335 406
#     4  10  23  43  65 107 129 168 221 289 345 396
#     4  12  22  41  64  99 131 168 213 276 342 400
#     4  12  27  42  64  99 141 176 225 274 328 405
#     4  11  21  42  66  99 134 166 222 274 348 403
#
# _framework density 21.456204
#
# number of rings (size 3 to 8) (size 9 to 14) (size 15 to 20)
#    0.000    0.800    6.667    1.200    0.000    5.333 
#    2.400    2.000    0.000    1.600    0.000    0.000 
#    0.000    0.000    0.000    0.000    0.000    0.000 
#
# Total GULP energy -167280.861398 kJ/mol
# GULP energy per Si atom -5576.028713 kJ/mol
# Density = 2.140737 g / cm^3
# Si number density = 21.456204 Si / 1000 Ang^3
#
#
#
# Elastic Constant Matrix: (Units=GPa)
#
#
# Indices 1 2 3 4 5 6 
#
# 1 40.9210 5.1682 9.4500 0.0000 0.0000 0.0000
# 2 5.1682 111.6712 27.7319 0.0000 0.0000 0.0000
# 3 9.4500 27.7319 99.2627 0.0000 0.0000 0.0000
# 4 0.0000 0.0000 0.0000 7.6169 0.0000 0.0000
# 5 0.0000 0.0000 0.0000 0.0000 20.2535 0.0000
# 6 0.0000 0.0000 0.0000 0.0000 0.0000 34.6658
#
#
#
# Elastic Compliance Matrix: (Units=1/GPa)
#
#
# Indices 1 2 3 4 5 6 
#
# 1 0.025025 -0.000609 -0.002212 0.000000 0.000000 0.000000
# 2 -0.000609 0.009637 -0.002635 0.000000 0.000000 0.000000
# 3 -0.002212 -0.002635 0.011021 0.000000 0.000000 0.000000
# 4 0.000000 0.000000 0.000000 0.131287 0.000000 0.000000
# 5 0.000000 0.000000 0.000000 0.000000 0.049374 0.000000
# 6 0.000000 0.000000 0.000000 0.000000 0.000000 0.028847
#
#
# Mechanical properties :
#
#
# Convention : Reuss Voigt Hill
#
# Bulk Modulus (GPa) = 28.75869 37.39500 33.07685
# Shear Modulus (GPa) = 18.00546 26.47421 22.23984
#
# Velocity S-wave (km/s) = 2.89999 3.51646 3.22300
# Velocity P-wave (km/s) = 4.96445 5.82698 5.41292
#
# Compressibility (1/GPa) = 0.03477210
#
# Stress axis : x y z
#
# Youngs Moduli (GPa) = 39.95980 103.76373 90.73654
#
# Poissons Ratio (x) = 0.06317 0.20074
# Poissons Ratio (y) = 0.02433 0.23905
# Poissons Ratio (z) = 0.08841 0.27337
#
# Static dielectric constant tensor:
#      x y z
#    x 1.815250 0.000000 0.000000 
#    y 0.000000 1.841560 0.000000 
#    z 0.000000 0.000000 1.781610 
# 
# From -- ./inp_files/24302.got.cif
#   From: 2010.05.17/outbox.cif.g08.bks.cpg/sg21_13_cif.got.tgz:24302.got - 2010.06.03 23:14:55.
