data_PCOD9322180
_publ_section_title
;
Structure prediction by ZEFSAII (Michael W. Deem and Ramdas Pophale) SiO2 
 PCOD9322180
Probable space group: C 2 2 21
;
_chemical_formula_sum "Si O2"
_cell_formula_units_Z 30
_cell_length_a 18.000000
_cell_length_b 18.000000
_cell_length_c 9.000000
_cell_angle_alpha 90.000000
_cell_angle_beta 90.000000
_cell_angle_gamma 90.000000
_cell_volume 2916.000000
_symmetry_space_group_name_H-M "C 2 2 21"
_symmetry_group_IT_number 20
_symmetry_cell_setting 'orthorhombic'
loop_
_space_group_symop_operation_xyz
x,y,z
-x,-y,1/2+z
x,-y,-z
-x,y,1/2-z
1/2+x,1/2+y,z
1/2-x,1/2-y,1/2+z
1/2+x,1/2-y,-z
1/2-x,1/2+y,1/2-z
loop_
_atom_site_type_symbol
_atom_site_label
_atom_site_fract_x
_atom_site_fract_y
_atom_site_fract_z
Si Si1 0.626801 0.422106 0.472143
Si Si2 0.500000 0.190844 0.250000
Si Si3 0.229858 0.806571 0.915670
Si Si4 0.423379 0.920798 0.526537
Si Si5 0.222496 0.912268 0.188304
Si Si6 0.133587 0.681443 0.780063
Si Si7 0.766579 0.432465 0.692283
Si Si8 0.390264 0.258062 0.014986
O O1 0.584841 0.500000 0.500000
O O2 0.653796 0.411944 0.302510
O O3 0.700943 0.431125 0.571951
O O4 0.592529 0.343913 0.518811
O O5 0.536061 0.136155 0.131859
O O6 0.562834 0.235881 0.340062
O O7 0.161682 0.753761 0.870994
O O8 0.260393 0.855177 0.778983
O O9 0.205815 0.868917 0.035949
O O10 0.301125 0.756295 0.963377
O O11 0.412224 0.876521 0.375073
O O12 0.344431 0.938018 0.607289
O O13 0.461438 0.000000 0.500000
O O14 0.290040 0.862217 0.247557
O O15 0.252237 0.997339 0.197921
O O16 0.094350 0.707421 0.628939
#
# Coordination Sequence:
#
# PCOD9322180 Si02
#       8
#     8   4   8   8   8   8   8   8
#     4  10  19  35  64  94 124 152 193 247 327 384
#     4  12  30  42  66  84 112 174 226 262 286 358
#     4  11  21  33  60  94 127 156 199 249 316 370
#     4  12  24  45  61  84 125 168 211 253 305 360
#     4  10  20  31  55  95 122 164 183 239 324 370
#     4  11  22  37  64  89 125 164 193 261 320 370
#     4  11  18  38  59  91 129 159 192 249 317 375
#     4  11  23  41  58  91 123 160 214 253 303 367
#
# _framework density 10.288066000000001
#
# number of rings (size 3 to 8) (size 9 to 14) (size 15 to 20)
#    0.000    1.067    6.667    0.800    3.733    1.600 
#    0.000    0.000    0.000    1.600    0.000    0.000 
#    0.000    0.000    0.000    0.000    0.000    0.000 
#
# Total GULP energy -167458.870997 kJ/mol
# GULP energy per Si atom -5581.962367 kJ/mol
# Density = 1.026465 g / cm^3
# Si number density = 10.288066 Si / 1000 Ang^3
#
#
#
# Elastic Constant Matrix: (Units=GPa)
#
#
# Indices 1 2 3 4 5 6 
#
# 1 9.4233 2.2559 2.6909 0.0000 0.0000 0.0000
# 2 2.2559 139.2537 28.3650 0.0000 0.0000 0.0000
# 3 2.6909 28.3650 75.0935 0.0000 0.0000 0.0000
# 4 0.0000 0.0000 0.0000 38.9020 0.0000 0.0000
# 5 0.0000 0.0000 0.0000 0.0000 -10.4567 0.0000
# 6 0.0000 0.0000 0.0000 0.0000 0.0000 -4.8528
#
#
#
# Elastic Compliance Matrix: (Units=1/GPa)
#
#
# Indices 1 2 3 4 5 6 
#
# 1 0.107355 -0.001035 -0.003456 0.000000 0.000000 0.000000
# 2 -0.001035 0.007790 -0.002905 0.000000 0.000000 0.000000
# 3 -0.003456 -0.002905 0.014538 0.000000 0.000000 0.000000
# 4 0.000000 0.000000 0.000000 0.025706 0.000000 0.000000
# 5 0.000000 0.000000 0.000000 0.000000 -0.095633 0.000000
# 6 0.000000 0.000000 0.000000 0.000000 0.000000 -0.206068
#
#
# Mechanical properties :
#
#
# Convention : Reuss Voigt Hill
#
# Bulk Modulus (GPa) = 8.70402 32.26600 20.48501
# Shear Modulus (GPa) = -53.63462 17.41577 -18.10943
#
# Velocity S-wave (km/s) = -5.11107 2.91246 -2.96990
# Velocity P-wave (km/s) = 5.53094 5.19858 1.33531
#
# Compressibility (1/GPa) = 0.11488946
#
# Stress axis : x y z
#
# Youngs Moduli (GPa) = 9.31492 128.37470 68.78530
#
# Poissons Ratio (x) = 0.13289 0.23772
# Poissons Ratio (y) = 0.00964 0.19984
# Poissons Ratio (z) = 0.03219 0.37297
#
# Static dielectric constant tensor:
#      x y z
#    x 1.661960 0.000000 0.000000 
#    y 0.000000 1.784780 0.000000 
#    z 0.000000 0.000000 1.680390 
# 
# From -- ./inp_files/9593.got.cif
#   From: 2010.05.17/outbox.ucp.g08.bks.cvg/sg20_5_cif.got.tgz:9593.got - 2010.06.11 15:13:06.
