data_PCOD9322758
_publ_section_title
;
Structure prediction by ZEFSAII (Michael W. Deem and Ramdas Pophale) SiO2 
 PCOD9322758
Probable space group: C 2 2 2
;
_chemical_formula_sum "Si O2"
_cell_formula_units_Z 24
_cell_length_a 11.907455
_cell_length_b 9.619548
_cell_length_c 8.854134
_cell_angle_alpha 90.000000
_cell_angle_beta 90.000000
_cell_angle_gamma 90.000000
_cell_volume 1014.190890
_symmetry_space_group_name_H-M "C 2 2 2"
_symmetry_group_IT_number 21
_symmetry_cell_setting 'orthorhombic'
loop_
_space_group_symop_operation_xyz
x,y,z
-x,-y,z
x,-y,-z
-x,y,-z
1/2+x,1/2+y,z
1/2-x,1/2-y,z
1/2+x,1/2-y,-z
1/2-x,1/2+y,-z
loop_
_atom_site_type_symbol
_atom_site_label
_atom_site_fract_x
_atom_site_fract_y
_atom_site_fract_z
Si Si1 0.724498 0.472787 0.676154
Si Si2 0.590810 0.241350 0.794514
Si Si3 0.141845 0.360258 0.896136
O O1 0.721397 0.500000 0.500000
O O2 0.612653 0.391420 0.724592
O O3 0.827571 0.366351 0.709175
O O4 0.755557 0.601581 0.785558
O O5 0.466420 0.179092 0.796603
O O6 0.634290 0.251122 0.968123
O O7 0.126346 0.500000 0.000000
#
# Coordination Sequence:
#
# PCOD9322758 Si02
#       3
#     8   8   8
#     4  10  19  32  56  92 125 156 200 253 311 371
#     4   9  18  34  57  88 117 156 212 249 298 370
#     4   9  17  35  63  90 117 159 208 255 304 365
#
# _framework density 23.664183999999999
#
# number of rings (size 3 to 8) (size 9 to 14) (size 15 to 20)
#    0.000    2.667    0.000    7.000    0.000    2.667 
#    0.000   20.000    0.000    8.000    0.000  123.667 
#    0.000    0.000    0.000    0.000    0.000    0.000 
#
# Total GULP energy -66965.591211 kJ/mol
# GULP energy per Si atom -5580.465934 kJ/mol
# Density = 2.361032 g / cm^3
# Si number density = 23.664184 Si / 1000 Ang^3
#
#
#
# Elastic Constant Matrix: (Units=GPa)
#
#
# Indices 1 2 3 4 5 6 
#
# 1 64.1369 40.5309 18.3309 0.0000 0.0000 0.0000
# 2 40.5309 91.8734 67.6996 0.0000 0.0000 0.0000
# 3 18.3309 67.6996 185.2747 0.0000 0.0000 0.0000
# 4 0.0000 0.0000 0.0000 32.0208 0.0000 0.0000
# 5 0.0000 0.0000 0.0000 0.0000 26.2935 0.0000
# 6 0.0000 0.0000 0.0000 0.0000 0.0000 40.8691
#
#
#
# Elastic Compliance Matrix: (Units=1/GPa)
#
#
# Indices 1 2 3 4 5 6 
#
# 1 0.022088 -0.011131 0.001882 0.000000 0.000000 0.000000
# 2 -0.011131 0.020505 -0.006391 0.000000 0.000000 0.000000
# 3 0.001882 -0.006391 0.007547 0.000000 0.000000 0.000000
# 4 0.000000 0.000000 0.000000 0.031230 0.000000 0.000000
# 5 0.000000 0.000000 0.000000 0.000000 0.038032 0.000000
# 6 0.000000 0.000000 0.000000 0.000000 0.000000 0.024468
#
#
# Mechanical properties :
#
#
# Convention : Reuss Voigt Hill
#
# Bulk Modulus (GPa) = 53.02625 66.04532 59.53578
# Shear Modulus (GPa) = 27.55788 34.15157 30.85473
#
# Velocity S-wave (km/s) = 3.41624 3.80304 3.61481
# Velocity P-wave (km/s) = 6.16582 6.87416 6.52960
#
# Compressibility (1/GPa) = 0.01885858
#
# Stress axis : x y z
#
# Youngs Moduli (GPa) = 45.27342 48.76943 132.51153
#
# Poissons Ratio (x) = 0.54286 -0.24938
# Poissons Ratio (y) = 0.50394 0.84690
# Poissons Ratio (z) = -0.08520 0.31169
#
# Static dielectric constant tensor:
#      x y z
#    x 2.027640 0.000000 0.000000 
#    y 0.000000 2.215290 0.000000 
#    z 0.000000 0.000000 1.847150 
# 
# From -- ./inp_files/11848.got.cif
#   From: 2010.05.17/outbox.cif.g08.bks.cpg/sg21_6_cif.got.tgz:11848.got - 2010.06.03 23:14:55.
