data_PCOD9322763
_publ_section_title
;
Structure prediction by ZEFSAII (Michael W. Deem and Ramdas Pophale) SiO2 
 PCOD9322763
Probable space group: C 2 2 2
;
_chemical_formula_sum "Si O2"
_cell_formula_units_Z 64
_cell_length_a 29.548137
_cell_length_b 7.648535
_cell_length_c 17.850905
_cell_angle_alpha 90.000000
_cell_angle_beta 90.000000
_cell_angle_gamma 90.000000
_cell_volume 4034.303816
_symmetry_space_group_name_H-M "C 2 2 2"
_symmetry_group_IT_number 21
_symmetry_cell_setting 'orthorhombic'
loop_
_space_group_symop_operation_xyz
x,y,z
-x,-y,z
x,-y,-z
-x,y,-z
1/2+x,1/2+y,z
1/2-x,1/2-y,z
1/2+x,1/2-y,-z
1/2-x,1/2+y,-z
loop_
_atom_site_type_symbol
_atom_site_label
_atom_site_fract_x
_atom_site_fract_y
_atom_site_fract_z
Si Si1 0.393078 0.792283 0.850337
Si Si2 0.445182 0.500000 0.585083
Si Si3 0.448474 0.290829 0.000000
Si Si4 0.393078 0.792283 0.149662
Si Si5 0.800371 0.710043 0.086008
Si Si6 0.300371 0.789956 0.086008
Si Si7 0.446030 0.207919 0.703184
Si Si8 0.946030 0.292082 0.703183
O O1 0.342675 0.722110 0.866290
O O2 0.419152 0.728999 0.776806
O O3 0.389106 0.000000 0.839406
O O4 0.422112 0.764908 0.925471
O O5 0.500000 0.500000 0.581312
O O6 0.427989 0.500000 0.500000
O O7 0.432872 0.327956 0.632825
O O8 0.432872 0.672046 0.632825
O O9 0.422111 0.235091 0.925472
O O10 0.449907 0.500000 0.000000
O O11 0.500000 0.223783 0.000000
O O12 0.342675 0.722110 0.133710
O O13 0.419152 0.728998 0.223193
O O14 0.750000 0.750000 0.114035
O O15 0.804450 0.500000 0.082525
O O16 0.803764 0.775992 0.000000
O O17 0.250000 0.750000 0.114035
O O18 0.500000 0.229456 0.716481
O O19 0.438363 0.000001 0.690588
#
# Coordination Sequence:
#
# PCOD9322763 Si02
#       8
#     8   8   8   8   8   8   8   8
#     4  10  19  33  48  63  88 125 161 196 236 276
#     4   9  18  32  50  71  97 127 155 188 232 288
#     4  11  23  31  40  63  90 121 164 203 230 269
#     4  10  19  33  48  63  88 125 161 196 236 276
#     4   9  17  30  45  62  85 116 156 197 237 275
#     4   9  17  30  45  62  85 116 156 197 237 275
#     4   9  18  31  48  70  96 127 158 194 237 279
#     4   9  18  31  48  70  96 127 158 194 237 279
#
# _framework density 15.863951999999999
#
# number of rings (size 3 to 8) (size 9 to 14) (size 15 to 20)
#    0.000    2.500    1.250    1.125    1.750    3.500 
#    0.000    2.500    0.000    0.000    0.000    0.000 
#    0.000    1.000    0.500    0.000    0.000    0.000 
#
# Total GULP energy -178365.355245 kJ/mol
# GULP energy per Si atom -5573.917351 kJ/mol
# Density = 1.582785 g / cm^3
# Si number density = 15.863952 Si / 1000 Ang^3
#
#
#
# Elastic Constant Matrix: (Units=GPa)
#
#
# Indices 1 2 3 4 5 6 
#
# 1 105.8651 23.8311 62.3456 0.0000 0.0000 0.0000
# 2 23.8311 47.9922 35.4156 0.0000 0.0000 0.0000
# 3 62.3456 35.4156 138.4736 0.0000 0.0000 0.0000
# 4 0.0000 0.0000 0.0000 22.6068 0.0000 0.0000
# 5 0.0000 0.0000 0.0000 0.0000 7.4043 0.0000
# 6 0.0000 0.0000 0.0000 0.0000 0.0000 13.7793
#
#
#
# Elastic Compliance Matrix: (Units=1/GPa)
#
#
# Indices 1 2 3 4 5 6 
#
# 1 0.013124 -0.002658 -0.005229 0.000000 0.000000 0.000000
# 2 -0.002658 0.026223 -0.005510 0.000000 0.000000 0.000000
# 3 -0.005229 -0.005510 0.010985 0.000000 0.000000 0.000000
# 4 0.000000 0.000000 0.000000 0.044235 0.000000 0.000000
# 5 0.000000 0.000000 0.000000 0.000000 0.135056 0.000000
# 6 0.000000 0.000000 0.000000 0.000000 0.000000 0.072573
#
#
# Mechanical properties :
#
#
# Convention : Reuss Voigt Hill
#
# Bulk Modulus (GPa) = 42.48520 59.50172 50.99346
# Shear Modulus (GPa) = 14.84411 20.14066 17.49238
#
# Velocity S-wave (km/s) = 3.06226 3.56699 3.32422
# Velocity P-wave (km/s) = 6.27235 7.38603 6.85186
#
# Compressibility (1/GPa) = 0.02353761
#
# Stress axis : x y z
#
# Youngs Moduli (GPa) = 76.19783 38.13509 91.03306
#
# Poissons Ratio (x) = 0.10137 0.47601
# Poissons Ratio (y) = 0.20254 0.50158
# Poissons Ratio (z) = 0.39843 0.21012
#
# Static dielectric constant tensor:
#      x y z
#    x 1.544580 0.000000 0.000000 
#    y 0.000000 1.569850 0.000000 
#    z 0.000000 0.000000 1.825050 
# 
# From -- ./inp_files/34082.got.cif
#   From: 2010.05.17/outbox.cif.g08.bks.cpg/sg21_18_cif.got.tgz:34082.got - 2010.06.03 23:14:55.
