data_PCOD9322561
_publ_section_title
;
Structure prediction by ZEFSAII (Michael W. Deem and Ramdas Pophale) SiO2 
 PCOD9322561
Probable space group: C 2 2 2
;
_chemical_formula_sum "Si O2"
_cell_formula_units_Z 60
_cell_length_a 20.191486
_cell_length_b 13.053782
_cell_length_c 11.601874
_cell_angle_alpha 90.000000
_cell_angle_beta 90.000000
_cell_angle_gamma 90.000000
_cell_volume 3057.966915
_symmetry_space_group_name_H-M "C 2 2 2"
_symmetry_group_IT_number 21
_symmetry_cell_setting 'orthorhombic'
loop_
_space_group_symop_operation_xyz
x,y,z
-x,-y,z
x,-y,-z
-x,y,-z
1/2+x,1/2+y,z
1/2-x,1/2-y,z
1/2+x,1/2-y,-z
1/2-x,1/2+y,-z
loop_
_atom_site_type_symbol
_atom_site_label
_atom_site_fract_x
_atom_site_fract_y
_atom_site_fract_z
Si Si1 0.314307 0.323750 0.488198
Si Si2 0.474272 0.115169 0.251401
Si Si3 0.719721 0.509310 0.340018
Si Si4 0.903147 0.287214 0.342895
Si Si5 0.754282 0.584125 0.907869
Si Si6 0.500000 0.200811 0.000000
Si Si7 0.361209 0.733637 0.098774
Si Si8 0.132614 0.484573 0.374033
O O1 0.250000 0.250000 0.484064
O O2 0.324063 0.390776 0.371802
O O3 0.302538 0.411503 0.585447
O O4 0.375310 0.257792 0.538696
O O5 0.518986 0.192458 0.325688
O O6 0.484027 0.138689 0.117010
O O7 0.400509 0.102437 0.296791
O O8 0.500000 0.000000 0.273555
O O9 0.734259 0.471967 0.211153
O O10 0.791490 0.543347 0.386498
O O11 0.879461 0.220569 0.233797
O O12 0.871922 0.400623 0.323899
O O13 0.687964 0.645567 0.943368
O O14 0.815058 0.664458 0.903100
O O15 0.772983 0.500000 0.000000
O O16 0.569206 0.257571 0.031386
O O17 0.100590 0.500000 0.500000
#
# Coordination Sequence:
#
# PCOD9322561 Si02
#       8
#     8   8   8   8   8   4   8   8
#     4  11  18  34  57  85 121 160 204 248 298 370
#     4   9  21  32  53  85 124 163 200 243 303 381
#     4  11  21  33  59  91 119 165 206 253 309 376
#     4  10  18  34  56  78 120 164 196 242 298 383
#     4  11  23  39  60  89 123 164 205 265 318 372
#     4  10  21  38  59  90 118 166 212 258 310 370
#     4  10  21  39  62  86 121 161 211 253 316 391
#     4  11  19  33  52  86 124 156 195 245 312 375
#
# _framework density 19.620878999999999
#
# number of rings (size 3 to 8) (size 9 to 14) (size 15 to 20)
#    0.000    1.600    5.333    0.200    1.867    2.400 
#    2.400    1.667    0.000    0.000    0.000    0.000 
#    0.000    2.400    0.000    0.000    0.000    0.000 
#
# Total GULP energy -167111.834136 kJ/mol
# GULP energy per Si atom -5570.394471 kJ/mol
# Density = 1.957622 g / cm^3
# Si number density = 19.620879 Si / 1000 Ang^3
#
#
#
# Elastic Constant Matrix: (Units=GPa)
#
#
# Indices 1 2 3 4 5 6 
#
# 1 92.2319 26.2427 25.5990 0.0000 0.0000 0.0000
# 2 26.2427 69.9924 23.0397 0.0000 0.0000 0.0000
# 3 25.5990 23.0397 63.7729 0.0000 0.0000 0.0000
# 4 0.0000 0.0000 0.0000 24.9769 0.0000 0.0000
# 5 0.0000 0.0000 0.0000 0.0000 24.6443 0.0000
# 6 0.0000 0.0000 0.0000 0.0000 0.0000 20.6996
#
#
#
# Elastic Compliance Matrix: (Units=1/GPa)
#
#
# Indices 1 2 3 4 5 6 
#
# 1 0.012941 -0.003566 -0.003906 0.000000 0.000000 0.000000
# 2 -0.003566 0.017198 -0.004782 0.000000 0.000000 0.000000
# 3 -0.003906 -0.004782 0.018976 0.000000 0.000000 0.000000
# 4 0.000000 0.000000 0.000000 0.040037 0.000000 0.000000
# 5 0.000000 0.000000 0.000000 0.000000 0.040577 0.000000
# 6 0.000000 0.000000 0.000000 0.000000 0.000000 0.048310
#
#
# Mechanical properties :
#
#
# Convention : Reuss Voigt Hill
#
# Bulk Modulus (GPa) = 40.63886 41.75112 41.19499
# Shear Modulus (GPa) = 23.72462 24.13854 23.93158
#
# Velocity S-wave (km/s) = 3.48106 3.51129 3.49621
# Velocity P-wave (km/s) = 6.07569 6.14524 6.11057
#
# Compressibility (1/GPa) = 0.02460699
#
# Stress axis : x y z
#
# Youngs Moduli (GPa) = 77.27299 58.14477 52.69743
#
# Poissons Ratio (x) = 0.20736 0.20585
# Poissons Ratio (y) = 0.27558 0.25199
# Poissons Ratio (z) = 0.30185 0.27804
#
# Static dielectric constant tensor:
#      x y z
#    x 1.747420 0.000000 0.000000 
#    y 0.000000 1.704590 0.000000 
#    z 0.000000 0.000000 1.723710 
# 
# From -- ./inp_files/26892.got.cif
#   From: 2010.05.17/outbox.cif.g08.bks.cpg/sg21_14_cif.got.tgz:26892.got - 2010.06.03 23:14:55.
