data_PCOD9322931
_publ_section_title
;
Structure prediction by ZEFSAII (Michael W. Deem and Ramdas Pophale) SiO2 
 PCOD9322931
Probable space group: C 2 2 2
;
_chemical_formula_sum "Si O2"
_cell_formula_units_Z 38
_cell_length_a 5.994974
_cell_length_b 26.891186
_cell_length_c 11.140807
_cell_angle_alpha 90.000000
_cell_angle_beta 90.000000
_cell_angle_gamma 90.000000
_cell_volume 1796.031342
_symmetry_space_group_name_H-M "C 2 2 2"
_symmetry_group_IT_number 21
_symmetry_cell_setting 'orthorhombic'
loop_
_space_group_symop_operation_xyz
x,y,z
-x,-y,z
x,-y,-z
-x,y,-z
1/2+x,1/2+y,z
1/2-x,1/2-y,z
1/2+x,1/2-y,-z
1/2-x,1/2+y,-z
loop_
_atom_site_type_symbol
_atom_site_label
_atom_site_fract_x
_atom_site_fract_y
_atom_site_fract_z
Si Si1 0.000000 0.500000 0.000000
Si Si2 0.438083 0.895860 0.373508
Si Si3 0.789332 0.921805 0.854300
Si Si4 0.684887 0.643508 0.196770
Si Si5 0.500000 0.843238 0.000000
Si Si6 0.134231 0.199117 0.622819
O O1 0.172552 0.467692 0.920451
O O2 0.500000 0.919830 0.500000
O O3 0.273169 0.925823 0.286115
O O4 0.651505 0.881664 0.293594
O O5 0.312196 0.844200 0.401882
O O6 0.044583 0.902647 0.861622
O O7 0.651739 0.876037 0.911161
O O8 0.818507 0.675550 0.096588
O O9 0.520464 0.678435 0.271255
O O10 0.250000 0.250000 0.659745
O O11 0.000000 0.207926 0.500000
#
# Coordination Sequence:
#
# PCOD9322931 Si02
#       6
#     2   8   8   8   4   8
#     4  10  20  44  64 102 128 156 222 274 320 390
#     4  10  19  36  57  92 129 167 210 253 324 395
#     4   9  20  35  63  92 123 161 209 265 313 384
#     4  10  20  36  60  94 122 170 213 267 324 384
#     4   9  18  37  58  88 114 164 214 256 308 385
#     4  11  22  34  58  97 131 164 216 277 327 387
#
# _framework density 21.157762000000002
#
# number of rings (size 3 to 8) (size 9 to 14) (size 15 to 20)
#    0.000    2.105    2.105    1.263    0.000    0.000 
#    0.000   19.474    0.000    0.000  273.684   14.737 
#    0.000    0.000    0.000    0.000    0.000    0.000 
#
# Total GULP energy -105902.581563 kJ/mol
# GULP energy per Si atom -5573.820082 kJ/mol
# Density = 2.110961 g / cm^3
# Si number density = 21.157762 Si / 1000 Ang^3
#
#
#
# Elastic Constant Matrix: (Units=GPa)
#
#
# Indices 1 2 3 4 5 6 
#
# 1 106.5105 20.1499 43.7717 0.0000 0.0000 0.0000
# 2 20.1499 46.6372 15.5537 0.0000 0.0000 0.0000
# 3 43.7717 15.5537 134.7692 0.0000 0.0000 0.0000
# 4 0.0000 0.0000 0.0000 9.4607 0.0000 0.0000
# 5 0.0000 0.0000 0.0000 0.0000 54.6459 0.0000
# 6 0.0000 0.0000 0.0000 0.0000 0.0000 7.9495
#
#
#
# Elastic Compliance Matrix: (Units=1/GPa)
#
#
# Indices 1 2 3 4 5 6 
#
# 1 0.011467 -0.003861 -0.003279 0.000000 0.000000 0.000000
# 2 -0.003861 0.023600 -0.001470 0.000000 0.000000 0.000000
# 3 -0.003279 -0.001470 0.008655 0.000000 0.000000 0.000000
# 4 0.000000 0.000000 0.000000 0.105701 0.000000 0.000000
# 5 0.000000 0.000000 0.000000 0.000000 0.018300 0.000000
# 6 0.000000 0.000000 0.000000 0.000000 0.000000 0.125795
#
#
# Mechanical properties :
#
#
# Convention : Reuss Voigt Hill
#
# Bulk Modulus (GPa) = 37.73140 49.65195 43.69167
# Shear Modulus (GPa) = 15.64608 28.30732 21.97670
#
# Velocity S-wave (km/s) = 2.72232 3.66172 3.22639
# Velocity P-wave (km/s) = 5.26815 6.43398 5.88003
#
# Compressibility (1/GPa) = 0.02650312
#
# Stress axis : x y z
#
# Youngs Moduli (GPa) = 87.21040 42.37227 115.54557
#
# Poissons Ratio (x) = 0.16359 0.37883
# Poissons Ratio (y) = 0.33670 0.16983
# Poissons Ratio (z) = 0.28593 0.06228
#
# Static dielectric constant tensor:
#      x y z
#    x 1.650690 0.000000 0.000000 
#    y 0.000000 1.751870 0.000000 
#    z 0.000000 0.000000 1.826690 
# 
# From -- ./inp_files/21401.got.cif
#   From: 2010.05.17/outbox.cif.g08.bks.cpg/sg21_11_cif.got.tgz:21401.got - 2010.06.03 23:14:55.
