data_PCOD9322053
_publ_section_title
;
Structure prediction by ZEFSAII (Michael W. Deem and Ramdas Pophale) SiO2 
 PCOD9322053
Probable space group: C 2 2 21
;
_chemical_formula_sum "Si O2"
_cell_formula_units_Z 40
_cell_length_a 4.963251
_cell_length_b 15.493451
_cell_length_c 20.029091
_cell_angle_alpha 90.000000
_cell_angle_beta 90.000000
_cell_angle_gamma 90.000000
_cell_volume 1540.194760
_symmetry_space_group_name_H-M "C 2 2 21"
_symmetry_group_IT_number 20
_symmetry_cell_setting 'orthorhombic'
loop_
_space_group_symop_operation_xyz
x,y,z
-x,-y,1/2+z
x,-y,-z
-x,y,1/2-z
1/2+x,1/2+y,z
1/2-x,1/2-y,1/2+z
1/2+x,1/2-y,-z
1/2-x,1/2+y,1/2-z
loop_
_atom_site_type_symbol
_atom_site_label
_atom_site_fract_x
_atom_site_fract_y
_atom_site_fract_z
Si Si1 0.545752 0.975314 0.862609
Si Si2 0.762807 0.302342 0.706123
Si Si3 0.550765 0.412507 0.120216
Si Si4 0.873910 0.727191 0.597205
Si Si5 0.171603 0.615151 0.487243
O O1 0.323557 0.049240 0.845419
O O2 0.480558 0.950109 0.938980
O O3 0.833561 0.017949 0.858434
O O4 0.580159 0.885625 0.823473
O O5 0.500000 0.328851 0.750000
O O6 0.613036 0.244967 0.649589
O O7 0.000000 0.259192 0.750000
O O8 0.382845 0.323042 0.126696
O O9 0.610463 0.416647 0.040695
O O10 0.802150 0.818284 0.564882
O O11 0.976945 0.668898 0.535989
#
# Coordination Sequence:
#
# PCOD9322053 Si02
#       5
#     8   8   8   8   8
#     4  12  28  46  77 116 160 208 260 319 407 481
#     4  12  29  54  82 106 153 220 286 332 390 472
#     4  12  27  44  74 124 163 202 241 323 403 486
#     4  12  26  46  79 121 163 202 264 325 400 477
#     4  12  25  43  79 118 167 196 244 315 418 485
#
# _framework density 25.970742999999999
#
# number of rings (size 3 to 8) (size 9 to 14) (size 15 to 20)
#    0.000    0.000    4.000    5.400    8.400    0.000 
#    0.000    1.000    4.400    0.000    0.000    0.000 
#    0.000    0.000    0.000    0.000    0.000    0.000 
#
# Total GULP energy -111889.151267 kJ/mol
# GULP energy per Si atom -5594.457563 kJ/mol
# Density = 2.591163 g / cm^3
# Si number density = 25.970743 Si / 1000 Ang^3
#
#
#
# Elastic Constant Matrix: (Units=GPa)
#
#
# Indices 1 2 3 4 5 6 
#
# 1 170.7522 24.1638 45.9123 0.0000 0.0000 0.0000
# 2 24.1638 29.8738 6.0477 0.0000 0.0000 0.0000
# 3 45.9123 6.0477 87.9227 0.0000 0.0000 0.0000
# 4 0.0000 0.0000 0.0000 36.4708 0.0000 0.0000
# 5 0.0000 0.0000 0.0000 0.0000 53.8703 0.0000
# 6 0.0000 0.0000 0.0000 0.0000 0.0000 35.1996
#
#
#
# Elastic Compliance Matrix: (Units=1/GPa)
#
#
# Indices 1 2 3 4 5 6 
#
# 1 0.007587 -0.005410 -0.003590 0.000000 0.000000 0.000000
# 2 -0.005410 0.037805 0.000225 0.000000 0.000000 0.000000
# 3 -0.003590 0.000225 0.013233 0.000000 0.000000 0.000000
# 4 0.000000 0.000000 0.000000 0.027419 0.000000 0.000000
# 5 0.000000 0.000000 0.000000 0.000000 0.018563 0.000000
# 6 0.000000 0.000000 0.000000 0.000000 0.000000 0.028409
#
#
# Mechanical properties :
#
#
# Convention : Reuss Voigt Hill
#
# Bulk Modulus (GPa) = 24.34620 48.97737 36.66178
# Shear Modulus (GPa) = 30.43976 39.26981 34.85478
#
# Velocity S-wave (km/s) = 3.42728 3.89276 3.66741
# Velocity P-wave (km/s) = 5.00564 6.25335 5.66396
#
# Compressibility (1/GPa) = 0.04107417
#
# Stress axis : x y z
#
# Youngs Moduli (GPa) = 131.79854 26.45161 75.57009
#
# Poissons Ratio (x) = 0.14311 0.27129
# Poissons Ratio (y) = 0.71308 -0.01699
# Poissons Ratio (z) = 0.47314 -0.00595
#
# Static dielectric constant tensor:
#      x y z
#    x 2.020540 0.000000 0.000000 
#    y 0.000000 2.196150 0.000000 
#    z 0.000000 0.000000 2.041380 
# 
# From -- ./inp_files/22609.got.cif
#   From: 2010.05.17/outbox.cif.g08.bks.cpg/sg20_12_cif.got.tgz:22609.got - 2010.06.03 22:52:26.
