data_PCOD9322421
_publ_section_title
;
Structure prediction by ZEFSAII (Michael W. Deem and Ramdas Pophale) SiO2 
 PCOD9322421
Probable space group: C 2 2 2
;
_chemical_formula_sum "Si O2"
_cell_formula_units_Z 44
_cell_length_a 13.072492
_cell_length_b 19.735970
_cell_length_c 8.415896
_cell_angle_alpha 90.000000
_cell_angle_beta 90.000000
_cell_angle_gamma 90.000000
_cell_volume 2171.286945
_symmetry_space_group_name_H-M "C 2 2 2"
_symmetry_group_IT_number 21
_symmetry_cell_setting 'orthorhombic'
loop_
_space_group_symop_operation_xyz
x,y,z
-x,-y,z
x,-y,-z
-x,y,-z
1/2+x,1/2+y,z
1/2-x,1/2-y,z
1/2+x,1/2-y,-z
1/2-x,1/2+y,-z
loop_
_atom_site_type_symbol
_atom_site_label
_atom_site_fract_x
_atom_site_fract_y
_atom_site_fract_z
Si Si1 0.500000 0.382937 0.500000
Si Si2 0.673749 0.067370 0.415669
Si Si3 0.603722 0.922644 0.934907
Si Si4 0.327397 0.599102 0.927042
Si Si5 0.707434 0.674952 0.386891
Si Si6 0.613805 0.455598 0.236829
O O1 0.397793 0.338648 0.482229
O O2 0.523235 0.432270 0.352046
O O3 0.609360 0.083518 0.256636
O O4 0.703760 0.124914 0.543637
O O5 0.784758 0.049716 0.342859
O O6 0.632502 0.000000 0.500000
O O7 0.500000 0.889533 0.000000
O O8 0.710270 0.899294 0.010361
O O9 0.601491 0.000000 0.000000
O O10 0.326659 0.654866 0.791026
O O11 0.365058 0.528422 0.845808
O O12 0.388606 0.598476 0.092221
O O13 0.750000 0.750000 0.398479
#
# Coordination Sequence:
#
# PCOD9322421 Si02
#       6
#     4   8   8   8   8   8
#     4  10  24  41  66  96 125 174 224 264 339 404
#     4  10  17  36  64  90 123 166 210 271 329 371
#     4  10  18  33  58  93 130 166 218 263 325 398
#     4  10  18  38  62  92 135 169 209 280 339 373
#     4  11  24  42  63  91 135 172 216 277 335 408
#     4   9  18  35  65  95 127 157 214 276 321 392
#
# _framework density 20.264479999999999
#
# number of rings (size 3 to 8) (size 9 to 14) (size 15 to 20)
#    0.000    2.000    5.455    0.000    0.000    2.182 
#    3.273   15.455    0.000    0.000    0.000    0.000 
#    0.000    0.000    0.000    0.000    0.000    0.000 
#
# Total GULP energy -122501.577723 kJ/mol
# GULP energy per Si atom -5568.253533 kJ/mol
# Density = 2.021836 g / cm^3
# Si number density = 20.264480 Si / 1000 Ang^3
#
#
#
# Elastic Constant Matrix: (Units=GPa)
#
#
# Indices 1 2 3 4 5 6 
#
# 1 91.8742 29.5980 47.1340 0.0000 0.0000 0.0000
# 2 29.5980 102.5187 44.4014 0.0000 0.0000 0.0000
# 3 47.1340 44.4014 129.1460 0.0000 0.0000 0.0000
# 4 0.0000 0.0000 0.0000 17.3680 0.0000 0.0000
# 5 0.0000 0.0000 0.0000 0.0000 928.0237 0.0000
# 6 0.0000 0.0000 0.0000 0.0000 0.0000 15.3163
#
#
#
# Elastic Compliance Matrix: (Units=1/GPa)
#
#
# Indices 1 2 3 4 5 6 
#
# 1 0.013771 -0.002114 -0.004299 0.000000 0.000000 0.000000
# 2 -0.002114 0.011785 -0.003280 0.000000 0.000000 0.000000
# 3 -0.004299 -0.003280 0.010440 0.000000 0.000000 0.000000
# 4 0.000000 0.000000 0.000000 0.057577 0.000000 0.000000
# 5 0.000000 0.000000 0.000000 0.000000 0.001078 0.000000
# 6 0.000000 0.000000 0.000000 0.000000 0.000000 0.065290
#
#
# Mechanical properties :
#
#
# Convention : Reuss Voigt Hill
#
# Bulk Modulus (GPa) = 60.20625 62.86731 61.53678
# Shear Modulus (GPa) = 27.04679 205.63530 116.34105
#
# Velocity S-wave (km/s) = 3.65730 10.08444 7.58525
# Velocity P-wave (km/s) = 6.89994 12.91067 10.35120
#
# Compressibility (1/GPa) = 0.01660957
#
# Stress axis : x y z
#
# Youngs Moduli (GPa) = 72.61606 84.85102 95.78462
#
# Poissons Ratio (x) = 0.17936 0.41180
# Poissons Ratio (y) = 0.15350 0.31421
# Poissons Ratio (z) = 0.31219 0.27835
#
# Static dielectric constant tensor:
#      x y z
#    x 1.818590 0.000000 0.000000 
#    y 0.000000 1.632900 0.000000 
#    z 0.000000 0.000000 1.777140 
# 
# From -- ./inp_files/13271.got.cif
#   From: 2010.05.17/outbox.cif.g08.bks.cpg/sg21_7_cif.got.tgz:13271.got - 2010.06.03 23:14:55.
