data_PCOD9322119
_publ_section_title
;
Structure prediction by ZEFSAII (Michael W. Deem and Ramdas Pophale) SiO2 
 PCOD9322119
Probable space group: C 2 2 21
;
_chemical_formula_sum "Si O2"
_cell_formula_units_Z 24
_cell_length_a 13.836436
_cell_length_b 8.197989
_cell_length_c 8.578074
_cell_angle_alpha 90.000000
_cell_angle_beta 90.000000
_cell_angle_gamma 90.000000
_cell_volume 973.019084
_symmetry_space_group_name_H-M "C 2 2 21"
_symmetry_group_IT_number 20
_symmetry_cell_setting 'orthorhombic'
loop_
_space_group_symop_operation_xyz
x,y,z
-x,-y,1/2+z
x,-y,-z
-x,y,1/2-z
1/2+x,1/2+y,z
1/2-x,1/2-y,1/2+z
1/2+x,1/2-y,-z
1/2-x,1/2+y,1/2-z
loop_
_atom_site_type_symbol
_atom_site_label
_atom_site_fract_x
_atom_site_fract_y
_atom_site_fract_z
Si Si1 0.005120 0.684047 0.939309
Si Si2 0.686289 0.622691 0.118339
Si Si3 0.660941 0.379453 0.375646
O O1 0.106619 0.772222 0.970342
O O2 0.000000 0.681774 0.750000
O O3 0.002438 0.500000 0.000000
O O4 0.923878 0.788037 0.031122
O O5 0.633108 0.505590 0.241024
O O6 0.764012 0.746350 0.187507
O O7 0.738903 0.500000 0.000000
O O8 0.711706 0.500000 0.500000
#
# Coordination Sequence:
#
# PCOD9322119 Si02
#       3
#     8   8   8
#     4  12  29  50  81 117 159 209 267 331 397 469
#     4  12  28  47  81 117 157 211 263 328 395 472
#     4  12  26  52  80 116 162 205 268 325 398 472
#
# _framework density 24.665496999999998
#
# number of rings (size 3 to 8) (size 9 to 14) (size 15 to 20)
#    0.000    0.000    3.333    5.000    9.333    0.000 
#    0.000    0.000    0.000    0.000    0.000    0.000 
#    0.000    0.000    0.000    0.000    0.000    0.000 
#
# Total GULP energy -67168.292669 kJ/mol
# GULP energy per Si atom -5597.357722 kJ/mol
# Density = 2.460936 g / cm^3
# Si number density = 24.665497 Si / 1000 Ang^3
#
#
#
# Elastic Constant Matrix: (Units=GPa)
#
#
# Indices 1 2 3 4 5 6 
#
# 1 125.3813 80.8130 31.1436 0.0000 0.0000 0.0000
# 2 80.8130 205.6082 65.6360 0.0000 0.0000 0.0000
# 3 31.1436 65.6360 72.9118 0.0000 0.0000 0.0000
# 4 0.0000 0.0000 0.0000 55.6705 0.0000 0.0000
# 5 0.0000 0.0000 0.0000 0.0000 29.1142 0.0000
# 6 0.0000 0.0000 0.0000 0.0000 0.0000 44.9363
#
#
#
# Elastic Compliance Matrix: (Units=1/GPa)
#
#
# Indices 1 2 3 4 5 6 
#
# 1 0.010745 -0.003870 -0.001105 0.000000 0.000000 0.000000
# 2 -0.003870 0.008219 -0.005746 0.000000 0.000000 0.000000
# 3 -0.001105 -0.005746 0.019360 0.000000 0.000000 0.000000
# 4 0.000000 0.000000 0.000000 0.017963 0.000000 0.000000
# 5 0.000000 0.000000 0.000000 0.000000 0.034348 0.000000
# 6 0.000000 0.000000 0.000000 0.000000 0.000000 0.022254
#
#
# Mechanical properties :
#
#
# Convention : Reuss Voigt Hill
#
# Bulk Modulus (GPa) = 59.23942 84.34295 71.79118
# Shear Modulus (GPa) = 35.72518 41.03144 38.37831
#
# Velocity S-wave (km/s) = 3.80990 4.08305 3.94883
# Velocity P-wave (km/s) = 6.58961 7.51647 7.06825
#
# Compressibility (1/GPa) = 0.01688065
#
# Stress axis : x y z
#
# Youngs Moduli (GPa) = 93.06826 121.66948 51.65368
#
# Poissons Ratio (x) = 0.47089 0.05710
# Poissons Ratio (y) = 0.36020 0.29679
# Poissons Ratio (z) = 0.10288 0.69907
#
# Static dielectric constant tensor:
#      x y z
#    x 1.886310 0.000000 0.000000 
#    y 0.000000 1.877940 0.000000 
#    z 0.000000 0.000000 2.068720 
# 
# From -- ./inp_files/5466.got.cif
#   From: 2010.05.17/outbox.cif.g08.bks.cpg/sg20_3_cif.got.tgz:5466.got - 2010.06.03 22:52:26.
