data_PCOD9322659
_publ_section_title
;
Structure prediction by ZEFSAII (Michael W. Deem and Ramdas Pophale) SiO2 
 PCOD9322659
Probable space group: C 2 2 2
;
_chemical_formula_sum "Si O2"
_cell_formula_units_Z 38
_cell_length_a 23.624223
_cell_length_b 13.169191
_cell_length_c 5.413230
_cell_angle_alpha 90.000000
_cell_angle_beta 90.000000
_cell_angle_gamma 90.000000
_cell_volume 1684.120297
_symmetry_space_group_name_H-M "C 2 2 2"
_symmetry_group_IT_number 21
_symmetry_cell_setting 'orthorhombic'
loop_
_space_group_symop_operation_xyz
x,y,z
-x,-y,z
x,-y,-z
-x,y,-z
1/2+x,1/2+y,z
1/2-x,1/2-y,z
1/2+x,1/2-y,-z
1/2-x,1/2+y,-z
loop_
_atom_site_type_symbol
_atom_site_label
_atom_site_fract_x
_atom_site_fract_y
_atom_site_fract_z
Si Si1 0.250000 0.250000 0.427664
Si Si2 0.143058 0.784031 0.914594
Si Si3 0.556724 0.840284 0.356579
Si Si4 0.743356 0.000000 0.500000
Si Si5 0.164462 0.388159 0.685167
Si Si6 0.678567 0.500000 0.000000
Si Si7 0.000000 0.500000 0.000000
O O1 0.194086 0.222064 0.281949
O O2 0.227620 0.354499 0.560028
O O3 0.084582 0.751377 0.792893
O O4 0.159782 0.696586 0.107395
O O5 0.143618 0.895701 0.023369
O O6 0.500000 0.812112 0.500000
O O7 0.605725 0.875622 0.543414
O O8 0.538890 0.929563 0.170770
O O9 0.685218 0.001499 0.714344
O O10 0.787621 0.992626 0.260599
#
# Coordination Sequence:
#
# PCOD9322659 Si02
#       7
#     4   8   8   4   8   4   2
#     4  10  18  40  58  98 142 188 230 290 360 452
#     4  11  24  43  70 102 151 199 252 312 384 465
#     4  11  27  46  72 103 143 191 256 320 391 459
#     4  12  26  42  71 114 157 198 254 306 388 472
#     4  11  24  39  70 102 147 193 242 310 380 459
#     4  12  26  47  74 113 159 208 255 310 388 478
#     4  12  26  50  72 104 136 184 248 324 400 466
#
# _framework density 22.563707000000001
#
# number of rings (size 3 to 8) (size 9 to 14) (size 15 to 20)
#    0.000    0.842    2.105    4.737   11.789    0.000 
#    0.000    0.000    0.000    9.474    0.000    0.000 
#    0.000    0.000    0.000    0.000    0.000    0.000 
#
# Total GULP energy -105775.515796 kJ/mol
# GULP energy per Si atom -5567.132410 kJ/mol
# Density = 2.251235 g / cm^3
# Si number density = 22.563707 Si / 1000 Ang^3
#
#
#
# Elastic Constant Matrix: (Units=GPa)
#
#
# Indices 1 2 3 4 5 6 
#
# 1 175.8152 76.6950 72.5838 0.0000 0.0000 0.0000
# 2 76.6950 137.2281 49.2847 0.0000 0.0000 0.0000
# 3 72.5838 49.2847 117.9801 0.0000 0.0000 0.0000
# 4 0.0000 0.0000 0.0000 23.7573 0.0000 0.0000
# 5 0.0000 0.0000 0.0000 0.0000 -8.8487 0.0000
# 6 0.0000 0.0000 0.0000 0.0000 0.0000 32.6456
#
#
#
# Elastic Compliance Matrix: (Units=1/GPa)
#
#
# Indices 1 2 3 4 5 6 
#
# 1 0.008871 -0.003527 -0.003984 0.000000 0.000000 0.000000
# 2 -0.003527 0.009976 -0.001997 0.000000 0.000000 0.000000
# 3 -0.003984 -0.001997 0.011762 0.000000 0.000000 0.000000
# 4 0.000000 0.000000 0.000000 0.042092 0.000000 0.000000
# 5 0.000000 0.000000 0.000000 0.000000 -0.113011 0.000000
# 6 0.000000 0.000000 0.000000 0.000000 0.000000 0.030632
#
#
# Mechanical properties :
#
#
# Convention : Reuss Voigt Hill
#
# Bulk Modulus (GPa) = 86.27329 92.01672 89.14501
# Shear Modulus (GPa) = 378.70123 25.00817 201.85470
#
# Velocity S-wave (km/s) = 12.96923 3.33278 9.46859
# Velocity P-wave (km/s) = 16.20451 7.46186 12.61478
#
# Compressibility (1/GPa) = 0.01159107
#
# Stress axis : x y z
#
# Youngs Moduli (GPa) = 112.72270 100.24362 85.02212
#
# Poissons Ratio (x) = 0.35357 0.33876
# Poissons Ratio (y) = 0.39758 0.16981
# Poissons Ratio (z) = 0.44913 0.20022
#
# Static dielectric constant tensor:
#      x y z
#    x 1.803670 0.000000 0.000000 
#    y 0.000000 3.297400 0.000000 
#    z 0.000000 0.000000 2.541780 
# 
# From -- ./inp_files/6653.got.cif
#   From: 2010.05.17/outbox.cif.g08.bks.cpg/sg21_4_cif.got.tgz:6653.got - 2010.06.03 23:14:55.
