data_PCOD9322874
_publ_section_title
;
Structure prediction by ZEFSAII (Michael W. Deem and Ramdas Pophale) SiO2 
 PCOD9322874
Probable space group: C 2 2 2
;
_chemical_formula_sum "Si O2"
_cell_formula_units_Z 48
_cell_length_a 16.729902
_cell_length_b 26.327563
_cell_length_c 5.346104
_cell_angle_alpha 90.000000
_cell_angle_beta 90.000000
_cell_angle_gamma 90.000000
_cell_volume 2354.731864
_symmetry_space_group_name_H-M "C 2 2 2"
_symmetry_group_IT_number 21
_symmetry_cell_setting 'orthorhombic'
loop_
_space_group_symop_operation_xyz
x,y,z
-x,-y,z
x,-y,-z
-x,y,-z
1/2+x,1/2+y,z
1/2-x,1/2-y,z
1/2+x,1/2-y,-z
1/2-x,1/2+y,-z
loop_
_atom_site_type_symbol
_atom_site_label
_atom_site_fract_x
_atom_site_fract_y
_atom_site_fract_z
Si Si1 0.455438 0.311585 0.749003
Si Si2 0.094588 0.560465 0.006263
Si Si3 0.207783 0.301856 0.161430
Si Si4 0.522395 0.802029 0.249643
Si Si5 0.724131 0.651004 0.670744
Si Si6 0.314419 0.061198 0.498859
O O1 0.500000 0.329854 0.500000
O O2 0.468809 0.249920 0.747002
O O3 0.364771 0.330023 0.736802
O O4 0.500000 0.329009 0.000000
O O5 0.126145 0.576195 0.276967
O O6 0.109685 0.500000 0.000000
O O7 0.144605 0.578901 0.762476
O O8 0.000000 0.565996 0.000000
O O9 0.250000 0.250000 0.084314
O O10 0.115578 0.291116 0.224846
O O11 0.246409 0.319435 0.423099
O O12 0.223764 0.337276 0.919876
O O13 0.500000 0.830336 0.500000
O O14 0.500000 0.830559 0.000000
O O15 0.735615 0.592831 0.577681
O O16 0.302901 0.000000 0.500000
#
# Coordination Sequence:
#
# PCOD9322874 Si02
#       6
#     8   8   8   8   8   8
#     4  10  20  37  59  83 111 150 198 241 292 362
#     4   9  17  33  59  85 114 156 201 244 296 359
#     4  12  23  38  60  87 120 156 201 255 302 358
#     4  10  19  35  54  77 112 156 193 233 292 347
#     4  12  24  40  62  91 120 159 209 252 308 373
#     4  10  21  38  60  89 123 160 205 257 308 358
#
# _framework density 20.384485000000002
#
# number of rings (size 3 to 8) (size 9 to 14) (size 15 to 20)
#    0.000    1.500    0.000    8.000    0.000    2.000 
#    0.000    8.333    0.000    0.500    0.000    1.167 
#    0.000    0.000    0.000    0.000    0.000    0.000 
#
# Total GULP energy -133982.106443 kJ/mol
# GULP energy per Si atom -5582.587768 kJ/mol
# Density = 2.033809 g / cm^3
# Si number density = 20.384485 Si / 1000 Ang^3
#
#
#
# Elastic Constant Matrix: (Units=GPa)
#
#
# Indices 1 2 3 4 5 6 
#
# 1 102.5806 37.4523 59.8139 0.0000 0.0000 0.0000
# 2 37.4523 54.5143 53.6360 0.0000 0.0000 0.0000
# 3 59.8139 53.6360 196.9946 0.0000 0.0000 0.0000
# 4 0.0000 0.0000 0.0000 20.9429 0.0000 0.0000
# 5 0.0000 0.0000 0.0000 0.0000 39.1347 0.0000
# 6 0.0000 0.0000 0.0000 0.0000 0.0000 10.1030
#
#
#
# Elastic Compliance Matrix: (Units=1/GPa)
#
#
# Indices 1 2 3 4 5 6 
#
# 1 0.013662 -0.007246 -0.002176 0.000000 0.000000 0.000000
# 2 -0.007246 0.028899 -0.005668 0.000000 0.000000 0.000000
# 3 -0.002176 -0.005668 0.007280 0.000000 0.000000 0.000000
# 4 0.000000 0.000000 0.000000 0.047749 0.000000 0.000000
# 5 0.000000 0.000000 0.000000 0.000000 0.025553 0.000000
# 6 0.000000 0.000000 0.000000 0.000000 0.000000 0.098981
#
#
# Mechanical properties :
#
#
# Convention : Reuss Voigt Hill
#
# Bulk Modulus (GPa) = 50.85927 72.87710 61.86819
# Shear Modulus (GPa) = 19.31567 27.58192 23.44879
#
# Velocity S-wave (km/s) = 3.08160 3.68242 3.39532
# Velocity P-wave (km/s) = 6.13725 7.34229 6.76664
#
# Compressibility (1/GPa) = 0.01966210
#
# Stress axis : x y z
#
# Youngs Moduli (GPa) = 73.19346 34.60357 137.36017
#
# Poissons Ratio (x) = 0.25073 0.29883
# Poissons Ratio (y) = 0.53035 0.77859
# Poissons Ratio (z) = 0.15923 0.19614
#
# Static dielectric constant tensor:
#      x y z
#    x 1.665000 0.000000 0.000000 
#    y 0.000000 1.770270 0.000000 
#    z 0.000000 0.000000 1.830230 
# 
# From -- ./inp_files/4124.got.cif
#   From: 2010.05.17/outbox.cif.g08.bks.cpg/sg21_3_cif.got.tgz:4124.got - 2010.06.03 23:14:55.
