data_PCOD9322574
_publ_section_title
;
Structure prediction by ZEFSAII (Michael W. Deem and Ramdas Pophale) SiO2 
 PCOD9322574
Probable space group: C 2 2 2
;
_chemical_formula_sum "Si O2"
_cell_formula_units_Z 48
_cell_length_a 30.422683
_cell_length_b 7.572304
_cell_length_c 10.213993
_cell_angle_alpha 90.000000
_cell_angle_beta 90.000000
_cell_angle_gamma 90.000000
_cell_volume 2352.995567
_symmetry_space_group_name_H-M "C 2 2 2"
_symmetry_group_IT_number 21
_symmetry_cell_setting 'orthorhombic'
loop_
_space_group_symop_operation_xyz
x,y,z
-x,-y,z
x,-y,-z
-x,y,-z
1/2+x,1/2+y,z
1/2-x,1/2-y,z
1/2+x,1/2-y,-z
1/2-x,1/2+y,-z
loop_
_atom_site_type_symbol
_atom_site_label
_atom_site_fract_x
_atom_site_fract_y
_atom_site_fract_z
Si Si1 0.094249 0.792822 0.728123
Si Si2 0.342930 0.002438 0.356032
Si Si3 0.409652 0.300059 0.740241
Si Si4 0.281614 0.092574 0.873733
Si Si5 0.000822 0.784794 0.846102
Si Si6 0.141491 0.190513 0.998397
O O1 0.121764 0.662665 0.637591
O O2 0.045515 0.735825 0.771044
O O3 0.121963 0.773152 0.861703
O O4 0.092839 0.999120 0.685862
O O5 0.322539 0.000000 0.500000
O O6 0.373607 0.831801 0.320360
O O7 0.303952 0.013022 0.247003
O O8 0.459382 0.231364 0.755422
O O9 0.397364 0.321433 0.893651
O O10 0.250000 0.250000 0.824597
O O11 0.323833 0.175293 0.944851
O O12 0.259347 0.000000 0.000000
O O13 0.000000 0.000000 0.851088
O O14 0.000000 0.725668 0.000000
O O15 0.162980 0.000000 0.000000
#
# Coordination Sequence:
#
# PCOD9322574 Si02
#       6
#     8   8   8   8   8   8
#     4  10  18  34  60  88 124 168 202 254 310 360
#     4  11  25  43  62  86 123 171 210 244 302 383
#     4   9  19  33  57  89 124 161 210 259 300 361
#     4  11  22  40  67  95 120 142 194 259 322 377
#     4   9  15  28  53  92 129 159 206 267 316 352
#     4   9  16  31  57  88 119 152 192 242 314 367
#
# _framework density 20.399529000000001
#
# number of rings (size 3 to 8) (size 9 to 14) (size 15 to 20)
#    0.000    2.167    3.333    0.500    0.000    1.333 
#    0.000    3.333    0.000    3.000    0.000    0.000 
#    0.000    0.000    0.000    0.000    0.000    0.000 
#
# Total GULP energy -133638.788035 kJ/mol
# GULP energy per Si atom -5568.282835 kJ/mol
# Density = 2.035310 g / cm^3
# Si number density = 20.399529 Si / 1000 Ang^3
#
#
#
# Elastic Constant Matrix: (Units=GPa)
#
#
# Indices 1 2 3 4 5 6 
#
# 1 93.6216 8.0937 11.6029 0.0000 0.0000 0.0000
# 2 8.0937 51.5588 6.1053 0.0000 0.0000 0.0000
# 3 11.6029 6.1053 80.9457 0.0000 0.0000 0.0000
# 4 0.0000 0.0000 0.0000 6.0515 0.0000 0.0000
# 5 0.0000 0.0000 0.0000 0.0000 2487.8215 0.0000
# 6 0.0000 0.0000 0.0000 0.0000 0.0000 21.5548
#
#
#
# Elastic Compliance Matrix: (Units=1/GPa)
#
#
# Indices 1 2 3 4 5 6 
#
# 1 0.010996 -0.001553 -0.001459 0.000000 0.000000 0.000000
# 2 -0.001553 0.019790 -0.001270 0.000000 0.000000 0.000000
# 3 -0.001459 -0.001270 0.012659 0.000000 0.000000 0.000000
# 4 0.000000 0.000000 0.000000 0.165249 0.000000 0.000000
# 5 0.000000 0.000000 0.000000 0.000000 0.000402 0.000000
# 6 0.000000 0.000000 0.000000 0.000000 0.000000 0.046393
#
#
# Mechanical properties :
#
#
# Convention : Reuss Voigt Hill
#
# Bulk Modulus (GPa) = 28.66975 30.85887 29.76431
# Shear Modulus (GPa) = 18.13693 516.44048 267.28871
#
# Velocity S-wave (km/s) = 2.98499 15.92836 11.45912
# Velocity P-wave (km/s) = 5.09557 18.80009 13.77331
#
# Compressibility (1/GPa) = 0.03487997
#
# Stress axis : x y z
#
# Youngs Moduli (GPa) = 90.93864 50.53164 78.99580
#
# Poissons Ratio (x) = 0.07850 0.11526
# Poissons Ratio (y) = 0.14127 0.10032
# Poissons Ratio (z) = 0.13269 0.06417
#
# Static dielectric constant tensor:
#      x y z
#    x 1.743740 0.000000 0.000000 
#    y 0.000000 -6.324160 0.000000 
#    z 0.000000 0.000000 1.746740 
# 
# From -- ./inp_files/19642.got.cif
#   From: 2010.05.17/outbox.cif.g08.bks.cpg/sg21_10_cif.got.tgz:19642.got - 2010.06.03 23:14:55.
