data_PCOD9322024
_publ_section_title
;
Structure prediction by ZEFSAII (Michael W. Deem and Ramdas Pophale) SiO2 
 PCOD9322024
Probable space group: C 2 2 21
;
_chemical_formula_sum "Si O2"
_cell_formula_units_Z 32
_cell_length_a 7.108547
_cell_length_b 27.997368
_cell_length_c 6.908872
_cell_angle_alpha 90.000000
_cell_angle_beta 90.000000
_cell_angle_gamma 90.000000
_cell_volume 1375.007894
_symmetry_space_group_name_H-M "C 2 2 21"
_symmetry_group_IT_number 20
_symmetry_cell_setting 'orthorhombic'
loop_
_space_group_symop_operation_xyz
x,y,z
-x,-y,1/2+z
x,-y,-z
-x,y,1/2-z
1/2+x,1/2+y,z
1/2-x,1/2-y,1/2+z
1/2+x,1/2-y,-z
1/2-x,1/2+y,1/2-z
loop_
_atom_site_type_symbol
_atom_site_label
_atom_site_fract_x
_atom_site_fract_y
_atom_site_fract_z
Si Si1 0.687078 0.208754 0.860015
Si Si2 0.500000 0.217343 0.250000
Si Si3 0.288998 0.500000 0.000000
Si Si4 0.500000 0.942960 0.250000
Si Si5 0.826123 0.881992 0.381291
Si Si6 0.000000 0.080810 0.250000
O O1 0.500000 0.225510 0.750000
O O2 0.844363 0.249708 0.857794
O O3 0.775189 0.166499 0.730638
O O4 0.616759 0.192880 0.074543
O O5 0.397077 0.542632 0.108805
O O6 0.152659 0.475408 0.150994
O O7 0.629466 0.910262 0.383764
O O8 0.892191 0.884368 0.601888
O O9 0.000000 0.902329 0.250000
#
# Coordination Sequence:
#
# PCOD9322024 Si02
#       6
#     8   4   4   4   8   4
#     4  12  26  48  77 112 153 203 261 321 391 463
#     4  12  26  48  80 110 152 204 264 324 382 470
#     4  12  24  46  78 110 148 206 256 312 390 460
#     4  12  24  46  71 109 148 192 262 309 379 472
#     4  12  26  49  72 115 158 199 259 323 394 460
#     4  12  26  48  79 109 160 206 256 331 389 458
#
# _framework density 23.272596
#
# number of rings (size 3 to 8) (size 9 to 14) (size 15 to 20)
#    0.000    0.000    7.500    3.000    0.000    2.000 
#    2.250    0.000    0.000    0.000    0.000    0.000 
#    0.000    0.000    0.000    0.000    0.000    0.000 
#
# Total GULP energy -89331.941082 kJ/mol
# GULP energy per Si atom -5583.246318 kJ/mol
# Density = 2.321963 g / cm^3
# Si number density = 23.272596 Si / 1000 Ang^3
#
#
#
# Elastic Constant Matrix: (Units=GPa)
#
#
# Indices 1 2 3 4 5 6 
#
# 1 104.1230 23.4964 47.3681 0.0000 0.0000 0.0000
# 2 23.4964 71.9350 54.3050 0.0000 0.0000 0.0000
# 3 47.3681 54.3050 172.4349 0.0000 0.0000 0.0000
# 4 0.0000 0.0000 0.0000 -100.2206 0.0000 0.0000
# 5 0.0000 0.0000 0.0000 0.0000 33.4961 0.0000
# 6 0.0000 0.0000 0.0000 0.0000 0.0000 56.7072
#
#
#
# Elastic Compliance Matrix: (Units=1/GPa)
#
#
# Indices 1 2 3 4 5 6 
#
# 1 0.011140 -0.001743 -0.002511 0.000000 0.000000 0.000000
# 2 -0.001743 0.018510 -0.005351 0.000000 0.000000 0.000000
# 3 -0.002511 -0.005351 0.008174 0.000000 0.000000 0.000000
# 4 0.000000 0.000000 0.000000 -0.009978 0.000000 0.000000
# 5 0.000000 0.000000 0.000000 0.000000 0.029854 0.000000
# 6 0.000000 0.000000 0.000000 0.000000 0.000000 0.017634
#
#
# Mechanical properties :
#
#
# Convention : Reuss Voigt Hill
#
# Bulk Modulus (GPa) = 53.72133 66.53688 60.12910
# Shear Modulus (GPa) = 49.62838 12.88475 31.25656
#
# Velocity S-wave (km/s) = 4.62289 2.35552 3.66876
# Velocity P-wave (km/s) = 7.18529 6.00419 6.62113
#
# Compressibility (1/GPa) = 0.01861458
#
# Stress axis : x y z
#
# Youngs Moduli (GPa) = 89.76873 54.02493 122.33620
#
# Poissons Ratio (x) = 0.09416 0.30721
# Poissons Ratio (y) = 0.15645 0.65457
# Poissons Ratio (z) = 0.22543 0.28907
#
# Static dielectric constant tensor:
#      x y z
#    x 1.867750 0.000000 0.000000 
#    y 0.000000 2.258820 0.000000 
#    z 0.000000 0.000000 1.657590 
# 
# From -- ./inp_files/653.got.cif
#   From: 2010.05.17/outbox.cif.g08.bks.cpg/sg20_1_cif.got.tgz:653.got - 2010.06.03 22:52:26.
