data_PCOD9322806
_publ_section_title
;
Structure prediction by ZEFSAII (Michael W. Deem and Ramdas Pophale) SiO2 
 PCOD9322806
Probable space group: C 2 2 2
;
_chemical_formula_sum "Si O2"
_cell_formula_units_Z 58
_cell_length_a 11.696992
_cell_length_b 27.802413
_cell_length_c 8.037588
_cell_angle_alpha 90.000000
_cell_angle_beta 90.000000
_cell_angle_gamma 90.000000
_cell_volume 2613.860610
_symmetry_space_group_name_H-M "C 2 2 2"
_symmetry_group_IT_number 21
_symmetry_cell_setting 'orthorhombic'
loop_
_space_group_symop_operation_xyz
x,y,z
-x,-y,z
x,-y,-z
-x,y,-z
1/2+x,1/2+y,z
1/2-x,1/2-y,z
1/2+x,1/2-y,-z
1/2-x,1/2+y,-z
loop_
_atom_site_type_symbol
_atom_site_label
_atom_site_fract_x
_atom_site_fract_y
_atom_site_fract_z
Si Si1 0.342682 0.069148 0.336392
Si Si2 0.000000 0.000000 0.000000
Si Si3 0.870921 0.273900 0.197755
Si Si4 0.366291 0.625545 0.819680
Si Si5 0.624719 0.739614 0.188918
Si Si6 0.178897 0.458324 0.705215
Si Si7 0.450625 0.123563 0.825657
Si Si8 0.609136 0.415499 0.181189
O O1 0.228404 0.098203 0.287581
O O2 0.370566 0.054432 0.525419
O O3 0.441576 0.105548 0.279231
O O4 0.329161 0.014935 0.258602
O O5 0.921934 0.967345 0.889914
O O6 0.750000 0.250000 0.258386
O O7 0.998075 0.255184 0.256157
O O8 0.876011 0.331220 0.235678
O O9 0.870302 0.262346 0.998174
O O10 0.371752 0.682384 0.815955
O O11 0.491312 0.607697 0.764058
O O12 0.350154 0.612682 0.016032
O O13 0.750000 0.750000 0.270320
O O14 0.299326 0.430479 0.685546
O O15 0.119144 0.425959 0.844987
O O16 0.500000 0.140334 0.000000
#
# Coordination Sequence:
#
# PCOD9322806 Si02
#       8
#     8   2   8   8   8   8   8   8
#     4  11  25  44  59  92 132 184 219 272 327 411
#     4   8  16  32  52  90 126 156 200 278 328 362
#     4  10  21  35  62 100 131 163 209 276 341 411
#     4  10  21  35  65  96 132 159 221 278 337 390
#     4  10  19  34  59  96 132 163 201 272 341 401
#     4  11  25  41  64  86 135 184 226 259 334 407
#     4  12  24  40  67  97 125 166 222 284 333 393
#     4  10  19  33  59  92 124 162 211 275 323 384
#
# _framework density 22.189399000000002
#
# number of rings (size 3 to 8) (size 9 to 14) (size 15 to 20)
#    0.000    1.655    1.379    5.793    7.724    3.862 
#    0.000    1.379    0.000    4.138    0.000    0.000 
#    0.000    0.000    0.000    0.000    0.000    0.000 
#
# Total GULP energy -161464.473861 kJ/mol
# GULP energy per Si atom -5567.740478 kJ/mol
# Density = 2.213890 g / cm^3
# Si number density = 22.189399 Si / 1000 Ang^3
#
#
#
# Elastic Constant Matrix: (Units=GPa)
#
#
# Indices 1 2 3 4 5 6 
#
# 1 141.0086 45.0042 20.5492 0.0000 0.0000 0.0000
# 2 45.0042 171.2112 15.6502 0.0000 0.0000 0.0000
# 3 20.5492 15.6502 14.1089 0.0000 0.0000 0.0000
# 4 0.0000 0.0000 0.0000 3.4573 0.0000 0.0000
# 5 0.0000 0.0000 0.0000 0.0000 19.0925 0.0000
# 6 0.0000 0.0000 0.0000 0.0000 0.0000 27.7231
#
#
#
# Elastic Compliance Matrix: (Units=1/GPa)
#
#
# Indices 1 2 3 4 5 6 
#
# 1 0.009270 -0.001338 -0.012017 0.000000 0.000000 0.000000
# 2 -0.001338 0.006693 -0.005475 0.000000 0.000000 0.000000
# 3 -0.012017 -0.005475 0.094453 0.000000 0.000000 0.000000
# 4 0.000000 0.000000 0.000000 0.289240 0.000000 0.000000
# 5 0.000000 0.000000 0.000000 0.000000 0.052377 0.000000
# 6 0.000000 0.000000 0.000000 0.000000 0.000000 0.036071
#
#
# Mechanical properties :
#
#
# Convention : Reuss Voigt Hill
#
# Bulk Modulus (GPa) = 13.74471 54.30399 34.02435
# Shear Modulus (GPa) = 9.09064 26.39626 17.74345
#
# Velocity S-wave (km/s) = 2.02626 3.45278 2.83085
# Velocity P-wave (km/s) = 3.41790 6.35781 5.10410
#
# Compressibility (1/GPa) = 0.07275527
#
# Stress axis : x y z
#
# Youngs Moduli (GPa) = 107.87307 149.41039 10.58725
#
# Poissons Ratio (x) = 0.19995 0.12723
# Poissons Ratio (y) = 0.14436 0.05797
# Poissons Ratio (z) = 1.29634 0.81803
#
# Static dielectric constant tensor:
#      x y z
#    x 1.948350 0.000000 0.000000 
#    y 0.000000 1.807650 0.000000 
#    z 0.000000 0.000000 1.907300 
# 
# From -- ./inp_files/13632.got.cif
#   From: 2010.05.17/outbox.cif.g08.bks.cpg/sg21_7_cif.got.tgz:13632.got - 2010.06.03 23:14:55.
