data_PCOD9322304
_publ_section_title
;
Structure prediction by ZEFSAII (Michael W. Deem and Ramdas Pophale) SiO2 
 PCOD9322304
Probable space group: C 2 2 2
;
_chemical_formula_sum "Si O2"
_cell_formula_units_Z 52
_cell_length_a 17.703932
_cell_length_b 5.117984
_cell_length_c 23.712601
_cell_angle_alpha 90.000000
_cell_angle_beta 90.000000
_cell_angle_gamma 90.000000
_cell_volume 2148.561802
_symmetry_space_group_name_H-M "C 2 2 2"
_symmetry_group_IT_number 21
_symmetry_cell_setting 'orthorhombic'
loop_
_space_group_symop_operation_xyz
x,y,z
-x,-y,z
x,-y,-z
-x,y,-z
1/2+x,1/2+y,z
1/2-x,1/2-y,z
1/2+x,1/2-y,-z
1/2-x,1/2+y,-z
loop_
_atom_site_type_symbol
_atom_site_label
_atom_site_fract_x
_atom_site_fract_y
_atom_site_fract_z
Si Si1 0.170572 0.047565 0.940868
Si Si2 0.158490 0.287921 0.677011
Si Si3 0.587237 0.049381 0.913496
Si Si4 0.841016 0.215990 0.615677
Si Si5 0.197116 0.000000 0.500000
Si Si6 0.412631 0.908577 0.782497
Si Si7 0.702060 0.495012 0.811307
O O1 0.138108 0.335410 0.942561
O O2 0.104272 0.835713 0.935820
O O3 0.206619 0.001302 0.879550
O O4 0.211211 0.000000 0.000000
O O5 0.250000 0.250000 0.676703
O O6 0.128760 0.432016 0.733006
O O7 0.130591 0.998347 0.660573
O O8 0.118556 0.896556 0.788937
O O9 0.605512 0.006801 0.846912
O O10 0.500000 0.000000 0.921305
O O11 0.750000 0.250000 0.621646
O O12 0.850020 0.099839 0.553405
O O13 0.867736 0.507162 0.628775
O O14 0.250000 0.750000 0.483478
O O15 0.500000 0.000000 0.775674
O O16 0.750000 0.250000 0.789887
O O17 0.750000 0.750000 0.794790
#
# Coordination Sequence:
#
# PCOD9322304 Si02
#       7
#     8   8   8   8   4   8   8
#     4  11  23  39  61  90 122 159 204 259 320 393
#     4  10  21  37  59  92 130 168 215 270 329 389
#     4  10  22  39  60  88 122 161 209 261 320 387
#     4   9  18  32  53  87 127 167 212 264 323 383
#     4  10  16  28  52  82 123 168 209 260 320 376
#     4  10  24  46  70  97 131 176 228 281 333 400
#     4  11  25  45  68  95 128 169 215 267 335 405
#
# _framework density 24.202233
#
# number of rings (size 3 to 8) (size 9 to 14) (size 15 to 20)
#    0.000    1.846    0.000    5.077    0.000    9.846 
#    0.000    8.462    0.000    0.000    0.000    3.231 
#    0.000    0.000    0.000    0.000    0.000    0.000 
#
# Total GULP energy -145048.456829 kJ/mol
# GULP energy per Si atom -5578.786801 kJ/mol
# Density = 2.414715 g / cm^3
# Si number density = 24.202233 Si / 1000 Ang^3
#
#
#
# Elastic Constant Matrix: (Units=GPa)
#
#
# Indices 1 2 3 4 5 6 
#
# 1 81.4415 53.8514 29.0428 0.0000 0.0000 0.0000
# 2 53.8514 152.9991 45.4711 0.0000 0.0000 0.0000
# 3 29.0428 45.4711 161.7512 0.0000 0.0000 0.0000
# 4 0.0000 0.0000 0.0000 28.5739 0.0000 0.0000
# 5 0.0000 0.0000 0.0000 0.0000 9.2840 0.0000
# 6 0.0000 0.0000 0.0000 0.0000 0.0000 33.2613
#
#
#
# Elastic Compliance Matrix: (Units=1/GPa)
#
#
# Indices 1 2 3 4 5 6 
#
# 1 0.016302 -0.005312 -0.001434 0.000000 0.000000 0.000000
# 2 -0.005312 0.008863 -0.001538 0.000000 0.000000 0.000000
# 3 -0.001434 -0.001538 0.006872 0.000000 0.000000 0.000000
# 4 0.000000 0.000000 0.000000 0.034997 0.000000 0.000000
# 5 0.000000 0.000000 0.000000 0.000000 0.107713 0.000000
# 6 0.000000 0.000000 0.000000 0.000000 0.000000 0.030065
#
#
# Mechanical properties :
#
#
# Convention : Reuss Voigt Hill
#
# Bulk Modulus (GPa) = 64.64012 72.54692 68.59352
# Shear Modulus (GPa) = 22.07163 32.07894 27.07528
#
# Velocity S-wave (km/s) = 3.02315 3.64463 3.34834
# Velocity P-wave (km/s) = 6.24117 6.91024 6.58421
#
# Compressibility (1/GPa) = 0.01547027
#
# Stress axis : x y z
#
# Youngs Moduli (GPa) = 61.34060 112.83373 145.51684
#
# Poissons Ratio (x) = 0.59936 0.20865
# Poissons Ratio (y) = 0.32583 0.22376
# Poissons Ratio (z) = 0.08796 0.17350
#
# Static dielectric constant tensor:
#      x y z
#    x 1.947590 0.000000 0.000000 
#    y 0.000000 2.034990 0.000000 
#    z 0.000000 0.000000 2.000190 
# 
# From -- ./inp_files/37848.got.cif
#   From: 2010.05.17/outbox.cif.g08.bks.cpg/sg21_19_cif.got.tgz:37848.got - 2010.06.03 23:14:55.
