data_PCOD9322831
_publ_section_title
;
Structure prediction by ZEFSAII (Michael W. Deem and Ramdas Pophale) SiO2 
 PCOD9322831
Probable space group: C 2 2 2
;
_chemical_formula_sum "Si O2"
_cell_formula_units_Z 38
_cell_length_a 5.377700
_cell_length_b 14.681728
_cell_length_c 22.836531
_cell_angle_alpha 90.000000
_cell_angle_beta 90.000000
_cell_angle_gamma 90.000000
_cell_volume 1803.033840
_symmetry_space_group_name_H-M "C 2 2 2"
_symmetry_group_IT_number 21
_symmetry_cell_setting 'orthorhombic'
loop_
_space_group_symop_operation_xyz
x,y,z
-x,-y,z
x,-y,-z
-x,y,-z
1/2+x,1/2+y,z
1/2-x,1/2-y,z
1/2+x,1/2-y,-z
1/2-x,1/2+y,-z
loop_
_atom_site_type_symbol
_atom_site_label
_atom_site_fract_x
_atom_site_fract_y
_atom_site_fract_z
Si Si1 0.500000 0.000000 0.000000
Si Si2 0.653649 0.351773 0.940796
Si Si3 0.000000 0.688226 0.500000
Si Si4 0.489259 0.391532 0.814405
Si Si5 0.499821 0.188844 0.372631
Si Si6 0.491453 0.108483 0.246137
O O1 0.348328 0.931926 0.956930
O O2 0.750000 0.250000 0.929666
O O3 0.497355 0.376939 0.883711
O O4 0.500000 0.345615 0.000000
O O5 0.250000 0.750000 0.500023
O O6 0.001221 0.640301 0.436549
O O7 0.500000 0.500000 0.804465
O O8 0.239649 0.355170 0.784881
O O9 0.740774 0.355663 0.784187
O O10 0.750000 0.250000 0.369775
O O11 0.494949 0.128244 0.314944
O O12 0.250000 0.250000 0.370784
O O13 0.500000 0.000000 0.237487
#
# Coordination Sequence:
#
# PCOD9322831 Si02
#       6
#     2   8   4   8   8   8
#     4  12  26  48  76  92 144 172 210 286 354 382
#     4  12  27  46  71 102 130 174 225 276 336 412
#     4   8  16  30  51  80 113 156 198 252 308 366
#     4  10  23  41  66  87 125 168 206 257 324 383
#     4  10  19  34  57  84 118 156 207 255 308 370
#     4  10  22  39  60  88 122 164 200 253 317 377
#
# _framework density 21.075589000000001
#
# number of rings (size 3 to 8) (size 9 to 14) (size 15 to 20)
#    0.000    1.684    1.053    2.842    7.368    2.526 
#    0.000    0.526    0.000    0.000    0.000   13.263 
#    0.000    0.000    0.000    0.000    0.000    0.000 
#
# Total GULP energy -106072.597165 kJ/mol
# GULP energy per Si atom -5582.768272 kJ/mol
# Density = 2.102762 g / cm^3
# Si number density = 21.075589 Si / 1000 Ang^3
#
#
#
# Elastic Constant Matrix: (Units=GPa)
#
#
# Indices 1 2 3 4 5 6 
#
# 1 150.2650 22.5685 57.6653 0.0000 0.0000 0.0000
# 2 22.5685 73.0277 -7.4745 0.0000 0.0000 0.0000
# 3 57.6653 -7.4745 161.9890 0.0000 0.0000 0.0000
# 4 0.0000 0.0000 0.0000 27.0863 0.0000 0.0000
# 5 0.0000 0.0000 0.0000 0.0000 39.7842 0.0000
# 6 0.0000 0.0000 0.0000 0.0000 0.0000 -12.7532
#
#
#
# Elastic Compliance Matrix: (Units=1/GPa)
#
#
# Indices 1 2 3 4 5 6 
#
# 1 0.008266 -0.002869 -0.003075 0.000000 0.000000 0.000000
# 2 -0.002869 0.014754 0.001702 0.000000 0.000000 0.000000
# 3 -0.003075 0.001702 0.007346 0.000000 0.000000 0.000000
# 4 0.000000 0.000000 0.000000 0.036919 0.000000 0.000000
# 5 0.000000 0.000000 0.000000 0.000000 0.025136 0.000000
# 6 0.000000 0.000000 0.000000 0.000000 0.000000 -0.078412
#
#
# Mechanical properties :
#
#
# Convention : Reuss Voigt Hill
#
# Bulk Modulus (GPa) = 45.69800 58.97780 52.33790
# Shear Modulus (GPa) = 167.85367 31.65827 99.75597
#
# Velocity S-wave (km/s) = 8.93401 3.87994 6.88732
# Velocity P-wave (km/s) = 11.32043 6.93661 9.38799
#
# Compressibility (1/GPa) = 0.02188280
#
# Stress axis : x y z
#
# Youngs Moduli (GPa) = 120.97970 67.77659 136.12091
#
# Poissons Ratio (x) = 0.19446 0.41856
# Poissons Ratio (y) = 0.34712 -0.23170
# Poissons Ratio (z) = 0.37200 -0.11537
#
# Static dielectric constant tensor:
#      x y z
#    x 1.789360 0.000000 0.000000 
#    y 0.000000 1.653410 0.000000 
#    z 0.000000 0.000000 1.744930 
# 
# From -- ./inp_files/34710.got.cif
#   From: 2010.05.17/outbox.cif.g08.bks.cpg/sg21_18_cif.got.tgz:34710.got - 2010.06.03 23:14:55.
