data_PCOD9322041
_publ_section_title
;
Structure prediction by ZEFSAII (Michael W. Deem and Ramdas Pophale) SiO2 
 PCOD9322041
Probable space group: C 2 2 21
;
_chemical_formula_sum "Si O2"
_cell_formula_units_Z 40
_cell_length_a 13.925077
_cell_length_b 8.330630
_cell_length_c 13.609322
_cell_angle_alpha 90.000000
_cell_angle_beta 90.000000
_cell_angle_gamma 90.000000
_cell_volume 1578.744829
_symmetry_space_group_name_H-M "C 2 2 21"
_symmetry_group_IT_number 20
_symmetry_cell_setting 'orthorhombic'
loop_
_space_group_symop_operation_xyz
x,y,z
-x,-y,1/2+z
x,-y,-z
-x,y,1/2-z
1/2+x,1/2+y,z
1/2-x,1/2-y,1/2+z
1/2+x,1/2-y,-z
1/2-x,1/2+y,1/2-z
loop_
_atom_site_type_symbol
_atom_site_label
_atom_site_fract_x
_atom_site_fract_y
_atom_site_fract_z
Si Si1 0.302010 0.252683 0.768142
Si Si2 0.005152 0.670263 0.479671
Si Si3 0.392202 0.088845 0.293622
Si Si4 0.869656 0.130657 0.415488
Si Si5 0.690094 0.315594 0.502298
O O1 0.187553 0.282824 0.759747
O O2 0.351989 0.390439 0.700246
O O3 0.322822 0.266727 0.883774
O O4 0.341510 0.082133 0.728604
O O5 0.053992 0.500000 0.500000
O O6 0.088595 0.789335 0.447962
O O7 0.918215 0.633746 0.405823
O O8 0.956290 0.744266 0.574852
O O9 0.500000 0.091140 0.250000
O O10 0.770357 0.208198 0.452098
O O11 0.891675 0.000000 0.500000
O O12 0.718327 0.500000 0.500000
#
# Coordination Sequence:
#
# PCOD9322041 Si02
#       5
#     8   8   8   8   8
#     4  12  26  47  80 113 160 211 272 337 406 491
#     4  12  24  48  73 105 156 202 260 336 398 476
#     4  12  26  49  76 117 155 212 271 333 410 482
#     4  12  25  46  73 110 155 206 264 330 405 481
#     4  12  26  48  77 114 155 212 270 337 411 483
#
# _framework density 25.336583000000001
#
# number of rings (size 3 to 8) (size 9 to 14) (size 15 to 20)
#    0.000    0.000    4.000    6.600    0.000    0.000 
#    0.000    1.000    0.000    0.000    0.000    0.000 
#    0.000    0.000    0.000    0.000    0.000    0.000 
#
# Total GULP energy -111882.855947 kJ/mol
# GULP energy per Si atom -5594.142797 kJ/mol
# Density = 2.527892 g / cm^3
# Si number density = 25.336583 Si / 1000 Ang^3
#
#
#
# Elastic Constant Matrix: (Units=GPa)
#
#
# Indices 1 2 3 4 5 6 
#
# 1 155.1193 40.3690 17.4551 0.0000 0.0000 0.0000
# 2 40.3690 80.2738 13.4799 0.0000 0.0000 0.0000
# 3 17.4551 13.4799 91.1922 0.0000 0.0000 0.0000
# 4 0.0000 0.0000 0.0000 30.7548 0.0000 0.0000
# 5 0.0000 0.0000 0.0000 0.0000 39.5705 0.0000
# 6 0.0000 0.0000 0.0000 0.0000 0.0000 30.5077
#
#
#
# Elastic Compliance Matrix: (Units=1/GPa)
#
#
# Indices 1 2 3 4 5 6 
#
# 1 0.007489 -0.003615 -0.000899 0.000000 0.000000 0.000000
# 2 -0.003615 0.014520 -0.001454 0.000000 0.000000 0.000000
# 3 -0.000899 -0.001454 0.011353 0.000000 0.000000 0.000000
# 4 0.000000 0.000000 0.000000 0.032515 0.000000 0.000000
# 5 0.000000 0.000000 0.000000 0.000000 0.025271 0.000000
# 6 0.000000 0.000000 0.000000 0.000000 0.000000 0.032779
#
#
# Mechanical properties :
#
#
# Convention : Reuss Voigt Hill
#
# Bulk Modulus (GPa) = 46.67581 52.13260 49.40420
# Shear Modulus (GPa) = 34.96399 37.18537 36.07468
#
# Velocity S-wave (km/s) = 3.71884 3.83515 3.77744
# Velocity P-wave (km/s) = 6.07470 6.34286 6.21023
#
# Compressibility (1/GPa) = 0.02142437
#
# Stress axis : x y z
#
# Youngs Moduli (GPa) = 133.53632 68.87280 88.08321
#
# Poissons Ratio (x) = 0.24897 0.07919
# Poissons Ratio (y) = 0.48273 0.12810
# Poissons Ratio (z) = 0.12005 0.10016
#
# Static dielectric constant tensor:
#      x y z
#    x 1.938760 0.000000 0.000000 
#    y 0.000000 2.005910 0.000000 
#    z 0.000000 0.000000 2.097480 
# 
# From -- ./inp_files/20478.got.cif
#   From: 2010.05.17/outbox.cif.g08.bks.cpg/sg20_11_cif.got.tgz:20478.got - 2010.06.03 22:52:26.
