data_PCOD9322081
_publ_section_title
;
Structure prediction by ZEFSAII (Michael W. Deem and Ramdas Pophale) SiO2 
 PCOD9322081
Probable space group: C 2 2 21
;
_chemical_formula_sum "Si O2"
_cell_formula_units_Z 28
_cell_length_a 5.104131
_cell_length_b 19.536190
_cell_length_c 11.656966
_cell_angle_alpha 90.000000
_cell_angle_beta 90.000000
_cell_angle_gamma 90.000000
_cell_volume 1162.377547
_symmetry_space_group_name_H-M "C 2 2 21"
_symmetry_group_IT_number 20
_symmetry_cell_setting 'orthorhombic'
loop_
_space_group_symop_operation_xyz
x,y,z
-x,-y,1/2+z
x,-y,-z
-x,y,1/2-z
1/2+x,1/2+y,z
1/2-x,1/2-y,1/2+z
1/2+x,1/2-y,-z
1/2-x,1/2+y,1/2-z
loop_
_atom_site_type_symbol
_atom_site_label
_atom_site_fract_x
_atom_site_fract_y
_atom_site_fract_z
Si Si1 0.995396 0.707162 0.521566
Si Si2 0.500000 0.011231 0.250000
Si Si3 0.184033 0.893209 0.360980
Si Si4 0.278259 0.426021 0.557006
O O1 0.762297 0.750216 0.462237
O O2 0.855598 0.675306 0.632656
O O3 0.081634 0.637364 0.459286
O O4 0.272631 0.055086 0.189570
O O5 0.358738 0.960009 0.338667
O O6 0.000000 0.889520 0.250000
O O7 0.028089 0.901673 0.481281
O O8 0.230120 0.500000 0.500000
#
# Coordination Sequence:
#
# PCOD9322081 Si02
#       4
#     8   4   8   8
#     4  12  27  52  77 114 169 217 273 345 418 512
#     4  12  28  46  84 130 160 224 274 364 420 498
#     4  12  25  48  81 120 163 218 283 346 429 491
#     4  12  26  49  81 122 160 211 286 342 413 501
#
# _framework density 24.088557000000002
#
# number of rings (size 3 to 8) (size 9 to 14) (size 15 to 20)
#    0.000    0.000    8.571    0.000    4.000    0.000 
#    2.571    2.857    0.000    0.000    0.000    0.000 
#    0.000    0.000    0.000    0.000    0.000    0.000 
#
# Total GULP energy -78068.258632 kJ/mol
# GULP energy per Si atom -5576.304188 kJ/mol
# Density = 2.403373 g / cm^3
# Si number density = 24.088557 Si / 1000 Ang^3
#
#
#
# Elastic Constant Matrix: (Units=GPa)
#
#
# Indices 1 2 3 4 5 6 
#
# 1 180.7800 76.6464 59.6515 0.0000 0.0000 0.0000
# 2 76.6464 155.9776 18.6883 0.0000 0.0000 0.0000
# 3 59.6515 18.6883 62.7832 0.0000 0.0000 0.0000
# 4 0.0000 0.0000 0.0000 -27.1693 0.0000 0.0000
# 5 0.0000 0.0000 0.0000 0.0000 35.7547 0.0000
# 6 0.0000 0.0000 0.0000 0.0000 0.0000 46.6263
#
#
#
# Elastic Compliance Matrix: (Units=1/GPa)
#
#
# Indices 1 2 3 4 5 6 
#
# 1 0.009896 -0.003875 -0.008249 0.000000 0.000000 0.000000
# 2 -0.003875 0.008165 0.001251 0.000000 0.000000 0.000000
# 3 -0.008249 0.001251 0.023393 0.000000 0.000000 0.000000
# 4 0.000000 0.000000 0.000000 -0.036806 0.000000 0.000000
# 5 0.000000 0.000000 0.000000 0.000000 0.027968 0.000000
# 6 0.000000 0.000000 0.000000 0.000000 0.000000 0.021447
#
#
# Mechanical properties :
#
#
# Convention : Reuss Voigt Hill
#
# Bulk Modulus (GPa) = 50.73901 78.83481 64.78691
# Shear Modulus (GPa) = 60.69422 27.34597 44.02010
#
# Velocity S-wave (km/s) = 5.02504 3.37297 4.27948
# Velocity P-wave (km/s) = 7.40116 6.92585 7.16745
#
# Compressibility (1/GPa) = 0.01970870
#
# Stress axis : x y z
#
# Youngs Moduli (GPa) = 101.04729 122.46988 42.74711
#
# Poissons Ratio (x) = 0.47452 0.35264
# Poissons Ratio (y) = 0.39152 -0.05347
# Poissons Ratio (z) = 0.83358 -0.15319
#
# Static dielectric constant tensor:
#      x y z
#    x 2.089550 0.000000 0.000000 
#    y 0.000000 1.880030 0.000000 
#    z 0.000000 0.000000 1.967010 
# 
# From -- ./inp_files/11854.got.cif
#   From: 2010.05.17/outbox.cif.g08.bks.cpg/sg20_6_cif.got.tgz:11854.got - 2010.06.03 22:52:26.
