data_PCOD9322749
_publ_section_title
;
Structure prediction by ZEFSAII (Michael W. Deem and Ramdas Pophale) SiO2 
 PCOD9322749
Probable space group: C 2 2 2
;
_chemical_formula_sum "Si O2"
_cell_formula_units_Z 60
_cell_length_a 28.681352
_cell_length_b 18.158074
_cell_length_c 5.911076
_cell_angle_alpha 90.000000
_cell_angle_beta 90.000000
_cell_angle_gamma 90.000000
_cell_volume 3078.477221
_symmetry_space_group_name_H-M "C 2 2 2"
_symmetry_group_IT_number 21
_symmetry_cell_setting 'orthorhombic'
loop_
_space_group_symop_operation_xyz
x,y,z
-x,-y,z
x,-y,-z
-x,y,-z
1/2+x,1/2+y,z
1/2-x,1/2-y,z
1/2+x,1/2-y,-z
1/2-x,1/2+y,-z
loop_
_atom_site_type_symbol
_atom_site_label
_atom_site_fract_x
_atom_site_fract_y
_atom_site_fract_z
Si Si1 0.738558 0.326372 0.225999
Si Si2 0.087970 0.741886 0.255544
Si Si3 0.309095 0.575126 0.607909
Si Si4 0.500000 0.762453 0.500000
Si Si5 0.365826 0.847160 0.648206
Si Si6 0.652864 0.695429 0.086343
Si Si7 0.214271 0.573864 0.884174
Si Si8 0.456082 0.134292 0.116646
O O1 0.750000 0.250000 0.349303
O O2 0.712823 0.378431 0.402287
O O3 0.703424 0.302701 0.027108
O O4 0.779011 0.368626 0.091086
O O5 0.045725 0.776536 0.401010
O O6 0.119586 0.686447 0.406276
O O7 0.117117 0.802988 0.122727
O O8 0.063944 0.688186 0.074567
O O9 0.327742 0.500000 0.500000
O O10 0.345239 0.626042 0.745588
O O11 0.265127 0.558197 0.774483
O O12 0.521104 0.815044 0.308647
O O13 0.357449 0.771023 0.784348
O O14 0.319421 0.894175 0.690390
O O15 0.409192 0.893593 0.757383
O O16 0.195819 0.500000 0.000000
O O17 0.500000 0.091967 0.000000
#
# Coordination Sequence:
#
# PCOD9322749 Si02
#       8
#     8   8   8   4   8   8   8   8
#     4  11  22  37  56  76 106 148 199 246 291 344
#     4   9  17  30  50  83 113 150 186 238 294 355
#     4  11  24  37  54  75 107 158 196 250 299 353
#     4   8  14  28  50  76 118 151 179 220 306 354
#     4  10  19  32  53  82 107 146 194 244 290 345
#     4  10  21  33  52  78 109 145 197 244 288 354
#     4  11  23  39  53  77 111 150 208 248 293 342
#     4   8  15  28  48  76 112 146 178 226 294 351
#
# _framework density 19.490155999999999
#
# number of rings (size 3 to 8) (size 9 to 14) (size 15 to 20)
#    0.000    2.133    2.667    0.800    3.733    0.000 
#    0.000    0.000    0.000    0.400    0.000    0.000 
#    0.000    0.000    0.000 1490.400    0.000    0.000 
#
# Total GULP energy -167068.653275 kJ/mol
# GULP energy per Si atom -5568.955109 kJ/mol
# Density = 1.944580 g / cm^3
# Si number density = 19.490156 Si / 1000 Ang^3
#
#
#
# Elastic Constant Matrix: (Units=GPa)
#
#
# Indices 1 2 3 4 5 6 
#
# 1 82.1183 19.2518 26.9983 0.0000 0.0000 0.0000
# 2 19.2518 76.3640 25.2018 0.0000 0.0000 0.0000
# 3 26.9983 25.2018 90.4550 0.0000 0.0000 0.0000
# 4 0.0000 0.0000 0.0000 19.0145 0.0000 0.0000
# 5 0.0000 0.0000 0.0000 0.0000 34.0905 0.0000
# 6 0.0000 0.0000 0.0000 0.0000 0.0000 1.2099
#
#
#
# Elastic Compliance Matrix: (Units=1/GPa)
#
#
# Indices 1 2 3 4 5 6 
#
# 1 0.013874 -0.002347 -0.003487 0.000000 0.000000 0.000000
# 2 -0.002347 0.014818 -0.003428 0.000000 0.000000 0.000000
# 3 -0.003487 -0.003428 0.013051 0.000000 0.000000 0.000000
# 4 0.000000 0.000000 0.000000 0.052592 0.000000 0.000000
# 5 0.000000 0.000000 0.000000 0.000000 0.029334 0.000000
# 6 0.000000 0.000000 0.000000 0.000000 0.000000 0.826505
#
#
# Mechanical properties :
#
#
# Convention : Reuss Voigt Hill
#
# Bulk Modulus (GPa) = 43.06766 43.53790 43.30278
# Shear Modulus (GPa) = 5.12065 22.69532 13.90799
#
# Velocity S-wave (km/s) = 1.62265 3.41611 2.67421
# Velocity P-wave (km/s) = 5.06515 6.16008 5.63925
#
# Compressibility (1/GPa) = 0.02321928
#
# Stress axis : x y z
#
# Youngs Moduli (GPa) = 72.07582 67.48467 76.62167
#
# Poissons Ratio (x) = 0.15838 0.26720
# Poissons Ratio (y) = 0.16916 0.26266
# Poissons Ratio (z) = 0.25134 0.23134
#
# Static dielectric constant tensor:
#      x y z
#    x 1.769730 0.000000 0.000000 
#    y 0.000000 1.655580 0.000000 
#    z 0.000000 0.000000 1.748050 
# 
# From -- ./inp_files/7478.got.cif
#   From: 2010.05.17/outbox.cif.g08.bks.cpg/sg21_4_cif.got.tgz:7478.got - 2010.06.03 23:14:55.
