data_PCOD9322956
_publ_section_title
;
Structure prediction by ZEFSAII (Michael W. Deem and Ramdas Pophale) SiO2 
 PCOD9322956
Probable space group: C 2 2 2
;
_chemical_formula_sum "Si O2"
_cell_formula_units_Z 40
_cell_length_a 15.850158
_cell_length_b 9.377708
_cell_length_c 13.550023
_cell_angle_alpha 90.000000
_cell_angle_beta 90.000000
_cell_angle_gamma 90.000000
_cell_volume 2014.050398
_symmetry_space_group_name_H-M "C 2 2 2"
_symmetry_group_IT_number 21
_symmetry_cell_setting 'orthorhombic'
loop_
_space_group_symop_operation_xyz
x,y,z
-x,-y,z
x,-y,-z
-x,y,-z
1/2+x,1/2+y,z
1/2-x,1/2-y,z
1/2+x,1/2-y,-z
1/2-x,1/2+y,-z
loop_
_atom_site_type_symbol
_atom_site_label
_atom_site_fract_x
_atom_site_fract_y
_atom_site_fract_z
Si Si1 0.004076 0.262058 0.383371
Si Si2 0.859184 0.517683 0.612276
Si Si3 0.751473 0.079634 0.772723
Si Si4 0.917602 0.428776 0.892695
Si Si5 0.061606 0.116344 0.182312
O O1 0.076656 0.383909 0.373034
O O2 0.027336 0.157866 0.292882
O O3 0.000000 0.213630 0.500000
O O4 0.914817 0.342162 0.367962
O O5 0.834401 0.500000 0.500000
O O6 0.776053 0.504463 0.676406
O O7 0.750000 0.250000 0.752542
O O8 0.673345 0.046396 0.844548
O O9 0.844862 0.051513 0.809400
O O10 0.933178 0.260221 0.882103
O O11 0.000000 0.500000 0.841878
O O12 0.914337 0.500000 0.000000
O O13 0.000000 0.000000 0.138560
#
# Coordination Sequence:
#
# PCOD9322956 Si02
#       5
#     8   8   8   8   8
#     4   9  17  32  58  86 124 173 218 254 297 374
#     4   9  16  31  57  89 116 167 232 257 281 363
#     4  10  19  36  62  87 123 167 206 266 317 375
#     4  10  21  42  71  93 113 164 219 258 316 399
#     4  11  23  40  60  93 135 166 200 270 344 374
#
# _framework density 19.860475000000001
#
# number of rings (size 3 to 8) (size 9 to 14) (size 15 to 20)
#    0.000    2.200    4.000    2.400    0.000    0.400 
#    3.600   18.000    0.000    0.000    0.000    0.000 
#    0.000    0.000    0.000    0.000    0.000    0.000 
#
# Total GULP energy -111460.191873 kJ/mol
# GULP energy per Si atom -5573.009594 kJ/mol
# Density = 1.981527 g / cm^3
# Si number density = 19.860475 Si / 1000 Ang^3
#
#
#
# Elastic Constant Matrix: (Units=GPa)
#
#
# Indices 1 2 3 4 5 6 
#
# 1 161.7586 56.1799 38.2385 0.0000 0.0000 0.0000
# 2 56.1799 48.1118 43.2031 0.0000 0.0000 0.0000
# 3 38.2385 43.2031 86.4706 0.0000 0.0000 0.0000
# 4 0.0000 0.0000 0.0000 5.8017 0.0000 0.0000
# 5 0.0000 0.0000 0.0000 0.0000 -5.9229 0.0000
# 6 0.0000 0.0000 0.0000 0.0000 0.0000 25.2367
#
#
#
# Elastic Compliance Matrix: (Units=1/GPa)
#
#
# Indices 1 2 3 4 5 6 
#
# 1 0.010749 -0.015024 0.002753 0.000000 0.000000 0.000000
# 2 -0.015024 0.058696 -0.022683 0.000000 0.000000 0.000000
# 3 0.002753 -0.022683 0.021680 0.000000 0.000000 0.000000
# 4 0.000000 0.000000 0.000000 0.172364 0.000000 0.000000
# 5 0.000000 0.000000 0.000000 0.000000 -0.168835 0.000000
# 6 0.000000 0.000000 0.000000 0.000000 0.000000 0.039625
#
#
# Mechanical properties :
#
#
# Convention : Reuss Voigt Hill
#
# Bulk Modulus (GPa) = 47.12831 63.50932 55.31881
# Shear Modulus (GPa) = 23.66767 15.60440 19.63604
#
# Velocity S-wave (km/s) = 3.45584 2.80608 3.14777
# Velocity P-wave (km/s) = 6.30119 6.52272 6.41291
#
# Compressibility (1/GPa) = 0.02121867
#
# Stress axis : x y z
#
# Youngs Moduli (GPa) = 93.03107 17.03692 46.12521
#
# Poissons Ratio (x) = 0.25596 -0.12697
# Poissons Ratio (y) = 1.39766 1.04624
# Poissons Ratio (z) = -0.25609 0.38644
#
# Static dielectric constant tensor:
#      x y z
#    x 1.688120 0.000000 0.000000 
#    y 0.000000 1.708530 0.000000 
#    z 0.000000 0.000000 1.789900 
# 
# From -- ./inp_files/30175.got.cif
#   From: 2010.05.17/outbox.cif.g08.bks.cpg/sg21_16_cif.got.tgz:30175.got - 2010.06.03 23:14:55.
