data_PCOD9322953
_publ_section_title
;
Structure prediction by ZEFSAII (Michael W. Deem and Ramdas Pophale) SiO2 
 PCOD9322953
Probable space group: C 2 2 2
;
_chemical_formula_sum "Si O2"
_cell_formula_units_Z 58
_cell_length_a 23.623015
_cell_length_b 14.705773
_cell_length_c 8.476227
_cell_angle_alpha 90.000000
_cell_angle_beta 90.000000
_cell_angle_gamma 90.000000
_cell_volume 2944.596303
_symmetry_space_group_name_H-M "C 2 2 2"
_symmetry_group_IT_number 21
_symmetry_cell_setting 'orthorhombic'
loop_
_space_group_symop_operation_xyz
x,y,z
-x,-y,z
x,-y,-z
-x,y,-z
1/2+x,1/2+y,z
1/2-x,1/2-y,z
1/2+x,1/2-y,-z
1/2-x,1/2+y,-z
loop_
_atom_site_type_symbol
_atom_site_label
_atom_site_fract_x
_atom_site_fract_y
_atom_site_fract_z
Si Si1 0.130141 0.865059 0.673585
Si Si2 0.491297 0.391689 0.179633
Si Si3 0.602041 0.684132 0.687068
Si Si4 0.289974 0.997161 0.686949
Si Si5 0.000000 0.500000 0.500000
Si Si6 0.319977 0.540625 0.172877
Si Si7 0.194757 0.302481 0.359371
Si Si8 0.892798 0.385523 0.378522
O O1 0.123164 0.844140 0.487698
O O2 0.165404 0.778652 0.735246
O O3 0.069890 0.868238 0.756336
O O4 0.158841 0.961466 0.707909
O O5 0.500000 0.500000 0.180980
O O6 0.538685 0.350233 0.291171
O O7 0.500000 0.360242 0.000000
O O8 0.641941 0.628828 0.804985
O O9 0.601311 0.791727 0.714359
O O10 0.285652 0.891542 0.735045
O O11 0.274664 0.000000 0.500000
O O12 0.245050 0.055994 0.782435
O O13 0.352515 0.038963 0.699728
O O14 0.953540 0.431649 0.417593
O O15 0.326648 0.500000 0.000000
O O16 0.250000 0.250000 0.433923
O O17 0.146895 0.348395 0.474402
#
# Coordination Sequence:
#
# PCOD9322953 Si02
#       8
#     8   8   8   8   2   8   8   8
#     4  11  22  36  62  91 120 166 208 265 316 389
#     4  11  23  39  57  85 130 168 206 259 325 395
#     4  11  24  38  62  96 124 168 219 267 326 398
#     4  10  20  41  62  92 124 170 209 270 333 382
#     4  12  20  44  64 100 148 164 224 290 354 368
#     4  12  24  39  59  90 134 175 209 265 332 404
#     4  10  19  36  61  97 124 159 214 263 325 388
#     4  10  24  36  66  97 134 167 211 283 334 385
#
# _framework density 19.697096999999999
#
# number of rings (size 3 to 8) (size 9 to 14) (size 15 to 20)
#    0.000    1.241    4.828    2.483    9.655    0.552 
#    0.000    4.138    0.000    0.000    0.000    0.966 
#    0.000    0.000    0.000    0.000    0.000    0.000 
#
# Total GULP energy -161662.554181 kJ/mol
# GULP energy per Si atom -5574.570834 kJ/mol
# Density = 1.965227 g / cm^3
# Si number density = 19.697097 Si / 1000 Ang^3
#
#
#
# Elastic Constant Matrix: (Units=GPa)
#
#
# Indices 1 2 3 4 5 6 
#
# 1 153.1223 55.7326 13.7061 0.0000 0.0000 0.0000
# 2 55.7326 137.5077 14.7266 0.0000 0.0000 0.0000
# 3 13.7061 14.7266 47.0254 0.0000 0.0000 0.0000
# 4 0.0000 0.0000 0.0000 8.7999 0.0000 0.0000
# 5 0.0000 0.0000 0.0000 0.0000 22.7143 0.0000
# 6 0.0000 0.0000 0.0000 0.0000 0.0000 -41.0617
#
#
#
# Elastic Compliance Matrix: (Units=1/GPa)
#
#
# Indices 1 2 3 4 5 6 
#
# 1 0.007739 -0.002996 -0.001318 0.000000 0.000000 0.000000
# 2 -0.002996 0.008684 -0.001846 0.000000 0.000000 0.000000
# 3 -0.001318 -0.001846 0.022227 0.000000 0.000000 0.000000
# 4 0.000000 0.000000 0.000000 0.113638 0.000000 0.000000
# 5 0.000000 0.000000 0.000000 0.000000 0.044025 0.000000
# 6 0.000000 0.000000 0.000000 0.000000 0.000000 -0.024354
#
#
# Mechanical properties :
#
#
# Convention : Reuss Voigt Hill
#
# Bulk Modulus (GPa) = 37.97744 56.22068 47.09906
# Shear Modulus (GPa) = 25.89920 14.98984 20.44452
#
# Velocity S-wave (km/s) = 3.63005 2.76165 3.22521
# Velocity P-wave (km/s) = 6.07390 6.22684 6.15085
#
# Compressibility (1/GPa) = 0.02633142
#
# Stress axis : x y z
#
# Youngs Moduli (GPa) = 129.21630 115.15186 44.98959
#
# Poissons Ratio (x) = 0.34494 0.05927
# Poissons Ratio (y) = 0.38707 0.08307
# Poissons Ratio (z) = 0.17024 0.21263
#
# Static dielectric constant tensor:
#      x y z
#    x 1.726350 0.000000 0.000000 
#    y 0.000000 1.722680 0.000000 
#    z 0.000000 0.000000 2.784690 
# 
# From -- ./inp_files/18625.got.cif
#   From: 2010.05.17/outbox.cif.g08.bks.cpg/sg21_10_cif.got.tgz:18625.got - 2010.06.03 23:14:55.
