data_PCOD9322416
_publ_section_title
;
Structure prediction by ZEFSAII (Michael W. Deem and Ramdas Pophale) SiO2 
 PCOD9322416
Probable space group: C 2 2 2
;
_chemical_formula_sum "Si O2"
_cell_formula_units_Z 48
_cell_length_a 7.768978
_cell_length_b 14.829719
_cell_length_c 18.609819
_cell_angle_alpha 90.000000
_cell_angle_beta 90.000000
_cell_angle_gamma 90.000000
_cell_volume 2144.070013
_symmetry_space_group_name_H-M "C 2 2 2"
_symmetry_group_IT_number 21
_symmetry_cell_setting 'orthorhombic'
loop_
_space_group_symop_operation_xyz
x,y,z
-x,-y,z
x,-y,-z
-x,y,-z
1/2+x,1/2+y,z
1/2-x,1/2-y,z
1/2+x,1/2-y,-z
1/2-x,1/2+y,-z
loop_
_atom_site_type_symbol
_atom_site_label
_atom_site_fract_x
_atom_site_fract_y
_atom_site_fract_z
Si Si1 0.817911 0.556294 0.843611
Si Si2 0.778828 0.351814 0.689942
Si Si3 0.659483 0.621681 0.148188
Si Si4 0.691088 0.852704 0.697382
Si Si5 0.290282 0.007100 0.581652
Si Si6 0.499029 0.216915 0.084781
O O1 0.683156 0.482707 0.871588
O O2 0.753452 0.589133 0.765964
O O3 0.000000 0.500000 0.835540
O O4 0.859828 0.644377 0.890336
O O5 0.750000 0.250000 0.665029
O O6 0.686298 0.367470 0.766153
O O7 0.726822 0.425099 0.631181
O O8 0.983777 0.358730 0.702049
O O9 0.504988 0.685881 0.123344
O O10 0.824333 0.667784 0.110075
O O11 0.750000 0.750000 0.702021
O O12 0.749748 0.901002 0.624170
O O13 0.500000 0.000000 0.580169
O O14 0.229256 0.000000 0.500000
O O15 0.500000 0.229470 0.000000
#
# Coordination Sequence:
#
# PCOD9322416 Si02
#       6
#     8   8   8   8   8   8
#     4  10  17  35  62  83 109 159 208 244 307 381
#     4  11  18  36  65  85 115 165 211 248 303 384
#     4  10  18  34  62  86 111 158 217 244 304 391
#     4  11  20  34  58  92 125 154 206 264 312 372
#     4   9  19  35  59  90 122 159 209 260 304 368
#     4  10  20  34  57  90 118 148 205 266 308 368
#
# _framework density 22.387326999999999
#
# number of rings (size 3 to 8) (size 9 to 14) (size 15 to 20)
#    0.000    1.833    6.667    0.500    0.000    3.667 
#    3.000    0.833    0.000    3.000    0.000    0.000 
#    0.000    0.000    0.000    0.000    0.000    0.000 
#
# Total GULP energy -134169.126214 kJ/mol
# GULP energy per Si atom -5590.380259 kJ/mol
# Density = 2.233637 g / cm^3
# Si number density = 22.387327 Si / 1000 Ang^3
#
#
#
# Elastic Constant Matrix: (Units=GPa)
#
#
# Indices 1 2 3 4 5 6 
#
# 1 77.7224 40.6243 25.2022 0.0000 0.0000 0.0000
# 2 40.6243 208.5328 82.1467 0.0000 0.0000 0.0000
# 3 25.2022 82.1467 184.1125 0.0000 0.0000 0.0000
# 4 0.0000 0.0000 0.0000 23.7470 0.0000 0.0000
# 5 0.0000 0.0000 0.0000 0.0000 -157.2628 0.0000
# 6 0.0000 0.0000 0.0000 0.0000 0.0000 20.0337
#
#
#
# Elastic Compliance Matrix: (Units=1/GPa)
#
#
# Indices 1 2 3 4 5 6 
#
# 1 0.014440 -0.002468 -0.000875 0.000000 0.000000 0.000000
# 2 -0.002468 0.006240 -0.002446 0.000000 0.000000 0.000000
# 3 -0.000875 -0.002446 0.006643 0.000000 0.000000 0.000000
# 4 0.000000 0.000000 0.000000 0.042111 0.000000 0.000000
# 5 0.000000 0.000000 0.000000 0.000000 -0.006359 0.000000
# 6 0.000000 0.000000 0.000000 0.000000 0.000000 0.049916
#
#
# Mechanical properties :
#
#
# Convention : Reuss Voigt Hill
#
# Bulk Modulus (GPa) = 63.51966 85.14602 74.33284
# Shear Modulus (GPa) = 38.51550 -1.20343 18.65603
#
# Velocity S-wave (km/s) = 4.15229 -0.73397 2.88988
# Velocity P-wave (km/s) = 7.17100 6.11534 6.66411
#
# Compressibility (1/GPa) = 0.01574316
#
# Stress axis : x y z
#
# Youngs Moduli (GPa) = 69.25073 160.25925 150.54048
#
# Poissons Ratio (x) = 0.39557 0.13178
# Poissons Ratio (y) = 0.17093 0.36826
# Poissons Ratio (z) = 0.06062 0.39203
#
# Static dielectric constant tensor:
#      x y z
#    x 1.900180 0.000000 0.000000 
#    y 0.000000 1.852440 0.000000 
#    z 0.000000 0.000000 1.772100 
# 
# From -- ./inp_files/35690.got.cif
#   From: 2010.05.17/outbox.cif.g08.bks.cpg/sg21_18_cif.got.tgz:35690.got - 2010.06.03 23:14:55.
