data_PCOD9322365
_publ_section_title
;
Structure prediction by ZEFSAII (Michael W. Deem and Ramdas Pophale) SiO2 
 PCOD9322365
Probable space group: C 2 2 2
;
_chemical_formula_sum "Si O2"
_cell_formula_units_Z 64
_cell_length_a 22.019822
_cell_length_b 9.311237
_cell_length_c 15.112319
_cell_angle_alpha 90.000000
_cell_angle_beta 90.000000
_cell_angle_gamma 90.000000
_cell_volume 3098.505685
_symmetry_space_group_name_H-M "C 2 2 2"
_symmetry_group_IT_number 21
_symmetry_cell_setting 'orthorhombic'
loop_
_space_group_symop_operation_xyz
x,y,z
-x,-y,z
x,-y,-z
-x,y,-z
1/2+x,1/2+y,z
1/2-x,1/2-y,z
1/2+x,1/2-y,-z
1/2-x,1/2+y,-z
loop_
_atom_site_type_symbol
_atom_site_label
_atom_site_fract_x
_atom_site_fract_y
_atom_site_fract_z
Si Si1 0.854264 0.757177 0.648452
Si Si2 0.406488 0.318693 0.231987
Si Si3 0.191231 0.839997 0.038378
Si Si4 0.916914 0.030717 0.598795
Si Si5 0.158124 0.458901 0.280233
Si Si6 0.208114 0.964286 0.229602
Si Si7 0.678767 0.768314 0.449937
Si Si8 0.062529 0.164046 0.033797
O O1 0.864925 0.621011 0.709942
O O2 0.800968 0.858101 0.687279
O O3 0.840374 0.702451 0.550149
O O4 0.907385 0.873822 0.639977
O O5 0.441828 0.370494 0.320841
O O6 0.386248 0.153157 0.233746
O O7 0.343972 0.413525 0.230768
O O8 0.438686 0.343982 0.139546
O O9 0.250000 0.750000 0.010262
O O10 0.195187 0.866853 0.143633
O O11 0.127070 0.776952 0.003386
O O12 0.196556 0.000000 0.000000
O O13 0.855257 0.120706 0.576666
O O14 0.940994 0.000000 0.500000
O O15 0.224896 0.468498 0.235757
O O16 0.163429 0.388476 0.377958
O O17 0.750000 0.750000 0.446731
O O18 0.000000 0.233304 0.000000
O O19 0.063225 0.000000 0.000000
#
# Coordination Sequence:
#
# PCOD9322365 Si02
#       8
#     8   8   8   8   8   8   8   8
#     4  10  19  28  42  66 110 157 207 243 290 359
#     4  10  19  33  53  78 109 147 198 246 306 358
#     4  11  23  38  60  92 121 152 195 250 313 373
#     4   8  17  30  45  69 110 152 196 246 298 355
#     4  11  20  27  46  75 112 152 195 249 303 364
#     4  11  20  34  46  76 111 153 194 244 304 364
#     4  10  17  27  39  64 102 159 206 245 286 347
#     4  10  21  41  65  90 116 152 209 258 304 373
#
# _framework density 20.655118000000002
#
# number of rings (size 3 to 8) (size 9 to 14) (size 15 to 20)
#    0.000    1.875    2.500    4.875    1.750    2.000 
#    0.000    0.000    0.000    0.375    0.000    5.250 
#    0.000    0.000    0.000    7.750    2.500    3.000 
#
# Total GULP energy -178389.912482 kJ/mol
# GULP energy per Si atom -5574.684765 kJ/mol
# Density = 2.060811 g / cm^3
# Si number density = 20.655118 Si / 1000 Ang^3
#
#
#
# Elastic Constant Matrix: (Units=GPa)
#
#
# Indices 1 2 3 4 5 6 
#
# 1 101.7439 28.7250 27.8669 0.0000 0.0000 0.0000
# 2 28.7250 93.6439 6.1540 0.0000 0.0000 0.0000
# 3 27.8669 6.1540 126.3772 0.0000 0.0000 0.0000
# 4 0.0000 0.0000 0.0000 19.9899 0.0000 0.0000
# 5 0.0000 0.0000 0.0000 0.0000 176.9937 0.0000
# 6 0.0000 0.0000 0.0000 0.0000 0.0000 -11.9364
#
#
#
# Elastic Compliance Matrix: (Units=1/GPa)
#
#
# Indices 1 2 3 4 5 6 
#
# 1 0.011419 -0.003348 -0.002355 0.000000 0.000000 0.000000
# 2 -0.003348 0.011695 0.000169 0.000000 0.000000 0.000000
# 3 -0.002355 0.000169 0.008424 0.000000 0.000000 0.000000
# 4 0.000000 0.000000 0.000000 0.050025 0.000000 0.000000
# 5 0.000000 0.000000 0.000000 0.000000 0.005650 0.000000
# 6 0.000000 0.000000 0.000000 0.000000 0.000000 -0.083777
#
#
# Mechanical properties :
#
#
# Convention : Reuss Voigt Hill
#
# Bulk Modulus (GPa) = 48.85388 49.69519 49.27453
# Shear Modulus (GPa) = 234.45447 54.27738 144.36593
#
# Velocity S-wave (km/s) = 10.66563 5.13176 8.36931
# Velocity P-wave (km/s) = 13.24302 7.69578 10.83057
#
# Compressibility (1/GPa) = 0.02046920
#
# Stress axis : x y z
#
# Youngs Moduli (GPa) = 87.57494 85.50934 118.71034
#
# Poissons Ratio (x) = 0.28628 0.27955
# Poissons Ratio (y) = 0.29319 -0.02003
# Poissons Ratio (z) = 0.20623 -0.01443
#
# Static dielectric constant tensor:
#      x y z
#    x 1.789680 0.000000 0.000000 
#    y 0.000000 1.739280 0.000000 
#    z 0.000000 0.000000 1.779460 
# 
# From -- ./inp_files/33644.got.cif
#   From: 2010.05.17/outbox.cif.g08.bks.cpg/sg21_17_cif.got.tgz:33644.got - 2010.06.03 23:14:55.
