data_PCOD9322857
_publ_section_title
;
Structure prediction by ZEFSAII (Michael W. Deem and Ramdas Pophale) SiO2 
 PCOD9322857
Probable space group: C 2 2 2
;
_chemical_formula_sum "Si O2"
_cell_formula_units_Z 64
_cell_length_a 5.500490
_cell_length_b 26.938358
_cell_length_c 18.168483
_cell_angle_alpha 90.000000
_cell_angle_beta 90.000000
_cell_angle_gamma 90.000000
_cell_volume 2692.099867
_symmetry_space_group_name_H-M "C 2 2 2"
_symmetry_group_IT_number 21
_symmetry_cell_setting 'orthorhombic'
loop_
_space_group_symop_operation_xyz
x,y,z
-x,-y,z
x,-y,-z
-x,y,-z
1/2+x,1/2+y,z
1/2-x,1/2-y,z
1/2+x,1/2-y,-z
1/2-x,1/2+y,-z
loop_
_atom_site_type_symbol
_atom_site_label
_atom_site_fract_x
_atom_site_fract_y
_atom_site_fract_z
Si Si1 0.250000 0.810528 0.788243
Si Si2 0.750000 0.937197 0.541628
Si Si3 0.750000 0.167735 0.028082
Si Si4 0.750000 0.681481 0.540530
Si Si5 0.250000 0.194300 0.713183
Si Si6 0.750000 0.402713 0.899954
Si Si7 0.250000 0.030168 0.710977
Si Si8 0.250000 0.592603 0.151247
O O1 0.250000 0.750000 0.804580
O O2 0.490015 0.824427 0.741559
O O3 0.250000 0.849585 0.855277
O O4 0.009985 0.824427 0.741559
O O5 0.500000 0.950448 0.500000
O O6 0.750000 0.877839 0.543052
O O7 0.750000 0.956511 0.624751
O O8 0.000000 0.950448 0.500000
O O9 0.750000 0.148606 0.112683
O O10 0.500000 0.192380 0.000000
O O11 0.750000 0.115774 0.983045
O O12 0.000000 0.192380 0.000000
O O13 0.500000 0.696619 0.500000
O O14 0.750000 0.696334 0.625453
O O15 0.000000 0.696619 0.500000
O O16 0.250000 0.250000 0.743776
O O17 0.502901 0.429114 0.878182
O O18 0.997099 0.429114 0.878182
O O19 0.250000 0.079093 0.762621
O O20 0.500000 0.000000 0.725624
O O21 0.000000 0.000000 0.725624
#
# Coordination Sequence:
#
# PCOD9322857 Si02
#       8
#     8   8   8   8   8   8   8   8
#     4  10  21  34  52  85 123 156 195 246 292 336
#     4  10  23  41  60  85 116 153 194 239 287 341
#     4   8  16  32  56  82 114 142 190 233 276 333
#     4  10  21  37  56  82 112 149 197 245 285 347
#     4  10  21  36  53  81 122 159 195 242 301 347
#     4  10  19  34  62  87 112 162 198 237 278 349
#     4  12  26  42  62  90 120 150 191 240 296 360
#     4  10  21  38  60  90 116 146 192 245 284 344
#
# _framework density 23.773264000000001
#
# number of rings (size 3 to 8) (size 9 to 14) (size 15 to 20)
#    0.000    2.000    0.000    3.000    3.500    2.000 
#    0.000    0.000    0.000   27.000    0.000    0.000 
#    0.000    0.000    0.000    0.000    0.000    0.000 
#
# Total GULP energy -178454.975388 kJ/mol
# GULP energy per Si atom -5576.717981 kJ/mol
# Density = 2.371915 g / cm^3
# Si number density = 23.773264 Si / 1000 Ang^3
#
#
#
# Elastic Constant Matrix: (Units=GPa)
#
#
# Indices 1 2 3 4 5 6 
#
# 1 274.4015 35.8604 67.2829 0.0000 0.0000 0.0000
# 2 35.8604 101.6193 24.4344 0.0000 0.0000 0.0000
# 3 67.2829 24.4344 141.0154 0.0000 0.0000 0.0000
# 4 0.0000 0.0000 0.0000 -197.3220 0.0000 0.0000
# 5 0.0000 0.0000 0.0000 0.0000 44.2596 0.0000
# 6 0.0000 0.0000 0.0000 0.0000 0.0000 -33.7488
#
#
#
# Elastic Compliance Matrix: (Units=1/GPa)
#
#
# Indices 1 2 3 4 5 6 
#
# 1 0.004232 -0.001052 -0.001837 0.000000 0.000000 0.000000
# 2 -0.001052 0.010530 -0.001323 0.000000 0.000000 0.000000
# 3 -0.001837 -0.001323 0.008197 0.000000 0.000000 0.000000
# 4 0.000000 0.000000 0.000000 -0.005068 0.000000 0.000000
# 5 0.000000 0.000000 0.000000 0.000000 0.022594 0.000000
# 6 0.000000 0.000000 0.000000 0.000000 0.000000 -0.029631
#
#
# Mechanical properties :
#
#
# Convention : Reuss Voigt Hill
#
# Bulk Modulus (GPa) = 68.79439 85.79906 77.29673
# Shear Modulus (GPa) = 207.27007 -11.39834 97.93586
#
# Velocity S-wave (km/s) = 9.34749 -2.19203 6.42536
# Velocity P-wave (km/s) = 12.06239 5.45548 9.36118
#
# Compressibility (1/GPa) = 0.01453607
#
# Stress axis : x y z
#
# Youngs Moduli (GPa) = 236.28415 94.96801 121.99378
#
# Poissons Ratio (x) = 0.09988 0.22411
# Poissons Ratio (y) = 0.24852 0.16136
# Poissons Ratio (z) = 0.43407 0.12562
#
# Static dielectric constant tensor:
#      x y z
#    x 1.995170 0.000000 0.000000 
#    y 0.000000 1.923290 0.000000 
#    z 0.000000 0.000000 1.891720 
# 
# From -- ./inp_files/35281.got.cif
#   From: 2010.05.17/outbox.cif.g08.bks.cpg/sg21_18_cif.got.tgz:35281.got - 2010.06.03 23:14:55.
