data_PCOD9322744
_publ_section_title
;
Structure prediction by ZEFSAII (Michael W. Deem and Ramdas Pophale) SiO2 
 PCOD9322744
Probable space group: C 2 2 2
;
_chemical_formula_sum "Si O2"
_cell_formula_units_Z 56
_cell_length_a 20.380392
_cell_length_b 15.295710
_cell_length_c 9.271982
_cell_angle_alpha 90.000000
_cell_angle_beta 90.000000
_cell_angle_gamma 90.000000
_cell_volume 2890.378738
_symmetry_space_group_name_H-M "C 2 2 2"
_symmetry_group_IT_number 21
_symmetry_cell_setting 'orthorhombic'
loop_
_space_group_symop_operation_xyz
x,y,z
-x,-y,z
x,-y,-z
-x,y,-z
1/2+x,1/2+y,z
1/2-x,1/2-y,z
1/2+x,1/2-y,-z
1/2-x,1/2+y,-z
loop_
_atom_site_type_symbol
_atom_site_label
_atom_site_fract_x
_atom_site_fract_y
_atom_site_fract_z
Si Si1 0.291334 0.165247 0.873129
Si Si2 0.266200 0.351154 0.167729
Si Si3 0.526830 0.289949 0.347825
Si Si4 0.888532 0.040451 0.343600
Si Si5 0.731901 0.985003 0.664514
Si Si6 0.916008 0.883372 0.160122
Si Si7 0.069114 0.734415 0.063895
O O1 0.250000 0.250000 0.819466
O O2 0.302118 0.093388 0.750968
O O3 0.358798 0.193106 0.954500
O O4 0.245169 0.127159 0.999599
O O5 0.250000 0.250000 0.191104
O O6 0.225701 0.421862 0.256712
O O7 0.342045 0.361848 0.204678
O O8 0.500000 0.258669 0.500000
O O9 0.582070 0.363938 0.357268
O O10 0.466516 0.334621 0.263694
O O11 0.557683 0.224495 0.234217
O O12 0.809835 0.039381 0.331341
O O13 0.906034 0.000000 0.500000
O O14 0.918906 0.985722 0.207687
O O15 0.712149 0.000000 0.500000
O O16 0.925533 0.833963 0.004959
O O17 0.000000 0.699613 0.000000
#
# Coordination Sequence:
#
# PCOD9322744 Si02
#       7
#     8   8   8   8   8   8   8
#     4  11  20  40  66  88 122 167 210 255 321 369
#     4  10  20  38  64  88 117 163 205 259 314 363
#     4  11  21  34  54  80 123 169 202 241 305 376
#     4  10  19  32  53  77 123 166 200 235 302 368
#     4  10  23  38  57  94 126 159 208 264 306 377
#     4  10  19  34  54  82 117 153 209 246 284 372
#     4  10  22  38  56  88 116 154 209 264 304 366
#
# _framework density 19.374621999999999
#
# number of rings (size 3 to 8) (size 9 to 14) (size 15 to 20)
#    0.000    1.714    4.286    1.714    0.000    1.143 
#    2.571    2.143    0.000    1.714    0.000    1.000 
#    0.000    0.000    0.000    0.000    0.000    0.000 
#
# Total GULP energy -155876.648369 kJ/mol
# GULP energy per Si atom -5567.023156 kJ/mol
# Density = 1.933052 g / cm^3
# Si number density = 19.374622 Si / 1000 Ang^3
#
#
#
# Elastic Constant Matrix: (Units=GPa)
#
#
# Indices 1 2 3 4 5 6 
#
# 1 55.3538 5.6993 -16.3689 0.0000 0.0000 0.0000
# 2 5.6993 64.4222 39.9019 0.0000 0.0000 0.0000
# 3 -16.3689 39.9019 85.5565 0.0000 0.0000 0.0000
# 4 0.0000 0.0000 0.0000 16.8991 0.0000 0.0000
# 5 0.0000 0.0000 0.0000 0.0000 20.1576 0.0000
# 6 0.0000 0.0000 0.0000 0.0000 0.0000 19.6971
#
#
#
# Elastic Compliance Matrix: (Units=1/GPa)
#
#
# Indices 1 2 3 4 5 6 
#
# 1 0.020686 -0.006021 0.006766 0.000000 0.000000 0.000000
# 2 -0.006021 0.023580 -0.012149 0.000000 0.000000 0.000000
# 3 0.006766 -0.012149 0.018649 0.000000 0.000000 0.000000
# 4 0.000000 0.000000 0.000000 0.059175 0.000000 0.000000
# 5 0.000000 0.000000 0.000000 0.000000 0.049609 0.000000
# 6 0.000000 0.000000 0.000000 0.000000 0.000000 0.050769
#
#
# Mechanical properties :
#
#
# Convention : Reuss Voigt Hill
#
# Bulk Modulus (GPa) = 24.93341 29.31079 27.12210
# Shear Modulus (GPa) = 19.33150 23.09078 21.21114
#
# Velocity S-wave (km/s) = 3.16218 3.45600 3.31235
# Velocity P-wave (km/s) = 5.12148 5.57553 5.35332
#
# Compressibility (1/GPa) = 0.04010682
#
# Stress axis : x y z
#
# Youngs Moduli (GPa) = 48.34142 42.40833 53.62274
#
# Poissons Ratio (x) = 0.25532 -0.36279
# Poissons Ratio (y) = 0.29104 0.65148
# Poissons Ratio (z) = -0.32706 0.51523
#
# Static dielectric constant tensor:
#      x y z
#    x 1.703220 0.000000 0.000000 
#    y 0.000000 1.703240 0.000000 
#    z 0.000000 0.000000 1.698760 
# 
# From -- ./inp_files/17695.got.cif
#   From: 2010.05.17/outbox.cif.g08.bks.cpg/sg21_9_cif.got.tgz:17695.got - 2010.06.03 23:14:55.
