data_PCOD9322519
_publ_section_title
;
Structure prediction by ZEFSAII (Michael W. Deem and Ramdas Pophale) SiO2 
 PCOD9322519
Probable space group: C 2 2 2
;
_chemical_formula_sum "Si O2"
_cell_formula_units_Z 48
_cell_length_a 13.518346
_cell_length_b 20.439473
_cell_length_c 9.045762
_cell_angle_alpha 90.000000
_cell_angle_beta 90.000000
_cell_angle_gamma 90.000000
_cell_volume 2499.415213
_symmetry_space_group_name_H-M "C 2 2 2"
_symmetry_group_IT_number 21
_symmetry_cell_setting 'orthorhombic'
loop_
_space_group_symop_operation_xyz
x,y,z
-x,-y,z
x,-y,-z
-x,y,-z
1/2+x,1/2+y,z
1/2-x,1/2-y,z
1/2+x,1/2-y,-z
1/2-x,1/2+y,-z
loop_
_atom_site_type_symbol
_atom_site_label
_atom_site_fract_x
_atom_site_fract_y
_atom_site_fract_z
Si Si1 0.701113 0.318791 0.838490
Si Si2 0.040168 0.664645 0.170750
Si Si3 0.907049 0.103641 0.095314
Si Si4 0.494330 0.300819 0.325522
Si Si5 0.806091 0.435940 0.153981
Si Si6 0.862639 0.426670 0.811107
O O1 0.750000 0.250000 0.877095
O O2 0.620139 0.306574 0.715775
O O3 0.778136 0.373040 0.782232
O O4 0.643946 0.345484 0.981922
O O5 0.149114 0.634219 0.199672
O O6 0.029535 0.731827 0.257903
O O7 0.965694 0.607451 0.225342
O O8 0.000000 0.676651 0.000000
O O9 0.812853 0.059615 0.140421
O O10 0.949223 0.141561 0.237117
O O11 0.000000 0.075965 0.000000
O O12 0.500000 0.304384 0.500000
O O13 0.843731 0.499550 0.242351
O O14 0.852797 0.435571 0.988775
#
# Coordination Sequence:
#
# PCOD9322519 Si02
#       6
#     8   8   8   8   8   8
#     4  10  18  35  59  81 107 143 182 228 283 330
#     4  10  18  32  57  83 114 142 178 229 282 334
#     4   9  20  35  57  81 111 146 186 233 278 327
#     4  11  23  37  52  81 114 147 190 231 279 330
#     4   9  18  31  53  89 109 141 180 232 278 331
#     4   9  17  31  55  84 115 137 178 228 285 333
#
# _framework density 19.204492999999999
#
# number of rings (size 3 to 8) (size 9 to 14) (size 15 to 20)
#    0.000    2.333    1.667    2.000    4.667    2.000 
#    3.000   14.167    0.000    6.000    0.000    0.000 
#    0.000    0.000    0.000    0.000    0.000    0.000 
#
# Total GULP energy -133636.122162 kJ/mol
# GULP energy per Si atom -5568.171757 kJ/mol
# Density = 1.916078 g / cm^3
# Si number density = 19.204493 Si / 1000 Ang^3
#
#
#
# Elastic Constant Matrix: (Units=GPa)
#
#
# Indices 1 2 3 4 5 6 
#
# 1 58.6871 -2.0812 6.8966 0.0000 0.0000 0.0000
# 2 -2.0812 60.7492 15.3993 0.0000 0.0000 0.0000
# 3 6.8966 15.3993 55.5899 0.0000 0.0000 0.0000
# 4 0.0000 0.0000 0.0000 -2.3860 0.0000 0.0000
# 5 0.0000 0.0000 0.0000 0.0000 4.5566 0.0000
# 6 0.0000 0.0000 0.0000 0.0000 0.0000 -25.3113
#
#
#
# Elastic Compliance Matrix: (Units=1/GPa)
#
#
# Indices 1 2 3 4 5 6 
#
# 1 0.017376 0.001228 -0.002496 0.000000 0.000000 0.000000
# 2 0.001228 0.017791 -0.005081 0.000000 0.000000 0.000000
# 3 -0.002496 -0.005081 0.019706 0.000000 0.000000 0.000000
# 4 0.000000 0.000000 0.000000 -0.419103 0.000000 0.000000
# 5 0.000000 0.000000 0.000000 0.000000 0.219460 0.000000
# 6 0.000000 0.000000 0.000000 0.000000 0.000000 -0.039508
#
#
# Mechanical properties :
#
#
# Convention : Reuss Voigt Hill
#
# Bulk Modulus (GPa) = 23.71014 23.93952 23.82483
# Shear Modulus (GPa) = -31.74160 5.69262 -13.02449
#
# Velocity S-wave (km/s) = -4.06990 1.72356 -2.60705
# Velocity P-wave (km/s) = 3.11649 4.05629 1.83589
#
# Compressibility (1/GPa) = 0.04217604
#
# Stress axis : x y z
#
# Youngs Moduli (GPa) = 57.54941 56.20784 50.74593
#
# Poissons Ratio (x) = -0.06902 0.12666
# Poissons Ratio (y) = -0.07067 0.25783
# Poissons Ratio (z) = 0.14364 0.28558
#
# Static dielectric constant tensor:
#      x y z
#    x 1.733780 0.000000 0.000000 
#    y 0.000000 1.756690 0.000000 
#    z 0.000000 0.000000 1.664310 
# 
# From -- ./inp_files/15160.got.cif
#   From: 2010.05.17/outbox.cif.g08.bks.cpg/sg21_8_cif.got.tgz:15160.got - 2010.06.03 23:14:55.
