data_PCOD9322234
_publ_section_title
;
Structure prediction by ZEFSAII (Michael W. Deem and Ramdas Pophale) SiO2 
 PCOD9322234
Probable space group: C 2 2 21
;
_chemical_formula_sum "Si O2"
_cell_formula_units_Z 24
_cell_length_a 9.000000
_cell_length_b 15.000000
_cell_length_c 18.000000
_cell_angle_alpha 90.000000
_cell_angle_beta 90.000000
_cell_angle_gamma 90.000000
_cell_volume 2430.000000
_symmetry_space_group_name_H-M "C 2 2 21"
_symmetry_group_IT_number 20
_symmetry_cell_setting 'orthorhombic'
loop_
_space_group_symop_operation_xyz
x,y,z
-x,-y,1/2+z
x,-y,-z
-x,y,1/2-z
1/2+x,1/2+y,z
1/2-x,1/2-y,1/2+z
1/2+x,1/2-y,-z
1/2-x,1/2+y,1/2-z
loop_
_atom_site_type_symbol
_atom_site_label
_atom_site_fract_x
_atom_site_fract_y
_atom_site_fract_z
Si Si1 0.090416 0.905582 0.468161
Si Si2 0.604757 0.749799 0.412158
Si Si3 0.666982 0.017587 0.732147
Si Si4 0.204971 0.682790 0.843028
Si Si5 0.822363 0.835165 0.762709
Si Si6 0.749763 0.931308 0.435393
O O1 0.073665 0.832965 0.533724
O O2 0.189883 0.859129 0.405361
O O3 0.928489 0.928366 0.435433
O O4 0.151732 0.000000 0.500000
O O5 0.452737 0.792615 0.380531
O O6 0.698180 0.710949 0.342663
O O7 0.691105 0.831492 0.450085
O O8 0.500000 0.988284 0.750000
O O9 0.689296 0.107976 0.779169
O O10 0.692473 0.037996 0.645326
O O11 0.770856 0.936602 0.757844
O O12 0.252062 0.773818 0.801020
O O13 0.000000 0.832386 0.750000
O O14 0.703481 0.000000 0.500000
#
# Coordination Sequence:
#
# PCOD9322234 Si02
#       6
#     8   8   8   8   8   8
#     4  11  26  41  68 102 135 176 231 279 339 404
#     4  11  22  48  66  97 138 176 219 280 345 403
#     4  12  24  46  67  97 137 177 230 277 338 404
#     4  11  23  45  68  99 133 180 225 275 341 410
#     4  10  24  41  71  95 132 178 221 280 339 399
#     4  11  26  44  66  99 137 179 226 281 340 399
#
# _framework density 9.8765429999999999
#
# number of rings (size 3 to 8) (size 9 to 14) (size 15 to 20)
#    0.000    1.000    3.333    2.500   14.000    2.000 
#    3.000    0.000    0.000    0.000    0.000    0.000 
#    0.000    0.000    0.000    0.000    0.000    0.000 
#
# Total GULP energy -134146.569457 kJ/mol
# GULP energy per Si atom -5589.440394 kJ/mol
# Density = 0.985406 g / cm^3
# Si number density = 9.876543 Si / 1000 Ang^3
#
#
#
# Elastic Constant Matrix: (Units=GPa)
#
#
# Indices 1 2 3 4 5 6 
#
# 1 42.7298 24.8784 38.9450 0.0000 0.0000 0.0000
# 2 24.8784 138.4979 56.2526 0.0000 0.0000 0.0000
# 3 38.9450 56.2526 133.3784 0.0000 0.0000 0.0000
# 4 0.0000 0.0000 0.0000 42.4333 0.0000 0.0000
# 5 0.0000 0.0000 0.0000 0.0000 26.4741 0.0000
# 6 0.0000 0.0000 0.0000 0.0000 0.0000 39.3968
#
#
#
# Elastic Compliance Matrix: (Units=1/GPa)
#
#
# Indices 1 2 3 4 5 6 
#
# 1 0.032535 -0.002396 -0.008489 0.000000 0.000000 0.000000
# 2 -0.002396 0.008889 -0.003049 0.000000 0.000000 0.000000
# 3 -0.008489 -0.003049 0.011262 0.000000 0.000000 0.000000
# 4 0.000000 0.000000 0.000000 0.023566 0.000000 0.000000
# 5 0.000000 0.000000 0.000000 0.000000 0.037773 0.000000
# 6 0.000000 0.000000 0.000000 0.000000 0.000000 0.025383
#
#
# Mechanical properties :
#
#
# Convention : Reuss Voigt Hill
#
# Bulk Modulus (GPa) = 40.29491 61.63978 50.96734
# Shear Modulus (GPa) = 28.48169 34.62952 31.55561
#
# Velocity S-wave (km/s) = 3.80134 4.19157 4.00121
# Velocity P-wave (km/s) = 6.30162 7.39585 6.87055
#
# Compressibility (1/GPa) = 0.02481703
#
# Stress axis : x y z
#
# Youngs Moduli (GPa) = 30.73577 112.49451 88.79143
#
# Poissons Ratio (x) = 0.26957 0.75378
# Poissons Ratio (y) = 0.07365 0.27076
# Poissons Ratio (z) = 0.26093 0.34304
#
# Static dielectric constant tensor:
#      x y z
#    x 1.687270 0.000000 0.000000 
#    y 0.000000 1.681240 0.000000 
#    z 0.000000 0.000000 1.699050 
# 
# From -- ./inp_files/23433.got.cif
#   From: 2010.05.17/outbox.ucp.g08.bks.cvg/sg20_12_cif.got.tgz:23433.got - 2010.06.11 15:13:06.
