data_PCOD9322144
_publ_section_title
;
Structure prediction by ZEFSAII (Michael W. Deem and Ramdas Pophale) SiO2 
 PCOD9322144
Probable space group: C 2 2 21
;
_chemical_formula_sum "Si O2"
_cell_formula_units_Z 24
_cell_length_a 7.776926
_cell_length_b 25.977261
_cell_length_c 5.076536
_cell_angle_alpha 90.000000
_cell_angle_beta 90.000000
_cell_angle_gamma 90.000000
_cell_volume 1025.578233
_symmetry_space_group_name_H-M "C 2 2 21"
_symmetry_group_IT_number 20
_symmetry_cell_setting 'orthorhombic'
loop_
_space_group_symop_operation_xyz
x,y,z
-x,-y,1/2+z
x,-y,-z
-x,y,1/2-z
1/2+x,1/2+y,z
1/2-x,1/2-y,1/2+z
1/2+x,1/2-y,-z
1/2-x,1/2+y,1/2-z
loop_
_atom_site_type_symbol
_atom_site_label
_atom_site_fract_x
_atom_site_fract_y
_atom_site_fract_z
Si Si1 0.000000 0.462775 0.750000
Si Si2 0.184960 0.105444 0.394716
Si Si3 0.500000 0.536194 0.750000
Si Si4 0.808760 0.279665 0.635259
O O1 0.833435 0.425935 0.752925
O O2 0.993249 0.500000 0.500000
O O3 0.152962 0.073668 0.662669
O O4 0.241340 0.163792 0.436203
O O5 0.000000 0.105367 0.250000
O O6 0.464418 0.500000 0.500000
O O7 0.799866 0.244823 0.374825
O O8 0.000000 0.283038 0.750000
#
# Coordination Sequence:
#
# PCOD9322144 Si02
#       4
#     4   8   4   8
#     4  12  32  48  77 116 159 208 272 322 384 472
#     4  12  29  52  81 117 159 211 261 329 398 466
#     4  12  28  48  81 116 157 214 262 312 394 470
#     4  12  28  53  81 119 157 205 263 329 397 475
#
# _framework density 23.401430999999999
#
# number of rings (size 3 to 8) (size 9 to 14) (size 15 to 20)
#    0.000    0.000    3.333    4.000   16.333    0.000 
#    0.000    0.000    0.000    0.000    0.000    0.000 
#    0.000    0.000    0.000    0.000    0.000    0.000 
#
# Total GULP energy -67304.373652 kJ/mol
# GULP energy per Si atom -5608.697804 kJ/mol
# Density = 2.334817 g / cm^3
# Si number density = 23.401431 Si / 1000 Ang^3
#
#
#
# Elastic Constant Matrix: (Units=GPa)
#
#
# Indices 1 2 3 4 5 6 
#
# 1 148.7222 62.0918 30.2006 0.0000 0.0000 0.0000
# 2 62.0918 216.8290 82.5809 0.0000 0.0000 0.0000
# 3 30.2006 82.5809 156.8456 0.0000 0.0000 0.0000
# 4 0.0000 0.0000 0.0000-1342.8902 0.0000 0.0000
# 5 0.0000 0.0000 0.0000 0.0000 34.8129 0.0000
# 6 0.0000 0.0000 0.0000 0.0000 0.0000 141.1911
#
#
#
# Elastic Compliance Matrix: (Units=1/GPa)
#
#
# Indices 1 2 3 4 5 6 
#
# 1 0.007657 -0.002040 -0.000400 0.000000 0.000000 0.000000
# 2 -0.002040 0.006312 -0.002931 0.000000 0.000000 0.000000
# 3 -0.000400 -0.002931 0.007996 0.000000 0.000000 0.000000
# 4 0.000000 0.000000 0.000000 -0.000745 0.000000 0.000000
# 5 0.000000 0.000000 0.000000 0.000000 0.028725 0.000000
# 6 0.000000 0.000000 0.000000 0.000000 0.000000 0.007083
#
#
# Mechanical properties :
#
#
# Convention : Reuss Voigt Hill
#
# Bulk Modulus (GPa) = 89.10287 96.90481 93.00384
# Shear Modulus (GPa) = 69.91912 -210.20899 -70.14494
#
# Velocity S-wave (km/s) = 5.47202 -9.48801 -5.48085
# Velocity P-wave (km/s) = 8.83643 8.86173 0.47314
#
# Compressibility (1/GPa) = 0.01122298
#
# Stress axis : x y z
#
# Youngs Moduli (GPa) = 130.59896 158.41937 125.06621
#
# Poissons Ratio (x) = 0.32322 0.05004
# Poissons Ratio (y) = 0.26646 0.36653
# Poissons Ratio (z) = 0.05226 0.46427
#
# Static dielectric constant tensor:
#      x y z
#    x 1.907880 0.000000 0.000000 
#    y 0.000000 1.834840 0.000000 
#    z 0.000000 0.000000 1.722270 
# 
# From -- ./inp_files/348.got.cif
#   From: 2010.05.17/outbox.cif.g08.bks.cpg/sg20_1_cif.got.tgz:348.got - 2010.06.03 22:52:26.
