data_PCOD9322819
_publ_section_title
;
Structure prediction by ZEFSAII (Michael W. Deem and Ramdas Pophale) SiO2 
 PCOD9322819
Probable space group: C 2 2 2
;
_chemical_formula_sum "Si O2"
_cell_formula_units_Z 36
_cell_length_a 5.204098
_cell_length_b 30.746704
_cell_length_c 13.206720
_cell_angle_alpha 90.000000
_cell_angle_beta 90.000000
_cell_angle_gamma 90.000000
_cell_volume 2113.192222
_symmetry_space_group_name_H-M "C 2 2 2"
_symmetry_group_IT_number 21
_symmetry_cell_setting 'orthorhombic'
loop_
_space_group_symop_operation_xyz
x,y,z
-x,-y,z
x,-y,-z
-x,y,-z
1/2+x,1/2+y,z
1/2-x,1/2-y,z
1/2+x,1/2-y,-z
1/2-x,1/2+y,-z
loop_
_atom_site_type_symbol
_atom_site_label
_atom_site_fract_x
_atom_site_fract_y
_atom_site_fract_z
Si Si1 0.883955 0.664486 0.305256
Si Si2 0.396068 0.620815 0.387583
Si Si3 0.250000 0.750000 0.569017
Si Si4 0.999080 0.279974 0.881763
Si Si5 0.754546 0.019735 0.385060
O O1 0.642843 0.631336 0.316343
O O2 0.789951 0.707878 0.362006
O O3 0.143485 0.647992 0.359291
O O4 0.966923 0.679472 0.193182
O O5 0.500000 0.630525 0.500000
O O6 0.295652 0.571058 0.388328
O O7 0.500000 0.744325 0.500000
O O8 0.250000 0.250000 0.860056
O O9 0.750000 0.250000 0.866784
O O10 0.000000 0.292746 0.000000
O O11 0.500000 0.000000 0.337575
O O12 0.752987 0.000000 0.500000
O O13 0.000000 0.000000 0.331266
#
# Coordination Sequence:
#
# PCOD9322819 Si02
#       5
#     8   8   4   8   8
#     4  12  24  36  55  78 113 146 201 228 271 335
#     4  12  23  36  52  83 114 154 184 226 272 327
#     4  12  24  38  48  70 112 162 188 214 254 318
#     4  10  21  40  62  79 101 144 197 252 290 318
#     4  10  19  34  54  72 104 146 184 225 264 316
#
# _framework density 17.035837999999998
#
# number of rings (size 3 to 8) (size 9 to 14) (size 15 to 20)
#    0.000    0.889    3.333    6.667    4.667    0.000 
#    0.000    0.000    0.000    0.000    0.000    0.000 
#    0.000   13.333    0.000    0.000    0.000    0.000 
#
# Total GULP energy -100446.614319 kJ/mol
# GULP energy per Si atom -5580.367462 kJ/mol
# Density = 1.699706 g / cm^3
# Si number density = 17.035838 Si / 1000 Ang^3
#
#
#
# Elastic Constant Matrix: (Units=GPa)
#
#
# Indices 1 2 3 4 5 6 
#
# 1 171.5474 49.8305 37.1437 0.0000 0.0000 0.0000
# 2 49.8305 103.8293 47.1118 0.0000 0.0000 0.0000
# 3 37.1437 47.1118 71.8694 0.0000 0.0000 0.0000
# 4 0.0000 0.0000 0.0000 3.9891 0.0000 0.0000
# 5 0.0000 0.0000 0.0000 0.0000 -0.4464 0.0000
# 6 0.0000 0.0000 0.0000 0.0000 0.0000 38.4296
#
#
#
# Elastic Compliance Matrix: (Units=1/GPa)
#
#
# Indices 1 2 3 4 5 6 
#
# 1 0.006971 -0.002435 -0.002007 0.000000 0.000000 0.000000
# 2 -0.002435 0.014559 -0.008285 0.000000 0.000000 0.000000
# 3 -0.002007 -0.008285 0.020382 0.000000 0.000000 0.000000
# 4 0.000000 0.000000 0.000000 0.250683 0.000000 0.000000
# 5 0.000000 0.000000 0.000000 0.000000 -2.239959 0.000000
# 6 0.000000 0.000000 0.000000 0.000000 0.000000 0.026022
#
#
# Mechanical properties :
#
#
# Convention : Reuss Voigt Hill
#
# Bulk Modulus (GPa) = 60.75824 68.37978 64.56901
# Shear Modulus (GPa) = -2.64494 22.60512 9.98009
#
# Velocity S-wave (km/s) = -1.24738 3.64664 2.42302
# Velocity P-wave (km/s) = 5.80240 7.61292 6.76847
#
# Compressibility (1/GPa) = 0.01645867
#
# Stress axis : x y z
#
# Youngs Moduli (GPa) = 143.44922 68.68447 49.06202
#
# Poissons Ratio (x) = 0.16726 0.09844
# Poissons Ratio (y) = 0.34933 0.40650
# Poissons Ratio (z) = 0.28783 0.56908
#
# Static dielectric constant tensor:
#      x y z
#    x 1.605050 0.000000 0.000000 
#    y 0.000000 1.618970 0.000000 
#    z 0.000000 0.000000 1.567830 
# 
# From -- ./inp_files/21348.got.cif
#   From: 2010.05.17/outbox.cif.g08.bks.cpg/sg21_11_cif.got.tgz:21348.got - 2010.06.03 23:14:55.
