data_PCOD9322496
_publ_section_title
;
Structure prediction by ZEFSAII (Michael W. Deem and Ramdas Pophale) SiO2 
 PCOD9322496
Probable space group: C 2 2 2
;
_chemical_formula_sum "Si O2"
_cell_formula_units_Z 36
_cell_length_a 9.328805
_cell_length_b 19.389113
_cell_length_c 10.729716
_cell_angle_alpha 90.000000
_cell_angle_beta 90.000000
_cell_angle_gamma 90.000000
_cell_volume 1940.761569
_symmetry_space_group_name_H-M "C 2 2 2"
_symmetry_group_IT_number 21
_symmetry_cell_setting 'orthorhombic'
loop_
_space_group_symop_operation_xyz
x,y,z
-x,-y,z
x,-y,-z
-x,y,-z
1/2+x,1/2+y,z
1/2-x,1/2-y,z
1/2+x,1/2-y,-z
1/2-x,1/2+y,-z
loop_
_atom_site_type_symbol
_atom_site_label
_atom_site_fract_x
_atom_site_fract_y
_atom_site_fract_z
Si Si1 0.802620 0.878231 0.290851
Si Si2 0.000000 0.666869 0.000000
Si Si3 0.977746 0.581842 0.761671
Si Si4 0.753677 0.071427 0.443305
Si Si5 0.500000 0.500000 0.714611
Si Si6 0.250000 0.750000 0.862147
O O1 0.634794 0.890939 0.269862
O O2 0.810179 0.883365 0.441311
O O3 0.830706 0.805649 0.225809
O O4 0.896291 0.940532 0.229650
O O5 0.870559 0.712314 0.055316
O O6 0.062695 0.618214 0.109133
O O7 0.864674 0.598867 0.652323
O O8 0.000000 0.500000 0.775387
O O9 0.889986 0.045142 0.366199
O O10 0.690468 0.000000 0.500000
#
# Coordination Sequence:
#
# PCOD9322496 Si02
#       6
#     8   4   8   8   4   4
#     4  10  20  35  59  87 119 153 194 247 316 361
#     4  10  25  42  60  79 116 174 206 242 298 357
#     4  11  19  35  61  88 115 148 203 251 295 366
#     4  10  18  31  57  91 120 149 185 253 324 361
#     4  10  19  32  56  91 122 147 184 252 315 364
#     4  10  24  46  58  78 122 166 208 252 296 376
#
# _framework density 18.549420000000001
#
# number of rings (size 3 to 8) (size 9 to 14) (size 15 to 20)
#    0.000    1.778    4.444    4.000    0.000    1.778 
#    0.000   10.000    0.000    1.333    0.000    0.000 
#    0.000    0.000    0.000    0.000    0.000    0.000 
#
# Total GULP energy -100224.260783 kJ/mol
# GULP energy per Si atom -5568.014488 kJ/mol
# Density = 1.850720 g / cm^3
# Si number density = 18.549420 Si / 1000 Ang^3
#
#
#
# Elastic Constant Matrix: (Units=GPa)
#
#
# Indices 1 2 3 4 5 6 
#
# 1 74.1152 10.9638 11.4646 0.0000 0.0000 0.0000
# 2 10.9638 57.2878 29.1663 0.0000 0.0000 0.0000
# 3 11.4646 29.1663 61.8934 0.0000 0.0000 0.0000
# 4 0.0000 0.0000 0.0000 23.4946 0.0000 0.0000
# 5 0.0000 0.0000 0.0000 0.0000 4.2406 0.0000
# 6 0.0000 0.0000 0.0000 0.0000 0.0000 29.5081
#
#
#
# Elastic Compliance Matrix: (Units=1/GPa)
#
#
# Indices 1 2 3 4 5 6 
#
# 1 0.014029 -0.001792 -0.001754 0.000000 0.000000 0.000000
# 2 -0.001792 0.023194 -0.010598 0.000000 0.000000 0.000000
# 3 -0.001754 -0.010598 0.021476 0.000000 0.000000 0.000000
# 4 0.000000 0.000000 0.000000 0.042563 0.000000 0.000000
# 5 0.000000 0.000000 0.000000 0.000000 0.235813 0.000000
# 6 0.000000 0.000000 0.000000 0.000000 0.000000 0.033889
#
#
# Mechanical properties :
#
#
# Convention : Reuss Voigt Hill
#
# Bulk Modulus (GPa) = 32.88281 32.94285 32.91283
# Shear Modulus (GPa) = 12.21331 20.89546 16.55439
#
# Velocity S-wave (km/s) = 2.56875 3.35994 2.99063
# Velocity P-wave (km/s) = 5.15399 5.73152 5.45041
#
# Compressibility (1/GPa) = 0.03041102
#
# Stress axis : x y z
#
# Youngs Moduli (GPa) = 71.28130 43.11401 46.56371
#
# Poissons Ratio (x) = 0.07725 0.08169
# Poissons Ratio (y) = 0.12772 0.49349
# Poissons Ratio (z) = 0.12505 0.45693
#
# Static dielectric constant tensor:
#      x y z
#    x 1.673370 0.000000 0.000000 
#    y 0.000000 1.679580 0.000000 
#    z 0.000000 0.000000 1.688400 
# 
# From -- ./inp_files/22497.got.cif
#   From: 2010.05.17/outbox.cif.g08.bks.cpg/sg21_12_cif.got.tgz:22497.got - 2010.06.03 23:14:55.
