data_PCOD9322514
_publ_section_title
;
Structure prediction by ZEFSAII (Michael W. Deem and Ramdas Pophale) SiO2 
 PCOD9322514
Probable space group: C 2 2 2
;
_chemical_formula_sum "Si O2"
_cell_formula_units_Z 52
_cell_length_a 29.487153
_cell_length_b 7.780310
_cell_length_c 11.545826
_cell_angle_alpha 90.000000
_cell_angle_beta 90.000000
_cell_angle_gamma 90.000000
_cell_volume 2648.834064
_symmetry_space_group_name_H-M "C 2 2 2"
_symmetry_group_IT_number 21
_symmetry_cell_setting 'orthorhombic'
loop_
_space_group_symop_operation_xyz
x,y,z
-x,-y,z
x,-y,-z
-x,y,-z
1/2+x,1/2+y,z
1/2-x,1/2-y,z
1/2+x,1/2-y,-z
1/2-x,1/2+y,-z
loop_
_atom_site_type_symbol
_atom_site_label
_atom_site_fract_x
_atom_site_fract_y
_atom_site_fract_z
Si Si1 0.149257 0.188746 0.837136
Si Si2 0.953135 0.812360 0.216758
Si Si3 0.616230 0.941092 0.130352
Si Si4 0.977902 0.692327 0.617546
Si Si5 0.702563 0.199012 0.961896
Si Si6 0.576278 0.500000 0.000000
Si Si7 0.604267 0.426178 0.374355
O O1 0.137785 0.388602 0.817276
O O2 0.146408 0.101232 0.712696
O O3 0.108841 0.110120 0.915606
O O4 0.192535 0.188716 0.922374
O O5 0.923950 0.637861 0.204009
O O6 0.002192 0.777624 0.267159
O O7 0.927503 0.936372 0.307008
O O8 0.952254 0.886610 0.088040
O O9 0.656417 0.799690 0.113469
O O10 0.601945 0.000000 0.000000
O O11 0.925486 0.749669 0.613215
O O12 0.000000 0.500000 0.620157
O O13 0.000000 0.768791 0.500000
O O14 0.750000 0.250000 0.907058
O O15 0.705444 0.000000 0.000000
O O16 0.615420 0.500000 0.500000
#
# Coordination Sequence:
#
# PCOD9322514 Si02
#       7
#     8   8   8   8   8   4   8
#     4   9  19  34  53  77 118 144 184 223 275 343
#     4  11  20  34  61  75 109 146 180 237 281 332
#     4   9  17  35  53  81 118 146 178 222 282 350
#     4  11  23  39  57  77 104 142 194 244 283 325
#     4   9  18  30  54  85 118 148 175 221 273 344
#     4  10  18  32  55  80 104 154 172 226 280 335
#     4  11  22  37  56  81 106 144 194 243 278 323
#
# _framework density 19.631277999999998
#
# number of rings (size 3 to 8) (size 9 to 14) (size 15 to 20)
#    0.000    2.308    4.615    1.385    1.077    0.000 
#    0.000    6.154    0.000    0.000    0.000    7.538 
#    0.000    0.000    0.000    0.000    0.000    0.000 
#
# Total GULP energy -144879.748882 kJ/mol
# GULP energy per Si atom -5572.298034 kJ/mol
# Density = 1.958660 g / cm^3
# Si number density = 19.631278 Si / 1000 Ang^3
#
#
#
# Elastic Constant Matrix: (Units=GPa)
#
#
# Indices 1 2 3 4 5 6 
#
# 1 53.5334 5.9164 20.5023 0.0000 0.0000 0.0000
# 2 5.9164 48.0204 19.1960 0.0000 0.0000 0.0000
# 3 20.5023 19.1960 112.5535 0.0000 0.0000 0.0000
# 4 0.0000 0.0000 0.0000 29.9761 0.0000 0.0000
# 5 0.0000 0.0000 0.0000 0.0000 16.5999 0.0000
# 6 0.0000 0.0000 0.0000 0.0000 0.0000 23.9068
#
#
#
# Elastic Compliance Matrix: (Units=1/GPa)
#
#
# Indices 1 2 3 4 5 6 
#
# 1 0.020134 -0.001089 -0.003482 0.000000 0.000000 0.000000
# 2 -0.001089 0.022407 -0.003623 0.000000 0.000000 0.000000
# 3 -0.003482 -0.003623 0.010137 0.000000 0.000000 0.000000
# 4 0.000000 0.000000 0.000000 0.033360 0.000000 0.000000
# 5 0.000000 0.000000 0.000000 0.000000 0.060241 0.000000
# 6 0.000000 0.000000 0.000000 0.000000 0.000000 0.041829
#
#
# Mechanical properties :
#
#
# Convention : Reuss Voigt Hill
#
# Bulk Modulus (GPa) = 27.55576 33.92628 30.74102
# Shear Modulus (GPa) = 23.08487 25.32939 24.20713
#
# Velocity S-wave (km/s) = 3.43289 3.59591 3.51535
# Velocity P-wave (km/s) = 5.45712 5.87878 5.67187
#
# Compressibility (1/GPa) = 0.03629006
#
# Stress axis : x y z
#
# Youngs Moduli (GPa) = 49.66790 44.62898 98.65027
#
# Poissons Ratio (x) = 0.04859 0.34348
# Poissons Ratio (y) = 0.05408 0.35743
# Poissons Ratio (z) = 0.17293 0.16170
#
# Static dielectric constant tensor:
#      x y z
#    x 1.691600 0.000000 0.000000 
#    y 0.000000 1.817550 0.000000 
#    z 0.000000 0.000000 1.687080 
# 
# From -- ./inp_files/27761.got.cif
#   From: 2010.05.17/outbox.cif.g08.bks.cpg/sg21_14_cif.got.tgz:27761.got - 2010.06.03 23:14:55.
