data_PCOD9322487
_publ_section_title
;
Structure prediction by ZEFSAII (Michael W. Deem and Ramdas Pophale) SiO2 
 PCOD9322487
Probable space group: C 2 2 2
;
_chemical_formula_sum "Si O2"
_cell_formula_units_Z 32
_cell_length_a 14.120204
_cell_length_b 5.161306
_cell_length_c 17.040171
_cell_angle_alpha 90.000000
_cell_angle_beta 90.000000
_cell_angle_gamma 90.000000
_cell_volume 1241.865402
_symmetry_space_group_name_H-M "C 2 2 2"
_symmetry_group_IT_number 21
_symmetry_cell_setting 'orthorhombic'
loop_
_space_group_symop_operation_xyz
x,y,z
-x,-y,z
x,-y,-z
-x,y,-z
1/2+x,1/2+y,z
1/2-x,1/2-y,z
1/2+x,1/2-y,-z
1/2-x,1/2+y,-z
loop_
_atom_site_type_symbol
_atom_site_label
_atom_site_fract_x
_atom_site_fract_y
_atom_site_fract_z
Si Si1 0.885770 0.475227 0.814635
Si Si2 0.615052 0.473798 0.088747
Si Si3 0.145330 0.318776 0.645936
Si Si4 0.638139 0.326893 0.576495
O O1 0.860089 0.695420 0.877081
O O2 0.844690 0.551939 0.730634
O O3 0.000000 0.500000 0.804660
O O4 0.857970 0.199535 0.850433
O O5 0.500000 0.500000 0.084826
O O6 0.650810 0.500000 0.000000
O O7 0.250000 0.250000 0.614710
O O8 0.098848 0.540172 0.592450
O O9 0.105953 0.026846 0.645017
O O10 0.615922 0.500000 0.500000
O O11 0.750000 0.250000 0.576028
#
# Coordination Sequence:
#
# PCOD9322487 Si02
#       4
#     8   8   8   8
#     4  10  19  32  51  74 102 134 167 209 259 310
#     4   9  17  30  50  75  99 127 169 216 255 295
#     4  10  20  32  50  75 101 130 164 208 256 303
#     4  10  18  31  51  74  98 126 167 213 252 293
#
# _framework density 25.767686000000001
#
# number of rings (size 3 to 8) (size 9 to 14) (size 15 to 20)
#    0.000    2.250    0.000    5.250    0.000    3.000 
#    0.000    0.000    0.000    7.500    0.000    0.000 
#    0.000    0.000    0.000    0.000    0.000    0.000 
#
# Total GULP energy -89399.390453 kJ/mol
# GULP energy per Si atom -5587.461903 kJ/mol
# Density = 2.570904 g / cm^3
# Si number density = 25.767686 Si / 1000 Ang^3
#
#
#
# Elastic Constant Matrix: (Units=GPa)
#
#
# Indices 1 2 3 4 5 6 
#
# 1 96.1399 8.0156 -16.7015 0.0000 0.0000 0.0000
# 2 8.0156 178.8402 55.4876 0.0000 0.0000 0.0000
# 3 -16.7015 55.4876 140.6735 0.0000 0.0000 0.0000
# 4 0.0000 0.0000 0.0000 41.2523 0.0000 0.0000
# 5 0.0000 0.0000 0.0000 0.0000 10.3932 0.0000
# 6 0.0000 0.0000 0.0000 0.0000 0.0000 -11.3084
#
#
#
# Elastic Compliance Matrix: (Units=1/GPa)
#
#
# Indices 1 2 3 4 5 6 
#
# 1 0.010776 -0.001003 0.001675 0.000000 0.000000 0.000000
# 2 -0.001003 0.006465 -0.002669 0.000000 0.000000 0.000000
# 3 0.001675 -0.002669 0.008360 0.000000 0.000000 0.000000
# 4 0.000000 0.000000 0.000000 0.024241 0.000000 0.000000
# 5 0.000000 0.000000 0.000000 0.000000 0.096217 0.000000
# 6 0.000000 0.000000 0.000000 0.000000 0.000000 -0.088430
#
#
# Mechanical properties :
#
#
# Convention : Reuss Voigt Hill
#
# Bulk Modulus (GPa) = 46.28026 56.58412 51.43219
# Shear Modulus (GPa) = 72.64812 32.65754 52.65283
#
# Velocity S-wave (km/s) = 5.31552 3.56390 4.52527
# Velocity P-wave (km/s) = 7.46140 6.24036 6.87803
#
# Compressibility (1/GPa) = 0.02160749
#
# Stress axis : x y z
#
# Youngs Moduli (GPa) = 92.79831 154.68861 119.61356
#
# Poissons Ratio (x) = 0.15510 -0.20034
# Poissons Ratio (y) = 0.09304 0.31924
# Poissons Ratio (z) = -0.15543 0.41286
#
# Static dielectric constant tensor:
#      x y z
#    x 2.163030 0.000000 0.000000 
#    y 0.000000 2.070720 0.000000 
#    z 0.000000 0.000000 2.014280 
# 
# From -- ./inp_files/33397.got.cif
#   From: 2010.05.17/outbox.cif.g08.bks.cpg/sg21_17_cif.got.tgz:33397.got - 2010.06.03 23:14:55.
