data_PCOD9322128
_publ_section_title
;
Structure prediction by ZEFSAII (Michael W. Deem and Ramdas Pophale) SiO2 
 PCOD9322128
Probable space group: C 2 2 21
;
_chemical_formula_sum "Si O2"
_cell_formula_units_Z 40
_cell_length_a 17.014699
_cell_length_b 19.005264
_cell_length_c 5.136722
_cell_angle_alpha 90.000000
_cell_angle_beta 90.000000
_cell_angle_gamma 90.000000
_cell_volume 1661.055867
_symmetry_space_group_name_H-M "C 2 2 21"
_symmetry_group_IT_number 20
_symmetry_cell_setting 'orthorhombic'
loop_
_space_group_symop_operation_xyz
x,y,z
-x,-y,1/2+z
x,-y,-z
-x,y,1/2-z
1/2+x,1/2+y,z
1/2-x,1/2-y,1/2+z
1/2+x,1/2-y,-z
1/2-x,1/2+y,1/2-z
loop_
_atom_site_type_symbol
_atom_site_label
_atom_site_fract_x
_atom_site_fract_y
_atom_site_fract_z
Si Si1 0.724113 0.547316 0.739617
Si Si2 0.303446 0.242477 0.305969
Si Si3 0.365940 0.865167 0.361846
Si Si4 0.079425 0.143040 0.662553
Si Si5 0.000000 0.250167 0.250000
Si Si6 0.041649 0.500000 0.000000
O O1 0.754633 0.500000 0.500000
O O2 0.786311 0.610657 0.784309
O O3 0.645364 0.583965 0.626289
O O4 0.713396 0.500000 0.000000
O O5 0.237772 0.249014 0.529924
O O6 0.339029 0.165479 0.358005
O O7 0.371743 0.300878 0.340017
O O8 0.426525 0.804771 0.276365
O O9 0.412220 0.936897 0.371047
O O10 0.000000 0.104673 0.750000
O O11 0.959749 0.195755 0.046963
O O12 0.000000 0.466077 0.750000
#
# Coordination Sequence:
#
# PCOD9322128 Si02
#       6
#     8   8   8   8   4   4
#     4  12  32  52  81 117 159 220 271 331 404 495
#     4  12  27  47  78 117 156 206 268 340 403 482
#     4  12  27  48  82 115 165 206 274 329 421 489
#     4  12  29  49  82 118 163 208 277 342 412 480
#     4  12  28  52  82 128 162 216 268 360 424 494
#     4  12  30  46  72 110 162 210 254 324 404 504
#
# _framework density 24.081067999999998
#
# number of rings (size 3 to 8) (size 9 to 14) (size 15 to 20)
#    0.000    0.000    6.000    1.200    9.800    2.400 
#    0.000    0.000    0.000    0.000    0.000    0.000 
#    0.000    0.000    0.000    0.000    0.000    0.000 
#
# Total GULP energy -111497.462360 kJ/mol
# GULP energy per Si atom -5574.873118 kJ/mol
# Density = 2.402626 g / cm^3
# Si number density = 24.081068 Si / 1000 Ang^3
#
#
#
# Elastic Constant Matrix: (Units=GPa)
#
#
# Indices 1 2 3 4 5 6 
#
# 1 166.4849 27.3607 36.1755 0.0000 0.0000 0.0000
# 2 27.3607 90.4579 20.8602 0.0000 0.0000 0.0000
# 3 36.1755 20.8602 56.4044 0.0000 0.0000 0.0000
# 4 0.0000 0.0000 0.0000 37.0419 0.0000 0.0000
# 5 0.0000 0.0000 0.0000 0.0000 30.6156 0.0000
# 6 0.0000 0.0000 0.0000 0.0000 0.0000 56.3146
#
#
#
# Elastic Compliance Matrix: (Units=1/GPa)
#
#
# Indices 1 2 3 4 5 6 
#
# 1 0.007096 -0.001199 -0.004108 0.000000 0.000000 0.000000
# 2 -0.001199 0.012288 -0.003776 0.000000 0.000000 0.000000
# 3 -0.004108 -0.003776 0.021760 0.000000 0.000000 0.000000
# 4 0.000000 0.000000 0.000000 0.026996 0.000000 0.000000
# 5 0.000000 0.000000 0.000000 0.000000 0.032663 0.000000
# 6 0.000000 0.000000 0.000000 0.000000 0.000000 0.017757
#
#
# Mechanical properties :
#
#
# Convention : Reuss Voigt Hill
#
# Bulk Modulus (GPa) = 43.51679 53.57110 48.54395
# Shear Modulus (GPa) = 34.62942 40.05782 37.34362
#
# Velocity S-wave (km/s) = 3.79626 4.08297 3.94222
# Velocity P-wave (km/s) = 6.10947 6.67248 6.39717
#
# Compressibility (1/GPa) = 0.02297963
#
# Stress axis : x y z
#
# Youngs Moduli (GPa) = 140.92080 81.37880 45.95593
#
# Poissons Ratio (x) = 0.09758 0.18878
# Poissons Ratio (y) = 0.16898 0.17351
# Poissons Ratio (z) = 0.57887 0.30725
#
# Static dielectric constant tensor:
#      x y z
#    x 2.054430 0.000000 0.000000 
#    y 0.000000 1.870740 0.000000 
#    z 0.000000 0.000000 1.955330 
# 
# From -- ./inp_files/2530.got.cif
#   From: 2010.05.17/outbox.cif.g08.bks.cpg/sg20_2_cif.got.tgz:2530.got - 2010.06.03 22:52:26.
