data_PCOD9322928
_publ_section_title
;
Structure prediction by ZEFSAII (Michael W. Deem and Ramdas Pophale) SiO2 
 PCOD9322928
Probable space group: C 2 2 2
;
_chemical_formula_sum "Si O2"
_cell_formula_units_Z 58
_cell_length_a 7.457059
_cell_length_b 27.723872
_cell_length_c 16.407209
_cell_angle_alpha 90.000000
_cell_angle_beta 90.000000
_cell_angle_gamma 90.000000
_cell_volume 3392.002585
_symmetry_space_group_name_H-M "C 2 2 2"
_symmetry_group_IT_number 21
_symmetry_cell_setting 'orthorhombic'
loop_
_space_group_symop_operation_xyz
x,y,z
-x,-y,z
x,-y,-z
-x,y,-z
1/2+x,1/2+y,z
1/2-x,1/2-y,z
1/2+x,1/2-y,-z
1/2-x,1/2+y,-z
loop_
_atom_site_type_symbol
_atom_site_label
_atom_site_fract_x
_atom_site_fract_y
_atom_site_fract_z
Si Si1 0.789448 0.921799 0.989972
Si Si2 0.985675 0.357364 0.403685
Si Si3 0.220591 0.892512 0.826095
Si Si4 0.807426 0.805423 0.693641
Si Si5 0.500000 0.000000 0.000000
Si Si6 0.009332 0.556242 0.280080
Si Si7 0.698895 0.387091 0.181188
Si Si8 0.774382 0.806235 0.290899
O O1 0.740816 0.900510 0.078451
O O2 0.775673 0.884631 0.915678
O O3 0.000000 0.937547 0.000000
O O4 0.647714 0.963098 0.963331
O O5 0.803151 0.330379 0.378345
O O6 0.990141 0.409268 0.359118
O O7 0.000000 0.360881 0.500000
O O8 0.142389 0.325739 0.360992
O O9 0.338693 0.929493 0.774748
O O10 0.260891 0.839808 0.788189
O O11 0.010156 0.900206 0.809626
O O12 0.750000 0.750000 0.701614
O O13 0.760935 0.836835 0.773881
O O14 0.019329 0.811276 0.682443
O O15 0.179016 0.573141 0.225659
O O16 0.000000 0.500000 0.298676
O O17 0.750000 0.750000 0.273373
#
# Coordination Sequence:
#
# PCOD9322928 Si02
#       8
#     8   8   8   8   2   8   8   8
#     4  10  21  35  50  77 109 143 185 227 264 307
#     4  10  22  38  56  83 112 136 174 224 271 328
#     4   9  20  35  53  76 111 144 180 224 265 313
#     4  10  19  36  57  80 108 143 176 217 270 324
#     4  12  22  32  48  74 108 144 180 236 280 290
#     4  10  21  36  56  79 105 145 184 218 270 325
#     4   9  20  35  53  76 111 144 180 224 265 313
#     4  10  19  36  57  80 108 143 176 217 270 324
#
# _framework density 17.099043000000002
#
# number of rings (size 3 to 8) (size 9 to 14) (size 15 to 20)
#    0.000    2.207    1.379    1.034    3.862    1.931 
#    0.000    0.690    0.000    0.000    0.000    7.724 
#    0.000    0.000    0.000    0.000    0.000    0.000 
#
# Total GULP energy -161548.894249 kJ/mol
# GULP energy per Si atom -5570.651526 kJ/mol
# Density = 1.706013 g / cm^3
# Si number density = 17.099043 Si / 1000 Ang^3
#
#
#
# Elastic Constant Matrix: (Units=GPa)
#
#
# Indices 1 2 3 4 5 6 
#
# 1 69.9325 33.7884 37.5895 0.0000 0.0000 0.0000
# 2 33.7884 128.2419 50.3667 0.0000 0.0000 0.0000
# 3 37.5895 50.3667 118.8668 0.0000 0.0000 0.0000
# 4 0.0000 0.0000 0.0000 -8.7152 0.0000 0.0000
# 5 0.0000 0.0000 0.0000 0.0000 12.9829 0.0000
# 6 0.0000 0.0000 0.0000 0.0000 0.0000 20.6857
#
#
#
# Elastic Compliance Matrix: (Units=1/GPa)
#
#
# Indices 1 2 3 4 5 6 
#
# 1 0.018162 -0.003034 -0.004458 0.000000 0.000000 0.000000
# 2 -0.003034 0.009861 -0.003219 0.000000 0.000000 0.000000
# 3 -0.004458 -0.003219 0.011186 0.000000 0.000000 0.000000
# 4 0.000000 0.000000 0.000000 -0.114742 0.000000 0.000000
# 5 0.000000 0.000000 0.000000 0.000000 0.077025 0.000000
# 6 0.000000 0.000000 0.000000 0.000000 0.000000 0.048342
#
#
# Mechanical properties :
#
#
# Convention : Reuss Voigt Hill
#
# Bulk Modulus (GPa) = 56.21897 62.28117 59.25007
# Shear Modulus (GPa) = 64.77877 18.01046 41.39461
#
# Velocity S-wave (km/s) = 6.16171 3.24898 4.92557
# Velocity P-wave (km/s) = 9.14178 7.11178 8.18992
#
# Compressibility (1/GPa) = 0.01778759
#
# Stress axis : x y z
#
# Youngs Moduli (GPa) = 55.06138 101.40450 89.39473
#
# Poissons Ratio (x) = 0.30770 0.39848
# Poissons Ratio (y) = 0.16708 0.28776
# Poissons Ratio (z) = 0.24544 0.32642
#
# Static dielectric constant tensor:
#      x y z
#    x 1.616610 0.000000 0.000000 
#    y 0.000000 1.570070 0.000000 
#    z 0.000000 0.000000 1.561420 
# 
# From -- ./inp_files/30947.got.cif
#   From: 2010.05.17/outbox.cif.g08.bks.cpg/sg21_16_cif.got.tgz:30947.got - 2010.06.03 23:14:55.
