data_PCOD9322349
_publ_section_title
;
Structure prediction by ZEFSAII (Michael W. Deem and Ramdas Pophale) SiO2 
 PCOD9322349
Probable space group: C 2 2 2
;
_chemical_formula_sum "Si O2"
_cell_formula_units_Z 44
_cell_length_a 9.706734
_cell_length_b 28.140776
_cell_length_c 8.909920
_cell_angle_alpha 90.000000
_cell_angle_beta 90.000000
_cell_angle_gamma 90.000000
_cell_volume 2433.789440
_symmetry_space_group_name_H-M "C 2 2 2"
_symmetry_group_IT_number 21
_symmetry_cell_setting 'orthorhombic'
loop_
_space_group_symop_operation_xyz
x,y,z
-x,-y,z
x,-y,-z
-x,y,-z
1/2+x,1/2+y,z
1/2-x,1/2-y,z
1/2+x,1/2-y,-z
1/2-x,1/2+y,-z
loop_
_atom_site_type_symbol
_atom_site_label
_atom_site_fract_x
_atom_site_fract_y
_atom_site_fract_z
Si Si1 0.500000 0.000000 0.000000
Si Si2 0.791427 0.661471 0.680813
Si Si3 0.051011 0.569685 0.253680
Si Si4 0.519214 0.221408 0.821459
Si Si5 0.500000 0.000000 0.500000
Si Si6 0.194165 0.361702 0.325534
Si Si7 0.020967 0.821046 0.677515
O O1 0.573165 0.963676 0.888349
O O2 0.877098 0.706665 0.737771
O O3 0.818408 0.652042 0.502848
O O4 0.632379 0.664487 0.723353
O O5 0.856702 0.615720 0.758557
O O6 0.083813 0.535446 0.393400
O O7 0.896249 0.591569 0.283451
O O8 0.625708 0.181011 0.768718
O O9 0.562002 0.272901 0.761951
O O10 0.500000 0.221079 0.000000
O O11 0.358462 0.359735 0.299545
O O12 0.000000 0.810927 0.500000
#
# Coordination Sequence:
#
# PCOD9322349 Si02
#       7
#     2   8   8   8   2   8   8
#     4  10  24  34  60  84 104 134 176 220 276 330
#     4  10  20  36  58  81 110 142 184 226 266 311
#     4  10  19  36  58  85 105 132 175 225 269 322
#     4  11  22  34  52  80 113 152 191 220 253 310
#     4  10  16  34  64  80 100 130 176 228 268 322
#     4  10  20  36  58  81 110 142 184 226 266 311
#     4  10  21  36  55  80 112 149 182 221 266 314
#
# _framework density 18.078803000000001
#
# number of rings (size 3 to 8) (size 9 to 14) (size 15 to 20)
#    0.000    1.818    1.818    3.818    5.091    5.818 
#    0.000    0.000    0.000    6.545    0.000    0.000 
#    0.000    0.000    0.000    0.000    0.000    0.000 
#
# Total GULP energy -122576.759742 kJ/mol
# GULP energy per Si atom -5571.670897 kJ/mol
# Density = 1.803765 g / cm^3
# Si number density = 18.078803 Si / 1000 Ang^3
#
#
#
# Elastic Constant Matrix: (Units=GPa)
#
#
# Indices 1 2 3 4 5 6 
#
# 1 103.1715 15.7834 8.5209 0.0000 0.0000 0.0000
# 2 15.7834 76.3548 15.7944 0.0000 0.0000 0.0000
# 3 8.5209 15.7944 60.4462 0.0000 0.0000 0.0000
# 4 0.0000 0.0000 0.0000 -19.0290 0.0000 0.0000
# 5 0.0000 0.0000 0.0000 0.0000 5.8232 0.0000
# 6 0.0000 0.0000 0.0000 0.0000 0.0000 0.6996
#
#
#
# Elastic Compliance Matrix: (Units=1/GPa)
#
#
# Indices 1 2 3 4 5 6 
#
# 1 0.010058 -0.001888 -0.000925 0.000000 0.000000 0.000000
# 2 -0.001888 0.014199 -0.003444 0.000000 0.000000 0.000000
# 3 -0.000925 -0.003444 0.017574 0.000000 0.000000 0.000000
# 4 0.000000 0.000000 0.000000 -0.052551 0.000000 0.000000
# 5 0.000000 0.000000 0.000000 0.000000 0.171728 0.000000
# 6 0.000000 0.000000 0.000000 0.000000 0.000000 1.429483
#
#
# Mechanical properties :
#
#
# Convention : Reuss Voigt Hill
#
# Bulk Modulus (GPa) = 34.10858 35.57442 34.84150
# Shear Modulus (GPa) = 3.10024 10.82366 6.96195
#
# Velocity S-wave (km/s) = 1.31094 2.44948 1.96450
# Velocity P-wave (km/s) = 4.60424 5.26498 4.94566
#
# Compressibility (1/GPa) = 0.02931814
#
# Stress axis : x y z
#
# Youngs Moduli (GPa) = 99.42572 70.42533 56.90249
#
# Poissons Ratio (x) = 0.13295 0.05261
# Poissons Ratio (y) = 0.18770 0.19598
# Poissons Ratio (z) = 0.09192 0.24256
#
# Static dielectric constant tensor:
#      x y z
#    x 1.665080 0.000000 0.000000 
#    y 0.000000 1.612090 0.000000 
#    z 0.000000 0.000000 1.701340 
# 
# From -- ./inp_files/11445.got.cif
#   From: 2010.05.17/outbox.cif.g08.bks.cpg/sg21_6_cif.got.tgz:11445.got - 2010.06.03 23:14:55.
