data_PCOD9322686
_publ_section_title
;
Structure prediction by ZEFSAII (Michael W. Deem and Ramdas Pophale) SiO2 
 PCOD9322686
Probable space group: C 2 2 2
;
_chemical_formula_sum "Si O2"
_cell_formula_units_Z 56
_cell_length_a 22.954555
_cell_length_b 18.076280
_cell_length_c 6.635266
_cell_angle_alpha 90.000000
_cell_angle_beta 90.000000
_cell_angle_gamma 90.000000
_cell_volume 2753.190585
_symmetry_space_group_name_H-M "C 2 2 2"
_symmetry_group_IT_number 21
_symmetry_cell_setting 'orthorhombic'
loop_
_space_group_symop_operation_xyz
x,y,z
-x,-y,z
x,-y,-z
-x,y,-z
1/2+x,1/2+y,z
1/2-x,1/2-y,z
1/2+x,1/2-y,-z
1/2-x,1/2+y,-z
loop_
_atom_site_type_symbol
_atom_site_label
_atom_site_fract_x
_atom_site_fract_y
_atom_site_fract_z
Si Si1 0.566510 0.088004 0.752515
Si Si2 0.683404 0.722332 0.188977
Si Si3 0.344784 0.129081 0.001000
Si Si4 0.708806 0.415421 0.040688
Si Si5 0.161234 0.589625 0.504119
Si Si6 0.778150 0.822771 0.589917
Si Si7 0.066464 0.408773 0.747564
O O1 0.643741 0.100841 0.753763
O O2 0.500403 0.119812 0.744858
O O3 0.563080 0.998488 0.755854
O O4 0.580967 0.107456 0.001978
O O5 0.750000 0.750000 0.174369
O O6 0.676825 0.712845 0.429848
O O7 0.651667 0.782507 0.051413
O O8 0.676726 0.640363 0.107881
O O9 0.278010 0.098325 0.988743
O O10 0.356623 0.111586 0.747308
O O11 0.695102 0.381776 0.259599
O O12 0.695694 0.500000 0.000000
O O13 0.172123 0.500000 0.500000
O O14 0.223274 0.634161 0.509186
O O15 0.083338 0.602357 0.502900
O O16 0.750000 0.750000 0.696485
#
# Coordination Sequence:
#
# PCOD9322686 Si02
#       7
#     8   8   8   8   8   8   8
#     4  10  19  30  46  71 104 138 183 226 265 308
#     4   9  21  35  48  72 100 130 178 225 267 329
#     4  11  19  33  48  69 100 135 178 218 269 325
#     4  11  22  33  52  75  99 132 180 225 270 331
#     4  10  20  31  49  71 101 144 185 223 265 327
#     4  11  21  35  54  72 102 143 180 225 281 316
#     4  10  19  30  46  71 102 140 180 226 267 309
#
# _framework density 20.340036000000001
#
# number of rings (size 3 to 8) (size 9 to 14) (size 15 to 20)
#    0.000    1.714    1.429    6.000    4.000    2.857 
#    0.000    0.000    0.000    0.000    0.000    0.000 
#    0.000    2.286    0.000    0.000   17.429    0.857 
#
# Total GULP energy -155915.807737 kJ/mol
# GULP energy per Si atom -5568.421705 kJ/mol
# Density = 2.029374 g / cm^3
# Si number density = 20.340036 Si / 1000 Ang^3
#
#
#
# Elastic Constant Matrix: (Units=GPa)
#
#
# Indices 1 2 3 4 5 6 
#
# 1 26.6080 -9.0488 20.0459 0.0000 0.0000 0.0000
# 2 -9.0488 142.4484 31.9977 0.0000 0.0000 0.0000
# 3 20.0459 31.9977 155.3662 0.0000 0.0000 0.0000
# 4 0.0000 0.0000 0.0000 45.3100 0.0000 0.0000
# 5 0.0000 0.0000 0.0000 0.0000 33.5550 0.0000
# 6 0.0000 0.0000 0.0000 0.0000 0.0000 10.5198
#
#
#
# Elastic Compliance Matrix: (Units=1/GPa)
#
#
# Indices 1 2 3 4 5 6 
#
# 1 0.043969 0.004265 -0.006551 0.000000 0.000000 0.000000
# 2 0.004265 0.007774 -0.002151 0.000000 0.000000 0.000000
# 3 -0.006551 -0.002151 0.007725 0.000000 0.000000 0.000000
# 4 0.000000 0.000000 0.000000 0.022070 0.000000 0.000000
# 5 0.000000 0.000000 0.000000 0.000000 0.029802 0.000000
# 6 0.000000 0.000000 0.000000 0.000000 0.000000 0.095059
#
#
# Mechanical properties :
#
#
# Convention : Reuss Voigt Hill
#
# Bulk Modulus (GPa) = 19.76611 45.60134 32.68372
# Shear Modulus (GPa) = 21.53888 36.63881 29.08885
#
# Velocity S-wave (km/s) = 3.25767 4.24879 3.78581
# Velocity P-wave (km/s) = 4.88762 6.82186 5.93408
#
# Compressibility (1/GPa) = 0.05059165
#
# Stress axis : x y z
#
# Youngs Moduli (GPa) = 22.74346 128.62996 129.45406
#
# Poissons Ratio (x) = -0.54856 0.84809
# Poissons Ratio (y) = -0.09699 0.27850
# Poissons Ratio (z) = 0.14900 0.27673
#
# Static dielectric constant tensor:
#      x y z
#    x 1.761340 0.000000 0.000000 
#    y 0.000000 1.667730 0.000000 
#    z 0.000000 0.000000 1.973250 
# 
# From -- ./inp_files/17789.got.cif
#   From: 2010.05.17/outbox.cif.g08.bks.cpg/sg21_9_cif.got.tgz:17789.got - 2010.06.03 23:14:55.
