data_PCOD9322212
_publ_section_title
;
Structure prediction by ZEFSAII (Michael W. Deem and Ramdas Pophale) SiO2 
 PCOD9322212
Probable space group: C 2 2 21
;
_chemical_formula_sum "Si O2"
_cell_formula_units_Z 20
_cell_length_a 9.000000
_cell_length_b 12.000000
_cell_length_c 18.000000
_cell_angle_alpha 90.000000
_cell_angle_beta 90.000000
_cell_angle_gamma 90.000000
_cell_volume 1944.000000
_symmetry_space_group_name_H-M "C 2 2 21"
_symmetry_group_IT_number 20
_symmetry_cell_setting 'orthorhombic'
loop_
_space_group_symop_operation_xyz
x,y,z
-x,-y,1/2+z
x,-y,-z
-x,y,1/2-z
1/2+x,1/2+y,z
1/2-x,1/2-y,1/2+z
1/2+x,1/2-y,-z
1/2-x,1/2+y,1/2-z
loop_
_atom_site_type_symbol
_atom_site_label
_atom_site_fract_x
_atom_site_fract_y
_atom_site_fract_z
Si Si1 0.321605 0.787371 0.577478
Si Si2 0.448832 0.392561 0.837166
Si Si3 0.066149 0.613757 0.532215
Si Si4 0.412633 0.170330 0.670695
Si Si5 0.942850 0.860768 0.165846
O O1 0.218119 0.854590 0.637932
O O2 0.197513 0.706070 0.539256
O O3 0.419574 0.853710 0.516574
O O4 0.452319 0.722079 0.620523
O O5 0.500000 0.400225 0.750000
O O6 0.554140 0.292911 0.863620
O O7 0.469733 0.515928 0.867084
O O8 0.130441 0.500000 0.500000
O O9 0.000210 0.590989 0.614469
O O10 0.500000 0.164195 0.750000
O O11 0.235917 0.155190 0.670995
O O12 0.000000 0.855976 0.250000
#
# Coordination Sequence:
#
# PCOD9322212 Si02
#       5
#     8   8   8   8   8
#     4  11  24  40  61  91 124 162 207 254 306 368
#     4   9  20  39  61  90 123 158 204 255 305 362
#     4  11  24  42  62  89 123 162 204 251 312 367
#     4  10  21  42  64  87 123 159 204 258 300 363
#     4  11  21  37  63  91 121 161 204 250 306 360
#
# _framework density 10.288066000000001
#
# number of rings (size 3 to 8) (size 9 to 14) (size 15 to 20)
#    0.000    1.600    0.000    6.000    0.000    4.800 
#    0.000   15.000    0.000    1.200    0.000    0.000 
#    0.000    0.000    0.000    0.000    0.000    0.000 
#
# Total GULP energy -111431.388773 kJ/mol
# GULP energy per Si atom -5571.569439 kJ/mol
# Density = 1.026465 g / cm^3
# Si number density = 10.288066 Si / 1000 Ang^3
#
#
#
# Elastic Constant Matrix: (Units=GPa)
#
#
# Indices 1 2 3 4 5 6 
#
# 1 100.6254 12.0948 29.9234 0.0000 0.0000 0.0000
# 2 12.0948 57.1053 34.7102 0.0000 0.0000 0.0000
# 3 29.9234 34.7102 80.4898 0.0000 0.0000 0.0000
# 4 0.0000 0.0000 0.0000 23.8202 0.0000 0.0000
# 5 0.0000 0.0000 0.0000 0.0000 45.9229 0.0000
# 6 0.0000 0.0000 0.0000 0.0000 0.0000 26.4483
#
#
#
# Elastic Compliance Matrix: (Units=1/GPa)
#
#
# Indices 1 2 3 4 5 6 
#
# 1 0.011175 0.000215 -0.004247 0.000000 0.000000 0.000000
# 2 0.000215 0.023736 -0.010316 0.000000 0.000000 0.000000
# 3 -0.004247 -0.010316 0.018451 0.000000 0.000000 0.000000
# 4 0.000000 0.000000 0.000000 0.041981 0.000000 0.000000
# 5 0.000000 0.000000 0.000000 0.000000 0.021776 0.000000
# 6 0.000000 0.000000 0.000000 0.000000 0.000000 0.037810
#
#
# Mechanical properties :
#
#
# Convention : Reuss Voigt Hill
#
# Bulk Modulus (GPa) = 40.54114 43.51970 42.03042
# Shear Modulus (GPa) = 26.06236 30.00442 28.03339
#
# Velocity S-wave (km/s) = 3.56284 3.82280 3.69511
# Velocity P-wave (km/s) = 6.05564 6.37821 6.21902
#
# Compressibility (1/GPa) = 0.02466630
#
# Stress axis : x y z
#
# Youngs Moduli (GPa) = 89.48533 42.12968 54.19647
#
# Poissons Ratio (x) = -0.00904 0.23018
# Poissons Ratio (y) = -0.01921 0.55908
# Poissons Ratio (z) = 0.38005 0.43460
#
# Static dielectric constant tensor:
#      x y z
#    x 1.685090 0.000000 0.000000 
#    y 0.000000 1.807210 0.000000 
#    z 0.000000 0.000000 1.786600 
# 
# From -- ./inp_files/23132.got.cif
#   From: 2010.05.17/outbox.ucp.g08.bks.cvg/sg20_12_cif.got.tgz:23132.got - 2010.06.11 15:13:06.
