data_PCOD9322999
_publ_section_title
;
Structure prediction by ZEFSAII (Michael W. Deem and Ramdas Pophale) SiO2 
 PCOD9322999
Probable space group: C 2 2 2
;
_chemical_formula_sum "Si O2"
_cell_formula_units_Z 48
_cell_length_a 15.410927
_cell_length_b 14.674259
_cell_length_c 11.578334
_cell_angle_alpha 90.000000
_cell_angle_beta 90.000000
_cell_angle_gamma 90.000000
_cell_volume 2618.370003
_symmetry_space_group_name_H-M "C 2 2 2"
_symmetry_group_IT_number 21
_symmetry_cell_setting 'orthorhombic'
loop_
_space_group_symop_operation_xyz
x,y,z
-x,-y,z
x,-y,-z
-x,y,-z
1/2+x,1/2+y,z
1/2-x,1/2-y,z
1/2+x,1/2-y,-z
1/2-x,1/2+y,-z
loop_
_atom_site_type_symbol
_atom_site_label
_atom_site_fract_x
_atom_site_fract_y
_atom_site_fract_z
Si Si1 0.918246 0.459651 0.870688
Si Si2 0.829443 0.823073 0.266550
Si Si3 0.510402 0.243899 0.869619
Si Si4 0.227749 0.995151 0.138901
Si Si5 0.895794 0.108999 0.492592
Si Si6 0.162740 0.809339 0.248115
O O1 0.943462 0.354611 0.882953
O O2 0.827768 0.492875 0.820986
O O3 0.000000 0.500000 0.803697
O O4 0.915619 0.500000 0.000000
O O5 0.750000 0.750000 0.250445
O O6 0.920287 0.791704 0.212237
O O7 0.846553 0.844107 0.400574
O O8 0.812894 0.916769 0.198507
O O9 0.415895 0.252502 0.810715
O O10 0.500000 0.281389 0.000000
O O11 0.184639 0.900821 0.176224
O O12 0.224195 0.000000 0.000000
O O13 0.864846 0.154155 0.373658
O O14 0.000000 0.120854 0.500000
O O15 0.878776 0.000000 0.500000
O O16 0.250000 0.750000 0.252775
#
# Coordination Sequence:
#
# PCOD9322999 Si02
#       6
#     8   8   8   8   8   8
#     4  10  19  37  62  89 132 176 215 249 309 399
#     4  12  24  43  69  96 131 170 223 279 323 389
#     4  12  24  39  65 102 134 173 213 264 329 395
#     4  11  24  40  63  98 136 175 211 266 334 395
#     4  11  23  46  70  88 121 175 228 272 336 385
#     4  12  26  43  67  96 133 173 223 276 324 393
#
# _framework density 18.332015999999999
#
# number of rings (size 3 to 8) (size 9 to 14) (size 15 to 20)
#    0.000    0.667    6.667    2.500    2.333    2.000 
#    0.000    1.667    0.000    0.000    0.000    2.333 
#    0.000    0.000    0.000    0.000    0.000    0.000 
#
# Total GULP energy -133807.501483 kJ/mol
# GULP energy per Si atom -5575.312562 kJ/mol
# Density = 1.829029 g / cm^3
# Si number density = 18.332016 Si / 1000 Ang^3
#
#
#
# Elastic Constant Matrix: (Units=GPa)
#
#
# Indices 1 2 3 4 5 6 
#
# 1 117.4561 28.7197 32.6161 0.0000 0.0000 0.0000
# 2 28.7197 83.3351 26.1484 0.0000 0.0000 0.0000
# 3 32.6161 26.1484 118.1888 0.0000 0.0000 0.0000
# 4 0.0000 0.0000 0.0000 -5.9324 0.0000 0.0000
# 5 0.0000 0.0000 0.0000 0.0000 25.6414 0.0000
# 6 0.0000 0.0000 0.0000 0.0000 0.0000 30.2712
#
#
#
# Elastic Compliance Matrix: (Units=1/GPa)
#
#
# Indices 1 2 3 4 5 6 
#
# 1 0.009757 -0.002705 -0.002094 0.000000 0.000000 0.000000
# 2 -0.002705 0.013645 -0.002272 0.000000 0.000000 0.000000
# 3 -0.002094 -0.002272 0.009542 0.000000 0.000000 0.000000
# 4 0.000000 0.000000 0.000000 -0.168567 0.000000 0.000000
# 5 0.000000 0.000000 0.000000 0.000000 0.038999 0.000000
# 6 0.000000 0.000000 0.000000 0.000000 0.000000 0.033035
#
#
# Mechanical properties :
#
#
# Convention : Reuss Voigt Hill
#
# Bulk Modulus (GPa) = 53.19107 54.88315 54.03711
# Shear Modulus (GPa) = -115.79617 25.42909 -45.18354
#
# Velocity S-wave (km/s) = -7.95633 3.72847 -4.96999
# Velocity P-wave (km/s) = 7.43814 6.96698 1.84216
#
# Compressibility (1/GPa) = 0.01880015
#
# Stress axis : x y z
#
# Youngs Moduli (GPa) = 102.49243 73.28633 104.80384
#
# Poissons Ratio (x) = 0.19827 0.21946
# Poissons Ratio (y) = 0.27729 0.23814
# Poissons Ratio (z) = 0.21462 0.16653
#
# Static dielectric constant tensor:
#      x y z
#    x 1.724390 0.000000 0.000000 
#    y 0.000000 1.553840 0.000000 
#    z 0.000000 0.000000 1.603250 
# 
# From -- ./inp_files/25193.got.cif
#   From: 2010.05.17/outbox.cif.g08.bks.cpg/sg21_13_cif.got.tgz:25193.got - 2010.06.03 23:14:55.
