data_PCOD9322795
_publ_section_title
;
Structure prediction by ZEFSAII (Michael W. Deem and Ramdas Pophale) SiO2 
 PCOD9322795
Probable space group: C 2 2 2
;
_chemical_formula_sum "Si O2"
_cell_formula_units_Z 64
_cell_length_a 7.575918
_cell_length_b 31.658390
_cell_length_c 12.415696
_cell_angle_alpha 90.000000
_cell_angle_beta 90.000000
_cell_angle_gamma 90.000000
_cell_volume 2977.797497
_symmetry_space_group_name_H-M "C 2 2 2"
_symmetry_group_IT_number 21
_symmetry_cell_setting 'orthorhombic'
loop_
_space_group_symop_operation_xyz
x,y,z
-x,-y,z
x,-y,-z
-x,y,-z
1/2+x,1/2+y,z
1/2-x,1/2-y,z
1/2+x,1/2-y,-z
1/2-x,1/2+y,-z
loop_
_atom_site_type_symbol
_atom_site_label
_atom_site_fract_x
_atom_site_fract_y
_atom_site_fract_z
Si Si1 0.211922 0.703551 0.764613
Si Si2 0.285415 0.413660 1.000000
Si Si3 0.294046 0.184958 1.000000
Si Si4 0.212492 0.047329 0.773410
Si Si5 0.711009 0.125631 0.378294
Si Si6 0.211922 0.296449 0.764613
Si Si7 0.711009 0.125631 0.621706
Si Si8 0.712492 0.452671 0.773410
O O1 0.250000 0.750000 0.720167
O O2 0.279993 0.665013 0.692163
O O3 1.000000 0.698536 0.771322
O O4 0.283793 0.700556 0.886916
O O5 0.219570 0.365723 1.000000
O O6 0.226949 0.436883 0.891070
O O7 0.500000 0.412537 0.000000
O O8 0.226949 0.436883 0.108929
O O9 0.216207 0.200556 0.886916
O O10 0.500000 0.197330 0.000000
O O11 0.258209 0.082213 0.685063
O O12 0.000000 0.045680 0.778389
O O13 0.277019 1.000000 0.750151
O O14 0.779993 0.165013 0.307837
O O15 0.780986 0.124812 0.500000
O O16 0.500000 0.131113 0.385129
O O17 0.250000 0.250000 0.720167
O O18 0.741791 0.082213 0.685064
#
# Coordination Sequence:
#
# PCOD9322795 Si02
#       8
#     8   8   8   8   8   8   8   8
#     4  10  21  36  56  82 112 144 181 226 277 331
#     4  10  19  33  57  85 113 145 180 222 276 333
#     4  10  19  34  56  82 112 145 180 224 276 331
#     4  10  21  37  58  85 115 146 182 227 278 331
#     4  10  22  40  59  80 110 148 190 234 276 321
#     4  10  21  36  56  82 112 144 181 226 277 331
#     4  10  22  40  59  80 110 148 190 234 276 321
#     4  10  21  37  58  85 115 146 182 227 278 331
#
# _framework density 21.492394000000001
#
# number of rings (size 3 to 8) (size 9 to 14) (size 15 to 20)
#    0.000    2.000    2.500    0.750    0.000    5.500 
#    0.000    2.500    0.000    2.250    0.000    0.000 
#    0.000    0.000    0.000    0.000    0.000    0.000 
#
# Total GULP energy -178807.166285 kJ/mol
# GULP energy per Si atom -5587.723946 kJ/mol
# Density = 2.144348 g / cm^3
# Si number density = 21.492394 Si / 1000 Ang^3
#
#
#
# Elastic Constant Matrix: (Units=GPa)
#
#
# Indices 1 2 3 4 5 6 
#
# 1 48.3215 -12.5480 6.5706 0.0000 0.0000 0.0000
# 2 -12.5480 187.2689 91.0506 0.0000 0.0000 0.0000
# 3 6.5706 91.0506 175.1040 0.0000 0.0000 0.0000
# 4 0.0000 0.0000 0.0000 -1.0894 0.0000 0.0000
# 5 0.0000 0.0000 0.0000 0.0000 -123.8955 0.0000
# 6 0.0000 0.0000 0.0000 0.0000 0.0000 28.0035
#
#
#
# Elastic Compliance Matrix: (Units=1/GPa)
#
#
# Indices 1 2 3 4 5 6 
#
# 1 0.021620 0.002467 -0.002094 0.000000 0.000000 0.000000
# 2 0.002467 0.007428 -0.003955 0.000000 0.000000 0.000000
# 3 -0.002094 -0.003955 0.007846 0.000000 0.000000 0.000000
# 4 0.000000 0.000000 0.000000 -0.917905 0.000000 0.000000
# 5 0.000000 0.000000 0.000000 0.000000 -0.008071 0.000000
# 6 0.000000 0.000000 0.000000 0.000000 0.000000 0.035710
#
#
# Mechanical properties :
#
#
# Convention : Reuss Voigt Hill
#
# Bulk Modulus (GPa) = 33.63639 64.53784 49.08712
# Shear Modulus (GPa) = -5.97873 2.31180 -1.83346
#
# Velocity S-wave (km/s) = -1.66968 1.03826 -0.92462
# Velocity P-wave (km/s) = 3.45937 5.61522 4.66358
#
# Compressibility (1/GPa) = 0.02972970
#
# Stress axis : x y z
#
# Youngs Moduli (GPa) = 46.25343 134.62293 127.45330
#
# Poissons Ratio (x) = -0.33208 0.26688
# Poissons Ratio (y) = -0.11409 0.50408
# Poissons Ratio (z) = 0.09685 0.53244
#
# Static dielectric constant tensor:
#      x y z
#    x 1.813960 0.000000 0.000000 
#    y 0.000000 1.746440 0.000000 
#    z 0.000000 0.000000 1.771820 
# 
# From -- ./inp_files/23133.got.cif
#   From: 2010.05.17/outbox.cif.g08.bks.cpg/sg21_12_cif.got.tgz:23133.got - 2010.06.03 23:14:55.
