data_PCOD9322232
_publ_section_title
;
Structure prediction by ZEFSAII (Michael W. Deem and Ramdas Pophale) SiO2 
 PCOD9322232
Probable space group: C 2 2 21
;
_chemical_formula_sum "Si O2"
_cell_formula_units_Z 32
_cell_length_a 24.000000
_cell_length_b 15.000000
_cell_length_c 9.000000
_cell_angle_alpha 90.000000
_cell_angle_beta 90.000000
_cell_angle_gamma 90.000000
_cell_volume 3240.000000
_symmetry_space_group_name_H-M "C 2 2 21"
_symmetry_group_IT_number 20
_symmetry_cell_setting 'orthorhombic'
loop_
_space_group_symop_operation_xyz
x,y,z
-x,-y,1/2+z
x,-y,-z
-x,y,1/2-z
1/2+x,1/2+y,z
1/2-x,1/2-y,1/2+z
1/2+x,1/2-y,-z
1/2-x,1/2+y,1/2-z
loop_
_atom_site_type_symbol
_atom_site_label
_atom_site_fract_x
_atom_site_fract_y
_atom_site_fract_z
Si Si1 0.365142 0.913477 0.423885
Si Si2 0.138144 0.087841 0.574095
Si Si3 0.751714 0.651723 0.428900
Si Si4 0.434059 0.266661 0.921554
Si Si5 0.751715 0.348277 0.928900
Si Si6 0.365142 0.086523 0.923886
Si Si7 0.065941 0.766661 0.921554
Si Si8 0.861856 0.087841 0.574095
O O1 0.308168 0.892559 0.511640
O O2 0.352389 0.928343 0.250000
O O3 0.406341 0.830131 0.434401
O O4 0.390785 0.000000 0.500000
O O5 0.197171 0.103640 0.492746
O O6 0.098281 0.169506 0.533380
O O7 0.146024 0.079056 0.750000
O O8 0.112787 0.000000 0.500000
O O9 0.750472 0.655178 0.250000
O O10 0.750000 0.750000 0.500000
O O11 0.406341 0.169869 0.934402
O O12 0.500000 0.264542 0.946947
O O13 0.424213 0.296908 0.750000
O O14 0.808168 0.392560 0.988360
O O15 0.697171 0.396361 0.992746
O O16 0.390786 0.000000 0.000000
O O17 0.098281 0.830494 0.033380
O O18 0.887214 0.000000 0.500000
#
# Coordination Sequence:
#
# PCOD9322232 Si02
#       8
#     8   8   8   8   8   8   8   8
#     4  11  23  40  64  94 130 168 210 259 312 373
#     4  12  25  42  66  95 128 167 210 260 315 377
#     4  12  23  39  64  95 130 166 206 255 314 380
#     4  10  23  44  67  91 124 167 215 266 316 370
#     4  12  23  39  64  95 130 166 206 255 314 380
#     4  11  23  40  64  94 130 168 210 259 312 373
#     4  10  23  44  67  91 124 167 215 266 316 370
#     4  12  25  42  66  95 128 167 210 260 315 377
#
# _framework density 9.8765429999999999
#
# number of rings (size 3 to 8) (size 9 to 14) (size 15 to 20)
#    0.000    0.750    2.500    6.000    0.000    2.500 
#    0.000    0.000    0.000    0.000    0.000    0.000 
#    0.000    0.000    0.000    0.000    0.000    0.000 
#
# Total GULP energy -179017.435251 kJ/mol
# GULP energy per Si atom -5594.294852 kJ/mol
# Density = 0.985406 g / cm^3
# Si number density = 9.876543 Si / 1000 Ang^3
#
#
#
# Elastic Constant Matrix: (Units=GPa)
#
#
# Indices 1 2 3 4 5 6 
#
# 1 60.4275 -0.4137 31.7861 0.0000 0.0000 0.0000
# 2 -0.4137 93.9615 53.9516 0.0000 0.0000 0.0000
# 3 31.7861 53.9516 182.1356 0.0000 0.0000 0.0000
# 4 0.0000 0.0000 0.0000 32.1324 0.0000 0.0000
# 5 0.0000 0.0000 0.0000 0.0000 14.6772 0.0000
# 6 0.0000 0.0000 0.0000 0.0000 0.0000 -41.1162
#
#
#
# Elastic Compliance Matrix: (Units=1/GPa)
#
#
# Indices 1 2 3 4 5 6 
#
# 1 0.018642 0.002350 -0.003950 0.000000 0.000000 0.000000
# 2 0.002350 0.013120 -0.004296 0.000000 0.000000 0.000000
# 3 -0.003950 -0.004296 0.007452 0.000000 0.000000 0.000000
# 4 0.000000 0.000000 0.000000 0.031121 0.000000 0.000000
# 5 0.000000 0.000000 0.000000 0.000000 0.068133 0.000000
# 6 0.000000 0.000000 0.000000 0.000000 0.000000 -0.024321
#
#
# Mechanical properties :
#
#
# Convention : Reuss Voigt Hill
#
# Bulk Modulus (GPa) = 36.46644 56.35252 46.40948
# Shear Modulus (GPa) = 37.01496 17.88537 27.45017
#
# Velocity S-wave (km/s) = 4.33353 3.01233 3.73186
# Velocity P-wave (km/s) = 6.59853 6.37881 6.48960
#
# Compressibility (1/GPa) = 0.02742247
#
# Stress axis : x y z
#
# Youngs Moduli (GPa) = 53.64120 76.21968 134.18565
#
# Poissons Ratio (x) = -0.17910 0.52997
# Poissons Ratio (y) = -0.12605 0.57652
# Poissons Ratio (z) = 0.21186 0.32747
#
# Static dielectric constant tensor:
#      x y z
#    x 1.671760 0.000000 0.000000 
#    y 0.000000 1.800130 0.000000 
#    z 0.000000 0.000000 1.656530 
# 
# From -- ./inp_files/10806.got.cif
#   From: 2010.05.17/outbox.ucp.g08.bks.cvg/sg20_6_cif.got.tgz:10806.got - 2010.06.11 15:13:06.
