data_PCOD9322233
_publ_section_title
;
Structure prediction by ZEFSAII (Michael W. Deem and Ramdas Pophale) SiO2 
 PCOD9322233
Probable space group: C 2 2 21
;
_chemical_formula_sum "Si O2"
_cell_formula_units_Z 30
_cell_length_a 9.000000
_cell_length_b 12.000000
_cell_length_c 27.000000
_cell_angle_alpha 90.000000
_cell_angle_beta 90.000000
_cell_angle_gamma 90.000000
_cell_volume 2916.000000
_symmetry_space_group_name_H-M "C 2 2 21"
_symmetry_group_IT_number 20
_symmetry_cell_setting 'orthorhombic'
loop_
_space_group_symop_operation_xyz
x,y,z
-x,-y,1/2+z
x,-y,-z
-x,y,1/2-z
1/2+x,1/2+y,z
1/2-x,1/2-y,1/2+z
1/2+x,1/2-y,-z
1/2-x,1/2+y,1/2-z
loop_
_atom_site_type_symbol
_atom_site_label
_atom_site_fract_x
_atom_site_fract_y
_atom_site_fract_z
Si Si1 0.540373 0.369406 0.985474
Si Si2 0.312944 0.631343 0.664061
Si Si3 0.345447 0.724809 0.284036
Si Si4 0.786891 0.384629 0.631881
Si Si5 0.010612 0.458285 0.194829
Si Si6 0.451333 0.427307 0.627503
Si Si7 0.808508 0.372458 0.514994
Si Si8 0.500000 0.718977 0.750000
O O1 0.552151 0.368221 0.925629
O O2 0.365739 0.364743 0.000897
O O3 0.589463 0.500000 0.000000
O O4 0.615606 0.249295 0.001744
O O5 0.283733 0.756924 0.648275
O O6 0.377978 0.548668 0.623170
O O7 0.441620 0.642050 0.705336
O O8 0.154500 0.582770 0.681278
O O9 0.500000 0.703014 0.250000
O O10 0.381773 0.850352 0.302105
O O11 0.363810 0.639859 0.329701
O O12 0.169324 0.725603 0.264457
O O13 0.916193 0.451958 0.659162
O O14 0.624411 0.435075 0.642432
O O15 0.813152 0.382368 0.573875
O O16 0.000000 0.505923 0.250000
O O17 0.862904 0.500000 0.500000
#
# Coordination Sequence:
#
# PCOD9322233 Si02
#       8
#     8   8   8   8   8   8   8   4
#     4  10  23  47  71 103 145 181 235 305 367 438
#     4  12  26  42  64 103 132 185 241 281 353 424
#     4  11  23  46  68 100 145 191 240 295 350 429
#     4  11  25  45  69  97 144 184 235 301 357 431
#     4  11  24  46  65  98 144 184 238 292 341 431
#     4  11  25  43  71 100 140 188 238 296 361 431
#     4  10  24  43  72 105 137 184 238 298 371 435
#     4  12  24  44  68 100 146 190 236 294 356 412
#
# _framework density 10.288066000000001
#
# number of rings (size 3 to 8) (size 9 to 14) (size 15 to 20)
#    0.000    1.067    4.000    1.600    5.600    1.600 
#    2.400    0.000    0.000    0.000    0.000    0.000 
#    0.000    0.000    0.000    0.000    0.000    0.000 
#
# Total GULP energy -167141.020333 kJ/mol
# GULP energy per Si atom -5571.367344 kJ/mol
# Density = 1.026465 g / cm^3
# Si number density = 10.288066 Si / 1000 Ang^3
#
#
#
# Elastic Constant Matrix: (Units=GPa)
#
#
# Indices 1 2 3 4 5 6 
#
# 1 136.9029 63.1411 39.2440 0.0000 0.0000 0.0000
# 2 63.1411 138.7185 39.0900 0.0000 0.0000 0.0000
# 3 39.2440 39.0900 76.7114 0.0000 0.0000 0.0000
# 4 0.0000 0.0000 0.0000 39.3678 0.0000 0.0000
# 5 0.0000 0.0000 0.0000 0.0000 27.1900 0.0000
# 6 0.0000 0.0000 0.0000 0.0000 0.0000 42.8027
#
#
#
# Elastic Compliance Matrix: (Units=1/GPa)
#
#
# Indices 1 2 3 4 5 6 
#
# 1 0.009885 -0.003590 -0.003228 0.000000 0.000000 0.000000
# 2 -0.003590 0.009721 -0.003117 0.000000 0.000000 0.000000
# 3 -0.003228 -0.003117 0.016276 0.000000 0.000000 0.000000
# 4 0.000000 0.000000 0.000000 0.025401 0.000000 0.000000
# 5 0.000000 0.000000 0.000000 0.000000 0.036778 0.000000
# 6 0.000000 0.000000 0.000000 0.000000 0.000000 0.023363
#
#
# Mechanical properties :
#
#
# Convention : Reuss Voigt Hill
#
# Bulk Modulus (GPa) = 62.45165 70.58698 66.51931
# Shear Modulus (GPa) = 34.09884 35.92927 35.01405
#
# Velocity S-wave (km/s) = 4.07529 4.18324 4.12962
# Velocity P-wave (km/s) = 7.24992 7.59687 7.42542
#
# Compressibility (1/GPa) = 0.01601239
#
# Stress axis : x y z
#
# Youngs Moduli (GPa) = 101.15841 102.86667 61.44187
#
# Poissons Ratio (x) = 0.36930 0.19832
# Poissons Ratio (y) = 0.36316 0.19152
# Poissons Ratio (z) = 0.32652 0.32065
#
# Static dielectric constant tensor:
#      x y z
#    x 1.760310 0.000000 0.000000 
#    y 0.000000 1.781520 0.000000 
#    z 0.000000 0.000000 3.143550 
# 
# From -- ./inp_files/30153.got.cif
#   From: 2010.05.17/outbox.ucp.g08.bks.cvg/sg20_16_cif.got.tgz:30153.got - 2010.06.11 15:13:06.
