data_PCOD9322811
_publ_section_title
;
Structure prediction by ZEFSAII (Michael W. Deem and Ramdas Pophale) SiO2 
 PCOD9322811
Probable space group: C 2 2 2
;
_chemical_formula_sum "Si O2"
_cell_formula_units_Z 28
_cell_length_a 5.052611
_cell_length_b 23.188611
_cell_length_c 11.561567
_cell_angle_alpha 90.000000
_cell_angle_beta 90.000000
_cell_angle_gamma 90.000000
_cell_volume 1354.588233
_symmetry_space_group_name_H-M "C 2 2 2"
_symmetry_group_IT_number 21
_symmetry_cell_setting 'orthorhombic'
loop_
_space_group_symop_operation_xyz
x,y,z
-x,-y,z
x,-y,-z
-x,y,-z
1/2+x,1/2+y,z
1/2-x,1/2-y,z
1/2+x,1/2-y,-z
1/2-x,1/2+y,-z
loop_
_atom_site_type_symbol
_atom_site_label
_atom_site_fract_x
_atom_site_fract_y
_atom_site_fract_z
Si Si1 0.970367 0.863017 0.782110
Si Si2 0.750000 0.750000 0.781273
Si Si3 0.152644 0.310468 0.397255
Si Si4 0.026552 0.567467 0.862110
O O1 0.101436 0.843842 0.659586
O O2 0.193645 0.903684 0.834929
O O3 0.914618 0.800688 0.842704
O O4 0.700800 0.898669 0.792597
O O5 0.545658 0.787507 0.703152
O O6 0.250000 0.250000 0.450079
O O7 0.000000 0.342473 0.500000
O O8 0.000000 0.500000 0.833945
O O9 0.000000 0.573533 0.000000
#
# Coordination Sequence:
#
# PCOD9322811 Si02
#       4
#     8   4   8   8
#     4  11  22  39  64  96 130 158 210 270 325 379
#     4  10  20  38  60  96 128 166 200 256 318 398
#     4  10  19  33  62  95 132 169 211 250 310 388
#     4  11  24  44  68  90 117 168 231 275 316 376
#
# _framework density 20.670490000000001
#
# number of rings (size 3 to 8) (size 9 to 14) (size 15 to 20)
#    0.000    1.429    4.286    1.714    0.000    2.286 
#    0.000    2.857    3.143    0.857    7.429    0.000 
#    0.000    0.000    0.000    0.000    0.000    0.000 
#
# Total GULP energy -78037.212289 kJ/mol
# GULP energy per Si atom -5574.086592 kJ/mol
# Density = 2.062344 g / cm^3
# Si number density = 20.670490 Si / 1000 Ang^3
#
#
#
# Elastic Constant Matrix: (Units=GPa)
#
#
# Indices 1 2 3 4 5 6 
#
# 1 90.0871 28.8798 -7.3394 0.0000 0.0000 0.0000
# 2 28.8798 130.8925 25.3710 0.0000 0.0000 0.0000
# 3 -7.3394 25.3710 23.1695 0.0000 0.0000 0.0000
# 4 0.0000 0.0000 0.0000 17.3072 0.0000 0.0000
# 5 0.0000 0.0000 0.0000 0.0000 16.6897 0.0000
# 6 0.0000 0.0000 0.0000 0.0000 0.0000 35.5476
#
#
#
# Elastic Compliance Matrix: (Units=1/GPa)
#
#
# Indices 1 2 3 4 5 6 
#
# 1 0.013415 -0.004803 0.009509 0.000000 0.000000 0.000000
# 2 -0.004803 0.011418 -0.014024 0.000000 0.000000 0.000000
# 3 0.009509 -0.014024 0.061529 0.000000 0.000000 0.000000
# 4 0.000000 0.000000 0.000000 0.057779 0.000000 0.000000
# 5 0.000000 0.000000 0.000000 0.000000 0.059917 0.000000
# 6 0.000000 0.000000 0.000000 0.000000 0.000000 0.028131
#
#
# Mechanical properties :
#
#
# Convention : Reuss Voigt Hill
#
# Bulk Modulus (GPa) = 14.76564 37.55242 26.15903
# Shear Modulus (GPa) = 18.28814 27.05809 22.67311
#
# Velocity S-wave (km/s) = 2.97770 3.62196 3.31552
# Velocity P-wave (km/s) = 4.35673 5.97479 5.22873
#
# Compressibility (1/GPa) = 0.06772482
#
# Stress axis : x y z
#
# Youngs Moduli (GPa) = 74.54499 87.58197 16.25247
#
# Poissons Ratio (x) = 0.42064 -0.15454
# Poissons Ratio (y) = 0.35803 0.22793
# Poissons Ratio (z) = -0.70882 1.22827
#
# Static dielectric constant tensor:
#      x y z
#    x 1.847480 0.000000 0.000000 
#    y 0.000000 1.741160 0.000000 
#    z 0.000000 0.000000 1.780250 
# 
# From -- ./inp_files/20520.got.cif
#   From: 2010.05.17/outbox.cif.g08.bks.cpg/sg21_11_cif.got.tgz:20520.got - 2010.06.03 23:14:55.
