data_PCOD9322936
_publ_section_title
;
Structure prediction by ZEFSAII (Michael W. Deem and Ramdas Pophale) SiO2 
 PCOD9322936
Probable space group: C 2 2 2
;
_chemical_formula_sum "Si O2"
_cell_formula_units_Z 32
_cell_length_a 13.936108
_cell_length_b 8.817292
_cell_length_c 11.050458
_cell_angle_alpha 90.000000
_cell_angle_beta 90.000000
_cell_angle_gamma 90.000000
_cell_volume 1357.866285
_symmetry_space_group_name_H-M "C 2 2 2"
_symmetry_group_IT_number 21
_symmetry_cell_setting 'orthorhombic'
loop_
_space_group_symop_operation_xyz
x,y,z
-x,-y,z
x,-y,-z
-x,y,-z
1/2+x,1/2+y,z
1/2-x,1/2-y,z
1/2+x,1/2-y,-z
1/2-x,1/2+y,-z
loop_
_atom_site_type_symbol
_atom_site_label
_atom_site_fract_x
_atom_site_fract_y
_atom_site_fract_z
Si Si1 0.965225 0.154689 0.290935
Si Si2 0.840235 0.164276 0.055789
Si Si3 0.410895 0.884559 0.840164
Si Si4 0.886844 0.556231 0.624248
O O1 0.916143 0.131051 0.160113
O O2 0.896674 0.263098 0.367945
O O3 0.056554 0.253294 0.251884
O O4 0.000000 0.000000 0.347162
O O5 0.750000 0.250000 0.110618
O O6 0.874879 0.289573 0.955496
O O7 0.816427 0.000000 0.000000
O O8 0.500000 0.000000 0.869716
O O9 0.346347 0.988602 0.750656
O O10 0.841669 0.500000 0.500000
O O11 0.000000 0.500000 0.621792
#
# Coordination Sequence:
#
# PCOD9322936 Si02
#       4
#     8   8   8   8
#     4  10  19  36  59  86 118 158 193 253 298 362
#     4  12  26  37  56  91 129 159 202 251 304 365
#     4   9  20  36  61  84 118 156 201 238 309 354
#     4   8  17  34  58  87 116 148 197 245 303 356
#
# _framework density 23.566386999999999
#
# number of rings (size 3 to 8) (size 9 to 14) (size 15 to 20)
#    0.000    2.750    2.500    0.750    7.000    4.000 
#    0.000   10.000    0.000    1.500    0.000    0.000 
#    0.000    0.000    0.000    0.000    0.000    0.000 
#
# Total GULP energy -89143.766118 kJ/mol
# GULP energy per Si atom -5571.485382 kJ/mol
# Density = 2.351275 g / cm^3
# Si number density = 23.566387 Si / 1000 Ang^3
#
#
#
# Elastic Constant Matrix: (Units=GPa)
#
#
# Indices 1 2 3 4 5 6 
#
# 1 12.7472 27.0164 8.1713 0.0000 0.0000 0.0000
# 2 27.0164 200.8607 51.0216 0.0000 0.0000 0.0000
# 3 8.1713 51.0216 114.2217 0.0000 0.0000 0.0000
# 4 0.0000 0.0000 0.0000 8.1862 0.0000 0.0000
# 5 0.0000 0.0000 0.0000 0.0000 -4.2695 0.0000
# 6 0.0000 0.0000 0.0000 0.0000 0.0000 28.9631
#
#
#
# Elastic Compliance Matrix: (Units=1/GPa)
#
#
# Indices 1 2 3 4 5 6 
#
# 1 0.109932 -0.014425 -0.001421 0.000000 0.000000 0.000000
# 2 -0.014425 0.007509 -0.002322 0.000000 0.000000 0.000000
# 3 -0.001421 -0.002322 0.009894 0.000000 0.000000 0.000000
# 4 0.000000 0.000000 0.000000 0.122156 0.000000 0.000000
# 5 0.000000 0.000000 0.000000 0.000000 -0.234222 0.000000
# 6 0.000000 0.000000 0.000000 0.000000 0.000000 0.034527
#
#
# Mechanical properties :
#
#
# Convention : Reuss Voigt Hill
#
# Bulk Modulus (GPa) = 10.98923 55.58313 33.28618
# Shear Modulus (GPa) = 42.93150 22.68401 32.80775
#
# Velocity S-wave (km/s) = 4.27280 3.10588 3.73519
# Velocity P-wave (km/s) = 5.38662 6.04143 5.72340
#
# Compressibility (1/GPa) = 0.09099816
#
# Stress axis : x y z
#
# Youngs Moduli (GPa) = 9.09653 133.17943 101.07358
#
# Poissons Ratio (x) = 1.92115 0.14360
# Poissons Ratio (y) = 0.13122 0.23470
# Poissons Ratio (z) = 0.01292 0.30925
#
# Static dielectric constant tensor:
#      x y z
#    x 1.942560 0.000000 0.000000 
#    y 0.000000 2.046840 0.000000 
#    z 0.000000 0.000000 1.985490 
# 
# From -- ./inp_files/25732.got.cif
#   From: 2010.05.17/outbox.cif.g08.bks.cpg/sg21_13_cif.got.tgz:25732.got - 2010.06.03 23:14:55.
