data_PCOD9322267
_publ_section_title
;
Structure prediction by ZEFSAII (Michael W. Deem and Ramdas Pophale) SiO2 
 PCOD9322267
Probable space group: C 2 2 2
;
_chemical_formula_sum "Si O2"
_cell_formula_units_Z 32
_cell_length_a 12.914565
_cell_length_b 14.539155
_cell_length_c 9.149434
_cell_angle_alpha 90.000000
_cell_angle_beta 90.000000
_cell_angle_gamma 90.000000
_cell_volume 1717.960514
_symmetry_space_group_name_H-M "C 2 2 2"
_symmetry_group_IT_number 21
_symmetry_cell_setting 'orthorhombic'
loop_
_space_group_symop_operation_xyz
x,y,z
-x,-y,z
x,-y,-z
-x,y,-z
1/2+x,1/2+y,z
1/2-x,1/2-y,z
1/2+x,1/2-y,-z
1/2-x,1/2+y,-z
loop_
_atom_site_type_symbol
_atom_site_label
_atom_site_fract_x
_atom_site_fract_y
_atom_site_fract_z
Si Si1 0.500000 0.500000 0.000000
Si Si2 0.000000 0.271777 0.500000
Si Si3 0.179372 0.173545 0.324891
Si Si4 0.500000 0.500000 0.500000
Si Si5 0.353855 0.466962 0.755694
Si Si6 0.173227 0.596554 0.421124
O O1 0.423361 0.442784 0.894365
O O2 0.926171 0.215044 0.609286
O O3 0.924913 0.338153 0.405904
O O4 0.250000 0.250000 0.244541
O O5 0.159316 0.078130 0.241711
O O6 0.251463 0.145559 0.462266
O O7 0.423214 0.448818 0.610869
O O8 0.242695 0.423208 0.721913
O O9 0.145384 0.500000 0.500000
#
# Coordination Sequence:
#
# PCOD9322267 Si02
#       6
#     2   4   8   2   8   8
#     4  10  24  30  56  74 102 142 202 210 256 300
#     4  10  18  26  47  87 108 126 162 222 282 322
#     4   9  17  28  49  76 104 132 165 217 279 314
#     4  10  14  26  56  66  96 118 170 226 266 284
#     4  10  18  33  51  77  98 138 179 225 254 317
#     4   9  17  30  49  76 107 133 169 216 265 315
#
# _framework density 18.626736999999999
#
# number of rings (size 3 to 8) (size 9 to 14) (size 15 to 20)
#    0.000    2.500    3.750    1.125    3.500    0.000 
#    0.000    0.000    5.500    0.000    0.000   15.750 
#    0.000    0.000    0.000    0.000    0.000    0.000 
#
# Total GULP energy -89087.218049 kJ/mol
# GULP energy per Si atom -5567.951128 kJ/mol
# Density = 1.858434 g / cm^3
# Si number density = 18.626737 Si / 1000 Ang^3
#
#
#
# Elastic Constant Matrix: (Units=GPa)
#
#
# Indices 1 2 3 4 5 6 
#
# 1 106.7364 42.1604 19.1019 0.0000 0.0000 0.0000
# 2 42.1604 82.8925 2.5171 0.0000 0.0000 0.0000
# 3 19.1019 2.5171 63.6356 0.0000 0.0000 0.0000
# 4 0.0000 0.0000 0.0000 7.0446 0.0000 0.0000
# 5 0.0000 0.0000 0.0000 0.0000 28.1459 0.0000
# 6 0.0000 0.0000 0.0000 0.0000 0.0000 47.3355
#
#
#
# Elastic Compliance Matrix: (Units=1/GPa)
#
#
# Indices 1 2 3 4 5 6 
#
# 1 0.012454 -0.006228 -0.003492 0.000000 0.000000 0.000000
# 2 -0.006228 0.015193 0.001269 0.000000 0.000000 0.000000
# 3 -0.003492 0.001269 0.016713 0.000000 0.000000 0.000000
# 4 0.000000 0.000000 0.000000 0.141953 0.000000 0.000000
# 5 0.000000 0.000000 0.000000 0.000000 0.035529 0.000000
# 6 0.000000 0.000000 0.000000 0.000000 0.000000 0.021126
#
#
# Mechanical properties :
#
#
# Convention : Reuss Voigt Hill
#
# Bulk Modulus (GPa) = 36.42159 42.31369 39.36764
# Shear Modulus (GPa) = 18.58581 29.13754 23.86167
#
# Velocity S-wave (km/s) = 3.16223 3.95940 3.58305
# Velocity P-wave (km/s) = 5.73836 6.60821 6.18858
#
# Compressibility (1/GPa) = 0.02745624
#
# Stress axis : x y z
#
# Youngs Moduli (GPa) = 80.29593 65.81948 59.83540
#
# Poissons Ratio (x) = 0.40994 0.20895
# Poissons Ratio (y) = 0.50010 -0.07591
# Poissons Ratio (z) = 0.28039 -0.08350
#
# Static dielectric constant tensor:
#      x y z
#    x 1.702660 0.000000 0.000000 
#    y 0.000000 1.773240 0.000000 
#    z 0.000000 0.000000 1.636750 
# 
# From -- ./inp_files/12897.got.cif
#   From: 2010.05.17/outbox.cif.g08.bks.cpg/sg21_7_cif.got.tgz:12897.got - 2010.06.03 23:14:55.
