data_PCOD9322768
_publ_section_title
;
Structure prediction by ZEFSAII (Michael W. Deem and Ramdas Pophale) SiO2 
 PCOD9322768
Probable space group: C 2 2 2
;
_chemical_formula_sum "Si O2"
_cell_formula_units_Z 58
_cell_length_a 7.326425
_cell_length_b 29.500496
_cell_length_c 12.954632
_cell_angle_alpha 90.000000
_cell_angle_beta 90.000000
_cell_angle_gamma 90.000000
_cell_volume 2799.925699
_symmetry_space_group_name_H-M "C 2 2 2"
_symmetry_group_IT_number 21
_symmetry_cell_setting 'orthorhombic'
loop_
_space_group_symop_operation_xyz
x,y,z
-x,-y,z
x,-y,-z
-x,y,-z
1/2+x,1/2+y,z
1/2-x,1/2-y,z
1/2+x,1/2-y,-z
1/2-x,1/2+y,-z
loop_
_atom_site_type_symbol
_atom_site_label
_atom_site_fract_x
_atom_site_fract_y
_atom_site_fract_z
Si Si1 0.779213 0.050776 0.024318
Si Si2 0.809610 0.801259 0.689549
Si Si3 0.673597 0.608911 0.788292
Si Si4 0.268653 0.387759 0.157098
Si Si5 0.237478 0.799288 0.738297
Si Si6 0.500000 0.500000 0.500000
Si Si7 0.115307 0.078911 0.363476
Si Si8 0.696301 0.162494 0.529389
O O1 0.701345 0.086332 0.941761
O O2 0.740412 0.070759 0.138273
O O3 0.000000 0.049014 0.000000
O O4 0.715461 0.000000 0.000000
O O5 0.750000 0.750000 0.715852
O O6 0.730786 0.844180 0.755312
O O7 0.772887 0.811357 0.569296
O O8 0.025268 0.805594 0.709661
O O9 0.488066 0.620856 0.852318
O O10 0.587809 0.587517 0.683494
O O11 0.193979 0.339028 0.188038
O O12 0.261133 0.418933 0.260160
O O13 0.250000 0.750000 0.784898
O O14 0.334467 0.804160 0.627171
O O15 0.616285 0.533354 0.427653
O O16 0.177268 0.121699 0.431128
O O17 0.500000 0.142904 0.500000
#
# Coordination Sequence:
#
# PCOD9322768 Si02
#       8
#     8   8   8   8   8   2   8   8
#     4   9  15  26  51  80 106 133 169 232 279 327
#     4  11  20  32  51  76 110 145 187 226 273 331
#     4   8  17  31  48  73 116 132 174 230 279 317
#     4   7  16  29  45  72 110 130 172 221 274 320
#     4  10  19  33  51  76 109 144 184 222 278 329
#     4  12  20  28  54  78 104 152 186 212 280 306
#     4   9  20  31  48  75 108 145 179 225 265 325
#     4  11  21  36  51  73 108 152 188 226 268 325
#
# _framework density 20.714835999999998
#
# number of rings (size 3 to 8) (size 9 to 14) (size 15 to 20)
#    0.828    1.793    1.379    2.483    1.931    0.000 
#    0.000    1.034    0.000    0.000    0.000    7.724 
#    0.000   11.034    0.000    0.000    0.000    0.000 
#
# Total GULP energy -161478.327069 kJ/mol
# GULP energy per Si atom -5568.218175 kJ/mol
# Density = 2.066769 g / cm^3
# Si number density = 20.714836 Si / 1000 Ang^3
#
#
#
# Elastic Constant Matrix: (Units=GPa)
#
#
# Indices 1 2 3 4 5 6 
#
# 1 45.8380 9.6823 15.1108 0.0000 0.0000 0.0000
# 2 9.6823 174.9100 82.6173 0.0000 0.0000 0.0000
# 3 15.1108 82.6173 98.3372 0.0000 0.0000 0.0000
# 4 0.0000 0.0000 0.0000 18.6556 0.0000 0.0000
# 5 0.0000 0.0000 0.0000 0.0000 2.8551 0.0000
# 6 0.0000 0.0000 0.0000 0.0000 0.0000 12.8409
#
#
#
# Elastic Compliance Matrix: (Units=1/GPa)
#
#
# Indices 1 2 3 4 5 6 
#
# 1 0.023026 0.000658 -0.004091 0.000000 0.000000 0.000000
# 2 0.000658 0.009497 -0.008080 0.000000 0.000000 0.000000
# 3 -0.004091 -0.008080 0.017586 0.000000 0.000000 0.000000
# 4 0.000000 0.000000 0.000000 0.053603 0.000000 0.000000
# 5 0.000000 0.000000 0.000000 0.000000 0.350245 0.000000
# 6 0.000000 0.000000 0.000000 0.000000 0.000000 0.077876
#
#
# Mechanical properties :
#
#
# Convention : Reuss Voigt Hill
#
# Bulk Modulus (GPa) = 36.92407 59.32289 48.12348
# Shear Modulus (GPa) = 8.86701 20.98198 14.92450
#
# Velocity S-wave (km/s) = 2.07118 3.18606 2.68708
# Velocity P-wave (km/s) = 4.85627 6.49882 5.73664
#
# Compressibility (1/GPa) = 0.02708261
#
# Stress axis : x y z
#
# Youngs Moduli (GPa) = 43.43003 105.29098 56.86248
#
# Poissons Ratio (x) = -0.06924 0.23260
# Poissons Ratio (y) = -0.02856 0.45947
# Poissons Ratio (z) = 0.17766 0.85078
#
# Static dielectric constant tensor:
#      x y z
#    x 1.858230 0.000000 0.000000 
#    y 0.000000 1.768850 0.000000 
#    z 0.000000 0.000000 1.762370 
# 
# From -- ./inp_files/23100.got.cif
#   From: 2010.05.17/outbox.cif.g08.bks.cpg/sg21_12_cif.got.tgz:23100.got - 2010.06.03 23:14:55.
