data_PCOD9322422
_publ_section_title
;
Structure prediction by ZEFSAII (Michael W. Deem and Ramdas Pophale) SiO2 
 PCOD9322422
Probable space group: C 2 2 2
;
_chemical_formula_sum "Si O2"
_cell_formula_units_Z 48
_cell_length_a 17.111684
_cell_length_b 7.693925
_cell_length_c 15.041405
_cell_angle_alpha 90.000000
_cell_angle_beta 90.000000
_cell_angle_gamma 90.000000
_cell_volume 1980.291417
_symmetry_space_group_name_H-M "C 2 2 2"
_symmetry_group_IT_number 21
_symmetry_cell_setting 'orthorhombic'
loop_
_space_group_symop_operation_xyz
x,y,z
-x,-y,z
x,-y,-z
-x,y,-z
1/2+x,1/2+y,z
1/2-x,1/2-y,z
1/2+x,1/2-y,-z
1/2-x,1/2+y,-z
loop_
_atom_site_type_symbol
_atom_site_label
_atom_site_fract_x
_atom_site_fract_y
_atom_site_fract_z
Si Si1 0.287347 0.449973 0.136079
Si Si2 0.266980 0.951413 0.682125
Si Si3 0.920556 0.806199 0.460376
Si Si4 0.750000 0.250000 0.461425
Si Si5 0.331143 0.000000 0.000000
Si Si6 0.562731 0.700056 0.077345
Si Si7 0.561419 0.150312 0.726877
O O1 0.250000 0.250000 0.135629
O O2 0.288898 0.506095 0.237300
O O3 0.373815 0.449418 0.096921
O O4 0.227462 0.557351 0.077431
O O5 0.250000 0.750000 0.662411
O O6 0.354054 0.945580 0.723685
O O7 0.251197 0.078921 0.601240
O O8 0.835472 0.736820 0.490920
O O9 0.931587 0.787018 0.354317
O O10 0.000000 0.720984 0.500000
O O11 0.920147 0.000000 0.500000
O O12 0.386045 0.854177 0.962603
O O13 0.540293 0.764169 0.177549
O O14 0.500000 0.671841 0.000000
O O15 0.500000 0.000000 0.706479
#
# Coordination Sequence:
#
# PCOD9322422 Si02
#       7
#     8   8   8   4   4   8   8
#     4   9  19  38  63  96 144 195 235 310 382 435
#     4  11  22  46  72 111 156 202 257 325 395 463
#     4  11  28  51  74 112 159 204 260 339 405 473
#     4  12  28  44  84 118 140 218 276 312 400 512
#     4  10  17  38  63  94 138 194 240 298 375 450
#     4  11  22  39  69 106 144 194 261 313 377 470
#     4  12  24  43  77 109 151 201 259 330 396 470
#
# _framework density 24.238858
#
# number of rings (size 3 to 8) (size 9 to 14) (size 15 to 20)
#    0.000    1.167    5.000    3.250    3.500    1.667 
#    4.500    0.417    0.000    0.000    0.000    0.000 
#    0.000    0.000    0.000    0.000    0.000    0.000 
#
# Total GULP energy -134109.077038 kJ/mol
# GULP energy per Si atom -5587.878210 kJ/mol
# Density = 2.418369 g / cm^3
# Si number density = 24.238858 Si / 1000 Ang^3
#
#
#
# Elastic Constant Matrix: (Units=GPa)
#
#
# Indices 1 2 3 4 5 6 
#
# 1 183.8399 35.7585 97.5201 0.0000 0.0000 0.0000
# 2 35.7585 87.9926 58.1860 0.0000 0.0000 0.0000
# 3 97.5201 58.1860 231.4141 0.0000 0.0000 0.0000
# 4 0.0000 0.0000 0.0000 9.8261 0.0000 0.0000
# 5 0.0000 0.0000 0.0000 0.0000 33.1600 0.0000
# 6 0.0000 0.0000 0.0000 0.0000 0.0000 -1.5905
#
#
#
# Elastic Compliance Matrix: (Units=1/GPa)
#
#
# Indices 1 2 3 4 5 6 
#
# 1 0.007091 -0.001086 -0.002715 0.000000 0.000000 0.000000
# 2 -0.001086 0.013797 -0.003011 0.000000 0.000000 0.000000
# 3 -0.002715 -0.003011 0.006223 0.000000 0.000000 0.000000
# 4 0.000000 0.000000 0.000000 0.101770 0.000000 0.000000
# 5 0.000000 0.000000 0.000000 0.000000 0.030157 0.000000
# 6 0.000000 0.000000 0.000000 0.000000 0.000000 -0.628718
#
#
# Mechanical properties :
#
#
# Convention : Reuss Voigt Hill
#
# Bulk Modulus (GPa) = 74.15393 98.46397 86.30895
# Shear Modulus (GPa) = -11.07272 29.06458 8.99593
#
# Velocity S-wave (km/s) = -2.13965 3.46655 1.92858
# Velocity P-wave (km/s) = 4.95533 7.53214 6.37528
#
# Compressibility (1/GPa) = 0.01348546
#
# Stress axis : x y z
#
# Youngs Moduli (GPa) = 141.02239 72.47768 160.70429
#
# Poissons Ratio (x) = 0.07873 0.43633
# Poissons Ratio (y) = 0.15319 0.48394
# Poissons Ratio (z) = 0.38289 0.21826
#
# Static dielectric constant tensor:
#      x y z
#    x 2.063590 0.000000 0.000000 
#    y 0.000000 4.165460 0.000000 
#    z 0.000000 0.000000 2.013600 
# 
# From -- ./inp_files/32873.got.cif
#   From: 2010.05.17/outbox.cif.g08.bks.cpg/sg21_17_cif.got.tgz:32873.got - 2010.06.03 23:14:55.
