data_PCOD9322323
_publ_section_title
;
Structure prediction by ZEFSAII (Michael W. Deem and Ramdas Pophale) SiO2 
 PCOD9322323
Probable space group: C 2 2 2
;
_chemical_formula_sum "Si O2"
_cell_formula_units_Z 56
_cell_length_a 5.405876
_cell_length_b 14.298873
_cell_length_c 32.845628
_cell_angle_alpha 90.000000
_cell_angle_beta 90.000000
_cell_angle_gamma 90.000000
_cell_volume 2538.899198
_symmetry_space_group_name_H-M "C 2 2 2"
_symmetry_group_IT_number 21
_symmetry_cell_setting 'orthorhombic'
loop_
_space_group_symop_operation_xyz
x,y,z
-x,-y,z
x,-y,-z
-x,y,-z
1/2+x,1/2+y,z
1/2-x,1/2-y,z
1/2+x,1/2-y,-z
1/2-x,1/2+y,-z
loop_
_atom_site_type_symbol
_atom_site_label
_atom_site_fract_x
_atom_site_fract_y
_atom_site_fract_z
Si Si1 0.250001 0.135931 0.836735
Si Si2 0.250000 0.138986 0.301370
Si Si3 0.250000 0.107958 0.482632
Si Si4 0.250000 0.864154 0.976657
Si Si5 0.749999 0.364171 0.883362
Si Si6 0.750000 0.864519 0.743244
Si Si7 0.250000 0.939438 0.609341
O O1 0.250000 0.250000 0.835973
O O2 0.500051 0.108122 0.860024
O O3 0.249999 0.103833 0.790025
O O4 0.999952 0.108122 0.860024
O O5 0.250000 0.250000 0.295727
O O6 0.501911 0.105346 0.280066
O O7 0.250000 0.118341 0.349169
O O8 0.998089 0.105346 0.280066
O O9 0.500000 0.148944 0.500000
O O10 0.250000 0.111702 0.434027
O O11 0.000000 0.148944 0.500000
O O12 0.250000 0.000000 0.500000
O O13 0.250000 0.750000 0.975747
O O14 0.250000 0.896907 0.930011
O O15 0.500000 0.891787 0.000000
O O16 0.000000 0.891787 0.000000
O O17 0.750000 0.250000 0.884257
O O18 0.750000 0.750000 0.743719
O O19 0.500000 0.000000 0.609558
O O20 0.000000 0.000000 0.609558
#
# Coordination Sequence:
#
# PCOD9322323 Si02
#       7
#     8   8   8   8   8   8   8
#     4   9  15  23  37  53  69  93 134 182 224 269
#     4  10  21  35  50  71 102 132 159 195 249 305
#     4  10  16  30  49  75  97 124 159 201 233 274
#     4   9  15  21  27  36  57  89 120 159 224 289
#     4   9  15  21  30  47  65  86 127 182 226 268
#     4   9  17  31  47  63  87 123 154 185 241 303
#     4  12  21  33  55  81 101 129 168 207 238 280
#
# _framework density 22.056805000000001
#
# number of rings (size 3 to 8) (size 9 to 14) (size 15 to 20)
#    0.000    2.286    2.857    2.571    0.000    6.857 
#    0.000    0.000    0.000    0.857    0.000    0.000 
#    0.000    0.000    0.000    0.000    0.000    0.000 
#
# Total GULP energy -156538.931951 kJ/mol
# GULP energy per Si atom -5590.676141 kJ/mol
# Density = 2.200660 g / cm^3
# Si number density = 22.056805 Si / 1000 Ang^3
#
#
#
# Elastic Constant Matrix: (Units=GPa)
#
#
# Indices 1 2 3 4 5 6 
#
# 1 274.3789 20.1959 137.2244 0.0000 0.0000 0.0000
# 2 20.1959 70.6827 18.5069 0.0000 0.0000 0.0000
# 3 137.2244 18.5069 246.9867 0.0000 0.0000 0.0000
# 4 0.0000 0.0000 0.0000 13.4119 0.0000 0.0000
# 5 0.0000 0.0000 0.0000 0.0000 49.2546 0.0000
# 6 0.0000 0.0000 0.0000 0.0000 0.0000 -31.8865
#
#
#
# Elastic Compliance Matrix: (Units=1/GPa)
#
#
# Indices 1 2 3 4 5 6 
#
# 1 0.005083 -0.000727 -0.002770 0.000000 0.000000 0.000000
# 2 -0.000727 0.014535 -0.000685 0.000000 0.000000 0.000000
# 3 -0.002770 -0.000685 0.005639 0.000000 0.000000 0.000000
# 4 0.000000 0.000000 0.000000 0.074561 0.000000 0.000000
# 5 0.000000 0.000000 0.000000 0.000000 0.020303 0.000000
# 6 0.000000 0.000000 0.000000 0.000000 0.000000 -0.031361
#
#
# Mechanical properties :
#
#
# Convention : Reuss Voigt Hill
#
# Bulk Modulus (GPa) = 59.19579 104.87809 82.03694
# Shear Modulus (GPa) = 48.65952 33.89741 41.27846
#
# Velocity S-wave (km/s) = 4.70201 3.92449 4.33073
# Velocity P-wave (km/s) = 7.50831 8.25759 7.89185
#
# Compressibility (1/GPa) = 0.01689309
#
# Stress axis : x y z
#
# Youngs Moduli (GPa) = 196.71953 68.79992 177.33578
#
# Poissons Ratio (x) = 0.05003 0.49119
# Poissons Ratio (y) = 0.14306 0.12149
# Poissons Ratio (z) = 0.54487 0.04713
#
# Static dielectric constant tensor:
#      x y z
#    x 1.749900 0.000000 0.000000 
#    y 0.000000 1.818350 0.000000 
#    z 0.000000 0.000000 1.794650 
# 
# From -- ./inp_files/39168.got.cif
#   From: 2010.05.17/outbox.cif.g08.bks.cpg/sg21_20_cif.got.tgz:39168.got - 2010.06.03 23:14:55.
