data_PCOD9322833
_publ_section_title
;
Structure prediction by ZEFSAII (Michael W. Deem and Ramdas Pophale) SiO2 
 PCOD9322833
Probable space group: C 2 2 2
;
_chemical_formula_sum "Si O2"
_cell_formula_units_Z 44
_cell_length_a 26.995877
_cell_length_b 5.078657
_cell_length_c 15.156270
_cell_angle_alpha 90.000000
_cell_angle_beta 90.000000
_cell_angle_gamma 90.000000
_cell_volume 2077.967050
_symmetry_space_group_name_H-M "C 2 2 2"
_symmetry_group_IT_number 21
_symmetry_cell_setting 'orthorhombic'
loop_
_space_group_symop_operation_xyz
x,y,z
-x,-y,z
x,-y,-z
-x,y,-z
1/2+x,1/2+y,z
1/2-x,1/2-y,z
1/2+x,1/2-y,-z
1/2-x,1/2+y,-z
loop_
_atom_site_type_symbol
_atom_site_label
_atom_site_fract_x
_atom_site_fract_y
_atom_site_fract_z
Si Si1 0.357771 0.066569 0.599341
Si Si2 0.096733 0.067982 0.176962
Si Si3 0.168861 0.765053 0.055341
Si Si4 0.184985 0.921333 0.680829
Si Si5 0.750000 0.750000 0.799594
Si Si6 0.055422 0.564519 0.255342
O O1 0.317717 0.849973 0.629457
O O2 0.405078 0.046527 0.664776
O O3 0.372430 0.000000 0.500000
O O4 0.333040 0.349067 0.614794
O O5 0.121407 0.923601 0.093352
O O6 0.142606 0.094593 0.244144
O O7 0.059183 0.857562 0.217773
O O8 0.072322 0.355562 0.179460
O O9 0.203860 0.681905 0.137086
O O10 0.158654 0.500000 0.000000
O O11 0.195746 0.000000 0.000000
O O12 0.231866 0.019836 0.735668
O O13 0.000000 0.500000 0.283905
#
# Coordination Sequence:
#
# PCOD9322833 Si02
#       6
#     8   8   8   8   4   8
#     4  10  20  36  55  80 113 146 185 234 286 331
#     4   9  19  35  53  79 114 146 179 222 278 347
#     4  11  22  36  58  86 115 146 185 237 292 334
#     4   9  20  35  55  77 108 152 185 222 280 338
#     4  10  22  38  58  84 114 146 196 240 274 336
#     4  10  19  34  58  83 107 145 191 230 274 332
#
# _framework density 21.174541999999999
#
# number of rings (size 3 to 8) (size 9 to 14) (size 15 to 20)
#    0.000    2.182    0.000    2.727    0.000    6.909 
#    0.000    1.818    0.000   14.727    0.000    0.000 
#    0.000    0.000    0.000    0.000    0.000    0.000 
#
# Total GULP energy -122805.208163 kJ/mol
# GULP energy per Si atom -5582.054916 kJ/mol
# Density = 2.112635 g / cm^3
# Si number density = 21.174542 Si / 1000 Ang^3
#
#
#
# Elastic Constant Matrix: (Units=GPa)
#
#
# Indices 1 2 3 4 5 6 
#
# 1 59.4921 20.5416 25.5676 0.0000 0.0000 0.0000
# 2 20.5416 88.1741 -5.3308 0.0000 0.0000 0.0000
# 3 25.5676 -5.3308 54.1336 0.0000 0.0000 0.0000
# 4 0.0000 0.0000 0.0000 19.7752 0.0000 0.0000
# 5 0.0000 0.0000 0.0000 0.0000 10.2083 0.0000
# 6 0.0000 0.0000 0.0000 0.0000 0.0000 21.8895
#
#
#
# Elastic Compliance Matrix: (Units=1/GPa)
#
#
# Indices 1 2 3 4 5 6 
#
# 1 0.024184 -0.006362 -0.012049 0.000000 0.000000 0.000000
# 2 -0.006362 0.013083 0.004293 0.000000 0.000000 0.000000
# 3 -0.012049 0.004293 0.024586 0.000000 0.000000 0.000000
# 4 0.000000 0.000000 0.000000 0.050568 0.000000 0.000000
# 5 0.000000 0.000000 0.000000 0.000000 0.097959 0.000000
# 6 0.000000 0.000000 0.000000 0.000000 0.000000 0.045684
#
#
# Mechanical properties :
#
#
# Convention : Reuss Voigt Hill
#
# Bulk Modulus (GPa) = 29.74638 31.48407 30.61523
# Shear Modulus (GPa) = 16.92011 21.10937 19.01474
#
# Velocity S-wave (km/s) = 2.82986 3.16083 2.99992
# Velocity P-wave (km/s) = 4.97556 5.31246 5.14677
#
# Compressibility (1/GPa) = 0.03361753
#
# Stress axis : x y z
#
# Youngs Moduli (GPa) = 41.34976 76.43509 40.67303
#
# Poissons Ratio (x) = 0.48632 0.49006
# Poissons Ratio (y) = 0.26309 -0.17462
# Poissons Ratio (z) = 0.49821 -0.32816
#
# Static dielectric constant tensor:
#      x y z
#    x 1.783150 0.000000 0.000000 
#    y 0.000000 1.793660 0.000000 
#    z 0.000000 0.000000 1.784490 
# 
# From -- ./inp_files/33943.got.cif
#   From: 2010.05.17/outbox.cif.g08.bks.cpg/sg21_17_cif.got.tgz:33943.got - 2010.06.03 23:14:55.
