data_PCOD9322334
_publ_section_title
;
Structure prediction by ZEFSAII (Michael W. Deem and Ramdas Pophale) SiO2 
 PCOD9322334
Probable space group: C 2 2 2
;
_chemical_formula_sum "Si O2"
_cell_formula_units_Z 34
_cell_length_a 17.961907
_cell_length_b 11.914071
_cell_length_c 9.117159
_cell_angle_alpha 90.000000
_cell_angle_beta 90.000000
_cell_angle_gamma 90.000000
_cell_volume 1951.066877
_symmetry_space_group_name_H-M "C 2 2 2"
_symmetry_group_IT_number 21
_symmetry_cell_setting 'orthorhombic'
loop_
_space_group_symop_operation_xyz
x,y,z
-x,-y,z
x,-y,-z
-x,y,-z
1/2+x,1/2+y,z
1/2-x,1/2-y,z
1/2+x,1/2-y,-z
1/2-x,1/2+y,-z
loop_
_atom_site_type_symbol
_atom_site_label
_atom_site_fract_x
_atom_site_fract_y
_atom_site_fract_z
Si Si1 0.500000 0.500000 0.000000
Si Si2 0.000000 0.500000 0.500000
Si Si3 0.750000 0.250000 0.097778
Si Si4 0.130703 0.148338 0.136067
Si Si5 0.500000 0.000000 0.000000
Si Si6 0.906960 0.380359 0.745436
Si Si7 0.235966 0.509473 0.175556
O O1 0.557420 0.416921 0.917126
O O2 0.952409 0.420932 0.606099
O O3 0.766206 0.357793 0.197288
O O4 0.819144 0.210384 0.992479
O O5 0.107449 0.248509 0.242316
O O6 0.186286 0.053972 0.199807
O O7 0.549656 0.923096 0.107967
O O8 0.828518 0.443900 0.744187
O O9 0.222001 0.500000 0.000000
#
# Coordination Sequence:
#
# PCOD9322334 Si02
#       7
#     2   2   4   8   2   8   8
#     4  12  22  30  52 112 136 148 192 270 342 370
#     4  10  28  38  56  88 124 168 232 254 318 354
#     4  10  16  32  54  98 126 152 194 256 308 410
#     4  11  19  32  56  87 131 158 194 253 328 370
#     4  10  18  28  56  88 104 150 196 250 338 340
#     4  11  19  38  57  84 119 164 204 268 300 378
#     4  10  17  31  59  89 116 154 202 247 314 384
#
# _framework density 17.426362999999998
#
# number of rings (size 3 to 8) (size 9 to 14) (size 15 to 20)
#    0.000    1.412    9.412    0.706    0.000    1.882 
#    0.000    0.000    5.176    0.706    0.000    0.000 
#    0.000    0.000    0.000    0.000    0.000    0.000 
#
# Total GULP energy -94737.459832 kJ/mol
# GULP energy per Si atom -5572.791755 kJ/mol
# Density = 1.738670 g / cm^3
# Si number density = 17.426363 Si / 1000 Ang^3
#
#
#
# Elastic Constant Matrix: (Units=GPa)
#
#
# Indices 1 2 3 4 5 6 
#
# 1 146.6131 72.4259 40.1228 0.0000 0.0000 0.0000
# 2 72.4259 184.0605 34.3492 0.0000 0.0000 0.0000
# 3 40.1228 34.3492 56.2093 0.0000 0.0000 0.0000
# 4 0.0000 0.0000 0.0000 4.8573 0.0000 0.0000
# 5 0.0000 0.0000 0.0000 0.0000 4.6072 0.0000
# 6 0.0000 0.0000 0.0000 0.0000 0.0000 31.4363
#
#
#
# Elastic Compliance Matrix: (Units=1/GPa)
#
#
# Indices 1 2 3 4 5 6 
#
# 1 0.009625 -0.002828 -0.005142 0.000000 0.000000 0.000000
# 2 -0.002828 0.006963 -0.002237 0.000000 0.000000 0.000000
# 3 -0.005142 -0.002237 0.022828 0.000000 0.000000 0.000000
# 4 0.000000 0.000000 0.000000 0.205875 0.000000 0.000000
# 5 0.000000 0.000000 0.000000 0.000000 0.217053 0.000000
# 6 0.000000 0.000000 0.000000 0.000000 0.000000 0.031810
#
#
# Mechanical properties :
#
#
# Convention : Reuss Voigt Hill
#
# Bulk Modulus (GPa) = 52.62418 75.63097 64.12757
# Shear Modulus (GPa) = 9.59874 24.17916 16.88895
#
# Velocity S-wave (km/s) = 2.34950 3.72896 3.11651
# Velocity P-wave (km/s) = 6.13382 7.87621 7.05898
#
# Compressibility (1/GPa) = 0.01900267
#
# Stress axis : x y z
#
# Youngs Moduli (GPa) = 103.89873 143.61556 43.80562
#
# Poissons Ratio (x) = 0.40609 0.22526
# Poissons Ratio (y) = 0.29378 0.09798
# Poissons Ratio (z) = 0.53428 0.32123
#
# Static dielectric constant tensor:
#      x y z
#    x 1.618540 0.000000 0.000000 
#    y 0.000000 1.659290 0.000000 
#    z 0.000000 0.000000 1.571500 
# 
# From -- ./inp_files/12689.got.cif
#   From: 2010.05.17/outbox.cif.g08.bks.cpg/sg21_7_cif.got.tgz:12689.got - 2010.06.03 23:14:55.
