data_PCOD9322320
_publ_section_title
;
Structure prediction by ZEFSAII (Michael W. Deem and Ramdas Pophale) SiO2 
 PCOD9322320
Probable space group: C 2 2 2
;
_chemical_formula_sum "Si O2"
_cell_formula_units_Z 52
_cell_length_a 24.216436
_cell_length_b 14.212108
_cell_length_c 8.820133
_cell_angle_alpha 90.000000
_cell_angle_beta 90.000000
_cell_angle_gamma 90.000000
_cell_volume 3035.595220
_symmetry_space_group_name_H-M "C 2 2 2"
_symmetry_group_IT_number 21
_symmetry_cell_setting 'orthorhombic'
loop_
_space_group_symop_operation_xyz
x,y,z
-x,-y,z
x,-y,-z
-x,y,-z
1/2+x,1/2+y,z
1/2-x,1/2-y,z
1/2+x,1/2-y,-z
1/2-x,1/2+y,-z
loop_
_atom_site_type_symbol
_atom_site_label
_atom_site_fract_x
_atom_site_fract_y
_atom_site_fract_z
Si Si1 0.793672 0.827849 0.304350
Si Si2 0.500000 0.000000 0.249509
Si Si3 0.724376 0.109257 0.975925
Si Si4 0.815642 0.368774 0.291323
Si Si5 0.500000 0.158543 0.500000
Si Si6 0.239010 0.000000 0.500000
Si Si7 0.881182 0.291430 0.553737
Si Si8 0.618544 0.048620 0.789477
O O1 0.750000 0.750000 0.368765
O O2 0.769324 0.847285 0.137407
O O3 0.792272 0.925931 0.393800
O O4 0.852523 0.779848 0.329774
O O5 0.485801 0.912439 0.361271
O O6 0.554538 0.961665 0.164912
O O7 0.664125 0.100303 0.893685
O O8 0.715674 0.158655 0.137413
O O9 0.740486 0.000000 0.000000
O O10 0.775531 0.432820 0.393369
O O11 0.845721 0.293815 0.398925
O O12 0.861044 0.443138 0.234112
O O13 0.554046 0.220531 0.529128
O O14 0.878177 0.394937 0.631049
#
# Coordination Sequence:
#
# PCOD9322320 Si02
#       8
#     8   4   8   8   4   4   8   8
#     4  12  21  36  54  81 111 151 181 227 286 334
#     4   9  16  24  51  76 108 150 196 216 270 340
#     4  10  20  33  49  71 115 149 180 221 280 330
#     4  11  17  32  51  75 110 147 176 224 268 334
#     4   9  18  28  50  81 104 144 194 235 270 323
#     4  12  20  34  54  78 112 142 184 226 280 334
#     4  11  19  33  55  77 108 147 188 229 271 329
#     4  10  16  30  49  74 111 152 182 218 267 334
#
# _framework density 17.130082999999999
#
# number of rings (size 3 to 8) (size 9 to 14) (size 15 to 20)
#    0.000    1.385    9.231    0.000    0.000    0.000 
#    2.769    3.462    0.000    0.462    0.000    0.000 
#    0.000    0.000    0.000    0.000    0.000    0.000 
#
# Total GULP energy -144821.579376 kJ/mol
# GULP energy per Si atom -5570.060745 kJ/mol
# Density = 1.709109 g / cm^3
# Si number density = 17.130083 Si / 1000 Ang^3
#
#
#
# Elastic Constant Matrix: (Units=GPa)
#
#
# Indices 1 2 3 4 5 6 
#
# 1 118.7135 34.9858 49.4431 0.0000 0.0000 0.0000
# 2 34.9858 50.8574 21.5358 0.0000 0.0000 0.0000
# 3 49.4431 21.5358 102.9742 0.0000 0.0000 0.0000
# 4 0.0000 0.0000 0.0000 24.3824 0.0000 0.0000
# 5 0.0000 0.0000 0.0000 0.0000 15.8060 0.0000
# 6 0.0000 0.0000 0.0000 0.0000 0.0000 26.9898
#
#
#
# Elastic Compliance Matrix: (Units=1/GPa)
#
#
# Indices 1 2 3 4 5 6 
#
# 1 0.012215 -0.006494 -0.004507 0.000000 0.000000 0.000000
# 2 -0.006494 0.025026 -0.002116 0.000000 0.000000 0.000000
# 3 -0.004507 -0.002116 0.012318 0.000000 0.000000 0.000000
# 4 0.000000 0.000000 0.000000 0.041013 0.000000 0.000000
# 5 0.000000 0.000000 0.000000 0.000000 0.063267 0.000000
# 6 0.000000 0.000000 0.000000 0.000000 0.000000 0.037051
#
#
# Mechanical properties :
#
#
# Convention : Reuss Voigt Hill
#
# Bulk Modulus (GPa) = 42.87225 53.83048 48.35137
# Shear Modulus (GPa) = 22.23231 24.54098 23.38665
#
# Velocity S-wave (km/s) = 3.60648 3.78911 3.69892
# Velocity P-wave (km/s) = 6.51338 7.11589 6.82129
#
# Compressibility (1/GPa) = 0.02332511
#
# Stress axis : x y z
#
# Youngs Moduli (GPa) = 81.86983 39.95799 81.18529
#
# Poissons Ratio (x) = 0.25950 0.36587
# Poissons Ratio (y) = 0.53168 0.17177
# Poissons Ratio (z) = 0.36895 0.08454
#
# Static dielectric constant tensor:
#      x y z
#    x 1.619290 0.000000 0.000000 
#    y 0.000000 1.585440 0.000000 
#    z 0.000000 0.000000 1.670540 
# 
# From -- ./inp_files/18590.got.cif
#   From: 2010.05.17/outbox.cif.g08.bks.cpg/sg21_10_cif.got.tgz:18590.got - 2010.06.03 23:14:55.
