data_PCOD9322615
_publ_section_title
;
Structure prediction by ZEFSAII (Michael W. Deem and Ramdas Pophale) SiO2 
 PCOD9322615
Probable space group: C 2 2 2
;
_chemical_formula_sum "Si O2"
_cell_formula_units_Z 64
_cell_length_a 17.400090
_cell_length_b 32.106575
_cell_length_c 5.497864
_cell_angle_alpha 90.000000
_cell_angle_beta 90.000000
_cell_angle_gamma 90.000000
_cell_volume 3071.421828
_symmetry_space_group_name_H-M "C 2 2 2"
_symmetry_group_IT_number 21
_symmetry_cell_setting 'orthorhombic'
loop_
_space_group_symop_operation_xyz
x,y,z
-x,-y,z
x,-y,-z
-x,y,-z
1/2+x,1/2+y,z
1/2-x,1/2-y,z
1/2+x,1/2-y,-z
1/2-x,1/2+y,-z
loop_
_atom_site_type_symbol
_atom_site_label
_atom_site_fract_x
_atom_site_fract_y
_atom_site_fract_z
Si Si1 0.636189 0.461541 0.837363
Si Si2 0.657693 0.249517 0.433891
Si Si3 0.044102 0.888502 0.744839
Si Si4 0.282044 0.402675 0.803293
Si Si5 0.089319 0.289216 0.064394
Si Si6 0.320517 0.133159 0.186557
Si Si7 0.797515 0.543565 0.432497
Si Si8 0.169743 0.160301 0.435033
O O1 0.572819 0.436241 0.690964
O O2 0.716720 0.469344 0.697176
O O3 0.610643 0.500000 0.000000
O O4 0.661999 0.426107 0.022156
O O5 0.750000 0.250000 0.460209
O O6 0.617570 0.233218 0.684673
O O7 0.641613 0.298909 0.430575
O O8 0.633450 0.226589 0.181967
O O9 0.111820 0.853709 0.774424
O O10 0.000000 0.875022 0.500000
O O11 0.000000 0.889502 0.000000
O O12 0.226317 0.436489 0.686292
O O13 0.331099 0.379780 0.604836
O O14 0.227220 0.371001 0.939541
O O15 0.107520 0.337839 0.127846
O O16 0.000000 0.283133 0.000000
O O17 0.329542 0.085151 0.287843
O O18 0.259600 0.158832 0.353838
O O19 0.839828 0.500000 0.500000
#
# Coordination Sequence:
#
# PCOD9322615 Si02
#       8
#     8   8   8   8   8   8   8   8
#     4  11  21  36  57  82 123 174 224 285 345 406
#     4  12  26  46  77 106 140 188 245 295 348 431
#     4  12  27  42  58  85 127 176 230 287 350 421
#     4  10  18  36  62  94 122 166 223 285 339 399
#     4  12  28  49  71 111 151 185 234 297 368 431
#     4  10  22  39  69  99 132 183 220 282 351 427
#     4  10  19  33  64 101 128 161 230 295 339 402
#     4  11  23  41  67  91 124 176 237 285 346 414
#
# _framework density 20.837254999999999
#
# number of rings (size 3 to 8) (size 9 to 14) (size 15 to 20)
#    0.000    1.000    6.250    2.250    3.500    1.750 
#    0.000    1.875    0.000    0.000    0.000    2.625 
#    0.000    0.000    0.000    0.000    0.000    0.000 
#
# Total GULP energy -178151.812632 kJ/mol
# GULP energy per Si atom -5567.244145 kJ/mol
# Density = 2.078983 g / cm^3
# Si number density = 20.837255 Si / 1000 Ang^3
#
#
#
# Elastic Constant Matrix: (Units=GPa)
#
#
# Indices 1 2 3 4 5 6 
#
# 1 72.4420 14.9608 22.2974 0.0000 0.0000 0.0000
# 2 14.9608 106.8558 19.9810 0.0000 0.0000 0.0000
# 3 22.2974 19.9810 89.8720 0.0000 0.0000 0.0000
# 4 0.0000 0.0000 0.0000 31.2649 0.0000 0.0000
# 5 0.0000 0.0000 0.0000 0.0000 23.9268 0.0000
# 6 0.0000 0.0000 0.0000 0.0000 0.0000 15.1587
#
#
#
# Elastic Compliance Matrix: (Units=1/GPa)
#
#
# Indices 1 2 3 4 5 6 
#
# 1 0.015167 -0.001481 -0.003434 0.000000 0.000000 0.000000
# 2 -0.001481 0.009909 -0.001835 0.000000 0.000000 0.000000
# 3 -0.003434 -0.001835 0.012387 0.000000 0.000000 0.000000
# 4 0.000000 0.000000 0.000000 0.031985 0.000000 0.000000
# 5 0.000000 0.000000 0.000000 0.000000 0.041794 0.000000
# 6 0.000000 0.000000 0.000000 0.000000 0.000000 0.065969
#
#
# Mechanical properties :
#
#
# Convention : Reuss Voigt Hill
#
# Bulk Modulus (GPa) = 41.73308 42.62757 42.18032
# Shear Modulus (GPa) = 25.16372 28.19879 26.68125
#
# Velocity S-wave (km/s) = 3.47887 3.68270 3.58223
# Velocity P-wave (km/s) = 6.01733 6.21167 6.11527
#
# Compressibility (1/GPa) = 0.02396181
#
# Stress axis : x y z
#
# Youngs Moduli (GPa) = 65.93289 100.91787 80.73055
#
# Poissons Ratio (x) = 0.14951 0.27719
# Poissons Ratio (y) = 0.09768 0.14818
# Poissons Ratio (z) = 0.22639 0.18523
#
# Static dielectric constant tensor:
#      x y z
#    x 1.815140 0.000000 0.000000 
#    y 0.000000 1.815920 0.000000 
#    z 0.000000 0.000000 1.807180 
# 
# From -- ./inp_files/5407.got.cif
#   From: 2010.05.17/outbox.cif.g08.bks.cpg/sg21_3_cif.got.tgz:5407.got - 2010.06.03 23:14:55.
