data_PCOD9322935
_publ_section_title
;
Structure prediction by ZEFSAII (Michael W. Deem and Ramdas Pophale) SiO2 
 PCOD9322935
Probable space group: C 2 2 2
;
_chemical_formula_sum "Si O2"
_cell_formula_units_Z 48
_cell_length_a 7.026379
_cell_length_b 15.651450
_cell_length_c 17.480090
_cell_angle_alpha 90.000000
_cell_angle_beta 90.000000
_cell_angle_gamma 90.000000
_cell_volume 1922.338280
_symmetry_space_group_name_H-M "C 2 2 2"
_symmetry_group_IT_number 21
_symmetry_cell_setting 'orthorhombic'
loop_
_space_group_symop_operation_xyz
x,y,z
-x,-y,z
x,-y,-z
-x,y,-z
1/2+x,1/2+y,z
1/2-x,1/2-y,z
1/2+x,1/2-y,-z
1/2-x,1/2+y,-z
loop_
_atom_site_type_symbol
_atom_site_label
_atom_site_fract_x
_atom_site_fract_y
_atom_site_fract_z
Si Si1 0.237121 0.341780 0.178496
Si Si2 0.313270 0.651551 0.207724
Si Si3 0.228222 0.843985 0.485172
Si Si4 0.282879 0.468904 0.648179
Si Si5 0.146835 0.342354 0.342706
Si Si6 0.729544 0.491163 0.087753
O O1 0.250000 0.250000 0.136271
O O2 0.454516 0.354964 0.207829
O O3 0.097145 0.332228 0.250816
O O4 0.191216 0.426014 0.131354
O O5 0.250000 0.750000 0.204405
O O6 0.264905 0.601354 0.285826
O O7 0.240016 0.595908 0.135427
O O8 0.250000 0.750000 0.446905
O O9 0.275510 0.920080 0.428134
O O10 0.351350 0.844752 0.562407
O O11 0.000000 0.852748 0.500000
O O12 0.500000 0.500000 0.640550
O O13 0.178993 0.556130 0.665174
O O14 0.250000 0.250000 0.343541
O O15 0.500000 0.500000 0.087879
O O16 0.789471 0.500000 0.000000
#
# Coordination Sequence:
#
# PCOD9322935 Si02
#       6
#     8   8   8   8   8   8
#     4  10  19  36  59  79 109 148 185 221 275 334
#     4  11  21  35  56  86 115 141 182 239 274 324
#     4  11  22  34  55  87 112 145 188 234 278 328
#     4  12  19  35  59  83 105 149 200 223 269 336
#     4  10  20  33  55  82 108 137 189 234 270 319
#     4   9  18  35  58  82 108 145 188 225 266 333
#
# _framework density 24.96959
#
# number of rings (size 3 to 8) (size 9 to 14) (size 15 to 20)
#    0.000    1.500    5.000    1.500    0.000    0.667 
#    0.000    0.833    0.000   15.000    0.000    0.000 
#    0.000    0.000    0.000    0.000    0.000    0.000 
#
# Total GULP energy -133642.594439 kJ/mol
# GULP energy per Si atom -5568.441435 kJ/mol
# Density = 2.491276 g / cm^3
# Si number density = 24.969590 Si / 1000 Ang^3
#
#
#
# Elastic Constant Matrix: (Units=GPa)
#
#
# Indices 1 2 3 4 5 6 
#
# 1 111.7429 24.2301 7.3782 0.0000 0.0000 0.0000
# 2 24.2301 258.4381 100.2506 0.0000 0.0000 0.0000
# 3 7.3782 100.2506 182.1354 0.0000 0.0000 0.0000
# 4 0.0000 0.0000 0.0000 31.1502 0.0000 0.0000
# 5 0.0000 0.0000 0.0000 0.0000 -21.3881 0.0000
# 6 0.0000 0.0000 0.0000 0.0000 0.0000 39.9839
#
#
#
# Elastic Compliance Matrix: (Units=1/GPa)
#
#
# Indices 1 2 3 4 5 6 
#
# 1 0.009137 -0.000907 0.000129 0.000000 0.000000 0.000000
# 2 -0.000907 0.005010 -0.002721 0.000000 0.000000 0.000000
# 3 0.000129 -0.002721 0.006983 0.000000 0.000000 0.000000
# 4 0.000000 0.000000 0.000000 0.032103 0.000000 0.000000
# 5 0.000000 0.000000 0.000000 0.000000 -0.046755 0.000000
# 6 0.000000 0.000000 0.000000 0.000000 0.000000 0.025010
#
#
# Mechanical properties :
#
#
# Convention : Reuss Voigt Hill
#
# Bulk Modulus (GPa) = 70.75780 90.67046 80.71413
# Shear Modulus (GPa) = 115.75317 37.97970 76.86643
#
# Velocity S-wave (km/s) = 6.81603 3.90428 5.55435
# Velocity P-wave (km/s) = 9.50492 7.53098 8.57494
#
# Compressibility (1/GPa) = 0.01413272
#
# Stress axis : x y z
#
# Youngs Moduli (GPa) = 109.44267 199.60821 143.20994
#
# Poissons Ratio (x) = 0.18098 -0.01846
# Poissons Ratio (y) = 0.09923 0.38964
# Poissons Ratio (z) = -0.01411 0.54309
#
# Static dielectric constant tensor:
#      x y z
#    x 1.958680 0.000000 0.000000 
#    y 0.000000 1.854100 0.000000 
#    z 0.000000 0.000000 1.999060 
# 
# From -- ./inp_files/35700.got.cif
#   From: 2010.05.17/outbox.cif.g08.bks.cpg/sg21_18_cif.got.tgz:35700.got - 2010.06.03 23:14:55.
