data_PCOD9322355
_publ_section_title
;
Structure prediction by ZEFSAII (Michael W. Deem and Ramdas Pophale) SiO2 
 PCOD9322355
Probable space group: C 2 2 2
;
_chemical_formula_sum "Si O2"
_cell_formula_units_Z 40
_cell_length_a 9.122570
_cell_length_b 14.483395
_cell_length_c 12.386082
_cell_angle_alpha 90.000000
_cell_angle_beta 90.000000
_cell_angle_gamma 90.000000
_cell_volume 1636.520804
_symmetry_space_group_name_H-M "C 2 2 2"
_symmetry_group_IT_number 21
_symmetry_cell_setting 'orthorhombic'
loop_
_space_group_symop_operation_xyz
x,y,z
-x,-y,z
x,-y,-z
-x,y,-z
1/2+x,1/2+y,z
1/2-x,1/2-y,z
1/2+x,1/2-y,-z
1/2-x,1/2+y,-z
loop_
_atom_site_type_symbol
_atom_site_label
_atom_site_fract_x
_atom_site_fract_y
_atom_site_fract_z
Si Si1 0.244351 0.041652 0.645241
Si Si2 0.068836 0.096814 0.854531
Si Si3 0.250000 0.750000 0.105297
Si Si4 0.000000 0.000000 0.500000
Si Si5 0.718779 0.654088 0.266144
Si Si6 0.000000 0.500000 0.500000
Si Si7 0.495746 0.109808 0.129543
O O1 0.192303 0.071985 0.764045
O O2 0.394871 0.059567 0.581126
O O3 0.104829 0.063279 0.571782
O O4 0.242727 0.930878 0.655181
O O5 0.150380 0.164727 0.938891
O O6 0.938012 0.145504 0.790116
O O7 0.000000 0.000000 0.890625
O O8 0.381586 0.812064 0.159061
O O9 0.750000 0.750000 0.322740
O O10 0.841637 0.645023 0.173427
O O11 0.500000 0.000000 0.164512
O O12 0.500000 0.108244 0.000000
#
# Coordination Sequence:
#
# PCOD9322355 Si02
#       7
#     8   8   4   2   8   2   8
#     4  10  21  38  63  94 129 180 223 281 349 417
#     4  10  21  40  65  96 126 175 231 278 334 425
#     4  12  24  40  72  98 132 180 228 290 352 420
#     4  10  16  38  62  86 124 172 226 270 348 408
#     4  11  21  40  66  91 131 177 226 285 345 424
#     4  10  24  34  66  98 138 174 222 290 356 424
#     4  11  26  44  66 101 140 179 236 295 354 425
#
# _framework density 24.442094999999998
#
# number of rings (size 3 to 8) (size 9 to 14) (size 15 to 20)
#    0.000    1.400    5.000    2.400    5.600    0.000 
#    0.000    1.000    8.800    6.000    0.000    0.000 
#    0.000    0.000    0.000    0.000    0.000    0.000 
#
# Total GULP energy -111343.460588 kJ/mol
# GULP energy per Si atom -5567.173029 kJ/mol
# Density = 2.438646 g / cm^3
# Si number density = 24.442095 Si / 1000 Ang^3
#
#
#
# Elastic Constant Matrix: (Units=GPa)
#
#
# Indices 1 2 3 4 5 6 
#
# 1 164.2530 60.0365 22.4935 0.0000 0.0000 0.0000
# 2 60.0365 155.9638 10.7878 0.0000 0.0000 0.0000
# 3 22.4935 10.7878 78.6808 0.0000 0.0000 0.0000
# 4 0.0000 0.0000 0.0000 6.7151 0.0000 0.0000
# 5 0.0000 0.0000 0.0000 0.0000 24.8592 0.0000
# 6 0.0000 0.0000 0.0000 0.0000 0.0000 -38.2195
#
#
#
# Elastic Compliance Matrix: (Units=1/GPa)
#
#
# Indices 1 2 3 4 5 6 
#
# 1 0.007309 -0.002694 -0.001720 0.000000 0.000000 0.000000
# 2 -0.002694 0.007466 -0.000253 0.000000 0.000000 0.000000
# 3 -0.001720 -0.000253 0.013236 0.000000 0.000000 0.000000
# 4 0.000000 0.000000 0.000000 0.148917 0.000000 0.000000
# 5 0.000000 0.000000 0.000000 0.000000 0.040227 0.000000
# 6 0.000000 0.000000 0.000000 0.000000 0.000000 -0.026165
#
#
# Mechanical properties :
#
#
# Convention : Reuss Voigt Hill
#
# Bulk Modulus (GPa) = 53.54616 65.05924 59.30270
# Shear Modulus (GPa) = 24.20709 19.04294 21.62501
#
# Velocity S-wave (km/s) = 3.15045 2.79427 2.97769
# Velocity P-wave (km/s) = 5.93201 6.08984 6.01144
#
# Compressibility (1/GPa) = 0.01867548
#
# Stress axis : x y z
#
# Youngs Moduli (GPa) = 136.82641 133.93260 75.55126
#
# Poissons Ratio (x) = 0.36086 0.12995
# Poissons Ratio (y) = 0.36866 0.01915
# Poissons Ratio (z) = 0.23534 0.03394
#
# Static dielectric constant tensor:
#      x y z
#    x 1.997930 0.000000 0.000000 
#    y 0.000000 1.997660 0.000000 
#    z 0.000000 0.000000 1.958820 
# 
# From -- ./inp_files/30267.got.cif
#   From: 2010.05.17/outbox.cif.g08.bks.cpg/sg21_16_cif.got.tgz:30267.got - 2010.06.03 23:14:55.
