data_PCOD9322676
_publ_section_title
;
Structure prediction by ZEFSAII (Michael W. Deem and Ramdas Pophale) SiO2 
 PCOD9322676
Probable space group: C 2 2 2
;
_chemical_formula_sum "Si O2"
_cell_formula_units_Z 40
_cell_length_a 5.086640
_cell_length_b 26.291106
_cell_length_c 17.664878
_cell_angle_alpha 90.000000
_cell_angle_beta 90.000000
_cell_angle_gamma 90.000000
_cell_volume 2362.384044
_symmetry_space_group_name_H-M "C 2 2 2"
_symmetry_group_IT_number 21
_symmetry_cell_setting 'orthorhombic'
loop_
_space_group_symop_operation_xyz
x,y,z
-x,-y,z
x,-y,-z
-x,y,-z
1/2+x,1/2+y,z
1/2-x,1/2-y,z
1/2+x,1/2-y,-z
1/2-x,1/2+y,-z
loop_
_atom_site_type_symbol
_atom_site_label
_atom_site_fract_x
_atom_site_fract_y
_atom_site_fract_z
Si Si1 0.756917 0.189985 0.054281
Si Si2 0.023726 0.107887 0.150561
Si Si3 0.978589 0.561240 0.414447
Si Si4 0.478958 0.438686 0.685203
Si Si5 0.035862 0.443445 0.910274
O O1 0.750000 0.250000 0.071381
O O2 0.861200 0.159218 0.128244
O O3 0.500000 0.178645 0.000000
O O4 0.000000 0.178913 0.000000
O O5 0.837333 0.069092 0.105637
O O6 0.009931 0.092751 0.238110
O O7 0.323446 0.096511 0.123973
O O8 0.208702 0.574735 0.356435
O O9 0.000000 0.500000 0.420402
O O10 0.000000 0.581479 0.500000
O O11 0.705523 0.573409 0.374915
O O12 0.500000 0.500000 0.701024
O O13 0.000000 0.500000 0.877832
O O14 0.000000 0.443927 0.000000
#
# Coordination Sequence:
#
# PCOD9322676 Si02
#       5
#     8   8   8   8   8
#     4  10  21  37  55  73  94 127 173 220 263 305
#     4  12  21  33  50  70  98 128 163 208 257 295
#     4   9  17  30  46  64  91 128 164 193 226 278
#     4  10  19  29  44  68  96 126 159 196 239 287
#     4  11  22  33  46  66  95 133 170 198 233 291
#
# _framework density 16.932048000000002
#
# number of rings (size 3 to 8) (size 9 to 14) (size 15 to 20)
#    0.000    1.600    0.000    7.200    0.000    5.600 
#    0.000    0.000    0.000    0.000    0.000    0.000 
#    0.000    3.200    0.000    0.200    0.000    0.000 
#
# Total GULP energy -111340.187382 kJ/mol
# GULP energy per Si atom -5567.009369 kJ/mol
# Density = 1.689351 g / cm^3
# Si number density = 16.932048 Si / 1000 Ang^3
#
#
#
# Elastic Constant Matrix: (Units=GPa)
#
#
# Indices 1 2 3 4 5 6 
#
# 1 54.5181 3.2068 -12.1337 0.0000 0.0000 0.0000
# 2 3.2068 54.0912 18.1072 0.0000 0.0000 0.0000
# 3 -12.1337 18.1072 88.0050 0.0000 0.0000 0.0000
# 4 0.0000 0.0000 0.0000 -7.2754 0.0000 0.0000
# 5 0.0000 0.0000 0.0000 0.0000 891.2219 0.0000
# 6 0.0000 0.0000 0.0000 0.0000 0.0000 11.6322
#
#
#
# Elastic Compliance Matrix: (Units=1/GPa)
#
#
# Indices 1 2 3 4 5 6 
#
# 1 0.019157 -0.002169 0.003088 0.000000 0.000000 0.000000
# 2 -0.002169 0.020100 -0.004435 0.000000 0.000000 0.000000
# 3 0.003088 -0.004435 0.012701 0.000000 0.000000 0.000000
# 4 0.000000 0.000000 0.000000 -0.137449 0.000000 0.000000
# 5 0.000000 0.000000 0.000000 0.000000 0.001122 0.000000
# 6 0.000000 0.000000 0.000000 0.000000 0.000000 0.085968
#
#
# Mechanical properties :
#
#
# Convention : Reuss Voigt Hill
#
# Bulk Modulus (GPa) = 22.25882 23.88610 23.07246
# Shear Modulus (GPa) = 211.78430 191.61134 201.69782
#
# Velocity S-wave (km/s) = 11.19600 10.64944 10.92614
# Velocity P-wave (km/s) = 13.42790 12.85892 13.14649
#
# Compressibility (1/GPa) = 0.04492601
#
# Stress axis : x y z
#
# Youngs Moduli (GPa) = 52.19932 49.75006 78.73288
#
# Poissons Ratio (x) = 0.10792 -0.24310
# Poissons Ratio (y) = 0.11324 0.34917
# Poissons Ratio (z) = -0.16117 0.22063
#
# Static dielectric constant tensor:
#      x y z
#    x 1.594370 0.000000 0.000000 
#    y 0.000000 1.625720 0.000000 
#    z 0.000000 0.000000 1.581210 
# 
# From -- ./inp_files/29460.got.cif
#   From: 2010.05.17/outbox.cif.g08.bks.cpg/sg21_15_cif.got.tgz:29460.got - 2010.06.03 23:14:55.
