data_PCOD9322533
_publ_section_title
;
Structure prediction by ZEFSAII (Michael W. Deem and Ramdas Pophale) SiO2 
 PCOD9322533
Probable space group: C 2 2 2
;
_chemical_formula_sum "Si O2"
_cell_formula_units_Z 58
_cell_length_a 32.440471
_cell_length_b 13.842004
_cell_length_c 5.357963
_cell_angle_alpha 90.000000
_cell_angle_beta 90.000000
_cell_angle_gamma 90.000000
_cell_volume 2405.945757
_symmetry_space_group_name_H-M "C 2 2 2"
_symmetry_group_IT_number 21
_symmetry_cell_setting 'orthorhombic'
loop_
_space_group_symop_operation_xyz
x,y,z
-x,-y,z
x,-y,-z
-x,y,-z
1/2+x,1/2+y,z
1/2-x,1/2-y,z
1/2+x,1/2-y,-z
1/2-x,1/2+y,-z
loop_
_atom_site_type_symbol
_atom_site_label
_atom_site_fract_x
_atom_site_fract_y
_atom_site_fract_z
Si Si1 0.525837 0.377222 0.242808
Si Si2 0.131801 0.382543 0.513608
Si Si3 0.240619 0.934371 0.754756
Si Si4 0.151205 0.879641 0.741279
Si Si5 0.459980 0.159171 0.676081
Si Si6 0.882828 0.096227 0.247282
Si Si7 0.000000 0.500000 0.000000
Si Si8 0.325051 0.883536 0.977923
O O1 0.500000 0.387407 0.500000
O O2 0.538963 0.265302 0.207478
O O3 0.569305 0.431146 0.249828
O O4 0.500000 0.401883 0.000000
O O5 0.134845 0.500000 0.500000
O O6 0.084296 0.357264 0.557152
O O7 0.145791 0.346690 0.242336
O O8 0.161397 0.350779 0.745337
O O9 0.200003 0.870544 0.711608
O O10 0.279555 0.873632 0.856185
O O11 0.248472 0.000000 0.500000
O O12 0.231056 0.000000 0.000000
O O13 0.127491 0.845694 0.496625
O O14 0.142432 0.996179 0.745585
O O15 0.131635 0.848599 0.001481
O O16 0.500000 0.158029 0.500000
O O17 0.469508 0.070726 0.855241
O O18 0.329014 0.000000 0.000000
#
# Coordination Sequence:
#
# PCOD9322533 Si02
#       8
#     8   8   8   8   8   8   2   8
#     4  11  24  43  59  82 115 155 200 240 293 351
#     4  10  20  34  50  78 113 140 180 228 285 349
#     4  11  16  29  49  80 119 145 184 232 281 337
#     4  10  18  33  55  88 115 147 195 241 286 329
#     4  11  25  39  61  85 110 152 197 245 297 348
#     4  10  19  35  56  83 118 149 192 249 279 343
#     4  12  22  40  60  82 108 134 194 248 286 336
#     4   9  19  29  47  77 115 147 171 222 294 332
#
# _framework density 24.106947000000002
#
# number of rings (size 3 to 8) (size 9 to 14) (size 15 to 20)
#    0.000    1.655    3.448    3.931    4.828    0.000 
#    0.000    8.276    0.000    0.000    0.000    5.793 
#    0.000    0.000    0.000    0.000    0.000    0.000 
#
# Total GULP energy -162104.478870 kJ/mol
# GULP energy per Si atom -5589.809616 kJ/mol
# Density = 2.405208 g / cm^3
# Si number density = 24.106947 Si / 1000 Ang^3
#
#
#
# Elastic Constant Matrix: (Units=GPa)
#
#
# Indices 1 2 3 4 5 6 
#
# 1 198.8937 7.6842 83.1445 0.0000 0.0000 0.0000
# 2 7.6842 68.0343 25.9218 0.0000 0.0000 0.0000
# 3 83.1445 25.9218 192.5074 0.0000 0.0000 0.0000
# 4 0.0000 0.0000 0.0000 43.4807 0.0000 0.0000
# 5 0.0000 0.0000 0.0000 0.0000 -6.7637 0.0000
# 6 0.0000 0.0000 0.0000 0.0000 0.0000 30.5504
#
#
#
# Elastic Compliance Matrix: (Units=1/GPa)
#
#
# Indices 1 2 3 4 5 6 
#
# 1 0.006143 0.000334 -0.002698 0.000000 0.000000 0.000000
# 2 0.000334 0.015512 -0.002233 0.000000 0.000000 0.000000
# 3 -0.002698 -0.002233 0.006661 0.000000 0.000000 0.000000
# 4 0.000000 0.000000 0.000000 0.022999 0.000000 0.000000
# 5 0.000000 0.000000 0.000000 0.000000 -0.147849 0.000000
# 6 0.000000 0.000000 0.000000 0.000000 0.000000 0.032733
#
#
# Mechanical properties :
#
#
# Convention : Reuss Voigt Hill
#
# Bulk Modulus (GPa) = 52.29830 76.99294 64.64562
# Shear Modulus (GPa) = -103.65899 36.29914 -33.67992
#
# Velocity S-wave (km/s) = -6.56452 3.88461 -3.74184
# Velocity P-wave (km/s) = 5.97628 7.21995 2.86459
#
# Compressibility (1/GPa) = 0.01912108
#
# Stress axis : x y z
#
# Youngs Moduli (GPa) = 162.79233 64.46822 150.13651
#
# Poissons Ratio (x) = -0.02155 0.40508
# Poissons Ratio (y) = -0.05440 0.33526
# Poissons Ratio (z) = 0.43923 0.14396
#
# Static dielectric constant tensor:
#      x y z
#    x 1.861140 0.000000 0.000000 
#    y 0.000000 2.737420 0.000000 
#    z 0.000000 0.000000 1.907530 
# 
# From -- ./inp_files/7475.got.cif
#   From: 2010.05.17/outbox.cif.g08.bks.cpg/sg21_4_cif.got.tgz:7475.got - 2010.06.03 23:14:55.
