data_PCOD9322356
_publ_section_title
;
Structure prediction by ZEFSAII (Michael W. Deem and Ramdas Pophale) SiO2 
 PCOD9322356
Probable space group: C 2 2 2
;
_chemical_formula_sum "Si O2"
_cell_formula_units_Z 36
_cell_length_a 16.285655
_cell_length_b 8.466620
_cell_length_c 13.656962
_cell_angle_alpha 90.000000
_cell_angle_beta 90.000000
_cell_angle_gamma 90.000000
_cell_volume 1883.082726
_symmetry_space_group_name_H-M "C 2 2 2"
_symmetry_group_IT_number 21
_symmetry_cell_setting 'orthorhombic'
loop_
_space_group_symop_operation_xyz
x,y,z
-x,-y,z
x,-y,-z
-x,y,-z
1/2+x,1/2+y,z
1/2-x,1/2-y,z
1/2+x,1/2-y,-z
1/2-x,1/2+y,-z
loop_
_atom_site_type_symbol
_atom_site_label
_atom_site_fract_x
_atom_site_fract_y
_atom_site_fract_z
Si Si1 0.544045 0.751432 0.648049
Si Si2 0.156640 0.187838 0.024822
Si Si3 0.573340 0.870001 0.194583
Si Si4 0.500000 0.500000 0.500000
Si Si5 0.339594 0.176487 0.818838
Si Si6 0.000000 0.500000 0.500000
O O1 0.458221 0.784079 0.706538
O O2 0.549367 0.607013 0.574970
O O3 0.608034 0.741949 0.734662
O O4 0.553931 0.896749 0.573710
O O5 0.250000 0.250000 0.044755
O O6 0.096946 0.242312 0.112530
O O7 0.128752 0.280506 0.927050
O O8 0.157672 0.000000 0.000000
O O9 0.500000 0.000000 0.173059
O O10 0.650674 0.989639 0.200746
O O11 0.250000 0.250000 0.815875
#
# Coordination Sequence:
#
# PCOD9322356 Si02
#       6
#     8   8   8   2   8   2
#     4  10  21  38  64  86 117 155 201 251 300 357
#     4  11  23  38  62  91 132 166 197 243 305 365
#     4  10  21  41  63  92 119 167 202 246 296 364
#     4  10  24  38  62  84 124 146 206 258 304 348
#     4  10  20  38  61  89 124 158 196 243 300 362
#     4  10  16  42  62  84 104 162 204 240 316 344
#
# _framework density 19.117585999999999
#
# number of rings (size 3 to 8) (size 9 to 14) (size 15 to 20)
#    0.000    1.778    3.333    3.333    3.111    6.222 
#    0.000    5.556    0.000    0.000    0.000    0.000 
#    0.000    0.000    0.000    0.000    0.000    0.000 
#
# Total GULP energy -100208.506904 kJ/mol
# GULP energy per Si atom -5567.139272 kJ/mol
# Density = 1.907407 g / cm^3
# Si number density = 19.117586 Si / 1000 Ang^3
#
#
#
# Elastic Constant Matrix: (Units=GPa)
#
#
# Indices 1 2 3 4 5 6 
#
# 1 37.5882 21.2688 29.5966 0.0000 0.0000 0.0000
# 2 21.2688 91.6923 35.1999 0.0000 0.0000 0.0000
# 3 29.5966 35.1999 147.1180 0.0000 0.0000 0.0000
# 4 0.0000 0.0000 0.0000 84.8234 0.0000 0.0000
# 5 0.0000 0.0000 0.0000 0.0000 6.9761 0.0000
# 6 0.0000 0.0000 0.0000 0.0000 0.0000 12.2680
#
#
#
# Elastic Compliance Matrix: (Units=1/GPa)
#
#
# Indices 1 2 3 4 5 6 
#
# 1 0.034227 -0.005831 -0.005490 0.000000 0.000000 0.000000
# 2 -0.005831 0.013003 -0.001938 0.000000 0.000000 0.000000
# 3 -0.005490 -0.001938 0.008365 0.000000 0.000000 0.000000
# 4 0.000000 0.000000 0.000000 0.011789 0.000000 0.000000
# 5 0.000000 0.000000 0.000000 0.000000 0.143347 0.000000
# 6 0.000000 0.000000 0.000000 0.000000 0.000000 0.081513
#
#
# Mechanical properties :
#
#
# Convention : Reuss Voigt Hill
#
# Bulk Modulus (GPa) = 34.39330 49.83658 42.11494
# Shear Modulus (GPa) = 15.22278 33.50238 24.36258
#
# Velocity S-wave (km/s) = 2.82489 4.19075 3.57368
# Velocity P-wave (km/s) = 5.35439 7.03858 6.25344
#
# Compressibility (1/GPa) = 0.02907543
#
# Stress axis : x y z
#
# Youngs Moduli (GPa) = 29.21688 76.90743 119.53913
#
# Poissons Ratio (x) = 0.44848 0.65631
# Poissons Ratio (y) = 0.17038 0.23166
# Poissons Ratio (z) = 0.16041 0.14904
#
# Static dielectric constant tensor:
#      x y z
#    x 1.711190 0.000000 0.000000 
#    y 0.000000 1.811970 0.000000 
#    z 0.000000 0.000000 1.642460 
# 
# From -- ./inp_files/32028.got.cif
#   From: 2010.05.17/outbox.cif.g08.bks.cpg/sg21_17_cif.got.tgz:32028.got - 2010.06.03 23:14:55.
