data_PCOD9322584
_publ_section_title
;
Structure prediction by ZEFSAII (Michael W. Deem and Ramdas Pophale) SiO2 
 PCOD9322584
Probable space group: C 2 2 2
;
_chemical_formula_sum "Si O2"
_cell_formula_units_Z 46
_cell_length_a 31.501654
_cell_length_b 8.759721
_cell_length_c 9.052964
_cell_angle_alpha 90.000000
_cell_angle_beta 90.000000
_cell_angle_gamma 90.000000
_cell_volume 2498.126489
_symmetry_space_group_name_H-M "C 2 2 2"
_symmetry_group_IT_number 21
_symmetry_cell_setting 'orthorhombic'
loop_
_space_group_symop_operation_xyz
x,y,z
-x,-y,z
x,-y,-z
-x,y,-z
1/2+x,1/2+y,z
1/2-x,1/2-y,z
1/2+x,1/2-y,-z
1/2-x,1/2+y,-z
loop_
_atom_site_type_symbol
_atom_site_label
_atom_site_fract_x
_atom_site_fract_y
_atom_site_fract_z
Si Si1 0.570679 0.695158 0.846733
Si Si2 0.812951 0.000000 0.500000
Si Si3 0.380218 0.239899 0.572140
Si Si4 0.206367 0.815829 0.776985
Si Si5 0.635953 0.916521 0.288381
Si Si6 0.145163 0.000000 0.000000
Si Si7 0.000000 0.000000 0.000000
Si Si8 0.412306 0.000000 0.000000
O O1 0.580680 0.708162 0.673110
O O2 0.613294 0.615512 0.914447
O O3 0.530821 0.597330 0.895811
O O4 0.564307 0.862853 0.916860
O O5 0.844693 0.870033 0.562361
O O6 0.787041 0.924749 0.365766
O O7 0.390727 0.183475 0.406648
O O8 0.361824 0.088720 0.652171
O O9 0.250000 0.750000 0.841116
O O10 0.180345 0.669039 0.720795
O O11 0.175748 0.906513 0.889352
O O12 0.615671 0.922362 0.127593
#
# Coordination Sequence:
#
# PCOD9322584 Si02
#       8
#     8   4   8   8   8   4   2   4
#     4  10  20  38  62  86 122 153 205 244 315 371
#     4  10  20  36  58  81 108 162 206 246 311 356
#     4   9  18  34  59  81 112 154 201 247 295 381
#     4  11  23  37  54  84 120 155 205 263 307 367
#     4   9  19  34  55  87 112 154 208 240 303 364
#     4  11  20  40  56  84 115 169 198 257 305 383
#     4  10  24  34  60 100 120 150 198 270 300 384
#     4  10  18  34  66  85 115 159 195 250 293 381
#
# _framework density 18.413798
#
# number of rings (size 3 to 8) (size 9 to 14) (size 15 to 20)
#    0.000    2.087    3.478    0.000    0.000    3.826 
#    0.000    0.870    0.000    4.696    0.000    9.739 
#    0.000    0.000    0.000    0.000    0.000    0.000 
#
# Total GULP energy -128192.679719 kJ/mol
# GULP energy per Si atom -5573.594770 kJ/mol
# Density = 1.837189 g / cm^3
# Si number density = 18.413798 Si / 1000 Ang^3
#
#
#
# Elastic Constant Matrix: (Units=GPa)
#
#
# Indices 1 2 3 4 5 6 
#
# 1 88.4757 41.3023 38.7824 0.0000 0.0000 0.0000
# 2 41.3023 78.2909 19.9975 0.0000 0.0000 0.0000
# 3 38.7824 19.9975 96.5217 0.0000 0.0000 0.0000
# 4 0.0000 0.0000 0.0000 26.5087 0.0000 0.0000
# 5 0.0000 0.0000 0.0000 0.0000 16.2939 0.0000
# 6 0.0000 0.0000 0.0000 0.0000 0.0000 15.0554
#
#
#
# Elastic Compliance Matrix: (Units=1/GPa)
#
#
# Indices 1 2 3 4 5 6 
#
# 1 0.017251 -0.007740 -0.005328 0.000000 0.000000 0.000000
# 2 -0.007740 0.016959 -0.000404 0.000000 0.000000 0.000000
# 3 -0.005328 -0.000404 0.012585 0.000000 0.000000 0.000000
# 4 0.000000 0.000000 0.000000 0.037723 0.000000 0.000000
# 5 0.000000 0.000000 0.000000 0.000000 0.061373 0.000000
# 6 0.000000 0.000000 0.000000 0.000000 0.000000 0.066421
#
#
# Mechanical properties :
#
#
# Convention : Reuss Voigt Hill
#
# Bulk Modulus (GPa) = 50.37296 51.49473 50.93384
# Shear Modulus (GPa) = 20.33569 22.45201 21.39385
#
# Velocity S-wave (km/s) = 3.32681 3.49564 3.41227
# Velocity P-wave (km/s) = 6.49403 6.65723 6.57613
#
# Compressibility (1/GPa) = 0.01985192
#
# Stress axis : x y z
#
# Youngs Moduli (GPa) = 57.96718 58.96511 79.46114
#
# Poissons Ratio (x) = 0.45639 0.42336
# Poissons Ratio (y) = 0.44866 0.03208
# Poissons Ratio (z) = 0.30884 0.02381
#
# Static dielectric constant tensor:
#      x y z
#    x 1.589550 0.000000 0.000000 
#    y 0.000000 1.653750 0.000000 
#    z 0.000000 0.000000 1.675510 
# 
# From -- ./inp_files/11469.got.cif
#   From: 2010.05.17/outbox.cif.g08.bks.cpg/sg21_6_cif.got.tgz:11469.got - 2010.06.03 23:14:55.
