data_PCOD9322895
_publ_section_title
;
Structure prediction by ZEFSAII (Michael W. Deem and Ramdas Pophale) SiO2 
 PCOD9322895
Probable space group: C 2 2 2
;
_chemical_formula_sum "Si O2"
_cell_formula_units_Z 64
_cell_length_a 16.918919
_cell_length_b 21.173897
_cell_length_c 9.118201
_cell_angle_alpha 90.000000
_cell_angle_beta 90.000000
_cell_angle_gamma 90.000000
_cell_volume 3266.499295
_symmetry_space_group_name_H-M "C 2 2 2"
_symmetry_group_IT_number 21
_symmetry_cell_setting 'orthorhombic'
loop_
_space_group_symop_operation_xyz
x,y,z
-x,-y,z
x,-y,-z
-x,y,-z
1/2+x,1/2+y,z
1/2-x,1/2-y,z
1/2+x,1/2-y,-z
1/2-x,1/2+y,-z
loop_
_atom_site_type_symbol
_atom_site_label
_atom_site_fract_x
_atom_site_fract_y
_atom_site_fract_z
Si Si1 0.142278 0.936636 0.578869
Si Si2 0.373533 0.438732 0.087433
Si Si3 0.915779 0.815195 0.583115
Si Si4 0.409051 0.808229 0.559133
Si Si5 0.816258 0.563024 0.088317
Si Si6 0.917004 0.808356 0.931315
Si Si7 0.332826 0.939053 0.585980
Si Si8 0.329963 0.211854 0.126772
O O1 0.104330 0.932566 0.740982
O O2 0.124996 0.877233 0.477706
O O3 0.237439 0.939159 0.589361
O O4 0.114167 0.000000 0.500000
O O5 0.278584 0.444162 0.091919
O O6 0.403989 0.500000 0.000000
O O7 0.395852 0.376121 0.000190
O O8 0.874686 0.751201 0.528863
O O9 0.922042 0.813830 0.757242
O O10 0.000000 0.815066 0.500000
O O11 0.500000 0.814974 0.500000
O O12 0.365000 0.873395 0.525936
O O13 0.389795 0.792767 0.731929
O O14 0.856704 0.555564 0.245661
O O15 0.823474 0.639689 0.064536
O O16 0.843534 0.500000 0.000000
O O17 0.858189 0.756141 0.994431
O O18 0.000000 0.789344 0.000000
O O19 0.360703 0.000000 0.500000
O O20 0.250000 0.250000 0.178917
#
# Coordination Sequence:
#
# PCOD9322895 Si02
#       8
#     8   8   8   8   8   8   8   8
#     4  10  20  37  57  87 124 162 211 263 317 377
#     4  10  19  35  59  87 122 165 209 260 320 383
#     4  11  24  40  58  87 123 165 207 262 323 384
#     4  10  22  40  63  92 126 169 210 260 329 385
#     4   9  19  36  62  91 124 161 206 267 316 373
#     4  12  24  40  61  88 124 165 214 267 324 387
#     4   9  20  36  59  90 122 164 205 258 316 373
#     4  11  22  42  68  95 129 175 221 266 327 393
#
# _framework density 19.592841
#
# number of rings (size 3 to 8) (size 9 to 14) (size 15 to 20)
#    0.000    1.750    1.250    3.750    3.500    2.750 
#    2.250    2.500    0.000    1.875    0.000    0.000 
#    0.000    0.000    0.000    0.000    0.000    0.000 
#
# Total GULP energy -178231.496104 kJ/mol
# GULP energy per Si atom -5569.734253 kJ/mol
# Density = 1.954825 g / cm^3
# Si number density = 19.592841 Si / 1000 Ang^3
#
#
#
# Elastic Constant Matrix: (Units=GPa)
#
#
# Indices 1 2 3 4 5 6 
#
# 1 30.0679 19.5998 27.3587 0.0000 0.0000 0.0000
# 2 19.5998 185.3325 79.4687 0.0000 0.0000 0.0000
# 3 27.3587 79.4687 155.0079 0.0000 0.0000 0.0000
# 4 0.0000 0.0000 0.0000 38.7644 0.0000 0.0000
# 5 0.0000 0.0000 0.0000 0.0000 3.4698 0.0000
# 6 0.0000 0.0000 0.0000 0.0000 0.0000 -54.8296
#
#
#
# Elastic Compliance Matrix: (Units=1/GPa)
#
#
# Indices 1 2 3 4 5 6 
#
# 1 0.039961 -0.001540 -0.006263 0.000000 0.000000 0.000000
# 2 -0.001540 0.006975 -0.003304 0.000000 0.000000 0.000000
# 3 -0.006263 -0.003304 0.009251 0.000000 0.000000 0.000000
# 4 0.000000 0.000000 0.000000 0.025797 0.000000 0.000000
# 5 0.000000 0.000000 0.000000 0.000000 0.288199 0.000000
# 6 0.000000 0.000000 0.000000 0.000000 0.000000 -0.018238
#
#
# Mechanical properties :
#
#
# Convention : Reuss Voigt Hill
#
# Bulk Modulus (GPa) = 29.43659 69.25142 49.34401
# Shear Modulus (GPa) = 12.97068 13.74633 13.35851
#
# Velocity S-wave (km/s) = 2.57575 2.65165 2.61397
# Velocity P-wave (km/s) = 4.88904 6.69305 5.86088
#
# Compressibility (1/GPa) = 0.03397132
#
# Stress axis : x y z
#
# Youngs Moduli (GPa) = 25.02428 143.35998 108.09904
#
# Poissons Ratio (x) = 0.22083 0.67706
# Poissons Ratio (y) = 0.03855 0.35719
# Poissons Ratio (z) = 0.15674 0.47370
#
# Static dielectric constant tensor:
#      x y z
#    x 1.746570 0.000000 0.000000 
#    y 0.000000 1.726290 0.000000 
#    z 0.000000 0.000000 1.711330 
# 
# From -- ./inp_files/16843.got.cif
#   From: 2010.05.17/outbox.cif.g08.bks.cpg/sg21_9_cif.got.tgz:16843.got - 2010.06.03 23:14:55.
