data_PCOD9322297
_publ_section_title
;
Structure prediction by ZEFSAII (Michael W. Deem and Ramdas Pophale) SiO2 
 PCOD9322297
Probable space group: C 2 2 2
;
_chemical_formula_sum "Si O2"
_cell_formula_units_Z 56
_cell_length_a 13.989212
_cell_length_b 31.584097
_cell_length_c 5.317286
_cell_angle_alpha 90.000000
_cell_angle_beta 90.000000
_cell_angle_gamma 90.000000
_cell_volume 2349.371720
_symmetry_space_group_name_H-M "C 2 2 2"
_symmetry_group_IT_number 21
_symmetry_cell_setting 'orthorhombic'
loop_
_space_group_symop_operation_xyz
x,y,z
-x,-y,z
x,-y,-z
-x,y,-z
1/2+x,1/2+y,z
1/2-x,1/2-y,z
1/2+x,1/2-y,-z
1/2-x,1/2+y,-z
loop_
_atom_site_type_symbol
_atom_site_label
_atom_site_fract_x
_atom_site_fract_y
_atom_site_fract_z
Si Si1 0.175142 0.083217 0.069866
Si Si2 0.346365 0.025528 0.241661
Si Si3 0.884932 0.793625 0.501511
Si Si4 0.877749 0.605186 0.526972
Si Si5 0.849511 0.353202 0.962465
Si Si6 0.383875 0.755926 0.003114
Si Si7 0.349083 0.392424 0.564080
O O1 0.244572 0.125177 0.054125
O O2 0.117541 0.085491 0.815435
O O3 0.251058 0.045824 0.115261
O O4 0.109983 0.088314 0.311326
O O5 0.409172 0.064026 0.362323
O O6 0.325335 0.000000 0.500000
O O7 0.388370 0.000000 0.000000
O O8 0.854057 0.767637 0.744301
O O9 0.855992 0.842130 0.543557
O O10 0.000000 0.793744 0.500000
O O11 0.854287 0.770918 0.243184
O O12 0.901502 0.621145 0.808237
O O13 0.764333 0.596472 0.555223
O O14 0.891501 0.641478 0.318886
O O15 0.848148 0.303900 0.014624
O O16 0.500000 0.758132 0.000000
#
# Coordination Sequence:
#
# PCOD9322297 Si02
#       7
#     8   8   8   8   8   8   8
#     4   9  18  29  44  66  91 117 144 173 216 269
#     4  10  16  26  44  68  97 120 141 174 216 266
#     4  10  20  32  46  64  85 114 154 196 228 253
#     4   9  18  29  44  66  91 117 144 173 216 269
#     4   9  16  31  44  59  90 119 142 183 220 258
#     4  10  20  32  46  64  85 114 154 196 228 253
#     4   9  16  31  44  59  90 119 142 183 220 258
#
# _framework density 23.83616
#
# number of rings (size 3 to 8) (size 9 to 14) (size 15 to 20)
#    0.000    2.857    0.000    5.143    0.000    0.000 
#    0.000   17.143    0.000    0.000    0.000    0.000 
#    0.000  118.857    0.000    0.000    0.000    0.000 
#
# Total GULP energy -156128.634472 kJ/mol
# GULP energy per Si atom -5576.022660 kJ/mol
# Density = 2.378191 g / cm^3
# Si number density = 23.836160 Si / 1000 Ang^3
#
#
#
# Elastic Constant Matrix: (Units=GPa)
#
#
# Indices 1 2 3 4 5 6 
#
# 1 62.3610 0.3606 10.5086 0.0000 0.0000 0.0000
# 2 0.3606 107.0050 61.4913 0.0000 0.0000 0.0000
# 3 10.5086 61.4913 257.7972 0.0000 0.0000 0.0000
# 4 0.0000 0.0000 0.0000 54.0993 0.0000 0.0000
# 5 0.0000 0.0000 0.0000 0.0000 -2.5463 0.0000
# 6 0.0000 0.0000 0.0000 0.0000 0.0000 -130.4701
#
#
#
# Elastic Compliance Matrix: (Units=1/GPa)
#
#
# Indices 1 2 3 4 5 6 
#
# 1 0.016160 0.000376 -0.000748 0.000000 0.000000 0.000000
# 2 0.000376 0.010839 -0.002601 0.000000 0.000000 0.000000
# 3 -0.000748 -0.002601 0.004530 0.000000 0.000000 0.000000
# 4 0.000000 0.000000 0.000000 0.018485 0.000000 0.000000
# 5 0.000000 0.000000 0.000000 0.000000 -0.392727 0.000000
# 6 0.000000 0.000000 0.000000 0.000000 0.000000 -0.007665
#
#
# Mechanical properties :
#
#
# Convention : Reuss Voigt Hill
#
# Bulk Modulus (GPa) = 39.09101 63.54270 51.31685
# Shear Modulus (GPa) = -14.88514 7.87009 -3.50752
#
# Velocity S-wave (km/s) = -2.50167 1.81904 -1.21438
# Velocity P-wave (km/s) = 2.84448 5.57924 4.42826
#
# Compressibility (1/GPa) = 0.02558133
#
# Stress axis : x y z
#
# Youngs Moduli (GPa) = 61.88273 92.26341 220.75903
#
# Poissons Ratio (x) = -0.03465 0.16519
# Poissons Ratio (y) = -0.02324 0.57410
# Poissons Ratio (z) = 0.04631 0.23994
#
# Static dielectric constant tensor:
#      x y z
#    x 1.947090 0.000000 0.000000 
#    y 0.000000 1.909800 0.000000 
#    z 0.000000 0.000000 2.061090 
# 
# From -- ./inp_files/6082.got.cif
#   From: 2010.05.17/outbox.cif.g08.bks.cpg/sg21_4_cif.got.tgz:6082.got - 2010.06.03 23:14:55.
