data_PCOD9322812
_publ_section_title
;
Structure prediction by ZEFSAII (Michael W. Deem and Ramdas Pophale) SiO2 
 PCOD9322812
Probable space group: C 2 2 2
;
_chemical_formula_sum "Si O2"
_cell_formula_units_Z 48
_cell_length_a 17.260114
_cell_length_b 15.370844
_cell_length_c 7.527212
_cell_angle_alpha 90.000000
_cell_angle_beta 90.000000
_cell_angle_gamma 90.000000
_cell_volume 1996.988310
_symmetry_space_group_name_H-M "C 2 2 2"
_symmetry_group_IT_number 21
_symmetry_cell_setting 'orthorhombic'
loop_
_space_group_symop_operation_xyz
x,y,z
-x,-y,z
x,-y,-z
-x,y,-z
1/2+x,1/2+y,z
1/2-x,1/2-y,z
1/2+x,1/2-y,-z
1/2-x,1/2+y,-z
loop_
_atom_site_type_symbol
_atom_site_label
_atom_site_fract_x
_atom_site_fract_y
_atom_site_fract_z
Si Si1 0.695979 0.384799 0.868330
Si Si2 0.412939 0.719166 0.419870
Si Si3 0.848312 0.610769 0.653229
Si Si4 0.856550 0.714178 0.213947
Si Si5 0.579850 0.049995 0.724363
Si Si6 0.818540 0.932685 0.724606
O O1 0.777108 0.339148 0.816256
O O2 0.636795 0.304190 0.887101
O O3 0.674310 0.461947 0.729796
O O4 0.699804 0.415964 0.069430
O O5 0.500000 0.723706 0.500000
O O6 0.387252 0.798802 0.289438
O O7 0.359518 0.746573 0.587064
O O8 0.390219 0.625593 0.341868
O O9 0.862447 0.527129 0.779674
O O10 0.756691 0.606678 0.625230
O O11 0.080032 0.640657 0.826242
O O12 0.892180 0.584172 0.470027
O O13 0.500000 0.000000 0.721090
#
# Coordination Sequence:
#
# PCOD9322812 Si02
#       6
#     8   8   8   8   8   8
#     4  10  24  44  67 102 142 183 241 297 347 418
#     4  11  25  42  68 105 141 180 238 298 361 419
#     4  10  19  33  63 103 133 176 228 282 346 420
#     4  10  22  41  67 100 143 176 231 301 347 416
#     4  10  19  35  63 100 141 177 212 283 368 417
#     4  11  24  43  71 102 138 194 244 290 354 425
#
# _framework density 24.036197000000001
#
# number of rings (size 3 to 8) (size 9 to 14) (size 15 to 20)
#    0.000    1.667    1.667    3.500   14.000    0.667 
#    0.000    2.500    3.667    4.000    0.000    0.000 
#    0.000    0.000    0.000    0.000    0.000    0.000 
#
# Total GULP energy -133760.957553 kJ/mol
# GULP energy per Si atom -5573.373231 kJ/mol
# Density = 2.398149 g / cm^3
# Si number density = 24.036197 Si / 1000 Ang^3
#
#
#
# Elastic Constant Matrix: (Units=GPa)
#
#
# Indices 1 2 3 4 5 6 
#
# 1 80.9831 68.1869 13.5880 0.0000 0.0000 0.0000
# 2 68.1869 231.6688 35.6088 0.0000 0.0000 0.0000
# 3 13.5880 35.6088 48.9994 0.0000 0.0000 0.0000
# 4 0.0000 0.0000 0.0000 27.2576 0.0000 0.0000
# 5 0.0000 0.0000 0.0000 0.0000 -0.6238 0.0000
# 6 0.0000 0.0000 0.0000 0.0000 0.0000 34.5595
#
#
#
# Elastic Compliance Matrix: (Units=1/GPa)
#
#
# Indices 1 2 3 4 5 6 
#
# 1 0.016477 -0.004669 -0.001176 0.000000 0.000000 0.000000
# 2 -0.004669 0.006182 -0.003198 0.000000 0.000000 0.000000
# 3 -0.001176 -0.003198 0.023059 0.000000 0.000000 0.000000
# 4 0.000000 0.000000 0.000000 0.036687 0.000000 0.000000
# 5 0.000000 0.000000 0.000000 0.000000 -1.603013 0.000000
# 6 0.000000 0.000000 0.000000 0.000000 0.000000 0.028936
#
#
# Mechanical properties :
#
#
# Convention : Reuss Voigt Hill
#
# Bulk Modulus (GPa) = 36.19068 66.26874 51.22971
# Shear Modulus (GPa) = -3.41442 28.52316 12.55437
#
# Velocity S-wave (km/s) = -1.19315 3.44855 2.28789
# Velocity P-wave (km/s) = 3.63198 6.59446 5.32345
#
# Compressibility (1/GPa) = 0.02763142
#
# Stress axis : x y z
#
# Youngs Moduli (GPa) = 60.69186 161.75432 43.36764
#
# Poissons Ratio (x) = 0.75519 0.05101
# Poissons Ratio (y) = 0.28336 0.13869
# Poissons Ratio (z) = 0.07139 0.51730
#
# Static dielectric constant tensor:
#      x y z
#    x 2.029720 0.000000 0.000000 
#    y 0.000000 2.227610 0.000000 
#    z 0.000000 0.000000 2.137240 
# 
# From -- ./inp_files/16409.got.cif
#   From: 2010.05.17/outbox.cif.g08.bks.cpg/sg21_9_cif.got.tgz:16409.got - 2010.06.03 23:14:55.
