data_PCOD9322389
_publ_section_title
;
Structure prediction by ZEFSAII (Michael W. Deem and Ramdas Pophale) SiO2 
 PCOD9322389
Probable space group: C 2 2 2
;
_chemical_formula_sum "Si O2"
_cell_formula_units_Z 48
_cell_length_a 13.712436
_cell_length_b 18.008145
_cell_length_c 10.037754
_cell_angle_alpha 90.000000
_cell_angle_beta 90.000000
_cell_angle_gamma 90.000000
_cell_volume 2478.678162
_symmetry_space_group_name_H-M "C 2 2 2"
_symmetry_group_IT_number 21
_symmetry_cell_setting 'orthorhombic'
loop_
_space_group_symop_operation_xyz
x,y,z
-x,-y,z
x,-y,-z
-x,y,-z
1/2+x,1/2+y,z
1/2-x,1/2-y,z
1/2+x,1/2-y,-z
1/2-x,1/2+y,-z
loop_
_atom_site_type_symbol
_atom_site_label
_atom_site_fract_x
_atom_site_fract_y
_atom_site_fract_z
Si Si1 0.040446 0.822696 0.635246
Si Si2 0.460790 0.078717 0.850336
Si Si3 0.934051 0.652892 0.383444
Si Si4 0.412848 0.289446 0.891235
Si Si5 0.755551 0.841122 0.252279
Si Si6 0.715020 0.860055 0.949780
O O1 0.076102 0.740665 0.590085
O O2 0.134587 0.859267 0.704695
O O3 0.000000 0.859260 0.500000
O O4 0.960112 0.805354 0.747775
O O5 0.505674 0.139101 0.751732
O O6 0.344651 0.078710 0.868479
O O7 0.500000 0.000000 0.802135
O O8 0.500000 0.090833 0.000000
O O9 0.823464 0.629071 0.357756
O O10 0.000000 0.619392 0.500000
O O11 0.352411 0.212784 0.916663
O O12 0.326241 0.348578 0.909332
O O13 0.500000 0.292972 0.000000
O O14 0.750000 0.750000 0.239936
O O15 0.720889 0.869745 0.108416
#
# Coordination Sequence:
#
# PCOD9322389 Si02
#       6
#     8   8   8   8   8   8
#     4  10  20  32  48  77 115 144 176 219 276 340
#     4  11  22  35  53  75 103 142 184 231 268 313
#     4  10  20  33  51  73 108 144 181 222 270 333
#     4  11  18  30  53  80 103 144 186 218 268 340
#     4  10  17  31  50  74 106 149 173 219 284 326
#     4  11  19  30  54  77 107 145 188 222 271 333
#
# _framework density 19.365159999999999
#
# number of rings (size 3 to 8) (size 9 to 14) (size 15 to 20)
#    0.000    1.500    6.667    1.500    0.000    1.667 
#    6.000    0.000    0.000    0.000    0.000    8.167 
#    0.000    1.333    0.000    0.000    0.000    0.000 
#
# Total GULP energy -133677.982046 kJ/mol
# GULP energy per Si atom -5569.915919 kJ/mol
# Density = 1.932108 g / cm^3
# Si number density = 19.365160 Si / 1000 Ang^3
#
#
#
# Elastic Constant Matrix: (Units=GPa)
#
#
# Indices 1 2 3 4 5 6 
#
# 1 155.5461 14.2561 46.5410 0.0000 0.0000 0.0000
# 2 14.2561 17.2973 -4.6378 0.0000 0.0000 0.0000
# 3 46.5410 -4.6378 81.7993 0.0000 0.0000 0.0000
# 4 0.0000 0.0000 0.0000 5.9998 0.0000 0.0000
# 5 0.0000 0.0000 0.0000 0.0000 25.6913 0.0000
# 6 0.0000 0.0000 0.0000 0.0000 0.0000 11.9026
#
#
#
# Elastic Compliance Matrix: (Units=1/GPa)
#
#
# Indices 1 2 3 4 5 6 
#
# 1 0.008904 -0.008831 -0.005567 0.000000 0.000000 0.000000
# 2 -0.008831 0.067463 0.008849 0.000000 0.000000 0.000000
# 3 -0.005567 0.008849 0.015894 0.000000 0.000000 0.000000
# 4 0.000000 0.000000 0.000000 0.166671 0.000000 0.000000
# 5 0.000000 0.000000 0.000000 0.000000 0.038924 0.000000
# 6 0.000000 0.000000 0.000000 0.000000 0.000000 0.084015
#
#
# Mechanical properties :
#
#
# Convention : Reuss Voigt Hill
#
# Bulk Modulus (GPa) = 12.32058 40.77348 26.54703
# Shear Modulus (GPa) = 11.90412 21.95098 16.92755
#
# Velocity S-wave (km/s) = 2.48204 3.37045 2.95977
# Velocity P-wave (km/s) = 3.81970 6.02057 5.04170
#
# Compressibility (1/GPa) = 0.08116502
#
# Stress axis : x y z
#
# Youngs Moduli (GPa) = 112.30955 14.82284 62.91654
#
# Poissons Ratio (x) = 0.13090 0.35024
# Poissons Ratio (y) = 0.99181 -0.55678
# Poissons Ratio (z) = 0.62520 -0.13117
#
# Static dielectric constant tensor:
#      x y z
#    x 1.726860 0.000000 0.000000 
#    y 0.000000 1.759560 0.000000 
#    z 0.000000 0.000000 1.692460 
# 
# From -- ./inp_files/15134.got.cif
#   From: 2010.05.17/outbox.cif.g08.bks.cpg/sg21_8_cif.got.tgz:15134.got - 2010.06.03 23:14:55.
