data_PCOD9322495
_publ_section_title
;
Structure prediction by ZEFSAII (Michael W. Deem and Ramdas Pophale) SiO2 
 PCOD9322495
Probable space group: C 2 2 2
;
_chemical_formula_sum "Si O2"
_cell_formula_units_Z 32
_cell_length_a 7.636629
_cell_length_b 14.195899
_cell_length_c 11.824248
_cell_angle_alpha 90.000000
_cell_angle_beta 90.000000
_cell_angle_gamma 90.000000
_cell_volume 1281.852702
_symmetry_space_group_name_H-M "C 2 2 2"
_symmetry_group_IT_number 21
_symmetry_cell_setting 'orthorhombic'
loop_
_space_group_symop_operation_xyz
x,y,z
-x,-y,z
x,-y,-z
-x,y,-z
1/2+x,1/2+y,z
1/2-x,1/2-y,z
1/2+x,1/2-y,-z
1/2-x,1/2+y,-z
loop_
_atom_site_type_symbol
_atom_site_label
_atom_site_fract_x
_atom_site_fract_y
_atom_site_fract_z
Si Si1 0.208061 0.144532 0.994593
Si Si2 0.132605 0.862277 0.752592
Si Si3 0.739528 0.944828 0.774373
Si Si4 0.439711 0.200505 0.623411
O O1 0.250000 0.250000 0.948848
O O2 0.239694 0.149843 0.129285
O O3 0.295800 0.069629 0.909342
O O4 0.000000 0.127051 0.000000
O O5 0.933233 0.898483 0.772731
O O6 0.081305 0.772382 0.677252
O O7 0.231518 0.955987 0.711105
O O8 0.600260 0.883327 0.708766
O O9 0.500000 0.170285 0.500000
O O10 0.250000 0.250000 0.610618
#
# Coordination Sequence:
#
# PCOD9322495 Si02
#       4
#     8   8   8   8
#     4  10  18  31  57  89 124 165 207 261 331 397
#     4   9  18  33  59  91 122 162 211 263 327 392
#     4   9  17  34  59  93 126 158 212 270 320 391
#     4  10  21  39  64  91 126 174 223 273 328 388
#
# _framework density 24.963865999999999
#
# number of rings (size 3 to 8) (size 9 to 14) (size 15 to 20)
#    0.000    2.500    0.000    4.500    0.000    4.000 
#    0.000   10.000    0.000   28.500    0.000    0.000 
#    0.000    0.000    0.000    0.000    0.000    0.000 
#
# Total GULP energy -89151.183702 kJ/mol
# GULP energy per Si atom -5571.948981 kJ/mol
# Density = 2.490705 g / cm^3
# Si number density = 24.963866 Si / 1000 Ang^3
#
#
#
# Elastic Constant Matrix: (Units=GPa)
#
#
# Indices 1 2 3 4 5 6 
#
# 1 122.7817 43.1208 58.1824 0.0000 0.0000 0.0000
# 2 43.1208 130.6392 73.9448 0.0000 0.0000 0.0000
# 3 58.1824 73.9448 166.1126 0.0000 0.0000 0.0000
# 4 0.0000 0.0000 0.0000 16.7577 0.0000 0.0000
# 5 0.0000 0.0000 0.0000 0.0000 66.0396 0.0000
# 6 0.0000 0.0000 0.0000 0.0000 0.0000 2.9606
#
#
#
# Elastic Compliance Matrix: (Units=1/GPa)
#
#
# Indices 1 2 3 4 5 6 
#
# 1 0.010064 -0.001773 -0.002735 0.000000 0.000000 0.000000
# 2 -0.001773 0.010546 -0.004073 0.000000 0.000000 0.000000
# 3 -0.002735 -0.004073 0.008791 0.000000 0.000000 0.000000
# 4 0.000000 0.000000 0.000000 0.059674 0.000000 0.000000
# 5 0.000000 0.000000 0.000000 0.000000 0.015142 0.000000
# 6 0.000000 0.000000 0.000000 0.000000 0.000000 0.337773
#
#
# Mechanical properties :
#
#
# Convention : Reuss Voigt Hill
#
# Bulk Modulus (GPa) = 81.72360 85.55884 83.64122
# Shear Modulus (GPa) = 10.79371 33.43729 22.11550
#
# Velocity S-wave (km/s) = 2.08161 3.66379 2.97964
# Velocity P-wave (km/s) = 6.21171 7.22809 6.73909
#
# Compressibility (1/GPa) = 0.01223637
#
# Stress axis : x y z
#
# Youngs Moduli (GPa) = 99.36808 94.82674 113.74902
#
# Poissons Ratio (x) = 0.16817 0.31115
# Poissons Ratio (y) = 0.17622 0.46332
# Poissons Ratio (z) = 0.27181 0.38625
#
# Static dielectric constant tensor:
#      x y z
#    x 2.031520 0.000000 0.000000 
#    y 0.000000 2.137870 0.000000 
#    z 0.000000 0.000000 1.997710 
# 
# From -- ./inp_files/21950.got.cif
#   From: 2010.05.17/outbox.cif.g08.bks.cpg/sg21_11_cif.got.tgz:21950.got - 2010.06.03 23:14:55.
