data_PCOD9322827
_publ_section_title
;
Structure prediction by ZEFSAII (Michael W. Deem and Ramdas Pophale) SiO2 
 PCOD9322827
Probable space group: C 2 2 2
;
_chemical_formula_sum "Si O2"
_cell_formula_units_Z 48
_cell_length_a 15.353889
_cell_length_b 31.732764
_cell_length_c 5.011841
_cell_angle_alpha 90.000000
_cell_angle_beta 90.000000
_cell_angle_gamma 90.000000
_cell_volume 2441.875868
_symmetry_space_group_name_H-M "C 2 2 2"
_symmetry_group_IT_number 21
_symmetry_cell_setting 'orthorhombic'
loop_
_space_group_symop_operation_xyz
x,y,z
-x,-y,z
x,-y,-z
-x,y,-z
1/2+x,1/2+y,z
1/2-x,1/2-y,z
1/2+x,1/2-y,-z
1/2-x,1/2+y,-z
loop_
_atom_site_type_symbol
_atom_site_label
_atom_site_fract_x
_atom_site_fract_y
_atom_site_fract_z
Si Si1 0.284154 0.971918 0.759396
Si Si2 0.057052 0.590033 0.763233
Si Si3 0.328485 0.156801 0.976202
Si Si4 0.670888 0.594827 0.978150
Si Si5 0.400397 0.361211 0.495746
Si Si6 0.740472 0.200337 0.504199
O O1 0.357527 0.937275 0.689546
O O2 0.200032 0.948988 0.889840
O O3 0.264864 0.000000 0.500000
O O4 0.320761 0.000000 0.000000
O O5 0.090064 0.633880 0.891031
O O6 0.000000 0.595688 0.500000
O O7 0.000000 0.569335 0.000000
O O8 0.262461 0.118105 0.919776
O O9 0.286404 0.186887 0.198811
O O10 0.331327 0.182102 0.701403
O O11 0.622619 0.621265 0.205467
O O12 0.616853 0.600978 0.707935
O O13 0.500000 0.347250 0.500000
O O14 0.331465 0.323964 0.557742
O O15 0.750000 0.250000 0.477294
#
# Coordination Sequence:
#
# PCOD9322827 Si02
#       6
#     8   8   8   8   8   8
#     4  11  22  36  56  81 109 143 184 230 280 332
#     4  11  22  36  54  78 111 149 190 231 272 325
#     4   9  19  35  53  74 104 147 188 218 263 329
#     4   9  19  35  55  77 104 140 179 218 264 327
#     4  10  19  34  57  82 106 137 182 226 266 318
#     4  10  19  34  56  81 110 143 181 227 277 329
#
# _framework density 19.657017
#
# number of rings (size 3 to 8) (size 9 to 14) (size 15 to 20)
#    0.000    2.000    0.000    4.000    0.000    7.333 
#    0.000    2.500    0.000    9.500    0.000    0.000 
#    0.000    0.000    0.000    0.000    0.000    0.000 
#
# Total GULP energy -133875.371997 kJ/mol
# GULP energy per Si atom -5578.140500 kJ/mol
# Density = 1.961228 g / cm^3
# Si number density = 19.657017 Si / 1000 Ang^3
#
#
#
# Elastic Constant Matrix: (Units=GPa)
#
#
# Indices 1 2 3 4 5 6 
#
# 1 65.5211 4.3807 -2.1327 0.0000 0.0000 0.0000
# 2 4.3807 48.1745 -13.1875 0.0000 0.0000 0.0000
# 3 -2.1327 -13.1875 73.4605 0.0000 0.0000 0.0000
# 4 0.0000 0.0000 0.0000 24.5274 0.0000 0.0000
# 5 0.0000 0.0000 0.0000 0.0000 14.6129 0.0000
# 6 0.0000 0.0000 0.0000 0.0000 0.0000 13.4133
#
#
#
# Elastic Compliance Matrix: (Units=1/GPa)
#
#
# Indices 1 2 3 4 5 6 
#
# 1 0.015359 -0.001340 0.000205 0.000000 0.000000 0.000000
# 2 -0.001340 0.021948 0.003901 0.000000 0.000000 0.000000
# 3 0.000205 0.003901 0.014319 0.000000 0.000000 0.000000
# 4 0.000000 0.000000 0.000000 0.040771 0.000000 0.000000
# 5 0.000000 0.000000 0.000000 0.000000 0.068433 0.000000
# 6 0.000000 0.000000 0.000000 0.000000 0.000000 0.074553
#
#
# Mechanical properties :
#
#
# Convention : Reuss Voigt Hill
#
# Bulk Modulus (GPa) = 17.49563 18.36411 17.92987
# Shear Modulus (GPa) = 20.08825 23.71712 21.90268
#
# Velocity S-wave (km/s) = 3.20024 3.47731 3.34165
# Velocity P-wave (km/s) = 4.75134 5.04824 4.90204
#
# Compressibility (1/GPa) = 0.05715714
#
# Stress axis : x y z
#
# Youngs Moduli (GPa) = 65.11032 45.56294 69.83714
#
# Poissons Ratio (x) = 0.06107 -0.01433
# Poissons Ratio (y) = 0.08727 -0.27244
# Poissons Ratio (z) = -0.01336 -0.17775
#
# Static dielectric constant tensor:
#      x y z
#    x 1.721390 0.000000 0.000000 
#    y 0.000000 1.708220 0.000000 
#    z 0.000000 0.000000 1.692730 
# 
# From -- ./inp_files/4089.got.cif
#   From: 2010.05.17/outbox.cif.g08.bks.cpg/sg21_3_cif.got.tgz:4089.got - 2010.06.03 23:14:55.
