data_PCOD9322564
_publ_section_title
;
Structure prediction by ZEFSAII (Michael W. Deem and Ramdas Pophale) SiO2 
 PCOD9322564
Probable space group: C 2 2 2
;
_chemical_formula_sum "Si O2"
_cell_formula_units_Z 36
_cell_length_a 18.940172
_cell_length_b 5.045836
_cell_length_c 18.765714
_cell_angle_alpha 90.000000
_cell_angle_beta 90.000000
_cell_angle_gamma 90.000000
_cell_volume 1793.420554
_symmetry_space_group_name_H-M "C 2 2 2"
_symmetry_group_IT_number 21
_symmetry_cell_setting 'orthorhombic'
loop_
_space_group_symop_operation_xyz
x,y,z
-x,-y,z
x,-y,-z
-x,y,-z
1/2+x,1/2+y,z
1/2-x,1/2-y,z
1/2+x,1/2-y,-z
1/2-x,1/2+y,-z
loop_
_atom_site_type_symbol
_atom_site_label
_atom_site_fract_x
_atom_site_fract_y
_atom_site_fract_z
Si Si1 0.924807 0.136796 0.719677
Si Si2 0.750000 0.250000 0.250113
Si Si3 0.361487 0.884396 0.349608
Si Si4 0.672588 0.390634 0.845928
Si Si5 0.699420 0.500000 0.000000
Si Si6 0.201359 0.500000 0.500000
O O1 0.919778 0.403746 0.673866
O O2 0.888772 0.216259 0.795352
O O3 0.881600 0.912292 0.675071
O O4 0.000000 0.000000 0.731528
O O5 0.710125 0.052359 0.304085
O O6 0.689823 0.338891 0.195333
O O7 0.343984 0.910422 0.432135
O O8 0.750000 0.250000 0.842863
O O9 0.656753 0.428863 0.928800
O O10 0.750000 0.250000 0.017168
O O11 0.250000 0.250000 0.479383
#
# Coordination Sequence:
#
# PCOD9322564 Si02
#       6
#     8   4   8   8   4   4
#     4  11  24  41  61  86 120 164 207 243 294 365
#     4  10  18  34  56  90 112 154 186 254 286 358
#     4  11  23  39  61  88 121 153 199 248 303 353
#     4  10  19  34  58  85 118 152 196 246 301 348
#     4  10  20  32  51  88 121 146 186 246 304 350
#     4  12  24  38  61  96 125 150 192 256 310 356
#
# _framework density 20.073371999999999
#
# number of rings (size 3 to 8) (size 9 to 14) (size 15 to 20)
#    0.000    1.333    4.444    2.000    3.111    0.000 
#    0.000    3.889    0.000    0.000    0.000    4.667 
#    0.000    0.000    0.000    0.000    0.000    0.000 
#
# Total GULP energy -100276.294894 kJ/mol
# GULP energy per Si atom -5570.905272 kJ/mol
# Density = 2.002768 g / cm^3
# Si number density = 20.073372 Si / 1000 Ang^3
#
#
#
# Elastic Constant Matrix: (Units=GPa)
#
#
# Indices 1 2 3 4 5 6 
#
# 1 71.4928 6.5390 37.6554 0.0000 0.0000 0.0000
# 2 6.5390 76.7128 9.7336 0.0000 0.0000 0.0000
# 3 37.6554 9.7336 180.7703 0.0000 0.0000 0.0000
# 4 0.0000 0.0000 0.0000 23.1416 0.0000 0.0000
# 5 0.0000 0.0000 0.0000 0.0000 8.7130 0.0000
# 6 0.0000 0.0000 0.0000 0.0000 0.0000 31.7822
#
#
#
# Elastic Compliance Matrix: (Units=1/GPa)
#
#
# Indices 1 2 3 4 5 6 
#
# 1 0.015777 -0.000934 -0.003236 0.000000 0.000000 0.000000
# 2 -0.000934 0.013181 -0.000515 0.000000 0.000000 0.000000
# 3 -0.003236 -0.000515 0.006234 0.000000 0.000000 0.000000
# 4 0.000000 0.000000 0.000000 0.043212 0.000000 0.000000
# 5 0.000000 0.000000 0.000000 0.000000 0.114771 0.000000
# 6 0.000000 0.000000 0.000000 0.000000 0.000000 0.031464
#
#
# Mechanical properties :
#
#
# Convention : Reuss Voigt Hill
#
# Bulk Modulus (GPa) = 38.72868 48.53686 43.63277
# Shear Modulus (GPa) = 20.60857 31.06388 25.83622
#
# Velocity S-wave (km/s) = 3.20763 3.93812 3.59149
# Velocity P-wave (km/s) = 5.74926 6.70153 6.24358
#
# Compressibility (1/GPa) = 0.02582065
#
# Stress axis : x y z
#
# Youngs Moduli (GPa) = 63.38186 75.86890 160.41741
#
# Poissons Ratio (x) = 0.07088 0.51914
# Poissons Ratio (y) = 0.05921 0.08263
# Poissons Ratio (z) = 0.20512 0.03908
#
# Static dielectric constant tensor:
#      x y z
#    x 1.780390 0.000000 0.000000 
#    y 0.000000 1.804100 0.000000 
#    z 0.000000 0.000000 1.704700 
# 
# From -- ./inp_files/34829.got.cif
#   From: 2010.05.17/outbox.cif.g08.bks.cpg/sg21_18_cif.got.tgz:34829.got - 2010.06.03 23:14:55.
