data_PCOD9322060
_publ_section_title
;
Structure prediction by ZEFSAII (Michael W. Deem and Ramdas Pophale) SiO2 
 PCOD9322060
Probable space group: C 2 2 21
;
_chemical_formula_sum "Si O2"
_cell_formula_units_Z 64
_cell_length_a 8.935130
_cell_length_b 11.490123
_cell_length_c 28.340806
_cell_angle_alpha 90.000000
_cell_angle_beta 90.000000
_cell_angle_gamma 90.000000
_cell_volume 2909.629897
_symmetry_space_group_name_H-M "C 2 2 21"
_symmetry_group_IT_number 20
_symmetry_cell_setting 'orthorhombic'
loop_
_space_group_symop_operation_xyz
x,y,z
-x,-y,1/2+z
x,-y,-z
-x,y,1/2-z
1/2+x,1/2+y,z
1/2-x,1/2-y,1/2+z
1/2+x,1/2-y,-z
1/2-x,1/2+y,1/2-z
loop_
_atom_site_type_symbol
_atom_site_label
_atom_site_fract_x
_atom_site_fract_y
_atom_site_fract_z
Si Si1 0.365433 0.681849 0.723326
Si Si2 0.793315 0.496326 0.922954
Si Si3 0.909060 0.955035 0.665986
Si Si4 0.270289 0.343071 0.858260
Si Si5 0.690451 0.273461 0.449581
Si Si6 0.168363 0.778979 0.044985
Si Si7 0.897101 0.576418 0.619717
Si Si8 0.120042 0.275207 0.209538
O O1 0.500000 0.746171 0.750000
O O2 0.429941 0.565492 0.699535
O O3 0.285009 0.760675 0.684095
O O4 0.247337 0.652422 0.764143
O O5 0.687041 0.501997 0.877290
O O6 0.789453 0.361817 0.936525
O O7 0.728860 0.590004 0.958983
O O8 0.959116 0.540829 0.910577
O O9 0.822182 0.850102 0.691974
O O10 0.062589 0.893248 0.649368
O O11 0.240665 0.276290 0.907686
O O12 0.169360 0.457485 0.860752
O O13 0.772166 0.291762 0.499811
O O14 0.511257 0.287822 0.452133
O O15 0.773289 0.354391 0.411151
O O16 0.939818 0.656011 0.664314
O O17 0.000000 0.251702 0.250000
#
# Coordination Sequence:
#
# PCOD9322060 Si02
#       8
#     8   8   8   8   8   8   8   8
#     4  12  28  45  75 108 151 195 255 312 374 453
#     4  12  25  49  80 109 150 201 249 310 383 454
#     4  12  25  48  75 105 153 200 249 313 380 446
#     4  12  27  49  73 110 151 200 251 313 383 454
#     4  12  28  51  75 117 151 198 250 316 383 459
#     4  12  27  51  80 110 155 194 253 313 384 460
#     4  12  27  47  78 109 157 196 253 316 376 452
#     4  12  25  45  72 110 146 199 252 304 375 445
#
# _framework density 21.995926000000001
#
# number of rings (size 3 to 8) (size 9 to 14) (size 15 to 20)
#    0.000    0.000    5.000    4.500    7.000    1.000 
#    2.250    0.000    0.000    0.000    0.000    0.000 
#    0.000    0.000    0.000    0.000    0.000    0.000 
#
# Total GULP energy -179057.175513 kJ/mol
# GULP energy per Si atom -5595.536735 kJ/mol
# Density = 2.194586 g / cm^3
# Si number density = 21.995926 Si / 1000 Ang^3
#
#
#
# Elastic Constant Matrix: (Units=GPa)
#
#
# Indices 1 2 3 4 5 6 
#
# 1 87.5772 16.8581 27.3085 0.0000 0.0000 0.0000
# 2 16.8581 107.2150 16.9579 0.0000 0.0000 0.0000
# 3 27.3085 16.9579 94.3912 0.0000 0.0000 0.0000
# 4 0.0000 0.0000 0.0000 26.1871 0.0000 0.0000
# 5 0.0000 0.0000 0.0000 0.0000 22.2858 0.0000
# 6 0.0000 0.0000 0.0000 0.0000 0.0000 36.9537
#
#
#
# Elastic Compliance Matrix: (Units=1/GPa)
#
#
# Indices 1 2 3 4 5 6 
#
# 1 0.012771 -0.001465 -0.003431 0.000000 0.000000 0.000000
# 2 -0.001465 0.009768 -0.001331 0.000000 0.000000 0.000000
# 3 -0.003431 -0.001331 0.011826 0.000000 0.000000 0.000000
# 4 0.000000 0.000000 0.000000 0.038187 0.000000 0.000000
# 5 0.000000 0.000000 0.000000 0.000000 0.044872 0.000000
# 6 0.000000 0.000000 0.000000 0.000000 0.000000 0.027061
#
#
# Mechanical properties :
#
#
# Convention : Reuss Voigt Hill
#
# Bulk Modulus (GPa) = 45.64269 45.71470 45.67869
# Shear Modulus (GPa) = 30.44283 32.28923 31.36603
#
# Velocity S-wave (km/s) = 3.72428 3.83556 3.78033
# Velocity P-wave (km/s) = 6.26811 6.35954 6.31399
#
# Compressibility (1/GPa) = 0.02190931
#
# Stress axis : x y z
#
# Youngs Moduli (GPa) = 78.30518 102.37556 84.55895
#
# Poissons Ratio (x) = 0.15001 0.29016
# Poissons Ratio (y) = 0.11474 0.11254
# Poissons Ratio (z) = 0.26870 0.13626
#
# Static dielectric constant tensor:
#      x y z
#    x 1.824380 0.000000 0.000000 
#    y 0.000000 1.784280 0.000000 
#    z 0.000000 0.000000 1.827200 
# 
# From -- ./inp_files/31074.got.cif
#   From: 2010.05.17/outbox.cif.g08.bks.cpg/sg20_16_cif.got.tgz:31074.got - 2010.06.03 22:52:26.
