data_PCOD9322125
_publ_section_title
;
Structure prediction by ZEFSAII (Michael W. Deem and Ramdas Pophale) SiO2 
 PCOD9322125
Probable space group: C 2 2 21
;
_chemical_formula_sum "Si O2"
_cell_formula_units_Z 20
_cell_length_a 5.841018
_cell_length_b 17.450559
_cell_length_c 7.561008
_cell_angle_alpha 90.000000
_cell_angle_beta 90.000000
_cell_angle_gamma 90.000000
_cell_volume 770.686205
_symmetry_space_group_name_H-M "C 2 2 21"
_symmetry_group_IT_number 20
_symmetry_cell_setting 'orthorhombic'
loop_
_space_group_symop_operation_xyz
x,y,z
-x,-y,1/2+z
x,-y,-z
-x,y,1/2-z
1/2+x,1/2+y,z
1/2-x,1/2-y,1/2+z
1/2+x,1/2-y,-z
1/2-x,1/2+y,1/2-z
loop_
_atom_site_type_symbol
_atom_site_label
_atom_site_fract_x
_atom_site_fract_y
_atom_site_fract_z
Si Si1 0.827154 0.647929 0.973631
Si Si2 0.000000 0.927813 0.750000
Si Si3 0.000000 0.768091 0.250000
Si Si4 0.638753 0.000000 0.000000
O O1 0.612163 0.623145 0.097042
O O2 0.957956 0.713508 0.082583
O O3 0.719502 0.680375 0.794538
O O4 0.983353 0.573391 0.962326
O O5 0.197363 0.978804 0.663174
#
# Coordination Sequence:
#
# PCOD9322125 Si02
#       4
#     8   4   4   4
#     4  12  28  56  84 122 173 224 279 352 418 507
#     4  12  26  53  82 125 162 222 290 340 421 492
#     4  12  28  57  84 123 176 224 282 342 433 498
#     4  12  28  54  84 120 168 222 294 344 414 506
#
# _framework density 25.950901000000002
#
# number of rings (size 3 to 8) (size 9 to 14) (size 15 to 20)
#    0.000    0.000    4.000    3.600    0.000    9.600 
#    7.200    0.000    0.000    0.000    0.000    0.000 
#    0.000    0.000    0.000    0.000    0.000    0.000 
#
# Total GULP energy -56271.026598 kJ/mol
# GULP energy per Si atom -5627.102660 kJ/mol
# Density = 2.589184 g / cm^3
# Si number density = 25.950901 Si / 1000 Ang^3
#
#
#
# Elastic Constant Matrix: (Units=GPa)
#
#
# Indices 1 2 3 4 5 6 
#
# 1 124.4192 98.5603 26.6150 0.0000 0.0000 0.0000
# 2 98.5603 204.7376 58.7462 0.0000 0.0000 0.0000
# 3 26.6150 58.7462 88.3557 0.0000 0.0000 0.0000
# 4 0.0000 0.0000 0.0000 42.7864 0.0000 0.0000
# 5 0.0000 0.0000 0.0000 0.0000 76.0781 0.0000
# 6 0.0000 0.0000 0.0000 0.0000 0.0000 55.3632
#
#
#
# Elastic Compliance Matrix: (Units=1/GPa)
#
#
# Indices 1 2 3 4 5 6 
#
# 1 0.012998 -0.006344 0.000303 0.000000 0.000000 0.000000
# 2 -0.006344 0.009132 -0.004161 0.000000 0.000000 0.000000
# 3 0.000303 -0.004161 0.013993 0.000000 0.000000 0.000000
# 4 0.000000 0.000000 0.000000 0.023372 0.000000 0.000000
# 5 0.000000 0.000000 0.000000 0.000000 0.013144 0.000000
# 6 0.000000 0.000000 0.000000 0.000000 0.000000 0.018063
#
#
# Mechanical properties :
#
#
# Convention : Reuss Voigt Hill
#
# Bulk Modulus (GPa) = 63.61699 87.26172 75.43936
# Shear Modulus (GPa) = 42.97498 50.41829 46.69663
#
# Velocity S-wave (km/s) = 4.07383 4.41254 4.24656
# Velocity P-wave (km/s) = 6.83342 7.72395 7.29229
#
# Compressibility (1/GPa) = 0.01571907
#
# Stress axis : x y z
#
# Youngs Moduli (GPa) = 76.93364 109.50175 71.46339
#
# Poissons Ratio (x) = 0.69470 -0.02164
# Poissons Ratio (y) = 0.48808 0.29735
# Poissons Ratio (z) = -0.02329 0.45562
#
# Static dielectric constant tensor:
#      x y z
#    x 2.028760 0.000000 0.000000 
#    y 0.000000 1.959320 0.000000 
#    z 0.000000 0.000000 2.059910 
# 
# From -- ./inp_files/4893.got.cif
#   From: 2010.05.17/outbox.cif.g08.bks.cpg/sg20_3_cif.got.tgz:4893.got - 2010.06.03 22:52:26.
