data_PCOD9322981
_publ_section_title
;
Structure prediction by ZEFSAII (Michael W. Deem and Ramdas Pophale) SiO2 
 PCOD9322981
Probable space group: C 2 2 2
;
_chemical_formula_sum "Si O2"
_cell_formula_units_Z 48
_cell_length_a 9.175230
_cell_length_b 17.164441
_cell_length_c 12.259867
_cell_angle_alpha 90.000000
_cell_angle_beta 90.000000
_cell_angle_gamma 90.000000
_cell_volume 1930.778183
_symmetry_space_group_name_H-M "C 2 2 2"
_symmetry_group_IT_number 21
_symmetry_cell_setting 'orthorhombic'
loop_
_space_group_symop_operation_xyz
x,y,z
-x,-y,z
x,-y,-z
-x,y,-z
1/2+x,1/2+y,z
1/2-x,1/2-y,z
1/2+x,1/2-y,-z
1/2-x,1/2+y,-z
loop_
_atom_site_type_symbol
_atom_site_label
_atom_site_fract_x
_atom_site_fract_y
_atom_site_fract_z
Si Si1 0.925707 0.916189 0.111546
Si Si2 0.228612 0.920949 0.379119
Si Si3 0.293712 0.907084 0.611107
Si Si4 0.469939 0.680543 0.671966
Si Si5 0.126666 0.310883 0.786906
Si Si6 0.086663 0.422073 0.152160
O O1 0.960753 0.857296 0.207873
O O2 0.750120 0.922743 0.105494
O O3 0.000000 0.000000 0.135274
O O4 0.000000 0.889437 0.000000
O O5 0.333444 0.908968 0.483838
O O6 0.293707 0.884590 0.269118
O O7 0.083724 0.871020 0.395409
O O8 0.199936 0.012731 0.373362
O O9 0.191138 0.832688 0.627953
O O10 0.397624 0.916485 0.714805
O O11 0.539219 0.764495 0.691706
O O12 0.250000 0.250000 0.825989
O O13 0.012250 0.346504 0.871484
O O14 0.000000 0.500000 0.124108
#
# Coordination Sequence:
#
# PCOD9322981 Si02
#       6
#     8   8   8   8   8   8
#     4  10  23  43  75 107 139 174 238 312 370 440
#     4  10  19  37  57  94 136 189 231 294 332 429
#     4  10  20  34  62  95 130 183 249 278 344 416
#     4  10  20  38  64  92 138 181 228 291 367 419
#     4  10  23  40  62  95 145 188 235 286 357 420
#     4  11  22  43  73 100 140 192 235 285 363 437
#
# _framework density 24.860441000000002
#
# number of rings (size 3 to 8) (size 9 to 14) (size 15 to 20)
#    0.000    1.833    1.667    3.000    2.333    4.667 
#   15.000    1.667   11.000    0.000    0.000    0.000 
#    0.000    0.000    0.000    0.000    0.000    0.000 
#
# Total GULP energy -134149.448609 kJ/mol
# GULP energy per Si atom -5589.560359 kJ/mol
# Density = 2.480386 g / cm^3
# Si number density = 24.860441 Si / 1000 Ang^3
#
#
#
# Elastic Constant Matrix: (Units=GPa)
#
#
# Indices 1 2 3 4 5 6 
#
# 1 164.2521 47.6922 22.6768 0.0000 0.0000 0.0000
# 2 47.6922 123.0220 -1.1271 0.0000 0.0000 0.0000
# 3 22.6768 -1.1271 106.1365 0.0000 0.0000 0.0000
# 4 0.0000 0.0000 0.0000 -7.5417 0.0000 0.0000
# 5 0.0000 0.0000 0.0000 0.0000 20.0990 0.0000
# 6 0.0000 0.0000 0.0000 0.0000 0.0000 42.6874
#
#
#
# Elastic Compliance Matrix: (Units=1/GPa)
#
#
# Indices 1 2 3 4 5 6 
#
# 1 0.007106 -0.002769 -0.001548 0.000000 0.000000 0.000000
# 2 -0.002769 0.009208 0.000689 0.000000 0.000000 0.000000
# 3 -0.001548 0.000689 0.009760 0.000000 0.000000 0.000000
# 4 0.000000 0.000000 0.000000 -0.132596 0.000000 0.000000
# 5 0.000000 0.000000 0.000000 0.000000 0.049754 0.000000
# 6 0.000000 0.000000 0.000000 0.000000 0.000000 0.023426
#
#
# Mechanical properties :
#
#
# Convention : Reuss Voigt Hill
#
# Bulk Modulus (GPa) = 53.13572 59.09938 56.11755
# Shear Modulus (GPa) = -252.34383 32.66018 -109.84182
#
# Velocity S-wave (km/s) = -10.08586 3.62849 -6.65427
# Velocity P-wave (km/s) = 10.68703 6.43262 6.03465
#
# Compressibility (1/GPa) = 0.01881973
#
# Stress axis : x y z
#
# Youngs Moduli (GPa) = 140.72908 108.59680 102.46102
#
# Poissons Ratio (x) = 0.30070 0.15857
# Poissons Ratio (y) = 0.38967 -0.07064
# Poissons Ratio (z) = 0.21779 -0.07487
#
# Static dielectric constant tensor:
#      x y z
#    x 2.002280 0.000000 0.000000 
#    y 0.000000 1.935360 0.000000 
#    z 0.000000 0.000000 2.001180 
# 
# From -- ./inp_files/30517.got.cif
#   From: 2010.05.17/outbox.cif.g08.bks.cpg/sg21_16_cif.got.tgz:30517.got - 2010.06.03 23:14:55.
