data_PCOD9322907
_publ_section_title
;
Structure prediction by ZEFSAII (Michael W. Deem and Ramdas Pophale) SiO2 
 PCOD9322907
Probable space group: C 2 2 2
;
_chemical_formula_sum "Si O2"
_cell_formula_units_Z 32
_cell_length_a 15.576403
_cell_length_b 16.680614
_cell_length_c 5.290865
_cell_angle_alpha 90.000000
_cell_angle_beta 90.000000
_cell_angle_gamma 90.000000
_cell_volume 1374.693528
_symmetry_space_group_name_H-M "C 2 2 2"
_symmetry_group_IT_number 21
_symmetry_cell_setting 'orthorhombic'
loop_
_space_group_symop_operation_xyz
x,y,z
-x,-y,z
x,-y,-z
-x,y,-z
1/2+x,1/2+y,z
1/2-x,1/2-y,z
1/2+x,1/2-y,-z
1/2-x,1/2+y,-z
loop_
_atom_site_type_symbol
_atom_site_label
_atom_site_fract_x
_atom_site_fract_y
_atom_site_fract_z
Si Si1 0.650188 0.043666 0.250382
Si Si2 0.835323 0.208712 0.883857
Si Si3 0.657098 0.475431 0.754515
Si Si4 0.906912 0.721527 0.629705
O O1 0.624496 0.135583 0.268087
O O2 0.616940 0.000000 0.500000
O O3 0.753763 0.027844 0.249853
O O4 0.617342 0.000000 0.000000
O O5 0.750000 0.250000 0.989633
O O6 0.822525 0.117473 0.795111
O O7 0.853811 0.252938 0.618468
O O8 0.899778 0.220443 0.123391
O O9 0.611627 0.500000 0.500000
O O10 0.606075 0.500000 0.000000
O O11 0.000000 0.716481 0.500000
#
# Coordination Sequence:
#
# PCOD9322907 Si02
#       4
#     8   8   8   8
#     4  10  20  38  61  91 131 172 221 273 335 411
#     4  12  23  41  70 100 136 186 243 294 344 420
#     4  10  19  35  61  96 127 161 221 288 336 387
#     4  12  26  44  66 101 146 189 230 289 367 434
#
# _framework density 23.277916999999999
#
# number of rings (size 3 to 8) (size 9 to 14) (size 15 to 20)
#    0.000    1.000    0.000   10.500    0.000    0.500 
#    0.000    1.250    0.000   11.250    0.000    0.000 
#    0.000    0.000    0.000    0.000    0.000    0.000 
#
# Total GULP energy -89344.916155 kJ/mol
# GULP energy per Si atom -5584.057260 kJ/mol
# Density = 2.322494 g / cm^3
# Si number density = 23.277917 Si / 1000 Ang^3
#
#
#
# Elastic Constant Matrix: (Units=GPa)
#
#
# Indices 1 2 3 4 5 6 
#
# 1 76.6298 36.6240 27.6545 0.0000 0.0000 0.0000
# 2 36.6240 112.7181 55.3359 0.0000 0.0000 0.0000
# 3 27.6545 55.3359 238.0692 0.0000 0.0000 0.0000
# 4 0.0000 0.0000 0.0000 49.2549 0.0000 0.0000
# 5 0.0000 0.0000 0.0000 0.0000 24.9611 0.0000
# 6 0.0000 0.0000 0.0000 0.0000 0.0000 7.2219
#
#
#
# Elastic Compliance Matrix: (Units=1/GPa)
#
#
# Indices 1 2 3 4 5 6 
#
# 1 0.015555 -0.004704 -0.000714 0.000000 0.000000 0.000000
# 2 -0.004704 0.011437 -0.002112 0.000000 0.000000 0.000000
# 3 -0.000714 -0.002112 0.004774 0.000000 0.000000 0.000000
# 4 0.000000 0.000000 0.000000 0.020303 0.000000 0.000000
# 5 0.000000 0.000000 0.000000 0.000000 0.040062 0.000000
# 6 0.000000 0.000000 0.000000 0.000000 0.000000 0.138468
#
#
# Mechanical properties :
#
#
# Convention : Reuss Voigt Hill
#
# Bulk Modulus (GPa) = 59.85266 74.07176 66.96221
# Shear Modulus (GPa) = 19.90227 36.80776 28.35502
#
# Velocity S-wave (km/s) = 2.92719 3.98078 3.49393
# Velocity P-wave (km/s) = 6.09857 7.28138 6.71607
#
# Compressibility (1/GPa) = 0.01670770
#
# Stress axis : x y z
#
# Youngs Moduli (GPa) = 64.28624 87.43653 209.45743
#
# Poissons Ratio (x) = 0.41129 0.14947
# Poissons Ratio (y) = 0.30240 0.44236
# Poissons Ratio (z) = 0.04587 0.18466
#
# Static dielectric constant tensor:
#      x y z
#    x 1.954500 0.000000 0.000000 
#    y 0.000000 2.012850 0.000000 
#    z 0.000000 0.000000 1.883750 
# 
# From -- ./inp_files/3399.got.cif
#   From: 2010.05.17/outbox.cif.g08.bks.cpg/sg21_2_cif.got.tgz:3399.got - 2010.06.03 23:14:55.
