data_PCOD9322548
_publ_section_title
;
Structure prediction by ZEFSAII (Michael W. Deem and Ramdas Pophale) SiO2 
 PCOD9322548
Probable space group: C 2 2 2
;
_chemical_formula_sum "Si O2"
_cell_formula_units_Z 34
_cell_length_a 5.552514
_cell_length_b 26.614939
_cell_length_c 10.503824
_cell_angle_alpha 90.000000
_cell_angle_beta 90.000000
_cell_angle_gamma 90.000000
_cell_volume 1552.253235
_symmetry_space_group_name_H-M "C 2 2 2"
_symmetry_group_IT_number 21
_symmetry_cell_setting 'orthorhombic'
loop_
_space_group_symop_operation_xyz
x,y,z
-x,-y,z
x,-y,-z
-x,y,-z
1/2+x,1/2+y,z
1/2-x,1/2-y,z
1/2+x,1/2-y,-z
1/2-x,1/2+y,-z
loop_
_atom_site_type_symbol
_atom_site_label
_atom_site_fract_x
_atom_site_fract_y
_atom_site_fract_z
Si Si1 0.735011 0.069111 0.706501
Si Si2 0.250908 0.306035 0.920278
Si Si3 0.261151 0.403264 0.747944
Si Si4 0.000000 0.500000 0.500000
Si Si5 0.749794 0.843879 0.486283
O O1 0.486756 0.069121 0.784586
O O2 0.675537 0.031186 0.592476
O O3 0.747697 0.125443 0.645405
O O4 0.997236 0.064466 0.767463
O O5 0.250000 0.250000 0.861805
O O6 0.265826 0.351161 0.822076
O O7 0.500000 0.308801 0.000000
O O8 0.000000 0.310844 0.000000
O O9 0.249911 0.386830 0.598056
O O10 0.500000 0.815461 0.500000
O O11 0.000000 0.815685 0.500000
#
# Coordination Sequence:
#
# PCOD9322548 Si02
#       5
#     8   8   8   2   8
#     4  10  20  30  51  79 117 147 179 226 266 325
#     4  10  21  37  59  85 107 135 191 255 290 329
#     4  10  18  34  50  76 112 149 173 224 286 342
#     4  12  20  34  52  90 122 150 192 246 252 318
#     4   8  14  27  42  67  98 139 165 206 249 321
#
# _framework density 21.903642999999999
#
# number of rings (size 3 to 8) (size 9 to 14) (size 15 to 20)
#    0.000    2.353    3.529    1.412    0.000    1.882 
#    0.000    0.000    0.000   12.706    0.000   12.353 
#    0.000    0.000    0.000    0.000    0.000    0.000 
#
# Total GULP energy -94695.051195 kJ/mol
# GULP energy per Si atom -5570.297129 kJ/mol
# Density = 2.185379 g / cm^3
# Si number density = 21.903643 Si / 1000 Ang^3
#
#
#
# Elastic Constant Matrix: (Units=GPa)
#
#
# Indices 1 2 3 4 5 6 
#
# 1 270.9754 36.5207 11.7534 0.0000 0.0000 0.0000
# 2 36.5207 80.4601 23.2554 0.0000 0.0000 0.0000
# 3 11.7534 23.2554 12.3682 0.0000 0.0000 0.0000
# 4 0.0000 0.0000 0.0000 42.5815 0.0000 0.0000
# 5 0.0000 0.0000 0.0000 0.0000 13.6884 0.0000
# 6 0.0000 0.0000 0.0000 0.0000 0.0000 46.5961
#
#
#
# Elastic Compliance Matrix: (Units=1/GPa)
#
#
# Indices 1 2 3 4 5 6 
#
# 1 0.003935 -0.001545 -0.000835 0.000000 0.000000 0.000000
# 2 -0.001545 0.027829 -0.050858 0.000000 0.000000 0.000000
# 3 -0.000835 -0.050858 0.177272 0.000000 0.000000 0.000000
# 4 0.000000 0.000000 0.000000 0.023484 0.000000 0.000000
# 5 0.000000 0.000000 0.000000 0.000000 0.073055 0.000000
# 6 0.000000 0.000000 0.000000 0.000000 0.000000 0.021461
#
#
# Mechanical properties :
#
#
# Convention : Reuss Voigt Hill
#
# Bulk Modulus (GPa) = 9.75028 56.31807 33.03418
# Shear Modulus (GPa) = 10.69066 40.05816 25.37441
#
# Velocity S-wave (km/s) = 2.21164 4.28113 3.40730
# Velocity P-wave (km/s) = 3.31405 7.08555 5.53118
#
# Compressibility (1/GPa) = 0.10256113
#
# Stress axis : x y z
#
# Youngs Moduli (GPa) = 254.14468 35.93353 5.64104
#
# Poissons Ratio (x) = 0.05551 0.00471
# Poissons Ratio (y) = 0.39259 0.28689
# Poissons Ratio (z) = 0.21212 1.82751
#
# Static dielectric constant tensor:
#      x y z
#    x 1.998620 0.000000 0.000000 
#    y 0.000000 1.774000 0.000000 
#    z 0.000000 0.000000 1.783930 
# 
# From -- ./inp_files/20956.got.cif
#   From: 2010.05.17/outbox.cif.g08.bks.cpg/sg21_11_cif.got.tgz:20956.got - 2010.06.03 23:14:55.
