data_PCOD9322238
_publ_section_title
;
Structure prediction by ZEFSAII (Michael W. Deem and Ramdas Pophale) SiO2 
 PCOD9322238
Probable space group: C 2 2 21
;
_chemical_formula_sum "Si O2"
_cell_formula_units_Z 20
_cell_length_a 15.000000
_cell_length_b 12.000000
_cell_length_c 12.000000
_cell_angle_alpha 90.000000
_cell_angle_beta 90.000000
_cell_angle_gamma 90.000000
_cell_volume 2160.000000
_symmetry_space_group_name_H-M "C 2 2 21"
_symmetry_group_IT_number 20
_symmetry_cell_setting 'orthorhombic'
loop_
_space_group_symop_operation_xyz
x,y,z
-x,-y,1/2+z
x,-y,-z
-x,y,1/2-z
1/2+x,1/2+y,z
1/2-x,1/2-y,1/2+z
1/2+x,1/2-y,-z
1/2-x,1/2+y,1/2-z
loop_
_atom_site_type_symbol
_atom_site_label
_atom_site_fract_x
_atom_site_fract_y
_atom_site_fract_z
Si Si1 0.934308 0.755557 0.352599
Si Si2 0.093932 0.735795 0.536007
Si Si3 0.842636 0.999918 0.303358
Si Si4 0.740834 0.901043 0.913973
Si Si5 0.000000 0.831628 0.750000
Si Si6 0.803543 0.500000 0.000000
O O1 0.848839 0.672220 0.380005
O O2 0.000000 0.720712 0.250000
O O3 0.009529 0.761258 0.452400
O O4 0.887839 0.875938 0.319590
O O5 0.180894 0.819814 0.533848
O O6 0.134982 0.611448 0.515472
O O7 0.051020 0.757125 0.658242
O O8 0.790332 0.034690 0.189220
O O9 0.765579 0.012296 0.396632
O O10 0.925512 0.087611 0.307556
O O11 0.715922 0.000000 0.000000
#
# Coordination Sequence:
#
# PCOD9322238 Si02
#       6
#     8   8   8   8   4   4
#     4  12  24  46  70 103 139 182 229 284 346 410
#     4  11  26  44  71 102 140 182 228 282 344 408
#     4  11  23  44  73  97 136 181 231 284 334 409
#     4  11  26  46  70 102 140 180 231 286 341 410
#     4  10  24  44  70 100 130 180 238 278 330 410
#     4  12  24  46  66 100 144 178 220 286 350 402
#
# _framework density 9.2592590000000001
#
# number of rings (size 3 to 8) (size 9 to 14) (size 15 to 20)
#    0.000    0.800    3.000    3.600    4.200    1.600 
#    1.800    0.000    0.000    0.000    0.000    0.000 
#    0.000    0.000    0.000    0.000    0.000    0.000 
#
# Total GULP energy -111532.640040 kJ/mol
# GULP energy per Si atom -5576.632002 kJ/mol
# Density = 0.923818 g / cm^3
# Si number density = 9.259259 Si / 1000 Ang^3
#
#
#
# Elastic Constant Matrix: (Units=GPa)
#
#
# Indices 1 2 3 4 5 6 
#
# 1 180.4877 81.3828 58.3709 0.0000 0.0000 0.0000
# 2 81.3828 167.6088 61.4208 0.0000 0.0000 0.0000
# 3 58.3709 61.4208 102.4789 0.0000 0.0000 0.0000
# 4 0.0000 0.0000 0.0000 35.5016 0.0000 0.0000
# 5 0.0000 0.0000 0.0000 0.0000 54.7272 0.0000
# 6 0.0000 0.0000 0.0000 0.0000 0.0000 47.8409
#
#
#
# Elastic Compliance Matrix: (Units=1/GPa)
#
#
# Indices 1 2 3 4 5 6 
#
# 1 0.007646 -0.002712 -0.002730 0.000000 0.000000 0.000000
# 2 -0.002712 0.008608 -0.003614 0.000000 0.000000 0.000000
# 3 -0.002730 -0.003614 0.013479 0.000000 0.000000 0.000000
# 4 0.000000 0.000000 0.000000 0.028168 0.000000 0.000000
# 5 0.000000 0.000000 0.000000 0.000000 0.018272 0.000000
# 6 0.000000 0.000000 0.000000 0.000000 0.000000 0.020903
#
#
# Mechanical properties :
#
#
# Convention : Reuss Voigt Hill
#
# Bulk Modulus (GPa) = 86.05232 94.76937 90.41084
# Shear Modulus (GPa) = 41.99508 44.24066 43.11787
#
# Velocity S-wave (km/s) = 4.76724 4.89304 4.83055
# Velocity P-wave (km/s) = 8.76762 9.12190 8.94651
#
# Compressibility (1/GPa) = 0.01162084
#
# Stress axis : x y z
#
# Youngs Moduli (GPa) = 130.78109 116.17537 74.18985
#
# Poissons Ratio (x) = 0.31512 0.20251
# Poissons Ratio (y) = 0.35474 0.26812
# Poissons Ratio (z) = 0.35698 0.41986
#
# Static dielectric constant tensor:
#      x y z
#    x 1.620840 0.000000 0.000000 
#    y 0.000000 1.647210 0.000000 
#    z 0.000000 0.000000 1.694840 
# 
# From -- ./inp_files/13943.got.cif
#   From: 2010.05.17/outbox.ucp.g08.bks.cvg/sg20_7_cif.got.tgz:13943.got - 2010.06.11 15:13:06.
