data_PCOD9322669
_publ_section_title
;
Structure prediction by ZEFSAII (Michael W. Deem and Ramdas Pophale) SiO2 
 PCOD9322669
Probable space group: C 2 2 2
;
_chemical_formula_sum "Si O2"
_cell_formula_units_Z 32
_cell_length_a 8.619773
_cell_length_b 28.504031
_cell_length_c 5.196084
_cell_angle_alpha 90.000000
_cell_angle_beta 90.000000
_cell_angle_gamma 90.000000
_cell_volume 1276.668885
_symmetry_space_group_name_H-M "C 2 2 2"
_symmetry_group_IT_number 21
_symmetry_cell_setting 'orthorhombic'
loop_
_space_group_symop_operation_xyz
x,y,z
-x,-y,z
x,-y,-z
-x,y,-z
1/2+x,1/2+y,z
1/2-x,1/2-y,z
1/2+x,1/2-y,-z
1/2-x,1/2+y,-z
loop_
_atom_site_type_symbol
_atom_site_label
_atom_site_fract_x
_atom_site_fract_y
_atom_site_fract_z
Si Si1 0.745036 0.066486 0.614626
Si Si2 0.000000 0.263815 0.500000
Si Si3 0.726485 0.842172 0.678124
Si Si4 0.000000 0.199740 0.000000
Si Si5 0.000000 0.500000 0.500000
Si Si6 0.000000 0.000000 0.500000
Si Si7 0.000000 0.402863 0.000000
O O1 0.788208 0.118346 0.518797
O O2 0.632049 0.038277 0.412554
O O3 0.893055 0.034824 0.661121
O O4 0.635620 0.069072 0.860776
O O5 0.849249 0.296158 0.445933
O O6 0.967482 0.232382 0.751894
O O7 0.853735 0.830041 0.894702
O O8 0.579119 0.867960 0.799258
#
# Coordination Sequence:
#
# PCOD9322669 Si02
#       7
#     8   4   8   4   2   2   4
#     4  11  24  48  75 115 157 221 267 351 410 518
#     4  12  27  53  78 125 168 223 284 357 421 518
#     4  12  27  49  78 114 163 220 279 342 436 504
#     4  12  33  48  84 124 170 217 291 368 418 495
#     4  10  18  48  68 106 148 202 276 320 390 500
#     4  10  28  48  78 118 182 192 288 354 440 480
#     4  12  23  45  82 107 156 228 277 324 428 528
#
# _framework density 25.065228999999999
#
# number of rings (size 3 to 8) (size 9 to 14) (size 15 to 20)
#    0.000    0.500    5.000    1.500    7.000    4.500 
#    0.000    1.250    0.000    0.000    0.000    0.000 
#    0.000    0.000    0.000    0.000    0.000    0.000 
#
# Total GULP energy -89426.486791 kJ/mol
# GULP energy per Si atom -5589.155424 kJ/mol
# Density = 2.500818 g / cm^3
# Si number density = 25.065229 Si / 1000 Ang^3
#
#
#
# Elastic Constant Matrix: (Units=GPa)
#
#
# Indices 1 2 3 4 5 6 
#
# 1 144.7495 77.0270 56.2715 0.0000 0.0000 0.0000
# 2 77.0270 157.4469 69.8309 0.0000 0.0000 0.0000
# 3 56.2715 69.8309 149.3350 0.0000 0.0000 0.0000
# 4 0.0000 0.0000 0.0000 -11.6138 0.0000 0.0000
# 5 0.0000 0.0000 0.0000 0.0000 50.3393 0.0000
# 6 0.0000 0.0000 0.0000 0.0000 0.0000 39.9753
#
#
#
# Elastic Compliance Matrix: (Units=1/GPa)
#
#
# Indices 1 2 3 4 5 6 
#
# 1 0.009715 -0.003948 -0.001815 0.000000 0.000000 0.000000
# 2 -0.003948 0.009618 -0.003010 0.000000 0.000000 0.000000
# 3 -0.001815 -0.003010 0.008787 0.000000 0.000000 0.000000
# 4 0.000000 0.000000 0.000000 -0.086104 0.000000 0.000000
# 5 0.000000 0.000000 0.000000 0.000000 0.019865 0.000000
# 6 0.000000 0.000000 0.000000 0.000000 0.000000 0.025015
#
#
# Mechanical properties :
#
#
# Convention : Reuss Voigt Hill
#
# Bulk Modulus (GPa) = 94.55797 95.31001 94.93399
# Shear Modulus (GPa) = 627.69961 32.30029 329.99995
#
# Velocity S-wave (km/s) = 15.84204 3.59367 11.48661
# Velocity P-wave (km/s) = 19.29854 7.43819 14.62464
#
# Compressibility (1/GPa) = 0.01057552
#
# Stress axis : x y z
#
# Youngs Moduli (GPa) = 102.93644 103.97578 113.79835
#
# Poissons Ratio (x) = 0.41049 0.20649
# Poissons Ratio (y) = 0.40638 0.34250
# Poissons Ratio (z) = 0.18678 0.31294
#
# Static dielectric constant tensor:
#      x y z
#    x 1.982720 0.000000 0.000000 
#    y 0.000000 2.049050 0.000000 
#    z 0.000000 0.000000 2.234140 
# 
# From -- ./inp_files/1558.got.cif
#   From: 2010.05.17/outbox.cif.g08.bks.cpg/sg21_1_cif.got.tgz:1558.got - 2010.06.03 23:14:55.
