data_PCOD9322655
_publ_section_title
;
Structure prediction by ZEFSAII (Michael W. Deem and Ramdas Pophale) SiO2 
 PCOD9322655
Probable space group: C 2 2 2
;
_chemical_formula_sum "Si O2"
_cell_formula_units_Z 32
_cell_length_a 12.450728
_cell_length_b 7.303952
_cell_length_c 16.305693
_cell_angle_alpha 90.000000
_cell_angle_beta 90.000000
_cell_angle_gamma 90.000000
_cell_volume 1482.831889
_symmetry_space_group_name_H-M "C 2 2 2"
_symmetry_group_IT_number 21
_symmetry_cell_setting 'orthorhombic'
loop_
_space_group_symop_operation_xyz
x,y,z
-x,-y,z
x,-y,-z
-x,y,-z
1/2+x,1/2+y,z
1/2-x,1/2-y,z
1/2+x,1/2-y,-z
1/2-x,1/2+y,-z
loop_
_atom_site_type_symbol
_atom_site_label
_atom_site_fract_x
_atom_site_fract_y
_atom_site_fract_z
Si Si1 0.370288 0.180895 0.144594
Si Si2 0.000000 0.000000 0.500000
Si Si3 0.000000 0.000000 0.221360
Si Si4 0.883581 0.575138 0.329393
Si Si5 0.152126 0.013129 0.637932
Si Si6 0.500000 0.000000 0.000000
O O1 0.250000 0.250000 0.132818
O O2 0.446048 0.349013 0.167076
O O3 0.372268 0.065766 0.229926
O O4 0.419659 0.097477 0.063400
O O5 0.084760 0.907849 0.437855
O O6 0.907118 0.082601 0.280288
O O7 0.870137 0.790487 0.354966
O O8 0.779764 0.469886 0.364821
O O9 0.000000 0.500000 0.353250
#
# Coordination Sequence:
#
# PCOD9322655 Si02
#       6
#     8   2   4   8   8   2
#     4  11  22  42  63  90 125 158 206 264 309 367
#     4  10  20  40  56  86 132 158 196 258 316 344
#     4   9  18  38  68  83 114 174 204 233 312 376
#     4  10  18  39  65  87 121 161 212 247 296 382
#     4   9  19  38  61  90 123 163 198 257 301 360
#     4  12  28  38  60  94 124 160 204 268 322 346
#
# _framework density 21.58033
#
# number of rings (size 3 to 8) (size 9 to 14) (size 15 to 20)
#    0.000    2.000    6.250    0.000    0.000    2.500 
#    9.000   15.000    0.000    0.000    0.000    0.000 
#    0.000    0.000    0.000    0.000    0.000    0.000 
#
# Total GULP energy -89277.991849 kJ/mol
# GULP energy per Si atom -5579.874491 kJ/mol
# Density = 2.153121 g / cm^3
# Si number density = 21.580330 Si / 1000 Ang^3
#
#
#
# Elastic Constant Matrix: (Units=GPa)
#
#
# Indices 1 2 3 4 5 6 
#
# 1 247.5127 50.4278 57.6806 0.0000 0.0000 0.0000
# 2 50.4278 42.1617 32.7999 0.0000 0.0000 0.0000
# 3 57.6806 32.7999 117.8816 0.0000 0.0000 0.0000
# 4 0.0000 0.0000 0.0000 215.8081 0.0000 0.0000
# 5 0.0000 0.0000 0.0000 0.0000 30.3252 0.0000
# 6 0.0000 0.0000 0.0000 0.0000 0.0000 34.2013
#
#
#
# Elastic Compliance Matrix: (Units=1/GPa)
#
#
# Indices 1 2 3 4 5 6 
#
# 1 0.005449 -0.005671 -0.001088 0.000000 0.000000 0.000000
# 2 -0.005671 0.036172 -0.007290 0.000000 0.000000 0.000000
# 3 -0.001088 -0.007290 0.011044 0.000000 0.000000 0.000000
# 4 0.000000 0.000000 0.000000 0.004634 0.000000 0.000000
# 5 0.000000 0.000000 0.000000 0.000000 0.032976 0.000000
# 6 0.000000 0.000000 0.000000 0.000000 0.000000 0.029239
#
#
# Mechanical properties :
#
#
# Convention : Reuss Voigt Hill
#
# Bulk Modulus (GPa) = 40.70509 76.59694 58.65101
# Shear Modulus (GPa) = 32.09228 73.84343 52.96785
#
# Velocity S-wave (km/s) = 3.86049 5.85596 4.95962
# Velocity P-wave (km/s) = 6.22690 9.01631 7.74816
#
# Compressibility (1/GPa) = 0.02456695
#
# Stress axis : x y z
#
# Youngs Moduli (GPa) = 183.51278 27.64575 90.54637
#
# Poissons Ratio (x) = 0.15677 0.09856
# Poissons Ratio (y) = 1.04066 0.66007
# Poissons Ratio (z) = 0.19975 0.20153
#
# Static dielectric constant tensor:
#      x y z
#    x 1.692350 0.000000 0.000000 
#    y 0.000000 1.865930 0.000000 
#    z 0.000000 0.000000 1.783700 
# 
# From -- ./inp_files/29889.got.cif
#   From: 2010.05.17/outbox.cif.g08.bks.cpg/sg21_15_cif.got.tgz:29889.got - 2010.06.03 23:14:55.
