data_PCOD9322438
_publ_section_title
;
Structure prediction by ZEFSAII (Michael W. Deem and Ramdas Pophale) SiO2 
 PCOD9322438
Probable space group: C 2 2 2
;
_chemical_formula_sum "Si O2"
_cell_formula_units_Z 64
_cell_length_a 29.816106
_cell_length_b 7.866489
_cell_length_c 16.251529
_cell_angle_alpha 90.000000
_cell_angle_beta 90.000000
_cell_angle_gamma 90.000000
_cell_volume 3811.764759
_symmetry_space_group_name_H-M "C 2 2 2"
_symmetry_group_IT_number 21
_symmetry_cell_setting 'orthorhombic'
loop_
_space_group_symop_operation_xyz
x,y,z
-x,-y,z
x,-y,-z
-x,y,-z
1/2+x,1/2+y,z
1/2-x,1/2-y,z
1/2+x,1/2-y,-z
1/2-x,1/2+y,-z
loop_
_atom_site_type_symbol
_atom_site_label
_atom_site_fract_x
_atom_site_fract_y
_atom_site_fract_z
Si Si1 0.450184 0.292860 0.596257
Si Si2 0.302376 0.797327 0.179159
Si Si3 0.302376 0.202673 0.179159
Si Si4 0.302064 0.705083 0.500000
Si Si5 0.950184 0.207140 0.596257
Si Si6 0.302618 0.204650 0.000000
Si Si7 0.856515 0.203962 0.659240
Si Si8 0.643485 0.296038 0.340760
O O1 0.450924 0.500000 0.599337
O O2 0.500000 0.234048 0.620990
O O3 0.443176 0.248740 0.500000
O O4 0.407525 0.233029 0.648221
O O5 0.250000 0.750000 0.191248
O O6 0.318616 0.731317 0.089297
O O7 0.332557 0.741449 0.255116
O O8 0.303862 1.000000 0.176114
O O9 0.250000 0.250000 0.191248
O O10 0.332557 0.258551 0.255116
O O11 0.318616 0.268683 0.089297
O O12 0.305338 0.500000 0.500000
O O13 0.250000 0.750000 0.500000
O O14 0.326860 0.768059 0.582321
O O15 0.326860 0.768059 0.417679
O O16 0.907525 0.266971 0.648221
O O17 0.250000 0.250000 0.000000
O O18 0.307741 0.000000 0.000000
O O19 0.858293 0.000000 0.651284
#
# Coordination Sequence:
#
# PCOD9322438 Si02
#       8
#     8   8   8   8   8   8   8   8
#     4   8  13  24  44  66  86 111 145 184 221 256
#     4  10  19  31  46  65  88 116 147 181 219 260
#     4  10  19  31  46  65  88 116 147 181 219 260
#     4  10  20  30  39  55  85 121 150 174 203 244
#     4   8  13  24  44  66  86 111 145 184 221 256
#     4   8  16  30  46  62  83 110 143 181 220 259
#     4  10  18  29  44  65  90 116 147 181 215 256
#     4  10  18  29  44  65  90 116 147 181 215 256
#
# _framework density 16.790122
#
# number of rings (size 3 to 8) (size 9 to 14) (size 15 to 20)
#    0.000    2.750    1.250    2.250    0.000    4.000 
#    0.000    0.000    0.000    0.750    0.000    2.625 
#    0.000    7.000    0.000    0.000    0.000    0.000 
#
# Total GULP energy -178244.128113 kJ/mol
# GULP energy per Si atom -5570.129004 kJ/mol
# Density = 1.675191 g / cm^3
# Si number density = 16.790122 Si / 1000 Ang^3
#
#
#
# Elastic Constant Matrix: (Units=GPa)
#
#
# Indices 1 2 3 4 5 6 
#
# 1 143.2879 7.8011 94.2524 0.0000 0.0000 0.0000
# 2 7.8011 17.2600 5.2473 0.0000 0.0000 0.0000
# 3 94.2524 5.2473 161.7910 0.0000 0.0000 0.0000
# 4 0.0000 0.0000 0.0000 -2.8565 0.0000 0.0000
# 5 0.0000 0.0000 0.0000 0.0000 16.7389 0.0000
# 6 0.0000 0.0000 0.0000 0.0000 0.0000 11.3594
#
#
#
# Elastic Compliance Matrix: (Units=1/GPa)
#
#
# Indices 1 2 3 4 5 6 
#
# 1 0.011486 -0.003189 -0.006588 0.000000 0.000000 0.000000
# 2 -0.003189 0.059400 -0.000069 0.000000 0.000000 0.000000
# 3 -0.006588 -0.000069 0.010021 0.000000 0.000000 0.000000
# 4 0.000000 0.000000 0.000000 -0.350076 0.000000 0.000000
# 5 0.000000 0.000000 0.000000 0.000000 0.059741 0.000000
# 6 0.000000 0.000000 0.000000 0.000000 0.000000 0.088033
#
#
# Mechanical properties :
#
#
# Convention : Reuss Voigt Hill
#
# Bulk Modulus (GPa) = 16.33567 59.66006 37.99787
# Shear Modulus (GPa) = -61.50114 19.38422 -21.05846
#
# Velocity S-wave (km/s) = -6.05878 3.40148 -3.54533
# Velocity P-wave (km/s) = 6.26057 7.14400 2.43331
#
# Compressibility (1/GPa) = 0.06121574
#
# Stress axis : x y z
#
# Youngs Moduli (GPa) = 87.06354 16.83512 99.79256
#
# Poissons Ratio (x) = 0.05368 0.65741
# Poissons Ratio (y) = 0.27761 0.00688
# Poissons Ratio (z) = 0.57355 0.00116
#
# Static dielectric constant tensor:
#      x y z
#    x 1.563040 0.000000 0.000000 
#    y 0.000000 1.629420 0.000000 
#    z 0.000000 0.000000 1.597530 
# 
# From -- ./inp_files/34087.got.cif
#   From: 2010.05.17/outbox.cif.g08.bks.cpg/sg21_18_cif.got.tgz:34087.got - 2010.06.03 23:14:55.
