data_PCOD9322046
_publ_section_title
;
Structure prediction by ZEFSAII (Michael W. Deem and Ramdas Pophale) SiO2 
 PCOD9322046
Probable space group: C 2 2 21
;
_chemical_formula_sum "Si O2"
_cell_formula_units_Z 36
_cell_length_a 13.641981
_cell_length_b 4.938725
_cell_length_c 20.291421
_cell_angle_alpha 90.000000
_cell_angle_beta 90.000000
_cell_angle_gamma 90.000000
_cell_volume 1367.114049
_symmetry_space_group_name_H-M "C 2 2 21"
_symmetry_group_IT_number 20
_symmetry_cell_setting 'orthorhombic'
loop_
_space_group_symop_operation_xyz
x,y,z
-x,-y,1/2+z
x,-y,-z
-x,y,1/2-z
1/2+x,1/2+y,z
1/2-x,1/2-y,1/2+z
1/2+x,1/2-y,-z
1/2-x,1/2+y,1/2-z
loop_
_atom_site_type_symbol
_atom_site_label
_atom_site_fract_x
_atom_site_fract_y
_atom_site_fract_z
Si Si1 0.216869 0.489396 0.349825
Si Si2 0.592955 0.000000 0.000000
Si Si3 0.963299 0.790696 0.183749
Si Si4 0.157265 0.488989 0.861020
Si Si5 0.083790 0.172703 0.440520
O O1 0.134634 0.619353 0.303790
O O2 0.303284 0.706829 0.358200
O O3 0.263813 0.208620 0.327601
O O4 0.153390 0.413728 0.415136
O O5 0.518346 0.783091 0.031043
O O6 0.654613 0.900982 0.938069
O O7 0.939746 0.986988 0.122885
O O8 0.000000 0.935065 0.250000
O O9 0.049474 0.582188 0.164187
O O10 0.371249 0.500000 0.000000
#
# Coordination Sequence:
#
# PCOD9322046 Si02
#       5
#     8   4   8   8   8
#     4  12  28  52  80 122 159 219 271 342 410 509
#     4  12  26  44  84 120 166 218 276 344 426 504
#     4  12  29  54  85 119 171 222 280 353 421 499
#     4  12  28  49  81 120 161 217 276 337 420 493
#     4  12  24  52  85 123 169 215 281 352 423 502
#
# _framework density 26.332843
#
# number of rings (size 3 to 8) (size 9 to 14) (size 15 to 20)
#    0.000    0.000    6.667    1.333    1.556    4.444 
#    0.000    0.000    0.000    0.000    0.000    0.000 
#    0.000    0.000    0.000    0.000    0.000    0.000 
#
# Total GULP energy -100949.564411 kJ/mol
# GULP energy per Si atom -5608.309134 kJ/mol
# Density = 2.627291 g / cm^3
# Si number density = 26.332843 Si / 1000 Ang^3
#
#
#
# Elastic Constant Matrix: (Units=GPa)
#
#
# Indices 1 2 3 4 5 6 
#
# 1 125.4403 33.9323 28.7117 0.0000 0.0000 0.0000
# 2 33.9323 134.0530 38.8939 0.0000 0.0000 0.0000
# 3 28.7117 38.8939 153.3511 0.0000 0.0000 0.0000
# 4 0.0000 0.0000 0.0000 19.5803 0.0000 0.0000
# 5 0.0000 0.0000 0.0000 0.0000 18.6927 0.0000
# 6 0.0000 0.0000 0.0000 0.0000 0.0000 33.5215
#
#
#
# Elastic Compliance Matrix: (Units=1/GPa)
#
#
# Indices 1 2 3 4 5 6 
#
# 1 0.008745 -0.001877 -0.001161 0.000000 0.000000 0.000000
# 2 -0.001877 0.008455 -0.001793 0.000000 0.000000 0.000000
# 3 -0.001161 -0.001793 0.007193 0.000000 0.000000 0.000000
# 4 0.000000 0.000000 0.000000 0.051072 0.000000 0.000000
# 5 0.000000 0.000000 0.000000 0.000000 0.053497 0.000000
# 6 0.000000 0.000000 0.000000 0.000000 0.000000 0.029832
#
#
# Mechanical properties :
#
#
# Convention : Reuss Voigt Hill
#
# Bulk Modulus (GPa) = 67.88271 68.43555 68.15913
# Shear Modulus (GPa) = 28.84060 35.11266 31.97663
#
# Velocity S-wave (km/s) = 3.31302 3.65556 3.48850
# Velocity P-wave (km/s) = 6.36156 6.62288 6.49354
#
# Compressibility (1/GPa) = 0.01473129
#
# Stress axis : x y z
#
# Youngs Moduli (GPa) = 114.34564 118.27301 139.02035
#
# Poissons Ratio (x) = 0.22197 0.16146
# Poissons Ratio (y) = 0.21460 0.24927
# Poissons Ratio (z) = 0.13280 0.21207
#
# Static dielectric constant tensor:
#      x y z
#    x 2.051040 0.000000 0.000000 
#    y 0.000000 2.048470 0.000000 
#    z 0.000000 0.000000 2.121680 
# 
# From -- ./inp_files/29395.got.cif
#   From: 2010.05.17/outbox.cif.g08.bks.cpg/sg20_15_cif.got.tgz:29395.got - 2010.06.03 22:52:26.
