data_PCOD9322765
_publ_section_title
;
Structure prediction by ZEFSAII (Michael W. Deem and Ramdas Pophale) SiO2 
 PCOD9322765
Probable space group: C 2 2 2
;
_chemical_formula_sum "Si O2"
_cell_formula_units_Z 48
_cell_length_a 13.479683
_cell_length_b 21.852162
_cell_length_c 8.642521
_cell_angle_alpha 90.000000
_cell_angle_beta 90.000000
_cell_angle_gamma 90.000000
_cell_volume 2545.742858
_symmetry_space_group_name_H-M "C 2 2 2"
_symmetry_group_IT_number 21
_symmetry_cell_setting 'orthorhombic'
loop_
_space_group_symop_operation_xyz
x,y,z
-x,-y,z
x,-y,-z
-x,y,-z
1/2+x,1/2+y,z
1/2-x,1/2-y,z
1/2+x,1/2-y,-z
1/2-x,1/2+y,-z
loop_
_atom_site_type_symbol
_atom_site_label
_atom_site_fract_x
_atom_site_fract_y
_atom_site_fract_z
Si Si1 0.731501 0.352172 0.345265
Si Si2 0.149761 0.282347 0.907865
Si Si3 0.841746 0.333024 0.776762
Si Si4 0.865798 0.200498 0.648673
Si Si5 0.543912 0.657486 0.837343
Si Si6 0.612067 0.928033 0.465406
O O1 0.812240 0.314934 0.246058
O O2 0.673599 0.312629 0.476020
O O3 0.644397 0.373045 0.228002
O O4 0.797829 0.401413 0.432726
O O5 0.250000 0.250000 0.968057
O O6 0.075654 0.227707 0.872754
O O7 0.120763 0.325902 0.048572
O O8 0.880589 0.273064 0.680721
O O9 0.723520 0.323766 0.757393
O O10 0.868357 0.397771 0.701912
O O11 0.961540 0.163137 0.703741
O O12 0.500000 0.633099 0.000000
O O13 0.500000 0.906136 0.500000
O O14 0.612416 0.000000 0.500000
#
# Coordination Sequence:
#
# PCOD9322765 Si02
#       6
#     8   8   8   8   8   8
#     4  10  23  35  58  85 120 156 202 246 298 367
#     4  10  19  33  49  87 124 155 188 230 295 377
#     4  10  19  35  57  80 120 156 189 240 302 352
#     4  10  19  33  52  89 120 156 188 233 306 372
#     4  11  20  32  52  87 133 155 186 235 304 387
#     4  10  24  43  61  83 111 155 210 256 295 348
#
# _framework density 18.855007000000001
#
# number of rings (size 3 to 8) (size 9 to 14) (size 15 to 20)
#    0.000    1.833    3.333    1.500   16.333    0.000 
#    0.000    0.833    0.000   10.000    0.000    9.333 
#    0.000    0.000    0.000    0.000    0.000    0.000 
#
# Total GULP energy -133687.177575 kJ/mol
# GULP energy per Si atom -5570.299066 kJ/mol
# Density = 1.881209 g / cm^3
# Si number density = 18.855007 Si / 1000 Ang^3
#
#
#
# Elastic Constant Matrix: (Units=GPa)
#
#
# Indices 1 2 3 4 5 6 
#
# 1 75.4147 17.8534 22.4657 0.0000 0.0000 0.0000
# 2 17.8534 43.7819 29.2644 0.0000 0.0000 0.0000
# 3 22.4657 29.2644 114.1317 0.0000 0.0000 0.0000
# 4 0.0000 0.0000 0.0000 13.5420 0.0000 0.0000
# 5 0.0000 0.0000 0.0000 0.0000 19.6993 0.0000
# 6 0.0000 0.0000 0.0000 0.0000 0.0000 17.1932
#
#
#
# Elastic Compliance Matrix: (Units=1/GPa)
#
#
# Indices 1 2 3 4 5 6 
#
# 1 0.014934 -0.004978 -0.001663 0.000000 0.000000 0.000000
# 2 -0.004978 0.029224 -0.006513 0.000000 0.000000 0.000000
# 3 -0.001663 -0.006513 0.010759 0.000000 0.000000 0.000000
# 4 0.000000 0.000000 0.000000 0.073844 0.000000 0.000000
# 5 0.000000 0.000000 0.000000 0.000000 0.050763 0.000000
# 6 0.000000 0.000000 0.000000 0.000000 0.000000 0.058162
#
#
# Mechanical properties :
#
#
# Convention : Reuss Voigt Hill
#
# Bulk Modulus (GPa) = 34.95528 41.38837 38.17183
# Shear Modulus (GPa) = 18.27934 21.00322 19.64128
#
# Velocity S-wave (km/s) = 3.11701 3.34118 3.23104
# Velocity P-wave (km/s) = 5.61547 6.07315 5.84879
#
# Compressibility (1/GPa) = 0.02860798
#
# Stress axis : x y z
#
# Youngs Moduli (GPa) = 66.96153 34.21825 92.94279
#
# Poissons Ratio (x) = 0.17034 0.15458
# Poissons Ratio (y) = 0.33334 0.60538
# Poissons Ratio (z) = 0.11137 0.22288
#
# Static dielectric constant tensor:
#      x y z
#    x 1.705910 0.000000 0.000000 
#    y 0.000000 1.628180 0.000000 
#    z 0.000000 0.000000 1.753320 
# 
# From -- ./inp_files/14998.got.cif
#   From: 2010.05.17/outbox.cif.g08.bks.cpg/sg21_8_cif.got.tgz:14998.got - 2010.06.03 23:14:55.
