data_PCOD9322591
_publ_section_title
;
Structure prediction by ZEFSAII (Michael W. Deem and Ramdas Pophale) SiO2 
 PCOD9322591
Probable space group: C 2 2 2
;
_chemical_formula_sum "Si O2"
_cell_formula_units_Z 40
_cell_length_a 14.852628
_cell_length_b 22.235759
_cell_length_c 5.319604
_cell_angle_alpha 90.000000
_cell_angle_beta 90.000000
_cell_angle_gamma 90.000000
_cell_volume 1756.849527
_symmetry_space_group_name_H-M "C 2 2 2"
_symmetry_group_IT_number 21
_symmetry_cell_setting 'orthorhombic'
loop_
_space_group_symop_operation_xyz
x,y,z
-x,-y,z
x,-y,-z
-x,y,-z
1/2+x,1/2+y,z
1/2-x,1/2-y,z
1/2+x,1/2-y,-z
1/2-x,1/2+y,-z
loop_
_atom_site_type_symbol
_atom_site_label
_atom_site_fract_x
_atom_site_fract_y
_atom_site_fract_z
Si Si1 0.215546 0.572252 0.488955
Si Si2 0.104002 0.427018 0.009935
Si Si3 0.908668 0.260207 0.152732
Si Si4 0.848563 0.262111 0.661007
Si Si5 0.400553 0.355446 0.528584
O O1 0.226329 0.500000 0.500000
O O2 0.156422 0.589428 0.733761
O O3 0.314072 0.602510 0.486035
O O4 0.161792 0.588514 0.236063
O O5 0.099214 0.500000 0.000000
O O6 0.000000 0.405534 0.000000
O O7 0.901295 0.290745 0.427257
O O8 0.896484 0.190212 0.233106
O O9 0.840540 0.285131 0.943185
O O10 0.000000 0.269807 0.000000
O O11 0.750000 0.250000 0.554750
O O12 0.892821 0.195892 0.686096
O O13 0.500000 0.383579 0.500000
#
# Coordination Sequence:
#
# PCOD9322591 Si02
#       5
#     8   8   8   8   8
#     4  10  21  34  56  87 117 153 198 239 283 340
#     4   9  18  35  57  79 106 145 193 246 296 340
#     4  10  18  35  55  82 106 146 191 227 276 350
#     4  10  20  34  57  82 105 139 194 239 283 329
#     4  10  22  36  58  83 121 158 197 227 283 346
#
# _framework density 22.768027
#
# number of rings (size 3 to 8) (size 9 to 14) (size 15 to 20)
#    1.200    1.000    2.000    1.800    2.800    2.800 
#    0.000    0.000    0.000   13.200    0.000    0.000 
#    0.000    0.000    0.000    0.000    0.000    0.000 
#
# Total GULP energy -111416.694265 kJ/mol
# GULP energy per Si atom -5570.834713 kJ/mol
# Density = 2.271621 g / cm^3
# Si number density = 22.768027 Si / 1000 Ang^3
#
#
#
# Elastic Constant Matrix: (Units=GPa)
#
#
# Indices 1 2 3 4 5 6 
#
# 1 192.1408 48.5959 77.7723 0.0000 0.0000 0.0000
# 2 48.5959 99.4791 45.6857 0.0000 0.0000 0.0000
# 3 77.7723 45.6857 216.2010 0.0000 0.0000 0.0000
# 4 0.0000 0.0000 0.0000 22.4012 0.0000 0.0000
# 5 0.0000 0.0000 0.0000 0.0000 33.7590 0.0000
# 6 0.0000 0.0000 0.0000 0.0000 0.0000 22.4112
#
#
#
# Elastic Compliance Matrix: (Units=1/GPa)
#
#
# Indices 1 2 3 4 5 6 
#
# 1 0.006551 -0.002346 -0.001861 0.000000 0.000000 0.000000
# 2 -0.002346 0.011973 -0.001686 0.000000 0.000000 0.000000
# 3 -0.001861 -0.001686 0.005651 0.000000 0.000000 0.000000
# 4 0.000000 0.000000 0.000000 0.044640 0.000000 0.000000
# 5 0.000000 0.000000 0.000000 0.000000 0.029622 0.000000
# 6 0.000000 0.000000 0.000000 0.000000 0.000000 0.044621
#
#
# Mechanical properties :
#
#
# Convention : Reuss Voigt Hill
#
# Bulk Modulus (GPa) = 80.71480 94.65875 87.68678
# Shear Modulus (GPa) = 31.45198 38.09874 34.77536
#
# Velocity S-wave (km/s) = 3.72076 4.09509 3.91241
# Velocity P-wave (km/s) = 7.34756 8.00158 7.68153
#
# Compressibility (1/GPa) = 0.01238930
#
# Stress axis : x y z
#
# Youngs Moduli (GPa) = 152.64894 83.52431 176.95872
#
# Poissons Ratio (x) = 0.19591 0.32930
# Poissons Ratio (y) = 0.35805 0.29838
# Poissons Ratio (z) = 0.28406 0.14084
#
# Static dielectric constant tensor:
#      x y z
#    x 2.003010 0.000000 0.000000 
#    y 0.000000 1.906530 0.000000 
#    z 0.000000 0.000000 1.913860 
# 
# From -- ./inp_files/2837.got.cif
#   From: 2010.05.17/outbox.cif.g08.bks.cpg/sg21_2_cif.got.tgz:2837.got - 2010.06.03 23:14:55.
