data_PCOD9322910
_publ_section_title
;
Structure prediction by ZEFSAII (Michael W. Deem and Ramdas Pophale) SiO2 
 PCOD9322910
Probable space group: C 2 2 2
;
_chemical_formula_sum "Si O2"
_cell_formula_units_Z 40
_cell_length_a 14.714855
_cell_length_b 15.224865
_cell_length_c 8.013482
_cell_angle_alpha 90.000000
_cell_angle_beta 90.000000
_cell_angle_gamma 90.000000
_cell_volume 1795.273842
_symmetry_space_group_name_H-M "C 2 2 2"
_symmetry_group_IT_number 21
_symmetry_cell_setting 'orthorhombic'
loop_
_space_group_symop_operation_xyz
x,y,z
-x,-y,z
x,-y,-z
-x,y,-z
1/2+x,1/2+y,z
1/2-x,1/2-y,z
1/2+x,1/2-y,-z
1/2-x,1/2+y,-z
loop_
_atom_site_type_symbol
_atom_site_label
_atom_site_fract_x
_atom_site_fract_y
_atom_site_fract_z
Si Si1 0.182408 0.826779 0.709382
Si Si2 0.023988 0.405085 0.198690
Si Si3 0.791038 0.156062 0.317017
Si Si4 0.788970 0.475982 0.814917
Si Si5 0.980881 0.217526 0.199058
O O1 0.250000 0.750000 0.773147
O O2 0.206045 0.842778 0.516736
O O3 0.200857 0.915494 0.810939
O O4 0.076437 0.807278 0.720041
O O5 0.131210 0.408416 0.240464
O O6 0.970216 0.319488 0.257711
O O7 0.000000 0.500000 0.269391
O O8 0.000000 0.406349 0.000000
O O9 0.750000 0.250000 0.258686
O O10 0.894212 0.159526 0.246891
O O11 0.734270 0.069083 0.268755
O O12 0.817812 0.500000 0.000000
O O13 0.000000 0.216485 0.000000
#
# Coordination Sequence:
#
# PCOD9322910 Si02
#       5
#     8   8   8   8   8
#     4  11  24  45  66  95 142 184 224 278 342 416
#     4  10  19  35  63 100 133 163 216 284 339 390
#     4  11  26  43  66  97 142 184 226 271 346 416
#     4  12  23  40  70 101 133 174 229 285 337 394
#     4  11  23  41  69  98 133 178 231 284 338 400
#
# _framework density 22.280723999999999
#
# number of rings (size 3 to 8) (size 9 to 14) (size 15 to 20)
#    0.000    1.000    4.000    3.600    2.800    2.400 
#    0.000    4.000    0.000    0.000    0.000    0.000 
#    0.000    0.000    0.000    0.000    0.000    0.000 
#
# Total GULP energy -111548.127410 kJ/mol
# GULP energy per Si atom -5577.406370 kJ/mol
# Density = 2.223001 g / cm^3
# Si number density = 22.280724 Si / 1000 Ang^3
#
#
#
# Elastic Constant Matrix: (Units=GPa)
#
#
# Indices 1 2 3 4 5 6 
#
# 1 106.9696 30.3993 5.9726 0.0000 0.0000 0.0000
# 2 30.3993 97.3733 6.6656 0.0000 0.0000 0.0000
# 3 5.9726 6.6656 28.6207 0.0000 0.0000 0.0000
# 4 0.0000 0.0000 0.0000 9.5056 0.0000 0.0000
# 5 0.0000 0.0000 0.0000 0.0000 19.0967 0.0000
# 6 0.0000 0.0000 0.0000 0.0000 0.0000 -66.7547
#
#
#
# Elastic Compliance Matrix: (Units=1/GPa)
#
#
# Indices 1 2 3 4 5 6 
#
# 1 0.010316 -0.003123 -0.001425 0.000000 0.000000 0.000000
# 2 -0.003123 0.011382 -0.001999 0.000000 0.000000 0.000000
# 3 -0.001425 -0.001999 0.035703 0.000000 0.000000 0.000000
# 4 0.000000 0.000000 0.000000 0.105201 0.000000 0.000000
# 5 0.000000 0.000000 0.000000 0.000000 0.052365 0.000000
# 6 0.000000 0.000000 0.000000 0.000000 0.000000 -0.014980
#
#
# Mechanical properties :
#
#
# Convention : Reuss Voigt Hill
#
# Bulk Modulus (GPa) = 22.57067 35.44874 29.00971
# Shear Modulus (GPa) = 21.94440 5.03126 13.48783
#
# Velocity S-wave (km/s) = 3.14172 1.50434 2.46307
# Velocity P-wave (km/s) = 4.82832 4.35453 4.59754
#
# Compressibility (1/GPa) = 0.04430528
#
# Stress axis : x y z
#
# Youngs Moduli (GPa) = 96.94146 87.86159 28.00907
#
# Poissons Ratio (x) = 0.27438 0.03992
# Poissons Ratio (y) = 0.30273 0.05599
# Poissons Ratio (z) = 0.13818 0.17564
#
# Static dielectric constant tensor:
#      x y z
#    x 2.247400 0.000000 0.000000 
#    y 0.000000 1.870440 0.000000 
#    z 0.000000 0.000000 2.069610 
# 
# From -- ./inp_files/14520.got.cif
#   From: 2010.05.17/outbox.cif.g08.bks.cpg/sg21_8_cif.got.tgz:14520.got - 2010.06.03 23:14:55.
