data_PCOD9322732
_publ_section_title
;
Structure prediction by ZEFSAII (Michael W. Deem and Ramdas Pophale) SiO2 
 PCOD9322732
Probable space group: C 2 2 2
;
_chemical_formula_sum "Si O2"
_cell_formula_units_Z 44
_cell_length_a 15.299184
_cell_length_b 27.495579
_cell_length_c 5.440245
_cell_angle_alpha 90.000000
_cell_angle_beta 90.000000
_cell_angle_gamma 90.000000
_cell_volume 2288.493039
_symmetry_space_group_name_H-M "C 2 2 2"
_symmetry_group_IT_number 21
_symmetry_cell_setting 'orthorhombic'
loop_
_space_group_symop_operation_xyz
x,y,z
-x,-y,z
x,-y,-z
-x,y,-z
1/2+x,1/2+y,z
1/2-x,1/2-y,z
1/2+x,1/2-y,-z
1/2-x,1/2+y,-z
loop_
_atom_site_type_symbol
_atom_site_label
_atom_site_fract_x
_atom_site_fract_y
_atom_site_fract_z
Si Si1 0.732383 0.115166 0.001583
Si Si2 0.065203 0.332396 0.178974
Si Si3 0.198537 0.444055 0.502796
Si Si4 0.165619 0.212144 0.983082
Si Si5 0.000000 0.584237 0.500000
Si Si6 0.143461 0.250710 0.481761
O O1 0.728190 0.082804 0.246958
O O2 0.806292 0.156135 0.027786
O O3 0.646880 0.149069 0.976598
O O4 0.729625 0.084063 0.746234
O O5 0.013632 0.379360 0.273276
O O6 0.104175 0.303145 0.411387
O O7 0.000000 0.304376 0.000000
O O8 0.227509 0.500000 0.500000
O O9 0.091948 0.443251 0.513074
O O10 0.250000 0.250000 0.993872
O O11 0.115989 0.228415 0.738783
O O12 0.119357 0.220033 0.242166
O O13 0.250000 0.250000 0.492452
#
# Coordination Sequence:
#
# PCOD9322732 Si02
#       6
#     8   8   8   8   4   8
#     4  11  21  36  53  73  96 134 178 234 271 313
#     4  11  21  33  49  76 101 140 177 231 269 311
#     4  11  23  37  51  70  98 137 185 234 278 305
#     4  10  19  32  51  73  96 120 168 226 267 320
#     4  10  23  32  50  66 102 138 188 228 273 304
#     4  10  20  30  50  71 100 123 170 223 265 314
#
# _framework density 19.226626
#
# number of rings (size 3 to 8) (size 9 to 14) (size 15 to 20)
#    0.000    1.455    5.455    1.909   10.182    0.000 
#    0.000    1.818    0.000    0.000    0.000    0.000 
#    0.000    0.000    0.000    0.000    0.000   25.455 
#
# Total GULP energy -122656.959304 kJ/mol
# GULP energy per Si atom -5575.316332 kJ/mol
# Density = 1.918287 g / cm^3
# Si number density = 19.226626 Si / 1000 Ang^3
#
#
#
# Elastic Constant Matrix: (Units=GPa)
#
#
# Indices 1 2 3 4 5 6 
#
# 1 17.5214 23.2863 18.6948 0.0000 0.0000 0.0000
# 2 23.2863 128.8665 62.6929 0.0000 0.0000 0.0000
# 3 18.6948 62.6929 170.2865 0.0000 0.0000 0.0000
# 4 0.0000 0.0000 0.0000 30.9731 0.0000 0.0000
# 5 0.0000 0.0000 0.0000 0.0000 121.3480 0.0000
# 6 0.0000 0.0000 0.0000 0.0000 0.0000 22.1030
#
#
#
# Elastic Compliance Matrix: (Units=1/GPa)
#
#
# Indices 1 2 3 4 5 6 
#
# 1 0.077367 -0.011997 -0.004077 0.000000 0.000000 0.000000
# 2 -0.011997 0.011313 -0.002848 0.000000 0.000000 0.000000
# 3 -0.004077 -0.002848 0.007369 0.000000 0.000000 0.000000
# 4 0.000000 0.000000 0.000000 0.032286 0.000000 0.000000
# 5 0.000000 0.000000 0.000000 0.000000 0.008241 0.000000
# 6 0.000000 0.000000 0.000000 0.000000 0.000000 0.045243
#
#
# Mechanical properties :
#
#
# Convention : Reuss Voigt Hill
#
# Bulk Modulus (GPa) = 17.18052 58.44694 37.81373
# Shear Modulus (GPa) = 20.91484 49.01817 34.96650
#
# Velocity S-wave (km/s) = 3.30177 5.05473 4.26919
# Velocity P-wave (km/s) = 4.84673 8.03318 6.63411
#
# Compressibility (1/GPa) = 0.05820546
#
# Stress axis : x y z
#
# Youngs Moduli (GPa) = 12.92534 88.39073 135.71104
#
# Poissons Ratio (x) = 1.06042 0.55329
# Poissons Ratio (y) = 0.15506 0.38652
# Poissons Ratio (z) = 0.05270 0.25174
#
# Static dielectric constant tensor:
#      x y z
#    x 1.704520 0.000000 0.000000 
#    y 0.000000 1.481910 0.000000 
#    z 0.000000 0.000000 1.737450 
# 
# From -- ./inp_files/4022.got.cif
#   From: 2010.05.17/outbox.cif.g08.bks.cpg/sg21_3_cif.got.tgz:4022.got - 2010.06.03 23:14:55.
