data_PCOD9322652
_publ_section_title
;
Structure prediction by ZEFSAII (Michael W. Deem and Ramdas Pophale) SiO2 
 PCOD9322652
Probable space group: C 2 2 2
;
_chemical_formula_sum "Si O2"
_cell_formula_units_Z 46
_cell_length_a 22.941849
_cell_length_b 19.116001
_cell_length_c 6.308066
_cell_angle_alpha 90.000000
_cell_angle_beta 90.000000
_cell_angle_gamma 90.000000
_cell_volume 2766.442769
_symmetry_space_group_name_H-M "C 2 2 2"
_symmetry_group_IT_number 21
_symmetry_cell_setting 'orthorhombic'
loop_
_space_group_symop_operation_xyz
x,y,z
-x,-y,z
x,-y,-z
-x,y,-z
1/2+x,1/2+y,z
1/2-x,1/2-y,z
1/2+x,1/2-y,-z
1/2-x,1/2+y,-z
loop_
_atom_site_type_symbol
_atom_site_label
_atom_site_fract_x
_atom_site_fract_y
_atom_site_fract_z
Si Si1 0.812703 0.000000 0.000000
Si Si2 0.931234 0.798775 0.025961
Si Si3 0.738797 0.349120 0.952768
Si Si4 0.844313 0.805291 0.410975
Si Si5 0.000000 0.000000 0.500000
Si Si6 0.833697 0.729987 0.814393
Si Si7 0.102849 0.921023 0.275107
O O1 0.854588 0.017361 0.198716
O O2 0.775178 0.930397 0.029835
O O3 0.898536 0.792274 0.251107
O O4 0.900131 0.740312 0.881535
O O5 0.912641 0.873874 0.929196
O O6 0.000000 0.793207 0.000000
O O7 0.713148 0.324640 0.725555
O O8 0.802170 0.329199 0.045303
O O9 0.699352 0.300759 0.107195
O O10 0.831344 0.738502 0.561492
O O11 0.865816 0.870294 0.555516
O O12 0.956852 0.048050 0.364047
#
# Coordination Sequence:
#
# PCOD9322652 Si02
#       7
#     4   8   8   8   2   8   8
#     4  12  20  37  50  76 115 138 188 236 268 330
#     4  10  20  35  52  73 104 139 185 232 266 322
#     4  10  20  35  54  75 104 141 179 237 268 324
#     4  10  18  39  54  71 108 145 188 223 281 327
#     4  12  24  30  52  68 114 160 196 226 272 308
#     4   9  20  35  51  77  99 141 186 217 282 331
#     4  11  23  34  46  77 106 153 190 220 272 325
#
# _framework density 16.627851
#
# number of rings (size 3 to 8) (size 9 to 14) (size 15 to 20)
#    0.000    1.739    5.217    2.087    2.435    7.652 
#    0.000    0.000    0.000    0.000    0.000    0.609 
#    0.000    0.000    0.000   19.826    0.000    0.348 
#
# Total GULP energy -128063.311684 kJ/mol
# GULP energy per Si atom -5567.970073 kJ/mol
# Density = 1.659001 g / cm^3
# Si number density = 16.627851 Si / 1000 Ang^3
#
#
#
# Elastic Constant Matrix: (Units=GPa)
#
#
# Indices 1 2 3 4 5 6 
#
# 1 88.5742 55.2560 33.5927 0.0000 0.0000 0.0000
# 2 55.2560 77.5976 30.5463 0.0000 0.0000 0.0000
# 3 33.5927 30.5463 96.1969 0.0000 0.0000 0.0000
# 4 0.0000 0.0000 0.0000 22.4414 0.0000 0.0000
# 5 0.0000 0.0000 0.0000 0.0000 16.8622 0.0000
# 6 0.0000 0.0000 0.0000 0.0000 0.0000 31.8668
#
#
#
# Elastic Compliance Matrix: (Units=1/GPa)
#
#
# Indices 1 2 3 4 5 6 
#
# 1 0.021025 -0.013808 -0.002958 0.000000 0.000000 0.000000
# 2 -0.013808 0.023795 -0.002734 0.000000 0.000000 0.000000
# 3 -0.002958 -0.002734 0.012296 0.000000 0.000000 0.000000
# 4 0.000000 0.000000 0.000000 0.044561 0.000000 0.000000
# 5 0.000000 0.000000 0.000000 0.000000 0.059304 0.000000
# 6 0.000000 0.000000 0.000000 0.000000 0.000000 0.031381
#
#
# Mechanical properties :
#
#
# Convention : Reuss Voigt Hill
#
# Bulk Modulus (GPa) = 55.19343 55.68432 55.43887
# Shear Modulus (GPa) = 21.06138 23.76566 22.41352
#
# Velocity S-wave (km/s) = 3.56284 3.78467 3.67543
# Velocity P-wave (km/s) = 7.08453 7.25669 7.17113
#
# Compressibility (1/GPa) = 0.01811810
#
# Stress axis : x y z
#
# Youngs Moduli (GPa) = 47.56151 42.02481 81.32408
#
# Poissons Ratio (x) = 0.58026 0.24054
# Poissons Ratio (y) = 0.65671 0.22237
# Poissons Ratio (z) = 0.14068 0.11491
#
# Static dielectric constant tensor:
#      x y z
#    x 1.617680 0.000000 0.000000 
#    y 0.000000 1.568120 0.000000 
#    z 0.000000 0.000000 1.650700 
# 
# From -- ./inp_files/5277.got.cif
#   From: 2010.05.17/outbox.cif.g08.bks.cpg/sg21_3_cif.got.tgz:5277.got - 2010.06.03 23:14:55.
