data_PCOD9322384
_publ_section_title
;
Structure prediction by ZEFSAII (Michael W. Deem and Ramdas Pophale) SiO2 
 PCOD9322384
Probable space group: C 2 2 2
;
_chemical_formula_sum "Si O2"
_cell_formula_units_Z 48
_cell_length_a 14.187890
_cell_length_b 10.496802
_cell_length_c 12.730817
_cell_angle_alpha 90.000000
_cell_angle_beta 90.000000
_cell_angle_gamma 90.000000
_cell_volume 1895.968394
_symmetry_space_group_name_H-M "C 2 2 2"
_symmetry_group_IT_number 21
_symmetry_cell_setting 'orthorhombic'
loop_
_space_group_symop_operation_xyz
x,y,z
-x,-y,z
x,-y,-z
-x,y,-z
1/2+x,1/2+y,z
1/2-x,1/2-y,z
1/2+x,1/2-y,-z
1/2-x,1/2+y,-z
loop_
_atom_site_type_symbol
_atom_site_label
_atom_site_fract_x
_atom_site_fract_y
_atom_site_fract_z
Si Si1 0.658030 0.820140 0.837196
Si Si2 0.468703 0.333450 0.113894
Si Si3 0.615437 0.785327 0.385019
Si Si4 0.614564 0.235136 0.381143
Si Si5 0.105837 0.983055 0.686127
Si Si6 0.101256 0.426153 0.174550
O O1 0.750000 0.750000 0.873952
O O2 0.567253 0.727363 0.843951
O O3 0.657431 0.846278 0.712271
O O4 0.657247 0.962002 0.881411
O O5 0.416458 0.432560 0.192829
O O6 0.407800 0.203316 0.107874
O O7 0.500000 0.376357 0.000000
O O8 0.500035 0.776204 0.379068
O O9 0.642120 0.813618 0.504030
O O10 0.651437 0.641703 0.363704
O O11 0.637265 0.875655 0.287050
O O12 0.644530 0.380138 0.349274
O O13 0.000000 0.000000 0.641900
O O14 0.000000 0.500000 0.187444
#
# Coordination Sequence:
#
# PCOD9322384 Si02
#       6
#     8   8   8   8   8   8
#     4  11  22  37  56  83 128 160 188 259 338 377
#     4  10  20  37  65  88 109 154 219 263 302 382
#     4   9  16  28  56  83 111 146 208 258 280 344
#     4  10  17  30  53  88 113 155 196 255 296 362
#     4   9  15  31  53  86 112 139 197 261 302 337
#     4   9  17  35  55  85 114 152 210 257 294 359
#
# _framework density 25.316877000000002
#
# number of rings (size 3 to 8) (size 9 to 14) (size 15 to 20)
#    0.000    2.333    6.667    0.500    0.000    6.000 
#    0.000    0.000   14.667    2.000    0.000    0.000 
#    0.000    0.000    0.000    0.000    0.000    0.000 
#
# Total GULP energy -133758.507423 kJ/mol
# GULP energy per Si atom -5573.271143 kJ/mol
# Density = 2.525925 g / cm^3
# Si number density = 25.316877 Si / 1000 Ang^3
#
#
#
# Elastic Constant Matrix: (Units=GPa)
#
#
# Indices 1 2 3 4 5 6 
#
# 1 59.8958 2.2943 -2.5111 0.0000 0.0000 0.0000
# 2 2.2943 160.9732 25.9246 0.0000 0.0000 0.0000
# 3 -2.5111 25.9246 129.7994 0.0000 0.0000 0.0000
# 4 0.0000 0.0000 0.0000 10.5070 0.0000 0.0000
# 5 0.0000 0.0000 0.0000 0.0000 5.2156 0.0000
# 6 0.0000 0.0000 0.0000 0.0000 0.0000 17.3867
#
#
#
# Elastic Compliance Matrix: (Units=1/GPa)
#
#
# Indices 1 2 3 4 5 6 
#
# 1 0.016723 -0.000300 0.000383 0.000000 0.000000 0.000000
# 2 -0.000300 0.006424 -0.001289 0.000000 0.000000 0.000000
# 3 0.000383 -0.001289 0.007969 0.000000 0.000000 0.000000
# 4 0.000000 0.000000 0.000000 0.095175 0.000000 0.000000
# 5 0.000000 0.000000 0.000000 0.000000 0.191732 0.000000
# 6 0.000000 0.000000 0.000000 0.000000 0.000000 0.057515
#
#
# Mechanical properties :
#
#
# Convention : Reuss Voigt Hill
#
# Bulk Modulus (GPa) = 34.83678 44.67603 39.75640
# Shear Modulus (GPa) = 12.90263 28.28589 20.59426
#
# Velocity S-wave (km/s) = 2.25998 3.34619 2.85522
# Velocity P-wave (km/s) = 4.53874 5.71090 5.15823
#
# Compressibility (1/GPa) = 0.02870529
#
# Stress axis : x y z
#
# Youngs Moduli (GPa) = 59.79706 155.66473 125.48565
#
# Poissons Ratio (x) = 0.04672 -0.04812
# Poissons Ratio (y) = 0.01795 0.16174
# Poissons Ratio (z) = -0.02293 0.20063
#
# Static dielectric constant tensor:
#      x y z
#    x 2.116500 0.000000 0.000000 
#    y 0.000000 2.080180 0.000000 
#    z 0.000000 0.000000 2.111220 
# 
# From -- ./inp_files/32233.got.cif
#   From: 2010.05.17/outbox.cif.g08.bks.cpg/sg21_17_cif.got.tgz:32233.got - 2010.06.03 23:14:55.
