data_PCOD9322800
_publ_section_title
;
Structure prediction by ZEFSAII (Michael W. Deem and Ramdas Pophale) SiO2 
 PCOD9322800
Probable space group: C 2 2 2
;
_chemical_formula_sum "Si O2"
_cell_formula_units_Z 58
_cell_length_a 10.027338
_cell_length_b 24.365954
_cell_length_c 12.850227
_cell_angle_alpha 90.000000
_cell_angle_beta 90.000000
_cell_angle_gamma 90.000000
_cell_volume 3139.640147
_symmetry_space_group_name_H-M "C 2 2 2"
_symmetry_group_IT_number 21
_symmetry_cell_setting 'orthorhombic'
loop_
_space_group_symop_operation_xyz
x,y,z
-x,-y,z
x,-y,-z
-x,y,-z
1/2+x,1/2+y,z
1/2-x,1/2-y,z
1/2+x,1/2-y,-z
1/2-x,1/2+y,-z
loop_
_atom_site_type_symbol
_atom_site_label
_atom_site_fract_x
_atom_site_fract_y
_atom_site_fract_z
Si Si1 0.116928 0.460570 0.261082
Si Si2 0.958689 0.804857 0.110329
Si Si3 0.452096 0.805197 0.187944
Si Si4 0.449156 0.874200 0.391474
Si Si5 0.807599 0.373136 0.907279
Si Si6 0.000000 0.000000 0.500000
Si Si7 0.207433 0.944512 0.346577
Si Si8 0.709882 0.375393 0.132018
O O1 0.186233 0.423262 0.173931
O O2 0.219510 0.498472 0.321681
O O3 0.000000 0.500000 0.215424
O O4 0.042776 0.421831 0.343850
O O5 0.810290 0.828671 0.113919
O O6 0.998635 0.757030 0.188485
O O7 0.059721 0.855524 0.116819
O O8 0.000000 0.778136 0.000000
O O9 0.453690 0.828462 0.303901
O O10 0.554760 0.840735 0.116550
O O11 0.302889 0.821574 0.152234
O O12 0.500000 0.853319 0.500000
O O13 0.305662 0.902467 0.404779
O O14 0.774668 0.395703 0.023222
O O15 0.085580 0.961111 0.421270
O O16 0.202347 0.915806 0.231112
#
# Coordination Sequence:
#
# PCOD9322800 Si02
#       8
#     8   8   8   8   8   2   8   8
#     4   9  19  35  58  85 111 146 185 238 287 337
#     4  10  20  34  55  81 116 153 182 222 280 340
#     4  10  19  33  58  85 110 148 192 232 271 337
#     4   9  18  36  58  81 108 137 185 243 292 322
#     4  10  20  34  57  85 116 148 183 228 281 341
#     4  12  24  36  58  74 104 152 200 234 280 338
#     4  10  22  36  55  79 104 144 190 232 278 338
#     4  10  21  36  54  83 117 149 184 227 283 343
#
# _framework density 18.473454
#
# number of rings (size 3 to 8) (size 9 to 14) (size 15 to 20)
#    0.000    2.207    0.000    3.724    1.931    4.690 
#    0.000    3.448    1.517    4.966    0.000    0.000 
#    0.000    0.000    0.000    0.000    0.000    0.000 
#
# Total GULP energy -161478.595346 kJ/mol
# GULP energy per Si atom -5568.227426 kJ/mol
# Density = 1.843141 g / cm^3
# Si number density = 18.473454 Si / 1000 Ang^3
#
#
#
# Elastic Constant Matrix: (Units=GPa)
#
#
# Indices 1 2 3 4 5 6 
#
# 1 85.7543 19.3956 41.6940 0.0000 0.0000 0.0000
# 2 19.3956 38.7494 12.3789 0.0000 0.0000 0.0000
# 3 41.6940 12.3789 85.0924 0.0000 0.0000 0.0000
# 4 0.0000 0.0000 0.0000 5.5838 0.0000 0.0000
# 5 0.0000 0.0000 0.0000 0.0000 24.5306 0.0000
# 6 0.0000 0.0000 0.0000 0.0000 0.0000 10.1288
#
#
#
# Elastic Compliance Matrix: (Units=1/GPa)
#
#
# Indices 1 2 3 4 5 6 
#
# 1 0.016525 -0.005962 -0.007230 0.000000 0.000000 0.000000
# 2 -0.005962 0.029215 -0.001329 0.000000 0.000000 0.000000
# 3 -0.007230 -0.001329 0.015488 0.000000 0.000000 0.000000
# 4 0.000000 0.000000 0.000000 0.179091 0.000000 0.000000
# 5 0.000000 0.000000 0.000000 0.000000 0.040765 0.000000
# 6 0.000000 0.000000 0.000000 0.000000 0.000000 0.098728
#
#
# Mechanical properties :
#
#
# Convention : Reuss Voigt Hill
#
# Bulk Modulus (GPa) = 31.06818 39.61479 35.34148
# Shear Modulus (GPa) = 11.91663 17.12380 14.52021
#
# Velocity S-wave (km/s) = 2.54257 3.04787 2.80662
# Velocity P-wave (km/s) = 5.04716 5.82038 5.44750
#
# Compressibility (1/GPa) = 0.03218727
#
# Stress axis : x y z
#
# Youngs Moduli (GPa) = 60.51567 34.22844 64.56758
#
# Poissons Ratio (x) = 0.20406 0.46679
# Poissons Ratio (y) = 0.36078 0.08581
# Poissons Ratio (z) = 0.43750 0.04549
#
# Static dielectric constant tensor:
#      x y z
#    x 1.648620 0.000000 0.000000 
#    y 0.000000 1.641140 0.000000 
#    z 0.000000 0.000000 1.682270 
# 
# From -- ./inp_files/22997.got.cif
#   From: 2010.05.17/outbox.cif.g08.bks.cpg/sg21_12_cif.got.tgz:22997.got - 2010.06.03 23:14:55.
