data_PCOD9322865
_publ_section_title
;
Structure prediction by ZEFSAII (Michael W. Deem and Ramdas Pophale) SiO2 
 PCOD9322865
Probable space group: C 2 2 2
;
_chemical_formula_sum "Si O2"
_cell_formula_units_Z 40
_cell_length_a 21.786594
_cell_length_b 17.778794
_cell_length_c 5.502953
_cell_angle_alpha 90.000000
_cell_angle_beta 90.000000
_cell_angle_gamma 90.000000
_cell_volume 2131.510330
_symmetry_space_group_name_H-M "C 2 2 2"
_symmetry_group_IT_number 21
_symmetry_cell_setting 'orthorhombic'
loop_
_space_group_symop_operation_xyz
x,y,z
-x,-y,z
x,-y,-z
-x,y,-z
1/2+x,1/2+y,z
1/2-x,1/2-y,z
1/2+x,1/2-y,-z
1/2-x,1/2+y,-z
loop_
_atom_site_type_symbol
_atom_site_label
_atom_site_fract_x
_atom_site_fract_y
_atom_site_fract_z
Si Si1 0.975021 0.412119 0.746870
Si Si2 0.789895 0.953777 0.254634
Si Si3 0.156602 0.418975 0.092694
Si Si4 0.178910 0.720877 0.216760
Si Si5 0.179228 0.783062 0.720970
O O1 0.902406 0.398355 0.752222
O O2 0.000000 0.500000 0.745579
O O3 0.000000 0.377999 0.500000
O O4 0.000000 0.380410 0.000000
O O5 0.718157 0.930364 0.244346
O O6 0.821883 0.872936 0.278541
O O7 0.801874 0.000000 0.500000
O O8 0.801206 0.000000 0.000000
O O9 0.137682 0.500000 0.000000
O O10 0.173517 0.366010 0.863049
O O11 0.250000 0.750000 0.226094
O O12 0.153200 0.746731 0.474953
O O13 0.150542 0.758599 0.976500
O O14 0.250000 0.750000 0.731417
#
# Coordination Sequence:
#
# PCOD9322865 Si02
#       5
#     8   8   8   8   8
#     4  10  21  37  47  68  99 131 172 242 276 297
#     4  11  23  32  50  74  94 132 182 225 264 321
#     4  11  22  34  54  74  98 139 190 229 273 320
#     4  10  20  34  48  69  97 133 167 228 273 327
#     4  10  19  35  45  65 103 124 164 224 271 315
#
# _framework density 18.766036
#
# number of rings (size 3 to 8) (size 9 to 14) (size 15 to 20)
#    0.000    1.600    6.000    1.200   11.200    1.600 
#    0.000    0.000    0.000    0.000    0.000    0.000 
#    0.000    0.000    0.000    0.000    0.000   39.000 
#
# Total GULP energy -111359.330206 kJ/mol
# GULP energy per Si atom -5567.966510 kJ/mol
# Density = 1.872332 g / cm^3
# Si number density = 18.766036 Si / 1000 Ang^3
#
#
#
# Elastic Constant Matrix: (Units=GPa)
#
#
# Indices 1 2 3 4 5 6 
#
# 1 16.5340 11.9816 12.8657 0.0000 0.0000 0.0000
# 2 11.9816 119.2517 52.0333 0.0000 0.0000 0.0000
# 3 12.8657 52.0333 169.9801 0.0000 0.0000 0.0000
# 4 0.0000 0.0000 0.0000 100.8289 0.0000 0.0000
# 5 0.0000 0.0000 0.0000 0.0000 17.0774 0.0000
# 6 0.0000 0.0000 0.0000 0.0000 0.0000 7.0456
#
#
#
# Elastic Compliance Matrix: (Units=1/GPa)
#
#
# Indices 1 2 3 4 5 6 
#
# 1 0.066961 -0.005213 -0.003473 0.000000 0.000000 0.000000
# 2 -0.005213 0.010084 -0.002692 0.000000 0.000000 0.000000
# 3 -0.003473 -0.002692 0.006970 0.000000 0.000000 0.000000
# 4 0.000000 0.000000 0.000000 0.009918 0.000000 0.000000
# 5 0.000000 0.000000 0.000000 0.000000 0.058557 0.000000
# 6 0.000000 0.000000 0.000000 0.000000 0.000000 0.141932
#
#
# Mechanical properties :
#
#
# Convention : Reuss Voigt Hill
#
# Bulk Modulus (GPa) = 16.32388 51.05857 33.69122
# Shear Modulus (GPa) = 14.81056 40.24940 27.52998
#
# Velocity S-wave (km/s) = 2.81236 4.63622 3.83431
# Velocity P-wave (km/s) = 4.38900 7.47840 6.13147
#
# Compressibility (1/GPa) = 0.06125996
#
# Stress axis : x y z
#
# Youngs Moduli (GPa) = 14.93410 99.16596 143.47115
#
# Poissons Ratio (x) = 0.51691 0.49821
# Poissons Ratio (y) = 0.07785 0.38627
# Poissons Ratio (z) = 0.05186 0.26699
#
# Static dielectric constant tensor:
#      x y z
#    x 1.653090 0.000000 0.000000 
#    y 0.000000 1.728650 0.000000 
#    z 0.000000 0.000000 1.731860 
# 
# From -- ./inp_files/3971.got.cif
#   From: 2010.05.17/outbox.cif.g08.bks.cpg/sg21_2_cif.got.tgz:3971.got - 2010.06.03 23:14:55.
