data_PCOD9322859
_publ_section_title
;
Structure prediction by ZEFSAII (Michael W. Deem and Ramdas Pophale) SiO2 
 PCOD9322859
Probable space group: C 2 2 2
;
_chemical_formula_sum "Si O2"
_cell_formula_units_Z 52
_cell_length_a 21.355599
_cell_length_b 21.408315
_cell_length_c 5.414049
_cell_angle_alpha 90.000000
_cell_angle_beta 90.000000
_cell_angle_gamma 90.000000
_cell_volume 2475.234934
_symmetry_space_group_name_H-M "C 2 2 2"
_symmetry_group_IT_number 21
_symmetry_cell_setting 'orthorhombic'
loop_
_space_group_symop_operation_xyz
x,y,z
-x,-y,z
x,-y,-z
-x,y,-z
1/2+x,1/2+y,z
1/2-x,1/2-y,z
1/2+x,1/2-y,-z
1/2-x,1/2+y,-z
loop_
_atom_site_type_symbol
_atom_site_label
_atom_site_fract_x
_atom_site_fract_y
_atom_site_fract_z
Si Si1 0.435661 0.730457 0.239734
Si Si2 0.716388 0.000000 0.500000
Si Si3 0.463731 0.585165 0.248699
Si Si4 0.322675 0.560164 0.177260
Si Si5 0.760093 0.324489 0.112077
Si Si6 0.574578 0.220297 0.732749
Si Si7 0.171172 0.628682 0.617022
O O1 0.457579 0.659822 0.220381
O O2 0.402303 0.737848 0.502230
O O3 0.499766 0.771207 0.254236
O O4 0.401555 0.754371 0.995618
O O5 0.764912 0.041046 0.346129
O O6 0.676524 0.053681 0.631286
O O7 0.500000 0.571228 0.500000
O O8 0.392935 0.561989 0.276236
O O9 0.500000 0.564857 0.000000
O O10 0.302594 0.631019 0.104009
O O11 0.323808 0.500000 0.000000
O O12 0.750000 0.250000 0.128288
O O13 0.801383 0.345499 0.354429
O O14 0.791656 0.342295 0.849792
O O15 0.600911 0.153117 0.662715
#
# Coordination Sequence:
#
# PCOD9322859 Si02
#       7
#     8   4   8   8   8   8   8
#     4  10  19  38  58  95 140 159 207 260 349 381
#     4  10  24  50  63  93 130 188 228 274 330 414
#     4  12  25  42  66  96 125 178 226 270 316 402
#     4  11  26  47  68  89 140 184 220 283 337 393
#     4  11  25  41  64 101 127 168 226 288 334 400
#     4  10  19  34  62  92 129 169 197 271 326 395
#     4  11  23  40  69  91 132 171 229 267 345 396
#
# _framework density 21.008108
#
# number of rings (size 3 to 8) (size 9 to 14) (size 15 to 20)
#    0.000    1.231    4.615    1.385    6.462    0.308 
#    0.000    0.000    0.000    1.846    0.000    4.308 
#    0.000    0.000    0.000    0.000    0.000    0.000 
#
# Total GULP energy -144882.908635 kJ/mol
# GULP energy per Si atom -5572.419563 kJ/mol
# Density = 2.096029 g / cm^3
# Si number density = 21.008108 Si / 1000 Ang^3
#
#
#
# Elastic Constant Matrix: (Units=GPa)
#
#
# Indices 1 2 3 4 5 6 
#
# 1 69.9057 55.3645 13.6440 0.0000 0.0000 0.0000
# 2 55.3645 154.6020 30.6934 0.0000 0.0000 0.0000
# 3 13.6440 30.6934 151.2885 0.0000 0.0000 0.0000
# 4 0.0000 0.0000 0.0000 42.8162 0.0000 0.0000
# 5 0.0000 0.0000 0.0000 0.0000 18.7954 0.0000
# 6 0.0000 0.0000 0.0000 0.0000 0.0000 18.9855
#
#
#
# Elastic Compliance Matrix: (Units=1/GPa)
#
#
# Indices 1 2 3 4 5 6 
#
# 1 0.019988 -0.007085 -0.000365 0.000000 0.000000 0.000000
# 2 -0.007085 0.009251 -0.001238 0.000000 0.000000 0.000000
# 3 -0.000365 -0.001238 0.006894 0.000000 0.000000 0.000000
# 4 0.000000 0.000000 0.000000 0.023356 0.000000 0.000000
# 5 0.000000 0.000000 0.000000 0.000000 0.053204 0.000000
# 6 0.000000 0.000000 0.000000 0.000000 0.000000 0.052672
#
#
# Mechanical properties :
#
#
# Convention : Reuss Voigt Hill
#
# Bulk Modulus (GPa) = 53.31542 63.91110 58.61326
# Shear Modulus (GPa) = 26.45592 34.52572 30.49082
#
# Velocity S-wave (km/s) = 3.55254 4.05834 3.81384
# Velocity P-wave (km/s) = 6.50084 7.24212 6.88147
#
# Compressibility (1/GPa) = 0.01875630
#
# Stress axis : x y z
#
# Youngs Moduli (GPa) = 50.03063 108.09281 145.05444
#
# Poissons Ratio (x) = 0.76587 0.05296
# Poissons Ratio (y) = 0.35448 0.17956
# Poissons Ratio (z) = 0.01827 0.13381
#
# Static dielectric constant tensor:
#      x y z
#    x 1.498630 0.000000 0.000000 
#    y 0.000000 1.853280 0.000000 
#    z 0.000000 0.000000 1.846370 
# 
# From -- ./inp_files/6004.got.cif
#   From: 2010.05.17/outbox.cif.g08.bks.cpg/sg21_4_cif.got.tgz:6004.got - 2010.06.03 23:14:55.
