data_PCOD9322108
_publ_section_title
;
Structure prediction by ZEFSAII (Michael W. Deem and Ramdas Pophale) SiO2 
 PCOD9322108
Probable space group: C 2 2 21
;
_chemical_formula_sum "Si O2"
_cell_formula_units_Z 32
_cell_length_a 19.740206
_cell_length_b 4.956142
_cell_length_c 13.888285
_cell_angle_alpha 90.000000
_cell_angle_beta 90.000000
_cell_angle_gamma 90.000000
_cell_volume 1358.764030
_symmetry_space_group_name_H-M "C 2 2 21"
_symmetry_group_IT_number 20
_symmetry_cell_setting 'orthorhombic'
loop_
_space_group_symop_operation_xyz
x,y,z
-x,-y,1/2+z
x,-y,-z
-x,y,1/2-z
1/2+x,1/2+y,z
1/2-x,1/2-y,1/2+z
1/2+x,1/2-y,-z
1/2-x,1/2+y,1/2-z
loop_
_atom_site_type_symbol
_atom_site_label
_atom_site_fract_x
_atom_site_fract_y
_atom_site_fract_z
Si Si1 0.773580 0.309942 0.194368
Si Si2 0.009934 0.540463 0.360255
Si Si3 0.900066 0.056894 0.103590
Si Si4 0.703078 0.500000 0.000000
Si Si5 0.109484 0.500000 0.000000
O O1 0.772953 0.573295 0.261537
O O2 0.846301 0.172971 0.178399
O O3 0.747085 0.407804 0.090911
O O4 0.044609 0.288819 0.413474
O O5 0.000000 0.459413 0.250000
O O6 0.939331 0.594605 0.413296
O O7 0.060656 0.792890 0.362278
O O8 0.866098 0.000000 0.000000
O O9 0.656117 0.750605 0.030017
#
# Coordination Sequence:
#
# PCOD9322108 Si02
#       5
#     8   8   8   4   4
#     4  12  30  50  77 114 150 204 255 310 382 448
#     4  12  27  47  76 110 145 200 247 308 375 440
#     4  12  26  50  76 105 152 196 256 308 362 448
#     4  12  30  49  76 111 158 198 246 318 380 452
#     4  12  26  49  74 111 156 194 244 306 384 450
#
# _framework density 23.550813999999999
#
# number of rings (size 3 to 8) (size 9 to 14) (size 15 to 20)
#    0.000    0.000    2.500    5.250   19.250    0.000 
#    0.000    0.000    0.000    0.000    0.000    0.000 
#    0.000    0.000    0.000    0.000    0.000    0.000 
#
# Total GULP energy -89748.751566 kJ/mol
# GULP energy per Si atom -5609.296973 kJ/mol
# Density = 2.349721 g / cm^3
# Si number density = 23.550814 Si / 1000 Ang^3
#
#
#
# Elastic Constant Matrix: (Units=GPa)
#
#
# Indices 1 2 3 4 5 6 
#
# 1 55.8937 19.6484 19.8686 0.0000 0.0000 0.0000
# 2 19.6484 135.1150 30.0047 0.0000 0.0000 0.0000
# 3 19.8686 30.0047 109.6845 0.0000 0.0000 0.0000
# 4 0.0000 0.0000 0.0000 46.4290 0.0000 0.0000
# 5 0.0000 0.0000 0.0000 0.0000 6.8175 0.0000
# 6 0.0000 0.0000 0.0000 0.0000 0.0000 81.3967
#
#
#
# Elastic Compliance Matrix: (Units=1/GPa)
#
#
# Indices 1 2 3 4 5 6 
#
# 1 0.019723 -0.002209 -0.002968 0.000000 0.000000 0.000000
# 2 -0.002209 0.008127 -0.001823 0.000000 0.000000 0.000000
# 3 -0.002968 -0.001823 0.010153 0.000000 0.000000 0.000000
# 4 0.000000 0.000000 0.000000 0.021538 0.000000 0.000000
# 5 0.000000 0.000000 0.000000 0.000000 0.146682 0.000000
# 6 0.000000 0.000000 0.000000 0.000000 0.000000 0.012286
#
#
# Mechanical properties :
#
#
# Convention : Reuss Voigt Hill
#
# Bulk Modulus (GPa) = 41.66206 48.85961 45.26084
# Shear Modulus (GPa) = 20.78906 42.34006 31.56456
#
# Velocity S-wave (km/s) = 2.97430 4.24467 3.66495
# Velocity P-wave (km/s) = 5.43360 6.69436 6.09666
#
# Compressibility (1/GPa) = 0.02400265
#
# Stress axis : x y z
#
# Youngs Moduli (GPa) = 50.70283 123.04405 98.48848
#
# Poissons Ratio (x) = 0.27179 0.29235
# Poissons Ratio (y) = 0.11200 0.17955
# Poissons Ratio (z) = 0.15051 0.22432
#
# Static dielectric constant tensor:
#      x y z
#    x 1.867850 0.000000 0.000000 
#    y 0.000000 1.840270 0.000000 
#    z 0.000000 0.000000 1.799090 
# 
# From -- ./inp_files/17499.got.cif
#   From: 2010.05.17/outbox.cif.g08.bks.cpg/sg20_9_cif.got.tgz:17499.got - 2010.06.03 22:52:26.
