data_PCOD9322456
_publ_section_title
;
Structure prediction by ZEFSAII (Michael W. Deem and Ramdas Pophale) SiO2 
 PCOD9322456
Probable space group: C 2 2 2
;
_chemical_formula_sum "Si O2"
_cell_formula_units_Z 40
_cell_length_a 19.809501
_cell_length_b 20.610730
_cell_length_c 5.259552
_cell_angle_alpha 90.000000
_cell_angle_beta 90.000000
_cell_angle_gamma 90.000000
_cell_volume 2147.413421
_symmetry_space_group_name_H-M "C 2 2 2"
_symmetry_group_IT_number 21
_symmetry_cell_setting 'orthorhombic'
loop_
_space_group_symop_operation_xyz
x,y,z
-x,-y,z
x,-y,-z
-x,y,-z
1/2+x,1/2+y,z
1/2-x,1/2-y,z
1/2+x,1/2-y,-z
1/2-x,1/2+y,-z
loop_
_atom_site_type_symbol
_atom_site_label
_atom_site_fract_x
_atom_site_fract_y
_atom_site_fract_z
Si Si1 0.193401 0.654311 0.471501
Si Si2 0.345389 0.298753 0.432834
Si Si3 0.924787 0.910642 0.588189
Si Si4 0.803890 0.573545 0.023437
Si Si5 0.147632 0.908682 0.910617
O O1 0.273744 0.672308 0.466522
O O2 0.157712 0.722440 0.534643
O O3 0.174440 0.620134 0.207807
O O4 0.181231 0.605508 0.704620
O O5 0.407278 0.333600 0.573166
O O6 0.350162 0.330704 0.150211
O O7 0.000000 0.924173 0.500000
O O8 0.124479 0.935726 0.636597
O O9 0.904360 0.928155 0.871718
O O10 0.829244 0.500000 0.000000
O O11 0.722083 0.571419 0.011148
#
# Coordination Sequence:
#
# PCOD9322456 Si02
#       5
#     8   8   8   8   8
#     4  10  19  30  48  70  94 120 157 194 238 289
#     4   8  19  28  50  70  95 117 154 191 248 283
#     4  10  18  30  48  70  95 122 155 193 242 283
#     4  11  20  32  47  67  95 130 163 191 232 277
#     4   9  18  32  45  69  90 130 153 194 239 275
#
# _framework density 18.627058999999999
#
# number of rings (size 3 to 8) (size 9 to 14) (size 15 to 20)
#    1.200    1.200    2.000    1.200    2.800    1.600 
#    0.000    0.000    0.000    3.600    0.000    0.000 
#    0.000    4.800    0.000    0.000    0.000    0.000 
#
# Total GULP energy -111344.996668 kJ/mol
# GULP energy per Si atom -5567.249833 kJ/mol
# Density = 1.858466 g / cm^3
# Si number density = 18.627059 Si / 1000 Ang^3
#
#
#
# Elastic Constant Matrix: (Units=GPa)
#
#
# Indices 1 2 3 4 5 6 
#
# 1 21.0801 9.0630 5.9587 0.0000 0.0000 0.0000
# 2 9.0630 125.0375 28.2178 0.0000 0.0000 0.0000
# 3 5.9587 28.2178 103.3316 0.0000 0.0000 0.0000
# 4 0.0000 0.0000 0.0000 23.3748 0.0000 0.0000
# 5 0.0000 0.0000 0.0000 0.0000 16.3945 0.0000
# 6 0.0000 0.0000 0.0000 0.0000 0.0000 -10.5734
#
#
#
# Elastic Compliance Matrix: (Units=1/GPa)
#
#
# Indices 1 2 3 4 5 6 
#
# 1 0.049346 -0.003127 -0.001992 0.000000 0.000000 0.000000
# 2 -0.003127 0.008721 -0.002201 0.000000 0.000000 0.000000
# 3 -0.001992 -0.002201 0.010394 0.000000 0.000000 0.000000
# 4 0.000000 0.000000 0.000000 0.042781 0.000000 0.000000
# 5 0.000000 0.000000 0.000000 0.000000 0.060996 0.000000
# 6 0.000000 0.000000 0.000000 0.000000 0.000000 -0.094577
#
#
# Mechanical properties :
#
#
# Convention : Reuss Voigt Hill
#
# Bulk Modulus (GPa) = 18.58041 37.32534 27.95288
# Shear Modulus (GPa) = 45.35548 19.58649 32.47099
#
# Velocity S-wave (km/s) = 4.93985 3.24621 4.17971
# Velocity P-wave (km/s) = 6.52171 5.84228 6.19133
#
# Compressibility (1/GPa) = 0.05382012
#
# Stress axis : x y z
#
# Youngs Moduli (GPa) = 20.26524 114.66548 96.21364
#
# Poissons Ratio (x) = 0.35858 0.19162
# Poissons Ratio (y) = 0.06337 0.21179
# Poissons Ratio (z) = 0.04036 0.25240
#
# Static dielectric constant tensor:
#      x y z
#    x 1.623450 0.000000 0.000000 
#    y 0.000000 1.722810 0.000000 
#    z 0.000000 0.000000 1.672710 
# 
# From -- ./inp_files/5813.got.cif
#   From: 2010.05.17/outbox.cif.g08.bks.cpg/sg21_3_cif.got.tgz:5813.got - 2010.06.03 23:14:55.
