data_PCOD9322471
_publ_section_title
;
Structure prediction by ZEFSAII (Michael W. Deem and Ramdas Pophale) SiO2 
 PCOD9322471
Probable space group: C 2 2 2
;
_chemical_formula_sum "Si O2"
_cell_formula_units_Z 48
_cell_length_a 9.244906
_cell_length_b 15.134454
_cell_length_c 16.983902
_cell_angle_alpha 90.000000
_cell_angle_beta 90.000000
_cell_angle_gamma 90.000000
_cell_volume 2376.329901
_symmetry_space_group_name_H-M "C 2 2 2"
_symmetry_group_IT_number 21
_symmetry_cell_setting 'orthorhombic'
loop_
_space_group_symop_operation_xyz
x,y,z
-x,-y,z
x,-y,-z
-x,y,-z
1/2+x,1/2+y,z
1/2-x,1/2-y,z
1/2+x,1/2-y,-z
1/2-x,1/2+y,-z
loop_
_atom_site_type_symbol
_atom_site_label
_atom_site_fract_x
_atom_site_fract_y
_atom_site_fract_z
Si Si1 0.432949 0.179959 0.676048
Si Si2 0.333107 0.968006 0.414665
Si Si3 0.095432 0.703808 0.077123
Si Si4 0.773450 0.403663 0.719152
Si Si5 0.971903 0.832059 0.779685
Si Si6 0.197058 0.438544 0.815323
O O1 0.355081 0.136830 0.600310
O O2 0.606401 0.161340 0.682022
O O3 0.405861 0.279056 0.704654
O O4 0.374442 0.116988 0.745000
O O5 0.500000 0.000000 0.405109
O O6 0.283774 0.000000 0.500000
O O7 0.246106 0.021612 0.347995
O O8 0.250000 0.750000 0.062904
O O9 0.025520 0.761316 0.148624
O O10 0.131977 0.605170 0.107026
O O11 0.000000 0.705633 0.000000
O O12 0.628306 0.360629 0.750739
O O13 0.830059 0.460220 0.794287
O O14 0.866619 0.910830 0.807703
#
# Coordination Sequence:
#
# PCOD9322471 Si02
#       6
#     8   8   8   8   8   8
#     4   9  17  30  51  76  98 130 177 212 246 306
#     4   8  15  29  50  72 102 141 175 210 257 307
#     4   9  19  34  53  75 103 138 173 210 261 317
#     4  10  18  30  54  81 101 130 177 221 255 304
#     4  10  19  32  53  78 104 133 170 217 265 310
#     4   9  18  33  52  74 100 134 171 206 258 319
#
# _framework density 20.199216
#
# number of rings (size 3 to 8) (size 9 to 14) (size 15 to 20)
#    0.000    2.833    0.000    4.000    0.000    2.667 
#    0.000    0.000    0.000   72.000    0.000    0.000 
#    0.000    0.000    0.000    0.000    0.000    0.000 
#
# Total GULP energy -133636.085592 kJ/mol
# GULP energy per Si atom -5568.170233 kJ/mol
# Density = 2.015324 g / cm^3
# Si number density = 20.199216 Si / 1000 Ang^3
#
#
#
# Elastic Constant Matrix: (Units=GPa)
#
#
# Indices 1 2 3 4 5 6 
#
# 1 89.6773 22.2072 40.4817 0.0000 0.0000 0.0000
# 2 22.2072 61.0208 30.6485 0.0000 0.0000 0.0000
# 3 40.4817 30.6485 107.4091 0.0000 0.0000 0.0000
# 4 0.0000 0.0000 0.0000 20.2899 0.0000 0.0000
# 5 0.0000 0.0000 0.0000 0.0000 24.4464 0.0000
# 6 0.0000 0.0000 0.0000 0.0000 0.0000 21.3254
#
#
#
# Elastic Compliance Matrix: (Units=1/GPa)
#
#
# Indices 1 2 3 4 5 6 
#
# 1 0.013841 -0.002821 -0.004412 0.000000 0.000000 0.000000
# 2 -0.002821 0.019705 -0.004559 0.000000 0.000000 0.000000
# 3 -0.004412 -0.004559 0.012274 0.000000 0.000000 0.000000
# 4 0.000000 0.000000 0.000000 0.049286 0.000000 0.000000
# 5 0.000000 0.000000 0.000000 0.000000 0.040906 0.000000
# 6 0.000000 0.000000 0.000000 0.000000 0.000000 0.046893
#
#
# Mechanical properties :
#
#
# Convention : Reuss Voigt Hill
#
# Bulk Modulus (GPa) = 44.97374 49.42024 47.19699
# Shear Modulus (GPa) = 23.37545 24.19699 23.78622
#
# Velocity S-wave (km/s) = 3.40552 3.46485 3.43531
# Velocity P-wave (km/s) = 6.14629 6.36604 6.25713
#
# Compressibility (1/GPa) = 0.02223520
#
# Stress axis : x y z
#
# Youngs Moduli (GPa) = 72.24789 50.74964 81.47421
#
# Poissons Ratio (x) = 0.14319 0.35943
# Poissons Ratio (y) = 0.20384 0.37146
# Poissons Ratio (z) = 0.31873 0.23138
#
# Static dielectric constant tensor:
#      x y z
#    x 1.784880 0.000000 0.000000 
#    y 0.000000 1.805300 0.000000 
#    z 0.000000 0.000000 1.747130 
# 
# From -- ./inp_files/35702.got.cif
#   From: 2010.05.17/outbox.cif.g08.bks.cpg/sg21_18_cif.got.tgz:35702.got - 2010.06.03 23:14:55.
