data_PCOD9322940
_publ_section_title
;
Structure prediction by ZEFSAII (Michael W. Deem and Ramdas Pophale) SiO2 
 PCOD9322940
Probable space group: C 2 2 2
;
_chemical_formula_sum "Si O2"
_cell_formula_units_Z 48
_cell_length_a 11.782990
_cell_length_b 15.357562
_cell_length_c 10.519386
_cell_angle_alpha 90.000000
_cell_angle_beta 90.000000
_cell_angle_gamma 90.000000
_cell_volume 1903.567046
_symmetry_space_group_name_H-M "C 2 2 2"
_symmetry_group_IT_number 21
_symmetry_cell_setting 'orthorhombic'
loop_
_space_group_symop_operation_xyz
x,y,z
-x,-y,z
x,-y,-z
-x,y,-z
1/2+x,1/2+y,z
1/2-x,1/2-y,z
1/2+x,1/2-y,-z
1/2-x,1/2+y,-z
loop_
_atom_site_type_symbol
_atom_site_label
_atom_site_fract_x
_atom_site_fract_y
_atom_site_fract_z
Si Si1 0.247045 0.893648 0.524249
Si Si2 0.337321 0.172873 0.825880
Si Si3 0.537745 0.900776 0.329207
Si Si4 0.613957 0.609477 0.230906
Si Si5 0.323296 0.907346 0.933063
Si Si6 0.366869 0.405475 0.733377
O O1 0.377790 0.871324 0.557910
O O2 0.176920 0.855133 0.643949
O O3 0.177589 0.866674 0.399467
O O4 0.249997 0.000000 0.500000
O O5 0.250000 0.250000 0.802303
O O6 0.431989 0.155791 0.721092
O O7 0.244234 0.095702 0.819648
O O8 0.372504 0.166009 0.972034
O O9 0.614994 0.906578 0.202452
O O10 0.500000 0.000000 0.354415
O O11 0.692470 0.614060 0.106479
O O12 0.483156 0.638282 0.218284
O O13 0.610014 0.507976 0.271567
O O14 0.346760 0.000000 0.000000
#
# Coordination Sequence:
#
# PCOD9322940 Si02
#       6
#     8   8   8   8   8   8
#     4   9  18  33  62 100 126 155 218 290 339 385
#     4  12  26  41  58  91 138 177 224 285 353 405
#     4  11  21  38  69  98 125 171 235 294 338 398
#     4   9  18  34  63  95 123 162 213 279 339 401
#     4  11  20  40  65  93 125 173 232 285 333 406
#     4  10  19  36  59  91 132 166 210 266 346 416
#
# _framework density 25.215816
#
# number of rings (size 3 to 8) (size 9 to 14) (size 15 to 20)
#    0.000    1.667    3.333    3.000    0.000    5.000 
#    6.000    0.000    7.333    0.000    0.000    0.000 
#    0.000    0.000    0.000    0.000    0.000    0.000 
#
# Total GULP energy -133856.058370 kJ/mol
# GULP energy per Si atom -5577.335765 kJ/mol
# Density = 2.515842 g / cm^3
# Si number density = 25.215816 Si / 1000 Ang^3
#
#
#
# Elastic Constant Matrix: (Units=GPa)
#
#
# Indices 1 2 3 4 5 6 
#
# 1 158.8451 4.8361 19.4076 0.0000 0.0000 0.0000
# 2 4.8361 45.2267 3.5852 0.0000 0.0000 0.0000
# 3 19.4076 3.5852 115.0401 0.0000 0.0000 0.0000
# 4 0.0000 0.0000 0.0000 7.5951 0.0000 0.0000
# 5 0.0000 0.0000 0.0000 0.0000 6499.9519 0.0000
# 6 0.0000 0.0000 0.0000 0.0000 0.0000 21.3078
#
#
#
# Elastic Compliance Matrix: (Units=1/GPa)
#
#
# Indices 1 2 3 4 5 6 
#
# 1 0.006444 -0.000604 -0.001068 0.000000 0.000000 0.000000
# 2 -0.000604 0.022222 -0.000591 0.000000 0.000000 0.000000
# 3 -0.001068 -0.000591 0.008891 0.000000 0.000000 0.000000
# 4 0.000000 0.000000 0.000000 0.131663 0.000000 0.000000
# 5 0.000000 0.000000 0.000000 0.000000 0.000154 0.000000
# 6 0.000000 0.000000 0.000000 0.000000 0.000000 0.046931
#
#
# Mechanical properties :
#
#
# Convention : Reuss Voigt Hill
#
# Bulk Modulus (GPa) = 30.27438 41.64106 35.95772
# Shear Modulus (GPa) = 21.56631 1325.18983 673.37807
#
# Velocity S-wave (km/s) = 2.92767 22.94951 16.35927
# Velocity P-wave (km/s) = 4.84361 26.81026 19.26461
#
# Compressibility (1/GPa) = 0.03303123
#
# Stress axis : x y z
#
# Youngs Moduli (GPa) = 155.17409 44.99991 112.46996
#
# Poissons Ratio (x) = 0.02720 0.12016
# Poissons Ratio (y) = 0.09379 0.06642
# Poissons Ratio (z) = 0.16578 0.02658
#
# Static dielectric constant tensor:
#      x y z
#    x 2.070380 0.000000 0.000000 
#    y 0.000000 -78.423290 0.000000 
#    z 0.000000 0.000000 2.080030 
# 
# From -- ./inp_files/24194.got.cif
#   From: 2010.05.17/outbox.cif.g08.bks.cpg/sg21_13_cif.got.tgz:24194.got - 2010.06.03 23:14:55.
