data_PCOD9322154
_publ_section_title
;
Structure prediction by ZEFSAII (Michael W. Deem and Ramdas Pophale) SiO2 
 PCOD9322154
Probable space group: C 2 2 21
;
_chemical_formula_sum "Si O2"
_cell_formula_units_Z 20
_cell_length_a 4.429574
_cell_length_b 19.202583
_cell_length_c 7.664289
_cell_angle_alpha 90.000000
_cell_angle_beta 90.000000
_cell_angle_gamma 90.000000
_cell_volume 651.918769
_symmetry_space_group_name_H-M "C 2 2 21"
_symmetry_group_IT_number 20
_symmetry_cell_setting 'orthorhombic'
loop_
_space_group_symop_operation_xyz
x,y,z
-x,-y,1/2+z
x,-y,-z
-x,y,1/2-z
1/2+x,1/2+y,z
1/2-x,1/2-y,1/2+z
1/2+x,1/2-y,-z
1/2-x,1/2+y,1/2-z
loop_
_atom_site_type_symbol
_atom_site_label
_atom_site_fract_x
_atom_site_fract_y
_atom_site_fract_z
Si Si1 0.000000 0.998182 0.250000
Si Si2 0.165627 0.792561 0.933197
Si Si3 0.450795 0.927799 0.490414
O O1 0.784323 0.056534 0.147531
O O2 0.235459 0.937662 0.325704
O O3 0.000000 0.797688 0.750000
O O4 0.355509 0.860304 0.983539
O O5 0.901599 0.770988 0.064329
O O6 0.668948 0.000000 0.500000
#
# Coordination Sequence:
#
# PCOD9322154 Si02
#       3
#     4   8   8
#     4   6  16  42  94 150 194 248 324 430 476 608
#     4  12  29  63  96 141 206 268 337 411 494 598
#     4   8  18  49  97 142 207 252 330 410 506 577
#
# _framework density 30.67867
#
# number of rings (size 3 to 8) (size 9 to 14) (size 15 to 20)
#    2.400    0.000    0.000    1.200    0.000    0.000 
#   18.000   18.000    8.800    4.800    0.000    0.000 
#    0.000    0.000    0.000    0.000    0.000    0.000 
#
# Total GULP energy -55828.676761 kJ/mol
# GULP energy per Si atom -5582.867676 kJ/mol
# Density = 3.060884 g / cm^3
# Si number density = 30.678670 Si / 1000 Ang^3
#
#
#
# Elastic Constant Matrix: (Units=GPa)
#
#
# Indices 1 2 3 4 5 6 
#
# 1 315.0726 183.7390 110.3170 0.0000 0.0000 0.0000
# 2 183.7390 248.6116 103.1927 0.0000 0.0000 0.0000
# 3 110.3170 103.1927 157.3355 0.0000 0.0000 0.0000
# 4 0.0000 0.0000 0.0000 37.6669 0.0000 0.0000
# 5 0.0000 0.0000 0.0000 0.0000 48.3004 0.0000
# 6 0.0000 0.0000 0.0000 0.0000 0.0000 105.9398
#
#
#
# Elastic Compliance Matrix: (Units=1/GPa)
#
#
# Indices 1 2 3 4 5 6 
#
# 1 0.005912 -0.003639 -0.001758 0.000000 0.000000 0.000000
# 2 -0.003639 0.007768 -0.002543 0.000000 0.000000 0.000000
# 3 -0.001758 -0.002543 0.009256 0.000000 0.000000 0.000000
# 4 0.000000 0.000000 0.000000 0.026549 0.000000 0.000000
# 5 0.000000 0.000000 0.000000 0.000000 0.020704 0.000000
# 6 0.000000 0.000000 0.000000 0.000000 0.000000 0.009439
#
#
# Mechanical properties :
#
#
# Convention : Reuss Voigt Hill
#
# Bulk Modulus (GPa) = 141.74156 168.39080 155.06618
# Shear Modulus (GPa) = 51.09368 59.96616 55.52992
#
# Velocity S-wave (km/s) = 4.08542 4.42594 4.25908
# Velocity P-wave (km/s) = 8.27988 9.00702 8.65109
#
# Compressibility (1/GPa) = 0.00705509
#
# Stress axis : x y z
#
# Youngs Moduli (GPa) = 169.15206 128.74085 108.03515
#
# Poissons Ratio (x) = 0.46855 0.18994
# Poissons Ratio (y) = 0.61562 0.27470
# Poissons Ratio (z) = 0.29738 0.32735
#
# Static dielectric constant tensor:
#      x y z
#    x 2.635500 0.000000 0.000000 
#    y 0.000000 2.433440 0.000000 
#    z 0.000000 0.000000 2.581130 
# 
# From -- ./inp_files/4924.got.cif
#   From: 2010.05.17/outbox.cif.g08.bks.cpg/sg20_3_cif.got.tgz:4924.got - 2010.06.03 22:52:26.
