data_PCOD9322852
_publ_section_title
;
Structure prediction by ZEFSAII (Michael W. Deem and Ramdas Pophale) SiO2 
 PCOD9322852
Probable space group: C 2 2 2
;
_chemical_formula_sum "Si O2"
_cell_formula_units_Z 34
_cell_length_a 9.775992
_cell_length_b 17.134607
_cell_length_c 8.813408
_cell_angle_alpha 90.000000
_cell_angle_beta 90.000000
_cell_angle_gamma 90.000000
_cell_volume 1476.314417
_symmetry_space_group_name_H-M "C 2 2 2"
_symmetry_group_IT_number 21
_symmetry_cell_setting 'orthorhombic'
loop_
_space_group_symop_operation_xyz
x,y,z
-x,-y,z
x,-y,-z
-x,y,-z
1/2+x,1/2+y,z
1/2-x,1/2-y,z
1/2+x,1/2-y,-z
1/2-x,1/2+y,-z
loop_
_atom_site_type_symbol
_atom_site_label
_atom_site_fract_x
_atom_site_fract_y
_atom_site_fract_z
Si Si1 0.000000 0.500000 0.500000
Si Si2 0.499504 0.616876 0.820789
Si Si3 0.465636 0.802691 0.175375
Si Si4 0.263443 0.098788 0.659778
Si Si5 0.732992 0.840768 0.326452
O O1 0.885068 0.539813 0.611457
O O2 0.530368 0.709935 0.794022
O O3 0.617181 0.572413 0.726535
O O4 0.344789 0.609048 0.761491
O O5 0.500000 0.600836 0.000000
O O6 0.323566 0.842275 0.215689
O O7 0.576887 0.849449 0.276448
O O8 0.500000 0.812937 0.000000
O O9 0.241678 0.145357 0.502943
O O10 0.750000 0.750000 0.287051
#
# Coordination Sequence:
#
# PCOD9322852 Si02
#       5
#     2   8   8   8   8
#     4  12  28  44  64  88 124 200 244 266 292 372
#     4  10  21  36  64 103 133 158 201 275 355 397
#     4  10  19  35  63  98 135 166 198 263 344 411
#     4  12  22  41  62  87 132 171 230 261 312 383
#     4  10  19  34  60  96 129 162 207 268 345 398
#
# _framework density 23.030322999999999
#
# number of rings (size 3 to 8) (size 9 to 14) (size 15 to 20)
#    0.000    1.412    2.353    4.235    0.000    7.529 
#    0.000    2.941    0.000    1.412    0.000    0.000 
#    0.000    0.000    0.000    0.000    0.000    0.000 
#
# Total GULP energy -94878.245361 kJ/mol
# GULP energy per Si atom -5581.073257 kJ/mol
# Density = 2.297791 g / cm^3
# Si number density = 23.030323 Si / 1000 Ang^3
#
#
#
# Elastic Constant Matrix: (Units=GPa)
#
#
# Indices 1 2 3 4 5 6 
#
# 1 155.9168 24.3195 29.0327 0.0000 0.0000 0.0000
# 2 24.3195 60.5284 6.4605 0.0000 0.0000 0.0000
# 3 29.0327 6.4605 81.6198 0.0000 0.0000 0.0000
# 4 0.0000 0.0000 0.0000 36.2236 0.0000 0.0000
# 5 0.0000 0.0000 0.0000 0.0000 52.9489 0.0000
# 6 0.0000 0.0000 0.0000 0.0000 0.0000 -711.5063
#
#
#
# Elastic Compliance Matrix: (Units=1/GPa)
#
#
# Indices 1 2 3 4 5 6 
#
# 1 0.007272 -0.002668 -0.002376 0.000000 0.000000 0.000000
# 2 -0.002668 0.017641 -0.000447 0.000000 0.000000 0.000000
# 3 -0.002376 -0.000447 0.013132 0.000000 0.000000 0.000000
# 4 0.000000 0.000000 0.000000 0.027606 0.000000 0.000000
# 5 0.000000 0.000000 0.000000 0.000000 0.018886 0.000000
# 6 0.000000 0.000000 0.000000 0.000000 0.000000 -0.001405
#
#
# Mechanical properties :
#
#
# Convention : Reuss Voigt Hill
#
# Bulk Modulus (GPa) = 36.95034 46.41004 41.68019
# Shear Modulus (GPa) = 48.47977 -108.58327 -30.05175
#
# Velocity S-wave (km/s) = 4.59305 -6.87389 -3.61623
# Velocity P-wave (km/s) = 6.64885 6.54255 0.83732
#
# Compressibility (1/GPa) = 0.02706335
#
# Stress axis : x y z
#
# Youngs Moduli (GPa) = 137.50964 56.68615 76.14795
#
# Poissons Ratio (x) = 0.15126 0.18089
# Poissons Ratio (y) = 0.36692 0.03405
# Poissons Ratio (z) = 0.32666 0.02535
#
# Static dielectric constant tensor:
#      x y z
#    x 1.871840 0.000000 0.000000 
#    y 0.000000 1.910100 0.000000 
#    z 0.000000 0.000000 2.060280 
# 
# From -- ./inp_files/10552.got.cif
#   From: 2010.05.17/outbox.cif.g08.bks.cpg/sg21_6_cif.got.tgz:10552.got - 2010.06.03 23:14:55.
