data_PCOD9322294
_publ_section_title
;
Structure prediction by ZEFSAII (Michael W. Deem and Ramdas Pophale) SiO2 
 PCOD9322294
Probable space group: C 2 2 2
;
_chemical_formula_sum "Si O2"
_cell_formula_units_Z 34
_cell_length_a 14.563747
_cell_length_b 5.589131
_cell_length_c 19.227590
_cell_angle_alpha 90.000000
_cell_angle_beta 90.000000
_cell_angle_gamma 90.000000
_cell_volume 1565.100635
_symmetry_space_group_name_H-M "C 2 2 2"
_symmetry_group_IT_number 21
_symmetry_cell_setting 'orthorhombic'
loop_
_space_group_symop_operation_xyz
x,y,z
-x,-y,z
x,-y,-z
-x,y,-z
1/2+x,1/2+y,z
1/2-x,1/2-y,z
1/2+x,1/2-y,-z
1/2-x,1/2+y,-z
loop_
_atom_site_type_symbol
_atom_site_label
_atom_site_fract_x
_atom_site_fract_y
_atom_site_fract_z
Si Si1 0.362530 0.497148 0.363270
Si Si2 0.652188 0.000786 0.417437
Si Si3 0.897909 0.107827 0.070610
Si Si4 0.500000 0.000000 0.000000
Si Si5 0.304458 0.496868 0.783890
O O1 0.395173 0.248400 0.396498
O O2 0.252426 0.497601 0.380485
O O3 0.374661 0.485762 0.280463
O O4 0.393935 0.750492 0.394273
O O5 0.666666 0.000000 0.500000
O O6 0.844757 0.048585 0.139793
O O7 0.927186 0.375306 0.052011
O O8 0.000000 0.000000 0.076565
O O9 0.854519 0.000000 0.000000
O O10 0.250000 0.250000 0.768408
O O11 0.250000 0.750000 0.783681
#
# Coordination Sequence:
#
# PCOD9322294 Si02
#       5
#     8   8   8   2   8
#     4  10  16  29  40  71 106 143 171 225 274 325
#     4  10  16  26  43  64 103 151 182 213 267 333
#     4   9  22  41  62  81 109 150 197 231 279 341
#     4   8  18  44  64  82 104 152 206 244 266 352
#     4  12  23  36  57  85 123 149 177 239 296 335
#
# _framework density 21.723841
#
# number of rings (size 3 to 8) (size 9 to 14) (size 15 to 20)
#    0.000    2.118    4.706    3.529    6.588    0.941 
#    0.000    0.000    0.000    0.000    0.000    0.000 
#    0.000   10.353    0.000    0.000    0.000    0.000 
#
# Total GULP energy -94685.008723 kJ/mol
# GULP energy per Si atom -5569.706395 kJ/mol
# Density = 2.167440 g / cm^3
# Si number density = 21.723841 Si / 1000 Ang^3
#
#
#
# Elastic Constant Matrix: (Units=GPa)
#
#
# Indices 1 2 3 4 5 6 
#
# 1 43.9261 15.8469 11.5206 0.0000 0.0000 0.0000
# 2 15.8469 193.0654 50.7237 0.0000 0.0000 0.0000
# 3 11.5206 50.7237 191.7727 0.0000 0.0000 0.0000
# 4 0.0000 0.0000 0.0000 38.5651 0.0000 0.0000
# 5 0.0000 0.0000 0.0000 0.0000 -70.7312 0.0000
# 6 0.0000 0.0000 0.0000 0.0000 0.0000 110.0384
#
#
#
# Elastic Compliance Matrix: (Units=1/GPa)
#
#
# Indices 1 2 3 4 5 6 
#
# 1 0.023628 -0.001683 -0.000974 0.000000 0.000000 0.000000
# 2 -0.001683 0.005686 -0.001403 0.000000 0.000000 0.000000
# 3 -0.000974 -0.001403 0.005644 0.000000 0.000000 0.000000
# 4 0.000000 0.000000 0.000000 0.025930 0.000000 0.000000
# 5 0.000000 0.000000 0.000000 0.000000 -0.014138 0.000000
# 6 0.000000 0.000000 0.000000 0.000000 0.000000 0.009088
#
#
# Mechanical properties :
#
#
# Convention : Reuss Voigt Hill
#
# Bulk Modulus (GPa) = 37.26106 64.99407 51.12756
# Shear Modulus (GPa) = 68.58177 38.95266 53.76721
#
# Velocity S-wave (km/s) = 5.62480 4.23908 4.98037
# Velocity P-wave (km/s) = 7.70544 7.34459 7.52718
#
# Compressibility (1/GPa) = 0.02683767
#
# Stress axis : x y z
#
# Youngs Moduli (GPa) = 42.32206 175.85957 177.17636
#
# Poissons Ratio (x) = 0.29606 0.17260
# Poissons Ratio (y) = 0.07125 0.24856
# Poissons Ratio (z) = 0.04123 0.24671
#
# Static dielectric constant tensor:
#      x y z
#    x 1.792480 0.000000 0.000000 
#    y 0.000000 1.652670 0.000000 
#    z 0.000000 0.000000 1.367220 
# 
# From -- ./inp_files/33082.got.cif
#   From: 2010.05.17/outbox.cif.g08.bks.cpg/sg21_17_cif.got.tgz:33082.got - 2010.06.03 23:14:55.
