data_PCOD9322345
_publ_section_title
;
Structure prediction by ZEFSAII (Michael W. Deem and Ramdas Pophale) SiO2 
 PCOD9322345
Probable space group: C 2 2 2
;
_chemical_formula_sum "Si O2"
_cell_formula_units_Z 46
_cell_length_a 8.432347
_cell_length_b 23.734688
_cell_length_c 13.092018
_cell_angle_alpha 90.000000
_cell_angle_beta 90.000000
_cell_angle_gamma 90.000000
_cell_volume 2620.225029
_symmetry_space_group_name_H-M "C 2 2 2"
_symmetry_group_IT_number 21
_symmetry_cell_setting 'orthorhombic'
loop_
_space_group_symop_operation_xyz
x,y,z
-x,-y,z
x,-y,-z
-x,y,-z
1/2+x,1/2+y,z
1/2-x,1/2-y,z
1/2+x,1/2-y,-z
1/2-x,1/2+y,-z
loop_
_atom_site_type_symbol
_atom_site_label
_atom_site_fract_x
_atom_site_fract_y
_atom_site_fract_z
Si Si1 0.330529 0.659758 0.700130
Si Si2 0.253039 0.087361 0.960830
Si Si3 0.044121 0.935916 0.840881
Si Si4 0.750000 0.750000 0.639511
Si Si5 0.500000 0.183739 0.000000
Si Si6 0.500000 0.683810 0.500000
Si Si7 0.500000 0.000000 0.000000
Si Si8 0.021702 0.722309 0.771197
O O1 0.371375 0.602606 0.758109
O O2 0.390255 0.653294 0.583908
O O3 0.150896 0.680227 0.721008
O O4 0.426343 0.713592 0.746195
O O5 0.387810 0.041373 0.935513
O O6 0.120927 0.093093 0.874790
O O7 0.158584 0.064701 0.060020
O O8 0.345538 0.144005 0.988247
O O9 0.000000 0.000000 0.813470
O O10 0.623948 0.720245 0.565844
O O11 0.645717 0.788278 0.715836
O O12 0.484177 0.216065 0.106789
#
# Coordination Sequence:
#
# PCOD9322345 Si02
#       8
#     8   8   8   4   4   4   2   8
#     4  10  22  39  56  83 113 152 197 248 295 350
#     4  10  20  32  55  78 117 156 201 230 288 342
#     4  11  20  38  56  81 110 159 202 243 282 350
#     4  10  20  36  62  84 112 158 190 240 296 356
#     4  11  22  33  52  90 127 154 177 236 286 366
#     4  10  20  38  61  80 108 142 203 248 294 342
#     4  10  16  34  48  80 108 152 202 244 262 342
#     4  10  22  37  55  87 125 150 191 226 301 364
#
# _framework density 17.555745000000002
#
# number of rings (size 3 to 8) (size 9 to 14) (size 15 to 20)
#    0.000    1.739    3.478    2.609    4.870    2.783 
#    0.000    0.435    0.000    0.000    0.000    0.000 
#    0.000    0.000    0.000    0.000    0.000    0.000 
#
# Total GULP energy -128183.548674 kJ/mol
# GULP energy per Si atom -5573.197768 kJ/mol
# Density = 1.751579 g / cm^3
# Si number density = 17.555745 Si / 1000 Ang^3
#
#
#
# Elastic Constant Matrix: (Units=GPa)
#
#
# Indices 1 2 3 4 5 6 
#
# 1 108.9879 23.1808 43.9301 0.0000 0.0000 0.0000
# 2 23.1808 65.3470 32.8618 0.0000 0.0000 0.0000
# 3 43.9301 32.8618 112.3315 0.0000 0.0000 0.0000
# 4 0.0000 0.0000 0.0000 -60.7776 0.0000 0.0000
# 5 0.0000 0.0000 0.0000 0.0000 22.0386 0.0000
# 6 0.0000 0.0000 0.0000 0.0000 0.0000 16.8494
#
#
#
# Elastic Compliance Matrix: (Units=1/GPa)
#
#
# Indices 1 2 3 4 5 6 
#
# 1 0.011124 -0.002062 -0.003747 0.000000 0.000000 0.000000
# 2 -0.002062 0.018325 -0.004554 0.000000 0.000000 0.000000
# 3 -0.003747 -0.004554 0.011700 0.000000 0.000000 0.000000
# 4 0.000000 0.000000 0.000000 -0.016453 0.000000 0.000000
# 5 0.000000 0.000000 0.000000 0.000000 0.045375 0.000000
# 6 0.000000 0.000000 0.000000 0.000000 0.000000 0.059349
#
#
# Mechanical properties :
#
#
# Convention : Reuss Voigt Hill
#
# Bulk Modulus (GPa) = 48.96667 54.06796 51.51731
# Shear Modulus (GPa) = 31.85647 8.06834 19.96241
#
# Velocity S-wave (km/s) = 4.26442 2.14612 3.37573
# Velocity P-wave (km/s) = 7.22494 6.08324 6.67853
#
# Compressibility (1/GPa) = 0.02042206
#
# Stress axis : x y z
#
# Youngs Moduli (GPa) = 89.89352 54.57137 85.46961
#
# Poissons Ratio (x) = 0.11251 0.32028
# Poissons Ratio (y) = 0.18533 0.38927
# Poissons Ratio (z) = 0.33686 0.24854
#
# Static dielectric constant tensor:
#      x y z
#    x 1.677890 0.000000 0.000000 
#    y 0.000000 1.593530 0.000000 
#    z 0.000000 0.000000 1.610480 
# 
# From -- ./inp_files/22933.got.cif
#   From: 2010.05.17/outbox.cif.g08.bks.cpg/sg21_12_cif.got.tgz:22933.got - 2010.06.03 23:14:55.
