data_PCOD9322586
_publ_section_title
;
Structure prediction by ZEFSAII (Michael W. Deem and Ramdas Pophale) SiO2 
 PCOD9322586
Probable space group: C 2 2 2
;
_chemical_formula_sum "Si O2"
_cell_formula_units_Z 38
_cell_length_a 17.442825
_cell_length_b 12.961857
_cell_length_c 7.591201
_cell_angle_alpha 90.000000
_cell_angle_beta 90.000000
_cell_angle_gamma 90.000000
_cell_volume 1716.305287
_symmetry_space_group_name_H-M "C 2 2 2"
_symmetry_group_IT_number 21
_symmetry_cell_setting 'orthorhombic'
loop_
_space_group_symop_operation_xyz
x,y,z
-x,-y,z
x,-y,-z
-x,y,-z
1/2+x,1/2+y,z
1/2-x,1/2-y,z
1/2+x,1/2-y,-z
1/2-x,1/2+y,-z
loop_
_atom_site_type_symbol
_atom_site_label
_atom_site_fract_x
_atom_site_fract_y
_atom_site_fract_z
Si Si1 0.000000 0.000000 0.500000
Si Si2 0.082364 0.451064 0.767072
Si Si3 0.358739 0.134917 0.414943
Si Si4 0.395564 0.267779 0.876454
Si Si5 0.750000 0.750000 0.637173
Si Si6 0.937330 0.168705 0.749483
O O1 0.946739 0.930913 0.371989
O O2 0.085296 0.398031 0.574611
O O3 0.140076 0.546229 0.732169
O O4 0.101248 0.357767 0.899574
O O5 0.000000 0.500000 0.801891
O O6 0.279238 0.158081 0.512076
O O7 0.390417 0.241680 0.344372
O O8 0.320595 0.284895 0.759327
O O9 0.474934 0.294672 0.779740
O O10 0.399681 0.333246 0.056005
#
# Coordination Sequence:
#
# PCOD9322586 Si02
#       6
#     2   8   8   8   4   8
#     4  12  24  42  72  98 116 182 260 282 324 408
#     4  10  18  34  68 104 136 172 232 287 345 428
#     4  10  20  36  64  99 137 183 226 280 339 410
#     4  10  23  42  65 103 144 175 226 300 364 403
#     4  10  22  38  62  96 146 190 216 268 350 426
#     4  11  24  43  69  97 130 182 242 296 337 407
#
# _framework density 22.140581999999998
#
# number of rings (size 3 to 8) (size 9 to 14) (size 15 to 20)
#    0.000    1.684    2.105    3.789    2.947    3.368 
#    0.000   16.842    0.000   15.158    0.000    0.000 
#    0.000    0.000    0.000    0.000    0.000    0.000 
#
# Total GULP energy -106055.800530 kJ/mol
# GULP energy per Si atom -5581.884238 kJ/mol
# Density = 2.209019 g / cm^3
# Si number density = 22.140582 Si / 1000 Ang^3
#
#
#
# Elastic Constant Matrix: (Units=GPa)
#
#
# Indices 1 2 3 4 5 6 
#
# 1 105.8026 29.2708 42.2789 0.0000 0.0000 0.0000
# 2 29.2708 121.6159 51.4937 0.0000 0.0000 0.0000
# 3 42.2789 51.4937 91.4917 0.0000 0.0000 0.0000
# 4 0.0000 0.0000 0.0000 27.1550 0.0000 0.0000
# 5 0.0000 0.0000 0.0000 0.0000 30.9992 0.0000
# 6 0.0000 0.0000 0.0000 0.0000 0.0000 22.1344
#
#
#
# Elastic Compliance Matrix: (Units=1/GPa)
#
#
# Indices 1 2 3 4 5 6 
#
# 1 0.011636 -0.000688 -0.004990 0.000000 0.000000 0.000000
# 2 -0.000688 0.010836 -0.005781 0.000000 0.000000 0.000000
# 3 -0.004990 -0.005781 0.016489 0.000000 0.000000 0.000000
# 4 0.000000 0.000000 0.000000 0.036826 0.000000 0.000000
# 5 0.000000 0.000000 0.000000 0.000000 0.032259 0.000000
# 6 0.000000 0.000000 0.000000 0.000000 0.000000 0.045178
#
#
# Mechanical properties :
#
#
# Convention : Reuss Voigt Hill
#
# Bulk Modulus (GPa) = 62.32836 62.77743 62.55289
# Shear Modulus (GPa) = 27.54986 29.11550 28.33268
#
# Velocity S-wave (km/s) = 3.53131 3.63027 3.58113
# Velocity P-wave (km/s) = 6.69621 6.78140 6.73894
#
# Compressibility (1/GPa) = 0.01604406
#
# Stress axis : x y z
#
# Youngs Moduli (GPa) = 85.94166 92.28658 60.64498
#
# Poissons Ratio (x) = 0.06347 0.30261
# Poissons Ratio (y) = 0.05911 0.35058
# Poissons Ratio (z) = 0.42884 0.53349
#
# Static dielectric constant tensor:
#      x y z
#    x 1.792180 0.000000 0.000000 
#    y 0.000000 1.866840 0.000000 
#    z 0.000000 0.000000 1.885090 
# 
# From -- ./inp_files/16155.got.cif
#   From: 2010.05.17/outbox.cif.g08.bks.cpg/sg21_9_cif.got.tgz:16155.got - 2010.06.03 23:14:55.
