data_PCOD9322684
_publ_section_title
;
Structure prediction by ZEFSAII (Michael W. Deem and Ramdas Pophale) SiO2 
 PCOD9322684
Probable space group: C 2 2 2
;
_chemical_formula_sum "Si O2"
_cell_formula_units_Z 48
_cell_length_a 21.572939
_cell_length_b 12.866760
_cell_length_c 7.701835
_cell_angle_alpha 90.000000
_cell_angle_beta 90.000000
_cell_angle_gamma 90.000000
_cell_volume 2137.827828
_symmetry_space_group_name_H-M "C 2 2 2"
_symmetry_group_IT_number 21
_symmetry_cell_setting 'orthorhombic'
loop_
_space_group_symop_operation_xyz
x,y,z
-x,-y,z
x,-y,-z
-x,y,-z
1/2+x,1/2+y,z
1/2-x,1/2-y,z
1/2+x,1/2-y,-z
1/2-x,1/2+y,-z
loop_
_atom_site_type_symbol
_atom_site_label
_atom_site_fract_x
_atom_site_fract_y
_atom_site_fract_z
Si Si1 0.699803 0.128995 0.749999
Si Si2 0.396547 0.105927 0.547627
Si Si3 0.430636 0.657454 0.453474
Si Si4 0.103453 0.605927 0.047626
Si Si5 0.569364 0.342546 0.046525
Si Si6 0.164671 0.873728 0.749999
O O1 0.662627 0.100413 0.577178
O O2 0.767430 0.075872 0.749999
O O3 0.688867 0.254181 0.749999
O O4 0.662627 0.100413 0.922821
O O5 0.428299 0.217194 0.514300
O O6 0.380916 0.105361 0.750001
O O7 0.432187 0.000000 0.500000
O O8 0.500000 0.622374 0.500000
O O9 0.417856 0.638576 0.249999
O O10 0.378942 0.611746 0.582528
O O11 0.071700 0.717194 0.014298
O O12 0.067813 0.500000 0.000000
O O13 0.500000 0.377626 0.000000
O O14 0.621058 0.388254 0.917469
#
# Coordination Sequence:
#
# PCOD9322684 Si02
#       6
#     8   8   8   8   8   8
#     4   9  18  32  47  65  92 123 155 193 235 272
#     4  10  19  30  46  68  95 127 158 189 225 269
#     4  10  19  30  46  68  95 127 158 189 225 269
#     4  10  19  30  46  68  95 127 158 189 225 269
#     4  10  19  30  46  68  95 127 158 189 225 269
#     4   9  18  32  47  65  92 123 155 193 235 272
#
# _framework density 22.452694999999999
#
# number of rings (size 3 to 8) (size 9 to 14) (size 15 to 20)
#    0.000    2.333    3.333    0.000    0.000    2.000 
#    0.000   10.000    0.000    0.000    0.000    0.000 
#    0.000    4.000    0.000    0.000    0.000    0.000 
#
# Total GULP energy -133866.177028 kJ/mol
# GULP energy per Si atom -5577.757376 kJ/mol
# Density = 2.240159 g / cm^3
# Si number density = 22.452695 Si / 1000 Ang^3
#
#
#
# Elastic Constant Matrix: (Units=GPa)
#
#
# Indices 1 2 3 4 5 6 
#
# 1 208.5288 1.2580 104.6058 0.0000 0.0000 0.0000
# 2 1.2580 73.3473 19.7667 0.0000 0.0000 0.0000
# 3 104.6058 19.7667 158.5202 0.0000 0.0000 0.0000
# 4 0.0000 0.0000 0.0000 9.2557 0.0000 0.0000
# 5 0.0000 0.0000 0.0000 0.0000 8.4807 0.0000
# 6 0.0000 0.0000 0.0000 0.0000 0.0000 -8.4652
#
#
#
# Elastic Compliance Matrix: (Units=1/GPa)
#
#
# Indices 1 2 3 4 5 6 
#
# 1 0.007271 0.001209 -0.004949 0.000000 0.000000 0.000000
# 2 0.001209 0.014309 -0.002582 0.000000 0.000000 0.000000
# 3 -0.004949 -0.002582 0.009896 0.000000 0.000000 0.000000
# 4 0.000000 0.000000 0.000000 0.108042 0.000000 0.000000
# 5 0.000000 0.000000 0.000000 0.000000 0.117915 0.000000
# 6 0.000000 0.000000 0.000000 0.000000 0.000000 -0.118131
#
#
# Mechanical properties :
#
#
# Convention : Reuss Voigt Hill
#
# Bulk Modulus (GPa) = 53.10108 76.85082 64.97595
# Shear Modulus (GPa) = 31.60130 22.83863 27.21996
#
# Velocity S-wave (km/s) = 3.75568 3.19280 3.48562
# Velocity P-wave (km/s) = 6.51985 6.92056 6.72319
#
# Compressibility (1/GPa) = 0.01883201
#
# Stress axis : x y z
#
# Youngs Moduli (GPa) = 137.54092 69.88672 101.05324
#
# Poissons Ratio (x) = -0.08449 0.50006
# Poissons Ratio (y) = -0.16627 0.26092
# Poissons Ratio (z) = 0.68062 0.18045
#
# Static dielectric constant tensor:
#      x y z
#    x 1.838860 0.000000 0.000000 
#    y 0.000000 1.956940 0.000000 
#    z 0.000000 0.000000 1.764340 
# 
# From -- ./inp_files/17575.got.cif
#   From: 2010.05.17/outbox.cif.g08.bks.cpg/sg21_9_cif.got.tgz:17575.got - 2010.06.03 23:14:55.
