data_PCOD9322605
_publ_section_title
;
Structure prediction by ZEFSAII (Michael W. Deem and Ramdas Pophale) SiO2 
 PCOD9322605
Probable space group: C 2 2 2
;
_chemical_formula_sum "Si O2"
_cell_formula_units_Z 34
_cell_length_a 24.648131
_cell_length_b 13.248745
_cell_length_c 4.980639
_cell_angle_alpha 90.000000
_cell_angle_beta 90.000000
_cell_angle_gamma 90.000000
_cell_volume 1626.461545
_symmetry_space_group_name_H-M "C 2 2 2"
_symmetry_group_IT_number 21
_symmetry_cell_setting 'orthorhombic'
loop_
_space_group_symop_operation_xyz
x,y,z
-x,-y,z
x,-y,-z
-x,y,-z
1/2+x,1/2+y,z
1/2-x,1/2-y,z
1/2+x,1/2-y,-z
1/2-x,1/2+y,-z
loop_
_atom_site_type_symbol
_atom_site_label
_atom_site_fract_x
_atom_site_fract_y
_atom_site_fract_z
Si Si1 0.556577 0.693342 0.633367
Si Si2 0.581638 0.825742 0.137803
Si Si3 0.162549 0.110158 0.498443
Si Si4 0.500000 0.000000 0.000000
Si Si5 0.312047 0.263663 0.999791
O O1 0.500000 0.663765 0.500000
O O2 0.578786 0.781298 0.435641
O O3 0.601141 0.606566 0.611134
O O4 0.556992 0.744322 0.925330
O O5 0.644979 0.828214 0.042800
O O6 0.542832 0.923393 0.139709
O O7 0.163978 0.151311 0.197745
O O8 0.188157 0.000000 0.500000
O O9 0.188406 0.192078 0.699425
O O10 0.250000 0.250000 0.082374
#
# Coordination Sequence:
#
# PCOD9322605 Si02
#       5
#     8   8   8   2   8
#     4  10  18  36  54  79 114 147 182 219 296 341
#     4  10  22  33  57  82 109 158 179 237 291 335
#     4  10  21  36  60  87 108 147 192 239 284 338
#     4  12  20  38  56  86 126 134 212 232 284 362
#     4  10  21  41  61  79 119 153 192 236 304 343
#
# _framework density 20.904274000000001
#
# number of rings (size 3 to 8) (size 9 to 14) (size 15 to 20)
#    0.000    1.882    2.353    1.412    0.000    2.353 
#    4.235    0.000    0.000    8.471    0.000    0.000 
#    0.000    0.000    0.000    0.000    0.000    0.000 
#
# Total GULP energy -94639.922468 kJ/mol
# GULP energy per Si atom -5567.054263 kJ/mol
# Density = 2.085669 g / cm^3
# Si number density = 20.904274 Si / 1000 Ang^3
#
#
#
# Elastic Constant Matrix: (Units=GPa)
#
#
# Indices 1 2 3 4 5 6 
#
# 1 140.0332 7.2141 -7.6490 0.0000 0.0000 0.0000
# 2 7.2141 61.2873 5.0872 0.0000 0.0000 0.0000
# 3 -7.6490 5.0872 85.2240 0.0000 0.0000 0.0000
# 4 0.0000 0.0000 0.0000 8.3714 0.0000 0.0000
# 5 0.0000 0.0000 0.0000 0.0000 27.1879 0.0000
# 6 0.0000 0.0000 0.0000 0.0000 0.0000 10.9425
#
#
#
# Elastic Compliance Matrix: (Units=1/GPa)
#
#
# Indices 1 2 3 4 5 6 
#
# 1 0.007226 -0.000909 0.000703 0.000000 0.000000 0.000000
# 2 -0.000909 0.016512 -0.001067 0.000000 0.000000 0.000000
# 3 0.000703 -0.001067 0.011861 0.000000 0.000000 0.000000
# 4 0.000000 0.000000 0.000000 0.119454 0.000000 0.000000
# 5 0.000000 0.000000 0.000000 0.000000 0.036781 0.000000
# 6 0.000000 0.000000 0.000000 0.000000 0.000000 0.091387
#
#
# Mechanical properties :
#
#
# Convention : Reuss Voigt Hill
#
# Bulk Modulus (GPa) = 30.25493 32.87211 31.56352
# Shear Modulus (GPa) = 16.84716 28.09316 22.47016
#
# Velocity S-wave (km/s) = 2.84195 3.66989 3.28213
# Velocity P-wave (km/s) = 5.02727 5.80661 5.43094
#
# Compressibility (1/GPa) = 0.03305247
#
# Stress axis : x y z
#
# Youngs Moduli (GPa) = 138.38187 60.56134 84.31294
#
# Poissons Ratio (x) = 0.05505 -0.05926
# Poissons Ratio (y) = 0.12578 0.08998
# Poissons Ratio (z) = -0.09726 0.06463
#
# Static dielectric constant tensor:
#      x y z
#    x 1.835970 0.000000 0.000000 
#    y 0.000000 1.744100 0.000000 
#    z 0.000000 0.000000 1.723680 
# 
# From -- ./inp_files/2592.got.cif
#   From: 2010.05.17/outbox.cif.g08.bks.cpg/sg21_2_cif.got.tgz:2592.got - 2010.06.03 23:14:55.
