data_PCOD9322984
_publ_section_title
;
Structure prediction by ZEFSAII (Michael W. Deem and Ramdas Pophale) SiO2 
 PCOD9322984
Probable space group: C 2 2 2
;
_chemical_formula_sum "Si O2"
_cell_formula_units_Z 64
_cell_length_a 14.383012
_cell_length_b 17.953489
_cell_length_c 12.376687
_cell_angle_alpha 90.000000
_cell_angle_beta 90.000000
_cell_angle_gamma 90.000000
_cell_volume 3195.973067
_symmetry_space_group_name_H-M "C 2 2 2"
_symmetry_group_IT_number 21
_symmetry_cell_setting 'orthorhombic'
loop_
_space_group_symop_operation_xyz
x,y,z
-x,-y,z
x,-y,-z
-x,y,-z
1/2+x,1/2+y,z
1/2-x,1/2-y,z
1/2+x,1/2-y,-z
1/2-x,1/2+y,-z
loop_
_atom_site_type_symbol
_atom_site_label
_atom_site_fract_x
_atom_site_fract_y
_atom_site_fract_z
Si Si1 0.595909 0.048272 0.796966
Si Si2 0.347204 0.215367 0.935539
Si Si3 0.025266 0.773414 0.248149
Si Si4 0.349499 0.216791 0.174848
Si Si5 0.453982 0.419764 0.880930
Si Si6 0.233050 0.582861 0.163651
Si Si7 0.104627 0.422707 0.456749
Si Si8 0.822698 0.685343 0.626296
O O1 0.621044 0.130344 0.841848
O O2 0.595163 0.067530 0.670085
O O3 0.500000 0.000000 0.821619
O O4 0.682800 0.995407 0.822300
O O5 0.250000 0.250000 0.891655
O O6 0.431565 0.236324 0.860125
O O7 0.325038 0.128681 0.925665
O O8 0.361845 0.247840 0.053336
O O9 0.026671 0.859888 0.214381
O O10 0.085847 0.731540 0.337454
O O11 0.920608 0.749024 0.260288
O O12 0.250000 0.250000 0.206053
O O13 0.500000 0.500000 0.856901
O O14 0.340346 0.422848 0.875575
O O15 0.500000 0.399812 0.000000
O O16 0.212300 0.629604 0.276117
O O17 0.145688 0.500000 0.500000
O O18 0.160966 0.358428 0.515816
O O19 0.000000 0.415856 0.500000
O O20 0.750000 0.750000 0.612782
#
# Coordination Sequence:
#
# PCOD9322984 Si02
#       8
#     8   8   8   8   8   8   8   8
#     4  12  24  42  65  97 131 169 214 274 347 414
#     4  10  19  37  59  86 120 167 217 268 320 381
#     4  11  20  40  61  88 128 166 221 268 318 393
#     4  11  26  37  56  89 131 174 211 270 340 388
#     4  11  24  36  60  90 124 178 229 268 310 378
#     4  11  21  39  64  91 127 167 223 269 318 394
#     4  11  20  39  68  94 123 161 206 266 337 408
#     4  11  21  40  70 100 121 162 220 270 330 399
#
# _framework density 20.025200999999999
#
# number of rings (size 3 to 8) (size 9 to 14) (size 15 to 20)
#    0.000    1.000    5.000    4.125    3.500    2.000 
#    0.000    0.625    0.000    0.000    0.000    0.875 
#    0.000    0.000    0.000    0.000    0.000    0.000 
#
# Total GULP energy -178203.969690 kJ/mol
# GULP energy per Si atom -5568.874053 kJ/mol
# Density = 1.997962 g / cm^3
# Si number density = 20.025201 Si / 1000 Ang^3
#
#
#
# Elastic Constant Matrix: (Units=GPa)
#
#
# Indices 1 2 3 4 5 6 
#
# 1 101.4841 37.0526 14.1717 0.0000 0.0000 0.0000
# 2 37.0526 105.7463 -1.5561 0.0000 0.0000 0.0000
# 3 14.1717 -1.5561 26.4082 0.0000 0.0000 0.0000
# 4 0.0000 0.0000 0.0000 37.5927 0.0000 0.0000
# 5 0.0000 0.0000 0.0000 0.0000 12.9816 0.0000
# 6 0.0000 0.0000 0.0000 0.0000 0.0000 35.0602
#
#
#
# Elastic Compliance Matrix: (Units=1/GPa)
#
#
# Indices 1 2 3 4 5 6 
#
# 1 0.012454 -0.004466 -0.006947 0.000000 0.000000 0.000000
# 2 -0.004466 0.011066 0.003049 0.000000 0.000000 0.000000
# 3 -0.006947 0.003049 0.041775 0.000000 0.000000 0.000000
# 4 0.000000 0.000000 0.000000 0.026601 0.000000 0.000000
# 5 0.000000 0.000000 0.000000 0.000000 0.077032 0.000000
# 6 0.000000 0.000000 0.000000 0.000000 0.000000 0.028522
#
#
# Mechanical properties :
#
#
# Convention : Reuss Voigt Hill
#
# Bulk Modulus (GPa) = 20.58999 36.99722 28.79360
# Shear Modulus (GPa) = 21.70441 29.39160 25.54801
#
# Velocity S-wave (km/s) = 3.29577 3.83525 3.57570
# Velocity P-wave (km/s) = 4.97867 6.17476 5.60869
#
# Compressibility (1/GPa) = 0.04856728
#
# Stress axis : x y z
#
# Youngs Moduli (GPa) = 80.29242 90.36388 23.93797
#
# Poissons Ratio (x) = 0.40358 0.16629
# Poissons Ratio (y) = 0.35860 -0.07298
# Poissons Ratio (z) = 0.55777 -0.27550
#
# Static dielectric constant tensor:
#      x y z
#    x 2.040220 0.000000 0.000000 
#    y 0.000000 1.911550 0.000000 
#    z 0.000000 0.000000 1.749860 
# 
# From -- ./inp_files/25474.got.cif
#   From: 2010.05.17/outbox.cif.g08.bks.cpg/sg21_13_cif.got.tgz:25474.got - 2010.06.03 23:14:55.
