data_PCOD9322368
_publ_section_title
;
Structure prediction by ZEFSAII (Michael W. Deem and Ramdas Pophale) SiO2 
 PCOD9322368
Probable space group: C 2 2 2
;
_chemical_formula_sum "Si O2"
_cell_formula_units_Z 48
_cell_length_a 18.877464
_cell_length_b 9.457962
_cell_length_c 13.988719
_cell_angle_alpha 90.000000
_cell_angle_beta 90.000000
_cell_angle_gamma 90.000000
_cell_volume 2497.578584
_symmetry_space_group_name_H-M "C 2 2 2"
_symmetry_group_IT_number 21
_symmetry_cell_setting 'orthorhombic'
loop_
_space_group_symop_operation_xyz
x,y,z
-x,-y,z
x,-y,-z
-x,y,-z
1/2+x,1/2+y,z
1/2-x,1/2-y,z
1/2+x,1/2-y,-z
1/2-x,1/2+y,-z
loop_
_atom_site_type_symbol
_atom_site_label
_atom_site_fract_x
_atom_site_fract_y
_atom_site_fract_z
Si Si1 0.033947 0.280844 0.397764
Si Si2 0.894794 0.280707 0.275788
Si Si3 0.321918 0.211853 0.216316
Si Si4 0.084271 0.479718 0.888633
Si Si5 0.579527 0.463790 0.721777
Si Si6 0.170369 0.523595 0.608440
O O1 0.064452 0.125340 0.374512
O O2 0.093679 0.399839 0.399203
O O3 0.000000 0.279544 0.500000
O O4 0.973638 0.308369 0.318836
O O5 0.895176 0.335362 0.166736
O O6 0.841733 0.374333 0.339218
O O7 0.883137 0.114269 0.287424
O O8 0.250000 0.250000 0.162465
O O9 0.372681 0.098692 0.167585
O O10 0.370237 0.351295 0.226118
O O11 0.295564 0.131606 0.314562
O O12 0.000000 0.500000 0.878346
O O13 0.101059 0.500000 0.000000
O O14 0.500000 0.500000 0.761820
O O15 0.197933 0.500000 0.500000
#
# Coordination Sequence:
#
# PCOD9322368 Si02
#       6
#     8   8   8   8   8   8
#     4  10  17  27  48  82 119 154 198 244 297 349
#     4  10  18  30  50  81 117 146 192 251 297 345
#     4  10  22  42  61  84 125 164 195 248 316 370
#     4  10  20  38  65  91 115 154 208 260 305 367
#     4   9  19  33  53  82 119 152 193 247 304 347
#     4  10  18  31  51  77 110 159 205 234 281 355
#
# _framework density 19.218616000000001
#
# number of rings (size 3 to 8) (size 9 to 14) (size 15 to 20)
#    0.000    2.167    1.667    4.500    0.000    3.000 
#    0.000    7.500    0.000    5.000    0.000    0.000 
#    0.000    0.000    0.000    0.000    0.000    0.000 
#
# Total GULP energy -133671.619503 kJ/mol
# GULP energy per Si atom -5569.650813 kJ/mol
# Density = 1.917487 g / cm^3
# Si number density = 19.218616 Si / 1000 Ang^3
#
#
#
# Elastic Constant Matrix: (Units=GPa)
#
#
# Indices 1 2 3 4 5 6 
#
# 1 43.4839 19.2405 0.3982 0.0000 0.0000 0.0000
# 2 19.2405 146.2312 26.1888 0.0000 0.0000 0.0000
# 3 0.3982 26.1888 94.3938 0.0000 0.0000 0.0000
# 4 0.0000 0.0000 0.0000 8.6696 0.0000 0.0000
# 5 0.0000 0.0000 0.0000 0.0000 -71.0333 0.0000
# 6 0.0000 0.0000 0.0000 0.0000 0.0000 16.0785
#
#
#
# Elastic Compliance Matrix: (Units=1/GPa)
#
#
# Indices 1 2 3 4 5 6 
#
# 1 0.024481 -0.003370 0.000832 0.000000 0.000000 0.000000
# 2 -0.003370 0.007660 -0.002111 0.000000 0.000000 0.000000
# 3 0.000832 -0.002111 0.011176 0.000000 0.000000 0.000000
# 4 0.000000 0.000000 0.000000 0.115346 0.000000 0.000000
# 5 0.000000 0.000000 0.000000 0.000000 -0.014078 0.000000
# 6 0.000000 0.000000 0.000000 0.000000 0.000000 0.062195
#
#
# Mechanical properties :
#
#
# Convention : Reuss Voigt Hill
#
# Bulk Modulus (GPa) = 29.39619 41.75155 35.57387
# Shear Modulus (GPa) = 21.98606 6.62840 14.30723
#
# Velocity S-wave (km/s) = 3.38597 1.85915 2.73141
# Velocity P-wave (km/s) = 5.53311 5.13617 5.33833
#
# Compressibility (1/GPa) = 0.03401801
#
# Stress axis : x y z
#
# Youngs Moduli (GPa) = 40.84882 130.54914 89.47683
#
# Poissons Ratio (x) = 0.43995 -0.07442
# Poissons Ratio (y) = 0.13766 0.18888
# Poissons Ratio (z) = -0.03397 0.27559
#
# Static dielectric constant tensor:
#      x y z
#    x 1.691680 0.000000 0.000000 
#    y 0.000000 1.786710 0.000000 
#    z 0.000000 0.000000 1.687040 
# 
# From -- ./inp_files/33165.got.cif
#   From: 2010.05.17/outbox.cif.g08.bks.cpg/sg21_17_cif.got.tgz:33165.got - 2010.06.03 23:14:55.
