data_PCOD9322400
_publ_section_title
;
Structure prediction by ZEFSAII (Michael W. Deem and Ramdas Pophale) SiO2 
 PCOD9322400
Probable space group: C 2 2 2
;
_chemical_formula_sum "Si O2"
_cell_formula_units_Z 40
_cell_length_a 9.678315
_cell_length_b 21.514309
_cell_length_c 9.040180
_cell_angle_alpha 90.000000
_cell_angle_beta 90.000000
_cell_angle_gamma 90.000000
_cell_volume 1882.366706
_symmetry_space_group_name_H-M "C 2 2 2"
_symmetry_group_IT_number 21
_symmetry_cell_setting 'orthorhombic'
loop_
_space_group_symop_operation_xyz
x,y,z
-x,-y,z
x,-y,-z
-x,y,-z
1/2+x,1/2+y,z
1/2-x,1/2-y,z
1/2+x,1/2-y,-z
1/2-x,1/2+y,-z
loop_
_atom_site_type_symbol
_atom_site_label
_atom_site_fract_x
_atom_site_fract_y
_atom_site_fract_z
Si Si1 0.946022 0.651597 0.332001
Si Si2 0.142877 0.905340 0.744259
Si Si3 0.373357 0.049017 0.756556
Si Si4 0.178000 0.000000 0.500000
Si Si5 0.593223 0.730029 0.145417
Si Si6 0.819551 0.000000 0.000000
O O1 0.802195 0.615438 0.294637
O O2 0.938837 0.721564 0.276313
O O3 0.000000 0.646429 0.500000
O O4 0.061596 0.616215 0.239768
O O5 0.104351 0.948475 0.604262
O O6 0.078166 0.839344 0.787674
O O7 0.116235 0.951186 0.883883
O O8 0.500000 0.000000 0.754316
O O9 0.278364 0.036154 0.614358
O O10 0.278922 0.040452 0.897039
O O11 0.750000 0.750000 0.103173
O O12 0.500000 0.736484 0.000000
#
# Coordination Sequence:
#
# PCOD9322400 Si02
#       6
#     8   8   8   4   8   4
#     4  11  20  34  58  91 131 172 211 274 339 384
#     4  10  21  37  58  92 133 166 219 271 328 400
#     4  11  17  26  51  89 132 164 205 272 333 387
#     4  10  17  32  56  92 131 166 200 269 345 382
#     4  10  25  45  66  92 134 178 226 271 321 398
#     4  10  21  28  55  94 126 166 212 264 336 382
#
# _framework density 21.249844
#
# number of rings (size 3 to 8) (size 9 to 14) (size 15 to 20)
#    0.000    1.600    6.000    0.600    5.600    0.000 
#    0.000    7.500    0.000    0.000    0.000    0.000 
#    0.000    0.000    0.000    0.000    0.000    0.000 
#
# Total GULP energy -111573.864030 kJ/mol
# GULP energy per Si atom -5578.693201 kJ/mol
# Density = 2.120148 g / cm^3
# Si number density = 21.249844 Si / 1000 Ang^3
#
#
#
# Elastic Constant Matrix: (Units=GPa)
#
#
# Indices 1 2 3 4 5 6 
#
# 1 44.5235 32.3111 35.3086 0.0000 0.0000 0.0000
# 2 32.3111 166.8903 46.4094 0.0000 0.0000 0.0000
# 3 35.3086 46.4094 110.1762 0.0000 0.0000 0.0000
# 4 0.0000 0.0000 0.0000 19.7809 0.0000 0.0000
# 5 0.0000 0.0000 0.0000 0.0000 31.4279 0.0000
# 6 0.0000 0.0000 0.0000 0.0000 0.0000 23.1516
#
#
#
# Elastic Compliance Matrix: (Units=1/GPa)
#
#
# Indices 1 2 3 4 5 6 
#
# 1 0.032109 -0.003800 -0.008689 0.000000 0.000000 0.000000
# 2 -0.003800 0.007237 -0.001830 0.000000 0.000000 0.000000
# 3 -0.008689 -0.001830 0.012632 0.000000 0.000000 0.000000
# 4 0.000000 0.000000 0.000000 0.050554 0.000000 0.000000
# 5 0.000000 0.000000 0.000000 0.000000 0.031819 0.000000
# 6 0.000000 0.000000 0.000000 0.000000 0.000000 0.043193
#
#
# Mechanical properties :
#
#
# Convention : Reuss Voigt Hill
#
# Bulk Modulus (GPa) = 42.84895 61.07203 51.96049
# Shear Modulus (GPa) = 23.36854 28.70947 26.03901
#
# Velocity S-wave (km/s) = 3.31978 3.67964 3.50433
# Velocity P-wave (km/s) = 5.90785 6.84510 6.39367
#
# Compressibility (1/GPa) = 0.02333779
#
# Stress axis : x y z
#
# Youngs Moduli (GPa) = 31.14414 138.18437 79.16327
#
# Poissons Ratio (x) = 0.52512 0.68787
# Poissons Ratio (y) = 0.11835 0.14491
# Poissons Ratio (z) = 0.27062 0.25294
#
# Static dielectric constant tensor:
#      x y z
#    x 1.865600 0.000000 0.000000 
#    y 0.000000 1.766150 0.000000 
#    z 0.000000 0.000000 1.689770 
# 
# From -- ./inp_files/13092.got.cif
#   From: 2010.05.17/outbox.cif.g08.bks.cpg/sg21_7_cif.got.tgz:13092.got - 2010.06.03 23:14:55.
