data_PCOD9322720
_publ_section_title
;
Structure prediction by ZEFSAII (Michael W. Deem and Ramdas Pophale) SiO2 
 PCOD9322720
Probable space group: C 2 2 2
;
_chemical_formula_sum "Si O2"
_cell_formula_units_Z 48
_cell_length_a 15.085226
_cell_length_b 18.038912
_cell_length_c 9.528124
_cell_angle_alpha 90.000000
_cell_angle_beta 90.000000
_cell_angle_gamma 90.000000
_cell_volume 2592.803244
_symmetry_space_group_name_H-M "C 2 2 2"
_symmetry_group_IT_number 21
_symmetry_cell_setting 'orthorhombic'
loop_
_space_group_symop_operation_xyz
x,y,z
-x,-y,z
x,-y,-z
-x,y,-z
1/2+x,1/2+y,z
1/2-x,1/2-y,z
1/2+x,1/2-y,-z
1/2-x,1/2+y,-z
loop_
_atom_site_type_symbol
_atom_site_label
_atom_site_fract_x
_atom_site_fract_y
_atom_site_fract_z
Si Si1 0.846013 0.784635 0.348749
Si Si2 0.903229 0.528381 0.160652
Si Si3 0.770914 0.553752 0.634365
Si Si4 0.600998 0.587217 0.514407
Si Si5 0.535942 0.196099 0.844074
Si Si6 0.417180 0.174894 0.582570
O O1 0.750000 0.750000 0.332441
O O2 0.848248 0.870620 0.388594
O O3 0.902561 0.761554 0.213933
O O4 0.889091 0.743704 0.485043
O O5 0.820903 0.492450 0.243784
O O6 0.911050 0.617651 0.166600
O O7 0.000000 0.500000 0.215600
O O8 0.898306 0.500000 0.000000
O O9 0.769544 0.500000 0.500000
O O10 0.671220 0.588774 0.644959
O O11 0.835387 0.621174 0.598260
O O12 0.589990 0.500000 0.500000
O O13 0.500000 0.617227 0.500000
O O14 0.454328 0.193915 0.735199
O O15 0.500000 0.204271 0.000000
O O16 0.500000 0.138419 0.500000
#
# Coordination Sequence:
#
# PCOD9322720 Si02
#       6
#     8   8   8   8   8   8
#     4  11  22  39  62  90 122 161 219 283 334 392
#     4  11  20  34  55  91 142 176 197 246 324 424
#     4  11  20  30  56  89 118 162 213 259 320 389
#     4  10  22  40  61  85 117 161 216 276 325 370
#     4  11  21  36  59  88 133 176 201 251 341 410
#     4  10  19  31  54  86 120 154 199 259 325 393
#
# _framework density 18.512782000000001
#
# number of rings (size 3 to 8) (size 9 to 14) (size 15 to 20)
#    0.000    1.333    5.000    3.500    2.333    0.000 
#    0.000    0.833    3.667    0.000    0.000    9.333 
#    0.000    0.000    0.000    0.000    0.000    0.000 
#
# Total GULP energy -133647.639548 kJ/mol
# GULP energy per Si atom -5568.651648 kJ/mol
# Density = 1.847065 g / cm^3
# Si number density = 18.512782 Si / 1000 Ang^3
#
#
#
# Elastic Constant Matrix: (Units=GPa)
#
#
# Indices 1 2 3 4 5 6 
#
# 1 142.6944 18.3963 43.4300 0.0000 0.0000 0.0000
# 2 18.3963 79.5418 19.9085 0.0000 0.0000 0.0000
# 3 43.4300 19.9085 109.0614 0.0000 0.0000 0.0000
# 4 0.0000 0.0000 0.0000 22.6727 0.0000 0.0000
# 5 0.0000 0.0000 0.0000 0.0000 24.4117 0.0000
# 6 0.0000 0.0000 0.0000 0.0000 0.0000 21.5649
#
#
#
# Elastic Compliance Matrix: (Units=1/GPa)
#
#
# Indices 1 2 3 4 5 6 
#
# 1 0.008067 -0.001113 -0.003009 0.000000 0.000000 0.000000
# 2 -0.001113 0.013327 -0.001990 0.000000 0.000000 0.000000
# 3 -0.003009 -0.001990 0.010731 0.000000 0.000000 0.000000
# 4 0.000000 0.000000 0.000000 0.044106 0.000000 0.000000
# 5 0.000000 0.000000 0.000000 0.000000 0.040964 0.000000
# 6 0.000000 0.000000 0.000000 0.000000 0.000000 0.046372
#
#
# Mechanical properties :
#
#
# Convention : Reuss Voigt Hill
#
# Bulk Modulus (GPa) = 50.24654 54.97412 52.61033
# Shear Modulus (GPa) = 27.40862 30.36741 28.88801
#
# Velocity S-wave (km/s) = 3.85193 4.05452 3.95452
# Velocity P-wave (km/s) = 6.85446 7.18877 7.02361
#
# Compressibility (1/GPa) = 0.01990187
#
# Stress axis : x y z
#
# Youngs Moduli (GPa) = 123.95623 75.03376 93.18984
#
# Poissons Ratio (x) = 0.08348 0.28045
# Poissons Ratio (y) = 0.13791 0.18543
# Poissons Ratio (z) = 0.37304 0.14930
#
# Static dielectric constant tensor:
#      x y z
#    x 1.732450 0.000000 0.000000 
#    y 0.000000 1.713760 0.000000 
#    z 0.000000 0.000000 1.621920 
# 
# From -- ./inp_files/14971.got.cif
#   From: 2010.05.17/outbox.cif.g08.bks.cpg/sg21_8_cif.got.tgz:14971.got - 2010.06.03 23:14:55.
