data_PCOD9322228
_publ_section_title
;
Structure prediction by ZEFSAII (Michael W. Deem and Ramdas Pophale) SiO2 
 PCOD9322228
Probable space group: C 2 2 21
;
_chemical_formula_sum "Si O2"
_cell_formula_units_Z 24
_cell_length_a 30.000000
_cell_length_b 9.000000
_cell_length_c 9.000000
_cell_angle_alpha 90.000000
_cell_angle_beta 90.000000
_cell_angle_gamma 90.000000
_cell_volume 2430.000000
_symmetry_space_group_name_H-M "C 2 2 21"
_symmetry_group_IT_number 20
_symmetry_cell_setting 'orthorhombic'
loop_
_space_group_symop_operation_xyz
x,y,z
-x,-y,1/2+z
x,-y,-z
-x,y,1/2-z
1/2+x,1/2+y,z
1/2-x,1/2-y,1/2+z
1/2+x,1/2-y,-z
1/2-x,1/2+y,1/2-z
loop_
_atom_site_type_symbol
_atom_site_label
_atom_site_fract_x
_atom_site_fract_y
_atom_site_fract_z
Si Si1 0.585664 0.915222 0.264375
Si Si2 0.037878 0.000000 0.500000
Si Si3 0.668736 0.839669 0.052204
Si Si4 0.232141 0.081842 0.159657
Si Si5 0.686470 0.712848 0.742143
Si Si6 0.000000 0.783350 0.750000
Si Si7 0.097173 0.271593 0.588743
O O1 0.625064 0.881377 0.147488
O O2 0.541039 0.828366 0.215023
O O3 0.595935 0.839802 0.423495
O O4 0.582385 0.092413 0.301063
O O5 0.067641 0.121513 0.590029
O O6 0.010841 0.106073 0.387020
O O7 0.699915 0.725812 0.143607
O O8 0.662666 0.746422 0.900228
O O9 0.688111 0.000000 0.000000
O O10 0.277596 0.156224 0.216387
O O11 0.210194 0.948333 0.254607
O O12 0.239340 0.000000 0.000000
O O13 0.647644 0.726420 0.623416
#
# Coordination Sequence:
#
# PCOD9322228 Si02
#       7
#     8   4   8   8   8   4   8
#     4  10  23  44  68  95 131 175 215 268 330 401
#     4  10  24  46  66 108 126 172 216 272 328 388
#     4  11  22  42  65  97 129 166 225 270 331 380
#     4  10  25  41  63  98 135 174 224 270 329 377
#     4  11  23  41  65  95 132 179 221 274 315 390
#     4  10  24  46  70 100 136 166 218 270 328 394
#     4  10  23  42  69  93 132 173 222 257 333 391
#
# _framework density 9.8765429999999999
#
# number of rings (size 3 to 8) (size 9 to 14) (size 15 to 20)
#    0.000    1.667    1.667    1.000    7.000    3.333 
#    9.000    0.000    0.000    0.000    0.000    0.000 
#    0.000    0.000    0.000    0.000    0.000    0.000 
#
# Total GULP energy -133927.656307 kJ/mol
# GULP energy per Si atom -5580.319013 kJ/mol
# Density = 0.985406 g / cm^3
# Si number density = 9.876543 Si / 1000 Ang^3
#
#
#
# Elastic Constant Matrix: (Units=GPa)
#
#
# Indices 1 2 3 4 5 6 
#
# 1 125.6499 84.8956 56.4047 0.0000 0.0000 0.0000
# 2 84.8956 183.5230 42.4215 0.0000 0.0000 0.0000
# 3 56.4047 42.4215 38.4683 0.0000 0.0000 0.0000
# 4 0.0000 0.0000 0.0000 35.6455 0.0000 0.0000
# 5 0.0000 0.0000 0.0000 0.0000 31.0517 0.0000
# 6 0.0000 0.0000 0.0000 0.0000 0.0000 34.1618
#
#
#
# Elastic Compliance Matrix: (Units=1/GPa)
#
#
# Indices 1 2 3 4 5 6 
#
# 1 0.025524 -0.004236 -0.032753 0.000000 0.000000 0.000000
# 2 -0.004236 0.008016 -0.002629 0.000000 0.000000 0.000000
# 3 -0.032753 -0.002629 0.076919 0.000000 0.000000 0.000000
# 4 0.000000 0.000000 0.000000 0.028054 0.000000 0.000000
# 5 0.000000 0.000000 0.000000 0.000000 0.032204 0.000000
# 6 0.000000 0.000000 0.000000 0.000000 0.000000 0.029272
#
#
# Mechanical properties :
#
#
# Convention : Reuss Voigt Hill
#
# Bulk Modulus (GPa) = 32.02769 79.45388 55.74078
# Shear Modulus (GPa) = 17.26325 31.09977 24.18151
#
# Velocity S-wave (km/s) = 2.95948 3.97221 3.50264
# Velocity P-wave (km/s) = 5.28462 7.83255 6.68117
#
# Compressibility (1/GPa) = 0.03122298
#
# Stress axis : x y z
#
# Youngs Moduli (GPa) = 39.17930 124.74922 13.00073
#
# Poissons Ratio (x) = 0.52845 0.42581
# Poissons Ratio (y) = 0.16597 0.03417
# Poissons Ratio (z) = 1.28324 0.32792
#
# Static dielectric constant tensor:
#      x y z
#    x 1.700280 0.000000 0.000000 
#    y 0.000000 1.672170 0.000000 
#    z 0.000000 0.000000 1.728840 
# 
# From -- ./inp_files/11503.got.cif
#   From: 2010.05.17/outbox.ucp.g08.bks.cvg/sg20_6_cif.got.tgz:11503.got - 2010.06.11 15:13:06.
