data_PCOD9322958
_publ_section_title
;
Structure prediction by ZEFSAII (Michael W. Deem and Ramdas Pophale) SiO2 
 PCOD9322958
Probable space group: C 2 2 2
;
_chemical_formula_sum "Si O2"
_cell_formula_units_Z 34
_cell_length_a 18.098296
_cell_length_b 9.838816
_cell_length_c 9.329989
_cell_angle_alpha 90.000000
_cell_angle_beta 90.000000
_cell_angle_gamma 90.000000
_cell_volume 1661.351995
_symmetry_space_group_name_H-M "C 2 2 2"
_symmetry_group_IT_number 21
_symmetry_cell_setting 'orthorhombic'
loop_
_space_group_symop_operation_xyz
x,y,z
-x,-y,z
x,-y,-z
-x,y,-z
1/2+x,1/2+y,z
1/2-x,1/2-y,z
1/2+x,1/2-y,-z
1/2-x,1/2+y,-z
loop_
_atom_site_type_symbol
_atom_site_label
_atom_site_fract_x
_atom_site_fract_y
_atom_site_fract_z
Si Si1 0.500000 0.500000 0.000000
Si Si2 0.140307 0.707632 0.835189
Si Si3 0.268484 0.478302 0.171425
Si Si4 0.119343 0.803298 0.151890
Si Si5 0.505950 0.161718 0.338204
O O1 0.556370 0.409734 0.095318
O O2 0.187157 0.574915 0.789268
O O3 0.181504 0.846948 0.792860
O O4 0.060478 0.708312 0.764969
O O5 0.138727 0.717735 0.008728
O O6 0.311338 0.613976 0.217036
O O7 0.269283 0.500000 0.000000
O O8 0.081654 0.709635 0.268340
O O9 0.500000 0.215045 0.500000
O O10 0.500000 0.000000 0.342274
#
# Coordination Sequence:
#
# PCOD9322958 Si02
#       5
#     2   8   8   8   8
#     4  12  16  36  60 100 124 148 208 266 304 376
#     4  10  19  36  62  89 122 159 196 258 321 363
#     4   9  19  34  60  93 125 148 197 261 317 370
#     4  11  19  37  65  93 126 159 207 266 314 371
#     4  11  25  41  59  84 126 170 217 255 303 373
#
# _framework density 20.465259
#
# number of rings (size 3 to 8) (size 9 to 14) (size 15 to 20)
#    0.000    1.647    5.882    0.000    3.294    0.941 
#    0.000    5.294   20.706    0.000    0.000    0.000 
#    0.000    0.000    0.000    0.000    0.000    0.000 
#
# Total GULP energy -94848.099542 kJ/mol
# GULP energy per Si atom -5579.299973 kJ/mol
# Density = 2.041868 g / cm^3
# Si number density = 20.465259 Si / 1000 Ang^3
#
#
#
# Elastic Constant Matrix: (Units=GPa)
#
#
# Indices 1 2 3 4 5 6 
#
# 1 99.1336 55.3095 21.9157 0.0000 0.0000 0.0000
# 2 55.3095 79.8672 34.7476 0.0000 0.0000 0.0000
# 3 21.9157 34.7476 57.9533 0.0000 0.0000 0.0000
# 4 0.0000 0.0000 0.0000 89.6955 0.0000 0.0000
# 5 0.0000 0.0000 0.0000 0.0000 -0.2890 0.0000
# 6 0.0000 0.0000 0.0000 0.0000 0.0000 63.4878
#
#
#
# Elastic Compliance Matrix: (Units=1/GPa)
#
#
# Indices 1 2 3 4 5 6 
#
# 1 0.016468 -0.011764 0.000826 0.000000 0.000000 0.000000
# 2 -0.011764 0.025343 -0.010746 0.000000 0.000000 0.000000
# 3 0.000826 -0.010746 0.023386 0.000000 0.000000 0.000000
# 4 0.000000 0.000000 0.000000 0.011149 0.000000 0.000000
# 5 0.000000 0.000000 0.000000 0.000000 -3.459842 0.000000
# 6 0.000000 0.000000 0.000000 0.000000 0.000000 0.015751
#
#
# Mechanical properties :
#
#
# Convention : Reuss Voigt Hill
#
# Bulk Modulus (GPa) = 45.81194 51.21107 48.51151
# Shear Modulus (GPa) = -1.50734 38.91093 18.70180
#
# Velocity S-wave (km/s) = -0.85915 4.36514 3.02624
# Velocity P-wave (km/s) = 4.63138 7.10519 5.99722
#
# Compressibility (1/GPa) = 0.02182837
#
# Stress axis : x y z
#
# Youngs Moduli (GPa) = 60.72302 39.45880 42.75987
#
# Poissons Ratio (x) = 0.46419 -0.03531
# Poissons Ratio (y) = 0.71433 0.45952
# Poissons Ratio (z) = -0.05014 0.42404
#
# Static dielectric constant tensor:
#      x y z
#    x 1.744060 0.000000 0.000000 
#    y 0.000000 1.777380 0.000000 
#    z 0.000000 0.000000 1.676530 
# 
# From -- ./inp_files/10587.got.cif
#   From: 2010.05.17/outbox.cif.g08.bks.cpg/sg21_6_cif.got.tgz:10587.got - 2010.06.03 23:14:55.
