data_PCOD9322310
_publ_section_title
;
Structure prediction by ZEFSAII (Michael W. Deem and Ramdas Pophale) SiO2 
 PCOD9322310
Probable space group: C 2 2 2
;
_chemical_formula_sum "Si O2"
_cell_formula_units_Z 48
_cell_length_a 20.473847
_cell_length_b 35.586943
_cell_length_c 5.394682
_cell_angle_alpha 90.000000
_cell_angle_beta 90.000000
_cell_angle_gamma 90.000000
_cell_volume 3930.574078
_symmetry_space_group_name_H-M "C 2 2 2"
_symmetry_group_IT_number 21
_symmetry_cell_setting 'orthorhombic'
loop_
_space_group_symop_operation_xyz
x,y,z
-x,-y,z
x,-y,-z
-x,y,-z
1/2+x,1/2+y,z
1/2-x,1/2-y,z
1/2+x,1/2-y,-z
1/2-x,1/2+y,-z
loop_
_atom_site_type_symbol
_atom_site_label
_atom_site_fract_x
_atom_site_fract_y
_atom_site_fract_z
Si Si1 0.767114 0.794799 0.000516
Si Si2 0.079281 0.587236 0.999998
Si Si3 0.079330 0.543249 0.499998
Si Si4 0.423799 0.214383 0.499925
Si Si5 0.622590 0.827059 0.999926
Si Si6 0.185890 0.222731 0.500516
O O1 0.750000 0.750000 0.000742
O O2 0.699229 0.816822 0.000016
O O3 0.807340 0.800962 0.250664
O O4 0.807503 0.800900 0.750680
O O5 0.098477 0.564876 0.750919
O O6 0.108538 0.628825 0.000008
O O7 0.098477 0.564875 0.249072
O O8 0.000000 0.590532 0.000000
O O9 0.101571 0.500000 0.500000
O O10 0.000000 0.542512 0.500000
O O11 0.500000 0.223973 0.500000
O O12 0.407324 0.191081 0.250181
O O13 0.376727 0.250545 0.500016
O O14 0.407302 0.191062 0.749580
O O15 0.250000 0.250000 0.500742
#
# Coordination Sequence:
#
# PCOD9322310 Si02
#       6
#     8   8   8   8   8   8
#     4  10  16  29  45  53  66 100 134 150 175 238
#     4  10  19  28  38  57  78  92 114 155 202 234
#     4   9  17  30  44  53  67  96 126 146 177 236
#     4  12  21  28  40  57  76  98 123 159 206 242
#     4  12  20  30  41  57  80  99 120 158 206 244
#     4  10  16  30  42  52  67  95 133 155 176 236
#
# _framework density 12.211957
#
# number of rings (size 3 to 8) (size 9 to 14) (size 15 to 20)
#    0.000    1.500    6.667    3.000    0.000    3.333 
#    0.000    0.000    0.000    0.000    0.000    0.000 
#    0.000    0.000    0.000    0.000    0.000    0.000 
#
# Total GULP energy -133741.515447 kJ/mol
# GULP energy per Si atom -5572.563144 kJ/mol
# Density = 1.218416 g / cm^3
# Si number density = 12.211957 Si / 1000 Ang^3
#
#
#
# Elastic Constant Matrix: (Units=GPa)
#
#
# Indices 1 2 3 4 5 6 
#
# 1 66.3095 50.2279 44.5972 0.0000 0.0000 0.0000
# 2 50.2279 64.8983 43.6727 0.0000 0.0000 0.0000
# 3 44.5972 43.6727 146.1843 0.0000 0.0000 0.0000
# 4 0.0000 0.0000 0.0000 14.1839 0.0000 0.0000
# 5 0.0000 0.0000 0.0000 0.0000 8.7479 0.0000
# 6 0.0000 0.0000 0.0000 0.0000 0.0000 15.3775
#
#
#
# Elastic Compliance Matrix: (Units=1/GPa)
#
#
# Indices 1 2 3 4 5 6 
#
# 1 0.037825 -0.026921 -0.003497 0.000000 0.000000 0.000000
# 2 -0.026921 0.038447 -0.003273 0.000000 0.000000 0.000000
# 3 -0.003497 -0.003273 0.008885 0.000000 0.000000 0.000000
# 4 0.000000 0.000000 0.000000 0.070503 0.000000 0.000000
# 5 0.000000 0.000000 0.000000 0.000000 0.114313 0.000000
# 6 0.000000 0.000000 0.000000 0.000000 0.000000 0.065030
#
#
# Mechanical properties :
#
#
# Convention : Reuss Voigt Hill
#
# Bulk Modulus (GPa) = 56.25890 61.59864 58.92877
# Shear Modulus (GPa) = 12.24559 16.92148 14.58353
#
# Velocity S-wave (km/s) = 3.17006 3.72647 3.45947
# Velocity P-wave (km/s) = 7.71802 8.31061 8.01979
#
# Compressibility (1/GPa) = 0.01777496
#
# Stress axis : x y z
#
# Youngs Moduli (GPa) = 26.43766 26.00978 112.54631
#
# Poissons Ratio (x) = 0.70022 0.39353
# Poissons Ratio (y) = 0.71174 0.36837
# Poissons Ratio (z) = 0.09244 0.08513
#
# Static dielectric constant tensor:
#      x y z
#    x 1.367830 0.000000 0.000000 
#    y 0.000000 1.365180 0.000000 
#    z 0.000000 0.000000 1.661940 
# 
# From -- ./inp_files/5354.got.cif
#   From: 2010.05.17/outbox.cif.g08.bks.cpg/sg21_3_cif.got.tgz:5354.got - 2010.06.03 23:14:55.
