data_PCOD9322420
_publ_section_title
;
Structure prediction by ZEFSAII (Michael W. Deem and Ramdas Pophale) SiO2 
 PCOD9322420
Probable space group: C 2 2 2
;
_chemical_formula_sum "Si O2"
_cell_formula_units_Z 56
_cell_length_a 22.601421
_cell_length_b 8.468509
_cell_length_c 14.013806
_cell_angle_alpha 90.000000
_cell_angle_beta 90.000000
_cell_angle_gamma 90.000000
_cell_volume 2682.247193
_symmetry_space_group_name_H-M "C 2 2 2"
_symmetry_group_IT_number 21
_symmetry_cell_setting 'orthorhombic'
loop_
_space_group_symop_operation_xyz
x,y,z
-x,-y,z
x,-y,-z
-x,y,-z
1/2+x,1/2+y,z
1/2-x,1/2-y,z
1/2+x,1/2-y,-z
1/2-x,1/2+y,-z
loop_
_atom_site_type_symbol
_atom_site_label
_atom_site_fract_x
_atom_site_fract_y
_atom_site_fract_z
Si Si1 0.081277 0.602650 0.649914
Si Si2 0.749345 0.000000 0.000000
Si Si3 0.577640 0.629936 0.838613
Si Si4 0.552137 0.257719 0.848553
Si Si5 0.100080 0.771398 0.373098
Si Si6 0.500000 0.717777 0.500000
Si Si7 0.186911 0.682033 0.531486
Si Si8 0.657678 0.741422 0.007696
O O1 0.060644 0.656512 0.753222
O O2 0.084446 0.415108 0.636393
O O3 0.039107 0.675143 0.569746
O O4 0.144172 0.679294 0.622735
O O5 0.700964 0.125857 0.037558
O O6 0.795898 0.115591 0.945551
O O7 0.563928 0.444313 0.835304
O O8 0.518945 0.733514 0.866694
O O9 0.602655 0.671565 0.734617
O O10 0.624440 0.660502 0.920593
O O11 0.603956 0.205321 0.922606
O O12 0.047037 0.861273 0.428622
O O13 0.156309 0.775129 0.443137
O O14 0.191544 0.500000 0.500000
O O15 0.250000 0.750000 0.553787
#
# Coordination Sequence:
#
# PCOD9322420 Si02
#       8
#     8   4   8   8   8   4   8   8
#     4  10  20  36  61  89 118 157 207 252 307 366
#     4  10  24  46  72  86 120 170 216 250 308 382
#     4  11  23  40  62  94 129 165 205 257 321 373
#     4  11  23  40  62  94 129 165 205 257 321 373
#     4  10  20  36  61  89 118 157 207 252 307 366
#     4  10  17  36  63  84 121 158 195 260 309 356
#     4   9  20  39  57  82 117 162 203 251 308 363
#     4  11  23  47  66  93 124 167 208 260 311 373
#
# _framework density 20.878014
#
# number of rings (size 3 to 8) (size 9 to 14) (size 15 to 20)
#    0.000    1.714    2.857    2.571    2.000    2.286 
#    5.143    3.571    0.000    0.000    0.000    0.000 
#    0.000    0.000    0.000    0.000    0.000    0.000 
#
# Total GULP energy -155991.814745 kJ/mol
# GULP energy per Si atom -5571.136241 kJ/mol
# Density = 2.083049 g / cm^3
# Si number density = 20.878014 Si / 1000 Ang^3
#
#
#
# Elastic Constant Matrix: (Units=GPa)
#
#
# Indices 1 2 3 4 5 6 
#
# 1 127.8390 31.5718 21.3411 0.0000 0.0000 0.0000
# 2 31.5718 24.5043 11.0112 0.0000 0.0000 0.0000
# 3 21.3411 11.0112 77.7394 0.0000 0.0000 0.0000
# 4 0.0000 0.0000 0.0000 22.7467 0.0000 0.0000
# 5 0.0000 0.0000 0.0000 0.0000 11.8813 0.0000
# 6 0.0000 0.0000 0.0000 0.0000 0.0000 30.8797
#
#
#
# Elastic Compliance Matrix: (Units=1/GPa)
#
#
# Indices 1 2 3 4 5 6 
#
# 1 0.011566 -0.014391 -0.001137 0.000000 0.000000 0.000000
# 2 -0.014391 0.061490 -0.004759 0.000000 0.000000 0.000000
# 3 -0.001137 -0.004759 0.013850 0.000000 0.000000 0.000000
# 4 0.000000 0.000000 0.000000 0.043962 0.000000 0.000000
# 5 0.000000 0.000000 0.000000 0.000000 0.084166 0.000000
# 6 0.000000 0.000000 0.000000 0.000000 0.000000 0.032384
#
#
# Mechanical properties :
#
#
# Convention : Reuss Voigt Hill
#
# Bulk Modulus (GPa) = 21.58351 39.77009 30.67680
# Shear Modulus (GPa) = 16.47796 24.17878 20.32837
#
# Velocity S-wave (km/s) = 2.81241 3.40678 3.12376
# Velocity P-wave (km/s) = 4.57237 5.87920 5.26647
#
# Compressibility (1/GPa) = 0.04633168
#
# Stress axis : x y z
#
# Youngs Moduli (GPa) = 86.45813 16.26286 72.20418
#
# Poissons Ratio (x) = 0.23405 0.08208
# Poissons Ratio (y) = 1.24426 0.34361
# Poissons Ratio (z) = 0.09828 0.07739
#
# Static dielectric constant tensor:
#      x y z
#    x 1.777350 0.000000 0.000000 
#    y 0.000000 1.815620 0.000000 
#    z 0.000000 0.000000 1.701840 
# 
# From -- ./inp_files/33336.got.cif
#   From: 2010.05.17/outbox.cif.g08.bks.cpg/sg21_17_cif.got.tgz:33336.got - 2010.06.03 23:14:55.
