data_PCOD9322217
_publ_section_title
;
Structure prediction by ZEFSAII (Michael W. Deem and Ramdas Pophale) SiO2 
 PCOD9322217
Probable space group: C 2 2 21
;
_chemical_formula_sum "Si O2"
_cell_formula_units_Z 32
_cell_length_a 9.000000
_cell_length_b 12.000000
_cell_length_c 30.000000
_cell_angle_alpha 90.000000
_cell_angle_beta 90.000000
_cell_angle_gamma 90.000000
_cell_volume 3240.000000
_symmetry_space_group_name_H-M "C 2 2 21"
_symmetry_group_IT_number 20
_symmetry_cell_setting 'orthorhombic'
loop_
_space_group_symop_operation_xyz
x,y,z
-x,-y,1/2+z
x,-y,-z
-x,y,1/2-z
1/2+x,1/2+y,z
1/2-x,1/2-y,1/2+z
1/2+x,1/2-y,-z
1/2-x,1/2+y,1/2-z
loop_
_atom_site_type_symbol
_atom_site_label
_atom_site_fract_x
_atom_site_fract_y
_atom_site_fract_z
Si Si1 0.414889 0.745795 0.661593
Si Si2 0.895792 0.101162 0.974417
Si Si3 0.679300 0.843894 0.103789
Si Si4 0.805252 0.923419 0.863562
Si Si5 0.939280 0.012674 0.701401
Si Si6 0.326935 0.576939 0.581332
Si Si7 0.782666 0.619198 0.145890
Si Si8 0.396302 0.747238 0.057969
O O1 0.278041 0.830588 0.666099
O O2 0.430193 0.647999 0.698191
O O3 0.385255 0.664460 0.619027
O O4 0.552725 0.830494 0.653882
O O5 0.033760 0.044430 0.948881
O O6 0.798009 0.158496 0.936406
O O7 0.940059 0.191094 0.011516
O O8 0.813400 0.000000 0.000000
O O9 0.700439 0.736547 0.135572
O O10 0.521768 0.819992 0.082033
O O11 0.706852 0.966117 0.125304
O O12 0.846515 0.852425 0.908077
O O13 0.946566 0.970283 0.836904
O O14 0.000000 0.982303 0.750000
O O15 0.787293 0.948871 0.687597
O O16 0.246515 0.471187 0.605404
O O17 0.228782 0.659132 0.551239
#
# Coordination Sequence:
#
# PCOD9322217 Si02
#       8
#     8   8   8   8   8   8   8   8
#     4  10  22  41  68  90 125 160 210 254 314 377
#     4  12  22  38  57  88 129 170 218 268 311 361
#     4  12  21  39  66  89 126 173 213 258 321 375
#     4  11  22  42  65  92 124 169 208 259 316 380
#     4  11  24  43  67  97 127 160 204 258 324 389
#     4  10  22  39  59  92 121 169 216 258 314 374
#     4  11  20  41  69  91 124 170 207 258 321 385
#     4  11  23  38  60  89 129 168 217 264 310 369
#
# _framework density 9.8765429999999999
#
# number of rings (size 3 to 8) (size 9 to 14) (size 15 to 20)
#    0.000    1.000    5.000    3.000    0.000    1.000 
#    0.000    0.625    0.000    0.000    0.000    0.000 
#    0.000    0.000    0.000    0.000    0.000    0.000 
#
# Total GULP energy -178395.855287 kJ/mol
# GULP energy per Si atom -5574.870478 kJ/mol
# Density = 0.985406 g / cm^3
# Si number density = 9.876543 Si / 1000 Ang^3
#
#
#
# Elastic Constant Matrix: (Units=GPa)
#
#
# Indices 1 2 3 4 5 6 
#
# 1 49.3263 35.9304 -15.8626 0.0000 0.0000 0.0000
# 2 35.9304 144.5343 12.3991 0.0000 0.0000 0.0000
# 3 -15.8626 12.3991 22.9009 0.0000 0.0000 0.0000
# 4 0.0000 0.0000 0.0000 23.4042 0.0000 0.0000
# 5 0.0000 0.0000 0.0000 0.0000 7.9975 0.0000
# 6 0.0000 0.0000 0.0000 0.0000 0.0000 45.6679
#
#
#
# Elastic Compliance Matrix: (Units=1/GPa)
#
#
# Indices 1 2 3 4 5 6 
#
# 1 0.041739 -0.013483 0.036211 0.000000 0.000000 0.000000
# 2 -0.013483 0.011611 -0.015625 0.000000 0.000000 0.000000
# 3 0.036211 -0.015625 0.077209 0.000000 0.000000 0.000000
# 4 0.000000 0.000000 0.000000 0.042727 0.000000 0.000000
# 5 0.000000 0.000000 0.000000 0.000000 0.125039 0.000000
# 6 0.000000 0.000000 0.000000 0.000000 0.000000 0.021897
#
#
# Mechanical properties :
#
#
# Convention : Reuss Voigt Hill
#
# Bulk Modulus (GPa) = 6.90775 31.29946 19.10361
# Shear Modulus (GPa) = 14.11350 27.70024 20.90687
#
# Velocity S-wave (km/s) = 2.67591 3.74882 3.25685
# Velocity P-wave (km/s) = 3.61275 5.88371 4.88211
#
# Compressibility (1/GPa) = 0.14476492
#
# Stress axis : x y z
#
# Youngs Moduli (GPa) = 23.95836 86.12606 12.95193
#
# Poissons Ratio (x) = 1.16120 -0.46900
# Poissons Ratio (y) = 0.32302 0.20238
# Poissons Ratio (z) = -0.86756 1.34575
#
# Static dielectric constant tensor:
#      x y z
#    x 1.789970 0.000000 0.000000 
#    y 0.000000 1.675740 0.000000 
#    z 0.000000 0.000000 1.701940 
# 
# From -- ./inp_files/31068.got.cif
#   From: 2010.05.17/outbox.ucp.g08.bks.cvg/sg20_16_cif.got.tgz:31068.got - 2010.06.11 15:13:06.
