data_PCOD9322168
_publ_section_title
;
Structure prediction by ZEFSAII (Michael W. Deem and Ramdas Pophale) SiO2 
 PCOD9322168
Probable space group: C 2 2 21
;
_chemical_formula_sum "Si O2"
_cell_formula_units_Z 32
_cell_length_a 7.998418
_cell_length_b 10.853369
_cell_length_c 12.894982
_cell_angle_alpha 90.000000
_cell_angle_beta 90.000000
_cell_angle_gamma 90.000000
_cell_volume 1119.410576
_symmetry_space_group_name_H-M "C 2 2 21"
_symmetry_group_IT_number 20
_symmetry_cell_setting 'orthorhombic'
loop_
_space_group_symop_operation_xyz
x,y,z
-x,-y,1/2+z
x,-y,-z
-x,y,1/2-z
1/2+x,1/2+y,z
1/2-x,1/2-y,1/2+z
1/2+x,1/2-y,-z
1/2-x,1/2+y,1/2-z
loop_
_atom_site_type_symbol
_atom_site_label
_atom_site_fract_x
_atom_site_fract_y
_atom_site_fract_z
Si Si1 0.697717 0.646068 0.629217
Si Si2 0.684072 0.844111 0.784140
Si Si3 0.894025 0.954068 0.606208
Si Si4 0.461594 0.198850 0.501161
O O1 0.714788 0.705206 0.741882
O O2 0.628275 0.767781 0.564387
O O3 0.877877 0.605319 0.584886
O O4 0.803602 0.932075 0.716190
O O5 0.500000 0.883556 0.750000
O O6 0.951351 0.049196 0.884221
O O7 0.667731 0.825408 0.906407
O O8 0.959327 0.820105 0.573951
O O9 0.798575 0.000000 0.500000
#
# Coordination Sequence:
#
# PCOD9322168 Si02
#       4
#     8   8   8   8
#     4   9  18  34  57  86 123 165 208 262 317 371
#     4   9  18  34  59  86 122 167 210 261 318 375
#     4   9  18  34  58  85 120 160 205 258 312 377
#     4   9  18  34  57  87 120 164 211 259 319 377
#
# _framework density 28.586473000000002
#
# number of rings (size 3 to 8) (size 9 to 14) (size 15 to 20)
#    0.000    3.000    0.000    0.000    0.000    2.000 
#    0.000   18.750    0.000  178.500    0.000    0.000 
#    0.000    0.000    0.000    0.000    0.000    0.000 
#
# Total GULP energy -89119.496198 kJ/mol
# GULP energy per Si atom -5569.968512 kJ/mol
# Density = 2.852141 g / cm^3
# Si number density = 28.586473 Si / 1000 Ang^3
#
#
#
# Elastic Constant Matrix: (Units=GPa)
#
#
# Indices 1 2 3 4 5 6 
#
# 1 83.3033 16.5015 7.7645 0.0000 0.0000 0.0000
# 2 16.5015 132.0210 15.7601 0.0000 0.0000 0.0000
# 3 7.7645 15.7601 117.8337 0.0000 0.0000 0.0000
# 4 0.0000 0.0000 0.0000 46.5989 0.0000 0.0000
# 5 0.0000 0.0000 0.0000 0.0000 53.6489 0.0000
# 6 0.0000 0.0000 0.0000 0.0000 0.0000 42.2355
#
#
#
# Elastic Compliance Matrix: (Units=1/GPa)
#
#
# Indices 1 2 3 4 5 6 
#
# 1 0.012353 -0.001470 -0.000617 0.000000 0.000000 0.000000
# 2 -0.001470 0.007872 -0.000956 0.000000 0.000000 0.000000
# 3 -0.000617 -0.000956 0.008655 0.000000 0.000000 0.000000
# 4 0.000000 0.000000 0.000000 0.021460 0.000000 0.000000
# 5 0.000000 0.000000 0.000000 0.000000 0.018640 0.000000
# 6 0.000000 0.000000 0.000000 0.000000 0.000000 0.023677
#
#
# Mechanical properties :
#
#
# Convention : Reuss Voigt Hill
#
# Bulk Modulus (GPa) = 43.87267 45.91223 44.89245
# Shear Modulus (GPa) = 47.01811 48.03881 47.52846
#
# Velocity S-wave (km/s) = 4.05997 4.10381 4.08195
# Velocity P-wave (km/s) = 6.11216 6.20892 6.16073
#
# Compressibility (1/GPa) = 0.02279323
#
# Stress axis : x y z
#
# Youngs Moduli (GPa) = 80.95120 127.02514 115.53904
#
# Poissons Ratio (x) = 0.18677 0.07133
# Poissons Ratio (y) = 0.11903 0.11046
# Poissons Ratio (z) = 0.04997 0.12144
#
# Static dielectric constant tensor:
#      x y z
#    x 2.335170 0.000000 0.000000 
#    y 0.000000 2.331910 0.000000 
#    z 0.000000 0.000000 2.243620 
# 
# From -- ./inp_files/12556.got.cif
#   From: 2010.05.17/outbox.cif.g08.bks.cpg/sg20_7_cif.got.tgz:12556.got - 2010.06.03 22:52:26.
