data_PCOD9322010
_publ_section_title
;
Structure prediction by ZEFSAII (Michael W. Deem and Ramdas Pophale) SiO2 
 PCOD9322010
Probable space group: C 2 2 21
;
_chemical_formula_sum "Si O2"
_cell_formula_units_Z 32
_cell_length_a 18.703332
_cell_length_b 13.658924
_cell_length_c 4.991087
_cell_angle_alpha 90.000000
_cell_angle_beta 90.000000
_cell_angle_gamma 90.000000
_cell_volume 1275.059971
_symmetry_space_group_name_H-M "C 2 2 21"
_symmetry_group_IT_number 20
_symmetry_cell_setting 'orthorhombic'
loop_
_space_group_symop_operation_xyz
x,y,z
-x,-y,1/2+z
x,-y,-z
-x,y,1/2-z
1/2+x,1/2+y,z
1/2-x,1/2-y,1/2+z
1/2+x,1/2-y,-z
1/2-x,1/2+y,1/2-z
loop_
_atom_site_type_symbol
_atom_site_label
_atom_site_fract_x
_atom_site_fract_y
_atom_site_fract_z
Si Si1 0.231293 0.311322 0.557316
Si Si2 0.434041 0.403571 0.890099
Si Si3 0.818441 0.000000 0.500000
Si Si4 0.076980 0.704434 0.392608
Si Si5 0.500000 0.929130 0.250000
O O1 0.275338 0.261056 0.800616
O O2 0.267924 0.408196 0.437458
O O3 0.154341 0.334336 0.693261
O O4 0.500000 0.348316 0.750000
O O5 0.370684 0.451527 0.720819
O O6 0.471722 0.500000 0.000000
O O7 0.409718 0.321479 0.096402
O O8 0.063962 0.643145 0.665750
O O9 0.000000 0.692278 0.250000
O O10 0.484066 0.000000 0.500000
#
# Coordination Sequence:
#
# PCOD9322010 Si02
#       5
#     8   8   4   8   4
#     4  12  30  52  78 117 168 219 275 337 427 505
#     4  12  24  43  75 118 159 205 264 335 420 496
#     4  12  28  50  74 116 168 214 268 348 416 508
#     4  12  28  50  83 117 164 219 285 351 409 499
#     4  12  28  50  78 118 160 212 284 342 410 480
#
# _framework density 25.09686
#
# number of rings (size 3 to 8) (size 9 to 14) (size 15 to 20)
#    0.000    0.000    6.250    2.250    8.750    0.000 
#    0.000    0.000    0.000    0.000    0.000    0.000 
#    0.000    0.000    0.000    0.000    0.000    0.000 
#
# Total GULP energy -89237.053202 kJ/mol
# GULP energy per Si atom -5577.315825 kJ/mol
# Density = 2.503974 g / cm^3
# Si number density = 25.096860 Si / 1000 Ang^3
#
#
#
# Elastic Constant Matrix: (Units=GPa)
#
#
# Indices 1 2 3 4 5 6 
#
# 1 152.8107 37.5065 21.9125 0.0000 0.0000 0.0000
# 2 37.5065 159.2126 33.5875 0.0000 0.0000 0.0000
# 3 21.9125 33.5875 82.2259 0.0000 0.0000 0.0000
# 4 0.0000 0.0000 0.0000 25.6719 0.0000 0.0000
# 5 0.0000 0.0000 0.0000 0.0000 44.5282 0.0000
# 6 0.0000 0.0000 0.0000 0.0000 0.0000 64.3976
#
#
#
# Elastic Compliance Matrix: (Units=1/GPa)
#
#
# Indices 1 2 3 4 5 6 
#
# 1 0.007074 -0.001388 -0.001318 0.000000 0.000000 0.000000
# 2 -0.001388 0.007146 -0.002549 0.000000 0.000000 0.000000
# 3 -0.001318 -0.002549 0.013554 0.000000 0.000000 0.000000
# 4 0.000000 0.000000 0.000000 0.038953 0.000000 0.000000
# 5 0.000000 0.000000 0.000000 0.000000 0.022458 0.000000
# 6 0.000000 0.000000 0.000000 0.000000 0.000000 0.015529
#
#
# Mechanical properties :
#
#
# Convention : Reuss Voigt Hill
#
# Bulk Modulus (GPa) = 57.92723 64.47359 61.20041
# Shear Modulus (GPa) = 41.32996 47.00239 44.16617
#
# Velocity S-wave (km/s) = 4.06250 4.33233 4.19958
# Velocity P-wave (km/s) = 6.71839 7.12538 6.92488
#
# Compressibility (1/GPa) = 0.01726304
#
# Stress axis : x y z
#
# Youngs Moduli (GPa) = 141.36661 139.94454 73.77892
#
# Poissons Ratio (x) = 0.19429 0.09724
# Poissons Ratio (y) = 0.19627 0.18805
# Poissons Ratio (z) = 0.18632 0.35670
#
# Static dielectric constant tensor:
#      x y z
#    x 2.020170 0.000000 0.000000 
#    y 0.000000 1.947710 0.000000 
#    z 0.000000 0.000000 2.264570 
# 
# From -- ./inp_files/2404.got.cif
#   From: 2010.05.17/outbox.cif.g08.bks.cpg/sg20_2_cif.got.tgz:2404.got - 2010.06.03 22:52:26.
