data_PCOD9322672
_publ_section_title
;
Structure prediction by ZEFSAII (Michael W. Deem and Ramdas Pophale) SiO2 
 PCOD9322672
Probable space group: C 2 2 2
;
_chemical_formula_sum "Si O2"
_cell_formula_units_Z 64
_cell_length_a 33.349054
_cell_length_b 15.747284
_cell_length_c 5.552036
_cell_angle_alpha 90.000000
_cell_angle_beta 90.000000
_cell_angle_gamma 90.000000
_cell_volume 2915.690706
_symmetry_space_group_name_H-M "C 2 2 2"
_symmetry_group_IT_number 21
_symmetry_cell_setting 'orthorhombic'
loop_
_space_group_symop_operation_xyz
x,y,z
-x,-y,z
x,-y,-z
-x,y,-z
1/2+x,1/2+y,z
1/2-x,1/2-y,z
1/2+x,1/2-y,-z
1/2-x,1/2+y,-z
loop_
_atom_site_type_symbol
_atom_site_label
_atom_site_fract_x
_atom_site_fract_y
_atom_site_fract_z
Si Si1 0.515937 0.597101 0.750000
Si Si2 0.715934 0.822268 0.750000
Si Si3 0.398373 0.666736 0.250000
Si Si4 0.880223 0.651127 0.750000
Si Si5 0.194366 0.037282 0.250000
Si Si6 0.135675 0.604918 0.750000
Si Si7 0.720831 0.920384 0.250000
Si Si8 0.353391 0.309632 0.250000
O O1 0.500000 0.500000 0.750000
O O2 0.500000 0.636103 0.500000
O O3 0.563690 0.605455 0.750000
O O4 0.500000 0.636103 0.000000
O O5 0.750000 0.750000 0.750000
O O6 0.666674 0.812202 0.750000
O O7 0.723210 0.868645 0.497011
O O8 0.723210 0.868645 0.002990
O O9 0.408872 0.767192 0.250000
O O10 0.375067 0.659443 0.504568
O O11 0.375067 0.659443 0.995432
O O12 0.885551 0.599145 0.505665
O O13 0.885551 0.599146 0.994336
O O14 0.241494 0.018139 0.250000
O O15 0.188208 0.138933 0.250000
O O16 0.177669 0.000000 0.500000
O O17 0.177669 0.000000 0.000000
O O18 0.175283 0.546620 0.750000
O O19 0.148037 0.707441 0.750000
#
# Coordination Sequence:
#
# PCOD9322672 Si02
#       8
#     8   8   8   8   8   8   8   8
#     4  10  21  38  52  69  84 106 153 200 228 276
#     4  10  19  27  48  75  92 109 141 183 241 289
#     4  10  19  35  53  70  89 114 133 195 261 286
#     4   8  16  26  43  70  96 103 130 166 239 306
#     4  12  26  40  44  63  96 133 165 188 224 299
#     4   8  16  30  48  74  82 107 142 190 238 284
#     4  10  21  32  50  64  91 118 149 193 231 272
#     4  10  21  35  53  70  94 110 148 191 254 311
#
# _framework density 21.950203999999999
#
# number of rings (size 3 to 8) (size 9 to 14) (size 15 to 20)
#    0.000    2.250    0.000    2.625   10.500    0.000 
#   13.500    0.000    0.000    0.000    0.000    0.000 
#    0.000    0.000    0.000    0.000    0.000    0.000 
#
# Total GULP energy -178361.497288 kJ/mol
# GULP energy per Si atom -5573.796790 kJ/mol
# Density = 2.190024 g / cm^3
# Si number density = 21.950204 Si / 1000 Ang^3
#
#
#
# Elastic Constant Matrix: (Units=GPa)
#
#
# Indices 1 2 3 4 5 6 
#
# 1 52.0182 21.5260 23.3244 0.0000 0.0000 0.0000
# 2 21.5260 62.9646 19.5191 0.0000 0.0000 0.0000
# 3 23.3244 19.5191 250.1852 0.0000 0.0000 0.0000
# 4 0.0000 0.0000 0.0000 14.7758 0.0000 0.0000
# 5 0.0000 0.0000 0.0000 0.0000 28.3841 0.0000
# 6 0.0000 0.0000 0.0000 0.0000 0.0000 24.8093
#
#
#
# Elastic Compliance Matrix: (Units=1/GPa)
#
#
# Indices 1 2 3 4 5 6 
#
# 1 0.022976 -0.007369 -0.001567 0.000000 0.000000 0.000000
# 2 -0.007369 0.018639 -0.000767 0.000000 0.000000 0.000000
# 3 -0.001567 -0.000767 0.004203 0.000000 0.000000 0.000000
# 4 0.000000 0.000000 0.000000 0.067678 0.000000 0.000000
# 5 0.000000 0.000000 0.000000 0.000000 0.035231 0.000000
# 6 0.000000 0.000000 0.000000 0.000000 0.000000 0.040307
#
#
# Mechanical properties :
#
#
# Convention : Reuss Voigt Hill
#
# Bulk Modulus (GPa) = 37.86249 54.87856 46.37052
# Shear Modulus (GPa) = 23.01545 33.64709 28.33127
#
# Velocity S-wave (km/s) = 3.24161 3.91945 3.59654
# Velocity P-wave (km/s) = 5.59441 6.74822 6.19822
#
# Compressibility (1/GPa) = 0.02641137
#
# Stress axis : x y z
#
# Youngs Moduli (GPa) = 43.52333 53.65068 237.92578
#
# Poissons Ratio (x) = 0.39536 0.37285
# Poissons Ratio (y) = 0.32073 0.18253
# Poissons Ratio (z) = 0.06821 0.04116
#
# Static dielectric constant tensor:
#      x y z
#    x 1.794770 0.000000 0.000000 
#    y 0.000000 1.895940 0.000000 
#    z 0.000000 0.000000 1.874610 
# 
# From -- ./inp_files/8116.got.cif
#   From: 2010.05.17/outbox.cif.g08.bks.cpg/sg21_5_cif.got.tgz:8116.got - 2010.06.03 23:14:55.
