data_PCOD9322379
_publ_section_title
;
Structure prediction by ZEFSAII (Michael W. Deem and Ramdas Pophale) SiO2 
 PCOD9322379
Probable space group: C 2 2 2
;
_chemical_formula_sum "Si O2"
_cell_formula_units_Z 32
_cell_length_a 8.566029
_cell_length_b 17.519088
_cell_length_c 9.642370
_cell_angle_alpha 90.000000
_cell_angle_beta 90.000000
_cell_angle_gamma 90.000000
_cell_volume 1447.020976
_symmetry_space_group_name_H-M "C 2 2 2"
_symmetry_group_IT_number 21
_symmetry_cell_setting 'orthorhombic'
loop_
_space_group_symop_operation_xyz
x,y,z
-x,-y,z
x,-y,-z
-x,y,-z
1/2+x,1/2+y,z
1/2-x,1/2-y,z
1/2+x,1/2-y,-z
1/2-x,1/2+y,-z
loop_
_atom_site_type_symbol
_atom_site_label
_atom_site_fract_x
_atom_site_fract_y
_atom_site_fract_z
Si Si1 0.250000 0.250000 0.887274
Si Si2 0.758825 0.000000 0.000000
Si Si3 0.942250 0.389283 0.201879
Si Si4 0.500000 0.861438 0.500000
Si Si5 0.250000 0.250000 0.368229
Si Si6 0.695779 0.356259 0.870002
O O1 0.146274 0.308215 0.802236
O O2 0.336033 0.305530 0.995560
O O3 0.651593 0.049787 0.108000
O O4 0.856112 0.941296 0.094969
O O5 0.957644 0.409521 0.363363
O O6 0.115482 0.370346 0.145222
O O7 0.640465 0.805213 0.455653
O O8 0.345814 0.307086 0.264770
#
# Coordination Sequence:
#
# PCOD9322379 Si02
#       6
#     4   4   8   4   4   8
#     4   9  15  26  46  70  93 131 170 206 251 303
#     4  10  17  30  50  76 107 134 169 224 273 306
#     4  10  18  29  48  74 105 134 172 219 266 311
#     4  10  20  34  51  78 107 140 176 214 264 316
#     4   9  19  34  50  76 107 137 176 214 261 315
#     4   9  17  29  48  75 102 129 169 222 267 305
#
# _framework density 22.1144
#
# number of rings (size 3 to 8) (size 9 to 14) (size 15 to 20)
#    0.000    2.500    0.000    5.250    0.000    0.000 
#    0.000   10.000    0.000    0.000    0.000  306.250 
#    0.000    0.000    0.000    0.000    0.000    0.000 
#
# Total GULP energy -89256.392703 kJ/mol
# GULP energy per Si atom -5578.524544 kJ/mol
# Density = 2.206407 g / cm^3
# Si number density = 22.114400 Si / 1000 Ang^3
#
#
#
# Elastic Constant Matrix: (Units=GPa)
#
#
# Indices 1 2 3 4 5 6 
#
# 1 43.6906 21.8513 15.0188 0.0000 0.0000 0.0000
# 2 21.8513 144.8175 41.0144 0.0000 0.0000 0.0000
# 3 15.0188 41.0144 153.8597 0.0000 0.0000 0.0000
# 4 0.0000 0.0000 0.0000 11.3835 0.0000 0.0000
# 5 0.0000 0.0000 0.0000 0.0000 17.5463 0.0000
# 6 0.0000 0.0000 0.0000 0.0000 0.0000 29.4541
#
#
#
# Elastic Compliance Matrix: (Units=1/GPa)
#
#
# Indices 1 2 3 4 5 6 
#
# 1 0.025097 -0.003346 -0.001558 0.000000 0.000000 0.000000
# 2 -0.003346 0.007915 -0.001783 0.000000 0.000000 0.000000
# 3 -0.001558 -0.001783 0.007127 0.000000 0.000000 0.000000
# 4 0.000000 0.000000 0.000000 0.087847 0.000000 0.000000
# 5 0.000000 0.000000 0.000000 0.000000 0.056992 0.000000
# 6 0.000000 0.000000 0.000000 0.000000 0.000000 0.033951
#
#
# Mechanical properties :
#
#
# Convention : Reuss Voigt Hill
#
# Bulk Modulus (GPa) = 37.36195 55.34853 46.35524
# Shear Modulus (GPa) = 20.72758 29.30899 25.01828
#
# Velocity S-wave (km/s) = 3.06484 3.64446 3.36715
# Velocity P-wave (km/s) = 5.42732 6.54157 6.01032
#
# Compressibility (1/GPa) = 0.02676520
#
# Stress axis : x y z
#
# Youngs Moduli (GPa) = 39.84529 126.34023 140.31345
#
# Poissons Ratio (x) = 0.42269 0.21860
# Poissons Ratio (y) = 0.13331 0.25023
# Poissons Ratio (z) = 0.06208 0.22531
#
# Static dielectric constant tensor:
#      x y z
#    x 1.891230 0.000000 0.000000 
#    y 0.000000 1.894450 0.000000 
#    z 0.000000 0.000000 1.840980 
# 
# From -- ./inp_files/12654.got.cif
#   From: 2010.05.17/outbox.cif.g08.bks.cpg/sg21_7_cif.got.tgz:12654.got - 2010.06.03 23:14:55.
