data_PCOD9322189
_publ_section_title
;
Structure prediction by ZEFSAII (Michael W. Deem and Ramdas Pophale) SiO2 
 PCOD9322189
Probable space group: C 2 2 21
;
_chemical_formula_sum "Si O2"
_cell_formula_units_Z 12
_cell_length_a 9.000000
_cell_length_b 15.000000
_cell_length_c 9.000000
_cell_angle_alpha 90.000000
_cell_angle_beta 90.000000
_cell_angle_gamma 90.000000
_cell_volume 1215.000000
_symmetry_space_group_name_H-M "C 2 2 21"
_symmetry_group_IT_number 20
_symmetry_cell_setting 'orthorhombic'
loop_
_space_group_symop_operation_xyz
x,y,z
-x,-y,1/2+z
x,-y,-z
-x,y,1/2-z
1/2+x,1/2+y,z
1/2-x,1/2-y,1/2+z
1/2+x,1/2-y,-z
1/2-x,1/2+y,1/2-z
loop_
_atom_site_type_symbol
_atom_site_label
_atom_site_fract_x
_atom_site_fract_y
_atom_site_fract_z
Si Si1 0.215325 0.783626 0.295950
Si Si2 0.615807 0.933900 0.372749
Si Si3 0.452673 0.768395 0.521355
O O1 0.264728 0.876198 0.220138
O O2 0.353050 0.739731 0.382143
O O3 0.154334 0.722689 0.163355
O O4 0.084169 0.793354 0.416457
O O5 0.500000 0.972870 0.250000
O O6 0.525236 0.859564 0.466215
O O7 0.673091 0.000000 0.500000
#
# Coordination Sequence:
#
# PCOD9322189 Si02
#       3
#     8   8   8
#     4  10  20  36  61  90 122 155 210 247 300 362
#     4  10  22  37  60  93 125 159 204 256 307 360
#     4  10  20  36  61  92 118 164 205 252 295 367
#
# _framework density 9.8765429999999999
#
# number of rings (size 3 to 8) (size 9 to 14) (size 15 to 20)
#    0.000    2.000    3.333    0.000    4.667    0.000 
#    0.000    0.000    0.000   40.000    0.000    0.000 
#    0.000    0.000    0.000    0.000    0.000    0.000 
#
# Total GULP energy -66804.556257 kJ/mol
# GULP energy per Si atom -5567.046355 kJ/mol
# Density = 0.985406 g / cm^3
# Si number density = 9.876543 Si / 1000 Ang^3
#
#
#
# Elastic Constant Matrix: (Units=GPa)
#
#
# Indices 1 2 3 4 5 6 
#
# 1 95.9823 33.0792 79.8490 0.0000 0.0000 0.0000
# 2 33.0792 28.9260 45.7384 0.0000 0.0000 0.0000
# 3 79.8490 45.7384 125.6335 0.0000 0.0000 0.0000
# 4 0.0000 0.0000 0.0000 49.4639 0.0000 0.0000
# 5 0.0000 0.0000 0.0000 0.0000 79.1559 0.0000
# 6 0.0000 0.0000 0.0000 0.0000 0.0000 3.9423
#
#
#
# Elastic Compliance Matrix: (Units=1/GPa)
#
#
# Indices 1 2 3 4 5 6 
#
# 1 0.022767 -0.007436 -0.011763 0.000000 0.000000 0.000000
# 2 -0.007436 0.083900 -0.025818 0.000000 0.000000 0.000000
# 3 -0.011763 -0.025818 0.024835 0.000000 0.000000 0.000000
# 4 0.000000 0.000000 0.000000 0.020217 0.000000 0.000000
# 5 0.000000 0.000000 0.000000 0.000000 0.012633 0.000000
# 6 0.000000 0.000000 0.000000 0.000000 0.000000 0.253658
#
#
# Mechanical properties :
#
#
# Convention : Reuss Voigt Hill
#
# Bulk Modulus (GPa) = 24.11555 63.09723 43.60639
# Shear Modulus (GPa) = 9.58097 32.63743 21.10920
#
# Velocity S-wave (km/s) = 2.20474 4.06922 3.27257
# Velocity P-wave (km/s) = 4.32622 7.35462 6.03351
#
# Compressibility (1/GPa) = 0.04146702
#
# Stress axis : x y z
#
# Youngs Moduli (GPa) = 43.92306 11.91895 40.26528
#
# Poissons Ratio (x) = 0.08863 0.47363
# Poissons Ratio (y) = 0.32663 1.03959
# Poissons Ratio (z) = 0.51666 0.30773
#
# Static dielectric constant tensor:
#      x y z
#    x 1.797410 0.000000 0.000000 
#    y 0.000000 1.660020 0.000000 
#    z 0.000000 0.000000 1.734950 
# 
# From -- ./inp_files/5503.got.cif
#   From: 2010.05.17/outbox.ucp.g08.bks.cvg/sg20_3_cif.got.tgz:5503.got - 2010.06.11 15:13:06.
