data_PCOD9322573
_publ_section_title
;
Structure prediction by ZEFSAII (Michael W. Deem and Ramdas Pophale) SiO2 
 PCOD9322573
Probable space group: C 2 2 2
;
_chemical_formula_sum "Si O2"
_cell_formula_units_Z 28
_cell_length_a 9.930087
_cell_length_b 15.899271
_cell_length_c 8.583660
_cell_angle_alpha 90.000000
_cell_angle_beta 90.000000
_cell_angle_gamma 90.000000
_cell_volume 1355.198063
_symmetry_space_group_name_H-M "C 2 2 2"
_symmetry_group_IT_number 21
_symmetry_cell_setting 'orthorhombic'
loop_
_space_group_symop_operation_xyz
x,y,z
-x,-y,z
x,-y,-z
-x,y,-z
1/2+x,1/2+y,z
1/2-x,1/2-y,z
1/2+x,1/2-y,-z
1/2-x,1/2+y,-z
loop_
_atom_site_type_symbol
_atom_site_label
_atom_site_fract_x
_atom_site_fract_y
_atom_site_fract_z
Si Si1 0.913359 0.424721 0.162563
Si Si2 0.478898 0.246061 0.682884
Si Si3 0.865652 0.111977 0.094602
Si Si4 0.750000 0.250000 0.866162
O O1 0.905412 0.339289 0.262382
O O2 0.755607 0.450223 0.142714
O O3 0.000000 0.500000 0.237844
O O4 0.000000 0.409415 0.000000
O O5 0.500000 0.254426 0.500000
O O6 0.414526 0.328697 0.762743
O O7 0.623440 0.233162 0.760339
O O8 0.787189 0.173172 0.976444
O O9 0.000000 0.085782 0.000000
#
# Coordination Sequence:
#
# PCOD9322573 Si02
#       4
#     8   8   8   4
#     4  11  21  38  61  88 121 163 203 247 306 376
#     4  11  22  34  61  92 125 156 203 263 310 353
#     4  10  19  38  62  88 120 158 209 258 294 362
#     4  10  18  34  60  88 114 156 208 260 290 354
#
# _framework density 20.661187000000002
#
# number of rings (size 3 to 8) (size 9 to 14) (size 15 to 20)
#    0.000    1.429    5.714    0.857    4.000    0.571 
#    0.000    2.857    0.000    0.000    0.000    2.000 
#    0.000    0.000    0.000    0.000    0.000    0.000 
#
# Total GULP energy -78063.847022 kJ/mol
# GULP energy per Si atom -5575.989073 kJ/mol
# Density = 2.061416 g / cm^3
# Si number density = 20.661187 Si / 1000 Ang^3
#
#
#
# Elastic Constant Matrix: (Units=GPa)
#
#
# Indices 1 2 3 4 5 6 
#
# 1 180.0726 25.5068 26.6592 0.0000 0.0000 0.0000
# 2 25.5068 74.7814 25.2528 0.0000 0.0000 0.0000
# 3 26.6592 25.2528 130.7543 0.0000 0.0000 0.0000
# 4 0.0000 0.0000 0.0000 24.7697 0.0000 0.0000
# 5 0.0000 0.0000 0.0000 0.0000 11.1779 0.0000
# 6 0.0000 0.0000 0.0000 0.0000 0.0000 28.8977
#
#
#
# Elastic Compliance Matrix: (Units=1/GPa)
#
#
# Indices 1 2 3 4 5 6 
#
# 1 0.005927 -0.001726 -0.000875 0.000000 0.000000 0.000000
# 2 -0.001726 0.014808 -0.002508 0.000000 0.000000 0.000000
# 3 -0.000875 -0.002508 0.008311 0.000000 0.000000 0.000000
# 4 0.000000 0.000000 0.000000 0.040372 0.000000 0.000000
# 5 0.000000 0.000000 0.000000 0.000000 0.089462 0.000000
# 6 0.000000 0.000000 0.000000 0.000000 0.000000 0.034605
#
#
# Mechanical properties :
#
#
# Convention : Reuss Voigt Hill
#
# Bulk Modulus (GPa) = 53.11371 60.04953 56.58162
# Shear Modulus (GPa) = 23.81189 33.51504 28.66347
#
# Velocity S-wave (km/s) = 3.39852 4.03193 3.72870
# Velocity P-wave (km/s) = 6.41582 7.12757 6.78104
#
# Compressibility (1/GPa) = 0.01882753
#
# Stress axis : x y z
#
# Youngs Moduli (GPa) = 168.70831 67.53110 120.32645
#
# Poissons Ratio (x) = 0.11657 0.10530
# Poissons Ratio (y) = 0.29123 0.30177
# Poissons Ratio (z) = 0.14764 0.16936
#
# Static dielectric constant tensor:
#      x y z
#    x 1.803580 0.000000 0.000000 
#    y 0.000000 1.827720 0.000000 
#    z 0.000000 0.000000 1.723230 
# 
# From -- ./inp_files/10140.got.cif
#   From: 2010.05.17/outbox.cif.g08.bks.cpg/sg21_6_cif.got.tgz:10140.got - 2010.06.03 23:14:55.
