data_PCOD9322868
_publ_section_title
;
Structure prediction by ZEFSAII (Michael W. Deem and Ramdas Pophale) SiO2 
 PCOD9322868
Probable space group: C 2 2 2
;
_chemical_formula_sum "Si O2"
_cell_formula_units_Z 58
_cell_length_a 22.223663
_cell_length_b 9.557351
_cell_length_c 12.178848
_cell_angle_alpha 90.000000
_cell_angle_beta 90.000000
_cell_angle_gamma 90.000000
_cell_volume 2586.779372
_symmetry_space_group_name_H-M "C 2 2 2"
_symmetry_group_IT_number 21
_symmetry_cell_setting 'orthorhombic'
loop_
_space_group_symop_operation_xyz
x,y,z
-x,-y,z
x,-y,-z
-x,y,-z
1/2+x,1/2+y,z
1/2-x,1/2-y,z
1/2+x,1/2-y,-z
1/2-x,1/2+y,-z
loop_
_atom_site_type_symbol
_atom_site_label
_atom_site_fract_x
_atom_site_fract_y
_atom_site_fract_z
Si Si1 0.562933 0.038310 0.127471
Si Si2 0.751073 0.591109 0.327384
Si Si3 0.188972 0.320996 0.650377
Si Si4 0.671351 0.834587 0.133074
Si Si5 0.377148 0.443032 0.616052
Si Si6 0.347326 0.257378 0.889653
Si Si7 0.500000 0.500000 0.000000
Si Si8 0.396607 0.549452 0.840491
O O1 0.585074 0.196998 0.129353
O O2 0.500000 0.000000 0.182078
O O3 0.619269 0.945300 0.162447
O O4 0.557793 0.000000 0.000000
O O5 0.750000 0.750000 0.369816
O O6 0.802538 0.485070 0.371067
O O7 0.770633 0.612347 0.199216
O O8 0.688360 0.514812 0.355270
O O9 0.250000 0.250000 0.608798
O O10 0.134687 0.223678 0.609451
O O11 0.187479 0.292312 0.781986
O O12 0.642979 0.688020 0.172076
O O13 0.677584 0.811545 0.001635
O O14 0.398044 0.500000 0.500000
O O15 0.415137 0.489770 0.721500
O O16 0.355814 0.423497 0.890818
O O17 0.453519 0.420465 0.080839
#
# Coordination Sequence:
#
# PCOD9322868 Si02
#       8
#     8   8   8   8   8   8   2   8
#     4   9  19  30  51  77 113 158 206 254 311 380
#     4  11  21  36  59  89 128 169 215 271 325 394
#     4   9  20  37  55  85 119 165 214 256 325 385
#     4  11  20  35  53  87 128 160 216 261 326 403
#     4  10  23  45  66  88 127 172 226 279 328 388
#     4  10  19  35  52  79 124 168 205 259 322 396
#     4  12  24  40  66 102 136 172 208 260 354 428
#     4  11  23  38  62  91 128 169 216 271 333 407
#
# _framework density 22.421703999999998
#
# number of rings (size 3 to 8) (size 9 to 14) (size 15 to 20)
#    0.000    1.793    4.138    0.000    1.931    2.207 
#    0.000    1.724    0.000    0.000    0.000    0.000 
#    0.000    1.379    0.000    0.000    0.000    0.000 
#
# Total GULP energy -161710.920729 kJ/mol
# GULP energy per Si atom -5576.238646 kJ/mol
# Density = 2.237067 g / cm^3
# Si number density = 22.421704 Si / 1000 Ang^3
#
#
#
# Elastic Constant Matrix: (Units=GPa)
#
#
# Indices 1 2 3 4 5 6 
#
# 1 66.2149 3.1400 11.0511 0.0000 0.0000 0.0000
# 2 3.1400 142.5367 4.8202 0.0000 0.0000 0.0000
# 3 11.0511 4.8202 125.2422 0.0000 0.0000 0.0000
# 4 0.0000 0.0000 0.0000 11.0293 0.0000 0.0000
# 5 0.0000 0.0000 0.0000 0.0000 7.8007 0.0000
# 6 0.0000 0.0000 0.0000 0.0000 0.0000 206.3186
#
#
#
# Elastic Compliance Matrix: (Units=1/GPa)
#
#
# Indices 1 2 3 4 5 6 
#
# 1 0.015340 -0.000293 -0.001342 0.000000 0.000000 0.000000
# 2 -0.000293 0.007030 -0.000245 0.000000 0.000000 0.000000
# 3 -0.001342 -0.000245 0.008112 0.000000 0.000000 0.000000
# 4 0.000000 0.000000 0.000000 0.090667 0.000000 0.000000
# 5 0.000000 0.000000 0.000000 0.000000 0.128194 0.000000
# 6 0.000000 0.000000 0.000000 0.000000 0.000000 0.004847
#
#
# Mechanical properties :
#
#
# Convention : Reuss Voigt Hill
#
# Bulk Modulus (GPa) = 37.41981 41.33516 39.37749
# Shear Modulus (GPa) = 18.73653 66.02856 42.38254
#
# Velocity S-wave (km/s) = 2.89388 5.43253 4.35241
# Velocity P-wave (km/s) = 5.28123 7.60429 6.54663
#
# Compressibility (1/GPa) = 0.02672381
#
# Stress axis : x y z
#
# Youngs Moduli (GPa) = 65.18802 142.23826 123.26819
#
# Poissons Ratio (x) = 0.04161 0.16547
# Poissons Ratio (y) = 0.01907 0.03017
# Poissons Ratio (z) = 0.08750 0.03482
#
# Static dielectric constant tensor:
#      x y z
#    x 1.905600 0.000000 0.000000 
#    y 0.000000 1.897240 0.000000 
#    z 0.000000 0.000000 1.850090 
# 
# From -- ./inp_files/27812.got.cif
#   From: 2010.05.17/outbox.cif.g08.bks.cpg/sg21_14_cif.got.tgz:27812.got - 2010.06.03 23:14:55.
