data_PCOD9322270
_publ_section_title
;
Structure prediction by ZEFSAII (Michael W. Deem and Ramdas Pophale) SiO2 
 PCOD9322270
Probable space group: C 2 2 2
;
_chemical_formula_sum "Si O2"
_cell_formula_units_Z 60
_cell_length_a 30.806192
_cell_length_b 7.274963
_cell_length_c 12.014732
_cell_angle_alpha 90.000000
_cell_angle_beta 90.000000
_cell_angle_gamma 90.000000
_cell_volume 2692.668530
_symmetry_space_group_name_H-M "C 2 2 2"
_symmetry_group_IT_number 21
_symmetry_cell_setting 'orthorhombic'
loop_
_space_group_symop_operation_xyz
x,y,z
-x,-y,z
x,-y,-z
-x,y,-z
1/2+x,1/2+y,z
1/2-x,1/2-y,z
1/2+x,1/2-y,-z
1/2-x,1/2+y,-z
loop_
_atom_site_type_symbol
_atom_site_label
_atom_site_fract_x
_atom_site_fract_y
_atom_site_fract_z
Si Si1 0.541901 0.192113 0.934507
Si Si2 0.000000 0.500000 0.272002
Si Si3 0.200229 0.305143 0.558117
Si Si4 0.419523 0.830408 0.376136
Si Si5 0.370414 0.746486 0.837775
Si Si6 0.879834 0.743518 0.412168
Si Si7 0.852719 0.676433 0.785304
Si Si8 0.698772 0.219796 0.004671
O O1 0.587712 0.291282 0.915355
O O2 0.526402 0.132815 0.811152
O O3 0.500000 0.274038 0.000000
O O4 0.550547 0.000000 0.000000
O O5 0.032410 0.614170 0.347359
O O6 0.200813 0.500000 0.500000
O O7 0.250000 0.250000 0.561513
O O8 0.165445 0.210159 0.475001
O O9 0.180920 0.317082 0.682061
O O10 0.413874 0.716999 0.488983
O O11 0.396675 0.743248 0.268090
O O12 0.392348 0.024776 0.391365
O O13 0.377608 0.677926 0.711767
O O14 0.365584 0.969912 0.824637
O O15 0.325354 0.695923 0.897562
O O16 0.829418 0.773466 0.887741
O O17 0.750000 0.250000 0.012026
O O18 0.694947 0.000000 0.000000
#
# Coordination Sequence:
#
# PCOD9322270 Si02
#       8
#     8   4   8   8   8   8   8   8
#     4   9  17  23  34  61  91 119 164 179 225 290
#     4  10  15  21  38  64  84 126 158 186 210 292
#     4  11  19  32  49  68  89 122 165 205 235 286
#     4   9  15  25  41  59  92 119 158 178 232 287
#     4  10  16  30  45  58  95 128 155 190 243 284
#     4   9  16  29  39  58  87 121 157 175 240 284
#     4   9  16  31  47  60  89 125 158 185 245 284
#     4  10  21  32  49  69  90 124 168 202 240 286
#
# _framework density 22.282726
#
# number of rings (size 3 to 8) (size 9 to 14) (size 15 to 20)
#    0.000    2.533    6.667    1.600    1.867    1.600 
#    0.000    0.000    0.000    0.000    0.000    0.000 
#    0.000    0.533    0.000   14.533    1.333    0.000 
#
# Total GULP energy -167028.610305 kJ/mol
# GULP energy per Si atom -5567.620343 kJ/mol
# Density = 2.223201 g / cm^3
# Si number density = 22.282726 Si / 1000 Ang^3
#
#
#
# Elastic Constant Matrix: (Units=GPa)
#
#
# Indices 1 2 3 4 5 6 
#
# 1 163.1614 3.3220 75.6541 0.0000 0.0000 0.0000
# 2 3.3220 55.7066 7.4164 0.0000 0.0000 0.0000
# 3 75.6541 7.4164 152.8616 0.0000 0.0000 0.0000
# 4 0.0000 0.0000 0.0000 -4.8316 0.0000 0.0000
# 5 0.0000 0.0000 0.0000 0.0000 22.2338 0.0000
# 6 0.0000 0.0000 0.0000 0.0000 0.0000 12.7637
#
#
#
# Elastic Compliance Matrix: (Units=1/GPa)
#
#
# Indices 1 2 3 4 5 6 
#
# 1 0.007954 0.000050 -0.003939 0.000000 0.000000 0.000000
# 2 0.000050 0.018068 -0.000901 0.000000 0.000000 0.000000
# 3 -0.003939 -0.000901 0.008535 0.000000 0.000000 0.000000
# 4 0.000000 0.000000 0.000000 -0.206969 0.000000 0.000000
# 5 0.000000 0.000000 0.000000 0.000000 0.044977 0.000000
# 6 0.000000 0.000000 0.000000 0.000000 0.000000 0.078347
#
#
# Mechanical properties :
#
#
# Convention : Reuss Voigt Hill
#
# Bulk Modulus (GPa) = 40.03723 60.50161 50.26942
# Shear Modulus (GPa) = -160.35747 25.05563 -67.65092
#
# Velocity S-wave (km/s) = -8.49242 3.35691 -5.51599
# Velocity P-wave (km/s) = 8.84051 6.49891 4.23786
#
# Compressibility (1/GPa) = 0.02497676
#
# Stress axis : x y z
#
# Youngs Moduli (GPa) = 125.71651 55.34579 117.16193
#
# Poissons Ratio (x) = -0.00277 0.46153
# Poissons Ratio (y) = -0.00630 0.10561
# Poissons Ratio (z) = 0.49522 0.04989
#
# Static dielectric constant tensor:
#      x y z
#    x 1.995660 0.000000 0.000000 
#    y 0.000000 1.921870 0.000000 
#    z 0.000000 0.000000 1.868670 
# 
# From -- ./inp_files/28132.got.cif
#   From: 2010.05.17/outbox.cif.g08.bks.cpg/sg21_15_cif.got.tgz:28132.got - 2010.06.03 23:14:55.
