data_PCOD9322391
_publ_section_title
;
Structure prediction by ZEFSAII (Michael W. Deem and Ramdas Pophale) SiO2 
 PCOD9322391
Probable space group: C 2 2 2
;
_chemical_formula_sum "Si O2"
_cell_formula_units_Z 64
_cell_length_a 31.401320
_cell_length_b 8.530914
_cell_length_c 12.752679
_cell_angle_alpha 90.000000
_cell_angle_beta 90.000000
_cell_angle_gamma 90.000000
_cell_volume 3416.212651
_symmetry_space_group_name_H-M "C 2 2 2"
_symmetry_group_IT_number 21
_symmetry_cell_setting 'orthorhombic'
loop_
_space_group_symop_operation_xyz
x,y,z
-x,-y,z
x,-y,-z
-x,y,-z
1/2+x,1/2+y,z
1/2-x,1/2-y,z
1/2+x,1/2-y,-z
1/2-x,1/2+y,-z
loop_
_atom_site_type_symbol
_atom_site_label
_atom_site_fract_x
_atom_site_fract_y
_atom_site_fract_z
Si Si1 0.088596 0.318363 0.190358
Si Si2 0.409761 0.817216 0.229513
Si Si3 0.001588 0.308627 0.878411
Si Si4 0.858987 0.326779 0.018402
Si Si5 0.330690 0.640438 0.716529
Si Si6 0.285230 0.625103 0.922844
Si Si7 0.203528 0.319488 0.468044
Si Si8 0.370134 0.623931 0.418816
O O1 0.088992 0.492627 0.241069
O O2 0.040480 0.256924 0.184656
O O3 0.102929 0.328669 0.067740
O O4 0.124323 0.213283 0.245476
O O5 0.455102 0.765913 0.181001
O O6 0.397622 0.721970 0.334207
O O7 0.375921 0.796205 0.134715
O O8 0.000000 0.500000 0.881167
O O9 0.000000 0.255830 0.000000
O O10 0.824398 0.201193 0.985845
O O11 0.840104 0.500000 0.000000
O O12 0.305131 0.572876 0.814288
O O13 0.305066 0.774914 0.653868
O O14 0.339845 0.495336 0.642744
O O15 0.250000 0.750000 0.896529
O O16 0.265539 0.500000 0.000000
O O17 0.203943 0.500000 0.500000
O O18 0.250000 0.250000 0.496731
O O19 0.162244 0.241257 0.522990
O O20 0.392659 0.500000 0.500000
#
# Coordination Sequence:
#
# PCOD9322391 Si02
#       8
#     8   8   8   8   8   8   8   8
#     4   9  17  30  53  85 112 145 182 228 280 341
#     4  10  17  31  55  80 113 148 185 229 285 335
#     4   9  15  27  52  87 118 146 185 237 281 338
#     4   9  17  30  50  76 107 140 177 219 273 331
#     4  10  21  38  57  77 111 147 185 232 288 336
#     4  11  22  35  50  72 106 146 184 219 264 331
#     4  11  22  40  64  88 109 135 184 246 294 338
#     4  10  22  38  56  81 109 148 191 237 288 337
#
# _framework density 18.734195
#
# number of rings (size 3 to 8) (size 9 to 14) (size 15 to 20)
#    0.000    2.125    1.250    3.375    0.000    0.000 
#    0.000    6.875    0.000    6.000    0.000   11.375 
#    0.000    0.000    0.000    0.000    0.000    0.000 
#
# Total GULP energy -178319.095067 kJ/mol
# GULP energy per Si atom -5572.471721 kJ/mol
# Density = 1.869156 g / cm^3
# Si number density = 18.734195 Si / 1000 Ang^3
#
#
#
# Elastic Constant Matrix: (Units=GPa)
#
#
# Indices 1 2 3 4 5 6 
#
# 1 68.8845 6.4847 23.2345 0.0000 0.0000 0.0000
# 2 6.4847 46.8730 23.9902 0.0000 0.0000 0.0000
# 3 23.2345 23.9902 89.0277 0.0000 0.0000 0.0000
# 4 0.0000 0.0000 0.0000 22.2882 0.0000 0.0000
# 5 0.0000 0.0000 0.0000 0.0000 546.3053 0.0000
# 6 0.0000 0.0000 0.0000 0.0000 0.0000 45.6864
#
#
#
# Elastic Compliance Matrix: (Units=1/GPa)
#
#
# Indices 1 2 3 4 5 6 
#
# 1 0.015919 -0.000088 -0.004131 0.000000 0.000000 0.000000
# 2 -0.000088 0.024748 -0.006646 0.000000 0.000000 0.000000
# 3 -0.004131 -0.006646 0.014101 0.000000 0.000000 0.000000
# 4 0.000000 0.000000 0.000000 0.044867 0.000000 0.000000
# 5 0.000000 0.000000 0.000000 0.000000 0.001830 0.000000
# 6 0.000000 0.000000 0.000000 0.000000 0.000000 0.021888
#
#
# Mechanical properties :
#
#
# Convention : Reuss Voigt Hill
#
# Bulk Modulus (GPa) = 30.26767 34.68934 32.47850
# Shear Modulus (GPa) = 32.03169 132.92770 82.47969
#
# Velocity S-wave (km/s) = 4.13946 8.43259 6.64243
# Velocity P-wave (km/s) = 6.24806 10.64745 8.72945
#
# Compressibility (1/GPa) = 0.03303855
#
# Stress axis : x y z
#
# Youngs Moduli (GPa) = 62.81951 40.40764 70.91534
#
# Poissons Ratio (x) = 0.00356 0.29293
# Poissons Ratio (y) = 0.00554 0.47129
# Poissons Ratio (z) = 0.25949 0.26854
#
# Static dielectric constant tensor:
#      x y z
#    x 1.640920 0.000000 0.000000 
#    y 0.000000 1.637570 0.000000 
#    z 0.000000 0.000000 0.872890 
# 
# From -- ./inp_files/28080.got.cif
#   From: 2010.05.17/outbox.cif.g08.bks.cpg/sg21_15_cif.got.tgz:28080.got - 2010.06.03 23:14:55.
