data_PCOD9322542
_publ_section_title
;
Structure prediction by ZEFSAII (Michael W. Deem and Ramdas Pophale) SiO2 
 PCOD9322542
Probable space group: C 2 2 2
;
_chemical_formula_sum "Si O2"
_cell_formula_units_Z 36
_cell_length_a 17.069169
_cell_length_b 9.187537
_cell_length_c 11.637337
_cell_angle_alpha 90.000000
_cell_angle_beta 90.000000
_cell_angle_gamma 90.000000
_cell_volume 1825.009336
_symmetry_space_group_name_H-M "C 2 2 2"
_symmetry_group_IT_number 21
_symmetry_cell_setting 'orthorhombic'
loop_
_space_group_symop_operation_xyz
x,y,z
-x,-y,z
x,-y,-z
-x,y,-z
1/2+x,1/2+y,z
1/2-x,1/2-y,z
1/2+x,1/2-y,-z
1/2-x,1/2+y,-z
loop_
_atom_site_type_symbol
_atom_site_label
_atom_site_fract_x
_atom_site_fract_y
_atom_site_fract_z
Si Si1 0.531786 0.776129 0.870695
Si Si2 0.315169 0.627584 0.217812
Si Si3 0.729875 0.000000 0.000000
Si Si4 0.262659 0.078598 0.379607
Si Si5 0.383713 0.082924 0.177544
O O1 0.596665 0.676536 0.810475
O O2 0.450150 0.797900 0.804504
O O3 0.574867 0.933725 0.864324
O O4 0.500000 0.742906 0.000000
O O5 0.250000 0.750000 0.254777
O O6 0.308095 0.500570 0.311598
O O7 0.281068 0.574723 0.096413
O O8 0.676209 0.112840 0.927083
O O9 0.250000 0.250000 0.394471
O O10 0.335233 0.058042 0.292406
O O11 0.275357 0.000000 0.500000
#
# Coordination Sequence:
#
# PCOD9322542 Si02
#       5
#     8   8   4   8   8
#     4  11  19  35  64 101 139 175 212 274 334 413
#     4  11  21  38  64  95 133 173 224 278 332 400
#     4  10  18  33  59  98 138 178 216 264 331 410
#     4  11  25  44  70  93 128 177 236 295 343 396
#     4  10  19  37  62  95 132 175 223 265 335 416
#
# _framework density 19.725926000000001
#
# number of rings (size 3 to 8) (size 9 to 14) (size 15 to 20)
#    0.000    1.333    6.667    1.333    0.000    7.111 
#    0.000    6.111    0.000    1.333    0.000    0.000 
#    0.000    0.000    0.000    0.000    0.000    0.000 
#
# Total GULP energy -100369.522923 kJ/mol
# GULP energy per Si atom -5576.084607 kJ/mol
# Density = 1.968103 g / cm^3
# Si number density = 19.725926 Si / 1000 Ang^3
#
#
#
# Elastic Constant Matrix: (Units=GPa)
#
#
# Indices 1 2 3 4 5 6 
#
# 1 138.0538 40.0620 64.7923 0.0000 0.0000 0.0000
# 2 40.0620 88.3409 50.4712 0.0000 0.0000 0.0000
# 3 64.7923 50.4712 148.5356 0.0000 0.0000 0.0000
# 4 0.0000 0.0000 0.0000 24.9916 0.0000 0.0000
# 5 0.0000 0.0000 0.0000 0.0000 9.5104 0.0000
# 6 0.0000 0.0000 0.0000 0.0000 0.0000 37.6715
#
#
#
# Elastic Compliance Matrix: (Units=1/GPa)
#
#
# Indices 1 2 3 4 5 6 
#
# 1 0.009504 -0.002409 -0.003327 0.000000 0.000000 0.000000
# 2 -0.002409 0.014657 -0.003930 0.000000 0.000000 0.000000
# 3 -0.003327 -0.003930 0.009519 0.000000 0.000000 0.000000
# 4 0.000000 0.000000 0.000000 0.040014 0.000000 0.000000
# 5 0.000000 0.000000 0.000000 0.000000 0.105148 0.000000
# 6 0.000000 0.000000 0.000000 0.000000 0.000000 0.026545
#
#
# Mechanical properties :
#
#
# Convention : Reuss Voigt Hill
#
# Bulk Modulus (GPa) = 69.69275 76.17570 72.93422
# Shear Modulus (GPa) = 21.78632 29.07503 25.43068
#
# Velocity S-wave (km/s) = 3.32693 3.84337 3.59444
# Velocity P-wave (km/s) = 7.08274 7.64174 7.36754
#
# Compressibility (1/GPa) = 0.01434870
#
# Stress axis : x y z
#
# Youngs Moduli (GPa) = 105.21645 68.22505 105.05354
#
# Poissons Ratio (x) = 0.16437 0.34953
# Poissons Ratio (y) = 0.25349 0.41281
# Poissons Ratio (z) = 0.35007 0.26809
#
# Static dielectric constant tensor:
#      x y z
#    x 1.751340 0.000000 0.000000 
#    y 0.000000 1.797200 0.000000 
#    z 0.000000 0.000000 1.654620 
# 
# From -- ./inp_files/25839.got.cif
#   From: 2010.05.17/outbox.cif.g08.bks.cpg/sg21_13_cif.got.tgz:25839.got - 2010.06.03 23:14:55.
