data_PCOD9322505
_publ_section_title
;
Structure prediction by ZEFSAII (Michael W. Deem and Ramdas Pophale) SiO2 
 PCOD9322505
Probable space group: C 2 2 2
;
_chemical_formula_sum "Si O2"
_cell_formula_units_Z 64
_cell_length_a 29.478406
_cell_length_b 8.523109
_cell_length_c 15.987765
_cell_angle_alpha 90.000000
_cell_angle_beta 90.000000
_cell_angle_gamma 90.000000
_cell_volume 4016.888665
_symmetry_space_group_name_H-M "C 2 2 2"
_symmetry_group_IT_number 21
_symmetry_cell_setting 'orthorhombic'
loop_
_space_group_symop_operation_xyz
x,y,z
-x,-y,z
x,-y,-z
-x,y,-z
1/2+x,1/2+y,z
1/2-x,1/2-y,z
1/2+x,1/2-y,-z
1/2-x,1/2+y,-z
loop_
_atom_site_type_symbol
_atom_site_label
_atom_site_fract_x
_atom_site_fract_y
_atom_site_fract_z
Si Si1 0.449603 0.309163 0.597248
Si Si2 0.301581 0.813014 0.175956
Si Si3 0.301581 0.186986 0.175956
Si Si4 0.198656 0.688125 0.500000
Si Si5 0.949603 0.190837 0.597248
Si Si6 0.301687 0.312916 0.000000
Si Si7 0.854012 0.189184 0.663195
Si Si8 0.645988 0.310816 0.336805
O O1 0.449857 0.500000 0.597908
O O2 0.500000 0.256890 0.623721
O O3 0.442955 0.262716 0.500000
O O4 0.406349 0.259584 0.650815
O O5 0.250000 0.750000 0.185780
O O6 0.320802 0.749759 0.087570
O O7 0.331120 0.755350 0.253664
O O8 0.299607 0.000000 0.173283
O O9 0.250000 0.250000 0.185780
O O10 0.331120 0.244650 0.253664
O O11 0.320802 0.250241 0.087570
O O12 0.198390 0.500000 0.500000
O O13 0.250000 0.750000 0.500000
O O14 0.173329 0.751568 0.582224
O O15 0.173329 0.751568 0.417776
O O16 0.906349 0.240416 0.650815
O O17 0.250000 0.250000 0.000000
O O18 0.198451 0.000000 0.000000
O O19 0.852220 1.000000 0.664849
#
# Coordination Sequence:
#
# PCOD9322505 Si02
#       8
#     8   8   8   8   8   8   8   8
#     4   8  14  27  49  74  96 122 160 205 247 287
#     4  11  21  34  50  72 101 133 166 203 244 291
#     4  11  21  34  50  72 101 133 166 203 244 291
#     4  12  24  36  47  64  95 133 170 203 241 288
#     4   8  14  27  49  74  96 122 160 205 247 287
#     4  10  18  32  52  74  97 126 163 204 246 289
#     4  11  20  33  51  73  98 129 166 204 243 289
#     4  11  20  33  51  73  98 129 166 204 243 289
#
# _framework density 15.932729999999999
#
# number of rings (size 3 to 8) (size 9 to 14) (size 15 to 20)
#    0.000    1.750    1.250    8.250    0.000    0.000 
#    0.000    0.000    0.000    3.750    0.000    0.875 
#    0.000    7.000    0.000    0.000    0.000    0.000 
#
# Total GULP energy -178565.512428 kJ/mol
# GULP energy per Si atom -5580.172263 kJ/mol
# Density = 1.589647 g / cm^3
# Si number density = 15.932730 Si / 1000 Ang^3
#
#
#
# Elastic Constant Matrix: (Units=GPa)
#
#
# Indices 1 2 3 4 5 6 
#
# 1 123.8811 38.3162 77.1104 0.0000 0.0000 0.0000
# 2 38.3162 113.6498 52.3405 0.0000 0.0000 0.0000
# 3 77.1104 52.3405 157.9820 0.0000 0.0000 0.0000
# 4 0.0000 0.0000 0.0000 26.1465 0.0000 0.0000
# 5 0.0000 0.0000 0.0000 0.0000 3.2202 0.0000
# 6 0.0000 0.0000 0.0000 0.0000 0.0000 13.5799
#
#
#
# Elastic Compliance Matrix: (Units=1/GPa)
#
#
# Indices 1 2 3 4 5 6 
#
# 1 0.011827 -0.001568 -0.005253 0.000000 0.000000 0.000000
# 2 -0.001568 0.010591 -0.002744 0.000000 0.000000 0.000000
# 3 -0.005253 -0.002744 0.009803 0.000000 0.000000 0.000000
# 4 0.000000 0.000000 0.000000 0.038246 0.000000 0.000000
# 5 0.000000 0.000000 0.000000 0.000000 0.310544 0.000000
# 6 0.000000 0.000000 0.000000 0.000000 0.000000 0.073638
#
#
# Mechanical properties :
#
#
# Convention : Reuss Voigt Hill
#
# Bulk Modulus (GPa) = 76.38603 81.22746 78.80674
# Shear Modulus (GPa) = 10.45712 23.77237 17.11474
#
# Velocity S-wave (km/s) = 2.56467 3.86689 3.28104
# Velocity P-wave (km/s) = 7.53770 8.42789 7.99520
#
# Compressibility (1/GPa) = 0.01309140
#
# Stress axis : x y z
#
# Youngs Moduli (GPa) = 84.55089 94.41855 102.01069
#
# Poissons Ratio (x) = 0.14806 0.53589
# Poissons Ratio (y) = 0.13258 0.27987
# Poissons Ratio (z) = 0.44417 0.25904
#
# Static dielectric constant tensor:
#      x y z
#    x 1.535110 0.000000 0.000000 
#    y 0.000000 1.545960 0.000000 
#    z 0.000000 0.000000 1.529390 
# 
# From -- ./inp_files/34086.got.cif
#   From: 2010.05.17/outbox.cif.g08.bks.cpg/sg21_18_cif.got.tgz:34086.got - 2010.06.03 23:14:55.
