data_PCOD9322644
_publ_section_title
;
Structure prediction by ZEFSAII (Michael W. Deem and Ramdas Pophale) SiO2 
 PCOD9322644
Probable space group: C 2 2 2
;
_chemical_formula_sum "Si O2"
_cell_formula_units_Z 52
_cell_length_a 14.230602
_cell_length_b 23.479869
_cell_length_c 7.995071
_cell_angle_alpha 90.000000
_cell_angle_beta 90.000000
_cell_angle_gamma 90.000000
_cell_volume 2671.414426
_symmetry_space_group_name_H-M "C 2 2 2"
_symmetry_group_IT_number 21
_symmetry_cell_setting 'orthorhombic'
loop_
_space_group_symop_operation_xyz
x,y,z
-x,-y,z
x,-y,-z
-x,y,-z
1/2+x,1/2+y,z
1/2-x,1/2-y,z
1/2+x,1/2-y,-z
1/2-x,1/2+y,-z
loop_
_atom_site_type_symbol
_atom_site_label
_atom_site_fract_x
_atom_site_fract_y
_atom_site_fract_z
Si Si1 0.618764 0.453056 0.651030
Si Si2 0.820111 0.436518 0.526128
Si Si3 0.500000 0.351208 0.500000
Si Si4 0.572242 0.180544 0.147079
Si Si5 0.741256 0.103550 0.163545
Si Si6 0.161165 0.786018 0.293337
Si Si7 0.000000 0.639501 0.500000
Si Si8 0.652300 0.500000 0.000000
O O1 0.606686 0.500000 0.500000
O O2 0.730407 0.437135 0.648378
O O3 0.557117 0.396542 0.617058
O O4 0.599491 0.481068 0.830784
O O5 0.856995 0.500000 0.500000
O O6 0.774152 0.419510 0.350116
O O7 0.908815 0.396638 0.556923
O O8 0.579077 0.310915 0.413360
O O9 0.641376 0.128104 0.108135
O O10 0.624456 0.240284 0.161576
O O11 0.531517 0.172581 0.334284
O O12 0.500000 0.183013 0.000000
O O13 0.804258 0.159026 0.192227
O O14 0.785566 0.054322 0.054137
O O15 0.250000 0.750000 0.375108
#
# Coordination Sequence:
#
# PCOD9322644 Si02
#       8
#     8   8   4   8   8   8   4   4
#     4  11  23  40  64  96 136 166 212 265 329 389
#     4  10  18  38  60  89 134 172 203 267 318 388
#     4  12  22  42  70  96 122 174 218 270 326 408
#     4  10  23  40  62  88 126 170 218 275 324 387
#     4  10  21  39  62  90 131 170 207 270 330 384
#     4  10  22  43  65  91 130 168 216 280 336 382
#     4  10  22  36  62  96 124 170 226 262 318 388
#     4  12  22  40  66  98 130 174 208 260 331 395
#
# _framework density 19.465344000000002
#
# number of rings (size 3 to 8) (size 9 to 14) (size 15 to 20)
#    0.000    1.538    4.615    0.923    2.154    1.231 
#    0.000    5.769    0.000    0.000    0.000    0.000 
#    0.000    0.000    0.000    0.000    0.000    0.000 
#
# Total GULP energy -144930.983907 kJ/mol
# GULP energy per Si atom -5574.268612 kJ/mol
# Density = 1.942104 g / cm^3
# Si number density = 19.465344 Si / 1000 Ang^3
#
#
#
# Elastic Constant Matrix: (Units=GPa)
#
#
# Indices 1 2 3 4 5 6 
#
# 1 102.9393 46.5124 46.6780 0.0000 0.0000 0.0000
# 2 46.5124 131.3832 42.4481 0.0000 0.0000 0.0000
# 3 46.6780 42.4481 72.3583 0.0000 0.0000 0.0000
# 4 0.0000 0.0000 0.0000 15.3918 0.0000 0.0000
# 5 0.0000 0.0000 0.0000 0.0000 12.2304 0.0000
# 6 0.0000 0.0000 0.0000 0.0000 0.0000 -96.9059
#
#
#
# Elastic Compliance Matrix: (Units=1/GPa)
#
#
# Indices 1 2 3 4 5 6 
#
# 1 0.014411 -0.002589 -0.007778 0.000000 0.000000 0.000000
# 2 -0.002589 0.009856 -0.004112 0.000000 0.000000 0.000000
# 3 -0.007778 -0.004112 0.021250 0.000000 0.000000 0.000000
# 4 0.000000 0.000000 0.000000 0.064970 0.000000 0.000000
# 5 0.000000 0.000000 0.000000 0.000000 0.081763 0.000000
# 6 0.000000 0.000000 0.000000 0.000000 0.000000 -0.010319
#
#
# Mechanical properties :
#
#
# Convention : Reuss Voigt Hill
#
# Bulk Modulus (GPa) = 60.38710 64.21753 62.30231
# Shear Modulus (GPa) = 23.10447 -2.45392 10.32528
#
# Velocity S-wave (km/s) = 3.44896 -1.12401 2.30564
# Velocity P-wave (km/s) = 6.85205 5.60159 6.25813
#
# Compressibility (1/GPa) = 0.01655983
#
# Stress axis : x y z
#
# Youngs Moduli (GPa) = 69.39099 101.45690 47.05930
#
# Poissons Ratio (x) = 0.26267 0.36602
# Poissons Ratio (y) = 0.17965 0.19351
# Poissons Ratio (z) = 0.53971 0.41719
#
# Static dielectric constant tensor:
#      x y z
#    x 1.781580 0.000000 0.000000 
#    y 0.000000 1.611960 0.000000 
#    z 0.000000 0.000000 1.700070 
# 
# From -- ./inp_files/15247.got.cif
#   From: 2010.05.17/outbox.cif.g08.bks.cpg/sg21_8_cif.got.tgz:15247.got - 2010.06.03 23:14:55.
