data_PCOD9322754
_publ_section_title
;
Structure prediction by ZEFSAII (Michael W. Deem and Ramdas Pophale) SiO2 
 PCOD9322754
Probable space group: C 2 2 2
;
_chemical_formula_sum "Si O2"
_cell_formula_units_Z 64
_cell_length_a 8.498431
_cell_length_b 22.030009
_cell_length_c 15.996022
_cell_angle_alpha 90.000000
_cell_angle_beta 90.000000
_cell_angle_gamma 90.000000
_cell_volume 2994.783419
_symmetry_space_group_name_H-M "C 2 2 2"
_symmetry_group_IT_number 21
_symmetry_cell_setting 'orthorhombic'
loop_
_space_group_symop_operation_xyz
x,y,z
-x,-y,z
x,-y,-z
-x,y,-z
1/2+x,1/2+y,z
1/2-x,1/2-y,z
1/2+x,1/2-y,-z
1/2-x,1/2+y,-z
loop_
_atom_site_type_symbol
_atom_site_label
_atom_site_fract_x
_atom_site_fract_y
_atom_site_fract_z
Si Si1 0.638621 0.040993 0.348140
Si Si2 0.566204 0.598673 0.082612
Si Si3 0.401846 0.167789 0.079822
Si Si4 0.561473 0.852385 0.270174
Si Si5 0.572037 0.270247 0.320664
Si Si6 0.062114 0.101226 0.592522
Si Si7 0.581159 0.280782 0.122312
Si Si8 0.341869 0.440111 0.262592
O O1 0.556412 0.097501 0.303907
O O2 0.764829 0.072106 0.407554
O O3 0.500000 0.000000 0.386999
O O4 0.728336 0.996897 0.282389
O O5 0.732366 0.635692 0.075005
O O6 0.435458 0.651211 0.092114
O O7 0.587803 0.562146 0.169319
O O8 0.500000 0.565977 0.000000
O O9 0.472607 0.153079 0.171362
O O10 0.436905 0.240547 0.085231
O O11 0.500000 0.146089 0.000000
O O12 0.538153 0.789657 0.320460
O O13 0.735631 0.879530 0.274185
O O14 0.750000 0.250000 0.338520
O O15 0.546030 0.328650 0.378022
O O16 0.566560 0.286830 0.222410
O O17 0.000000 0.094035 0.500000
O O18 0.968834 0.065274 0.664490
O O19 0.750000 0.250000 0.102507
#
# Coordination Sequence:
#
# PCOD9322754 Si02
#       8
#     8   8   8   8   8   8   8   8
#     4  10  22  45  73  94 127 177 227 274 324 391
#     4  11  21  35  57  87 131 170 220 273 334 392
#     4  10  20  32  53  90 126 170 221 273 323 394
#     4   9  20  40  67  93 132 178 218 264 341 395
#     4  10  19  38  66  96 131 172 210 265 328 401
#     4  12  25  44  70 102 134 169 216 268 337 394
#     4  10  19  32  55  86 123 173 214 259 329 391
#     4  10  23  42  64  97 130 174 223 280 326 388
#
# _framework density 21.370493
#
# number of rings (size 3 to 8) (size 9 to 14) (size 15 to 20)
#    0.000    1.750    2.500    1.875    0.000    2.500 
#    2.250    4.375    0.000   18.375    0.000    0.000 
#    0.000    0.000    0.000    0.000    0.000    0.000 
#
# Total GULP energy -178517.388981 kJ/mol
# GULP energy per Si atom -5578.668406 kJ/mol
# Density = 2.132185 g / cm^3
# Si number density = 21.370493 Si / 1000 Ang^3
#
#
#
# Elastic Constant Matrix: (Units=GPa)
#
#
# Indices 1 2 3 4 5 6 
#
# 1 97.3177 49.6282 65.8626 0.0000 0.0000 0.0000
# 2 49.6282 122.3566 42.0695 0.0000 0.0000 0.0000
# 3 65.8626 42.0695 124.4756 0.0000 0.0000 0.0000
# 4 0.0000 0.0000 0.0000 -142.9667 0.0000 0.0000
# 5 0.0000 0.0000 0.0000 0.0000 30.2298 0.0000
# 6 0.0000 0.0000 0.0000 0.0000 0.0000 22.8689
#
#
#
# Elastic Compliance Matrix: (Units=1/GPa)
#
#
# Indices 1 2 3 4 5 6 
#
# 1 0.018004 -0.004557 -0.007986 0.000000 0.000000 0.000000
# 2 -0.004557 0.010401 -0.001104 0.000000 0.000000 0.000000
# 3 -0.007986 -0.001104 0.012633 0.000000 0.000000 0.000000
# 4 0.000000 0.000000 0.000000 -0.006995 0.000000 0.000000
# 5 0.000000 0.000000 0.000000 0.000000 0.033080 0.000000
# 6 0.000000 0.000000 0.000000 0.000000 0.000000 0.043727
#
#
# Mechanical properties :
#
#
# Convention : Reuss Voigt Hill
#
# Bulk Modulus (GPa) = 72.76317 73.25228 73.00772
# Shear Modulus (GPa) = 35.03212 -5.53429 14.74891
#
# Velocity S-wave (km/s) = 4.05319 -1.61100 2.62993
# Velocity P-wave (km/s) = 7.48510 5.55799 6.59235
#
# Compressibility (1/GPa) = 0.01374322
#
# Stress axis : x y z
#
# Youngs Moduli (GPa) = 55.54187 96.14775 79.15984
#
# Poissons Ratio (x) = 0.43812 0.63221
# Poissons Ratio (y) = 0.25309 0.08740
# Poissons Ratio (z) = 0.44358 0.10616
#
# Static dielectric constant tensor:
#      x y z
#    x 1.843230 0.000000 0.000000 
#    y 0.000000 1.829560 0.000000 
#    z 0.000000 0.000000 1.774100 
# 
# From -- ./inp_files/30907.got.cif
#   From: 2010.05.17/outbox.cif.g08.bks.cpg/sg21_16_cif.got.tgz:30907.got - 2010.06.03 23:14:55.
