data_PCOD9322803
_publ_section_title
;
Structure prediction by ZEFSAII (Michael W. Deem and Ramdas Pophale) SiO2 
 PCOD9322803
Probable space group: C 2 2 2
;
_chemical_formula_sum "Si O2"
_cell_formula_units_Z 58
_cell_length_a 10.413277
_cell_length_b 17.144953
_cell_length_c 15.796425
_cell_angle_alpha 90.000000
_cell_angle_beta 90.000000
_cell_angle_gamma 90.000000
_cell_volume 2820.217024
_symmetry_space_group_name_H-M "C 2 2 2"
_symmetry_group_IT_number 21
_symmetry_cell_setting 'orthorhombic'
loop_
_space_group_symop_operation_xyz
x,y,z
-x,-y,z
x,-y,-z
-x,y,-z
1/2+x,1/2+y,z
1/2-x,1/2-y,z
1/2+x,1/2-y,-z
1/2-x,1/2+y,-z
loop_
_atom_site_type_symbol
_atom_site_label
_atom_site_fract_x
_atom_site_fract_y
_atom_site_fract_z
Si Si1 0.705578 0.930827 0.873758
Si Si2 0.861146 0.957577 0.387105
Si Si3 0.500000 0.000000 0.000000
Si Si4 0.045616 0.176070 0.906370
Si Si5 0.794186 0.882999 0.564180
Si Si6 0.936732 0.737578 0.591548
Si Si7 0.880625 0.060273 0.799936
Si Si8 0.382663 0.795755 0.234999
O O1 0.825115 0.877788 0.907753
O O2 0.651702 0.882383 0.793904
O O3 0.766491 0.012228 0.843030
O O4 0.594576 0.948279 0.941261
O O5 0.824434 0.904864 0.466975
O O6 0.851054 0.917159 0.296632
O O7 0.772782 0.035345 0.389308
O O8 0.000000 0.000000 0.400231
O O9 0.072465 0.250605 0.848477
O O10 0.934544 0.127751 0.858858
O O11 0.000000 0.195172 0.000000
O O12 0.908643 0.830179 0.601152
O O13 0.678619 0.823617 0.575551
O O14 0.978760 0.711721 0.685653
O O15 0.000000 0.733018 0.500000
O O16 0.000000 0.000000 0.791766
O O17 0.250000 0.750000 0.260188
#
# Coordination Sequence:
#
# PCOD9322803 Si02
#       8
#     8   8   2   8   8   8   8   8
#     4  10  22  40  61  89 120 161 204 239 302 375
#     4  10  19  33  58  90 116 148 191 254 305 346
#     4  12  24  40  66  80 122 168 198 238 292 376
#     4  10  21  37  64  95 118 146 198 267 309 346
#     4  10  20  34  55  85 118 149 197 246 290 347
#     4  11  22  36  60  80 119 163 202 234 292 363
#     4   9  19  33  61  88 119 146 197 256 309 348
#     4  10  21  39  63  86 120 159 201 244 304 371
#
# _framework density 20.565794
#
# number of rings (size 3 to 8) (size 9 to 14) (size 15 to 20)
#    0.000    1.931    1.379    3.310    8.690    1.931 
#    2.483    1.379    0.000    0.000    0.000    0.000 
#    0.000    0.000    0.000    0.000    0.000    0.000 
#
# Total GULP energy -161682.288348 kJ/mol
# GULP energy per Si atom -5575.251322 kJ/mol
# Density = 2.051899 g / cm^3
# Si number density = 20.565794 Si / 1000 Ang^3
#
#
#
# Elastic Constant Matrix: (Units=GPa)
#
#
# Indices 1 2 3 4 5 6 
#
# 1 34.4063 23.5578 41.3012 0.0000 0.0000 0.0000
# 2 23.5578 69.0304 26.4844 0.0000 0.0000 0.0000
# 3 41.3012 26.4844 166.4490 0.0000 0.0000 0.0000
# 4 0.0000 0.0000 0.0000 39.2055 0.0000 0.0000
# 5 0.0000 0.0000 0.0000 0.0000 26.8691 0.0000
# 6 0.0000 0.0000 0.0000 0.0000 0.0000 14.1440
#
#
#
# Elastic Compliance Matrix: (Units=1/GPa)
#
#
# Indices 1 2 3 4 5 6 
#
# 1 0.050744 -0.013298 -0.010475 0.000000 0.000000 0.000000
# 2 -0.013298 0.018913 0.000290 0.000000 0.000000 0.000000
# 3 -0.010475 0.000290 0.008561 0.000000 0.000000 0.000000
# 4 0.000000 0.000000 0.000000 0.025507 0.000000 0.000000
# 5 0.000000 0.000000 0.000000 0.000000 0.037217 0.000000
# 6 0.000000 0.000000 0.000000 0.000000 0.000000 0.070702
#
#
# Mechanical properties :
#
#
# Convention : Reuss Voigt Hill
#
# Bulk Modulus (GPa) = 31.99805 50.28584 41.14194
# Shear Modulus (GPa) = 18.58543 27.94655 23.26599
#
# Velocity S-wave (km/s) = 3.00943 3.69030 3.36712
# Velocity P-wave (km/s) = 5.26006 6.53162 5.93002
#
# Compressibility (1/GPa) = 0.03125191
#
# Stress axis : x y z
#
# Youngs Moduli (GPa) = 19.70664 52.87303 116.81021
#
# Poissons Ratio (x) = 0.70312 1.22362
# Poissons Ratio (y) = 0.26207 -0.03392
# Poissons Ratio (z) = 0.20643 -0.01535
#
# Static dielectric constant tensor:
#      x y z
#    x 1.784090 0.000000 0.000000 
#    y 0.000000 1.731820 0.000000 
#    z 0.000000 0.000000 1.785670 
# 
# From -- ./inp_files/31724.got.cif
#   From: 2010.05.17/outbox.cif.g08.bks.cpg/sg21_16_cif.got.tgz:31724.got - 2010.06.03 23:14:55.
