data_PCOD9322511
_publ_section_title
;
Structure prediction by ZEFSAII (Michael W. Deem and Ramdas Pophale) SiO2 
 PCOD9322511
Probable space group: C 2 2 2
;
_chemical_formula_sum "Si O2"
_cell_formula_units_Z 64
_cell_length_a 30.203013
_cell_length_b 14.722020
_cell_length_c 8.073107
_cell_angle_alpha 90.000000
_cell_angle_beta 90.000000
_cell_angle_gamma 90.000000
_cell_volume 3589.701872
_symmetry_space_group_name_H-M "C 2 2 2"
_symmetry_group_IT_number 21
_symmetry_cell_setting 'orthorhombic'
loop_
_space_group_symop_operation_xyz
x,y,z
-x,-y,z
x,-y,-z
-x,y,-z
1/2+x,1/2+y,z
1/2-x,1/2-y,z
1/2+x,1/2-y,-z
1/2-x,1/2+y,-z
loop_
_atom_site_type_symbol
_atom_site_label
_atom_site_fract_x
_atom_site_fract_y
_atom_site_fract_z
Si Si1 0.779957 0.486630 0.311860
Si Si2 0.877104 0.831237 0.843116
Si Si3 0.136458 0.825405 0.761219
Si Si4 0.814240 0.995574 0.805029
Si Si5 0.702961 0.793400 0.815367
Si Si6 0.028279 0.111364 0.831037
Si Si7 0.207685 0.307329 0.210761
Si Si8 0.053929 0.064338 0.340749
O O1 0.793324 0.500000 0.500000
O O2 0.727842 0.463690 0.295911
O O3 0.802028 0.398159 0.233860
O O4 0.786790 0.585078 0.229852
O O5 0.855782 0.928478 0.794815
O O6 0.841298 0.761665 0.768438
O O7 0.928944 0.825872 0.803657
O O8 0.875566 0.823722 0.043373
O O9 0.162177 0.733636 0.714745
O O10 0.093608 0.864433 0.669594
O O11 0.172463 0.905302 0.746337
O O12 0.801559 0.000000 0.000000
O O13 0.750000 0.750000 0.754748
O O14 0.705428 0.787469 0.014707
O O15 0.992194 0.116395 0.685454
O O16 0.049447 0.009566 0.810414
O O17 0.000000 0.126629 0.000000
O O18 0.250000 0.250000 0.276040
O O19 0.057757 0.000000 0.500000
#
# Coordination Sequence:
#
# PCOD9322511 Si02
#       8
#     8   8   8   8   8   8   8   8
#     4  12  24  37  51  78 116 152 180 229 292 333
#     4  10  19  33  57  84 103 144 197 231 272 319
#     4  10  19  33  53  79 107 143 190 235 272 324
#     4  10  18  32  55  77 106 144 194 227 265 322
#     4  10  20  37  61  80 104 145 197 237 269 329
#     4  11  20  33  55  77 113 148 183 228 273 330
#     4  10  20  37  57  78 103 143 195 238 277 327
#     4  11  22  33  48  80 117 155 182 212 282 350
#
# _framework density 17.828779000000001
#
# number of rings (size 3 to 8) (size 9 to 14) (size 15 to 20)
#    0.000    1.500    5.000    2.625    0.000    1.000 
#    2.250    0.000    0.000    0.000    0.000    0.875 
#    0.000    1.000    0.000    0.000    0.000    0.000 
#
# Total GULP energy -178351.621964 kJ/mol
# GULP energy per Si atom -5573.488186 kJ/mol
# Density = 1.778820 g / cm^3
# Si number density = 17.828779 Si / 1000 Ang^3
#
#
#
# Elastic Constant Matrix: (Units=GPa)
#
#
# Indices 1 2 3 4 5 6 
#
# 1 135.2658 56.0065 27.7688 0.0000 0.0000 0.0000
# 2 56.0065 89.1697 10.4823 0.0000 0.0000 0.0000
# 3 27.7688 10.4823 33.7481 0.0000 0.0000 0.0000
# 4 0.0000 0.0000 0.0000 12.0587 0.0000 0.0000
# 5 0.0000 0.0000 0.0000 0.0000 5.1308 0.0000
# 6 0.0000 0.0000 0.0000 0.0000 0.0000 10.9036
#
#
#
# Elastic Compliance Matrix: (Units=1/GPa)
#
#
# Indices 1 2 3 4 5 6 
#
# 1 0.011589 -0.006392 -0.007551 0.000000 0.000000 0.000000
# 2 -0.006392 0.015164 0.000549 0.000000 0.000000 0.000000
# 3 -0.007551 0.000549 0.035674 0.000000 0.000000 0.000000
# 4 0.000000 0.000000 0.000000 0.082928 0.000000 0.000000
# 5 0.000000 0.000000 0.000000 0.000000 0.194901 0.000000
# 6 0.000000 0.000000 0.000000 0.000000 0.000000 0.091713
#
#
# Mechanical properties :
#
#
# Convention : Reuss Voigt Hill
#
# Bulk Modulus (GPa) = 28.05764 49.63321 38.84543
# Shear Modulus (GPa) = 10.62392 16.54701 13.58546
#
# Velocity S-wave (km/s) = 2.44373 3.04979 2.76342
# Velocity P-wave (km/s) = 4.87174 6.34830 5.65839
#
# Compressibility (1/GPa) = 0.03564091
#
# Stress axis : x y z
#
# Youngs Moduli (GPa) = 86.28608 65.94364 28.03175
#
# Poissons Ratio (x) = 0.42148 0.21166
# Poissons Ratio (y) = 0.55150 -0.01539
# Poissons Ratio (z) = 0.65153 -0.03620
#
# Static dielectric constant tensor:
#      x y z
#    x 1.654990 0.000000 0.000000 
#    y 0.000000 1.630160 0.000000 
#    z 0.000000 0.000000 1.685880 
# 
# From -- ./inp_files/19859.got.cif
#   From: 2010.05.17/outbox.cif.g08.bks.cpg/sg21_10_cif.got.tgz:19859.got - 2010.06.03 23:14:55.
