data_PCOD9322477
_publ_section_title
;
Structure prediction by ZEFSAII (Michael W. Deem and Ramdas Pophale) SiO2 
 PCOD9322477
Probable space group: C 2 2 2
;
_chemical_formula_sum "Si O2"
_cell_formula_units_Z 32
_cell_length_a 5.269411
_cell_length_b 13.555230
_cell_length_c 19.338523
_cell_angle_alpha 90.000000
_cell_angle_beta 90.000000
_cell_angle_gamma 90.000000
_cell_volume 1381.313531
_symmetry_space_group_name_H-M "C 2 2 2"
_symmetry_group_IT_number 21
_symmetry_cell_setting 'orthorhombic'
loop_
_space_group_symop_operation_xyz
x,y,z
-x,-y,z
x,-y,-z
-x,y,-z
1/2+x,1/2+y,z
1/2-x,1/2-y,z
1/2+x,1/2-y,-z
1/2-x,1/2+y,-z
loop_
_atom_site_type_symbol
_atom_site_label
_atom_site_fract_x
_atom_site_fract_y
_atom_site_fract_z
Si Si1 0.250000 0.250000 0.453821
Si Si2 0.755057 0.933507 0.351782
Si Si3 0.956259 0.138878 0.794677
Si Si4 0.462950 0.862972 0.149722
Si Si5 0.500000 0.810640 0.000000
O O1 0.500000 0.264067 0.500000
O O2 0.289554 0.153149 0.406762
O O3 0.842432 0.879374 0.280771
O O4 0.500000 0.000000 0.344458
O O5 0.000000 0.000000 0.371541
O O6 0.743924 0.094889 0.844865
O O7 0.237926 0.096752 0.802810
O O8 0.997980 0.251661 0.819965
O O9 0.398431 0.863641 0.068916
O O10 0.750000 0.750000 0.023752
#
# Coordination Sequence:
#
# PCOD9322477 Si02
#       5
#     4   8   8   8   4
#     4  12  28  50  80 112 146 190 232 280 348 420
#     4  12  27  47  73 107 146 188 235 291 349 421
#     4  10  19  34  55  86 127 174 221 283 343 399
#     4  10  18  30  55  89 130 176 235 294 350 426
#     4  12  16  28  46  90 136 168 238 306 354 424
#
# _framework density 23.166356
#
# number of rings (size 3 to 8) (size 9 to 14) (size 15 to 20)
#    0.000    1.000    5.000    4.500    0.000    7.000 
#    0.000    0.000    0.000    0.000    0.000   21.000 
#    0.000    0.000    0.000    0.000    0.000    0.000 
#
# Total GULP energy -89286.760605 kJ/mol
# GULP energy per Si atom -5580.422538 kJ/mol
# Density = 2.311363 g / cm^3
# Si number density = 23.166356 Si / 1000 Ang^3
#
#
#
# Elastic Constant Matrix: (Units=GPa)
#
#
# Indices 1 2 3 4 5 6 
#
# 1 209.6299 20.2118 49.9442 0.0000 0.0000 0.0000
# 2 20.2118 129.7207 45.6480 0.0000 0.0000 0.0000
# 3 49.9442 45.6480 155.0643 0.0000 0.0000 0.0000
# 4 0.0000 0.0000 0.0000 20.5041 0.0000 0.0000
# 5 0.0000 0.0000 0.0000 0.0000 17.7210 0.0000
# 6 0.0000 0.0000 0.0000 0.0000 0.0000 8.7391
#
#
#
# Elastic Compliance Matrix: (Units=1/GPa)
#
#
# Indices 1 2 3 4 5 6 
#
# 1 0.005174 -0.000245 -0.001594 0.000000 0.000000 0.000000
# 2 -0.000245 0.008611 -0.002456 0.000000 0.000000 0.000000
# 3 -0.001594 -0.002456 0.007685 0.000000 0.000000 0.000000
# 4 0.000000 0.000000 0.000000 0.048771 0.000000 0.000000
# 5 0.000000 0.000000 0.000000 0.000000 0.056430 0.000000
# 6 0.000000 0.000000 0.000000 0.000000 0.000000 0.114429
#
#
# Mechanical properties :
#
#
# Convention : Reuss Voigt Hill
#
# Bulk Modulus (GPa) = 77.64160 80.66919 79.15539
# Shear Modulus (GPa) = 19.68626 34.63357 27.15992
#
# Velocity S-wave (km/s) = 2.91826 3.87071 3.42773
# Velocity P-wave (km/s) = 6.70392 7.40769 7.06457
#
# Compressibility (1/GPa) = 0.01287969
#
# Stress axis : x y z
#
# Youngs Moduli (GPa) = 193.28248 116.12602 130.11610
#
# Poissons Ratio (x) = 0.02846 0.20744
# Poissons Ratio (y) = 0.04738 0.31957
# Poissons Ratio (z) = 0.30814 0.28521
#
# Static dielectric constant tensor:
#      x y z
#    x 1.166830 0.000000 0.000000 
#    y 0.000000 7.752570 0.000000 
#    z 0.000000 0.000000 1.834310 
# 
# From -- ./inp_files/34505.got.cif
#   From: 2010.05.17/outbox.cif.g08.bks.cpg/sg21_18_cif.got.tgz:34505.got - 2010.06.03 23:14:55.
