data_PCOD9322559
_publ_section_title
;
Structure prediction by ZEFSAII (Michael W. Deem and Ramdas Pophale) SiO2 
 PCOD9322559
Probable space group: C 2 2 2
;
_chemical_formula_sum "Si O2"
_cell_formula_units_Z 64
_cell_length_a 12.168915
_cell_length_b 32.596073
_cell_length_c 8.540802
_cell_angle_alpha 90.000000
_cell_angle_beta 90.000000
_cell_angle_gamma 90.000000
_cell_volume 3387.784628
_symmetry_space_group_name_H-M "C 2 2 2"
_symmetry_group_IT_number 21
_symmetry_cell_setting 'orthorhombic'
loop_
_space_group_symop_operation_xyz
x,y,z
-x,-y,z
x,-y,-z
-x,y,-z
1/2+x,1/2+y,z
1/2-x,1/2-y,z
1/2+x,1/2-y,-z
1/2-x,1/2+y,-z
loop_
_atom_site_type_symbol
_atom_site_label
_atom_site_fract_x
_atom_site_fract_y
_atom_site_fract_z
Si Si1 0.484918 0.717396 0.181223
Si Si2 0.249045 0.578098 0.678767
Si Si3 0.010354 0.603647 0.690832
Si Si4 0.602929 0.650562 0.390816
Si Si5 0.524313 0.804150 0.683785
Si Si6 0.234374 0.417667 0.702330
Si Si7 0.776641 0.174890 0.307440
Si Si8 0.127076 0.003087 0.691793
O O1 0.555858 0.685473 0.280772
O O2 0.513726 0.763814 0.227270
O O3 0.360833 0.705245 0.226135
O O4 0.500000 0.710970 0.000000
O O5 0.124760 0.583103 0.737904
O O6 0.334199 0.615322 0.703637
O O7 0.238100 0.579070 0.488132
O O8 0.303233 0.536611 0.738699
O O9 0.000000 0.603399 0.500000
O O10 0.020901 0.651578 0.735505
O O11 0.895324 0.583675 0.747247
O O12 0.500000 0.634796 0.500000
O O13 0.688149 0.670882 0.511413
O O14 0.500000 0.798770 0.500000
O O15 0.654343 0.809139 0.705127
O O16 0.280673 0.372780 0.748867
O O17 0.310622 0.455876 0.749094
O O18 0.126561 0.000000 0.500000
O O19 0.000000 0.000000 0.741094
#
# Coordination Sequence:
#
# PCOD9322559 Si02
#       8
#     8   8   8   8   8   8   8   8
#     4  11  23  35  48  74 107 137 169 214 269 320
#     4   9  16  26  42  69 100 128 165 210 251 297
#     4   8  15  28  45  65  94 129 169 207 249 302
#     4   9  18  31  52  72  96 137 176 214 258 309
#     4  10  18  34  56  75  96 132 181 222 259 307
#     4   8  15  27  44  68  95 133 167 205 253 299
#     4   9  18  34  55  73  99 136 178 217 257 309
#     4   9  17  22  37  68 103 134 161 199 250 303
#
# _framework density 18.891403
#
# number of rings (size 3 to 8) (size 9 to 14) (size 15 to 20)
#    0.000    2.875    0.000    3.750    7.000    0.500 
#    0.000    9.375    0.000    0.000    0.000    1.750 
#    0.000    0.000    0.000    4.375    0.000   10.000 
#
# Total GULP energy -178287.748633 kJ/mol
# GULP energy per Si atom -5571.492145 kJ/mol
# Density = 1.884841 g / cm^3
# Si number density = 18.891403 Si / 1000 Ang^3
#
#
#
# Elastic Constant Matrix: (Units=GPa)
#
#
# Indices 1 2 3 4 5 6 
#
# 1 106.4615 80.7905 5.3671 0.0000 0.0000 0.0000
# 2 80.7905 112.5534 18.6581 0.0000 0.0000 0.0000
# 3 5.3671 18.6581 13.1240 0.0000 0.0000 0.0000
# 4 0.0000 0.0000 0.0000 -51.2467 0.0000 0.0000
# 5 0.0000 0.0000 0.0000 0.0000 -2.1768 0.0000
# 6 0.0000 0.0000 0.0000 0.0000 0.0000 23.4923
#
#
#
# Elastic Compliance Matrix: (Units=1/GPa)
#
#
# Indices 1 2 3 4 5 6 
#
# 1 0.023782 -0.020225 0.019027 0.000000 0.000000 0.000000
# 2 -0.020225 0.028824 -0.032707 0.000000 0.000000 0.000000
# 3 0.019027 -0.032707 0.114915 0.000000 0.000000 0.000000
# 4 0.000000 0.000000 0.000000 -0.019513 0.000000 0.000000
# 5 0.000000 0.000000 0.000000 0.000000 -0.459380 0.000000
# 6 0.000000 0.000000 0.000000 0.000000 0.000000 0.042567
#
#
# Mechanical properties :
#
#
# Convention : Reuss Voigt Hill
#
# Bulk Modulus (GPa) = 10.02900 49.08560 29.55730
# Shear Modulus (GPa) = -29.80453 2.50197 -13.65128
#
# Velocity S-wave (km/s) = -3.97631 1.15207 -2.69107
# Velocity P-wave (km/s) = 3.97002 5.27344 2.45439
#
# Compressibility (1/GPa) = 0.09971085
#
# Stress axis : x y z
#
# Youngs Moduli (GPa) = 42.04905 34.69351 8.70212
#
# Poissons Ratio (x) = 0.70167 -0.16558
# Poissons Ratio (y) = 0.85043 0.28462
# Poissons Ratio (z) = -0.80008 1.13473
#
# Static dielectric constant tensor:
#      x y z
#    x 1.675910 0.000000 0.000000 
#    y 0.000000 1.670480 0.000000 
#    z 0.000000 0.000000 1.652870 
# 
# From -- ./inp_files/13694.got.cif
#   From: 2010.05.17/outbox.cif.g08.bks.cpg/sg21_7_cif.got.tgz:13694.got - 2010.06.03 23:14:55.
