data_PCOD9322411
_publ_section_title
;
Structure prediction by ZEFSAII (Michael W. Deem and Ramdas Pophale) SiO2 
 PCOD9322411
Probable space group: C 2 2 2
;
_chemical_formula_sum "Si O2"
_cell_formula_units_Z 48
_cell_length_a 16.327833
_cell_length_b 10.996567
_cell_length_c 14.018892
_cell_angle_alpha 90.000000
_cell_angle_beta 90.000000
_cell_angle_gamma 90.000000
_cell_volume 2517.093594
_symmetry_space_group_name_H-M "C 2 2 2"
_symmetry_group_IT_number 21
_symmetry_cell_setting 'orthorhombic'
loop_
_space_group_symop_operation_xyz
x,y,z
-x,-y,z
x,-y,-z
-x,y,-z
1/2+x,1/2+y,z
1/2-x,1/2-y,z
1/2+x,1/2-y,-z
1/2-x,1/2+y,-z
loop_
_atom_site_type_symbol
_atom_site_label
_atom_site_fract_x
_atom_site_fract_y
_atom_site_fract_z
Si Si1 0.000000 0.000000 0.228164
Si Si2 0.238446 0.549471 0.176081
Si Si3 0.833150 0.500000 0.500000
Si Si4 0.623855 0.399476 0.916270
Si Si5 0.250000 0.750000 0.479095
Si Si6 0.250000 0.250000 0.981588
Si Si7 0.088255 0.554406 0.296226
Si Si8 0.633055 0.326898 0.313376
O O1 0.064680 0.928702 0.294032
O O2 0.952584 0.907108 0.156002
O O3 0.299219 0.444700 0.145355
O O4 0.228367 0.635106 0.084689
O O5 0.156650 0.503064 0.224876
O O6 0.289237 0.629350 0.252047
O O7 0.781888 0.376583 0.524831
O O8 0.885294 0.471386 0.405464
O O9 0.608345 0.500000 0.000000
O O10 0.664907 0.282037 0.964458
O O11 0.326607 0.701275 0.415491
O O12 0.094883 0.699314 0.280211
O O13 0.000000 0.500000 0.278433
#
# Coordination Sequence:
#
# PCOD9322411 Si02
#       8
#     4   8   4   8   4   4   8   8
#     4  10  21  34  58  91 116 148 198 251 288 338
#     4  10  17  36  61  78 107 165 201 224 290 371
#     4  10  21  40  64  93 118 152 202 245 302 360
#     4   9  20  32  54  84 117 148 197 247 290 328
#     4  10  19  40  69  86 116 166 200 235 294 375
#     4  10  17  34  59  78 112 160 198 239 282 351
#     4  11  21  36  60  87 117 153 193 240 301 356
#     4  10  18  38  62  82 113 157 198 226 291 363
#
# _framework density 19.069611999999999
#
# number of rings (size 3 to 8) (size 9 to 14) (size 15 to 20)
#    0.000    2.000    5.000    0.500    0.000    1.333 
#    3.000    0.833    3.667    3.500    0.000    0.000 
#    0.000    0.000    0.000    0.000    0.000    0.000 
#
# Total GULP energy -133609.614279 kJ/mol
# GULP energy per Si atom -5567.067262 kJ/mol
# Density = 1.902621 g / cm^3
# Si number density = 19.069612 Si / 1000 Ang^3
#
#
#
# Elastic Constant Matrix: (Units=GPa)
#
#
# Indices 1 2 3 4 5 6 
#
# 1 124.2787 29.5103 28.0951 0.0000 0.0000 0.0000
# 2 29.5103 44.1263 8.6447 0.0000 0.0000 0.0000
# 3 28.0951 8.6447 39.8827 0.0000 0.0000 0.0000
# 4 0.0000 0.0000 0.0000 17.7322 0.0000 0.0000
# 5 0.0000 0.0000 0.0000 0.0000 0.7424 0.0000
# 6 0.0000 0.0000 0.0000 0.0000 0.0000 32.8844
#
#
#
# Elastic Compliance Matrix: (Units=1/GPa)
#
#
# Indices 1 2 3 4 5 6 
#
# 1 0.010928 -0.006058 -0.006385 0.000000 0.000000 0.000000
# 2 -0.006058 0.027025 -0.001590 0.000000 0.000000 0.000000
# 3 -0.006385 -0.001590 0.029916 0.000000 0.000000 0.000000
# 4 0.000000 0.000000 0.000000 0.056394 0.000000 0.000000
# 5 0.000000 0.000000 0.000000 0.000000 1.347046 0.000000
# 6 0.000000 0.000000 0.000000 0.000000 0.000000 0.030410
#
#
# Mechanical properties :
#
#
# Convention : Reuss Voigt Hill
#
# Bulk Modulus (GPa) = 25.12388 37.86533 31.49460
# Shear Modulus (GPa) = 3.24033 19.74097 11.49065
#
# Velocity S-wave (km/s) = 1.30495 3.22095 2.45738
# Velocity P-wave (km/s) = 3.93369 5.80794 4.96015
#
# Compressibility (1/GPa) = 0.03980277
#
# Stress axis : x y z
#
# Youngs Moduli (GPa) = 91.50513 37.00279 33.42640
#
# Poissons Ratio (x) = 0.22415 0.21344
# Poissons Ratio (y) = 0.55430 0.05316
# Poissons Ratio (z) = 0.58430 0.05885
#
# Static dielectric constant tensor:
#      x y z
#    x 1.664800 0.000000 0.000000 
#    y 0.000000 2.684030 0.000000 
#    z 0.000000 0.000000 1.704900 
# 
# From -- ./inp_files/32282.got.cif
#   From: 2010.05.17/outbox.cif.g08.bks.cpg/sg21_17_cif.got.tgz:32282.got - 2010.06.03 23:14:55.
