data_PCOD9322153
_publ_section_title
;
Structure prediction by ZEFSAII (Michael W. Deem and Ramdas Pophale) SiO2 
 PCOD9322153
Probable space group: C 2 2 21
;
_chemical_formula_sum "Si O2"
_cell_formula_units_Z 24
_cell_length_a 8.281946
_cell_length_b 12.932062
_cell_length_c 8.993276
_cell_angle_alpha 90.000000
_cell_angle_beta 90.000000
_cell_angle_gamma 90.000000
_cell_volume 963.203594
_symmetry_space_group_name_H-M "C 2 2 21"
_symmetry_group_IT_number 20
_symmetry_cell_setting 'orthorhombic'
loop_
_space_group_symop_operation_xyz
x,y,z
-x,-y,1/2+z
x,-y,-z
-x,y,1/2-z
1/2+x,1/2+y,z
1/2-x,1/2-y,1/2+z
1/2+x,1/2-y,-z
1/2-x,1/2+y,1/2-z
loop_
_atom_site_type_symbol
_atom_site_label
_atom_site_fract_x
_atom_site_fract_y
_atom_site_fract_z
Si Si1 0.809955 0.108546 0.922420
Si Si2 0.673919 0.016100 0.326617
Si Si3 0.096597 0.202982 0.105875
O O1 0.687375 0.199679 0.962064
O O2 0.778689 0.075231 0.751406
O O3 0.980012 0.147617 0.987286
O O4 0.773621 0.000000 0.000000
O O5 0.500000 0.023490 0.250000
O O6 0.779107 0.120387 0.324569
O O7 0.646442 0.000000 0.500000
O O8 0.000000 0.241900 0.250000
#
# Coordination Sequence:
#
# PCOD9322153 Si02
#       3
#     8   8   8
#     4  12  29  58  85 128 180 231 298 361 445 526
#     4  12  30  54  88 129 177 236 295 365 445 526
#     4  12  30  54  86 133 173 236 297 367 445 530
#
# _framework density 24.916848999999999
#
# number of rings (size 3 to 8) (size 9 to 14) (size 15 to 20)
#    0.000    0.000    3.333    3.000   14.000    0.000 
#    6.000    0.000    0.000    0.000    0.000    0.000 
#    0.000    0.000    0.000    0.000    0.000    0.000 
#
# Total GULP energy -67282.104397 kJ/mol
# GULP energy per Si atom -5606.842033 kJ/mol
# Density = 2.486014 g / cm^3
# Si number density = 24.916849 Si / 1000 Ang^3
#
#
#
# Elastic Constant Matrix: (Units=GPa)
#
#
# Indices 1 2 3 4 5 6 
#
# 1 129.7204 73.8418 78.5389 0.0000 0.0000 0.0000
# 2 73.8418 155.5149 33.8775 0.0000 0.0000 0.0000
# 3 78.5389 33.8775 162.7936 0.0000 0.0000 0.0000
# 4 0.0000 0.0000 0.0000 22.6509 0.0000 0.0000
# 5 0.0000 0.0000 0.0000 0.0000 58.9062 0.0000
# 6 0.0000 0.0000 0.0000 0.0000 0.0000 36.5356
#
#
#
# Elastic Compliance Matrix: (Units=1/GPa)
#
#
# Indices 1 2 3 4 5 6 
#
# 1 0.014376 -0.005567 -0.005777 0.000000 0.000000 0.000000
# 2 -0.005567 0.008892 0.000836 0.000000 0.000000 0.000000
# 3 -0.005777 0.000836 0.008756 0.000000 0.000000 0.000000
# 4 0.000000 0.000000 0.000000 0.044148 0.000000 0.000000
# 5 0.000000 0.000000 0.000000 0.000000 0.016976 0.000000
# 6 0.000000 0.000000 0.000000 0.000000 0.000000 0.027371
#
#
# Mechanical properties :
#
#
# Convention : Reuss Voigt Hill
#
# Bulk Modulus (GPa) = 90.86049 91.17169 91.01609
# Shear Modulus (GPa) = 34.43420 41.06992 37.75206
#
# Velocity S-wave (km/s) = 3.72151 4.06430 3.89668
# Velocity P-wave (km/s) = 7.41693 7.66124 7.54007
#
# Compressibility (1/GPa) = 0.01100588
#
# Stress axis : x y z
#
# Youngs Moduli (GPa) = 69.56188 112.46362 114.20895
#
# Poissons Ratio (x) = 0.62613 0.65977
# Poissons Ratio (y) = 0.38728 -0.09543
# Poissons Ratio (z) = 0.40185 -0.09397
#
# Static dielectric constant tensor:
#      x y z
#    x 1.970010 0.000000 0.000000 
#    y 0.000000 1.932810 0.000000 
#    z 0.000000 0.000000 2.042660 
# 
# From -- ./inp_files/5535.got.cif
#   From: 2010.05.17/outbox.cif.g08.bks.cpg/sg20_3_cif.got.tgz:5535.got - 2010.06.03 22:52:26.
