data_PCOD9322820
_publ_section_title
;
Structure prediction by ZEFSAII (Michael W. Deem and Ramdas Pophale) SiO2 
 PCOD9322820
Probable space group: C 2 2 2
;
_chemical_formula_sum "Si O2"
_cell_formula_units_Z 48
_cell_length_a 8.820319
_cell_length_b 15.297041
_cell_length_c 15.804154
_cell_angle_alpha 90.000000
_cell_angle_beta 90.000000
_cell_angle_gamma 90.000000
_cell_volume 2132.372023
_symmetry_space_group_name_H-M "C 2 2 2"
_symmetry_group_IT_number 21
_symmetry_cell_setting 'orthorhombic'
loop_
_space_group_symop_operation_xyz
x,y,z
-x,-y,z
x,-y,-z
-x,y,-z
1/2+x,1/2+y,z
1/2-x,1/2-y,z
1/2+x,1/2-y,-z
1/2-x,1/2+y,-z
loop_
_atom_site_type_symbol
_atom_site_label
_atom_site_fract_x
_atom_site_fract_y
_atom_site_fract_z
Si Si1 0.575881 0.142776 0.411442
Si Si2 0.579466 0.407369 0.079914
Si Si3 0.585216 0.645725 0.244083
Si Si4 0.421928 0.147025 0.239250
Si Si5 0.424955 0.357185 0.587720
Si Si6 0.625136 0.831707 0.926239
O O1 0.500000 0.115869 0.500000
O O2 0.489714 0.111782 0.327055
O O3 0.574114 0.249982 0.410909
O O4 0.750608 0.115494 0.407500
O O5 0.500000 0.500000 0.085406
O O6 0.534318 0.365527 0.168793
O O7 0.756117 0.410032 0.061620
O O8 0.500000 0.361170 0.000000
O O9 0.598175 0.749535 0.254840
O O10 0.752926 0.610820 0.221612
O O11 0.520024 0.610708 0.331850
O O12 0.535850 0.146880 0.160177
O O13 0.500000 0.384356 0.500000
O O14 0.750000 0.750000 0.922594
O O15 0.500000 0.824697 0.000000
#
# Coordination Sequence:
#
# PCOD9322820 Si02
#       6
#     8   8   8   8   8   8
#     4   9  16  26  42  73 115 153 190 231 298 359
#     4  11  24  43  61  82 118 157 195 244 302 367
#     4  10  19  34  54  81 116 153 197 240 301 353
#     4  10  20  31  55  85 117 150 193 253 295 353
#     4   9  16  26  45  71 109 151 191 239 290 351
#     4  12  24  38  64  93 121 156 204 258 312 366
#
# _framework density 22.510142999999999
#
# number of rings (size 3 to 8) (size 9 to 14) (size 15 to 20)
#    0.000    1.833    1.667    3.500    4.667    4.000 
#    0.000    5.833    0.000    0.500    0.000    0.000 
#    0.000    1.333    0.000    0.000    0.000    0.000 
#
# Total GULP energy -133932.656657 kJ/mol
# GULP energy per Si atom -5580.527361 kJ/mol
# Density = 2.245891 g / cm^3
# Si number density = 22.510143 Si / 1000 Ang^3
#
#
#
# Elastic Constant Matrix: (Units=GPa)
#
#
# Indices 1 2 3 4 5 6 
#
# 1 200.9863 21.4322 95.4428 0.0000 0.0000 0.0000
# 2 21.4322 35.2283 3.7902 0.0000 0.0000 0.0000
# 3 95.4428 3.7902 196.8792 0.0000 0.0000 0.0000
# 4 0.0000 0.0000 0.0000 -6.4962 0.0000 0.0000
# 5 0.0000 0.0000 0.0000 0.0000 31.9138 0.0000
# 6 0.0000 0.0000 0.0000 0.0000 0.0000 13.4526
#
#
#
# Elastic Compliance Matrix: (Units=1/GPa)
#
#
# Indices 1 2 3 4 5 6 
#
# 1 0.006954 -0.003876 -0.003297 0.000000 0.000000 0.000000
# 2 -0.003876 0.030606 0.001290 0.000000 0.000000 0.000000
# 3 -0.003297 0.001290 0.006653 0.000000 0.000000 0.000000
# 4 0.000000 0.000000 0.000000 -0.153935 0.000000 0.000000
# 5 0.000000 0.000000 0.000000 0.000000 0.031334 0.000000
# 6 0.000000 0.000000 0.000000 0.000000 0.000000 0.074335
#
#
# Mechanical properties :
#
#
# Convention : Reuss Voigt Hill
#
# Bulk Modulus (GPa) = 30.81983 74.93602 52.87793
# Shear Modulus (GPa) = 269.85210 28.60259 149.22734
#
# Velocity S-wave (km/s) = 10.96086 3.56849 8.15091
# Velocity P-wave (km/s) = 13.18744 7.09514 10.58890
#
# Compressibility (1/GPa) = 0.03244664
#
# Stress axis : x y z
#
# Youngs Moduli (GPa) = 143.79596 32.67366 150.31761
#
# Poissons Ratio (x) = 0.12665 0.49555
# Poissons Ratio (y) = 0.55738 -0.19389
# Poissons Ratio (z) = 0.47405 -0.04214
#
# Static dielectric constant tensor:
#      x y z
#    x 1.843780 0.000000 0.000000 
#    y 0.000000 1.971200 0.000000 
#    z 0.000000 0.000000 1.711020 
# 
# From -- ./inp_files/30622.got.cif
#   From: 2010.05.17/outbox.cif.g08.bks.cpg/sg21_16_cif.got.tgz:30622.got - 2010.06.03 23:14:55.
