data_PCOD9322500
_publ_section_title
;
Structure prediction by ZEFSAII (Michael W. Deem and Ramdas Pophale) SiO2 
 PCOD9322500
Probable space group: C 2 2 2
;
_chemical_formula_sum "Si O2"
_cell_formula_units_Z 56
_cell_length_a 24.699399
_cell_length_b 13.789697
_cell_length_c 8.651742
_cell_angle_alpha 90.000000
_cell_angle_beta 90.000000
_cell_angle_gamma 90.000000
_cell_volume 2946.759345
_symmetry_space_group_name_H-M "C 2 2 2"
_symmetry_group_IT_number 21
_symmetry_cell_setting 'orthorhombic'
loop_
_space_group_symop_operation_xyz
x,y,z
-x,-y,z
x,-y,-z
-x,y,-z
1/2+x,1/2+y,z
1/2-x,1/2-y,z
1/2+x,1/2-y,-z
1/2-x,1/2+y,-z
loop_
_atom_site_type_symbol
_atom_site_label
_atom_site_fract_x
_atom_site_fract_y
_atom_site_fract_z
Si Si1 0.119900 0.669679 0.791692
Si Si2 0.802000 0.175556 0.134258
Si Si3 0.156938 0.516485 0.345710
Si Si4 0.738003 0.365831 0.452399
Si Si5 0.400360 0.823631 0.146691
Si Si6 0.495212 0.887216 0.683125
Si Si7 0.203777 0.833042 0.785685
O O1 0.162315 0.586356 0.738543
O O2 0.064351 0.655007 0.705300
O O3 0.148366 0.772268 0.766668
O O4 0.101275 0.654773 0.966443
O O5 0.750000 0.250000 0.133381
O O6 0.796020 0.117728 0.295043
O O7 0.858456 0.233448 0.155830
O O8 0.798907 0.125956 0.963055
O O9 0.121661 0.500000 0.500000
O O10 0.207219 0.577242 0.412600
O O11 0.128202 0.586922 0.229455
O O12 0.750000 0.250000 0.460281
O O13 0.714787 0.389598 0.623886
O O14 0.459448 0.823678 0.225658
O O15 0.500000 0.886469 0.500000
O O16 0.500000 0.000000 0.738073
O O17 0.250000 0.750000 0.794882
#
# Coordination Sequence:
#
# PCOD9322500 Si02
#       7
#     8   8   8   8   8   8   8
#     4  11  23  35  51  72 100 134 177 219 253 303
#     4   9  17  32  51  69  90 121 175 210 251 307
#     4  12  21  31  48  72  96 128 170 206 253 300
#     4  10  18  32  49  66  93 124 161 209 253 299
#     4  11  21  35  50  68  96 137 176 217 255 292
#     4  11  23  34  46  67  98 136 176 214 252 301
#     4   9  19  33  51  71  91 128 169 210 259 303
#
# _framework density 19.003927000000001
#
# number of rings (size 3 to 8) (size 9 to 14) (size 15 to 20)
#    0.000    1.571    4.286    3.429    2.000    0.571 
#    2.571    0.000    0.000    0.000    0.000    0.000 
#    0.000    0.000    0.000    9.000    0.000   59.857 
#
# Total GULP energy -155884.620633 kJ/mol
# GULP energy per Si atom -5567.307880 kJ/mol
# Density = 1.896067 g / cm^3
# Si number density = 19.003927 Si / 1000 Ang^3
#
#
#
# Elastic Constant Matrix: (Units=GPa)
#
#
# Indices 1 2 3 4 5 6 
#
# 1 105.2824 27.1129 44.3204 0.0000 0.0000 0.0000
# 2 27.1129 32.5290 18.1049 0.0000 0.0000 0.0000
# 3 44.3204 18.1049 152.7472 0.0000 0.0000 0.0000
# 4 0.0000 0.0000 0.0000 12.2270 0.0000 0.0000
# 5 0.0000 0.0000 0.0000 0.0000 40.0992 0.0000
# 6 0.0000 0.0000 0.0000 0.0000 0.0000 41.8186
#
#
#
# Elastic Compliance Matrix: (Units=1/GPa)
#
#
# Indices 1 2 3 4 5 6 
#
# 1 0.013039 -0.009381 -0.002671 0.000000 0.000000 0.000000
# 2 -0.009381 0.039662 -0.001979 0.000000 0.000000 0.000000
# 3 -0.002671 -0.001979 0.007556 0.000000 0.000000 0.000000
# 4 0.000000 0.000000 0.000000 0.081786 0.000000 0.000000
# 5 0.000000 0.000000 0.000000 0.000000 0.024938 0.000000
# 6 0.000000 0.000000 0.000000 0.000000 0.000000 0.023913
#
#
# Mechanical properties :
#
#
# Convention : Reuss Voigt Hill
#
# Bulk Modulus (GPa) = 31.06110 52.18168 41.62139
# Shear Modulus (GPa) = 21.76859 32.23033 26.99946
#
# Velocity S-wave (km/s) = 3.38816 4.12270 3.77335
# Velocity P-wave (km/s) = 5.62905 7.08380 6.39791
#
# Compressibility (1/GPa) = 0.03219461
#
# Stress axis : x y z
#
# Youngs Moduli (GPa) = 76.69523 25.21278 132.33718
#
# Poissons Ratio (x) = 0.23652 0.35351
# Poissons Ratio (y) = 0.71947 0.26192
# Poissons Ratio (z) = 0.20488 0.04990
#
# Static dielectric constant tensor:
#      x y z
#    x 1.714730 0.000000 0.000000 
#    y 0.000000 1.689690 0.000000 
#    z 0.000000 0.000000 1.162090 
# 
# From -- ./inp_files/16792.got.cif
#   From: 2010.05.17/outbox.cif.g08.bks.cpg/sg21_9_cif.got.tgz:16792.got - 2010.06.03 23:14:55.
