data_PCOD9322360
_publ_section_title
;
Structure prediction by ZEFSAII (Michael W. Deem and Ramdas Pophale) SiO2 
 PCOD9322360
Probable space group: C 2 2 2
;
_chemical_formula_sum "Si O2"
_cell_formula_units_Z 32
_cell_length_a 34.768523
_cell_length_b 7.104803
_cell_length_c 5.322774
_cell_angle_alpha 90.000000
_cell_angle_beta 90.000000
_cell_angle_gamma 90.000000
_cell_volume 1314.850298
_symmetry_space_group_name_H-M "C 2 2 2"
_symmetry_group_IT_number 21
_symmetry_cell_setting 'orthorhombic'
loop_
_space_group_symop_operation_xyz
x,y,z
-x,-y,z
x,-y,-z
-x,y,-z
1/2+x,1/2+y,z
1/2-x,1/2-y,z
1/2+x,1/2-y,-z
1/2-x,1/2+y,-z
loop_
_atom_site_type_symbol
_atom_site_label
_atom_site_fract_x
_atom_site_fract_y
_atom_site_fract_z
Si Si1 0.396289 0.785256 0.927999
Si Si2 0.787392 0.876595 0.750714
Si Si3 0.366569 0.780708 0.429882
Si Si4 0.483157 0.786589 0.752610
O O1 0.369677 0.695330 0.711363
O O2 0.437694 0.791863 0.794570
O O3 0.395533 0.705473 0.212403
O O4 0.384557 0.000000 0.000000
O O5 0.750000 0.750000 0.793869
O O6 0.824884 0.751754 0.688473
O O7 0.780903 0.000000 0.500000
O O8 0.793665 0.000000 0.000000
O O9 0.373708 0.000000 0.500000
O O10 0.500000 0.702981 0.500000
O O11 0.500000 0.000000 0.750974
O O12 0.500000 0.696283 0.000000
#
# Coordination Sequence:
#
# PCOD9322360 Si02
#       4
#     8   8   8   8
#     4  10  18  31  49  80 122 173 201 257 315 389
#     4  12  26  46  72  98 131 168 220 266 325 398
#     4  10  22  37  60  89 128 167 209 257 330 376
#     4  10  17  24  42  69 117 166 207 244 319 374
#
# _framework density 24.337368999999999
#
# number of rings (size 3 to 8) (size 9 to 14) (size 15 to 20)
#    0.000    1.500    2.500    4.500    7.000    3.000 
#    0.000    0.000    0.000    0.000    0.000    0.000 
#    0.000   70.000    0.000    0.000    0.000    0.000 
#
# Total GULP energy -89343.132993 kJ/mol
# GULP energy per Si atom -5583.945812 kJ/mol
# Density = 2.428198 g / cm^3
# Si number density = 24.337369 Si / 1000 Ang^3
#
#
#
# Elastic Constant Matrix: (Units=GPa)
#
#
# Indices 1 2 3 4 5 6 
#
# 1 152.3734 13.0856 76.4225 0.0000 0.0000 0.0000
# 2 13.0856 80.2560 40.5035 0.0000 0.0000 0.0000
# 3 76.4225 40.5035 303.6708 0.0000 0.0000 0.0000
# 4 0.0000 0.0000 0.0000 3.3110 0.0000 0.0000
# 5 0.0000 0.0000 0.0000 0.0000 45.7895 0.0000
# 6 0.0000 0.0000 0.0000 0.0000 0.0000 -23.6703
#
#
#
# Elastic Compliance Matrix: (Units=1/GPa)
#
#
# Indices 1 2 3 4 5 6 
#
# 1 0.007517 -0.000290 -0.001853 0.000000 0.000000 0.000000
# 2 -0.000290 0.013371 -0.001710 0.000000 0.000000 0.000000
# 3 -0.001853 -0.001710 0.003987 0.000000 0.000000 0.000000
# 4 0.000000 0.000000 0.000000 0.302026 0.000000 0.000000
# 5 0.000000 0.000000 0.000000 0.000000 0.021839 0.000000
# 6 0.000000 0.000000 0.000000 0.000000 0.000000 -0.042247
#
#
# Mechanical properties :
#
#
# Convention : Reuss Voigt Hill
#
# Bulk Modulus (GPa) = 58.24884 88.48036 73.36460
# Shear Modulus (GPa) = 15.62873 32.17193 23.90033
#
# Velocity S-wave (km/s) = 2.53686 3.63976 3.13716
# Velocity P-wave (km/s) = 5.70673 7.35517 6.58275
#
# Compressibility (1/GPa) = 0.01716772
#
# Stress axis : x y z
#
# Youngs Moduli (GPa) = 133.02901 74.79080 250.78396
#
# Poissons Ratio (x) = 0.02172 0.46471
# Poissons Ratio (y) = 0.03864 0.42891
# Poissons Ratio (z) = 0.24651 0.12791
#
# Static dielectric constant tensor:
#      x y z
#    x 1.942180 0.000000 0.000000 
#    y 0.000000 1.977010 0.000000 
#    z 0.000000 0.000000 2.087970 
# 
# From -- ./inp_files/7772.got.cif
#   From: 2010.05.17/outbox.cif.g08.bks.cpg/sg21_4_cif.got.tgz:7772.got - 2010.06.03 23:14:55.
