data_PCOD9322946
_publ_section_title
;
Structure prediction by ZEFSAII (Michael W. Deem and Ramdas Pophale) SiO2 
 PCOD9322946
Probable space group: C 2 2 2
;
_chemical_formula_sum "Si O2"
_cell_formula_units_Z 32
_cell_length_a 12.270082
_cell_length_b 8.927690
_cell_length_c 12.843496
_cell_angle_alpha 90.000000
_cell_angle_beta 90.000000
_cell_angle_gamma 90.000000
_cell_volume 1406.921355
_symmetry_space_group_name_H-M "C 2 2 2"
_symmetry_group_IT_number 21
_symmetry_cell_setting 'orthorhombic'
loop_
_space_group_symop_operation_xyz
x,y,z
-x,-y,z
x,-y,-z
-x,y,-z
1/2+x,1/2+y,z
1/2-x,1/2-y,z
1/2+x,1/2-y,-z
1/2-x,1/2+y,-z
loop_
_atom_site_type_symbol
_atom_site_label
_atom_site_fract_x
_atom_site_fract_y
_atom_site_fract_z
Si Si1 0.324783 0.058012 0.895569
Si Si2 0.750000 0.750000 0.721302
Si Si3 0.380009 0.751122 0.810153
Si Si4 0.000000 0.218770 0.000000
Si Si5 0.520377 0.819800 0.619389
O O1 0.247933 0.112641 0.803117
O O2 0.405606 0.186790 0.938085
O O3 0.394922 0.921683 0.850957
O O4 0.267584 0.000000 0.000000
O O5 0.642420 0.777299 0.654407
O O6 0.250000 0.750000 0.801152
O O7 0.433023 0.651994 0.902107
O O8 0.440006 0.738736 0.700636
O O9 0.500000 0.777311 0.500000
O O10 0.500000 0.000000 0.627082
#
# Coordination Sequence:
#
# PCOD9322946 Si02
#       5
#     8   4   8   4   8
#     4  10  21  35  62  96 129 174 218 269 337 404
#     4  12  22  42  74  96 132 180 236 280 340 412
#     4  11  21  36  61  93 134 169 216 282 343 400
#     4  10  19  36  60  89 122 171 220 266 327 406
#     4  11  24  44  69  98 129 175 237 282 334 405
#
# _framework density 22.744696999999999
#
# number of rings (size 3 to 8) (size 9 to 14) (size 15 to 20)
#    0.000    1.250    5.000    3.375    8.750    0.000 
#    0.000    1.250    0.000    7.500    0.000    0.000 
#    0.000    0.000    0.000    0.000    0.000    0.000 
#
# Total GULP energy -89272.932160 kJ/mol
# GULP energy per Si atom -5579.558260 kJ/mol
# Density = 2.269293 g / cm^3
# Si number density = 22.744697 Si / 1000 Ang^3
#
#
#
# Elastic Constant Matrix: (Units=GPa)
#
#
# Indices 1 2 3 4 5 6 
#
# 1 205.8638 31.1578 123.1831 0.0000 0.0000 0.0000
# 2 31.1578 25.0551 15.5344 0.0000 0.0000 0.0000
# 3 123.1831 15.5344 248.9664 0.0000 0.0000 0.0000
# 4 0.0000 0.0000 0.0000 5.1962 0.0000 0.0000
# 5 0.0000 0.0000 0.0000 0.0000 29.9432 0.0000
# 6 0.0000 0.0000 0.0000 0.0000 0.0000 39.1179
#
#
#
# Elastic Compliance Matrix: (Units=1/GPa)
#
#
# Indices 1 2 3 4 5 6 
#
# 1 0.008194 -0.007985 -0.003556 0.000000 0.000000 0.000000
# 2 -0.007985 0.049300 0.000875 0.000000 0.000000 0.000000
# 3 -0.003556 0.000875 0.005721 0.000000 0.000000 0.000000
# 4 0.000000 0.000000 0.000000 0.192447 0.000000 0.000000
# 5 0.000000 0.000000 0.000000 0.000000 0.033397 0.000000
# 6 0.000000 0.000000 0.000000 0.000000 0.000000 0.025564
#
#
# Mechanical properties :
#
#
# Convention : Reuss Voigt Hill
#
# Bulk Modulus (GPa) = 23.87628 91.07065 57.47347
# Shear Modulus (GPa) = 14.28917 35.51879 24.90398
#
# Velocity S-wave (km/s) = 2.50919 3.95603 3.31257
# Velocity P-wave (km/s) = 4.34914 7.80988 6.32097
#
# Compressibility (1/GPa) = 0.04188257
#
# Stress axis : x y z
#
# Youngs Moduli (GPa) = 122.04215 20.28412 174.78166
#
# Poissons Ratio (x) = 0.16197 0.62151
# Poissons Ratio (y) = 0.97451 -0.15288
# Poissons Ratio (z) = 0.43397 -0.01774
#
# Static dielectric constant tensor:
#      x y z
#    x 1.880280 0.000000 0.000000 
#    y 0.000000 2.014640 0.000000 
#    z 0.000000 0.000000 1.836010 
# 
# From -- ./inp_files/23454.got.cif
#   From: 2010.05.17/outbox.cif.g08.bks.cpg/sg21_12_cif.got.tgz:23454.got - 2010.06.03 23:14:55.
