data_PCOD9322688
_publ_section_title
;
Structure prediction by ZEFSAII (Michael W. Deem and Ramdas Pophale) SiO2 
 PCOD9322688
Probable space group: C 2 2 2
;
_chemical_formula_sum "Si O2"
_cell_formula_units_Z 32
_cell_length_a 5.226227
_cell_length_b 14.307736
_cell_length_c 18.680291
_cell_angle_alpha 90.000000
_cell_angle_beta 90.000000
_cell_angle_gamma 90.000000
_cell_volume 1396.827655
_symmetry_space_group_name_H-M "C 2 2 2"
_symmetry_group_IT_number 21
_symmetry_cell_setting 'orthorhombic'
loop_
_space_group_symop_operation_xyz
x,y,z
-x,-y,z
x,-y,-z
-x,y,-z
1/2+x,1/2+y,z
1/2-x,1/2-y,z
1/2+x,1/2-y,-z
1/2-x,1/2+y,-z
loop_
_atom_site_type_symbol
_atom_site_label
_atom_site_fract_x
_atom_site_fract_y
_atom_site_fract_z
Si Si1 0.244543 0.604286 0.532252
Si Si2 0.005342 0.183070 0.921925
Si Si3 0.263777 0.636575 0.220675
Si Si4 0.254819 0.863651 0.697676
O O1 0.245791 0.500000 0.500000
O O2 0.500000 0.646641 0.500000
O O3 0.212664 0.602303 0.617126
O O4 0.000000 0.653321 0.500000
O O5 0.250000 0.250000 0.930980
O O6 0.098497 0.118698 0.856042
O O7 0.750000 0.250000 0.907585
O O8 0.000000 0.135143 0.000000
O O9 0.250000 0.750000 0.221787
O O10 0.475015 0.605952 0.277122
O O11 0.980944 0.607573 0.246886
O O12 0.250000 0.750000 0.696341
#
# Coordination Sequence:
#
# PCOD9322688 Si02
#       4
#     8   8   8   8
#     4  10  21  36  51  67  89 119 152 196 246 293
#     4   9  15  23  37  58  88 129 169 196 225 272
#     4   9  16  27  41  63  93 123 158 196 230 272
#     4  10  19  30  47  68  91 121 157 196 239 283
#
# _framework density 22.909054999999999
#
# number of rings (size 3 to 8) (size 9 to 14) (size 15 to 20)
#    0.000    2.500    0.000    5.250    0.000    1.000 
#    0.000    0.000    0.000    0.000    0.000    0.000 
#    0.000    0.000    0.000   67.500    0.000   83.000 
#
# Total GULP energy -89111.618778 kJ/mol
# GULP energy per Si atom -5569.476174 kJ/mol
# Density = 2.285691 g / cm^3
# Si number density = 22.909055 Si / 1000 Ang^3
#
#
#
# Elastic Constant Matrix: (Units=GPa)
#
#
# Indices 1 2 3 4 5 6 
#
# 1 186.2364 -1.9686 41.8155 0.0000 0.0000 0.0000
# 2 -1.9686 90.5419 4.3295 0.0000 0.0000 0.0000
# 3 41.8155 4.3295 180.0711 0.0000 0.0000 0.0000
# 4 0.0000 0.0000 0.0000 16.2113 0.0000 0.0000
# 5 0.0000 0.0000 0.0000 0.0000 51.5953 0.0000
# 6 0.0000 0.0000 0.0000 0.0000 0.0000 -42.1787
#
#
#
# Elastic Compliance Matrix: (Units=1/GPa)
#
#
# Indices 1 2 3 4 5 6 
#
# 1 0.005668 0.000186 -0.001321 0.000000 0.000000 0.000000
# 2 0.000186 0.011063 -0.000309 0.000000 0.000000 0.000000
# 3 -0.001321 -0.000309 0.005867 0.000000 0.000000 0.000000
# 4 0.000000 0.000000 0.000000 0.061685 0.000000 0.000000
# 5 0.000000 0.000000 0.000000 0.000000 0.019382 0.000000
# 6 0.000000 0.000000 0.000000 0.000000 0.000000 -0.023709
#
#
# Mechanical properties :
#
#
# Convention : Reuss Voigt Hill
#
# Bulk Modulus (GPa) = 50.73108 60.57803 55.65455
# Shear Modulus (GPa) = 55.91894 32.63711 44.27803
#
# Velocity S-wave (km/s) = 4.94592 3.77853 4.40110
# Velocity P-wave (km/s) = 7.40329 6.74808 7.08327
#
# Compressibility (1/GPa) = 0.01971178
#
# Stress axis : x y z
#
# Youngs Moduli (GPa) = 176.42832 90.38774 170.43079
#
# Poissons Ratio (x) = -0.01685 0.22509
# Poissons Ratio (y) = -0.03288 0.05271
# Poissons Ratio (z) = 0.23301 0.02796
#
# Static dielectric constant tensor:
#      x y z
#    x 1.862890 0.000000 0.000000 
#    y 0.000000 1.747420 0.000000 
#    z 0.000000 0.000000 1.959210 
# 
# From -- ./inp_files/28854.got.cif
#   From: 2010.05.17/outbox.cif.g08.bks.cpg/sg21_15_cif.got.tgz:28854.got - 2010.06.03 23:14:55.
