data_PCOD9322378
_publ_section_title
;
Structure prediction by ZEFSAII (Michael W. Deem and Ramdas Pophale) SiO2 
 PCOD9322378
Probable space group: C 2 2 2
;
_chemical_formula_sum "Si O2"
_cell_formula_units_Z 48
_cell_length_a 30.629754
_cell_length_b 15.459267
_cell_length_c 4.998482
_cell_angle_alpha 90.000000
_cell_angle_beta 90.000000
_cell_angle_gamma 90.000000
_cell_volume 2366.848933
_symmetry_space_group_name_H-M "C 2 2 2"
_symmetry_group_IT_number 21
_symmetry_cell_setting 'orthorhombic'
loop_
_space_group_symop_operation_xyz
x,y,z
-x,-y,z
x,-y,-z
-x,y,-z
1/2+x,1/2+y,z
1/2-x,1/2-y,z
1/2+x,1/2-y,-z
1/2-x,1/2+y,-z
loop_
_atom_site_type_symbol
_atom_site_label
_atom_site_fract_x
_atom_site_fract_y
_atom_site_fract_z
Si Si1 0.262835 0.351785 0.910745
Si Si2 0.140033 0.839669 0.939626
Si Si3 0.136786 0.277283 0.559239
Si Si4 0.714194 0.905134 0.413971
Si Si5 0.453437 0.648978 0.065427
Si Si6 0.545268 0.229987 0.566622
O O1 0.250000 0.250000 0.940664
O O2 0.312093 0.375275 0.995265
O O3 0.229748 0.399302 0.110395
O O4 0.254318 0.377752 0.605910
O O5 0.138928 0.806302 0.635959
O O6 0.094721 0.889715 0.006129
O O7 0.138454 0.756001 0.137923
O O8 0.176367 0.337713 0.481165
O O9 0.089801 0.318636 0.497392
O O10 0.700320 0.000000 0.500000
O O11 0.454321 0.731778 0.864045
O O12 0.500000 0.603838 0.000000
O O13 0.454161 0.686559 0.365180
O O14 0.500000 0.183941 0.500000
#
# Coordination Sequence:
#
# PCOD9322378 Si02
#       6
#     8   8   8   8   8   8
#     4  12  21  36  55  74  99 130 173 211 243 294
#     4  10  18  28  50  72  92 124 165 200 238 287
#     4  10  17  30  46  68  94 127 163 201 240 285
#     4  12  24  36  50  73 104 135 166 208 254 295
#     4   8  14  24  38  64  96 118 142 191 247 284
#     4   8  14  23  39  61  88 120 155 193 237 277
#
# _framework density 20.280128000000001
#
# number of rings (size 3 to 8) (size 9 to 14) (size 15 to 20)
#    0.000    2.000    3.333    2.000    0.000    0.000 
#    0.000    0.000    0.000    0.500    0.000    0.000 
#    0.000   20.000    0.000    0.000    0.000    2.333 
#
# Total GULP energy -133765.371568 kJ/mol
# GULP energy per Si atom -5573.557149 kJ/mol
# Density = 2.023397 g / cm^3
# Si number density = 20.280128 Si / 1000 Ang^3
#
#
#
# Elastic Constant Matrix: (Units=GPa)
#
#
# Indices 1 2 3 4 5 6 
#
# 1 151.5293 -2.4830 -5.8813 0.0000 0.0000 0.0000
# 2 -2.4830 24.6148 3.4468 0.0000 0.0000 0.0000
# 3 -5.8813 3.4468 73.9455 0.0000 0.0000 0.0000
# 4 0.0000 0.0000 0.0000 11.1399 0.0000 0.0000
# 5 0.0000 0.0000 0.0000 0.0000 34.4971 0.0000
# 6 0.0000 0.0000 0.0000 0.0000 0.0000 -6.3269
#
#
#
# Elastic Compliance Matrix: (Units=1/GPa)
#
#
# Indices 1 2 3 4 5 6 
#
# 1 0.006629 0.000599 0.000499 0.000000 0.000000 0.000000
# 2 0.000599 0.040947 -0.001861 0.000000 0.000000 0.000000
# 3 0.000499 -0.001861 0.013650 0.000000 0.000000 0.000000
# 4 0.000000 0.000000 0.000000 0.089767 0.000000 0.000000
# 5 0.000000 0.000000 0.000000 0.000000 0.028988 0.000000
# 6 0.000000 0.000000 0.000000 0.000000 0.000000 -0.158056
#
#
# Mechanical properties :
#
#
# Convention : Reuss Voigt Hill
#
# Bulk Modulus (GPa) = 16.75056 26.69496 21.72276
# Shear Modulus (GPa) = 115.33838 24.86250 70.10044
#
# Velocity S-wave (km/s) = 7.54957 3.50516 5.88567
# Velocity P-wave (km/s) = 9.17999 5.43813 7.54472
#
# Compressibility (1/GPa) = 0.05969951
#
# Stress axis : x y z
#
# Youngs Moduli (GPa) = 150.86201 24.42182 73.26046
#
# Poissons Ratio (x) = -0.01462 -0.03658
# Poissons Ratio (y) = -0.09033 0.13634
# Poissons Ratio (z) = -0.07532 0.04545
#
# Static dielectric constant tensor:
#      x y z
#    x 1.845280 0.000000 0.000000 
#    y 0.000000 1.667960 0.000000 
#    z 0.000000 0.000000 1.688230 
# 
# From -- ./inp_files/7991.got.cif
#   From: 2010.05.17/outbox.cif.g08.bks.cpg/sg21_4_cif.got.tgz:7991.got - 2010.06.03 23:14:55.
