data_PCOD9322215
_publ_section_title
;
Structure prediction by ZEFSAII (Michael W. Deem and Ramdas Pophale) SiO2 
 PCOD9322215
Probable space group: C 2 2 21
;
_chemical_formula_sum "Si O2"
_cell_formula_units_Z 30
_cell_length_a 18.000000
_cell_length_b 9.000000
_cell_length_c 18.000000
_cell_angle_alpha 90.000000
_cell_angle_beta 90.000000
_cell_angle_gamma 90.000000
_cell_volume 2916.000000
_symmetry_space_group_name_H-M "C 2 2 21"
_symmetry_group_IT_number 20
_symmetry_cell_setting 'orthorhombic'
loop_
_space_group_symop_operation_xyz
x,y,z
-x,-y,1/2+z
x,-y,-z
-x,y,1/2-z
1/2+x,1/2+y,z
1/2-x,1/2-y,1/2+z
1/2+x,1/2-y,-z
1/2-x,1/2+y,1/2-z
loop_
_atom_site_type_symbol
_atom_site_label
_atom_site_fract_x
_atom_site_fract_y
_atom_site_fract_z
Si Si1 0.642350 0.272649 0.715517
Si Si2 0.914345 0.567624 0.226033
Si Si3 0.692000 0.653063 0.454217
Si Si4 0.597002 0.320227 0.150812
Si Si5 0.806731 0.117121 0.370844
Si Si6 0.140752 0.320111 0.994338
Si Si7 0.138964 0.379744 0.563768
Si Si8 0.000000 0.978280 0.750000
O O1 0.670100 0.321070 0.632514
O O2 0.693527 0.314456 0.787173
O O3 0.568014 0.371164 0.728102
O O4 0.625110 0.095593 0.723153
O O5 0.885028 0.691275 0.286679
O O6 0.907638 0.622036 0.140084
O O7 0.000000 0.544991 0.250000
O O8 0.696676 0.500000 0.500000
O O9 0.777234 0.706205 0.459869
O O10 0.637823 0.738062 0.510627
O O11 0.657040 0.453711 0.138831
O O12 0.587207 0.245644 0.069720
O O13 0.527386 0.411877 0.184516
O O14 0.854027 0.226568 0.427509
O O15 0.724343 0.103234 0.405821
O O16 0.128956 0.500000 0.000000
O O17 0.120993 0.500000 0.500000
#
# Coordination Sequence:
#
# PCOD9322215 Si02
#       8
#     8   8   8   8   8   8   8   4
#     4  11  23  45  68  97 134 181 221 286 338 408
#     4  12  26  43  66  96 139 179 236 276 338 415
#     4  10  23  40  70 103 135 170 225 279 346 410
#     4  11  23  42  69  93 136 176 223 284 333 406
#     4  10  23  40  72 104 134 170 226 277 354 408
#     4  10  21  43  67 104 140 167 217 283 350 409
#     4  11  23  44  67  99 137 178 219 288 348 414
#     4  10  24  44  66  92 132 176 230 268 328 404
#
# _framework density 10.288066000000001
#
# number of rings (size 3 to 8) (size 9 to 14) (size 15 to 20)
#    0.000    1.333    2.667    2.800    5.600    0.000 
#    0.000    8.667    0.000    0.000    0.000    0.000 
#    0.000    0.000    0.000    0.000    0.000    0.000 
#
# Total GULP energy -167281.033217 kJ/mol
# GULP energy per Si atom -5576.034441 kJ/mol
# Density = 1.026465 g / cm^3
# Si number density = 10.288066 Si / 1000 Ang^3
#
#
#
# Elastic Constant Matrix: (Units=GPa)
#
#
# Indices 1 2 3 4 5 6 
#
# 1 33.5275 2.5894 18.3960 0.0000 0.0000 0.0000
# 2 2.5894 115.5774 51.1929 0.0000 0.0000 0.0000
# 3 18.3960 51.1929 188.7962 0.0000 0.0000 0.0000
# 4 0.0000 0.0000 0.0000 47.5961 0.0000 0.0000
# 5 0.0000 0.0000 0.0000 0.0000 45.0090 0.0000
# 6 0.0000 0.0000 0.0000 0.0000 0.0000 28.4907
#
#
#
# Elastic Compliance Matrix: (Units=1/GPa)
#
#
# Indices 1 2 3 4 5 6 
#
# 1 0.031567 0.000745 -0.003278 0.000000 0.000000 0.000000
# 2 0.000745 0.009851 -0.002744 0.000000 0.000000 0.000000
# 3 -0.003278 -0.002744 0.006360 0.000000 0.000000 0.000000
# 4 0.000000 0.000000 0.000000 0.021010 0.000000 0.000000
# 5 0.000000 0.000000 0.000000 0.000000 0.022218 0.000000
# 6 0.000000 0.000000 0.000000 0.000000 0.000000 0.035099
#
#
# Mechanical properties :
#
#
# Convention : Reuss Voigt Hill
#
# Bulk Modulus (GPa) = 26.86410 53.58419 40.22414
# Shear Modulus (GPa) = 33.54201 41.93401 37.73801
#
# Velocity S-wave (km/s) = 4.04188 4.51931 4.28725
# Velocity P-wave (km/s) = 5.90480 7.30279 6.64068
#
# Compressibility (1/GPa) = 0.03722441
#
# Stress axis : x y z
#
# Youngs Moduli (GPa) = 31.67846 101.51488 157.23164
#
# Poissons Ratio (x) = -0.07559 0.51537
# Poissons Ratio (y) = -0.02359 0.43139
# Poissons Ratio (z) = 0.10383 0.27852
#
# Static dielectric constant tensor:
#      x y z
#    x 1.775210 0.000000 0.000000 
#    y 0.000000 1.571700 0.000000 
#    z 0.000000 0.000000 1.680620 
# 
# From -- ./inp_files/25282.got.cif
#   From: 2010.05.17/outbox.ucp.g08.bks.cvg/sg20_13_cif.got.tgz:25282.got - 2010.06.11 15:13:06.
