data_PCOD9322211
_publ_section_title
;
Structure prediction by ZEFSAII (Michael W. Deem and Ramdas Pophale) SiO2 
 PCOD9322211
Probable space group: C 2 2 21
;
_chemical_formula_sum "Si O2"
_cell_formula_units_Z 24
_cell_length_a 15.000000
_cell_length_b 18.000000
_cell_length_c 9.000000
_cell_angle_alpha 90.000000
_cell_angle_beta 90.000000
_cell_angle_gamma 90.000000
_cell_volume 2430.000000
_symmetry_space_group_name_H-M "C 2 2 21"
_symmetry_group_IT_number 20
_symmetry_cell_setting 'orthorhombic'
loop_
_space_group_symop_operation_xyz
x,y,z
-x,-y,1/2+z
x,-y,-z
-x,y,1/2-z
1/2+x,1/2+y,z
1/2-x,1/2-y,1/2+z
1/2+x,1/2-y,-z
1/2-x,1/2+y,1/2-z
loop_
_atom_site_type_symbol
_atom_site_label
_atom_site_fract_x
_atom_site_fract_y
_atom_site_fract_z
Si Si1 0.224120 0.899683 0.733040
Si Si2 0.424055 0.066381 0.379181
Si Si3 0.868426 0.245238 0.143414
Si Si4 0.905692 0.975037 0.327041
Si Si5 0.554797 0.772722 0.025721
Si Si6 0.798636 0.160433 0.568068
O O1 0.323034 0.926585 0.687668
O O2 0.185283 0.832047 0.635859
O O3 0.148808 0.962911 0.736888
O O4 0.221875 0.868778 0.901840
O O5 0.500000 0.057555 0.250000
O O6 0.441472 0.143685 0.466036
O O7 0.428472 0.000000 0.500000
O O8 0.909522 0.260274 0.306410
O O9 0.794341 0.307608 0.122023
O O10 0.951547 0.247447 0.030525
O O11 0.839591 0.905625 0.336715
O O12 0.000000 0.960211 0.250000
O O13 0.920102 0.000000 0.500000
O O14 0.623687 0.722429 0.933861
#
# Coordination Sequence:
#
# PCOD9322211 Si02
#       6
#     8   8   8   8   8   8
#     4  10  23  43  66  96 136 176 219 280 338 408
#     4  12  28  46  67 100 140 182 234 280 340 408
#     4  10  21  41  71  93 137 169 225 278 337 404
#     4  10  24  42  66  97 135 171 217 273 345 398
#     4  10  23  41  68 100 129 179 225 278 340 401
#     4  10  21  43  67  99 129 178 223 278 343 397
#
# _framework density 9.8765429999999999
#
# number of rings (size 3 to 8) (size 9 to 14) (size 15 to 20)
#    0.000    1.667    1.667    1.000   11.667    3.333 
#    6.000    0.000    0.000    0.000    0.000    0.000 
#    0.000    0.000    0.000    0.000    0.000    0.000 
#
# Total GULP energy -134007.857308 kJ/mol
# GULP energy per Si atom -5583.660721 kJ/mol
# Density = 0.985406 g / cm^3
# Si number density = 9.876543 Si / 1000 Ang^3
#
#
#
# Elastic Constant Matrix: (Units=GPa)
#
#
# Indices 1 2 3 4 5 6 
#
# 1 165.5733 27.8968 29.5737 0.0000 0.0000 0.0000
# 2 27.8968 80.0489 20.9713 0.0000 0.0000 0.0000
# 3 29.5737 20.9713 25.7293 0.0000 0.0000 0.0000
# 4 0.0000 0.0000 0.0000 23.8041 0.0000 0.0000
# 5 0.0000 0.0000 0.0000 0.0000 32.7455 0.0000
# 6 0.0000 0.0000 0.0000 0.0000 0.0000 25.6542
#
#
#
# Elastic Compliance Matrix: (Units=1/GPa)
#
#
# Indices 1 2 3 4 5 6 
#
# 1 0.007613 -0.000459 -0.008377 0.000000 0.000000 0.000000
# 2 -0.000459 0.015912 -0.012442 0.000000 0.000000 0.000000
# 3 -0.008377 -0.012442 0.058636 0.000000 0.000000 0.000000
# 4 0.000000 0.000000 0.000000 0.042010 0.000000 0.000000
# 5 0.000000 0.000000 0.000000 0.000000 0.030539 0.000000
# 6 0.000000 0.000000 0.000000 0.000000 0.000000 0.038980
#
#
# Mechanical properties :
#
#
# Convention : Reuss Voigt Hill
#
# Bulk Modulus (GPa) = 25.24892 47.58169 36.41530
# Shear Modulus (GPa) = 20.04437 29.30140 24.67289
#
# Velocity S-wave (km/s) = 3.18896 3.85565 3.53805
# Velocity P-wave (km/s) = 5.13511 6.63038 5.93006
#
# Compressibility (1/GPa) = 0.03960566
#
# Stress axis : x y z
#
# Youngs Moduli (GPa) = 131.35233 62.84634 17.05431
#
# Poissons Ratio (x) = 0.02882 0.14286
# Poissons Ratio (y) = 0.06023 0.21219
# Poissons Ratio (z) = 1.10033 0.78195
#
# Static dielectric constant tensor:
#      x y z
#    x 1.659960 0.000000 0.000000 
#    y 0.000000 1.730680 0.000000 
#    z 0.000000 0.000000 1.701150 
# 
# From -- ./inp_files/8406.got.cif
#   From: 2010.05.17/outbox.ucp.g08.bks.cvg/sg20_5_cif.got.tgz:8406.got - 2010.06.11 15:13:06.
