data_PCOD9322256
_publ_section_title
;
Structure prediction by ZEFSAII (Michael W. Deem and Ramdas Pophale) SiO2 
 PCOD9322256
Probable space group: C 2 2 21
;
_chemical_formula_sum "Si O2"
_cell_formula_units_Z 32
_cell_length_a 24.000000
_cell_length_b 15.000000
_cell_length_c 9.000000
_cell_angle_alpha 90.000000
_cell_angle_beta 90.000000
_cell_angle_gamma 90.000000
_cell_volume 3240.000000
_symmetry_space_group_name_H-M "C 2 2 21"
_symmetry_group_IT_number 20
_symmetry_cell_setting 'orthorhombic'
loop_
_space_group_symop_operation_xyz
x,y,z
-x,-y,1/2+z
x,-y,-z
-x,y,1/2-z
1/2+x,1/2+y,z
1/2-x,1/2-y,1/2+z
1/2+x,1/2-y,-z
1/2-x,1/2+y,1/2-z
loop_
_atom_site_type_symbol
_atom_site_label
_atom_site_fract_x
_atom_site_fract_y
_atom_site_fract_z
Si Si1 0.294712 0.472619 0.327442
Si Si2 0.107356 0.249930 0.526198
Si Si3 0.303233 0.339159 0.844034
Si Si4 0.601734 0.085615 0.899400
Si Si5 0.701819 0.216420 0.950955
Si Si6 0.019465 0.754975 0.918263
Si Si7 0.882294 0.825926 0.356287
Si Si8 0.170629 0.580139 0.614191
O O1 0.296543 0.500000 0.500000
O O2 0.293736 0.562185 0.225301
O O3 0.353727 0.420115 0.305493
O O4 0.234260 0.419840 0.314963
O O5 0.136117 0.174082 0.420858
O O6 0.110035 0.227653 0.701743
O O7 0.146542 0.333777 0.475227
O O8 0.041369 0.260017 0.492140
O O9 0.295613 0.267161 0.708655
O O10 0.258875 0.315307 0.973642
O O11 0.622747 0.059562 0.735451
O O12 0.657969 0.135154 0.953921
O O13 0.553797 0.161793 0.897381
O O14 0.587945 0.000000 0.000000
O O15 0.670300 0.286853 0.054908
O O16 0.063309 0.812309 0.029016
O O17 0.000000 0.212655 0.250000
O O18 0.173354 0.500000 0.500000
#
# Coordination Sequence:
#
# PCOD9322256 Si02
#       8
#     8   8   8   8   8   8   8   8
#     4  11  25  43  69 108 148 182 235 299 366 426
#     4  12  25  45  72 103 139 190 246 295 360 435
#     4  12  24  42  74 102 150 193 236 299 361 438
#     4  11  24  44  68 102 144 185 233 289 357 427
#     4  11  23  41  67 103 138 192 229 280 364 431
#     4  11  24  49  74  97 136 189 245 296 358 427
#     4  11  25  44  72  99 139 184 243 297 361 428
#     4  11  25  42  66 109 149 184 228 292 355 433
#
# _framework density 9.8765429999999999
#
# number of rings (size 3 to 8) (size 9 to 14) (size 15 to 20)
#    0.000    0.750    3.750    3.375   10.500    1.000 
#    0.000    0.000    5.500    0.000    0.000    0.000 
#    0.000    0.000    0.000    0.000    0.000    0.000 
#
# Total GULP energy -178397.249891 kJ/mol
# GULP energy per Si atom -5574.914059 kJ/mol
# Density = 0.985406 g / cm^3
# Si number density = 9.876543 Si / 1000 Ang^3
#
#
#
# Elastic Constant Matrix: (Units=GPa)
#
#
# Indices 1 2 3 4 5 6 
#
# 1 167.2341 44.8475 43.2129 0.0000 0.0000 0.0000
# 2 44.8475 83.8611 28.9831 0.0000 0.0000 0.0000
# 3 43.2129 28.9831 129.5736 0.0000 0.0000 0.0000
# 4 0.0000 0.0000 0.0000 35.5095 0.0000 0.0000
# 5 0.0000 0.0000 0.0000 0.0000 49.8079 0.0000
# 6 0.0000 0.0000 0.0000 0.0000 0.0000 29.7805
#
#
#
# Elastic Compliance Matrix: (Units=1/GPa)
#
#
# Indices 1 2 3 4 5 6 
#
# 1 0.007309 -0.003323 -0.001694 0.000000 0.000000 0.000000
# 2 -0.003323 0.014434 -0.002120 0.000000 0.000000 0.000000
# 3 -0.001694 -0.002120 0.008757 0.000000 0.000000 0.000000
# 4 0.000000 0.000000 0.000000 0.028161 0.000000 0.000000
# 5 0.000000 0.000000 0.000000 0.000000 0.020077 0.000000
# 6 0.000000 0.000000 0.000000 0.000000 0.000000 0.033579
#
#
# Mechanical properties :
#
#
# Convention : Reuss Voigt Hill
#
# Bulk Modulus (GPa) = 61.63437 68.30618 64.97028
# Shear Modulus (GPa) = 37.87854 40.59461 39.23658
#
# Velocity S-wave (km/s) = 4.38379 4.53824 4.46169
# Velocity P-wave (km/s) = 7.54279 7.88137 7.71394
#
# Compressibility (1/GPa) = 0.01622471
#
# Stress axis : x y z
#
# Youngs Moduli (GPa) = 136.82653 69.27895 114.19547
#
# Poissons Ratio (x) = 0.23021 0.19346
# Poissons Ratio (y) = 0.45467 0.24215
# Poissons Ratio (z) = 0.23180 0.14690
#
# Static dielectric constant tensor:
#      x y z
#    x 1.684800 0.000000 0.000000 
#    y 0.000000 1.773580 0.000000 
#    z 0.000000 0.000000 1.758900 
# 
# From -- ./inp_files/10795.got.cif
#   From: 2010.05.17/outbox.ucp.g08.bks.cvg/sg20_6_cif.got.tgz:10795.got - 2010.06.11 15:13:06.
