data_PCOD9322031
_publ_section_title
;
Structure prediction by ZEFSAII (Michael W. Deem and Ramdas Pophale) SiO2 
 PCOD9322031
Probable space group: C 2 2 21
;
_chemical_formula_sum "Si O2"
_cell_formula_units_Z 32
_cell_length_a 16.476770
_cell_length_b 7.176564
_cell_length_c 12.543576
_cell_angle_alpha 90.000000
_cell_angle_beta 90.000000
_cell_angle_gamma 90.000000
_cell_volume 1483.235144
_symmetry_space_group_name_H-M "C 2 2 21"
_symmetry_group_IT_number 20
_symmetry_cell_setting 'orthorhombic'
loop_
_space_group_symop_operation_xyz
x,y,z
-x,-y,1/2+z
x,-y,-z
-x,y,1/2-z
1/2+x,1/2+y,z
1/2-x,1/2-y,1/2+z
1/2+x,1/2-y,-z
1/2-x,1/2+y,1/2-z
loop_
_atom_site_type_symbol
_atom_site_label
_atom_site_fract_x
_atom_site_fract_y
_atom_site_fract_z
Si Si1 0.554197 0.500000 0.500000
Si Si2 0.943149 0.665805 0.570075
Si Si3 0.649371 0.338786 0.306683
Si Si4 0.500000 0.914843 0.750000
Si Si5 0.706662 0.410006 0.882640
O O1 0.496714 0.318478 0.508498
O O2 0.607904 0.474958 0.393710
O O3 0.905592 0.500000 0.500000
O O4 0.999994 0.552204 0.649859
O O5 0.871119 0.774985 0.627020
O O6 0.578394 0.216158 0.253575
O O7 0.696784 0.442751 0.212471
O O8 0.711419 0.205216 0.367988
O O9 0.703280 0.500000 0.000000
#
# Coordination Sequence:
#
# PCOD9322031 Si02
#       5
#     4   8   8   4   8
#     4  12  26  48  76 116 150 198 256 306 368 454
#     4  12  24  47  75 108 151 196 242 314 369 439
#     4  12  28  47  78 112 154 201 252 311 374 452
#     4  12  24  46  78 106 146 196 258 300 376 434
#     4  12  28  48  74 111 158 198 251 311 382 449
#
# _framework density 21.574460999999999
#
# number of rings (size 3 to 8) (size 9 to 14) (size 15 to 20)
#    0.000    0.000    3.750    6.000    8.750    0.000 
#    0.000    0.000    0.000    0.000    0.000    0.000 
#    0.000    0.000    0.000    0.000    0.000    0.000 
#
# Total GULP energy -89574.137497 kJ/mol
# GULP energy per Si atom -5598.383594 kJ/mol
# Density = 2.152536 g / cm^3
# Si number density = 21.574461 Si / 1000 Ang^3
#
#
#
# Elastic Constant Matrix: (Units=GPa)
#
#
# Indices 1 2 3 4 5 6 
#
# 1 78.1966 17.6994 -0.2135 0.0000 0.0000 0.0000
# 2 17.6994 93.7423 28.3471 0.0000 0.0000 0.0000
# 3 -0.2135 28.3471 75.5460 0.0000 0.0000 0.0000
# 4 0.0000 0.0000 0.0000 42.3637 0.0000 0.0000
# 5 0.0000 0.0000 0.0000 0.0000 28.8853 0.0000
# 6 0.0000 0.0000 0.0000 0.0000 0.0000 21.2262
#
#
#
# Elastic Compliance Matrix: (Units=1/GPa)
#
#
# Indices 1 2 3 4 5 6 
#
# 1 0.013442 -0.002876 0.001117 0.000000 0.000000 0.000000
# 2 -0.002876 0.012648 -0.004754 0.000000 0.000000 0.000000
# 3 0.001117 -0.004754 0.015024 0.000000 0.000000 0.000000
# 4 0.000000 0.000000 0.000000 0.023605 0.000000 0.000000
# 5 0.000000 0.000000 0.000000 0.000000 0.034620 0.000000
# 6 0.000000 0.000000 0.000000 0.000000 0.000000 0.047112
#
#
# Mechanical properties :
#
#
# Convention : Reuss Voigt Hill
#
# Bulk Modulus (GPa) = 35.60143 37.68342 36.64243
# Shear Modulus (GPa) = 29.61394 31.93849 30.77621
#
# Velocity S-wave (km/s) = 3.70893 3.85175 3.78102
# Velocity P-wave (km/s) = 5.90585 6.10622 6.00687
#
# Compressibility (1/GPa) = 0.02808876
#
# Stress axis : x y z
#
# Youngs Moduli (GPa) = 74.39225 79.06304 66.56011
#
# Poissons Ratio (x) = 0.22737 -0.07435
# Poissons Ratio (y) = 0.21394 0.31643
# Poissons Ratio (z) = -0.08310 0.37587
#
# Static dielectric constant tensor:
#      x y z
#    x 1.721910 0.000000 0.000000 
#    y 0.000000 1.744550 0.000000 
#    z 0.000000 0.000000 1.831330 
# 
# From -- ./inp_files/11942.got.cif
#   From: 2010.05.17/outbox.cif.g08.bks.cpg/sg20_6_cif.got.tgz:11942.got - 2010.06.03 22:52:26.
