data_PCOD9322756
_publ_section_title
;
Structure prediction by ZEFSAII (Michael W. Deem and Ramdas Pophale) SiO2 
 PCOD9322756
Probable space group: C 2 2 2
;
_chemical_formula_sum "Si O2"
_cell_formula_units_Z 48
_cell_length_a 15.648073
_cell_length_b 8.118408
_cell_length_c 17.412900
_cell_angle_alpha 90.000000
_cell_angle_beta 90.000000
_cell_angle_gamma 90.000000
_cell_volume 2212.090257
_symmetry_space_group_name_H-M "C 2 2 2"
_symmetry_group_IT_number 21
_symmetry_cell_setting 'orthorhombic'
loop_
_space_group_symop_operation_xyz
x,y,z
-x,-y,z
x,-y,-z
-x,y,-z
1/2+x,1/2+y,z
1/2-x,1/2-y,z
1/2+x,1/2-y,-z
1/2-x,1/2+y,-z
loop_
_atom_site_type_symbol
_atom_site_label
_atom_site_fract_x
_atom_site_fract_y
_atom_site_fract_z
Si Si1 0.099963 0.676229 0.322126
Si Si2 0.395263 0.503164 0.410272
Si Si3 0.901609 0.687157 0.320593
Si Si4 0.346673 0.299302 0.838603
Si Si5 0.348179 0.302733 0.008340
Si Si6 0.079420 0.866837 0.839115
O O1 0.137019 0.830668 0.368918
O O2 0.138106 0.493638 0.330769
O O3 0.102535 0.723415 0.232184
O O4 0.000660 0.669760 0.346146
O O5 0.500000 0.500000 0.401929
O O6 0.375637 0.500000 0.500000
O O7 0.363292 0.338525 0.368105
O O8 0.909766 0.747376 0.232597
O O9 0.250000 0.250000 0.829351
O O10 0.346366 0.497099 0.833998
O O11 0.375351 0.242007 0.923658
O O12 0.250000 0.250000 0.022341
O O13 0.408926 0.271167 0.080888
O O14 0.349868 0.500000 0.000000
O O15 0.000000 0.000000 0.838100
#
# Coordination Sequence:
#
# PCOD9322756 Si02
#       6
#     8   8   8   8   8   8
#     4  10  19  34  54  83 116 147 189 241 289 349
#     4   9  17  32  54  83 118 148 183 237 296 353
#     4  10  19  32  56  84 115 148 188 240 294 352
#     4  10  20  36  55  80 113 152 195 246 298 352
#     4   9  21  35  54  80 112 153 195 249 298 352
#     4  11  19  36  58  82 115 157 204 248 303 356
#
# _framework density 21.698934999999999
#
# number of rings (size 3 to 8) (size 9 to 14) (size 15 to 20)
#    0.000    2.167    3.333    0.500    0.000    7.667 
#    0.000    3.333    0.000    2.000    4.333    0.000 
#    0.000    0.000    0.000    0.000    0.000    0.000 
#
# Total GULP energy -133749.976252 kJ/mol
# GULP energy per Si atom -5572.915677 kJ/mol
# Density = 2.164955 g / cm^3
# Si number density = 21.698935 Si / 1000 Ang^3
#
#
#
# Elastic Constant Matrix: (Units=GPa)
#
#
# Indices 1 2 3 4 5 6 
#
# 1 25.9917 11.1181 8.6216 0.0000 0.0000 0.0000
# 2 11.1181 151.7462 91.2510 0.0000 0.0000 0.0000
# 3 8.6216 91.2510 145.6835 0.0000 0.0000 0.0000
# 4 0.0000 0.0000 0.0000 5.3601 0.0000 0.0000
# 5 0.0000 0.0000 0.0000 0.0000 -71.1858 0.0000
# 6 0.0000 0.0000 0.0000 0.0000 0.0000 18.3143
#
#
#
# Elastic Compliance Matrix: (Units=1/GPa)
#
#
# Indices 1 2 3 4 5 6 
#
# 1 0.039784 -0.002405 -0.000848 0.000000 0.000000 0.000000
# 2 -0.002405 0.010717 -0.006571 0.000000 0.000000 0.000000
# 3 -0.000848 -0.006571 0.011030 0.000000 0.000000 0.000000
# 4 0.000000 0.000000 0.000000 0.186564 0.000000 0.000000
# 5 0.000000 0.000000 0.000000 0.000000 -0.014048 0.000000
# 6 0.000000 0.000000 0.000000 0.000000 0.000000 0.054602
#
#
# Mechanical properties :
#
#
# Convention : Reuss Voigt Hill
#
# Bulk Modulus (GPa) = 23.87548 60.60029 42.23788
# Shear Modulus (GPa) = 15.51552 4.65977 10.08765
#
# Velocity S-wave (km/s) = 2.67692 1.46701 2.15847
# Velocity P-wave (km/s) = 4.53668 5.55499 5.07146
#
# Compressibility (1/GPa) = 0.04188398
#
# Stress axis : x y z
#
# Youngs Moduli (GPa) = 25.13583 93.30677 90.66183
#
# Poissons Ratio (x) = 0.22439 0.07689
# Poissons Ratio (y) = 0.06045 0.59571
# Poissons Ratio (z) = 0.02132 0.61309
#
# Static dielectric constant tensor:
#      x y z
#    x 1.889760 0.000000 0.000000 
#    y 0.000000 1.813250 0.000000 
#    z 0.000000 0.000000 1.822890 
# 
# From -- ./inp_files/36887.got.cif
#   From: 2010.05.17/outbox.cif.g08.bks.cpg/sg21_19_cif.got.tgz:36887.got - 2010.06.03 23:14:55.
