data_PCOD9322023
_publ_section_title
;
Structure prediction by ZEFSAII (Michael W. Deem and Ramdas Pophale) SiO2 
 PCOD9322023
Probable space group: C 2 2 21
;
_chemical_formula_sum "Si O2"
_cell_formula_units_Z 24
_cell_length_a 6.962178
_cell_length_b 18.746613
_cell_length_c 7.622577
_cell_angle_alpha 90.000000
_cell_angle_beta 90.000000
_cell_angle_gamma 90.000000
_cell_volume 994.877838
_symmetry_space_group_name_H-M "C 2 2 21"
_symmetry_group_IT_number 20
_symmetry_cell_setting 'orthorhombic'
loop_
_space_group_symop_operation_xyz
x,y,z
-x,-y,1/2+z
x,-y,-z
-x,y,1/2-z
1/2+x,1/2+y,z
1/2-x,1/2-y,1/2+z
1/2+x,1/2-y,-z
1/2-x,1/2+y,1/2-z
loop_
_atom_site_type_symbol
_atom_site_label
_atom_site_fract_x
_atom_site_fract_y
_atom_site_fract_z
Si Si1 0.659389 0.075570 0.093957
Si Si2 0.993344 0.145242 0.554057
Si Si3 0.930285 0.297686 0.058981
O O1 0.500000 0.073027 0.250000
O O2 0.583218 0.142098 0.983032
O O3 0.886302 0.098355 0.085271
O O4 0.646395 0.000000 0.000000
O O5 0.768847 0.161118 0.527142
O O6 0.000000 0.112441 0.750000
O O7 0.072779 0.226746 0.557341
O O8 0.000000 0.271315 0.250000
#
# Coordination Sequence:
#
# PCOD9322023 Si02
#       3
#     8   8   8
#     4  12  29  50  74 110 160 210 260 327 397 470
#     4  12  25  46  79 113 154 206 263 319 389 472
#     4  12  24  45  80 117 157 200 263 326 392 465
#
# _framework density 24.123563999999998
#
# number of rings (size 3 to 8) (size 9 to 14) (size 15 to 20)
#    0.000    0.000    6.667    2.000    4.667    1.333 
#    0.000    0.000    0.000    0.000    0.000    0.000 
#    0.000    0.000    0.000    0.000    0.000    0.000 
#
# Total GULP energy -66877.146038 kJ/mol
# GULP energy per Si atom -5573.095503 kJ/mol
# Density = 2.406866 g / cm^3
# Si number density = 24.123564 Si / 1000 Ang^3
#
#
#
# Elastic Constant Matrix: (Units=GPa)
#
#
# Indices 1 2 3 4 5 6 
#
# 1 166.9796 29.2134 61.6737 0.0000 0.0000 0.0000
# 2 29.2134 113.5797 32.0690 0.0000 0.0000 0.0000
# 3 61.6737 32.0690 99.8001 0.0000 0.0000 0.0000
# 4 0.0000 0.0000 0.0000 20.4774 0.0000 0.0000
# 5 0.0000 0.0000 0.0000 0.0000 55.9985 0.0000
# 6 0.0000 0.0000 0.0000 0.0000 0.0000 -0.3311
#
#
#
# Elastic Compliance Matrix: (Units=1/GPa)
#
#
# Indices 1 2 3 4 5 6 
#
# 1 0.007812 -0.000711 -0.004599 0.000000 0.000000 0.000000
# 2 -0.000711 0.009748 -0.002693 0.000000 0.000000 0.000000
# 3 -0.004599 -0.002693 0.013727 0.000000 0.000000 0.000000
# 4 0.000000 0.000000 0.000000 0.048834 0.000000 0.000000
# 5 0.000000 0.000000 0.000000 0.000000 0.017858 0.000000
# 6 0.000000 0.000000 0.000000 0.000000 0.000000 -3.020389
#
#
# Mechanical properties :
#
#
# Convention : Reuss Voigt Hill
#
# Bulk Modulus (GPa) = 65.43981 69.58575 67.51278
# Shear Modulus (GPa) = -1.72336 32.38917 15.33291
#
# Velocity S-wave (km/s) = -0.84613 3.66818 2.52384
# Velocity P-wave (km/s) = 5.12164 6.84462 6.04484
#
# Compressibility (1/GPa) = 0.01528122
#
# Stress axis : x y z
#
# Youngs Moduli (GPa) = 128.01214 102.58987 72.84651
#
# Poissons Ratio (x) = 0.07291 0.33503
# Poissons Ratio (y) = 0.09098 0.19618
# Poissons Ratio (z) = 0.58874 0.27628
#
# Static dielectric constant tensor:
#      x y z
#    x 2.109510 0.000000 0.000000 
#    y 0.000000 1.674470 0.000000 
#    z 0.000000 0.000000 1.975700 
# 
# From -- ./inp_files/5467.got.cif
#   From: 2010.05.17/outbox.cif.g08.bks.cpg/sg20_3_cif.got.tgz:5467.got - 2010.06.03 22:52:26.
