data_PCOD9322797
_publ_section_title
;
Structure prediction by ZEFSAII (Michael W. Deem and Ramdas Pophale) SiO2 
 PCOD9322797
Probable space group: C 2 2 2
;
_chemical_formula_sum "Si O2"
_cell_formula_units_Z 32
_cell_length_a 19.416976
_cell_length_b 7.954583
_cell_length_c 8.707146
_cell_angle_alpha 90.000000
_cell_angle_beta 90.000000
_cell_angle_gamma 90.000000
_cell_volume 1344.853069
_symmetry_space_group_name_H-M "C 2 2 2"
_symmetry_group_IT_number 21
_symmetry_cell_setting 'orthorhombic'
loop_
_space_group_symop_operation_xyz
x,y,z
-x,-y,z
x,-y,-z
-x,y,-z
1/2+x,1/2+y,z
1/2-x,1/2-y,z
1/2+x,1/2-y,-z
1/2-x,1/2+y,-z
loop_
_atom_site_type_symbol
_atom_site_label
_atom_site_fract_x
_atom_site_fract_y
_atom_site_fract_z
Si Si1 0.627917 0.672596 0.604992
Si Si2 0.855106 0.328637 0.703506
Si Si3 0.269119 0.493655 0.182098
Si Si4 0.999922 0.205114 0.180355
O O1 0.612326 0.500000 0.500000
O O2 0.648899 0.806648 0.478081
O O3 0.688496 0.629773 0.722693
O O4 0.564048 0.736664 0.706387
O O5 0.810143 0.480821 0.767193
O O6 0.812868 0.171398 0.773143
O O7 0.933257 0.297907 0.752570
O O8 0.272650 0.500000 0.000000
O O9 0.000000 0.000000 0.182589
O O10 0.000000 0.251820 0.000000
#
# Coordination Sequence:
#
# PCOD9322797 Si02
#       4
#     8   8   8   8
#     4  10  19  33  57  86 124 156 197 258 302 364
#     4  10  21  34  56  91 120 158 202 249 319 364
#     4  10  20  37  56  85 126 160 198 253 307 373
#     4  11  19  31  55  86 123 150 200 257 309 350
#
# _framework density 23.794422999999998
#
# number of rings (size 3 to 8) (size 9 to 14) (size 15 to 20)
#    0.000    1.750    5.000    2.250    0.000    0.000 
#    0.000   27.500    0.000    0.750    0.000   10.500 
#    0.000    0.000    0.000    0.000    0.000    0.000 
#
# Total GULP energy -89448.296210 kJ/mol
# GULP energy per Si atom -5590.518513 kJ/mol
# Density = 2.374027 g / cm^3
# Si number density = 23.794423 Si / 1000 Ang^3
#
#
#
# Elastic Constant Matrix: (Units=GPa)
#
#
# Indices 1 2 3 4 5 6 
#
# 1 228.3641 49.1018 121.5459 0.0000 0.0000 0.0000
# 2 49.1018 67.1085 40.4503 0.0000 0.0000 0.0000
# 3 121.5459 40.4503 274.4130 0.0000 0.0000 0.0000
# 4 0.0000 0.0000 0.0000 -20.2319 0.0000 0.0000
# 5 0.0000 0.0000 0.0000 0.0000 55.7135 0.0000
# 6 0.0000 0.0000 0.0000 0.0000 0.0000 341.2325
#
#
#
# Elastic Compliance Matrix: (Units=1/GPa)
#
#
# Indices 1 2 3 4 5 6 
#
# 1 0.006304 -0.003215 -0.002318 0.000000 0.000000 0.000000
# 2 -0.003215 0.017994 -0.001228 0.000000 0.000000 0.000000
# 3 -0.002318 -0.001228 0.004852 0.000000 0.000000 0.000000
# 4 0.000000 0.000000 0.000000 -0.049427 0.000000 0.000000
# 5 0.000000 0.000000 0.000000 0.000000 0.017949 0.000000
# 6 0.000000 0.000000 0.000000 0.000000 0.000000 0.002931
#
#
# Mechanical properties :
#
#
# Convention : Reuss Voigt Hill
#
# Bulk Modulus (GPa) = 63.99359 110.23129 87.11244
# Shear Modulus (GPa) = 258.58710 99.26200 178.92455
#
# Velocity S-wave (km/s) = 10.43606 6.46584 8.68097
# Velocity P-wave (km/s) = 13.12128 10.10791 11.71191
#
# Compressibility (1/GPa) = 0.01562657
#
# Stress axis : x y z
#
# Youngs Moduli (GPa) = 158.62295 55.57358 206.09642
#
# Poissons Ratio (x) = 0.17868 0.47781
# Poissons Ratio (y) = 0.51001 0.25315
# Poissons Ratio (z) = 0.36775 0.06826
#
# Static dielectric constant tensor:
#      x y z
#    x 1.903850 0.000000 0.000000 
#    y 0.000000 1.978140 0.000000 
#    z 0.000000 0.000000 1.628690 
# 
# From -- ./inp_files/16014.got.cif
#   From: 2010.05.17/outbox.cif.g08.bks.cpg/sg21_9_cif.got.tgz:16014.got - 2010.06.03 23:14:55.
