data_PCOD9322077
_publ_section_title
;
Structure prediction by ZEFSAII (Michael W. Deem and Ramdas Pophale) SiO2 
 PCOD9322077
Probable space group: C 2 2 21
;
_chemical_formula_sum "Si O2"
_cell_formula_units_Z 36
_cell_length_a 4.807250
_cell_length_b 14.530823
_cell_length_c 19.887784
_cell_angle_alpha 90.000000
_cell_angle_beta 90.000000
_cell_angle_gamma 90.000000
_cell_volume 1389.227320
_symmetry_space_group_name_H-M "C 2 2 21"
_symmetry_group_IT_number 20
_symmetry_cell_setting 'orthorhombic'
loop_
_space_group_symop_operation_xyz
x,y,z
-x,-y,1/2+z
x,-y,-z
-x,y,1/2-z
1/2+x,1/2+y,z
1/2-x,1/2-y,1/2+z
1/2+x,1/2-y,-z
1/2-x,1/2+y,1/2-z
loop_
_atom_site_type_symbol
_atom_site_label
_atom_site_fract_x
_atom_site_fract_y
_atom_site_fract_z
Si Si1 0.357871 0.546486 0.071879
Si Si2 0.446959 0.235113 0.456762
Si Si3 0.318132 0.297769 0.316567
Si Si4 0.000000 0.861216 0.750000
Si Si5 0.859985 0.503642 0.160416
O O1 0.231952 0.646182 0.059905
O O2 0.671276 0.529854 0.095825
O O3 0.174680 0.510928 0.135026
O O4 0.315683 0.500000 0.000000
O O5 0.732508 0.212127 0.494096
O O6 0.487462 0.286239 0.386069
O O7 0.500000 0.294125 0.250000
O O8 0.114948 0.210165 0.306131
O O9 0.182290 0.398005 0.319221
O O10 0.765161 0.926181 0.716149
#
# Coordination Sequence:
#
# PCOD9322077 Si02
#       5
#     8   8   8   4   8
#     4  12  25  48  75 110 157 203 260 321 394 471
#     4  12  26  47  75 113 155 204 261 321 391 470
#     4  12  28  48  80 112 157 206 267 324 398 469
#     4  12  28  50  78 110 160 200 266 332 390 474
#     4  12  27  49  76 113 153 205 259 325 392 469
#
# _framework density 25.913688
#
# number of rings (size 3 to 8) (size 9 to 14) (size 15 to 20)
#    0.000    0.000    3.333    6.000    6.222    0.000 
#    0.000    0.000    0.000    0.000    0.000    0.000 
#    0.000    0.000    0.000    0.000    0.000    0.000 
#
# Total GULP energy -100936.606387 kJ/mol
# GULP energy per Si atom -5607.589244 kJ/mol
# Density = 2.585471 g / cm^3
# Si number density = 25.913688 Si / 1000 Ang^3
#
#
#
# Elastic Constant Matrix: (Units=GPa)
#
#
# Indices 1 2 3 4 5 6 
#
# 1 82.6395 -9.5347 44.8849 0.0000 0.0000 0.0000
# 2 -9.5347 130.2078 36.6183 0.0000 0.0000 0.0000
# 3 44.8849 36.6183 171.0139 0.0000 0.0000 0.0000
# 4 0.0000 0.0000 0.0000 48.5489 0.0000 0.0000
# 5 0.0000 0.0000 0.0000 0.0000 58.6378 0.0000
# 6 0.0000 0.0000 0.0000 0.0000 0.0000 20.3428
#
#
#
# Elastic Compliance Matrix: (Units=1/GPa)
#
#
# Indices 1 2 3 4 5 6 
#
# 1 0.014736 0.002306 -0.004361 0.000000 0.000000 0.000000
# 2 0.002306 0.008533 -0.002432 0.000000 0.000000 0.000000
# 3 -0.004361 -0.002432 0.007513 0.000000 0.000000 0.000000
# 4 0.000000 0.000000 0.000000 0.020598 0.000000 0.000000
# 5 0.000000 0.000000 0.000000 0.000000 0.017054 0.000000
# 6 0.000000 0.000000 0.000000 0.000000 0.000000 0.049157
#
#
# Mechanical properties :
#
#
# Convention : Reuss Voigt Hill
#
# Bulk Modulus (GPa) = 45.85990 58.64423 52.25206
# Shear Modulus (GPa) = 37.35954 46.29876 41.82915
#
# Velocity S-wave (km/s) = 3.80108 4.23147 4.02203
# Velocity P-wave (km/s) = 6.08275 6.82301 6.46349
#
# Compressibility (1/GPa) = 0.02180554
#
# Stress axis : x y z
#
# Youngs Moduli (GPa) = 67.86329 117.19388 133.10385
#
# Poissons Ratio (x) = -0.27019 0.58049
# Poissons Ratio (y) = -0.15646 0.32374
# Poissons Ratio (z) = 0.29597 0.28504
#
# Static dielectric constant tensor:
#      x y z
#    x 2.019860 0.000000 0.000000 
#    y 0.000000 2.058380 0.000000 
#    z 0.000000 0.000000 2.204530 
# 
# From -- ./inp_files/25909.got.cif
#   From: 2010.05.17/outbox.cif.g08.bks.cpg/sg20_13_cif.got.tgz:25909.got - 2010.06.03 22:52:26.
