data_PCOD9322229
_publ_section_title
;
Structure prediction by ZEFSAII (Michael W. Deem and Ramdas Pophale) SiO2 
 PCOD9322229
Probable space group: C 2 2 21
;
_chemical_formula_sum "Si O2"
_cell_formula_units_Z 20
_cell_length_a 15.000000
_cell_length_b 15.000000
_cell_length_c 9.000000
_cell_angle_alpha 90.000000
_cell_angle_beta 90.000000
_cell_angle_gamma 90.000000
_cell_volume 2025.000000
_symmetry_space_group_name_H-M "C 2 2 21"
_symmetry_group_IT_number 20
_symmetry_cell_setting 'orthorhombic'
loop_
_space_group_symop_operation_xyz
x,y,z
-x,-y,1/2+z
x,-y,-z
-x,y,1/2-z
1/2+x,1/2+y,z
1/2-x,1/2-y,1/2+z
1/2+x,1/2-y,-z
1/2-x,1/2+y,1/2-z
loop_
_atom_site_type_symbol
_atom_site_label
_atom_site_fract_x
_atom_site_fract_y
_atom_site_fract_z
Si Si1 0.643669 0.350971 0.241328
Si Si2 0.357729 0.650552 0.102258
Si Si3 0.000000 0.994675 0.750000
Si Si4 0.357728 0.849448 0.602258
Si Si5 0.356332 0.149029 0.758671
Si Si6 0.500000 0.994675 0.750000
O O1 0.633795 0.346094 0.421987
O O2 0.574824 0.430883 0.189552
O O3 0.625693 0.251169 0.170903
O O4 0.750000 0.370386 0.210656
O O5 0.430723 0.575784 0.162965
O O6 0.250000 0.629664 0.133249
O O7 0.374308 0.751168 0.170904
O O8 0.366205 0.846094 0.421988
O O9 0.430722 0.924216 0.662965
O O10 0.425176 0.069117 0.810448
#
# Coordination Sequence:
#
# PCOD9322229 Si02
#       6
#     8   8   4   8   8   4
#     4  10  23  43  64  89 125 166 207 254 309 369
#     4  10  23  43  64  89 125 166 207 254 309 369
#     4  12  22  34  64  96 122 156 204 254 306 362
#     4  10  23  43  64  89 125 166 207 254 309 369
#     4  10  23  43  64  89 125 166 207 254 309 369
#     4  12  22  34  64  96 122 156 204 254 306 362
#
# _framework density 9.8765429999999999
#
# number of rings (size 3 to 8) (size 9 to 14) (size 15 to 20)
#    0.000    1.600    0.000    3.600    0.000   12.800 
#    0.000    0.000    0.000   19.200    0.000    0.000 
#    0.000    0.000    0.000    0.000    0.000    0.000 
#
# Total GULP energy -111337.858239 kJ/mol
# GULP energy per Si atom -5566.892912 kJ/mol
# Density = 0.985406 g / cm^3
# Si number density = 9.876543 Si / 1000 Ang^3
#
#
#
# Elastic Constant Matrix: (Units=GPa)
#
#
# Indices 1 2 3 4 5 6 
#
# 1 155.0578 62.6353 19.7560 0.0000 0.0000 0.0000
# 2 62.6353 161.6240 21.2741 0.0000 0.0000 0.0000
# 3 19.7560 21.2741 60.3671 0.0000 0.0000 0.0000
# 4 0.0000 0.0000 0.0000 30.7643 0.0000 0.0000
# 5 0.0000 0.0000 0.0000 0.0000 30.1090 0.0000
# 6 0.0000 0.0000 0.0000 0.0000 0.0000 73.7815
#
#
#
# Elastic Compliance Matrix: (Units=1/GPa)
#
#
# Indices 1 2 3 4 5 6 
#
# 1 0.007783 -0.002811 -0.001556 0.000000 0.000000 0.000000
# 2 -0.002811 0.007504 -0.001724 0.000000 0.000000 0.000000
# 3 -0.001556 -0.001724 0.017682 0.000000 0.000000 0.000000
# 4 0.000000 0.000000 0.000000 0.032505 0.000000 0.000000
# 5 0.000000 0.000000 0.000000 0.000000 0.033213 0.000000
# 6 0.000000 0.000000 0.000000 0.000000 0.000000 0.013554
#
#
# Mechanical properties :
#
#
# Convention : Reuss Voigt Hill
#
# Bulk Modulus (GPa) = 48.11163 64.93106 56.52135
# Shear Modulus (GPa) = 38.06532 45.15652 41.61092
#
# Velocity S-wave (km/s) = 4.39459 4.78645 4.59470
# Velocity P-wave (km/s) = 7.08232 7.96803 7.53820
#
# Compressibility (1/GPa) = 0.02078500
#
# Stress axis : x y z
#
# Youngs Moduli (GPa) = 128.48236 133.26772 56.55359
#
# Poissons Ratio (x) = 0.37467 0.08802
# Poissons Ratio (y) = 0.36122 0.09752
# Poissons Ratio (z) = 0.19997 0.22980
#
# Static dielectric constant tensor:
#      x y z
#    x 1.764360 0.000000 0.000000 
#    y 0.000000 1.725750 0.000000 
#    z 0.000000 0.000000 1.730770 
# 
# From -- ./inp_files/8140.got.cif
#   From: 2010.05.17/outbox.ucp.g08.bks.cvg/sg20_5_cif.got.tgz:8140.got - 2010.06.11 15:13:06.
