data_PCOD9322881
_publ_section_title
;
Structure prediction by ZEFSAII (Michael W. Deem and Ramdas Pophale) SiO2 
 PCOD9322881
Probable space group: C 2 2 2
;
_chemical_formula_sum "Si O2"
_cell_formula_units_Z 58
_cell_length_a 30.829485
_cell_length_b 16.667080
_cell_length_c 5.079537
_cell_angle_alpha 90.000000
_cell_angle_beta 90.000000
_cell_angle_gamma 90.000000
_cell_volume 2610.056557
_symmetry_space_group_name_H-M "C 2 2 2"
_symmetry_group_IT_number 21
_symmetry_cell_setting 'orthorhombic'
loop_
_space_group_symop_operation_xyz
x,y,z
-x,-y,z
x,-y,-z
-x,y,-z
1/2+x,1/2+y,z
1/2-x,1/2-y,z
1/2+x,1/2-y,-z
1/2-x,1/2+y,-z
loop_
_atom_site_type_symbol
_atom_site_label
_atom_site_fract_x
_atom_site_fract_y
_atom_site_fract_z
Si Si1 0.211976 0.653362 0.914785
Si Si2 0.807799 0.158812 0.949239
Si Si3 0.543966 0.365835 0.666040
Si Si4 0.661592 0.856084 0.593418
Si Si5 0.500000 0.500000 0.000000
Si Si6 0.135484 0.171768 0.567861
Si Si7 0.407555 0.951412 0.726367
Si Si8 0.529199 0.191801 0.764099
O O1 0.204595 0.747137 0.988432
O O2 0.260169 0.620409 0.961212
O O3 0.177293 0.616084 0.118738
O O4 0.202345 0.653136 0.603832
O O5 0.841937 0.136546 0.173492
O O6 0.832532 0.152515 0.674120
O O7 0.500000 0.359123 0.500000
O O8 0.532777 0.443375 0.836702
O O9 0.587865 0.362724 0.495329
O O10 0.545377 0.282183 0.824263
O O11 0.636466 0.769832 0.599689
O O12 0.633913 0.921509 0.439521
O O13 0.431041 0.867566 0.769600
O O14 0.433587 0.000000 0.500000
O O15 0.403503 0.000000 0.000000
O O16 0.500000 0.189905 0.500000
O O17 0.500000 0.163618 0.000000
#
# Coordination Sequence:
#
# PCOD9322881 Si02
#       8
#     8   8   8   8   2   8   8   8
#     4   9  17  31  55  87 132 160 210 266 322 373
#     4   9  18  31  55  96 124 163 207 268 319 383
#     4  11  25  44  69 100 131 168 216 270 336 398
#     4  10  19  35  56  88 126 174 209 266 321 371
#     4  12  26  48  72 102 126 168 218 272 338 400
#     4  10  20  35  62  91 130 162 212 262 328 387
#     4  12  25  40  60  93 130 172 229 270 318 383
#     4  11  24  43  67  92 128 172 214 270 328 384
#
# _framework density 22.22174
#
# number of rings (size 3 to 8) (size 9 to 14) (size 15 to 20)
#    0.000    1.655    2.069    2.690    1.931    4.966 
#    0.000    0.000    0.000    0.000   17.931    0.000 
#    0.000    0.000    0.000    0.000    0.000    0.000 
#
# Total GULP energy -161774.622550 kJ/mol
# GULP energy per Si atom -5578.435260 kJ/mol
# Density = 2.217116 g / cm^3
# Si number density = 22.221740 Si / 1000 Ang^3
#
#
#
# Elastic Constant Matrix: (Units=GPa)
#
#
# Indices 1 2 3 4 5 6 
#
# 1 62.7111 16.6527 -20.2737 0.0000 0.0000 0.0000
# 2 16.6527 80.9927 8.4559 0.0000 0.0000 0.0000
# 3 -20.2737 8.4559 66.7220 0.0000 0.0000 0.0000
# 4 0.0000 0.0000 0.0000 33.4313 0.0000 0.0000
# 5 0.0000 0.0000 0.0000 0.0000 20.5750 0.0000
# 6 0.0000 0.0000 0.0000 0.0000 0.0000 9.7642
#
#
#
# Elastic Compliance Matrix: (Units=1/GPa)
#
#
# Indices 1 2 3 4 5 6 
#
# 1 0.019258 -0.004632 0.006438 0.000000 0.000000 0.000000
# 2 -0.004632 0.013626 -0.003134 0.000000 0.000000 0.000000
# 3 0.006438 -0.003134 0.017341 0.000000 0.000000 0.000000
# 4 0.000000 0.000000 0.000000 0.029912 0.000000 0.000000
# 5 0.000000 0.000000 0.000000 0.000000 0.048603 0.000000
# 6 0.000000 0.000000 0.000000 0.000000 0.000000 0.102415
#
#
# Mechanical properties :
#
#
# Convention : Reuss Voigt Hill
#
# Bulk Modulus (GPa) = 21.02165 24.45506 22.73836
# Shear Modulus (GPa) = 20.02675 26.46017 23.24346
#
# Velocity S-wave (km/s) = 3.00529 3.45444 3.23767
# Velocity P-wave (km/s) = 4.63928 5.19036 4.92254
#
# Compressibility (1/GPa) = 0.04757001
#
# Stress axis : x y z
#
# Youngs Moduli (GPa) = 51.92775 73.38738 57.66636
#
# Poissons Ratio (x) = 0.33991 -0.37128
# Poissons Ratio (y) = 0.24051 0.18074
# Poissons Ratio (z) = -0.33433 0.23002
#
# Static dielectric constant tensor:
#      x y z
#    x 1.853600 0.000000 0.000000 
#    y 0.000000 1.906240 0.000000 
#    z 0.000000 0.000000 1.850600 
# 
# From -- ./inp_files/7480.got.cif
#   From: 2010.05.17/outbox.cif.g08.bks.cpg/sg21_4_cif.got.tgz:7480.got - 2010.06.03 23:14:55.
