data_PCOD9322033
_publ_section_title
;
Structure prediction by ZEFSAII (Michael W. Deem and Ramdas Pophale) SiO2 
 PCOD9322033
Probable space group: C 2 2 21
;
_chemical_formula_sum "Si O2"
_cell_formula_units_Z 56
_cell_length_a 8.351821
_cell_length_b 20.275683
_cell_length_c 13.639498
_cell_angle_alpha 90.000000
_cell_angle_beta 90.000000
_cell_angle_gamma 90.000000
_cell_volume 2309.697248
_symmetry_space_group_name_H-M "C 2 2 21"
_symmetry_group_IT_number 20
_symmetry_cell_setting 'orthorhombic'
loop_
_space_group_symop_operation_xyz
x,y,z
-x,-y,1/2+z
x,-y,-z
-x,y,1/2-z
1/2+x,1/2+y,z
1/2-x,1/2-y,1/2+z
1/2+x,1/2-y,-z
1/2-x,1/2+y,1/2-z
loop_
_atom_site_type_symbol
_atom_site_label
_atom_site_fract_x
_atom_site_fract_y
_atom_site_fract_z
Si Si1 0.883089 0.731384 0.506066
Si Si2 0.290085 0.845837 0.049506
Si Si3 0.186037 0.119495 0.745988
Si Si4 0.823815 0.242595 0.281515
Si Si5 0.802460 0.130290 0.118730
Si Si6 0.866311 0.053857 0.414671
Si Si7 0.181531 0.507662 0.218650
O O1 0.855997 0.792887 0.433419
O O2 0.835883 0.770284 0.604252
O O3 0.763318 0.674066 0.470626
O O4 0.053303 0.697732 0.526208
O O5 0.284855 0.884926 0.151794
O O6 0.263856 0.898903 0.965239
O O7 0.207599 0.195341 0.719156
O O8 0.000000 0.103742 0.750000
O O9 0.262147 0.063128 0.678172
O O10 0.791920 0.180572 0.211914
O O11 0.000000 0.267254 0.250000
O O12 0.696256 0.067102 0.142504
O O13 0.977890 0.099137 0.105464
O O14 0.797316 0.025638 0.312148
O O15 0.904552 0.000000 0.500000
O O16 0.000000 0.503277 0.250000
#
# Coordination Sequence:
#
# PCOD9322033 Si02
#       7
#     8   8   8   8   8   8   8
#     4  12  26  45  77 113 153 201 265 325 400 477
#     4  12  25  47  72 109 152 196 256 326 392 464
#     4  12  27  45  73 105 150 195 254 310 396 463
#     4  12  24  47  74 109 155 198 253 327 390 466
#     4  12  27  49  78 116 156 210 263 326 404 480
#     4  12  26  47  76 111 155 208 268 330 397 483
#     4  12  27  50  75 106 156 208 262 324 396 475
#
# _framework density 24.245602000000002
#
# number of rings (size 3 to 8) (size 9 to 14) (size 15 to 20)
#    0.000    0.000    4.286    6.000    4.000    0.571 
#    0.000    0.000    0.000    0.000    0.000    0.000 
#    0.000    0.000    0.000    0.000    0.000    0.000 
#
# Total GULP energy -156580.222498 kJ/mol
# GULP energy per Si atom -5592.150804 kJ/mol
# Density = 2.419042 g / cm^3
# Si number density = 24.245602 Si / 1000 Ang^3
#
#
#
# Elastic Constant Matrix: (Units=GPa)
#
#
# Indices 1 2 3 4 5 6 
#
# 1 96.9520 34.7772 -0.1235 0.0000 0.0000 0.0000
# 2 34.7772 147.9088 34.9729 0.0000 0.0000 0.0000
# 3 -0.1235 34.9729 58.4470 0.0000 0.0000 0.0000
# 4 0.0000 0.0000 0.0000 30.5058 0.0000 0.0000
# 5 0.0000 0.0000 0.0000 0.0000 25.5832 0.0000
# 6 0.0000 0.0000 0.0000 0.0000 0.0000 40.6616
#
#
#
# Elastic Compliance Matrix: (Units=1/GPa)
#
#
# Indices 1 2 3 4 5 6 
#
# 1 0.011443 -0.003141 0.001903 0.000000 0.000000 0.000000
# 2 -0.003141 0.008737 -0.005235 0.000000 0.000000 0.000000
# 3 0.001903 -0.005235 0.020246 0.000000 0.000000 0.000000
# 4 0.000000 0.000000 0.000000 0.032781 0.000000 0.000000
# 5 0.000000 0.000000 0.000000 0.000000 0.039088 0.000000
# 6 0.000000 0.000000 0.000000 0.000000 0.000000 0.024593
#
#
# Mechanical properties :
#
#
# Convention : Reuss Voigt Hill
#
# Bulk Modulus (GPa) = 36.38677 49.17345 42.78011
# Shear Modulus (GPa) = 31.44795 34.92888 33.18842
#
# Velocity S-wave (km/s) = 3.60538 3.79968 3.70380
# Velocity P-wave (km/s) = 5.68962 6.29090 5.99780
#
# Compressibility (1/GPa) = 0.02748252
#
# Stress axis : x y z
#
# Youngs Moduli (GPa) = 87.38659 114.45424 49.39301
#
# Poissons Ratio (x) = 0.35947 -0.09402
# Poissons Ratio (y) = 0.27446 0.25856
# Poissons Ratio (z) = -0.16634 0.59913
#
# Static dielectric constant tensor:
#      x y z
#    x 1.937590 0.000000 0.000000 
#    y 0.000000 1.952240 0.000000 
#    z 0.000000 0.000000 2.028930 
# 
# From -- ./inp_files/19222.got.cif
#   From: 2010.05.17/outbox.cif.g08.bks.cpg/sg20_10_cif.got.tgz:19222.got - 2010.06.03 22:52:26.
