data_PCOD9322204
_publ_section_title
;
Structure prediction by ZEFSAII (Michael W. Deem and Ramdas Pophale) SiO2 
 PCOD9322204
Probable space group: C 2 2 21
;
_chemical_formula_sum "Si O2"
_cell_formula_units_Z 32
_cell_length_a 15.000000
_cell_length_b 12.000000
_cell_length_c 18.000000
_cell_angle_alpha 90.000000
_cell_angle_beta 90.000000
_cell_angle_gamma 90.000000
_cell_volume 3240.000000
_symmetry_space_group_name_H-M "C 2 2 21"
_symmetry_group_IT_number 20
_symmetry_cell_setting 'orthorhombic'
loop_
_space_group_symop_operation_xyz
x,y,z
-x,-y,1/2+z
x,-y,-z
-x,y,1/2-z
1/2+x,1/2+y,z
1/2-x,1/2-y,1/2+z
1/2+x,1/2-y,-z
1/2-x,1/2+y,1/2-z
loop_
_atom_site_type_symbol
_atom_site_label
_atom_site_fract_x
_atom_site_fract_y
_atom_site_fract_z
Si Si1 0.606854 0.472774 0.663486
Si Si2 0.078916 0.615810 0.596335
Si Si3 0.853736 0.087084 0.681370
Si Si4 0.094530 0.363187 0.578771
Si Si5 0.780458 0.857150 0.648536
Si Si6 0.988194 0.137288 0.927745
Si Si7 0.712669 0.733009 0.310103
Si Si8 0.967043 0.819305 0.594200
O O1 0.609033 0.542790 0.739806
O O2 0.594599 0.563678 0.599572
O O3 0.690806 0.389069 0.656006
O O4 0.522146 0.388344 0.656208
O O5 0.068342 0.484865 0.608502
O O6 0.109123 0.628646 0.510228
O O7 0.146605 0.679756 0.650480
O O8 0.990095 0.689626 0.602168
O O9 0.807995 0.207575 0.684858
O O10 0.927650 0.090977 0.617412
O O11 0.782741 0.990040 0.662673
O O12 0.186123 0.326653 0.616274
O O13 0.024312 0.266287 0.593326
O O14 0.803551 0.790691 0.723361
O O15 0.862666 0.836272 0.594995
O O16 0.997623 0.135881 0.015738
#
# Coordination Sequence:
#
# PCOD9322204 Si02
#       8
#     8   8   8   8   8   8   8   8
#     4  10  21  37  60  87 129 159 197 261 317 357
#     4   9  20  39  62  84 128 159 201 243 321 360
#     4  11  22  37  62  92 124 163 206 259 301 378
#     4  10  21  39  62  91 121 166 196 258 305 371
#     4  11  22  36  64  89 120 154 217 248 304 369
#     4  11  22  37  64  94 127 155 210 257 319 369
#     4  10  22  38  58  90 123 160 203 253 311 365
#     4  10  22  38  62  96 117 164 209 262 306 376
#
# _framework density 9.8765429999999999
#
# number of rings (size 3 to 8) (size 9 to 14) (size 15 to 20)
#    0.000    1.750    2.500    1.500    3.500    1.500 
#    0.000    3.750    5.500    0.000    0.000    0.000 
#    0.000    0.000    0.000    0.000    0.000    0.000 
#
# Total GULP energy -178329.212337 kJ/mol
# GULP energy per Si atom -5572.787886 kJ/mol
# Density = 0.985406 g / cm^3
# Si number density = 9.876543 Si / 1000 Ang^3
#
#
#
# Elastic Constant Matrix: (Units=GPa)
#
#
# Indices 1 2 3 4 5 6 
#
# 1 33.5124 25.2686 15.0429 0.0000 0.0000 0.0000
# 2 25.2686 115.0747 30.2819 0.0000 0.0000 0.0000
# 3 15.0429 30.2819 24.8262 0.0000 0.0000 0.0000
# 4 0.0000 0.0000 0.0000 30.7107 0.0000 0.0000
# 5 0.0000 0.0000 0.0000 0.0000 17.7227 0.0000
# 6 0.0000 0.0000 0.0000 0.0000 0.0000 35.6715
#
#
#
# Elastic Compliance Matrix: (Units=1/GPa)
#
#
# Indices 1 2 3 4 5 6 
#
# 1 0.042044 -0.003723 -0.020934 0.000000 0.000000 0.000000
# 2 -0.003723 0.013128 -0.013756 0.000000 0.000000 0.000000
# 3 -0.020934 -0.013756 0.069744 0.000000 0.000000 0.000000
# 4 0.000000 0.000000 0.000000 0.032562 0.000000 0.000000
# 5 0.000000 0.000000 0.000000 0.000000 0.056425 0.000000
# 6 0.000000 0.000000 0.000000 0.000000 0.000000 0.028034
#
#
# Mechanical properties :
#
#
# Convention : Reuss Voigt Hill
#
# Bulk Modulus (GPa) = 20.79522 34.95555 27.87538
# Shear Modulus (GPa) = 14.93465 23.67564 19.30515
#
# Velocity S-wave (km/s) = 2.75265 3.46581 3.12961
# Velocity P-wave (km/s) = 4.54458 5.80951 5.21554
#
# Compressibility (1/GPa) = 0.04808799
#
# Stress axis : x y z
#
# Youngs Moduli (GPa) = 23.78467 76.17545 14.33823
#
# Poissons Ratio (x) = 0.28363 0.30015
# Poissons Ratio (y) = 0.08856 0.19724
# Poissons Ratio (z) = 0.49790 1.04789
#
# Static dielectric constant tensor:
#      x y z
#    x 1.704990 0.000000 0.000000 
#    y 0.000000 1.725630 0.000000 
#    z 0.000000 0.000000 1.703440 
# 
# From -- ./inp_files/24442.got.cif
#   From: 2010.05.17/outbox.ucp.g08.bks.cvg/sg20_13_cif.got.tgz:24442.got - 2010.06.11 15:13:06.
