data_PCOD9322753
_publ_section_title
;
Structure prediction by ZEFSAII (Michael W. Deem and Ramdas Pophale) SiO2 
 PCOD9322753
Probable space group: C 2 2 2
;
_chemical_formula_sum "Si O2"
_cell_formula_units_Z 36
_cell_length_a 8.328169
_cell_length_b 23.982700
_cell_length_c 9.590184
_cell_angle_alpha 90.000000
_cell_angle_beta 90.000000
_cell_angle_gamma 90.000000
_cell_volume 1915.466426
_symmetry_space_group_name_H-M "C 2 2 2"
_symmetry_group_IT_number 21
_symmetry_cell_setting 'orthorhombic'
loop_
_space_group_symop_operation_xyz
x,y,z
-x,-y,z
x,-y,-z
-x,y,-z
1/2+x,1/2+y,z
1/2-x,1/2-y,z
1/2+x,1/2-y,-z
1/2-x,1/2+y,-z
loop_
_atom_site_type_symbol
_atom_site_label
_atom_site_fract_x
_atom_site_fract_y
_atom_site_fract_z
Si Si1 0.727777 0.096875 0.302002
Si Si2 0.191354 0.187122 0.493548
Si Si3 0.712399 0.500000 0.500000
Si Si4 0.846084 0.406868 0.700418
Si Si5 0.307028 0.434770 0.005288
O O1 0.758138 0.157704 0.362899
O O2 0.537142 0.088445 0.318449
O O3 0.837298 0.051799 0.391603
O O4 0.756152 0.092318 0.139224
O O5 0.250000 0.250000 0.478285
O O6 0.270993 0.147187 0.376009
O O7 0.000000 0.185696 0.500000
O O8 0.788346 0.461093 0.616514
O O9 0.777971 0.410119 0.857409
O O10 0.262281 0.500000 0.000000
O O11 0.500000 0.431049 0.000000
#
# Coordination Sequence:
#
# PCOD9322753 Si02
#       5
#     8   8   4   8   8
#     4  11  21  37  60  88 119 159 201 244 294 353
#     4  11  23  42  64  89 118 154 199 251 298 350
#     4  10  19  32  55  86 117 152 197 240 289 350
#     4  11  21  37  60  88 119 159 201 244 294 353
#     4  11  23  37  54  87 128 163 197 242 296 354
#
# _framework density 18.794378999999999
#
# number of rings (size 3 to 8) (size 9 to 14) (size 15 to 20)
#    0.000    1.111    2.222    7.333    0.000    0.889 
#    0.000    4.444    0.000    0.000    0.000    0.000 
#    0.000    0.000    0.000    0.000    0.000    0.000 
#
# Total GULP energy -100243.627751 kJ/mol
# GULP energy per Si atom -5569.090431 kJ/mol
# Density = 1.875160 g / cm^3
# Si number density = 18.794379 Si / 1000 Ang^3
#
#
#
# Elastic Constant Matrix: (Units=GPa)
#
#
# Indices 1 2 3 4 5 6 
#
# 1 39.5432 21.8074 28.5224 0.0000 0.0000 0.0000
# 2 21.8074 132.2441 49.8038 0.0000 0.0000 0.0000
# 3 28.5224 49.8038 158.1345 0.0000 0.0000 0.0000
# 4 0.0000 0.0000 0.0000 33.3751 0.0000 0.0000
# 5 0.0000 0.0000 0.0000 0.0000 23.4239 0.0000
# 6 0.0000 0.0000 0.0000 0.0000 0.0000 10.7617
#
#
#
# Elastic Compliance Matrix: (Units=1/GPa)
#
#
# Indices 1 2 3 4 5 6 
#
# 1 0.030314 -0.003335 -0.004417 0.000000 0.000000 0.000000
# 2 -0.003335 0.008946 -0.002216 0.000000 0.000000 0.000000
# 3 -0.004417 -0.002216 0.007818 0.000000 0.000000 0.000000
# 4 0.000000 0.000000 0.000000 0.029962 0.000000 0.000000
# 5 0.000000 0.000000 0.000000 0.000000 0.042692 0.000000
# 6 0.000000 0.000000 0.000000 0.000000 0.000000 0.092922
#
#
# Mechanical properties :
#
#
# Convention : Reuss Voigt Hill
#
# Bulk Modulus (GPa) = 36.84356 58.90987 47.87672
# Shear Modulus (GPa) = 20.69194 28.83134 24.76164
#
# Velocity S-wave (km/s) = 3.32168 3.92093 3.63368
# Velocity P-wave (km/s) = 5.86152 7.20491 6.56765
#
# Compressibility (1/GPa) = 0.02714178
#
# Stress axis : x y z
#
# Youngs Moduli (GPa) = 32.98770 111.77742 127.90352
#
# Poissons Ratio (x) = 0.37282 0.56498
# Poissons Ratio (y) = 0.11003 0.28344
# Poissons Ratio (z) = 0.14572 0.24770
#
# Static dielectric constant tensor:
#      x y z
#    x 1.712120 0.000000 0.000000 
#    y 0.000000 1.627190 0.000000 
#    z 0.000000 0.000000 1.655330 
# 
# From -- ./inp_files/11102.got.cif
#   From: 2010.05.17/outbox.cif.g08.bks.cpg/sg21_6_cif.got.tgz:11102.got - 2010.06.03 23:14:55.
