data_PCOD9322177
_publ_section_title
;
Structure prediction by ZEFSAII (Michael W. Deem and Ramdas Pophale) SiO2 
 PCOD9322177
Probable space group: C 2 2 21
;
_chemical_formula_sum "Si O2"
_cell_formula_units_Z 30
_cell_length_a 12.000000
_cell_length_b 12.000000
_cell_length_c 21.000000
_cell_angle_alpha 90.000000
_cell_angle_beta 90.000000
_cell_angle_gamma 90.000000
_cell_volume 3024.000000
_symmetry_space_group_name_H-M "C 2 2 21"
_symmetry_group_IT_number 20
_symmetry_cell_setting 'orthorhombic'
loop_
_space_group_symop_operation_xyz
x,y,z
-x,-y,1/2+z
x,-y,-z
-x,y,1/2-z
1/2+x,1/2+y,z
1/2-x,1/2-y,1/2+z
1/2+x,1/2-y,-z
1/2-x,1/2+y,1/2-z
loop_
_atom_site_type_symbol
_atom_site_label
_atom_site_fract_x
_atom_site_fract_y
_atom_site_fract_z
Si Si1 0.220598 0.865697 0.855177
Si Si2 0.873252 0.786735 0.774669
Si Si3 0.370500 0.766572 0.568415
Si Si4 0.445286 0.383740 0.537024
Si Si5 0.275687 0.402507 0.326712
Si Si6 0.394884 0.314011 0.119915
Si Si7 0.169224 0.076242 0.404247
Si Si8 0.500000 0.382061 0.250000
O O1 0.197832 0.835100 0.782869
O O2 0.106954 0.887515 0.893198
O O3 0.289971 0.766100 0.885021
O O4 0.278123 0.985789 0.854164
O O5 0.816304 0.667729 0.788984
O O6 0.858641 0.867003 0.835937
O O7 0.000000 0.778823 0.750000
O O8 0.378652 0.714095 0.498426
O O9 0.313287 0.678221 0.616209
O O10 0.501653 0.750229 0.586416
O O11 0.293906 0.878376 0.576374
O O12 0.424930 0.500000 0.500000
O O13 0.578393 0.373827 0.546087
O O14 0.390179 0.432458 0.286994
O O15 0.360568 0.442588 0.100703
O O16 0.437750 0.319374 0.192923
#
# Coordination Sequence:
#
# PCOD9322177 Si02
#       8
#     8   8   8   8   8   8   8   4
#     4  12  24  40  67  98 131 182 224 282 354 419
#     4  11  23  41  62  96 130 172 224 278 345 419
#     4  10  24  42  66  98 129 174 229 280 331 416
#     4  12  22  43  72  95 130 181 231 284 344 416
#     4  10  21  40  60  90 131 167 219 276 334 407
#     4  11  23  42  66 100 136 180 225 284 349 410
#     4  11  24  43  72  97 135 179 229 286 342 414
#     4  10  18  38  64  88 124 170 228 264 328 410
#
# _framework density 9.9206350000000008
#
# number of rings (size 3 to 8) (size 9 to 14) (size 15 to 20)
#    0.000    1.067    5.333    1.600    3.733    0.000 
#    3.600    0.000    0.000    0.800    0.000    0.000 
#    0.000    0.000    0.000    0.000    0.000    0.000 
#
# Total GULP energy -167058.735139 kJ/mol
# GULP energy per Si atom -5568.624505 kJ/mol
# Density = 0.989806 g / cm^3
# Si number density = 9.920635 Si / 1000 Ang^3
#
#
#
# Elastic Constant Matrix: (Units=GPa)
#
#
# Indices 1 2 3 4 5 6 
#
# 1 105.8766 55.1619 16.9662 0.0000 0.0000 0.0000
# 2 55.1619 95.8869 6.2529 0.0000 0.0000 0.0000
# 3 16.9662 6.2529 71.1877 0.0000 0.0000 0.0000
# 4 0.0000 0.0000 0.0000 16.0281 0.0000 0.0000
# 5 0.0000 0.0000 0.0000 0.0000 31.2840 0.0000
# 6 0.0000 0.0000 0.0000 0.0000 0.0000 -41.1600
#
#
#
# Elastic Compliance Matrix: (Units=1/GPa)
#
#
# Indices 1 2 3 4 5 6 
#
# 1 0.013963 -0.007861 -0.002637 0.000000 0.000000 0.000000
# 2 -0.007861 0.014914 0.000563 0.000000 0.000000 0.000000
# 3 -0.002637 0.000563 0.014626 0.000000 0.000000 0.000000
# 4 0.000000 0.000000 0.000000 0.062390 0.000000 0.000000
# 5 0.000000 0.000000 0.000000 0.000000 0.031965 0.000000
# 6 0.000000 0.000000 0.000000 0.000000 0.000000 -0.024295
#
#
# Mechanical properties :
#
#
# Convention : Reuss Voigt Hill
#
# Bulk Modulus (GPa) = 42.31095 47.74589 45.02842
# Shear Modulus (GPa) = 35.38290 14.20177 24.79233
#
# Velocity S-wave (km/s) = 4.22749 2.67829 3.53871
# Velocity P-wave (km/s) = 6.72309 5.80349 6.28014
#
# Compressibility (1/GPa) = 0.02363454
#
# Stress axis : x y z
#
# Youngs Moduli (GPa) = 71.61787 67.04974 68.36937
#
# Poissons Ratio (x) = 0.52706 0.18031
# Poissons Ratio (y) = 0.56296 -0.03852
# Poissons Ratio (z) = 0.18888 -0.03778
#
# Static dielectric constant tensor:
#      x y z
#    x 1.719600 0.000000 0.000000 
#    y 0.000000 1.713730 0.000000 
#    z 0.000000 0.000000 2.219720 
# 
# From -- ./inp_files/27260.got.cif
#   From: 2010.05.17/outbox.ucp.g08.bks.cvg/sg20_14_cif.got.tgz:27260.got - 2010.06.11 15:13:06.
