data_PCOD9322017
_publ_section_title
;
Structure prediction by ZEFSAII (Michael W. Deem and Ramdas Pophale) SiO2 
 PCOD9322017
Probable space group: C 2 2 21
;
_chemical_formula_sum "Si O2"
_cell_formula_units_Z 28
_cell_length_a 20.300096
_cell_length_b 9.156168
_cell_length_c 5.561502
_cell_angle_alpha 90.000000
_cell_angle_beta 90.000000
_cell_angle_gamma 90.000000
_cell_volume 1033.722435
_symmetry_space_group_name_H-M "C 2 2 21"
_symmetry_group_IT_number 20
_symmetry_cell_setting 'orthorhombic'
loop_
_space_group_symop_operation_xyz
x,y,z
-x,-y,1/2+z
x,-y,-z
-x,y,1/2-z
1/2+x,1/2+y,z
1/2-x,1/2-y,1/2+z
1/2+x,1/2-y,-z
1/2-x,1/2+y,1/2-z
loop_
_atom_site_type_symbol
_atom_site_label
_atom_site_fract_x
_atom_site_fract_y
_atom_site_fract_z
Si Si1 0.590948 0.835281 0.508238
Si Si2 0.000000 0.900372 0.250000
Si Si3 0.788001 0.619634 0.319213
Si Si4 0.848460 0.141471 0.372069
O O1 0.558120 0.720666 0.694658
O O2 0.665953 0.865909 0.588730
O O3 0.599012 0.744935 0.259885
O O4 0.560232 0.000000 0.500000
O O5 0.004261 0.000000 0.500000
O O6 0.817511 0.500000 0.500000
O O7 0.802700 0.770988 0.445698
O O8 0.711097 0.589561 0.297380
O O9 0.876969 0.000000 0.500000
#
# Coordination Sequence:
#
# PCOD9322017 Si02
#       4
#     8   4   8   8
#     4  12  29  55  84 118 167 224 283 351 430 517
#     4  12  36  62  90 124 162 224 302 376 436 504
#     4  12  24  44  76 122 173 220 269 333 426 521
#     4  12  26  44  79 126 177 222 275 344 425 513
#
# _framework density 27.086576000000001
#
# number of rings (size 3 to 8) (size 9 to 14) (size 15 to 20)
#    0.000    0.000    5.714    2.571    8.000    2.286 
#    0.000    0.000    0.000    0.000    0.000    0.000 
#    0.000    0.000    0.000    0.000    0.000    0.000 
#
# Total GULP energy -78157.345943 kJ/mol
# GULP energy per Si atom -5582.667567 kJ/mol
# Density = 2.702493 g / cm^3
# Si number density = 27.086576 Si / 1000 Ang^3
#
#
#
# Elastic Constant Matrix: (Units=GPa)
#
#
# Indices 1 2 3 4 5 6 
#
# 1 88.6397 45.9454 0.7646 0.0000 0.0000 0.0000
# 2 45.9454 250.4728 96.9788 0.0000 0.0000 0.0000
# 3 0.7646 96.9788 119.3831 0.0000 0.0000 0.0000
# 4 0.0000 0.0000 0.0000 87.2910 0.0000 0.0000
# 5 0.0000 0.0000 0.0000 0.0000 -3.3021 0.0000
# 6 0.0000 0.0000 0.0000 0.0000 0.0000 4.6548
#
#
#
# Elastic Compliance Matrix: (Units=1/GPa)
#
#
# Indices 1 2 3 4 5 6 
#
# 1 0.013043 -0.003443 0.002713 0.000000 0.000000 0.000000
# 2 -0.003443 0.006733 -0.005448 0.000000 0.000000 0.000000
# 3 0.002713 -0.005448 0.012784 0.000000 0.000000 0.000000
# 4 0.000000 0.000000 0.000000 0.011456 0.000000 0.000000
# 5 0.000000 0.000000 0.000000 0.000000 -0.302838 0.000000
# 6 0.000000 0.000000 0.000000 0.000000 0.000000 0.214831
#
#
# Mechanical properties :
#
#
# Convention : Reuss Voigt Hill
#
# Bulk Modulus (GPa) = 49.49054 82.87479 66.18267
# Shear Modulus (GPa) = -200.79767 38.71586 -81.04091
#
# Velocity S-wave (km/s) = -8.61932 3.78476 -5.47578
# Velocity P-wave (km/s) = 8.98588 7.05421 3.93600
#
# Compressibility (1/GPa) = 0.02020588
#
# Stress axis : x y z
#
# Youngs Moduli (GPa) = 76.66993 148.51667 78.22106
#
# Poissons Ratio (x) = 0.51136 -0.21225
# Poissons Ratio (y) = 0.26398 0.42612
# Poissons Ratio (z) = -0.20804 0.80906
#
# Static dielectric constant tensor:
#      x y z
#    x 2.091160 0.000000 0.000000 
#    y 0.000000 2.196110 0.000000 
#    z 0.000000 0.000000 2.629520 
# 
# From -- ./inp_files/3981.got.cif
#   From: 2010.05.17/outbox.cif.g08.bks.cpg/sg20_2_cif.got.tgz:3981.got - 2010.06.03 22:52:26.
