data_PCOD9322412
_publ_section_title
;
Structure prediction by ZEFSAII (Michael W. Deem and Ramdas Pophale) SiO2 
 PCOD9322412
Probable space group: C 2 2 2
;
_chemical_formula_sum "Si O2"
_cell_formula_units_Z 32
_cell_length_a 14.523213
_cell_length_b 8.366027
_cell_length_c 12.746222
_cell_angle_alpha 90.000000
_cell_angle_beta 90.000000
_cell_angle_gamma 90.000000
_cell_volume 1548.686266
_symmetry_space_group_name_H-M "C 2 2 2"
_symmetry_group_IT_number 21
_symmetry_cell_setting 'orthorhombic'
loop_
_space_group_symop_operation_xyz
x,y,z
-x,-y,z
x,-y,-z
-x,y,-z
1/2+x,1/2+y,z
1/2-x,1/2-y,z
1/2+x,1/2-y,-z
1/2-x,1/2+y,-z
loop_
_atom_site_type_symbol
_atom_site_label
_atom_site_fract_x
_atom_site_fract_y
_atom_site_fract_z
Si Si1 0.291118 0.570768 0.692237
Si Si2 0.184398 0.500000 0.500000
Si Si3 0.946253 0.766011 0.400130
Si Si4 0.802758 0.421961 0.114305
Si Si5 0.000000 0.500000 0.230822
O O1 0.250000 0.750000 0.684165
O O2 0.245460 0.463354 0.601785
O O3 0.396071 0.593352 0.662025
O O4 0.264400 0.512437 0.805404
O O5 0.122656 0.354034 0.463014
O O6 0.000000 0.827587 0.500000
O O7 0.986894 0.649979 0.310222
O O8 0.750000 0.250000 0.106622
O O9 0.906894 0.452553 0.164328
O O10 0.805202 0.500000 0.000000
#
# Coordination Sequence:
#
# PCOD9322412 Si02
#       5
#     8   4   8   8   4
#     4  10  21  39  67  97 143 182 232 294 359 430
#     4  10  17  34  59  94 134 184 220 271 350 429
#     4  11  19  37  66 102 145 184 232 287 360 448
#     4  12  27  48  76 102 138 191 249 308 374 436
#     4  12  22  44  72 104 138 191 235 292 378 446
#
# _framework density 20.662676000000001
#
# number of rings (size 3 to 8) (size 9 to 14) (size 15 to 20)
#    0.000    1.000    7.500    1.125    0.000    5.000 
#    0.000    4.375    0.000    0.000    0.000    0.000 
#    0.000    0.000    0.000    0.000    0.000    0.000 
#
# Total GULP energy -89106.856680 kJ/mol
# GULP energy per Si atom -5569.178543 kJ/mol
# Density = 2.061565 g / cm^3
# Si number density = 20.662676 Si / 1000 Ang^3
#
#
#
# Elastic Constant Matrix: (Units=GPa)
#
#
# Indices 1 2 3 4 5 6 
#
# 1 124.5113 57.8948 96.4731 0.0000 0.0000 0.0000
# 2 57.8948 82.0949 67.7066 0.0000 0.0000 0.0000
# 3 96.4731 67.7066 223.1063 0.0000 0.0000 0.0000
# 4 0.0000 0.0000 0.0000 26.6387 0.0000 0.0000
# 5 0.0000 0.0000 0.0000 0.0000 63.7447 0.0000
# 6 0.0000 0.0000 0.0000 0.0000 0.0000 12.4869
#
#
#
# Elastic Compliance Matrix: (Units=1/GPa)
#
#
# Indices 1 2 3 4 5 6 
#
# 1 0.014391 -0.006691 -0.004192 0.000000 0.000000 0.000000
# 2 -0.006691 0.019359 -0.002981 0.000000 0.000000 0.000000
# 3 -0.004192 -0.002981 0.007200 0.000000 0.000000 0.000000
# 4 0.000000 0.000000 0.000000 0.037539 0.000000 0.000000
# 5 0.000000 0.000000 0.000000 0.000000 0.015688 0.000000
# 6 0.000000 0.000000 0.000000 0.000000 0.000000 0.080084
#
#
# Mechanical properties :
#
#
# Convention : Reuss Voigt Hill
#
# Bulk Modulus (GPa) = 75.64571 97.09572 86.37072
# Shear Modulus (GPa) = 24.22529 34.41663 29.32096
#
# Velocity S-wave (km/s) = 3.42777 4.08566 3.77109
# Velocity P-wave (km/s) = 7.23571 8.32764 7.80081
#
# Compressibility (1/GPa) = 0.01321952
#
# Stress axis : x y z
#
# Youngs Moduli (GPa) = 69.48910 51.65621 138.89562
#
# Poissons Ratio (x) = 0.34565 0.58226
# Poissons Ratio (y) = 0.46497 0.41412
# Poissons Ratio (z) = 0.29130 0.15401
#
# Static dielectric constant tensor:
#      x y z
#    x 2.056020 0.000000 0.000000 
#    y 0.000000 1.663620 0.000000 
#    z 0.000000 0.000000 1.699800 
# 
# From -- ./inp_files/21874.got.cif
#   From: 2010.05.17/outbox.cif.g08.bks.cpg/sg21_11_cif.got.tgz:21874.got - 2010.06.03 23:14:55.
