data_PCOD9322032
_publ_section_title
;
Structure prediction by ZEFSAII (Michael W. Deem and Ramdas Pophale) SiO2 
 PCOD9322032
Probable space group: C 2 2 21
;
_chemical_formula_sum "Si O2"
_cell_formula_units_Z 32
_cell_length_a 8.555596
_cell_length_b 15.839744
_cell_length_c 10.953429
_cell_angle_alpha 90.000000
_cell_angle_beta 90.000000
_cell_angle_gamma 90.000000
_cell_volume 1484.391725
_symmetry_space_group_name_H-M "C 2 2 21"
_symmetry_group_IT_number 20
_symmetry_cell_setting 'orthorhombic'
loop_
_space_group_symop_operation_xyz
x,y,z
-x,-y,1/2+z
x,-y,-z
-x,y,1/2-z
1/2+x,1/2+y,z
1/2-x,1/2-y,1/2+z
1/2+x,1/2-y,-z
1/2-x,1/2+y,1/2-z
loop_
_atom_site_type_symbol
_atom_site_label
_atom_site_fract_x
_atom_site_fract_y
_atom_site_fract_z
Si Si1 0.801938 0.160385 0.579949
Si Si2 0.477366 0.500000 0.500000
Si Si3 0.000000 0.553692 0.250000
Si Si4 0.952520 0.337273 0.508027
Si Si5 0.771269 0.933542 0.180747
O O1 0.617256 0.170277 0.560318
O O2 0.886752 0.246069 0.542983
O O3 0.172945 0.134428 0.779426
O O4 0.871097 0.083416 0.499465
O O5 0.591588 0.514203 0.615555
O O6 0.016063 0.609645 0.129929
O O7 0.847108 0.494880 0.247852
O O8 0.828390 0.387066 0.424412
#
# Coordination Sequence:
#
# PCOD9322032 Si02
#       5
#     8   4   4   8   8
#     4  12  28  48  73 114 153 200 250 318 366 457
#     4  12  26  46  76 108 152 194 254 300 382 446
#     4  12  24  46  80 104 148 200 246 314 376 444
#     4  12  27  47  77 108 152 199 254 305 386 442
#     4  12  25  52  77 109 152 202 248 314 378 456
#
# _framework density 21.557652999999998
#
# number of rings (size 3 to 8) (size 9 to 14) (size 15 to 20)
#    0.000    0.000    5.000    3.750    7.000    0.000 
#    0.000    2.500    0.000    0.000    0.000    0.000 
#    0.000    0.000    0.000    0.000    0.000    0.000 
#
# Total GULP energy -89659.126383 kJ/mol
# GULP energy per Si atom -5603.695399 kJ/mol
# Density = 2.150859 g / cm^3
# Si number density = 21.557653 Si / 1000 Ang^3
#
#
#
# Elastic Constant Matrix: (Units=GPa)
#
#
# Indices 1 2 3 4 5 6 
#
# 1 67.3986 15.8695 33.3153 0.0000 0.0000 0.0000
# 2 15.8695 131.0239 56.3598 0.0000 0.0000 0.0000
# 3 33.3153 56.3598 140.2199 0.0000 0.0000 0.0000
# 4 0.0000 0.0000 0.0000 39.2642 0.0000 0.0000
# 5 0.0000 0.0000 0.0000 0.0000 49.9150 0.0000
# 6 0.0000 0.0000 0.0000 0.0000 0.0000 46.2086
#
#
#
# Elastic Compliance Matrix: (Units=1/GPa)
#
#
# Indices 1 2 3 4 5 6 
#
# 1 0.016828 -0.000385 -0.003843 0.000000 0.000000 0.000000
# 2 -0.000385 0.009236 -0.003621 0.000000 0.000000 0.000000
# 3 -0.003843 -0.003621 0.009500 0.000000 0.000000 0.000000
# 4 0.000000 0.000000 0.000000 0.025469 0.000000 0.000000
# 5 0.000000 0.000000 0.000000 0.000000 0.020034 0.000000
# 6 0.000000 0.000000 0.000000 0.000000 0.000000 0.021641
#
#
# Mechanical properties :
#
#
# Convention : Reuss Voigt Hill
#
# Bulk Modulus (GPa) = 50.33843 61.08128 55.70986
# Shear Modulus (GPa) = 39.99097 42.61740 41.30418
#
# Velocity S-wave (km/s) = 4.31173 4.45106 4.38195
# Velocity P-wave (km/s) = 6.94185 7.40347 7.17637
#
# Compressibility (1/GPa) = 0.01986554
#
# Stress axis : x y z
#
# Youngs Moduli (GPa) = 59.42642 108.26740 105.26044
#
# Poissons Ratio (x) = 0.04167 0.40456
# Poissons Ratio (y) = 0.02287 0.38115
# Poissons Ratio (z) = 0.22840 0.39204
#
# Static dielectric constant tensor:
#      x y z
#    x 1.823990 0.000000 0.000000 
#    y 0.000000 1.750690 0.000000 
#    z 0.000000 0.000000 1.769590 
# 
# From -- ./inp_files/18393.got.cif
#   From: 2010.05.17/outbox.cif.g08.bks.cpg/sg20_10_cif.got.tgz:18393.got - 2010.06.03 22:52:26.
