data_PCOD9322445
_publ_section_title
;
Structure prediction by ZEFSAII (Michael W. Deem and Ramdas Pophale) SiO2 
 PCOD9322445
Probable space group: C 2 2 2
;
_chemical_formula_sum "Si O2"
_cell_formula_units_Z 60
_cell_length_a 23.491672
_cell_length_b 5.616168
_cell_length_c 19.526621
_cell_angle_alpha 90.000000
_cell_angle_beta 90.000000
_cell_angle_gamma 90.000000
_cell_volume 2576.209136
_symmetry_space_group_name_H-M "C 2 2 2"
_symmetry_group_IT_number 21
_symmetry_cell_setting 'orthorhombic'
loop_
_space_group_symop_operation_xyz
x,y,z
-x,-y,z
x,-y,-z
-x,y,-z
1/2+x,1/2+y,z
1/2-x,1/2-y,z
1/2+x,1/2-y,-z
1/2-x,1/2+y,-z
loop_
_atom_site_type_symbol
_atom_site_label
_atom_site_fract_x
_atom_site_fract_y
_atom_site_fract_z
Si Si1 0.650527 0.499974 0.251162
Si Si2 0.714652 0.000000 0.000000
Si Si3 0.148689 0.499974 0.249078
Si Si4 0.565888 0.500017 0.880006
Si Si5 0.269086 0.000000 0.577699
Si Si6 0.391334 0.999982 0.902596
Si Si7 0.937108 0.000023 0.376670
Si Si8 0.401013 0.000023 0.397627
O O1 0.681709 0.248190 0.249812
O O2 0.607892 0.499976 0.185914
O O3 0.612493 0.499972 0.319891
O O4 0.681709 0.751758 0.249812
O O5 0.750000 0.750000 0.999999
O O6 0.671476 0.999995 0.064538
O O7 0.113004 0.499976 0.179552
O O8 0.106508 0.499972 0.314464
O O9 0.500000 0.500000 0.859337
O O10 0.579132 0.747799 0.919314
O O11 0.579136 0.252244 0.919316
O O12 0.250000 0.250000 0.609440
O O13 0.336757 0.999998 0.575980
O O14 0.244640 0.000000 0.500000
O O15 0.250000 0.750000 0.609440
O O16 0.929742 0.249864 0.416069
O O17 0.929736 0.750192 0.416072
O O18 0.000000 0.000000 0.345000
#
# Coordination Sequence:
#
# PCOD9322445 Si02
#       8
#     8   4   8   8   8   8   8   8
#     4   8  15  26  45  74 109 146 177 202 237 301
#     4  12  26  46  65  76  93 136 190 230 266 306
#     4   8  16  30  50  76 107 136 167 213 263 301
#     4  10  18  32  55  84 115 143 166 200 263 324
#     4  10  21  38  59  80 101 132 176 222 271 326
#     4  10  21  38  56  80 109 137 177 222 254 306
#     4  10  18  29  48  77 112 149 183 209 243 299
#     4  10  19  33  53  79 110 141 173 216 263 306
#
# _framework density 23.290037000000002
#
# number of rings (size 3 to 8) (size 9 to 14) (size 15 to 20)
#    0.000    2.400    0.000    2.800    0.000    0.000 
#    0.000   11.333    0.000    2.400    0.000    0.000 
#    0.000    0.000    0.000    0.000    0.000    0.000 
#
# Total GULP energy -167193.926425 kJ/mol
# GULP energy per Si atom -5573.130881 kJ/mol
# Density = 2.323703 g / cm^3
# Si number density = 23.290037 Si / 1000 Ang^3
#
#
#
# Elastic Constant Matrix: (Units=GPa)
#
#
# Indices 1 2 3 4 5 6 
#
# 1 88.8855 49.9603 3.1506 0.0000 0.0000 0.0000
# 2 49.9603 331.7987 7.4576 0.0000 0.0000 0.0000
# 3 3.1506 7.4576 91.1777 0.0000 0.0000 0.0000
# 4 0.0000 0.0000 0.0000 -5.1114 0.0000 0.0000
# 5 0.0000 0.0000 0.0000 0.0000 53.9295 0.0000
# 6 0.0000 0.0000 0.0000 0.0000 0.0000 34.7239
#
#
#
# Elastic Compliance Matrix: (Units=1/GPa)
#
#
# Indices 1 2 3 4 5 6 
#
# 1 0.012297 -0.001846 -0.000274 0.000000 0.000000 0.000000
# 2 -0.001846 0.003296 -0.000206 0.000000 0.000000 0.000000
# 3 -0.000274 -0.000206 0.010994 0.000000 0.000000 0.000000
# 4 0.000000 0.000000 0.000000 -0.195640 0.000000 0.000000
# 5 0.000000 0.000000 0.000000 0.000000 0.018543 0.000000
# 6 0.000000 0.000000 0.000000 0.000000 0.000000 0.028799
#
#
# Mechanical properties :
#
#
# Convention : Reuss Voigt Hill
#
# Bulk Modulus (GPa) = 45.58498 70.33322 57.95910
# Shear Modulus (GPa) = -45.55902 46.79463 0.61780
#
# Velocity S-wave (km/s) = -4.42765 4.48729 0.51560
# Velocity P-wave (km/s) = 2.55412 7.55725 5.02934
#
# Compressibility (1/GPa) = 0.02193705
#
# Stress axis : x y z
#
# Youngs Moduli (GPa) = 81.31753 303.36212 90.95952
#
# Poissons Ratio (x) = 0.55986 0.02492
# Poissons Ratio (y) = 0.15007 0.01872
# Poissons Ratio (z) = 0.02228 0.06245
#
# Static dielectric constant tensor:
#      x y z
#    x 1.777060 0.000000 0.000000 
#    y 0.000000 1.997420 0.000000 
#    z 0.000000 0.000000 1.885600 
# 
# From -- ./inp_files/38895.got.cif
#   From: 2010.05.17/outbox.cif.g08.bks.cpg/sg21_20_cif.got.tgz:38895.got - 2010.06.03 23:14:55.
