data_PCOD9322799
_publ_section_title
;
Structure prediction by ZEFSAII (Michael W. Deem and Ramdas Pophale) SiO2 
 PCOD9322799
Probable space group: C 2 2 2
;
_chemical_formula_sum "Si O2"
_cell_formula_units_Z 64
_cell_length_a 12.482551
_cell_length_b 15.011033
_cell_length_c 17.614983
_cell_angle_alpha 90.000000
_cell_angle_beta 90.000000
_cell_angle_gamma 90.000000
_cell_volume 3300.624790
_symmetry_space_group_name_H-M "C 2 2 2"
_symmetry_group_IT_number 21
_symmetry_cell_setting 'orthorhombic'
loop_
_space_group_symop_operation_xyz
x,y,z
-x,-y,z
x,-y,-z
-x,y,-z
1/2+x,1/2+y,z
1/2-x,1/2-y,z
1/2+x,1/2-y,-z
1/2-x,1/2+y,-z
loop_
_atom_site_type_symbol
_atom_site_label
_atom_site_fract_x
_atom_site_fract_y
_atom_site_fract_z
Si Si1 0.794918 0.848608 0.438308
Si Si2 0.624962 0.003213 0.592433
Si Si3 0.408773 0.428473 0.176282
Si Si4 0.029188 0.788949 0.088468
Si Si5 0.987545 0.098224 0.655474
Si Si6 0.715215 0.647953 0.614853
Si Si7 0.698265 0.447371 0.076621
Si Si8 0.553470 0.089064 0.082810
O O1 0.750000 0.750000 0.437731
O O2 0.707279 0.913348 0.398283
O O3 0.909234 0.848026 0.397976
O O4 0.811895 0.873567 0.526541
O O5 0.500000 0.000000 0.617568
O O6 0.619212 0.000000 0.500000
O O7 0.687385 0.919665 0.629250
O O8 0.500000 0.500000 0.152235
O O9 0.433704 0.338060 0.132856
O O10 0.426932 0.413387 0.264666
O O11 0.307374 0.481185 0.145567
O O12 0.130631 0.857066 0.092911
O O13 0.041861 0.688001 0.118247
O O14 0.000000 0.785540 0.000000
O O15 0.107881 0.133655 0.663392
O O16 0.000000 0.000000 0.621190
O O17 0.750000 0.750000 0.620738
O O18 0.821409 0.423714 0.068275
O O19 0.660032 0.500000 0.000000
O O20 0.500000 0.000000 0.119464
O O21 0.500000 0.094645 0.000000
#
# Coordination Sequence:
#
# PCOD9322799 Si02
#       8
#     8   8   8   8   8   8   8   8
#     4  10  21  35  58  86 120 154 193 246 300 353
#     4   9  18  33  53  83 118 144 180 234 291 350
#     4   9  21  36  58  87 111 147 195 244 297 353
#     4  10  19  33  58  84 110 144 189 236 288 344
#     4  11  21  39  59  85 121 155 201 254 304 361
#     4  10  21  35  58  92 113 153 200 242 300 356
#     4  11  18  34  57  85 113 145 186 242 292 353
#     4  10  20  34  51  85 120 143 179 235 299 341
#
# _framework density 19.390267999999999
#
# number of rings (size 3 to 8) (size 9 to 14) (size 15 to 20)
#    0.000    2.000    3.750    0.750    1.750    0.500 
#    0.000    5.625    0.000    0.750    0.000    0.000 
#    0.000    0.000    0.000    0.000    0.000    0.000 
#
# Total GULP energy -178183.812485 kJ/mol
# GULP energy per Si atom -5568.244140 kJ/mol
# Density = 1.934614 g / cm^3
# Si number density = 19.390268 Si / 1000 Ang^3
#
#
#
# Elastic Constant Matrix: (Units=GPa)
#
#
# Indices 1 2 3 4 5 6 
#
# 1 103.5494 27.4802 16.0322 0.0000 0.0000 0.0000
# 2 27.4802 115.1721 13.8487 0.0000 0.0000 0.0000
# 3 16.0322 13.8487 28.1964 0.0000 0.0000 0.0000
# 4 0.0000 0.0000 0.0000 3.5203 0.0000 0.0000
# 5 0.0000 0.0000 0.0000 0.0000 7.2188 0.0000
# 6 0.0000 0.0000 0.0000 0.0000 0.0000 28.3052
#
#
#
# Elastic Compliance Matrix: (Units=1/GPa)
#
#
# Indices 1 2 3 4 5 6 
#
# 1 0.011003 -0.001991 -0.005278 0.000000 0.000000 0.000000
# 2 -0.001991 0.009588 -0.003577 0.000000 0.000000 0.000000
# 3 -0.005278 -0.003577 0.040224 0.000000 0.000000 0.000000
# 4 0.000000 0.000000 0.000000 0.284064 0.000000 0.000000
# 5 0.000000 0.000000 0.000000 0.000000 0.138528 0.000000
# 6 0.000000 0.000000 0.000000 0.000000 0.000000 0.035329
#
#
# Mechanical properties :
#
#
# Convention : Reuss Voigt Hill
#
# Bulk Modulus (GPa) = 25.56114 40.18222 32.87168
# Shear Modulus (GPa) = 9.03394 20.44598 14.73996
#
# Velocity S-wave (km/s) = 2.16082 3.25074 2.76011
# Velocity P-wave (km/s) = 4.40869 5.90404 5.21029
#
# Compressibility (1/GPa) = 0.03912188
#
# Stress axis : x y z
#
# Youngs Moduli (GPa) = 90.88662 104.29974 24.86095
#
# Poissons Ratio (x) = 0.20762 0.13122
# Poissons Ratio (y) = 0.18092 0.08893
# Poissons Ratio (z) = 0.47973 0.37310
#
# Static dielectric constant tensor:
#      x y z
#    x 1.692580 0.000000 0.000000 
#    y 0.000000 1.706290 0.000000 
#    z 0.000000 0.000000 1.685120 
# 
# From -- ./inp_files/36261.got.cif
#   From: 2010.05.17/outbox.cif.g08.bks.cpg/sg21_19_cif.got.tgz:36261.got - 2010.06.03 23:14:55.
