data_PCOD9322619
_publ_section_title
;
Structure prediction by ZEFSAII (Michael W. Deem and Ramdas Pophale) SiO2 
 PCOD9322619
Probable space group: C 2 2 2
;
_chemical_formula_sum "Si O2"
_cell_formula_units_Z 32
_cell_length_a 15.558317
_cell_length_b 11.723170
_cell_length_c 8.901980
_cell_angle_alpha 90.000000
_cell_angle_beta 90.000000
_cell_angle_gamma 90.000000
_cell_volume 1623.657014
_symmetry_space_group_name_H-M "C 2 2 2"
_symmetry_group_IT_number 21
_symmetry_cell_setting 'orthorhombic'
loop_
_space_group_symop_operation_xyz
x,y,z
-x,-y,z
x,-y,-z
-x,y,-z
1/2+x,1/2+y,z
1/2-x,1/2-y,z
1/2+x,1/2-y,-z
1/2-x,1/2+y,-z
loop_
_atom_site_type_symbol
_atom_site_label
_atom_site_fract_x
_atom_site_fract_y
_atom_site_fract_z
Si Si1 0.529418 0.163145 0.174926
Si Si2 0.362132 0.932816 0.754102
Si Si3 0.231772 0.000000 0.500000
Si Si4 0.671092 0.660235 0.748640
Si Si5 0.255601 0.500000 0.000000
O O1 0.439766 0.154389 0.264048
O O2 0.584551 0.272589 0.216124
O O3 0.589297 0.054454 0.218338
O O4 0.500000 0.156029 0.000000
O O5 0.296502 0.939790 0.617546
O O6 0.305901 0.916268 0.903992
O O7 0.176366 0.089810 0.594317
O O8 0.750000 0.750000 0.745950
O O9 0.690466 0.571605 0.881928
#
# Coordination Sequence:
#
# PCOD9322619 Si02
#       5
#     8   8   4   8   4
#     4  11  19  35  68  97 124 160 221 292 331 359
#     4  10  18  36  64  97 125 157 219 279 328 386
#     4  10  22  37  64  96 133 176 214 258 335 412
#     4  11  21  40  63  94 136 173 217 275 330 392
#     4  10  18  37  67  94 124 168 226 274 321 400
#
# _framework density 19.708597000000001
#
# number of rings (size 3 to 8) (size 9 to 14) (size 15 to 20)
#    0.000    1.500    7.500    0.750    0.000    2.000 
#    0.000   10.625    0.000    3.000    0.000    0.000 
#    0.000    0.000    0.000    0.000    0.000    0.000 
#
# Total GULP energy -89333.464696 kJ/mol
# GULP energy per Si atom -5583.341544 kJ/mol
# Density = 1.966374 g / cm^3
# Si number density = 19.708597 Si / 1000 Ang^3
#
#
#
# Elastic Constant Matrix: (Units=GPa)
#
#
# Indices 1 2 3 4 5 6 
#
# 1 102.3906 54.4288 40.2714 0.0000 0.0000 0.0000
# 2 54.4288 88.2438 40.2111 0.0000 0.0000 0.0000
# 3 40.2714 40.2111 104.7699 0.0000 0.0000 0.0000
# 4 0.0000 0.0000 0.0000 21.8133 0.0000 0.0000
# 5 0.0000 0.0000 0.0000 0.0000 7.2512 0.0000
# 6 0.0000 0.0000 0.0000 0.0000 0.0000 47.5836
#
#
#
# Elastic Compliance Matrix: (Units=1/GPa)
#
#
# Indices 1 2 3 4 5 6 
#
# 1 0.015140 -0.008104 -0.002709 0.000000 0.000000 0.000000
# 2 -0.008104 0.018072 -0.003821 0.000000 0.000000 0.000000
# 3 -0.002709 -0.003821 0.012053 0.000000 0.000000 0.000000
# 4 0.000000 0.000000 0.000000 0.045844 0.000000 0.000000
# 5 0.000000 0.000000 0.000000 0.000000 0.137909 0.000000
# 6 0.000000 0.000000 0.000000 0.000000 0.000000 0.021016
#
#
# Mechanical properties :
#
#
# Convention : Reuss Voigt Hill
#
# Bulk Modulus (GPa) = 62.51479 62.80298 62.65889
# Shear Modulus (GPa) = 17.56650 26.02914 21.79782
#
# Velocity S-wave (km/s) = 2.98872 3.63809 3.32927
# Velocity P-wave (km/s) = 6.61047 7.04149 6.82938
#
# Compressibility (1/GPa) = 0.01599621
#
# Stress axis : x y z
#
# Youngs Moduli (GPa) = 66.05073 55.33469 82.96919
#
# Poissons Ratio (x) = 0.44842 0.22478
# Poissons Ratio (y) = 0.53526 0.31704
# Poissons Ratio (z) = 0.17895 0.21144
#
# Static dielectric constant tensor:
#      x y z
#    x 1.696320 0.000000 0.000000 
#    y 0.000000 1.701890 0.000000 
#    z 0.000000 0.000000 1.721850 
# 
# From -- ./inp_files/14053.got.cif
#   From: 2010.05.17/outbox.cif.g08.bks.cpg/sg21_8_cif.got.tgz:14053.got - 2010.06.03 23:14:55.
