data_PCOD9322552
_publ_section_title
;
Structure prediction by ZEFSAII (Michael W. Deem and Ramdas Pophale) SiO2 
 PCOD9322552
Probable space group: C 2 2 2
;
_chemical_formula_sum "Si O2"
_cell_formula_units_Z 60
_cell_length_a 11.769424
_cell_length_b 28.867712
_cell_length_c 7.403757
_cell_angle_alpha 90.000000
_cell_angle_beta 90.000000
_cell_angle_gamma 90.000000
_cell_volume 2515.473399
_symmetry_space_group_name_H-M "C 2 2 2"
_symmetry_group_IT_number 21
_symmetry_cell_setting 'orthorhombic'
loop_
_space_group_symop_operation_xyz
x,y,z
-x,-y,z
x,-y,-z
-x,y,-z
1/2+x,1/2+y,z
1/2-x,1/2-y,z
1/2+x,1/2-y,-z
1/2-x,1/2+y,-z
loop_
_atom_site_type_symbol
_atom_site_label
_atom_site_fract_x
_atom_site_fract_y
_atom_site_fract_z
Si Si1 0.498794 0.726796 0.282130
Si Si2 0.410392 0.179801 0.229054
Si Si3 0.125786 0.489171 0.216183
Si Si4 0.750000 0.750000 0.766805
Si Si5 0.853304 0.342052 0.359215
Si Si6 0.015591 0.882450 0.782964
Si Si7 0.759536 0.399665 0.850764
Si Si8 0.213732 0.929553 0.259829
O O1 0.500000 0.735891 0.500000
O O2 0.590005 0.764658 0.212361
O O3 0.381978 0.740934 0.179420
O O4 0.512094 0.672120 0.261432
O O5 0.541232 0.162614 0.218945
O O6 0.386635 0.166477 0.435688
O O7 0.316444 0.150597 0.123288
O O8 0.152515 0.435143 0.236865
O O9 0.228787 0.520608 0.292854
O O10 0.000000 0.500000 0.286713
O O11 0.122144 0.500000 0.000000
O O12 0.767648 0.700126 0.674403
O O13 0.794587 0.391006 0.344148
O O14 0.143283 0.897836 0.739984
O O15 0.916238 0.914528 0.700314
O O16 0.000000 0.884985 0.000000
O O17 0.727599 0.420558 0.044706
#
# Coordination Sequence:
#
# PCOD9322552 Si02
#       8
#     8   8   8   4   8   8   8   8
#     4  11  21  37  58  80 109 158 197 233 276 341
#     4  10  21  36  53  86 111 146 188 243 278 327
#     4   9  18  35  61  87 109 142 190 234 285 346
#     4  10  18  34  54  76 106 142 196 226 268 334
#     4  10  19  35  56  80 112 143 191 232 279 337
#     4  10  23  38  52  84 121 150 191 235 282 330
#     4  10  22  37  56  85 119 146 189 240 283 336
#     4  10  20  38  60  81 113 156 186 233 286 345
#
# _framework density 23.852367999999998
#
# number of rings (size 3 to 8) (size 9 to 14) (size 15 to 20)
#    0.000    2.000    4.000    0.800    1.867    2.667 
#    4.800    3.333    0.000    2.400    0.000    2.800 
#    0.000    0.000    0.000    0.000    0.000    0.000 
#
# Total GULP energy -167305.093116 kJ/mol
# GULP energy per Si atom -5576.836437 kJ/mol
# Density = 2.379808 g / cm^3
# Si number density = 23.852368 Si / 1000 Ang^3
#
#
#
# Elastic Constant Matrix: (Units=GPa)
#
#
# Indices 1 2 3 4 5 6 
#
# 1 134.3160 49.9654 9.2854 0.0000 0.0000 0.0000
# 2 49.9654 97.2820 5.7137 0.0000 0.0000 0.0000
# 3 9.2854 5.7137 50.1863 0.0000 0.0000 0.0000
# 4 0.0000 0.0000 0.0000 -43.8470 0.0000 0.0000
# 5 0.0000 0.0000 0.0000 0.0000 421.6182 0.0000
# 6 0.0000 0.0000 0.0000 0.0000 0.0000 59.5721
#
#
#
# Elastic Compliance Matrix: (Units=1/GPa)
#
#
# Indices 1 2 3 4 5 6 
#
# 1 0.009273 -0.004693 -0.001181 0.000000 0.000000 0.000000
# 2 -0.004693 0.012724 -0.000580 0.000000 0.000000 0.000000
# 3 -0.001181 -0.000580 0.020210 0.000000 0.000000 0.000000
# 4 0.000000 0.000000 0.000000 -0.022807 0.000000 0.000000
# 5 0.000000 0.000000 0.000000 0.000000 0.002372 0.000000
# 6 0.000000 0.000000 0.000000 0.000000 0.000000 0.016786
#
#
# Mechanical properties :
#
#
# Convention : Reuss Voigt Hill
#
# Bulk Modulus (GPa) = 34.13263 45.74591 39.93927
# Shear Modulus (GPa) = 81.65392 101.92329 91.78861
#
# Velocity S-wave (km/s) = 5.85725 6.54398 6.21011
# Velocity P-wave (km/s) = 7.75140 8.73605 8.25841
#
# Compressibility (1/GPa) = 0.02929748
#
# Stress axis : x y z
#
# Youngs Moduli (GPa) = 107.84395 78.59181 49.47947
#
# Poissons Ratio (x) = 0.36885 0.05845
# Poissons Ratio (y) = 0.50613 0.02871
# Poissons Ratio (z) = 0.12740 0.04561
#
# Static dielectric constant tensor:
#      x y z
#    x 2.538420 0.000000 0.000000 
#    y 0.000000 0.138400 0.000000 
#    z 0.000000 0.000000 1.949990 
# 
# From -- ./inp_files/13549.got.cif
#   From: 2010.05.17/outbox.cif.g08.bks.cpg/sg21_7_cif.got.tgz:13549.got - 2010.06.03 23:14:55.
