data_PCOD9322123
_publ_section_title
;
Structure prediction by ZEFSAII (Michael W. Deem and Ramdas Pophale) SiO2 
 PCOD9322123
Probable space group: C 2 2 21
;
_chemical_formula_sum "Si O2"
_cell_formula_units_Z 32
_cell_length_a 28.490927
_cell_length_b 5.419129
_cell_length_c 8.069366
_cell_angle_alpha 90.000000
_cell_angle_beta 90.000000
_cell_angle_gamma 90.000000
_cell_volume 1245.877903
_symmetry_space_group_name_H-M "C 2 2 21"
_symmetry_group_IT_number 20
_symmetry_cell_setting 'orthorhombic'
loop_
_space_group_symop_operation_xyz
x,y,z
-x,-y,1/2+z
x,-y,-z
-x,y,1/2-z
1/2+x,1/2+y,z
1/2-x,1/2-y,1/2+z
1/2+x,1/2-y,-z
1/2-x,1/2+y,1/2-z
loop_
_atom_site_type_symbol
_atom_site_label
_atom_site_fract_x
_atom_site_fract_y
_atom_site_fract_z
Si Si1 0.649354 0.500000 0.500000
Si Si2 0.278524 0.694305 0.725347
Si Si3 0.906906 0.678668 0.765352
Si Si4 0.000000 0.364266 0.750000
Si Si5 0.165686 0.500000 0.000000
Si Si6 0.956601 0.000000 0.500000
O O1 0.682488 0.395618 0.355760
O O2 0.616350 0.712870 0.427938
O O3 0.242906 0.462345 0.720348
O O4 0.302079 0.769981 0.550766
O O5 0.953522 0.520003 0.784862
O O6 0.867560 0.543197 0.656854
O O7 0.924092 0.899619 0.645979
O O8 0.988487 0.202731 0.588253
#
# Coordination Sequence:
#
# PCOD9322123 Si02
#       6
#     4   8   8   4   4   4
#     4  12  31  53  88 132 168 224 298 362 433 525
#     4  12  30  58  90 128 177 232 292 366 456 530
#     4  12  28  54  81 122 174 223 286 357 427 510
#     4  12  28  54  82 116 174 236 284 352 426 514
#     4  12  27  56  84 121 180 222 289 368 435 516
#     4  12  26  53  78 117 164 236 283 348 426 509
#
# _framework density 25.684702999999999
#
# number of rings (size 3 to 8) (size 9 to 14) (size 15 to 20)
#    0.000    0.000    2.500    4.500    0.000   19.000 
#    4.500    0.000    0.000    0.000    0.000    0.000 
#    0.000    0.000    0.000    0.000    0.000    0.000 
#
# Total GULP energy -89889.630365 kJ/mol
# GULP energy per Si atom -5618.101898 kJ/mol
# Density = 2.562624 g / cm^3
# Si number density = 25.684703 Si / 1000 Ang^3
#
#
#
# Elastic Constant Matrix: (Units=GPa)
#
#
# Indices 1 2 3 4 5 6 
#
# 1 154.1722 77.3177 40.4301 0.0000 0.0000 0.0000
# 2 77.3177 139.4475 19.4274 0.0000 0.0000 0.0000
# 3 40.4301 19.4274 71.7200 0.0000 0.0000 0.0000
# 4 0.0000 0.0000 0.0000 69.8695 0.0000 0.0000
# 5 0.0000 0.0000 0.0000 0.0000 47.5646 0.0000
# 6 0.0000 0.0000 0.0000 0.0000 0.0000 24.1957
#
#
#
# Elastic Compliance Matrix: (Units=1/GPa)
#
#
# Indices 1 2 3 4 5 6 
#
# 1 0.010146 -0.005018 -0.004360 0.000000 0.000000 0.000000
# 2 -0.005018 0.009934 0.000138 0.000000 0.000000 0.000000
# 3 -0.004360 0.000138 0.016364 0.000000 0.000000 0.000000
# 4 0.000000 0.000000 0.000000 0.014312 0.000000 0.000000
# 5 0.000000 0.000000 0.000000 0.000000 0.021024 0.000000
# 6 0.000000 0.000000 0.000000 0.000000 0.000000 0.041330
#
#
# Mechanical properties :
#
#
# Convention : Reuss Voigt Hill
#
# Bulk Modulus (GPa) = 55.66991 71.07669 63.37330
# Shear Modulus (GPa) = 36.34253 43.53693 39.93973
#
# Velocity S-wave (km/s) = 3.76566 4.12157 3.94763
# Velocity P-wave (km/s) = 6.37404 7.09807 6.74577
#
# Compressibility (1/GPa) = 0.01796302
#
# Stress axis : x y z
#
# Youngs Moduli (GPa) = 98.55720 100.66074 61.11051
#
# Poissons Ratio (x) = 0.50514 0.26647
# Poissons Ratio (y) = 0.49459 -0.00843
# Poissons Ratio (z) = 0.42975 -0.01388
#
# Static dielectric constant tensor:
#      x y z
#    x 1.980710 0.000000 0.000000 
#    y 0.000000 2.039020 0.000000 
#    z 0.000000 0.000000 1.978640 
# 
# From -- ./inp_files/11327.got.cif
#   From: 2010.05.17/outbox.cif.g08.bks.cpg/sg20_6_cif.got.tgz:11327.got - 2010.06.03 22:52:26.
