data_PCOD9322789
_publ_section_title
;
Structure prediction by ZEFSAII (Michael W. Deem and Ramdas Pophale) SiO2 
 PCOD9322789
Probable space group: C 2 2 2
;
_chemical_formula_sum "Si O2"
_cell_formula_units_Z 64
_cell_length_a 15.894192
_cell_length_b 8.620390
_cell_length_c 24.512257
_cell_angle_alpha 90.000000
_cell_angle_beta 90.000000
_cell_angle_gamma 90.000000
_cell_volume 3358.525660
_symmetry_space_group_name_H-M "C 2 2 2"
_symmetry_group_IT_number 21
_symmetry_cell_setting 'orthorhombic'
loop_
_space_group_symop_operation_xyz
x,y,z
-x,-y,z
x,-y,-z
-x,y,-z
1/2+x,1/2+y,z
1/2-x,1/2-y,z
1/2+x,1/2-y,-z
1/2-x,1/2+y,-z
loop_
_atom_site_type_symbol
_atom_site_label
_atom_site_fract_x
_atom_site_fract_y
_atom_site_fract_z
Si Si1 0.350008 0.934739 0.441711
Si Si2 0.591263 0.436771 0.939058
Si Si3 0.908737 0.436771 0.939058
Si Si4 0.588781 0.064523 0.671659
Si Si5 0.750000 0.438940 0.866457
Si Si6 0.911219 0.935477 0.328341
Si Si7 0.649992 0.565261 0.558289
Si Si8 0.250000 0.439435 0.258701
O O1 0.360057 0.750000 0.440861
O O2 0.250000 0.970997 0.436830
O O3 0.378874 0.000000 0.500000
O O4 0.395430 0.008237 0.390003
O O5 0.500000 0.500000 0.921756
O O6 0.588302 0.250000 0.941052
O O7 0.666373 0.486224 0.899116
O O8 0.607289 0.500000 0.000000
O O9 0.833627 0.486224 0.899116
O O10 0.000000 0.500000 0.921756
O O11 0.892711 0.500000 0.000000
O O12 0.586952 0.250000 0.672257
O O13 0.666923 0.010666 0.708667
O O14 0.500000 0.000000 0.691556
O O15 0.750000 0.250000 0.865899
O O16 0.750000 0.491454 0.803892
O O17 0.833077 0.989334 0.291333
O O18 0.895430 0.991763 0.390003
O O19 0.000000 0.000000 0.308444
O O20 0.621126 0.500000 0.500000
O O21 0.250000 0.250000 0.258738
#
# Coordination Sequence:
#
# PCOD9322789 Si02
#       8
#     8   8   8   8   8   8   8   8
#     4  10  20  35  58  86 116 146 181 227 279 337
#     4  10  19  33  55  82 115 148 184 226 275 329
#     4  10  19  33  55  82 115 148 184 226 275 329
#     4  11  22  38  60  84 111 147 188 230 281 336
#     4   9  19  35  56  81 109 148 189 229 276 329
#     4  11  22  38  60  84 111 147 188 230 281 336
#     4  10  20  35  58  86 116 146 181 227 279 337
#     4   9  20  39  59  79 110 148 188 231 280 333
#
# _framework density 19.055980999999999
#
# number of rings (size 3 to 8) (size 9 to 14) (size 15 to 20)
#    0.000    2.000    1.250    3.375    0.000    2.500 
#    0.000    4.375    0.000   10.500    0.000    0.000 
#    0.000    0.000    0.000    0.000    0.000    0.000 
#
# Total GULP energy -178772.926250 kJ/mol
# GULP energy per Si atom -5586.653945 kJ/mol
# Density = 1.901261 g / cm^3
# Si number density = 19.055981 Si / 1000 Ang^3
#
#
#
# Elastic Constant Matrix: (Units=GPa)
#
#
# Indices 1 2 3 4 5 6 
#
# 1 175.0127 39.0686 111.3629 0.0000 0.0000 0.0000
# 2 39.0686 33.8109 22.3120 0.0000 0.0000 0.0000
# 3 111.3629 22.3120 140.1854 0.0000 0.0000 0.0000
# 4 0.0000 0.0000 0.0000 17.0689 0.0000 0.0000
# 5 0.0000 0.0000 0.0000 0.0000 0.8783 0.0000
# 6 0.0000 0.0000 0.0000 0.0000 0.0000 24.5375
#
#
#
# Elastic Compliance Matrix: (Units=1/GPa)
#
#
# Indices 1 2 3 4 5 6 
#
# 1 0.013988 -0.009866 -0.009542 0.000000 0.000000 0.000000
# 2 -0.009866 0.040007 0.001470 0.000000 0.000000 0.000000
# 3 -0.009542 0.001470 0.014479 0.000000 0.000000 0.000000
# 4 0.000000 0.000000 0.000000 0.058586 0.000000 0.000000
# 5 0.000000 0.000000 0.000000 0.000000 1.138611 0.000000
# 6 0.000000 0.000000 0.000000 0.000000 0.000000 0.040754
#
#
# Mechanical properties :
#
#
# Convention : Reuss Voigt Hill
#
# Bulk Modulus (GPa) = 30.67630 77.16623 53.92126
# Shear Modulus (GPa) = 3.69504 20.24795 11.97150
#
# Velocity S-wave (km/s) = 1.39401 3.26322 2.50917
# Velocity P-wave (km/s) = 4.32712 7.40139 6.06236
#
# Compressibility (1/GPa) = 0.03259846
#
# Stress axis : x y z
#
# Youngs Moduli (GPa) = 71.49102 24.99584 69.06496
#
# Poissons Ratio (x) = 0.24662 0.65898
# Poissons Ratio (y) = 0.70536 -0.10155
# Poissons Ratio (z) = 0.68213 -0.03675
#
# Static dielectric constant tensor:
#      x y z
#    x 1.672330 0.000000 0.000000 
#    y 0.000000 1.641190 0.000000 
#    z 0.000000 0.000000 1.630000 
# 
# From -- ./inp_files/38748.got.cif
#   From: 2010.05.17/outbox.cif.g08.bks.cpg/sg21_20_cif.got.tgz:38748.got - 2010.06.03 23:14:55.
