data_PCOD9322225
_publ_section_title
;
Structure prediction by ZEFSAII (Michael W. Deem and Ramdas Pophale) SiO2 
 PCOD9322225
Probable space group: C 2 2 21
;
_chemical_formula_sum "Si O2"
_cell_formula_units_Z 32
_cell_length_a 12.000000
_cell_length_b 18.000000
_cell_length_c 15.000000
_cell_angle_alpha 90.000000
_cell_angle_beta 90.000000
_cell_angle_gamma 90.000000
_cell_volume 3240.000000
_symmetry_space_group_name_H-M "C 2 2 21"
_symmetry_group_IT_number 20
_symmetry_cell_setting 'orthorhombic'
loop_
_space_group_symop_operation_xyz
x,y,z
-x,-y,1/2+z
x,-y,-z
-x,y,1/2-z
1/2+x,1/2+y,z
1/2-x,1/2-y,1/2+z
1/2+x,1/2-y,-z
1/2-x,1/2+y,1/2-z
loop_
_atom_site_type_symbol
_atom_site_label
_atom_site_fract_x
_atom_site_fract_y
_atom_site_fract_z
Si Si1 0.587697 0.415290 0.490211
Si Si2 0.487284 0.199078 0.649987
Si Si3 0.736489 0.788313 0.426532
Si Si4 0.488542 0.131697 0.143328
Si Si5 0.951687 0.130758 0.345004
Si Si6 0.972808 0.804364 0.351035
Si Si7 0.671245 0.134506 0.998515
Si Si8 0.763174 0.574163 0.060079
O O1 0.548592 0.500000 0.500000
O O2 0.549151 0.379413 0.582990
O O3 0.524960 0.366014 0.415956
O O4 0.720854 0.414384 0.476008
O O5 0.500000 0.168186 0.750000
O O6 0.612581 0.211114 0.613126
O O7 0.428974 0.280383 0.657559
O O8 0.414359 0.149706 0.582489
O O9 0.769897 0.712628 0.476048
O O10 0.745246 0.856430 0.493699
O O11 0.839018 0.799162 0.358625
O O12 0.500000 0.123062 0.250000
O O13 0.479405 0.221540 0.126245
O O14 0.380211 0.086885 0.110774
O O15 0.596158 0.109556 0.083386
O O16 0.843073 0.084691 0.374888
O O17 0.000000 0.107849 0.250000
O O18 0.000000 0.822057 0.250000
O O19 0.760669 0.500000 0.000000
#
# Coordination Sequence:
#
# PCOD9322225 Si02
#       8
#     8   8   8   8   8   8   8   8
#     4  12  25  42  60  92 134 172 213 261 337 404
#     4  11  23  39  67  99 127 169 222 277 330 394
#     4  11  21  42  63  91 127 165 220 270 332 391
#     4  10  23  42  71  97 124 167 226 278 333 399
#     4  11  24  40  65  94 126 167 217 272 327 395
#     4  10  23  40  69  99 128 170 221 282 335 395
#     4  11  22  41  65  91 130 168 212 277 333 384
#     4  12  24  42  65  93 130 177 221 267 333 406
#
# _framework density 9.8765429999999999
#
# number of rings (size 3 to 8) (size 9 to 14) (size 15 to 20)
#    0.000    1.000    5.000    1.875    3.500    3.000 
#    0.000    0.625    0.000    0.000    0.000    0.000 
#    0.000    0.000    0.000    0.000    0.000    0.000 
#
# Total GULP energy -178766.176350 kJ/mol
# GULP energy per Si atom -5586.443011 kJ/mol
# Density = 0.985406 g / cm^3
# Si number density = 9.876543 Si / 1000 Ang^3
#
#
#
# Elastic Constant Matrix: (Units=GPa)
#
#
# Indices 1 2 3 4 5 6 
#
# 1 127.0498 18.1434 31.1417 0.0000 0.0000 0.0000
# 2 18.1434 43.3442 12.3454 0.0000 0.0000 0.0000
# 3 31.1417 12.3454 97.9029 0.0000 0.0000 0.0000
# 4 0.0000 0.0000 0.0000 8.9163 0.0000 0.0000
# 5 0.0000 0.0000 0.0000 0.0000 30.9651 0.0000
# 6 0.0000 0.0000 0.0000 0.0000 0.0000 29.7464
#
#
#
# Elastic Compliance Matrix: (Units=1/GPa)
#
#
# Indices 1 2 3 4 5 6 
#
# 1 0.008904 -0.003029 -0.002450 0.000000 0.000000 0.000000
# 2 -0.003029 0.024961 -0.002184 0.000000 0.000000 0.000000
# 3 -0.002450 -0.002184 0.011269 0.000000 0.000000 0.000000
# 4 0.000000 0.000000 0.000000 0.112154 0.000000 0.000000
# 5 0.000000 0.000000 0.000000 0.000000 0.032294 0.000000
# 6 0.000000 0.000000 0.000000 0.000000 0.000000 0.033618
#
#
# Mechanical properties :
#
#
# Convention : Reuss Voigt Hill
#
# Bulk Modulus (GPa) = 33.54893 43.50642 38.52767
# Shear Modulus (GPa) = 20.12372 27.70332 23.91352
#
# Velocity S-wave (km/s) = 3.19527 3.74903 3.48317
# Velocity P-wave (km/s) = 5.53480 6.38853 5.97693
#
# Compressibility (1/GPa) = 0.02980721
#
# Stress axis : x y z
#
# Youngs Moduli (GPa) = 112.30745 40.06218 88.73891
#
# Poissons Ratio (x) = 0.12136 0.21744
# Poissons Ratio (y) = 0.34021 0.19381
# Poissons Ratio (z) = 0.27519 0.08750
#
# Static dielectric constant tensor:
#      x y z
#    x 1.726350 0.000000 0.000000 
#    y 0.000000 1.721530 0.000000 
#    z 0.000000 0.000000 1.666240 
# 
# From -- ./inp_files/20277.got.cif
#   From: 2010.05.17/outbox.ucp.g08.bks.cvg/sg20_11_cif.got.tgz:20277.got - 2010.06.11 15:13:06.
