data_PCOD9322600
_publ_section_title
;
Structure prediction by ZEFSAII (Michael W. Deem and Ramdas Pophale) SiO2 
 PCOD9322600
Probable space group: C 2 2 2
;
_chemical_formula_sum "Si O2"
_cell_formula_units_Z 64
_cell_length_a 20.480268
_cell_length_b 9.902058
_cell_length_c 15.845257
_cell_angle_alpha 90.000000
_cell_angle_beta 90.000000
_cell_angle_gamma 90.000000
_cell_volume 3213.367440
_symmetry_space_group_name_H-M "C 2 2 2"
_symmetry_group_IT_number 21
_symmetry_cell_setting 'orthorhombic'
loop_
_space_group_symop_operation_xyz
x,y,z
-x,-y,z
x,-y,-z
-x,y,-z
1/2+x,1/2+y,z
1/2-x,1/2-y,z
1/2+x,1/2-y,-z
1/2-x,1/2+y,-z
loop_
_atom_site_type_symbol
_atom_site_label
_atom_site_fract_x
_atom_site_fract_y
_atom_site_fract_z
Si Si1 0.737692 0.399278 0.071864
Si Si2 0.951656 0.282957 0.267649
Si Si3 0.145035 0.535905 0.186451
Si Si4 0.066252 0.651673 0.462063
Si Si5 0.893465 0.254737 0.747284
Si Si6 0.682484 0.171772 0.575307
Si Si7 0.853083 0.044749 0.231670
Si Si8 0.234657 0.596516 0.347235
O O1 0.750000 0.250000 0.038230
O O2 0.808182 0.443025 0.107841
O O3 0.687253 0.400570 0.150724
O O4 0.714656 0.500000 0.000000
O O5 0.922640 0.384576 0.197466
O O6 0.937187 0.341848 0.361452
O O7 0.912666 0.143367 0.254263
O O8 0.028876 0.265655 0.262155
O O9 0.132281 0.378131 0.196988
O O10 0.186621 0.595663 0.266039
O O11 0.066221 0.500000 0.500000
O O12 0.133528 0.707479 0.499157
O O13 0.000000 0.716813 0.500000
O O14 0.857873 0.281782 0.657917
O O15 0.875161 0.108335 0.782088
O O16 0.750000 0.250000 0.569877
O O17 0.702702 0.014244 0.591006
O O18 0.802920 0.042576 0.310158
O O19 0.250000 0.750000 0.374262
#
# Coordination Sequence:
#
# PCOD9322600 Si02
#       8
#     8   8   8   8   8   8   8   8
#     4  11  24  44  73 108 141 174 218 282 353 420
#     4  12  22  43  67  90 138 184 233 286 339 426
#     4  10  21  38  67  98 128 170 226 269 329 410
#     4  11  24  41  63  92 131 178 236 294 353 396
#     4  11  23  37  68  98 127 180 229 282 331 401
#     4  11  22  42  59  92 127 165 232 287 344 403
#     4  11  22  41  66  99 136 172 225 273 344 425
#     4  10  18  35  64  87 123 164 212 280 330 394
#
# _framework density 19.916802000000001
#
# number of rings (size 3 to 8) (size 9 to 14) (size 15 to 20)
#    0.000    1.125    5.000    3.000    3.500    0.000 
#    6.750    0.625    0.000    4.500    0.000    0.000 
#    0.000    0.000    0.000    0.000    0.000    0.000 
#
# Total GULP energy -178802.631058 kJ/mol
# GULP energy per Si atom -5587.582221 kJ/mol
# Density = 1.987147 g / cm^3
# Si number density = 19.916802 Si / 1000 Ang^3
#
#
#
# Elastic Constant Matrix: (Units=GPa)
#
#
# Indices 1 2 3 4 5 6 
#
# 1 138.6529 31.6165 16.6382 0.0000 0.0000 0.0000
# 2 31.6165 126.5004 10.5558 0.0000 0.0000 0.0000
# 3 16.6382 10.5558 47.7611 0.0000 0.0000 0.0000
# 4 0.0000 0.0000 0.0000 12.3361 0.0000 0.0000
# 5 0.0000 0.0000 0.0000 0.0000 8.0057 0.0000
# 6 0.0000 0.0000 0.0000 0.0000 0.0000 29.5339
#
#
#
# Elastic Compliance Matrix: (Units=1/GPa)
#
#
# Indices 1 2 3 4 5 6 
#
# 1 0.007901 -0.001778 -0.002359 0.000000 0.000000 0.000000
# 2 -0.001778 0.008454 -0.001249 0.000000 0.000000 0.000000
# 3 -0.002359 -0.001249 0.022036 0.000000 0.000000 0.000000
# 4 0.000000 0.000000 0.000000 0.081063 0.000000 0.000000
# 5 0.000000 0.000000 0.000000 0.000000 0.124910 0.000000
# 6 0.000000 0.000000 0.000000 0.000000 0.000000 0.033859
#
#
# Mechanical properties :
#
#
# Convention : Reuss Voigt Hill
#
# Bulk Modulus (GPa) = 36.20899 47.83728 42.02313
# Shear Modulus (GPa) = 16.76722 26.91541 21.84132
#
# Velocity S-wave (km/s) = 2.90464 3.68012 3.31513
# Velocity P-wave (km/s) = 5.42852 6.49064 5.98319
#
# Compressibility (1/GPa) = 0.02761745
#
# Stress axis : x y z
#
# Youngs Moduli (GPa) = 126.57007 118.29187 45.38126
#
# Poissons Ratio (x) = 0.21030 0.10707
# Poissons Ratio (y) = 0.22501 0.05668
# Poissons Ratio (z) = 0.29863 0.14775
#
# Static dielectric constant tensor:
#      x y z
#    x 1.727950 0.000000 0.000000 
#    y 0.000000 1.742750 0.000000 
#    z 0.000000 0.000000 1.703260 
# 
# From -- ./inp_files/37050.got.cif
#   From: 2010.05.17/outbox.cif.g08.bks.cpg/sg21_19_cif.got.tgz:37050.got - 2010.06.03 23:14:55.
