data_PCOD9322929
_publ_section_title
;
Structure prediction by ZEFSAII (Michael W. Deem and Ramdas Pophale) SiO2 
 PCOD9322929
Probable space group: C 2 2 2
;
_chemical_formula_sum "Si O2"
_cell_formula_units_Z 64
_cell_length_a 32.065785
_cell_length_b 8.158108
_cell_length_c 11.370491
_cell_angle_alpha 90.000000
_cell_angle_beta 90.000000
_cell_angle_gamma 90.000000
_cell_volume 2974.476523
_symmetry_space_group_name_H-M "C 2 2 2"
_symmetry_group_IT_number 21
_symmetry_cell_setting 'orthorhombic'
loop_
_space_group_symop_operation_xyz
x,y,z
-x,-y,z
x,-y,-z
-x,y,-z
1/2+x,1/2+y,z
1/2-x,1/2-y,z
1/2+x,1/2-y,-z
1/2-x,1/2+y,-z
loop_
_atom_site_type_symbol
_atom_site_label
_atom_site_fract_x
_atom_site_fract_y
_atom_site_fract_z
Si Si1 0.204573 0.308164 0.024195
Si Si2 0.679238 0.797633 0.287579
Si Si3 0.010717 0.195653 0.370797
Si Si4 0.364174 0.899855 0.378819
Si Si5 0.594865 0.647272 0.258525
Si Si6 0.792012 0.809320 0.528429
Si Si7 0.887721 0.803524 0.999608
Si Si8 0.432545 0.733461 0.230508
O O1 0.250000 0.250000 0.980385
O O2 0.201318 0.269173 0.164003
O O3 0.202420 0.500000 0.000000
O O4 0.161050 0.234229 0.975547
O O5 0.641452 0.668520 0.306933
O O6 0.706619 0.787124 0.404007
O O7 0.657987 0.975564 0.289092
O O8 0.058887 0.222075 0.339530
O O9 0.000000 0.262176 0.500000
O O10 0.980533 0.254900 0.266137
O O11 0.000000 0.000000 0.375915
O O12 0.332772 0.750374 0.403369
O O13 0.406276 0.835090 0.324238
O O14 0.369842 0.000000 0.500000
O O15 0.581278 0.457991 0.244973
O O16 0.598459 0.738020 0.132327
O O17 0.750000 0.750000 0.592000
O O18 0.791324 0.000000 0.500000
O O19 0.917253 0.726663 0.900756
O O20 0.891817 0.000000 0.000000
#
# Coordination Sequence:
#
# PCOD9322929 Si02
#       8
#     8   8   8   8   8   8   8   8
#     4  11  22  37  58  84 113 152 192 241 291 340
#     4  10  21  38  58  80 116 149 192 240 291 347
#     4   9  19  32  54  87 118 149 192 240 294 354
#     4  10  22  36  55  83 113 151 193 235 290 351
#     4   9  19  35  58  85 112 153 194 240 294 348
#     4  11  22  38  58  82 112 149 190 234 286 347
#     4   9  19  36  58  84 114 150 198 241 290 351
#     4  10  19  36  57  82 116 153 192 241 295 347
#
# _framework density 21.516390000000001
#
# number of rings (size 3 to 8) (size 9 to 14) (size 15 to 20)
#    0.000    2.125    0.000    3.375    3.500    0.500 
#    0.000    9.375    0.000    0.000    0.000    2.625 
#    0.000    0.000    0.000    0.000    0.000    0.000 
#
# Total GULP energy -178623.015540 kJ/mol
# GULP energy per Si atom -5581.969236 kJ/mol
# Density = 2.146742 g / cm^3
# Si number density = 21.516390 Si / 1000 Ang^3
#
#
#
# Elastic Constant Matrix: (Units=GPa)
#
#
# Indices 1 2 3 4 5 6 
#
# 1 82.5026 -3.6949 30.5388 0.0000 0.0000 0.0000
# 2 -3.6949 48.4279 -8.3734 0.0000 0.0000 0.0000
# 3 30.5388 -8.3734 64.7352 0.0000 0.0000 0.0000
# 4 0.0000 0.0000 0.0000 14.3326 0.0000 0.0000
# 5 0.0000 0.0000 0.0000 0.0000 24.0909 0.0000
# 6 0.0000 0.0000 0.0000 0.0000 0.0000 13.8256
#
#
#
# Elastic Compliance Matrix: (Units=1/GPa)
#
#
# Indices 1 2 3 4 5 6 
#
# 1 0.014685 -0.000079 -0.006938 0.000000 0.000000 0.000000
# 2 -0.000079 0.021122 0.002769 0.000000 0.000000 0.000000
# 3 -0.006938 0.002769 0.019079 0.000000 0.000000 0.000000
# 4 0.000000 0.000000 0.000000 0.069771 0.000000 0.000000
# 5 0.000000 0.000000 0.000000 0.000000 0.041509 0.000000
# 6 0.000000 0.000000 0.000000 0.000000 0.000000 0.072330
#
#
# Mechanical properties :
#
#
# Convention : Reuss Voigt Hill
#
# Bulk Modulus (GPa) = 21.55603 25.84518 23.70061
# Shear Modulus (GPa) = 19.05081 22.26282 20.65682
#
# Velocity S-wave (km/s) = 2.97881 3.22015 3.10183
# Velocity P-wave (km/s) = 4.67667 5.08564 4.88544
#
# Compressibility (1/GPa) = 0.04639073
#
# Stress axis : x y z
#
# Youngs Moduli (GPa) = 68.09452 47.34387 52.41414
#
# Poissons Ratio (x) = 0.00375 0.36365
# Poissons Ratio (y) = 0.00539 -0.14516
# Poissons Ratio (z) = 0.47245 -0.13112
#
# Static dielectric constant tensor:
#      x y z
#    x 1.767680 0.000000 0.000000 
#    y 0.000000 1.793990 0.000000 
#    z 0.000000 0.000000 1.819530 
# 
# From -- ./inp_files/28107.got.cif
#   From: 2010.05.17/outbox.cif.g08.bks.cpg/sg21_15_cif.got.tgz:28107.got - 2010.06.03 23:14:55.
