data_PCOD9322998
_publ_section_title
;
Structure prediction by ZEFSAII (Michael W. Deem and Ramdas Pophale) SiO2 
 PCOD9322998
Probable space group: C 2 2 2
;
_chemical_formula_sum "Si O2"
_cell_formula_units_Z 44
_cell_length_a 9.598637
_cell_length_b 29.057753
_cell_length_c 8.075544
_cell_angle_alpha 90.000000
_cell_angle_beta 90.000000
_cell_angle_gamma 90.000000
_cell_volume 2252.388926
_symmetry_space_group_name_H-M "C 2 2 2"
_symmetry_group_IT_number 21
_symmetry_cell_setting 'orthorhombic'
loop_
_space_group_symop_operation_xyz
x,y,z
-x,-y,z
x,-y,-z
-x,y,-z
1/2+x,1/2+y,z
1/2-x,1/2-y,z
1/2+x,1/2-y,-z
1/2-x,1/2+y,-z
loop_
_atom_site_type_symbol
_atom_site_label
_atom_site_fract_x
_atom_site_fract_y
_atom_site_fract_z
Si Si1 0.345233 0.342108 0.436625
Si Si2 0.250000 0.250000 0.613495
Si Si3 0.162153 0.448414 0.951037
Si Si4 0.395057 0.814058 0.150532
Si Si5 0.160220 0.138150 0.052569
Si Si6 0.117500 0.400627 0.625025
O O1 0.500000 0.351887 0.500000
O O2 0.302190 0.292131 0.504056
O O3 0.333716 0.344394 0.239757
O O4 0.242149 0.378720 0.520606
O O5 0.370462 0.229284 0.731588
O O6 0.168034 0.438445 0.755124
O O7 0.200740 0.500000 0.000000
O O8 0.259333 0.410460 0.036723
O O9 0.000000 0.441279 0.000000
O O10 0.440061 0.857780 0.262809
O O11 0.500000 0.806558 0.000000
O O12 0.246413 0.828636 0.071010
O O13 0.000000 0.134124 0.000000
O O14 0.000000 0.417346 0.500000
#
# Coordination Sequence:
#
# PCOD9322998 Si02
#       6
#     8   4   8   8   8   8
#     4  11  23  39  57  83 117 153 194 241 288 338
#     4  10  24  36  54  86 116 148 198 250 288 330
#     4  10  21  39  62  90 119 150 189 233 282 346
#     4  10  21  38  58  83 115 155 197 240 291 347
#     4  11  22  40  62  83 114 157 193 234 292 352
#     4  10  19  37  62  87 115 151 189 233 287 340
#
# _framework density 19.534814999999998
#
# number of rings (size 3 to 8) (size 9 to 14) (size 15 to 20)
#    0.000    1.636    0.000    7.636    0.000    7.636 
#    0.000    6.364    0.000    1.091    0.000    0.000 
#    0.000    0.000    0.000    0.000    0.000    0.000 
#
# Total GULP energy -123020.810449 kJ/mol
# GULP energy per Si atom -5591.855020 kJ/mol
# Density = 1.949035 g / cm^3
# Si number density = 19.534815 Si / 1000 Ang^3
#
#
#
# Elastic Constant Matrix: (Units=GPa)
#
#
# Indices 1 2 3 4 5 6 
#
# 1 102.4435 37.8909 27.8696 0.0000 0.0000 0.0000
# 2 37.8909 96.4528 53.1346 0.0000 0.0000 0.0000
# 3 27.8696 53.1346 127.6992 0.0000 0.0000 0.0000
# 4 0.0000 0.0000 0.0000 5.6318 0.0000 0.0000
# 5 0.0000 0.0000 0.0000 0.0000 35.4842 0.0000
# 6 0.0000 0.0000 0.0000 0.0000 0.0000 10.4504
#
#
#
# Elastic Compliance Matrix: (Units=1/GPa)
#
#
# Indices 1 2 3 4 5 6 
#
# 1 0.011486 -0.004063 -0.000816 0.000000 0.000000 0.000000
# 2 -0.004063 0.014888 -0.005308 0.000000 0.000000 0.000000
# 3 -0.000816 -0.005308 0.010218 0.000000 0.000000 0.000000
# 4 0.000000 0.000000 0.000000 0.177562 0.000000 0.000000
# 5 0.000000 0.000000 0.000000 0.000000 0.028182 0.000000
# 6 0.000000 0.000000 0.000000 0.000000 0.000000 0.095690
#
#
# Mechanical properties :
#
#
# Convention : Reuss Voigt Hill
#
# Bulk Modulus (GPa) = 61.66091 62.70949 62.18520
# Shear Modulus (GPa) = 13.74360 24.15998 18.95179
#
# Velocity S-wave (km/s) = 2.65532 3.52058 3.11811
# Velocity P-wave (km/s) = 6.40579 6.97833 6.69818
#
# Compressibility (1/GPa) = 0.01621773
#
# Stress axis : x y z
#
# Youngs Moduli (GPa) = 87.06104 67.16880 97.86906
#
# Poissons Ratio (x) = 0.27288 0.07990
# Poissons Ratio (y) = 0.35369 0.51950
# Poissons Ratio (z) = 0.07108 0.35654
#
# Static dielectric constant tensor:
#      x y z
#    x 1.682340 0.000000 0.000000 
#    y 0.000000 1.671220 0.000000 
#    z 0.000000 0.000000 1.685400 
# 
# From -- ./inp_files/11402.got.cif
#   From: 2010.05.17/outbox.cif.g08.bks.cpg/sg21_6_cif.got.tgz:11402.got - 2010.06.03 23:14:55.
