data_PCOD9322880
_publ_section_title
;
Structure prediction by ZEFSAII (Michael W. Deem and Ramdas Pophale) SiO2 
 PCOD9322880
Probable space group: C 2 2 2
;
_chemical_formula_sum "Si O2"
_cell_formula_units_Z 64
_cell_length_a 8.051302
_cell_length_b 24.791342
_cell_length_c 15.049111
_cell_angle_alpha 90.000000
_cell_angle_beta 90.000000
_cell_angle_gamma 90.000000
_cell_volume 3003.841404
_symmetry_space_group_name_H-M "C 2 2 2"
_symmetry_group_IT_number 21
_symmetry_cell_setting 'orthorhombic'
loop_
_space_group_symop_operation_xyz
x,y,z
-x,-y,z
x,-y,-z
-x,y,-z
1/2+x,1/2+y,z
1/2-x,1/2-y,z
1/2+x,1/2-y,-z
1/2-x,1/2+y,-z
loop_
_atom_site_type_symbol
_atom_site_label
_atom_site_fract_x
_atom_site_fract_y
_atom_site_fract_z
Si Si1 0.096615 0.328433 0.712701
Si Si2 0.228961 0.130186 0.351797
Si Si3 0.352161 0.304197 0.067258
Si Si4 0.766456 0.539985 0.210059
Si Si5 0.695355 0.415965 0.979877
Si Si6 0.194556 0.312168 0.521080
Si Si7 0.571505 0.719712 0.254963
Si Si8 0.650502 0.071812 0.171925
O O1 0.207703 0.326209 0.624611
O O2 0.169179 0.368430 0.787165
O O3 0.912261 0.350274 0.683868
O O4 0.061844 0.266953 0.741640
O O5 0.204321 0.075821 0.293535
O O6 0.238160 0.139897 0.457735
O O7 0.088125 0.173839 0.327469
O O8 0.250000 0.250000 0.069013
O O9 0.242829 0.355850 0.044270
O O10 0.432009 0.312121 0.163188
O O11 0.500000 0.297305 0.000000
O O12 0.694620 0.551408 0.111946
O O13 0.752663 0.475754 0.223809
O O14 0.958599 0.556602 0.190348
O O15 0.500000 0.411476 0.000000
O O16 0.796437 0.432581 0.068113
O O17 0.250000 0.250000 0.502932
O O18 0.000000 0.310009 0.500000
O O19 0.750000 0.750000 0.259647
#
# Coordination Sequence:
#
# PCOD9322880 Si02
#       8
#     8   8   8   8   8   8   8   8
#     4   9  19  33  53  82 113 143 178 230 285 337
#     4   9  16  32  58  79 110 142 183 229 277 345
#     4  10  22  34  51  80 113 147 188 227 281 345
#     4  10  20  38  59  84 103 148 202 240 285 338
#     4  11  23  39  54  81 115 150 191 238 286 344
#     4  10  19  35  56  84 112 144 181 224 286 349
#     4   9  16  32  53  77 107 149 181 217 277 346
#     4  10  22  37  58  80 113 148 194 244 285 336
#
# _framework density 21.306049999999999
#
# number of rings (size 3 to 8) (size 9 to 14) (size 15 to 20)
#    0.000    2.250    1.250    2.625    3.500    2.000 
#    4.500    0.625    0.000    3.750    0.000    0.000 
#    0.000    3.250    0.000    0.000    0.000    0.000 
#
# Total GULP energy -178279.860606 kJ/mol
# GULP energy per Si atom -5571.245644 kJ/mol
# Density = 2.125756 g / cm^3
# Si number density = 21.306050 Si / 1000 Ang^3
#
#
#
# Elastic Constant Matrix: (Units=GPa)
#
#
# Indices 1 2 3 4 5 6 
#
# 1 34.8720 18.4045 12.0154 0.0000 0.0000 0.0000
# 2 18.4045 120.7172 41.9956 0.0000 0.0000 0.0000
# 3 12.0154 41.9956 90.6907 0.0000 0.0000 0.0000
# 4 0.0000 0.0000 0.0000 42.5668 0.0000 0.0000
# 5 0.0000 0.0000 0.0000 0.0000 12.1085 0.0000
# 6 0.0000 0.0000 0.0000 0.0000 0.0000 7.9186
#
#
#
# Elastic Compliance Matrix: (Units=1/GPa)
#
#
# Indices 1 2 3 4 5 6 
#
# 1 0.031594 -0.004006 -0.002331 0.000000 0.000000 0.000000
# 2 -0.004006 0.010382 -0.004277 0.000000 0.000000 0.000000
# 3 -0.002331 -0.004277 0.013316 0.000000 0.000000 0.000000
# 4 0.000000 0.000000 0.000000 0.023493 0.000000 0.000000
# 5 0.000000 0.000000 0.000000 0.000000 0.082587 0.000000
# 6 0.000000 0.000000 0.000000 0.000000 0.000000 0.126284
#
#
# Mechanical properties :
#
#
# Convention : Reuss Voigt Hill
#
# Bulk Modulus (GPa) = 29.35609 43.45679 36.40644
# Shear Modulus (GPa) = 15.61339 24.10973 19.86156
#
# Velocity S-wave (km/s) = 2.70999 3.36756 3.05651
# Velocity P-wave (km/s) = 4.85801 5.96334 5.43883
#
# Compressibility (1/GPa) = 0.03406448
#
# Stress axis : x y z
#
# Youngs Moduli (GPa) = 31.65198 96.31618 75.09861
#
# Poissons Ratio (x) = 0.38583 0.17504
# Poissons Ratio (y) = 0.12680 0.32120
# Poissons Ratio (z) = 0.07377 0.41195
#
# Static dielectric constant tensor:
#      x y z
#    x 1.605530 0.000000 0.000000 
#    y 0.000000 1.833110 0.000000 
#    z 0.000000 0.000000 1.900790 
# 
# From -- ./inp_files/30922.got.cif
#   From: 2010.05.17/outbox.cif.g08.bks.cpg/sg21_16_cif.got.tgz:30922.got - 2010.06.03 23:14:55.
