data_PCOD9322332
_publ_section_title
;
Structure prediction by ZEFSAII (Michael W. Deem and Ramdas Pophale) SiO2 
 PCOD9322332
Probable space group: C 2 2 2
;
_chemical_formula_sum "Si O2"
_cell_formula_units_Z 32
_cell_length_a 14.400475
_cell_length_b 5.156178
_cell_length_c 18.557312
_cell_angle_alpha 90.000000
_cell_angle_beta 90.000000
_cell_angle_gamma 90.000000
_cell_volume 1377.906626
_symmetry_space_group_name_H-M "C 2 2 2"
_symmetry_group_IT_number 21
_symmetry_cell_setting 'orthorhombic'
loop_
_space_group_symop_operation_xyz
x,y,z
-x,-y,z
x,-y,-z
-x,y,-z
1/2+x,1/2+y,z
1/2-x,1/2-y,z
1/2+x,1/2-y,-z
1/2-x,1/2+y,-z
loop_
_atom_site_type_symbol
_atom_site_label
_atom_site_fract_x
_atom_site_fract_y
_atom_site_fract_z
Si Si1 0.394458 0.255202 0.533333
Si Si2 0.636837 0.243802 0.955801
Si Si3 0.063530 0.751224 0.301200
Si Si4 0.191510 0.496090 0.818389
O O1 0.346773 0.500000 0.500000
O O2 0.500000 0.254582 0.500000
O O3 0.396309 0.285926 0.618778
O O4 0.353331 0.000000 0.500000
O O5 0.750000 0.250000 0.955809
O O6 0.621718 0.148943 0.873240
O O7 0.607182 0.500000 0.000000
O O8 0.603778 0.000000 0.000000
O O9 0.139562 0.666220 0.242970
O O10 0.000000 0.500000 0.307682
O O11 0.000000 0.000000 0.281996
O O12 0.250000 0.750000 0.791215
O O13 0.250000 0.250000 0.854946
#
# Coordination Sequence:
#
# PCOD9322332 Si02
#       4
#     8   8   8   8
#     4  10  16  31  54  85 112 149 214 277 296 340
#     4   9  16  30  55  82 108 148 204 248 291 365
#     4  12  22  36  61  93 122 165 218 269 317 384
#     4  11  23  39  58  91 134 164 196 269 343 385
#
# _framework density 23.223635000000002
#
# number of rings (size 3 to 8) (size 9 to 14) (size 15 to 20)
#    0.000    1.500    5.000    5.250    0.000    0.000 
#    0.000    0.000    0.000    3.750    0.000   21.000 
#    0.000    0.000    0.000    0.000    0.000    0.000 
#
# Total GULP energy -89097.280394 kJ/mol
# GULP energy per Si atom -5568.580025 kJ/mol
# Density = 2.317078 g / cm^3
# Si number density = 23.223635 Si / 1000 Ang^3
#
#
#
# Elastic Constant Matrix: (Units=GPa)
#
#
# Indices 1 2 3 4 5 6 
#
# 1 68.3921 34.1041 37.1512 0.0000 0.0000 0.0000
# 2 34.1041 266.9869 68.0413 0.0000 0.0000 0.0000
# 3 37.1512 68.0413 172.8138 0.0000 0.0000 0.0000
# 4 0.0000 0.0000 0.0000 57.7790 0.0000 0.0000
# 5 0.0000 0.0000 0.0000 0.0000 5.9832 0.0000
# 6 0.0000 0.0000 0.0000 0.0000 0.0000 3.1871
#
#
#
# Elastic Compliance Matrix: (Units=1/GPa)
#
#
# Indices 1 2 3 4 5 6 
#
# 1 0.016999 -0.001378 -0.003112 0.000000 0.000000 0.000000
# 2 -0.001378 0.004275 -0.001387 0.000000 0.000000 0.000000
# 3 -0.003112 -0.001387 0.007002 0.000000 0.000000 0.000000
# 4 0.000000 0.000000 0.000000 0.017307 0.000000 0.000000
# 5 0.000000 0.000000 0.000000 0.000000 0.167135 0.000000
# 6 0.000000 0.000000 0.000000 0.000000 0.000000 0.313761
#
#
# Mechanical properties :
#
#
# Convention : Reuss Voigt Hill
#
# Bulk Modulus (GPa) = 60.52610 87.42069 73.97339
# Shear Modulus (GPa) = 9.19556 37.98294 23.58925
#
# Velocity S-wave (km/s) = 1.99203 4.04856 3.19053
# Velocity P-wave (km/s) = 5.60444 7.71875 6.74496
#
# Compressibility (1/GPa) = 0.01652180
#
# Stress axis : x y z
#
# Youngs Moduli (GPa) = 58.82614 233.91732 142.82498
#
# Poissons Ratio (x) = 0.32243 0.44444
# Poissons Ratio (y) = 0.08109 0.19808
# Poissons Ratio (z) = 0.18305 0.32441
#
# Static dielectric constant tensor:
#      x y z
#    x 1.877130 0.000000 0.000000 
#    y 0.000000 1.868290 0.000000 
#    z 0.000000 0.000000 1.927700 
# 
# From -- ./inp_files/32598.got.cif
#   From: 2010.05.17/outbox.cif.g08.bks.cpg/sg21_17_cif.got.tgz:32598.got - 2010.06.03 23:14:55.
