data_PCOD9322737
_publ_section_title
;
Structure prediction by ZEFSAII (Michael W. Deem and Ramdas Pophale) SiO2 
 PCOD9322737
Probable space group: C 2 2 2
;
_chemical_formula_sum "Si O2"
_cell_formula_units_Z 60
_cell_length_a 22.717479
_cell_length_b 23.026768
_cell_length_c 6.056086
_cell_angle_alpha 90.000000
_cell_angle_beta 90.000000
_cell_angle_gamma 90.000000
_cell_volume 3167.999865
_symmetry_space_group_name_H-M "C 2 2 2"
_symmetry_group_IT_number 21
_symmetry_cell_setting 'orthorhombic'
loop_
_space_group_symop_operation_xyz
x,y,z
-x,-y,z
x,-y,-z
-x,y,-z
1/2+x,1/2+y,z
1/2-x,1/2-y,z
1/2+x,1/2-y,-z
1/2-x,1/2+y,-z
loop_
_atom_site_type_symbol
_atom_site_label
_atom_site_fract_x
_atom_site_fract_y
_atom_site_fract_z
Si Si1 0.645083 0.684971 0.869131
Si Si2 0.014938 0.652377 0.241213
Si Si3 0.144375 0.694653 0.365106
Si Si4 0.916679 0.252893 0.737693
Si Si5 0.737545 0.500000 0.000000
Si Si6 0.250231 0.889944 0.249097
Si Si7 0.164146 0.058470 0.380992
Si Si8 0.065677 0.137420 0.511832
O O1 0.660885 0.740650 0.716629
O O2 0.704308 0.647699 0.898632
O O3 0.597817 0.642804 0.748489
O O4 0.614008 0.716823 0.070950
O O5 0.083364 0.671701 0.254659
O O6 0.000000 0.630212 0.500000
O O7 0.973559 0.708826 0.217207
O O8 0.000000 0.621150 0.000000
O O9 0.129473 0.703648 0.622591
O O10 0.195963 0.650210 0.316491
O O11 0.936130 0.203727 0.566508
O O12 0.770845 0.550522 0.868019
O O13 0.696221 0.464592 0.833823
O O14 0.211824 0.910228 0.460565
O O15 0.109851 0.101601 0.356945
O O16 0.142087 0.000000 0.500000
O O17 0.000000 0.113595 0.500000
#
# Coordination Sequence:
#
# PCOD9322737 Si02
#       8
#     8   8   8   8   4   8   8   8
#     4  10  19  34  52  78 118 154 182 227 284 355
#     4  10  19  34  55  80 120 159 192 230 284 356
#     4  10  20  33  52  82 115 147 189 236 285 355
#     4  10  19  32  52  76 116 155 187 221 278 358
#     4  10  20  40  60  75 103 148 196 242 304 348
#     4  10  21  36  56  81 111 146 193 244 297 346
#     4   9  20  38  55  72 103 142 189 248 296 347
#     4  10  20  31  51  79 106 147 191 231 284 336
#
# _framework density 18.939395000000001
#
# number of rings (size 3 to 8) (size 9 to 14) (size 15 to 20)
#    0.000    2.133    1.333    3.200    0.000    1.333 
#    0.000    4.000    0.000    7.200    0.000    0.467 
#    0.000    0.000    0.000    0.000    0.000    0.000 
#
# Total GULP energy -167011.701075 kJ/mol
# GULP energy per Si atom -5567.056702 kJ/mol
# Density = 1.889629 g / cm^3
# Si number density = 18.939395 Si / 1000 Ang^3
#
#
#
# Elastic Constant Matrix: (Units=GPa)
#
#
# Indices 1 2 3 4 5 6 
#
# 1 95.8510 46.3354 14.0451 0.0000 0.0000 0.0000
# 2 46.3354 70.9323 10.5332 0.0000 0.0000 0.0000
# 3 14.0451 10.5332 64.6701 0.0000 0.0000 0.0000
# 4 0.0000 0.0000 0.0000 23.5365 0.0000 0.0000
# 5 0.0000 0.0000 0.0000 0.0000 11.9188 0.0000
# 6 0.0000 0.0000 0.0000 0.0000 0.0000 14.7606
#
#
#
# Elastic Compliance Matrix: (Units=1/GPa)
#
#
# Indices 1 2 3 4 5 6 
#
# 1 0.015439 -0.009825 -0.001753 0.000000 0.000000 0.000000
# 2 -0.009825 0.020700 -0.001238 0.000000 0.000000 0.000000
# 3 -0.001753 -0.001238 0.016045 0.000000 0.000000 0.000000
# 4 0.000000 0.000000 0.000000 0.042487 0.000000 0.000000
# 5 0.000000 0.000000 0.000000 0.000000 0.083901 0.000000
# 6 0.000000 0.000000 0.000000 0.000000 0.000000 0.067748
#
#
# Mechanical properties :
#
#
# Convention : Reuss Voigt Hill
#
# Bulk Modulus (GPa) = 37.66027 41.47563 39.56795
# Shear Modulus (GPa) = 17.80608 20.74585 19.27596
#
# Velocity S-wave (km/s) = 3.06953 3.31324 3.19371
# Velocity P-wave (km/s) = 5.70004 6.04843 5.87682
#
# Compressibility (1/GPa) = 0.02655318
#
# Stress axis : x y z
#
# Youngs Moduli (GPa) = 64.76981 48.30947 62.32335
#
# Poissons Ratio (x) = 0.47465 0.10924
# Poissons Ratio (y) = 0.63637 0.07714
# Poissons Ratio (z) = 0.11353 0.05979
#
# Static dielectric constant tensor:
#      x y z
#    x 1.646690 0.000000 0.000000 
#    y 0.000000 1.634330 0.000000 
#    z 0.000000 0.000000 1.789260 
# 
# From -- ./inp_files/6114.got.cif
#   From: 2010.05.17/outbox.cif.g08.bks.cpg/sg21_4_cif.got.tgz:6114.got - 2010.06.03 23:14:55.
