data_PCOD9322986
_publ_section_title
;
Structure prediction by ZEFSAII (Michael W. Deem and Ramdas Pophale) SiO2 
 PCOD9322986
Probable space group: C 2 2 2
;
_chemical_formula_sum "Si O2"
_cell_formula_units_Z 60
_cell_length_a 19.908139
_cell_length_b 8.966699
_cell_length_c 16.850653
_cell_angle_alpha 90.000000
_cell_angle_beta 90.000000
_cell_angle_gamma 90.000000
_cell_volume 3008.014955
_symmetry_space_group_name_H-M "C 2 2 2"
_symmetry_group_IT_number 21
_symmetry_cell_setting 'orthorhombic'
loop_
_space_group_symop_operation_xyz
x,y,z
-x,-y,z
x,-y,-z
-x,y,-z
1/2+x,1/2+y,z
1/2-x,1/2-y,z
1/2+x,1/2-y,-z
1/2-x,1/2+y,-z
loop_
_atom_site_type_symbol
_atom_site_label
_atom_site_fract_x
_atom_site_fract_y
_atom_site_fract_z
Si Si1 0.824369 0.678917 0.325787
Si Si2 0.883458 0.698692 0.807720
Si Si3 0.611112 0.784597 0.156597
Si Si4 0.000000 0.500000 0.837709
Si Si5 0.325141 0.678799 0.514228
Si Si6 0.874013 0.980926 0.906295
Si Si7 0.176513 0.677830 0.356733
Si Si8 0.215714 0.517326 0.906125
O O1 0.750000 0.750000 0.306706
O O2 0.872154 0.690101 0.249022
O O3 0.853153 0.772826 0.400150
O O4 0.818877 0.502639 0.348772
O O5 0.898589 0.827811 0.869692
O O6 0.856190 0.743742 0.722550
O O7 0.827522 0.596384 0.851902
O O8 0.951028 0.607976 0.790619
O O9 0.592288 0.617265 0.138690
O O10 0.554127 0.893267 0.120703
O O11 0.681251 0.825665 0.114205
O O12 0.322951 0.500000 0.500000
O O13 0.250000 0.750000 0.519994
O O14 0.356449 0.764160 0.438520
O O15 0.793744 0.990778 0.889098
O O16 0.883453 0.000000 0.000000
O O17 0.250000 0.750000 0.358189
O O18 0.206415 0.500000 0.000000
#
# Coordination Sequence:
#
# PCOD9322986 Si02
#       8
#     8   8   8   4   8   8   8   8
#     4  11  20  34  58  92 123 157 193 238 299 362
#     4  11  23  38  63  83 119 162 203 242 295 353
#     4  11  23  38  63  83 119 162 203 242 295 353
#     4  10  24  48  55  83 112 160 214 252 286 343
#     4  10  20  32  52  88 131 161 182 234 297 361
#     4  11  23  38  61  94 122 148 191 249 309 359
#     4  11  20  34  58  92 123 157 193 238 299 362
#     4  10  19  37  59  91 127 151 184 239 303 365
#
# _framework density 19.946709999999999
#
# number of rings (size 3 to 8) (size 9 to 14) (size 15 to 20)
#    0.000    1.333    2.667    6.800    3.733    2.667 
#    0.000   12.667    0.000    1.600    0.000    0.933 
#    0.000    0.000    0.000    0.000    0.000    0.000 
#
# Total GULP energy -167266.051365 kJ/mol
# GULP energy per Si atom -5575.535046 kJ/mol
# Density = 1.990131 g / cm^3
# Si number density = 19.946710 Si / 1000 Ang^3
#
#
#
# Elastic Constant Matrix: (Units=GPa)
#
#
# Indices 1 2 3 4 5 6 
#
# 1 47.7116 10.2918 30.3763 0.0000 0.0000 0.0000
# 2 10.2918 122.9869 33.8274 0.0000 0.0000 0.0000
# 3 30.3763 33.8274 87.6325 0.0000 0.0000 0.0000
# 4 0.0000 0.0000 0.0000 31.4122 0.0000 0.0000
# 5 0.0000 0.0000 0.0000 0.0000 -10.5498 0.0000
# 6 0.0000 0.0000 0.0000 0.0000 0.0000 18.3566
#
#
#
# Elastic Compliance Matrix: (Units=1/GPa)
#
#
# Indices 1 2 3 4 5 6 
#
# 1 0.026908 0.000351 -0.009463 0.000000 0.000000 0.000000
# 2 0.000351 0.009101 -0.003635 0.000000 0.000000 0.000000
# 3 -0.009463 -0.003635 0.016095 0.000000 0.000000 0.000000
# 4 0.000000 0.000000 0.000000 0.031835 0.000000 0.000000
# 5 0.000000 0.000000 0.000000 0.000000 -0.094788 0.000000
# 6 0.000000 0.000000 0.000000 0.000000 0.000000 0.054476
#
#
# Mechanical properties :
#
#
# Convention : Reuss Voigt Hill
#
# Bulk Modulus (GPa) = 37.57892 45.25802 41.41847
# Shear Modulus (GPa) = 64.11045 20.09949 42.10497
#
# Velocity S-wave (km/s) = 5.67544 3.17781 4.59941
# Velocity P-wave (km/s) = 7.86308 6.01692 7.00112
#
# Compressibility (1/GPa) = 0.02661067
#
# Stress axis : x y z
#
# Youngs Moduli (GPa) = 37.16347 109.87377 62.13297
#
# Poissons Ratio (x) = -0.03856 0.58795
# Poissons Ratio (y) = -0.01304 0.22585
# Poissons Ratio (z) = 0.35167 0.39938
#
# Static dielectric constant tensor:
#      x y z
#    x 1.709700 0.000000 0.000000 
#    y 0.000000 1.712640 0.000000 
#    z 0.000000 0.000000 1.714080 
# 
# From -- ./inp_files/36918.got.cif
#   From: 2010.05.17/outbox.cif.g08.bks.cpg/sg21_19_cif.got.tgz:36918.got - 2010.06.03 23:14:55.
