data_PCOD9322423
_publ_section_title
;
Structure prediction by ZEFSAII (Michael W. Deem and Ramdas Pophale) SiO2 
 PCOD9322423
Probable space group: C 2 2 2
;
_chemical_formula_sum "Si O2"
_cell_formula_units_Z 64
_cell_length_a 14.699492
_cell_length_b 8.141279
_cell_length_c 26.004820
_cell_angle_alpha 90.000000
_cell_angle_beta 90.000000
_cell_angle_gamma 90.000000
_cell_volume 3112.066126
_symmetry_space_group_name_H-M "C 2 2 2"
_symmetry_group_IT_number 21
_symmetry_cell_setting 'orthorhombic'
loop_
_space_group_symop_operation_xyz
x,y,z
-x,-y,z
x,-y,-z
-x,y,-z
1/2+x,1/2+y,z
1/2-x,1/2-y,z
1/2+x,1/2-y,-z
1/2-x,1/2+y,-z
loop_
_atom_site_type_symbol
_atom_site_label
_atom_site_fract_x
_atom_site_fract_y
_atom_site_fract_z
Si Si1 0.854056 0.697595 0.004816
Si Si2 0.493396 0.802263 0.082053
Si Si3 0.861706 0.744672 0.383058
Si Si4 0.850917 0.179080 0.285405
Si Si5 0.489578 0.302150 0.801572
Si Si6 0.342328 0.062200 0.557158
Si Si7 0.853015 0.211190 0.732292
Si Si8 0.137664 0.888075 0.401686
O O1 0.750000 0.750000 0.005918
O O2 0.912224 0.751989 0.054801
O O3 0.855977 0.500000 0.000000
O O4 0.911840 0.755251 0.955246
O O5 0.476599 0.748675 0.140029
O O6 0.500000 0.000000 0.081332
O O7 0.750000 0.750000 0.386296
O O8 0.892608 0.588078 0.415178
O O9 0.882328 0.718671 0.322989
O O10 0.897489 0.923588 0.401365
O O11 0.750000 0.250000 0.281468
O O12 0.879768 0.189896 0.345203
O O13 0.913799 0.249544 0.240210
O O14 0.854546 0.984300 0.275878
O O15 0.500000 0.500000 0.800777
O O16 0.582792 0.234067 0.778000
O O17 0.245885 0.084782 0.587060
O O18 0.388407 0.241951 0.559300
O O19 0.322254 0.000000 0.500000
O O20 0.750000 0.250000 0.743371
#
# Coordination Sequence:
#
# PCOD9322423 Si02
#       8
#     8   8   8   8   8   8   8   8
#     4   9  19  37  62  83 117 159 197 232 292 344
#     4   9  20  39  55  83 119 152 193 245 280 346
#     4   8  16  29  45  66 100 136 173 224 283 346
#     4  10  19  36  54  75 110 148 186 234 287 348
#     4  10  22  37  57  85 114 151 196 240 291 336
#     4  10  18  25  44  74 105 130 182 234 285 344
#     4   9  19  35  55  76 108 143 187 235 284 346
#     4   9  18  29  44  68 106 140 175 231 287 352
#
# _framework density 20.565116
#
# number of rings (size 3 to 8) (size 9 to 14) (size 15 to 20)
#    0.000    2.750    1.250    1.500    5.250    3.000 
#    0.000    6.250    0.000    0.000    0.000    1.750 
#    3.750    0.000    0.000    0.000    0.000    0.000 
#
# Total GULP energy -178363.153275 kJ/mol
# GULP energy per Si atom -5573.848540 kJ/mol
# Density = 2.051831 g / cm^3
# Si number density = 20.565116 Si / 1000 Ang^3
#
#
#
# Elastic Constant Matrix: (Units=GPa)
#
#
# Indices 1 2 3 4 5 6 
#
# 1 70.4683 16.7368 31.9823 0.0000 0.0000 0.0000
# 2 16.7368 59.9983 46.0665 0.0000 0.0000 0.0000
# 3 31.9823 46.0665 93.1192 0.0000 0.0000 0.0000
# 4 0.0000 0.0000 0.0000 31.9117 0.0000 0.0000
# 5 0.0000 0.0000 0.0000 0.0000 -0.7191 0.0000
# 6 0.0000 0.0000 0.0000 0.0000 0.0000 19.7803
#
#
#
# Elastic Compliance Matrix: (Units=1/GPa)
#
#
# Indices 1 2 3 4 5 6 
#
# 1 0.016818 -0.000414 -0.005572 0.000000 0.000000 0.000000
# 2 -0.000414 0.026885 -0.013158 0.000000 0.000000 0.000000
# 3 -0.005572 -0.013158 0.019162 0.000000 0.000000 0.000000
# 4 0.000000 0.000000 0.000000 0.031336 0.000000 0.000000
# 5 0.000000 0.000000 0.000000 0.000000 -1.390680 0.000000
# 6 0.000000 0.000000 0.000000 0.000000 0.000000 0.050555
#
#
# Mechanical properties :
#
#
# Convention : Reuss Voigt Hill
#
# Bulk Modulus (GPa) = 40.68639 45.90636 43.29638
# Shear Modulus (GPa) = -4.16860 18.78126 7.30633
#
# Velocity S-wave (km/s) = -1.42528 3.02529 1.88693
# Velocity P-wave (km/s) = 4.13746 5.87998 5.08393
#
# Compressibility (1/GPa) = 0.02457824
#
# Stress axis : x y z
#
# Youngs Moduli (GPa) = 59.46132 37.19490 52.18673
#
# Poissons Ratio (x) = 0.01538 0.29076
# Poissons Ratio (y) = 0.02459 0.68669
# Poissons Ratio (z) = 0.33129 0.48942
#
# Static dielectric constant tensor:
#      x y z
#    x 1.759190 0.000000 0.000000 
#    y 0.000000 1.785500 0.000000 
#    z 0.000000 0.000000 1.729110 
# 
# From -- ./inp_files/38768.got.cif
#   From: 2010.05.17/outbox.cif.g08.bks.cpg/sg21_20_cif.got.tgz:38768.got - 2010.06.03 23:14:55.
