data_PCOD9322169
_publ_section_title
;
Structure prediction by ZEFSAII (Michael W. Deem and Ramdas Pophale) SiO2 
 PCOD9322169
Probable space group: C 2 2 21
;
_chemical_formula_sum "Si O2"
_cell_formula_units_Z 22
_cell_length_a 18.000000
_cell_length_b 12.000000
_cell_length_c 12.000000
_cell_angle_alpha 90.000000
_cell_angle_beta 90.000000
_cell_angle_gamma 90.000000
_cell_volume 2592.000000
_symmetry_space_group_name_H-M "C 2 2 21"
_symmetry_group_IT_number 20
_symmetry_cell_setting 'orthorhombic'
loop_
_space_group_symop_operation_xyz
x,y,z
-x,-y,1/2+z
x,-y,-z
-x,y,1/2-z
1/2+x,1/2+y,z
1/2-x,1/2-y,1/2+z
1/2+x,1/2-y,-z
1/2-x,1/2+y,1/2-z
loop_
_atom_site_type_symbol
_atom_site_label
_atom_site_fract_x
_atom_site_fract_y
_atom_site_fract_z
Si Si1 0.533037 0.610341 0.071090
Si Si2 0.380685 0.091424 0.704453
Si Si3 0.500000 0.074206 0.250000
Si Si4 0.762514 0.441145 0.615576
Si Si5 0.612064 0.659148 0.292626
Si Si6 0.086218 0.668557 0.041212
O O1 0.581954 0.595980 0.182862
O O2 0.451870 0.648026 0.114391
O O3 0.526786 0.500000 0.000000
O O4 0.570771 0.706484 0.997598
O O5 0.381656 0.212571 0.756263
O O6 0.414457 0.101099 0.577586
O O7 0.431475 0.008073 0.774619
O O8 0.300122 0.037025 0.690794
O O9 0.527940 0.138886 0.139649
O O10 0.741199 0.500000 0.500000
O O11 0.691111 0.385137 0.668175
O O12 0.831468 0.357533 0.589414
#
# Coordination Sequence:
#
# PCOD9322169 Si02
#       6
#     8   8   4   8   8   8
#     4  10  21  36  53  76 108 140 173 218 264 311
#     4   9  18  33  53  76 105 136 166 213 263 304
#     4  10  16  30  56  76  96 132 172 208 252 302
#     4   9  18  34  55  76 101 136 175 216 258 307
#     4  10  20  35  55  75 102 143 178 207 265 327
#     4   9  19  34  53  78 105 134 171 214 259 306
#
# _framework density 8.4876539999999991
#
# number of rings (size 3 to 8) (size 9 to 14) (size 15 to 20)
#    0.000    2.545    0.000    4.364    0.000    2.909 
#    0.000   12.727    0.000    8.727    0.000    0.000 
#    0.000    0.000    0.000    0.000    0.000    0.000 
#
# Total GULP energy -122536.469487 kJ/mol
# GULP energy per Si atom -5569.839522 kJ/mol
# Density = 0.846834 g / cm^3
# Si number density = 8.487654 Si / 1000 Ang^3
#
#
#
# Elastic Constant Matrix: (Units=GPa)
#
#
# Indices 1 2 3 4 5 6 
#
# 1 109.0583 49.6121 66.6908 0.0000 0.0000 0.0000
# 2 49.6121 95.3570 60.2821 0.0000 0.0000 0.0000
# 3 66.6908 60.2821 79.9123 0.0000 0.0000 0.0000
# 4 0.0000 0.0000 0.0000 27.9279 0.0000 0.0000
# 5 0.0000 0.0000 0.0000 0.0000 18.4080 0.0000
# 6 0.0000 0.0000 0.0000 0.0000 0.0000 14.6903
#
#
#
# Elastic Compliance Matrix: (Units=1/GPa)
#
#
# Indices 1 2 3 4 5 6 
#
# 1 0.018729 0.000261 -0.015828 0.000000 0.000000 0.000000
# 2 0.000261 0.020051 -0.015343 0.000000 0.000000 0.000000
# 3 -0.015828 -0.015343 0.037297 0.000000 0.000000 0.000000
# 4 0.000000 0.000000 0.000000 0.035806 0.000000 0.000000
# 5 0.000000 0.000000 0.000000 0.000000 0.054324 0.000000
# 6 0.000000 0.000000 0.000000 0.000000 0.000000 0.068072
#
#
# Mechanical properties :
#
#
# Convention : Reuss Voigt Hill
#
# Bulk Modulus (GPa) = 70.13821 70.83307 70.48564
# Shear Modulus (GPa) = 16.61946 19.38809 18.00378
#
# Velocity S-wave (km/s) = 3.13235 3.38322 3.26020
# Velocity P-wave (km/s) = 7.38171 7.55508 7.46890
#
# Compressibility (1/GPa) = 0.01425756
#
# Stress axis : x y z
#
# Youngs Moduli (GPa) = 53.39174 49.87400 26.81167
#
# Poissons Ratio (x) = -0.01304 0.42437
# Poissons Ratio (y) = -0.01396 0.41138
# Poissons Ratio (z) = 0.84508 0.76523
#
# Static dielectric constant tensor:
#      x y z
#    x 1.567130 0.000000 0.000000 
#    y 0.000000 1.592600 0.000000 
#    z 0.000000 0.000000 1.578150 
# 
# From -- ./inp_files/14033.got.cif
#   From: 2010.05.17/outbox.ucp.g08.bks.cvg/sg20_8_cif.got.tgz:14033.got - 2010.06.11 15:13:06.
