data_PCOD9322126
_publ_section_title
;
Structure prediction by ZEFSAII (Michael W. Deem and Ramdas Pophale) SiO2 
 PCOD9322126
Probable space group: C 2 2 21
;
_chemical_formula_sum "Si O2"
_cell_formula_units_Z 24
_cell_length_a 5.028764
_cell_length_b 21.887777
_cell_length_c 8.910110
_cell_angle_alpha 90.000000
_cell_angle_beta 90.000000
_cell_angle_gamma 90.000000
_cell_volume 980.722131
_symmetry_space_group_name_H-M "C 2 2 21"
_symmetry_group_IT_number 20
_symmetry_cell_setting 'orthorhombic'
loop_
_space_group_symop_operation_xyz
x,y,z
-x,-y,1/2+z
x,-y,-z
-x,y,1/2-z
1/2+x,1/2+y,z
1/2-x,1/2-y,1/2+z
1/2+x,1/2-y,-z
1/2-x,1/2+y,1/2-z
loop_
_atom_site_type_symbol
_atom_site_label
_atom_site_fract_x
_atom_site_fract_y
_atom_site_fract_z
Si Si1 0.160179 0.500000 0.000000
Si Si2 0.000000 0.707772 0.250000
Si Si3 0.000000 0.066408 0.250000
Si Si4 0.385111 0.875634 0.990949
Si Si5 0.000000 0.288066 0.250000
O O1 0.320243 0.477143 0.854559
O O2 0.992013 0.440707 0.043612
O O3 0.915329 0.663958 0.387004
O O4 0.254823 0.746209 0.305331
O O5 0.156564 0.106514 0.126959
O O6 0.350906 0.831709 0.131173
#
# Coordination Sequence:
#
# PCOD9322126 Si02
#       5
#     4   4   4   8   4
#     4  12  28  48  80 118 158 220 270 356 424 496
#     4  12  26  54  78 117 163 220 278 338 410 496
#     4  12  27  49  82 116 173 209 278 348 430 504
#     4  12  28  50  79 120 162 215 279 348 418 504
#     4  12  31  47  86 117 164 223 276 338 416 500
#
# _framework density 24.471765000000001
#
# number of rings (size 3 to 8) (size 9 to 14) (size 15 to 20)
#    0.000    0.000    3.333    4.000   14.000    0.000 
#    0.000    0.000    0.000    0.000    0.000    0.000 
#    0.000    0.000    0.000    0.000    0.000    0.000 
#
# Total GULP energy -67087.536394 kJ/mol
# GULP energy per Si atom -5590.628033 kJ/mol
# Density = 2.441607 g / cm^3
# Si number density = 24.471765 Si / 1000 Ang^3
#
#
#
# Elastic Constant Matrix: (Units=GPa)
#
#
# Indices 1 2 3 4 5 6 
#
# 1 114.3956 59.0481 35.8896 0.0000 0.0000 0.0000
# 2 59.0481 175.9977 59.7866 0.0000 0.0000 0.0000
# 3 35.8896 59.7866 111.3278 0.0000 0.0000 0.0000
# 4 0.0000 0.0000 0.0000 55.6087 0.0000 0.0000
# 5 0.0000 0.0000 0.0000 0.0000 26.4253 0.0000
# 6 0.0000 0.0000 0.0000 0.0000 0.0000 14.1421
#
#
#
# Elastic Compliance Matrix: (Units=1/GPa)
#
#
# Indices 1 2 3 4 5 6 
#
# 1 0.010890 -0.003010 -0.001894 0.000000 0.000000 0.000000
# 2 -0.003010 0.007782 -0.003209 0.000000 0.000000 0.000000
# 3 -0.001894 -0.003209 0.011316 0.000000 0.000000 0.000000
# 4 0.000000 0.000000 0.000000 0.017983 0.000000 0.000000
# 5 0.000000 0.000000 0.000000 0.000000 0.037842 0.000000
# 6 0.000000 0.000000 0.000000 0.000000 0.000000 0.070711
#
#
# Mechanical properties :
#
#
# Convention : Reuss Voigt Hill
#
# Bulk Modulus (GPa) = 72.66405 79.01886 75.84146
# Shear Modulus (GPa) = 28.19498 35.70169 31.94834
#
# Velocity S-wave (km/s) = 3.39801 3.82369 3.61712
# Velocity P-wave (km/s) = 6.71958 7.20098 6.96444
#
# Compressibility (1/GPa) = 0.01376196
#
# Stress axis : x y z
#
# Youngs Moduli (GPa) = 91.83119 128.50524 88.36860
#
# Poissons Ratio (x) = 0.38681 0.16737
# Poissons Ratio (y) = 0.27642 0.28355
# Poissons Ratio (z) = 0.17393 0.41233
#
# Static dielectric constant tensor:
#      x y z
#    x 2.014470 0.000000 0.000000 
#    y 0.000000 1.927820 0.000000 
#    z 0.000000 0.000000 2.130660 
# 
# From -- ./inp_files/4998.got.cif
#   From: 2010.05.17/outbox.cif.g08.bks.cpg/sg20_3_cif.got.tgz:4998.got - 2010.06.03 22:52:26.
