data_PCOD9322710
_publ_section_title
;
Structure prediction by ZEFSAII (Michael W. Deem and Ramdas Pophale) SiO2 
 PCOD9322710
Probable space group: C 2 2 2
;
_chemical_formula_sum "Si O2"
_cell_formula_units_Z 40
_cell_length_a 19.102688
_cell_length_b 17.480985
_cell_length_c 5.282465
_cell_angle_alpha 90.000000
_cell_angle_beta 90.000000
_cell_angle_gamma 90.000000
_cell_volume 1763.993623
_symmetry_space_group_name_H-M "C 2 2 2"
_symmetry_group_IT_number 21
_symmetry_cell_setting 'orthorhombic'
loop_
_space_group_symop_operation_xyz
x,y,z
-x,-y,z
x,-y,-z
-x,y,-z
1/2+x,1/2+y,z
1/2-x,1/2-y,z
1/2+x,1/2-y,-z
1/2-x,1/2+y,-z
loop_
_atom_site_type_symbol
_atom_site_label
_atom_site_fract_x
_atom_site_fract_y
_atom_site_fract_z
Si Si1 0.418882 0.329889 0.503619
Si Si2 0.783303 0.666367 0.927084
Si Si3 0.872920 0.338221 0.572707
Si Si4 0.586397 0.589305 0.004847
Si Si5 0.875123 0.500000 0.500000
Si Si6 0.221635 0.500000 0.000000
O O1 0.500000 0.351403 0.500000
O O2 0.413176 0.239478 0.481728
O O3 0.388981 0.363310 0.761544
O O4 0.387697 0.370502 0.259217
O O5 0.750000 0.750000 0.963245
O O6 0.810374 0.663153 0.636574
O O7 0.845165 0.664254 0.139129
O O8 0.744539 0.584860 0.983552
O O9 0.912284 0.418017 0.517239
O O10 0.603906 0.500000 0.000000
O O11 0.500000 0.592893 0.000000
O O12 0.826423 0.500574 0.251010
#
# Coordination Sequence:
#
# PCOD9322710 Si02
#       6
#     8   8   8   8   4   4
#     4  10  19  31  50  75 102 133 168 210 250 291
#     4  10  19  33  55  75  97 132 167 207 254 298
#     4  10  19  33  52  76 102 128 170 205 245 299
#     4   9  17  30  49  69  92 131 178 208 236 291
#     4   8  16  30  49  72  94 128 166 196 231 292
#     4   8  16  30  50  72  93 124 165 202 232 304
#
# _framework density 22.675816999999999
#
# number of rings (size 3 to 8) (size 9 to 14) (size 15 to 20)
#    0.000    2.600    0.000    2.400    0.000    2.400 
#    0.000    0.500   13.200    0.000    0.000   12.600 
#    0.000    0.000    0.000    0.000    0.000    0.000 
#
# Total GULP energy -111533.409937 kJ/mol
# GULP energy per Si atom -5576.670497 kJ/mol
# Density = 2.262421 g / cm^3
# Si number density = 22.675817 Si / 1000 Ang^3
#
#
#
# Elastic Constant Matrix: (Units=GPa)
#
#
# Indices 1 2 3 4 5 6 
#
# 1 26.3621 3.3299 15.6654 0.0000 0.0000 0.0000
# 2 3.3299 190.0062 61.0954 0.0000 0.0000 0.0000
# 3 15.6654 61.0954 139.4521 0.0000 0.0000 0.0000
# 4 0.0000 0.0000 0.0000 36.5572 0.0000 0.0000
# 5 0.0000 0.0000 0.0000 0.0000 -11.0328 0.0000
# 6 0.0000 0.0000 0.0000 0.0000 0.0000 34.3456
#
#
#
# Elastic Compliance Matrix: (Units=1/GPa)
#
#
# Indices 1 2 3 4 5 6 
#
# 1 0.040773 0.000883 -0.004967 0.000000 0.000000 0.000000
# 2 0.000883 0.006145 -0.002791 0.000000 0.000000 0.000000
# 3 -0.004967 -0.002791 0.008952 0.000000 0.000000 0.000000
# 4 0.000000 0.000000 0.000000 0.027354 0.000000 0.000000
# 5 0.000000 0.000000 0.000000 0.000000 -0.090639 0.000000
# 6 0.000000 0.000000 0.000000 0.000000 0.000000 0.029116
#
#
# Mechanical properties :
#
#
# Convention : Reuss Voigt Hill
#
# Bulk Modulus (GPa) = 23.74243 57.33355 40.53799
# Shear Modulus (GPa) = 101.02574 30.35600 65.69087
#
# Velocity S-wave (km/s) = 6.68198 3.66279 5.38818
# Velocity P-wave (km/s) = 8.36809 6.57472 7.52502
#
# Compressibility (1/GPa) = 0.04211868
#
# Stress axis : x y z
#
# Youngs Moduli (GPa) = 24.52582 162.73228 111.70927
#
# Poissons Ratio (x) = -0.14361 0.55485
# Poissons Ratio (y) = -0.02164 0.31182
# Poissons Ratio (z) = 0.12182 0.45424
#
# Static dielectric constant tensor:
#      x y z
#    x 1.925680 0.000000 0.000000 
#    y 0.000000 1.856750 0.000000 
#    z 0.000000 0.000000 1.730600 
# 
# From -- ./inp_files/3892.got.cif
#   From: 2010.05.17/outbox.cif.g08.bks.cpg/sg21_2_cif.got.tgz:3892.got - 2010.06.03 23:14:55.
