data_PCOD9322063
_publ_section_title
;
Structure prediction by ZEFSAII (Michael W. Deem and Ramdas Pophale) SiO2 
 PCOD9322063
Probable space group: C 2 2 21
;
_chemical_formula_sum "Si O2"
_cell_formula_units_Z 36
_cell_length_a 5.193097
_cell_length_b 24.247597
_cell_length_c 11.094829
_cell_angle_alpha 90.000000
_cell_angle_beta 90.000000
_cell_angle_gamma 90.000000
_cell_volume 1397.062235
_symmetry_space_group_name_H-M "C 2 2 21"
_symmetry_group_IT_number 20
_symmetry_cell_setting 'orthorhombic'
loop_
_space_group_symop_operation_xyz
x,y,z
-x,-y,1/2+z
x,-y,-z
-x,y,1/2-z
1/2+x,1/2+y,z
1/2-x,1/2-y,1/2+z
1/2+x,1/2-y,-z
1/2-x,1/2+y,1/2-z
loop_
_atom_site_type_symbol
_atom_site_label
_atom_site_fract_x
_atom_site_fract_y
_atom_site_fract_z
Si Si1 0.500000 0.419456 0.750000
Si Si2 0.823256 0.125159 0.576769
Si Si3 0.319303 0.854796 0.562660
Si Si4 0.828537 0.493846 0.134389
Si Si5 0.246009 0.753437 0.173430
O O1 0.713417 0.381057 0.686551
O O2 0.398642 0.461572 0.647367
O O3 0.611770 0.130804 0.468831
O O4 0.760122 0.069137 0.645138
O O5 0.775794 0.182219 0.645561
O O6 0.119050 0.123060 0.536366
O O7 0.267878 0.788928 0.562591
O O8 0.000000 0.506480 0.250000
O O9 0.945369 0.500000 0.000000
O O10 0.500000 0.743415 0.250000
O O11 0.000000 0.736443 0.250000
#
# Coordination Sequence:
#
# PCOD9322063 Si02
#       5
#     4   8   8   8   8
#     4  12  28  46  82 108 162 216 272 330 414 494
#     4  12  27  48  77 115 156 210 268 340 411 476
#     4  12  26  49  76 112 158 208 271 331 410 498
#     4  12  28  50  80 117 166 217 276 342 408 495
#     4  12  25  45  77 113 157 207 262 335 409 484
#
# _framework density 25.768357000000002
#
# number of rings (size 3 to 8) (size 9 to 14) (size 15 to 20)
#    0.000    0.000    3.333    6.000    4.667    0.889 
#    0.000    0.000    0.000    0.000    0.000    0.000 
#    0.000    0.000    0.000    0.000    0.000    0.000 
#
# Total GULP energy -100947.128259 kJ/mol
# GULP energy per Si atom -5608.173792 kJ/mol
# Density = 2.570971 g / cm^3
# Si number density = 25.768357 Si / 1000 Ang^3
#
#
#
# Elastic Constant Matrix: (Units=GPa)
#
#
# Indices 1 2 3 4 5 6 
#
# 1 85.5100 10.1623 26.4698 0.0000 0.0000 0.0000
# 2 10.1623 175.2744 3.7741 0.0000 0.0000 0.0000
# 3 26.4698 3.7741 80.8361 0.0000 0.0000 0.0000
# 4 0.0000 0.0000 0.0000 51.4234 0.0000 0.0000
# 5 0.0000 0.0000 0.0000 0.0000 36.2019 0.0000
# 6 0.0000 0.0000 0.0000 0.0000 0.0000 26.2414
#
#
#
# Elastic Compliance Matrix: (Units=1/GPa)
#
#
# Indices 1 2 3 4 5 6 
#
# 1 0.013091 -0.000667 -0.004256 0.000000 0.000000 0.000000
# 2 -0.000667 0.005745 -0.000050 0.000000 0.000000 0.000000
# 3 -0.004256 -0.000050 0.013767 0.000000 0.000000 0.000000
# 4 0.000000 0.000000 0.000000 0.019446 0.000000 0.000000
# 5 0.000000 0.000000 0.000000 0.000000 0.027623 0.000000
# 6 0.000000 0.000000 0.000000 0.000000 0.000000 0.038108
#
#
# Mechanical properties :
#
#
# Convention : Reuss Voigt Hill
#
# Bulk Modulus (GPa) = 44.13542 46.93698 45.53620
# Shear Modulus (GPa) = 36.96107 42.85430 39.90768
#
# Velocity S-wave (km/s) = 3.79140 4.08249 3.93963
# Velocity P-wave (km/s) = 6.02754 6.36214 6.19710
#
# Compressibility (1/GPa) = 0.02265754
#
# Stress axis : x y z
#
# Youngs Moduli (GPa) = 76.38745 174.06121 72.64005
#
# Poissons Ratio (x) = 0.11617 0.30912
# Poissons Ratio (y) = 0.05098 0.00361
# Poissons Ratio (z) = 0.32507 0.00865
#
# Static dielectric constant tensor:
#      x y z
#    x 1.956710 0.000000 0.000000 
#    y 0.000000 1.964030 0.000000 
#    z 0.000000 0.000000 2.101730 
# 
# From -- ./inp_files/12053.got.cif
#   From: 2010.05.17/outbox.cif.g08.bks.cpg/sg20_7_cif.got.tgz:12053.got - 2010.06.03 22:52:26.
