data_PCOD9322596
_publ_section_title
;
Structure prediction by ZEFSAII (Michael W. Deem and Ramdas Pophale) SiO2 
 PCOD9322596
Probable space group: C 2 2 2
;
_chemical_formula_sum "Si O2"
_cell_formula_units_Z 38
_cell_length_a 13.742218
_cell_length_b 9.090625
_cell_length_c 11.400704
_cell_angle_alpha 90.000000
_cell_angle_beta 90.000000
_cell_angle_gamma 90.000000
_cell_volume 1424.236943
_symmetry_space_group_name_H-M "C 2 2 2"
_symmetry_group_IT_number 21
_symmetry_cell_setting 'orthorhombic'
loop_
_space_group_symop_operation_xyz
x,y,z
-x,-y,z
x,-y,-z
-x,y,-z
1/2+x,1/2+y,z
1/2-x,1/2-y,z
1/2+x,1/2-y,-z
1/2-x,1/2+y,-z
loop_
_atom_site_type_symbol
_atom_site_label
_atom_site_fract_x
_atom_site_fract_y
_atom_site_fract_z
Si Si1 0.647396 0.980138 0.738628
Si Si2 0.837866 0.912827 0.346877
Si Si3 0.000000 0.000000 0.000000
Si Si4 0.100052 0.758842 0.878386
Si Si5 0.367530 0.272393 0.583258
Si Si6 0.250000 0.250000 0.910566
O O1 0.589709 0.863174 0.657016
O O2 0.715243 0.882856 0.827172
O O3 0.721225 0.057965 0.645529
O O4 0.592923 0.095145 0.824674
O O5 0.842806 0.841787 0.222009
O O6 0.885180 0.811572 0.447377
O O7 0.886600 0.072256 0.354475
O O8 0.988018 0.131456 0.900943
O O9 0.162196 0.771187 0.997754
O O10 0.250000 0.250000 0.588524
#
# Coordination Sequence:
#
# PCOD9322596 Si02
#       6
#     8   8   2   8   8   4
#     4  11  20  36  62 102 145 183 234 296 358 434
#     4  10  18  35  60 100 142 178 219 297 369 417
#     4  12  32  48  62 102 156 190 250 312 378 438
#     4  12  25  41  67  93 143 193 239 297 366 423
#     4   9  18  30  57  99 148 166 217 301 367 417
#     4  12  22  40  68 106 138 184 250 300 338 428
#
# _framework density 26.680955999999998
#
# number of rings (size 3 to 8) (size 9 to 14) (size 15 to 20)
#    0.000    1.263    5.263    3.158    0.000    2.526 
#    0.000    2.105    0.000    2.526    0.000    0.000 
#   44.211    0.000    0.000    0.000    0.000    0.000 
#
# Total GULP energy -105857.728509 kJ/mol
# GULP energy per Si atom -5571.459395 kJ/mol
# Density = 2.662023 g / cm^3
# Si number density = 26.680956 Si / 1000 Ang^3
#
#
#
# Elastic Constant Matrix: (Units=GPa)
#
#
# Indices 1 2 3 4 5 6 
#
# 1 39.6487 33.4063 31.6265 0.0000 0.0000 0.0000
# 2 33.4063 210.0155 83.2941 0.0000 0.0000 0.0000
# 3 31.6265 83.2941 155.9211 0.0000 0.0000 0.0000
# 4 0.0000 0.0000 0.0000 72.4887 0.0000 0.0000
# 5 0.0000 0.0000 0.0000 0.0000 3.0008 0.0000
# 6 0.0000 0.0000 0.0000 0.0000 0.0000 17.3527
#
#
#
# Elastic Compliance Matrix: (Units=1/GPa)
#
#
# Indices 1 2 3 4 5 6 
#
# 1 0.031659 -0.003158 -0.004735 0.000000 0.000000 0.000000
# 2 -0.003158 0.006357 -0.002755 0.000000 0.000000 0.000000
# 3 -0.004735 -0.002755 0.008846 0.000000 0.000000 0.000000
# 4 0.000000 0.000000 0.000000 0.013795 0.000000 0.000000
# 5 0.000000 0.000000 0.000000 0.000000 0.333248 0.000000
# 6 0.000000 0.000000 0.000000 0.000000 0.000000 0.057628
#
#
# Mechanical properties :
#
#
# Convention : Reuss Voigt Hill
#
# Bulk Modulus (GPa) = 39.11492 78.02655 58.57073
# Shear Modulus (GPa) = 10.38745 35.71900 23.05322
#
# Velocity S-wave (km/s) = 1.97526 3.66286 2.94263
# Velocity P-wave (km/s) = 4.46030 6.86997 5.79184
#
# Compressibility (1/GPa) = 0.02556569
#
# Stress axis : x y z
#
# Youngs Moduli (GPa) = 31.58659 157.31607 113.04982
#
# Poissons Ratio (x) = 0.49682 0.53524
# Poissons Ratio (y) = 0.09975 0.31147
# Poissons Ratio (z) = 0.14955 0.43343
#
# Static dielectric constant tensor:
#      x y z
#    x 2.313520 0.000000 0.000000 
#    y 0.000000 2.160520 0.000000 
#    z 0.000000 0.000000 2.043820 
# 
# From -- ./inp_files/25853.got.cif
#   From: 2010.05.17/outbox.cif.g08.bks.cpg/sg21_13_cif.got.tgz:25853.got - 2010.06.03 23:14:55.
