data_PCOD9322331
_publ_section_title
;
Structure prediction by ZEFSAII (Michael W. Deem and Ramdas Pophale) SiO2 
 PCOD9322331
Probable space group: C 2 2 2
;
_chemical_formula_sum "Si O2"
_cell_formula_units_Z 48
_cell_length_a 5.221135
_cell_length_b 25.623080
_cell_length_c 18.858669
_cell_angle_alpha 90.000000
_cell_angle_beta 90.000000
_cell_angle_gamma 90.000000
_cell_volume 2522.942154
_symmetry_space_group_name_H-M "C 2 2 2"
_symmetry_group_IT_number 21
_symmetry_cell_setting 'orthorhombic'
loop_
_space_group_symop_operation_xyz
x,y,z
-x,-y,z
x,-y,-z
-x,y,-z
1/2+x,1/2+y,z
1/2-x,1/2-y,z
1/2+x,1/2-y,-z
1/2-x,1/2+y,-z
loop_
_atom_site_type_symbol
_atom_site_label
_atom_site_fract_x
_atom_site_fract_y
_atom_site_fract_z
Si Si1 0.648452 0.309171 0.793071
Si Si2 0.752902 0.965595 0.697234
Si Si3 0.361974 0.150122 0.720862
Si Si4 0.246119 0.941201 0.468736
Si Si5 0.255864 0.313168 0.041170
Si Si6 0.004053 0.286251 0.583089
O O1 0.750000 0.250000 0.782994
O O2 0.364704 0.316180 0.759237
O O3 0.685448 0.322246 0.876114
O O4 0.859674 0.344298 0.755194
O O5 0.732409 0.908938 0.731404
O O6 0.766257 0.950210 0.614109
O O7 0.500000 0.000000 0.708478
O O8 0.000000 0.000000 0.715439
O O9 0.429182 0.168333 0.640077
O O10 0.500000 0.916738 0.500000
O O11 0.000000 0.912684 0.500000
O O12 0.244910 0.000000 0.500000
O O13 0.250000 0.250000 0.034980
O O14 0.500000 0.334058 0.000000
O O15 0.000000 0.331448 0.000000
O O16 0.250000 0.250000 0.591051
O O17 0.000000 0.301582 0.500000
O O18 0.750000 0.250000 0.598390
#
# Coordination Sequence:
#
# PCOD9322331 Si02
#       6
#     8   8   8   8   8   8
#     4  11  22  38  60  87 123 157 186 230 275 335
#     4  12  23  38  54  75 109 143 182 245 294 340
#     4  12  24  37  57  86 110 153 204 233 289 363
#     4  10  16  31  52  71  91 129 165 224 297 362
#     4   9  17  31  54  86 121 154 180 209 266 339
#     4  10  21  39  58  76 108 147 197 256 294 329
#
# _framework density 19.025404000000002
#
# number of rings (size 3 to 8) (size 9 to 14) (size 15 to 20)
#    0.000    1.333    3.333    5.000    0.000    3.333 
#    0.000    2.500    0.000    0.000    0.000    0.000 
#    0.000   46.667    0.000    0.000    0.000    0.000 
#
# Total GULP energy -133771.991935 kJ/mol
# GULP energy per Si atom -5573.832997 kJ/mol
# Density = 1.898210 g / cm^3
# Si number density = 19.025404 Si / 1000 Ang^3
#
#
#
# Elastic Constant Matrix: (Units=GPa)
#
#
# Indices 1 2 3 4 5 6 
#
# 1 164.2918 22.1122 31.6881 0.0000 0.0000 0.0000
# 2 22.1122 76.4403 12.1821 0.0000 0.0000 0.0000
# 3 31.6881 12.1821 83.5410 0.0000 0.0000 0.0000
# 4 0.0000 0.0000 0.0000 -5.4864 0.0000 0.0000
# 5 0.0000 0.0000 0.0000 0.0000 -0.3324 0.0000
# 6 0.0000 0.0000 0.0000 0.0000 0.0000 34.4825
#
#
#
# Elastic Compliance Matrix: (Units=1/GPa)
#
#
# Indices 1 2 3 4 5 6 
#
# 1 0.006749 -0.001581 -0.002329 0.000000 0.000000 0.000000
# 2 -0.001581 0.013764 -0.001407 0.000000 0.000000 0.000000
# 3 -0.002329 -0.001407 0.013059 0.000000 0.000000 0.000000
# 4 0.000000 0.000000 0.000000 -0.182269 0.000000 0.000000
# 5 0.000000 0.000000 0.000000 0.000000 -3.008002 0.000000
# 6 0.000000 0.000000 0.000000 0.000000 0.000000 0.029000
#
#
# Mechanical properties :
#
#
# Convention : Reuss Voigt Hill
#
# Bulk Modulus (GPa) = 43.59953 50.69310 47.14631
# Shear Modulus (GPa) = -1.60802 22.95212 10.67205
#
# Velocity S-wave (km/s) = -0.92034 3.47708 2.37098
# Velocity P-wave (km/s) = 4.67299 6.54393 5.68594
#
# Compressibility (1/GPa) = 0.02293603
#
# Stress axis : x y z
#
# Youngs Moduli (GPa) = 148.17447 72.65466 76.57587
#
# Poissons Ratio (x) = 0.11487 0.17837
# Poissons Ratio (y) = 0.23427 0.10777
# Poissons Ratio (z) = 0.34515 0.10225
#
# Static dielectric constant tensor:
#      x y z
#    x 1.671530 0.000000 0.000000 
#    y 0.000000 1.777540 0.000000 
#    z 0.000000 0.000000 1.754070 
# 
# From -- ./inp_files/35023.got.cif
#   From: 2010.05.17/outbox.cif.g08.bks.cpg/sg21_18_cif.got.tgz:35023.got - 2010.06.03 23:14:55.
