data_PCOD9322730
_publ_section_title
;
Structure prediction by ZEFSAII (Michael W. Deem and Ramdas Pophale) SiO2 
 PCOD9322730
Probable space group: C 2 2 2
;
_chemical_formula_sum "Si O2"
_cell_formula_units_Z 34
_cell_length_a 20.989302
_cell_length_b 5.166342
_cell_length_c 16.289778
_cell_angle_alpha 90.000000
_cell_angle_beta 90.000000
_cell_angle_gamma 90.000000
_cell_volume 1766.429521
_symmetry_space_group_name_H-M "C 2 2 2"
_symmetry_group_IT_number 21
_symmetry_cell_setting 'orthorhombic'
loop_
_space_group_symop_operation_xyz
x,y,z
-x,-y,z
x,-y,-z
-x,y,-z
1/2+x,1/2+y,z
1/2-x,1/2-y,z
1/2+x,1/2-y,-z
1/2-x,1/2+y,-z
loop_
_atom_site_type_symbol
_atom_site_label
_atom_site_fract_x
_atom_site_fract_y
_atom_site_fract_z
Si Si1 0.422106 0.506686 0.905172
Si Si2 0.188461 0.116818 0.587751
Si Si3 0.000000 0.500000 0.500000
Si Si4 0.892179 0.613693 0.381169
Si Si5 0.423409 0.005029 0.806406
O O1 0.500000 0.500000 0.905818
O O2 0.400338 0.765515 0.860469
O O3 0.400910 0.266542 0.849654
O O4 0.402118 0.500000 0.000000
O O5 0.250000 0.250000 0.629459
O O6 0.141237 0.359688 0.580020
O O7 0.209919 0.000000 0.500000
O O8 0.151608 0.869812 0.624355
O O9 0.045452 0.339325 0.437658
O O10 0.907490 0.529024 0.288600
O O11 0.500000 0.000000 0.811327
#
# Coordination Sequence:
#
# PCOD9322730 Si02
#       5
#     8   8   2   8   8
#     4   9  17  30  49  73 109 155 193 223 277 351
#     4  12  24  42  61  81 107 158 213 260 294 332
#     4  12  24  42  56  94 122 170 196 240 304 374
#     4  12  24  39  60  86 122 156 204 245 296 360
#     4  10  19  32  50  80 116 150 186 238 286 354
#
# _framework density 19.247865000000001
#
# number of rings (size 3 to 8) (size 9 to 14) (size 15 to 20)
#    0.000    1.176    3.529    4.235    0.000    4.706 
#    0.000    0.000    0.000    0.000    0.000    0.000 
#    0.000   52.706    0.000    0.000    0.000    0.000 
#
# Total GULP energy -94811.894070 kJ/mol
# GULP energy per Si atom -5577.170239 kJ/mol
# Density = 1.920406 g / cm^3
# Si number density = 19.247865 Si / 1000 Ang^3
#
#
#
# Elastic Constant Matrix: (Units=GPa)
#
#
# Indices 1 2 3 4 5 6 
#
# 1 47.8974 41.1166 26.6381 0.0000 0.0000 0.0000
# 2 41.1166 175.4174 63.1044 0.0000 0.0000 0.0000
# 3 26.6381 63.1044 147.4701 0.0000 0.0000 0.0000
# 4 0.0000 0.0000 0.0000 32.6667 0.0000 0.0000
# 5 0.0000 0.0000 0.0000 0.0000 1.2877 0.0000
# 6 0.0000 0.0000 0.0000 0.0000 0.0000 10.5463
#
#
#
# Elastic Compliance Matrix: (Units=1/GPa)
#
#
# Indices 1 2 3 4 5 6 
#
# 1 0.026929 -0.005392 -0.002557 0.000000 0.000000 0.000000
# 2 -0.005392 0.007818 -0.002371 0.000000 0.000000 0.000000
# 3 -0.002557 -0.002371 0.008258 0.000000 0.000000 0.000000
# 4 0.000000 0.000000 0.000000 0.030612 0.000000 0.000000
# 5 0.000000 0.000000 0.000000 0.000000 0.776549 0.000000
# 6 0.000000 0.000000 0.000000 0.000000 0.000000 0.094820
#
#
# Mechanical properties :
#
#
# Convention : Reuss Voigt Hill
#
# Bulk Modulus (GPa) = 44.71589 70.27811 57.49700
# Shear Modulus (GPa) = 5.13832 24.89521 15.01677
#
# Velocity S-wave (km/s) = 1.63565 3.60029 2.79620
# Velocity P-wave (km/s) = 5.18162 7.33991 6.35309
#
# Compressibility (1/GPa) = 0.02236341
#
# Stress axis : x y z
#
# Youngs Moduli (GPa) = 37.13510 127.91664 121.10076
#
# Poissons Ratio (x) = 0.68974 0.30964
# Poissons Ratio (y) = 0.20024 0.28716
# Poissons Ratio (z) = 0.09495 0.30332
#
# Static dielectric constant tensor:
#      x y z
#    x 1.682610 0.000000 0.000000 
#    y 0.000000 1.691980 0.000000 
#    z 0.000000 0.000000 1.681420 
# 
# From -- ./inp_files/33097.got.cif
#   From: 2010.05.17/outbox.cif.g08.bks.cpg/sg21_17_cif.got.tgz:33097.got - 2010.06.03 23:14:55.
