data_PCOD9322546
_publ_section_title
;
Structure prediction by ZEFSAII (Michael W. Deem and Ramdas Pophale) SiO2 
 PCOD9322546
Probable space group: C 2 2 2
;
_chemical_formula_sum "Si O2"
_cell_formula_units_Z 34
_cell_length_a 19.083438
_cell_length_b 5.583180
_cell_length_c 12.274485
_cell_angle_alpha 90.000000
_cell_angle_beta 90.000000
_cell_angle_gamma 90.000000
_cell_volume 1307.800585
_symmetry_space_group_name_H-M "C 2 2 2"
_symmetry_group_IT_number 21
_symmetry_cell_setting 'orthorhombic'
loop_
_space_group_symop_operation_xyz
x,y,z
-x,-y,z
x,-y,-z
-x,y,-z
1/2+x,1/2+y,z
1/2-x,1/2-y,z
1/2+x,1/2-y,-z
1/2-x,1/2+y,-z
loop_
_atom_site_type_symbol
_atom_site_label
_atom_site_fract_x
_atom_site_fract_y
_atom_site_fract_z
Si Si1 0.491058 0.249871 0.680065
Si Si2 0.669628 0.748679 0.456241
Si Si3 0.880712 0.265971 0.140665
Si Si4 0.500000 0.000000 0.000000
Si Si5 0.638566 0.737921 0.203212
O O1 0.500000 0.500000 0.622339
O O2 0.416701 0.247469 0.739427
O O3 0.553713 0.249789 0.772578
O O4 0.500000 0.000000 0.621819
O O5 0.638383 0.500000 0.500000
O O6 0.750000 0.750000 0.496264
O O7 0.668283 0.736966 0.325447
O O8 0.639462 0.000000 0.500000
O O9 0.838750 0.515909 0.144719
O O10 0.847351 0.003217 0.135048
O O11 0.945280 0.322846 0.060731
#
# Coordination Sequence:
#
# PCOD9322546 Si02
#       5
#     8   8   8   2   8
#     4   8  14  27  42  65  94 139 162 204 246 312
#     4  10  21  37  59  84 105 133 187 249 284 328
#     4  10  20  30  51  77 114 146 178 226 261 318
#     4  12  20  34  52  90 114 150 196 242 248 310
#     4  10  18  34  50  75 110 147 170 222 283 334
#
# _framework density 25.997847
#
# number of rings (size 3 to 8) (size 9 to 14) (size 15 to 20)
#    0.000    2.353    3.529    1.412    0.000    1.882 
#    0.000    0.000    0.000   38.118    0.000    3.294 
#    0.000    0.000    0.000    0.000    0.000    0.000 
#
# Total GULP energy -94852.983174 kJ/mol
# GULP energy per Si atom -5579.587246 kJ/mol
# Density = 2.593867 g / cm^3
# Si number density = 25.997847 Si / 1000 Ang^3
#
#
#
# Elastic Constant Matrix: (Units=GPa)
#
#
# Indices 1 2 3 4 5 6 
#
# 1 49.8230 4.7566 -4.2332 0.0000 0.0000 0.0000
# 2 4.7566 364.2796 55.1960 0.0000 0.0000 0.0000
# 3 -4.2332 55.1960 82.1144 0.0000 0.0000 0.0000
# 4 0.0000 0.0000 0.0000 42.8689 0.0000 0.0000
# 5 0.0000 0.0000 0.0000 0.0000 9.5988 0.0000
# 6 0.0000 0.0000 0.0000 0.0000 0.0000 -6.3832
#
#
#
# Elastic Compliance Matrix: (Units=1/GPa)
#
#
# Indices 1 2 3 4 5 6 
#
# 1 0.020231 -0.000470 0.001359 0.000000 0.000000 0.000000
# 2 -0.000470 0.003067 -0.002086 0.000000 0.000000 0.000000
# 3 0.001359 -0.002086 0.013650 0.000000 0.000000 0.000000
# 4 0.000000 0.000000 0.000000 0.023327 0.000000 0.000000
# 5 0.000000 0.000000 0.000000 0.000000 0.104179 0.000000
# 6 0.000000 0.000000 0.000000 0.000000 0.000000 -0.156661
#
#
# Mechanical properties :
#
#
# Convention : Reuss Voigt Hill
#
# Bulk Modulus (GPa) = 28.93957 67.51731 48.22844
# Shear Modulus (GPa) = 230.34137 38.58342 134.46239
#
# Velocity S-wave (km/s) = 9.42298 3.85658 7.19950
# Velocity P-wave (km/s) = 11.38181 6.77183 9.36492
#
# Compressibility (1/GPa) = 0.03455476
#
# Stress axis : x y z
#
# Youngs Moduli (GPa) = 49.42816 326.01276 73.25790
#
# Poissons Ratio (x) = 0.15325 -0.09955
# Poissons Ratio (y) = 0.02324 0.15282
# Poissons Ratio (z) = -0.06717 0.68008
#
# Static dielectric constant tensor:
#      x y z
#    x 2.029110 0.000000 0.000000 
#    y 0.000000 2.198820 0.000000 
#    z 0.000000 0.000000 2.017640 
# 
# From -- ./inp_files/27167.got.cif
#   From: 2010.05.17/outbox.cif.g08.bks.cpg/sg21_14_cif.got.tgz:27167.got - 2010.06.03 23:14:55.
