data_PCOD9322446
_publ_section_title
;
Structure prediction by ZEFSAII (Michael W. Deem and Ramdas Pophale) SiO2 
 PCOD9322446
Probable space group: C 2 2 2
;
_chemical_formula_sum "Si O2"
_cell_formula_units_Z 34
_cell_length_a 25.276589
_cell_length_b 4.940770
_cell_length_c 13.950638
_cell_angle_alpha 90.000000
_cell_angle_beta 90.000000
_cell_angle_gamma 90.000000
_cell_volume 1742.236763
_symmetry_space_group_name_H-M "C 2 2 2"
_symmetry_group_IT_number 21
_symmetry_cell_setting 'orthorhombic'
loop_
_space_group_symop_operation_xyz
x,y,z
-x,-y,z
x,-y,-z
-x,y,-z
1/2+x,1/2+y,z
1/2-x,1/2-y,z
1/2+x,1/2-y,-z
1/2-x,1/2+y,-z
loop_
_atom_site_type_symbol
_atom_site_label
_atom_site_fract_x
_atom_site_fract_y
_atom_site_fract_z
Si Si1 0.250000 0.250000 0.565179
Si Si2 0.000000 0.000000 0.000000
Si Si3 0.822060 0.956162 0.732879
Si Si4 0.659585 0.000000 0.000000
Si Si5 0.250000 0.750000 0.118766
Si Si6 0.500000 0.000000 0.140718
Si Si7 0.886631 0.438931 0.800085
O O1 0.231805 0.500000 0.500000
O O2 0.203666 0.136218 0.633694
O O3 0.018617 0.763970 0.077048
O O4 0.772643 0.971503 0.807433
O O5 0.861984 0.728138 0.773249
O O6 0.854480 0.230240 0.735426
O O7 0.626050 0.121919 0.913067
O O8 0.700520 0.801993 0.948622
O O9 0.449385 0.077037 0.203791
#
# Coordination Sequence:
#
# PCOD9322446 Si02
#       7
#     4   2   8   4   4   4   8
#     4  11  22  40  67  94 120 148 179 234 316 389
#     4  10  20  34  50  74 108 150 220 274 296 322
#     4  10  22  37  55  84 116 146 187 238 290 364
#     4  10  18  29  49  72 106 157 197 232 274 324
#     4   9  18  30  49  74 110 148 189 230 280 339
#     4  11  22  36  54  76 111 162 212 268 307 330
#     4  11  22  35  53  79 115 157 204 244 285 334
#
# _framework density 19.515145
#
# number of rings (size 3 to 8) (size 9 to 14) (size 15 to 20)
#    0.000    1.647    0.000    5.647    0.000   11.294 
#    0.000    0.000    0.000    0.000    0.000   12.353 
#    0.000    0.000    0.000    0.000    0.000    0.000 
#
# Total GULP energy -94700.315321 kJ/mol
# GULP energy per Si atom -5570.606784 kJ/mol
# Density = 1.947073 g / cm^3
# Si number density = 19.515145 Si / 1000 Ang^3
#
#
#
# Elastic Constant Matrix: (Units=GPa)
#
#
# Indices 1 2 3 4 5 6 
#
# 1 113.7083 10.8039 20.2686 0.0000 0.0000 0.0000
# 2 10.8039 84.9879 4.5216 0.0000 0.0000 0.0000
# 3 20.2686 4.5216 72.4135 0.0000 0.0000 0.0000
# 4 0.0000 0.0000 0.0000 23.8783 0.0000 0.0000
# 5 0.0000 0.0000 0.0000 0.0000 8.7405 0.0000
# 6 0.0000 0.0000 0.0000 0.0000 0.0000 20.3620
#
#
#
# Elastic Compliance Matrix: (Units=1/GPa)
#
#
# Indices 1 2 3 4 5 6 
#
# 1 0.009349 -0.001053 -0.002551 0.000000 0.000000 0.000000
# 2 -0.001053 0.011924 -0.000450 0.000000 0.000000 0.000000
# 3 -0.002551 -0.000450 0.014552 0.000000 0.000000 0.000000
# 4 0.000000 0.000000 0.000000 0.041879 0.000000 0.000000
# 5 0.000000 0.000000 0.000000 0.000000 0.114410 0.000000
# 6 0.000000 0.000000 0.000000 0.000000 0.000000 0.049111
#
#
# Mechanical properties :
#
#
# Convention : Reuss Voigt Hill
#
# Bulk Modulus (GPa) = 36.07826 38.03311 37.05568
# Shear Modulus (GPa) = 19.33699 26.29720 22.81709
#
# Velocity S-wave (km/s) = 3.15122 3.67485 3.42307
# Velocity P-wave (km/s) = 5.63629 6.12678 5.88664
#
# Compressibility (1/GPa) = 0.02771753
#
# Stress axis : x y z
#
# Youngs Moduli (GPa) = 106.96097 83.86342 68.72034
#
# Poissons Ratio (x) = 0.08829 0.17531
# Poissons Ratio (y) = 0.11261 0.03092
# Poissons Ratio (z) = 0.27287 0.03773
#
# Static dielectric constant tensor:
#      x y z
#    x 1.696770 0.000000 0.000000 
#    y 0.000000 1.737310 0.000000 
#    z 0.000000 0.000000 1.689300 
# 
# From -- ./inp_files/33463.got.cif
#   From: 2010.05.17/outbox.cif.g08.bks.cpg/sg21_17_cif.got.tgz:33463.got - 2010.06.03 23:14:55.
