data_PCOD9322944
_publ_section_title
;
Structure prediction by ZEFSAII (Michael W. Deem and Ramdas Pophale) SiO2 
 PCOD9322944
Probable space group: C 2 2 2
;
_chemical_formula_sum "Si O2"
_cell_formula_units_Z 48
_cell_length_a 10.507034
_cell_length_b 28.297208
_cell_length_c 7.281421
_cell_angle_alpha 90.000000
_cell_angle_beta 90.000000
_cell_angle_gamma 90.000000
_cell_volume 2164.910101
_symmetry_space_group_name_H-M "C 2 2 2"
_symmetry_group_IT_number 21
_symmetry_cell_setting 'orthorhombic'
loop_
_space_group_symop_operation_xyz
x,y,z
-x,-y,z
x,-y,-z
-x,y,-z
1/2+x,1/2+y,z
1/2-x,1/2-y,z
1/2+x,1/2-y,-z
1/2-x,1/2+y,-z
loop_
_atom_site_type_symbol
_atom_site_label
_atom_site_fract_x
_atom_site_fract_y
_atom_site_fract_z
Si Si1 0.752029 0.907411 0.226591
Si Si2 0.853733 0.494120 0.222699
Si Si3 0.400435 0.247247 0.342704
Si Si4 0.479903 0.847379 0.793705
Si Si5 0.263353 0.109618 0.781105
Si Si6 0.006129 0.149812 0.221180
O O1 0.732415 0.961623 0.277686
O O2 0.628671 0.879096 0.297543
O O3 0.884950 0.885848 0.286494
O O4 0.749972 0.897702 0.004225
O O5 0.799580 0.443369 0.279174
O O6 0.000000 0.500000 0.283114
O O7 0.856901 0.500000 0.000000
O O8 0.500000 0.232207 0.500000
O O9 0.750000 0.250000 0.611093
O O10 0.423505 0.205264 0.197267
O O11 0.450440 0.298102 0.279763
O O12 0.622069 0.855482 0.722715
O O13 0.500000 0.866116 0.000000
O O14 0.131953 0.132459 0.715555
O O15 0.000000 0.150098 0.000000
#
# Coordination Sequence:
#
# PCOD9322944 Si02
#       6
#     8   8   8   8   8   8
#     4   9  16  30  51  80 116 151 180 224 280 330
#     4   9  14  24  45  79 119 150 179 222 273 328
#     4  12  27  43  58  81 111 148 191 240 291 342
#     4  10  19  36  60  83 110 149 189 228 279 334
#     4   9  18  28  52  85 114 145 185 225 274 333
#     4  10  21  38  57  83 116 148 187 236 284 334
#
# _framework density 22.171821000000001
#
# number of rings (size 3 to 8) (size 9 to 14) (size 15 to 20)
#    0.000    2.167    3.333    0.500    2.333    0.667 
#    0.000    3.333    0.000    0.000    0.000    7.000 
#    0.000    0.000    0.000    0.000    0.000    0.000 
#
# Total GULP energy -133941.800104 kJ/mol
# GULP energy per Si atom -5580.908338 kJ/mol
# Density = 2.212136 g / cm^3
# Si number density = 22.171821 Si / 1000 Ang^3
#
#
#
# Elastic Constant Matrix: (Units=GPa)
#
#
# Indices 1 2 3 4 5 6 
#
# 1 225.4584 86.1809 3.2466 0.0000 0.0000 0.0000
# 2 86.1809 143.7569 -27.3702 0.0000 0.0000 0.0000
# 3 3.2466 -27.3702 59.7414 0.0000 0.0000 0.0000
# 4 0.0000 0.0000 0.0000 -24.3469 0.0000 0.0000
# 5 0.0000 0.0000 0.0000 0.0000 -6.1744 0.0000
# 6 0.0000 0.0000 0.0000 0.0000 0.0000 45.1353
#
#
#
# Elastic Compliance Matrix: (Units=1/GPa)
#
#
# Indices 1 2 3 4 5 6 
#
# 1 0.005998 -0.004008 -0.002162 0.000000 0.000000 0.000000
# 2 -0.004008 0.010299 0.004936 0.000000 0.000000 0.000000
# 3 -0.002162 0.004936 0.019118 0.000000 0.000000 0.000000
# 4 0.000000 0.000000 0.000000 -0.041073 0.000000 0.000000
# 5 0.000000 0.000000 0.000000 0.000000 -0.161959 0.000000
# 6 0.000000 0.000000 0.000000 0.000000 0.000000 0.022156
#
#
# Mechanical properties :
#
#
# Convention : Reuss Voigt Hill
#
# Bulk Modulus (GPa) = 30.35156 61.45237 45.90196
# Shear Modulus (GPa) = -37.87535 27.38276 -5.24629
#
# Velocity S-wave (km/s) = -4.13760 3.51811 -1.53991
# Velocity P-wave (km/s) = 3.01784 6.65427 4.19357
#
# Compressibility (1/GPa) = 0.03294724
#
# Stress axis : x y z
#
# Youngs Moduli (GPa) = 166.70946 97.10129 52.30753
#
# Poissons Ratio (x) = 0.38915 0.11309
# Poissons Ratio (y) = 0.66812 -0.25819
# Poissons Ratio (z) = 0.36044 -0.47929
#
# Static dielectric constant tensor:
#      x y z
#    x 1.803050 0.000000 0.000000 
#    y 0.000000 1.781170 0.000000 
#    z 0.000000 0.000000 1.914120 
# 
# From -- ./inp_files/11527.got.cif
#   From: 2010.05.17/outbox.cif.g08.bks.cpg/sg21_6_cif.got.tgz:11527.got - 2010.06.03 23:14:55.
