data_PCOD9322747
_publ_section_title
;
Structure prediction by ZEFSAII (Michael W. Deem and Ramdas Pophale) SiO2 
 PCOD9322747
Probable space group: C 2 2 2
;
_chemical_formula_sum "Si O2"
_cell_formula_units_Z 32
_cell_length_a 39.321645
_cell_length_b 8.009099
_cell_length_c 5.137996
_cell_angle_alpha 90.000000
_cell_angle_beta 90.000000
_cell_angle_gamma 90.000000
_cell_volume 1618.113949
_symmetry_space_group_name_H-M "C 2 2 2"
_symmetry_group_IT_number 21
_symmetry_cell_setting 'orthorhombic'
loop_
_space_group_symop_operation_xyz
x,y,z
-x,-y,z
x,-y,-z
-x,y,-z
1/2+x,1/2+y,z
1/2-x,1/2-y,z
1/2+x,1/2-y,-z
1/2-x,1/2+y,-z
loop_
_atom_site_type_symbol
_atom_site_label
_atom_site_fract_x
_atom_site_fract_y
_atom_site_fract_z
Si Si1 0.720279 0.116957 0.747142
Si Si2 0.855299 0.383182 0.751516
Si Si3 0.580492 0.299402 0.991245
Si Si4 0.460813 0.704203 0.502893
O O1 0.750000 0.250000 0.768618
O O2 0.682260 0.193408 0.707073
O O3 0.726328 0.000000 0.500000
O O4 0.720755 0.000000 0.000000
O O5 0.863802 0.500000 0.500000
O O6 0.884415 0.261291 0.859328
O O7 0.850800 0.500000 0.000000
O O8 0.553237 0.242132 0.779966
O O9 0.581936 0.500000 0.000000
O O10 0.565365 0.244241 0.271975
O O11 0.461026 0.500000 0.500000
O O12 0.500000 0.758440 0.500000
#
# Coordination Sequence:
#
# PCOD9322747 Si02
#       4
#     8   8   8   8
#     4  10  21  38  59  84 113 149 190 232 282 337
#     4  10  21  37  55  77 111 149 180 220 283 342
#     4  10  19  32  53  80 105 137 184 227 267 325
#     4   9  17  30  50  77 107 136 173 227 281 322
#
# _framework density 19.776112000000001
#
# number of rings (size 3 to 8) (size 9 to 14) (size 15 to 20)
#    0.000    2.250    0.000    3.000    0.000    4.000 
#    0.000    3.750    0.000   11.250    0.000    0.000 
#    0.000    0.000    0.000    0.000    0.000    0.000 
#
# Total GULP energy -89083.476921 kJ/mol
# GULP energy per Si atom -5567.717308 kJ/mol
# Density = 1.973110 g / cm^3
# Si number density = 19.776112 Si / 1000 Ang^3
#
#
#
# Elastic Constant Matrix: (Units=GPa)
#
#
# Indices 1 2 3 4 5 6 
#
# 1 167.9002 56.0100 45.0169 0.0000 0.0000 0.0000
# 2 56.0100 24.9636 30.6560 0.0000 0.0000 0.0000
# 3 45.0169 30.6560 153.5802 0.0000 0.0000 0.0000
# 4 0.0000 0.0000 0.0000 14.4911 0.0000 0.0000
# 5 0.0000 0.0000 0.0000 0.0000 32.4724 0.0000
# 6 0.0000 0.0000 0.0000 0.0000 0.0000 14.3574
#
#
#
# Elastic Compliance Matrix: (Units=1/GPa)
#
#
# Indices 1 2 3 4 5 6 
#
# 1 0.026766 -0.066791 0.005487 0.000000 0.000000 0.000000
# 2 -0.066791 0.219737 -0.024284 0.000000 0.000000 0.000000
# 3 0.005487 -0.024284 0.009750 0.000000 0.000000 0.000000
# 4 0.000000 0.000000 0.000000 0.069008 0.000000 0.000000
# 5 0.000000 0.000000 0.000000 0.000000 0.030795 0.000000
# 6 0.000000 0.000000 0.000000 0.000000 0.000000 0.069650
#
#
# Mechanical properties :
#
#
# Convention : Reuss Voigt Hill
#
# Bulk Modulus (GPa) = 11.75421 67.75664 39.75542
# Shear Modulus (GPa) = 7.99690 26.58159 17.28924
#
# Velocity S-wave (km/s) = 2.01308 3.67021 2.95998
# Velocity P-wave (km/s) = 3.37044 7.23165 5.64166
#
# Compressibility (1/GPa) = 0.08507593
#
# Stress axis : x y z
#
# Youngs Moduli (GPa) = 37.36105 4.55090 102.56077
#
# Poissons Ratio (x) = 0.30396 -0.56272
# Poissons Ratio (y) = 2.49539 2.49058
# Poissons Ratio (z) = -0.20499 0.11051
#
# Static dielectric constant tensor:
#      x y z
#    x 1.788040 0.000000 0.000000 
#    y 0.000000 1.708600 0.000000 
#    z 0.000000 0.000000 1.672710 
# 
# From -- ./inp_files/1569.got.cif
#   From: 2010.05.17/outbox.cif.g08.bks.cpg/sg21_1_cif.got.tgz:1569.got - 2010.06.03 23:14:55.
