data_PCOD9322044
_publ_section_title
;
Structure prediction by ZEFSAII (Michael W. Deem and Ramdas Pophale) SiO2 
 PCOD9322044
Probable space group: C 2 2 21
;
_chemical_formula_sum "Si O2"
_cell_formula_units_Z 28
_cell_length_a 5.467877
_cell_length_b 19.592999
_cell_length_c 10.451847
_cell_angle_alpha 90.000000
_cell_angle_beta 90.000000
_cell_angle_gamma 90.000000
_cell_volume 1119.728408
_symmetry_space_group_name_H-M "C 2 2 21"
_symmetry_group_IT_number 20
_symmetry_cell_setting 'orthorhombic'
loop_
_space_group_symop_operation_xyz
x,y,z
-x,-y,1/2+z
x,-y,-z
-x,y,1/2-z
1/2+x,1/2+y,z
1/2-x,1/2-y,1/2+z
1/2+x,1/2-y,-z
1/2-x,1/2+y,1/2-z
loop_
_atom_site_type_symbol
_atom_site_label
_atom_site_fract_x
_atom_site_fract_y
_atom_site_fract_z
Si Si1 0.860552 0.857652 0.388364
Si Si2 0.359914 0.281086 0.882686
Si Si3 0.398244 0.500000 0.500000
Si Si4 0.000000 0.060351 0.250000
Si Si5 0.000000 0.637184 0.250000
O O1 0.651679 0.800215 0.383051
O O2 0.000000 0.861962 0.250000
O O3 0.030786 0.822622 0.498746
O O4 0.775304 0.931940 0.438768
O O5 0.500000 0.297628 0.750000
O O6 0.090209 0.311715 0.860201
O O7 0.561661 0.522571 0.380773
O O8 0.734942 0.092601 0.283138
#
# Coordination Sequence:
#
# PCOD9322044 Si02
#       5
#     8   8   4   4   4
#     4  12  26  47  80 116 163 209 277 335 418 493
#     4  12  26  51  84 121 163 215 278 351 419 493
#     4  12  26  52  72 118 162 220 264 350 400 504
#     4  12  28  51  80 117 168 216 276 340 430 483
#     4  12  24  51  82 121 158 216 264 352 414 489
#
# _framework density 25.006063000000001
#
# number of rings (size 3 to 8) (size 9 to 14) (size 15 to 20)
#    0.000    0.000    7.143    1.714    4.000    1.143 
#    2.571    0.000    0.000    0.000    0.000    0.000 
#    0.000    0.000    0.000    0.000    0.000    0.000 
#
# Total GULP energy -78042.953405 kJ/mol
# GULP energy per Si atom -5574.496672 kJ/mol
# Density = 2.494915 g / cm^3
# Si number density = 25.006063 Si / 1000 Ang^3
#
#
#
# Elastic Constant Matrix: (Units=GPa)
#
#
# Indices 1 2 3 4 5 6 
#
# 1 85.4136 44.5451 49.0084 0.0000 0.0000 0.0000
# 2 44.5451 138.6248 65.3552 0.0000 0.0000 0.0000
# 3 49.0084 65.3552 205.5215 0.0000 0.0000 0.0000
# 4 0.0000 0.0000 0.0000 50.0872 0.0000 0.0000
# 5 0.0000 0.0000 0.0000 0.0000 44.4385 0.0000
# 6 0.0000 0.0000 0.0000 0.0000 0.0000 -13.2877
#
#
#
# Elastic Compliance Matrix: (Units=1/GPa)
#
#
# Indices 1 2 3 4 5 6 
#
# 1 0.015013 -0.003690 -0.002407 0.000000 0.000000 0.000000
# 2 -0.003690 0.009393 -0.002107 0.000000 0.000000 0.000000
# 3 -0.002407 -0.002107 0.006110 0.000000 0.000000 0.000000
# 4 0.000000 0.000000 0.000000 0.019965 0.000000 0.000000
# 5 0.000000 0.000000 0.000000 0.000000 0.022503 0.000000
# 6 0.000000 0.000000 0.000000 0.000000 0.000000 -0.075258
#
#
# Mechanical properties :
#
#
# Convention : Reuss Voigt Hill
#
# Bulk Modulus (GPa) = 70.87879 83.04191 76.96035
# Shear Modulus (GPa) = 265.46723 34.29103 149.87913
#
# Velocity S-wave (km/s) = 10.31463 3.70714 7.75031
# Velocity P-wave (km/s) = 13.04843 7.18363 10.53248
#
# Compressibility (1/GPa) = 0.01410859
#
# Stress axis : x y z
#
# Youngs Moduli (GPa) = 66.60984 106.46609 163.67691
#
# Poissons Ratio (x) = 0.39281 0.39392
# Poissons Ratio (y) = 0.24576 0.34487
# Poissons Ratio (z) = 0.16031 0.22433
#
# Static dielectric constant tensor:
#      x y z
#    x 1.959320 0.000000 0.000000 
#    y 0.000000 2.192840 0.000000 
#    z 0.000000 0.000000 2.105300 
# 
# From -- ./inp_files/11868.got.cif
#   From: 2010.05.17/outbox.cif.g08.bks.cpg/sg20_6_cif.got.tgz:11868.got - 2010.06.03 22:52:26.
