data_PCOD9322697
_publ_section_title
;
Structure prediction by ZEFSAII (Michael W. Deem and Ramdas Pophale) SiO2 
 PCOD9322697
Probable space group: C 2 2 2
;
_chemical_formula_sum "Si O2"
_cell_formula_units_Z 32
_cell_length_a 5.189938
_cell_length_b 31.349363
_cell_length_c 9.960940
_cell_angle_alpha 90.000000
_cell_angle_beta 90.000000
_cell_angle_gamma 90.000000
_cell_volume 1620.657392
_symmetry_space_group_name_H-M "C 2 2 2"
_symmetry_group_IT_number 21
_symmetry_cell_setting 'orthorhombic'
loop_
_space_group_symop_operation_xyz
x,y,z
-x,-y,z
x,-y,-z
-x,y,-z
1/2+x,1/2+y,z
1/2-x,1/2-y,z
1/2+x,1/2-y,-z
1/2-x,1/2+y,-z
loop_
_atom_site_type_symbol
_atom_site_label
_atom_site_fract_x
_atom_site_fract_y
_atom_site_fract_z
Si Si1 0.917189 0.336287 0.757521
Si Si2 0.756216 0.980555 0.847415
Si Si3 0.000000 0.724426 0.000000
Si Si4 0.000000 0.721198 0.500000
Si Si5 0.929727 0.882780 0.845842
O O1 0.694236 0.372334 0.766805
O O2 0.881388 0.303948 0.881342
O O3 0.916191 0.309054 0.622638
O O4 0.200070 0.355340 0.783701
O O5 0.810667 0.930501 0.851709
O O6 0.500000 0.000000 0.785704
O O7 0.000000 0.000000 0.774219
O O8 0.754041 0.000000 0.000000
O O9 0.750000 0.750000 0.946837
O O10 0.750000 0.750000 0.535585
O O11 0.000000 0.872218 0.000000
#
# Coordination Sequence:
#
# PCOD9322697 Si02
#       5
#     8   8   4   4   8
#     4  12  25  40  64  91 126 169 211 272 331 377
#     4  10  19  30  53  86 134 166 201 238 312 369
#     4  12  22  36  56  88 119 152 201 260 332 388
#     4  12  26  50  70  88 123 174 233 272 320 400
#     4  12  21  38  59  97 136 163 203 270 322 380
#
# _framework density 19.745075
#
# number of rings (size 3 to 8) (size 9 to 14) (size 15 to 20)
#    0.000    0.500    5.000    6.000    3.500    0.000 
#    0.000    0.000    0.000    0.000    0.000   13.125 
#    0.000    0.000    0.000    0.000    0.000    0.000 
#
# Total GULP energy -89240.762073 kJ/mol
# GULP energy per Si atom -5577.547630 kJ/mol
# Density = 1.970013 g / cm^3
# Si number density = 19.745075 Si / 1000 Ang^3
#
#
#
# Elastic Constant Matrix: (Units=GPa)
#
#
# Indices 1 2 3 4 5 6 
#
# 1 170.8054 31.6558 8.8914 0.0000 0.0000 0.0000
# 2 31.6558 88.8833 37.0795 0.0000 0.0000 0.0000
# 3 8.8914 37.0795 71.8739 0.0000 0.0000 0.0000
# 4 0.0000 0.0000 0.0000 19.4379 0.0000 0.0000
# 5 0.0000 0.0000 0.0000 0.0000 15.5069 0.0000
# 6 0.0000 0.0000 0.0000 0.0000 0.0000 57.7611
#
#
#
# Elastic Compliance Matrix: (Units=1/GPa)
#
#
# Indices 1 2 3 4 5 6 
#
# 1 0.006281 -0.002438 0.000480 0.000000 0.000000 0.000000
# 2 -0.002438 0.015282 -0.007582 0.000000 0.000000 0.000000
# 3 0.000480 -0.007582 0.017766 0.000000 0.000000 0.000000
# 4 0.000000 0.000000 0.000000 0.051446 0.000000 0.000000
# 5 0.000000 0.000000 0.000000 0.000000 0.064487 0.000000
# 6 0.000000 0.000000 0.000000 0.000000 0.000000 0.017313
#
#
# Mechanical properties :
#
#
# Convention : Reuss Voigt Hill
#
# Bulk Modulus (GPa) = 49.38280 54.09067 51.73673
# Shear Modulus (GPa) = 25.20114 35.47024 30.33569
#
# Velocity S-wave (km/s) = 3.57645 4.24301 3.92390
# Velocity P-wave (km/s) = 6.48992 7.17343 6.84022
#
# Compressibility (1/GPa) = 0.02024997
#
# Stress axis : x y z
#
# Youngs Moduli (GPa) = 159.20117 65.43647 56.28871
#
# Poissons Ratio (x) = 0.15950 -0.02704
# Poissons Ratio (y) = 0.38806 0.42680
# Poissons Ratio (z) = -0.07649 0.49616
#
# Static dielectric constant tensor:
#      x y z
#    x 1.734830 0.000000 0.000000 
#    y 0.000000 1.796880 0.000000 
#    z 0.000000 0.000000 1.624040 
# 
# From -- ./inp_files/9193.got.cif
#   From: 2010.05.17/outbox.cif.g08.bks.cpg/sg21_5_cif.got.tgz:9193.got - 2010.06.03 23:14:55.
