data_PCOD9322889
_publ_section_title
;
Structure prediction by ZEFSAII (Michael W. Deem and Ramdas Pophale) SiO2 
 PCOD9322889
Probable space group: C 2 2 2
;
_chemical_formula_sum "Si O2"
_cell_formula_units_Z 24
_cell_length_a 13.593929
_cell_length_b 13.151850
_cell_length_c 5.220577
_cell_angle_alpha 90.000000
_cell_angle_beta 90.000000
_cell_angle_gamma 90.000000
_cell_volume 933.362504
_symmetry_space_group_name_H-M "C 2 2 2"
_symmetry_group_IT_number 21
_symmetry_cell_setting 'orthorhombic'
loop_
_space_group_symop_operation_xyz
x,y,z
-x,-y,z
x,-y,-z
-x,y,-z
1/2+x,1/2+y,z
1/2-x,1/2-y,z
1/2+x,1/2-y,-z
1/2-x,1/2+y,-z
loop_
_atom_site_type_symbol
_atom_site_label
_atom_site_fract_x
_atom_site_fract_y
_atom_site_fract_z
Si Si1 0.334641 0.378391 0.505527
Si Si2 0.396140 0.885552 0.393029
Si Si3 0.634649 0.737358 0.007818
O O1 0.343372 0.500000 0.500000
O O2 0.215268 0.354983 0.517843
O O3 0.381459 0.334991 0.764451
O O4 0.386848 0.323657 0.265981
O O5 0.500000 0.844298 0.500000
O O6 0.398627 0.849112 0.094657
O O7 0.397423 0.000000 0.500000
O O8 0.750000 0.750000 0.027184
#
# Coordination Sequence:
#
# PCOD9322889 Si02
#       3
#     8   8   8
#     4  10  20  36  59  88 123 167 218 265 312 378
#     4   9  19  37  63  99 138 170 208 270 344 404
#     4  10  19  35  58  88 126 169 214 257 314 389
#
# _framework density 25.713484000000001
#
# number of rings (size 3 to 8) (size 9 to 14) (size 15 to 20)
#    0.000    2.333    0.000    4.000    0.000    0.000 
#    0.000   20.000    0.000   45.000    0.000   44.333 
#    0.000    0.000    0.000    0.000    0.000    0.000 
#
# Total GULP energy -66830.895429 kJ/mol
# GULP energy per Si atom -5569.241286 kJ/mol
# Density = 2.565496 g / cm^3
# Si number density = 25.713484 Si / 1000 Ang^3
#
#
#
# Elastic Constant Matrix: (Units=GPa)
#
#
# Indices 1 2 3 4 5 6 
#
# 1 148.9428 38.0384 31.0071 0.0000 0.0000 0.0000
# 2 38.0384 189.0627 91.9649 0.0000 0.0000 0.0000
# 3 31.0071 91.9649 227.7356 0.0000 0.0000 0.0000
# 4 0.0000 0.0000 0.0000 37.1729 0.0000 0.0000
# 5 0.0000 0.0000 0.0000 0.0000 17.4177 0.0000
# 6 0.0000 0.0000 0.0000 0.0000 0.0000 13.0472
#
#
#
# Elastic Compliance Matrix: (Units=1/GPa)
#
#
# Indices 1 2 3 4 5 6 
#
# 1 0.007121 -0.001196 -0.000487 0.000000 0.000000 0.000000
# 2 -0.001196 0.006783 -0.002576 0.000000 0.000000 0.000000
# 3 -0.000487 -0.002576 0.005498 0.000000 0.000000 0.000000
# 4 0.000000 0.000000 0.000000 0.026901 0.000000 0.000000
# 5 0.000000 0.000000 0.000000 0.000000 0.057413 0.000000
# 6 0.000000 0.000000 0.000000 0.000000 0.000000 0.076645
#
#
# Mechanical properties :
#
#
# Convention : Reuss Voigt Hill
#
# Bulk Modulus (GPa) = 91.88000 98.64022 95.26011
# Shear Modulus (GPa) = 25.97316 40.50959 33.24138
#
# Velocity S-wave (km/s) = 3.18165 3.97346 3.59940
# Velocity P-wave (km/s) = 7.02190 7.71335 7.37573
#
# Compressibility (1/GPa) = 0.01088376
#
# Stress axis : x y z
#
# Youngs Moduli (GPa) = 140.43529 147.42597 181.89489
#
# Poissons Ratio (x) = 0.17632 0.08850
# Poissons Ratio (y) = 0.16796 0.46862
# Poissons Ratio (z) = 0.06833 0.37982
#
# Static dielectric constant tensor:
#      x y z
#    x 2.020500 0.000000 0.000000 
#    y 0.000000 2.110760 0.000000 
#    z 0.000000 0.000000 2.152640 
# 
# From -- ./inp_files/3180.got.cif
#   From: 2010.05.17/outbox.cif.g08.bks.cpg/sg21_2_cif.got.tgz:3180.got - 2010.06.03 23:14:55.
