data_PCOD9322838
_publ_section_title
;
Structure prediction by ZEFSAII (Michael W. Deem and Ramdas Pophale) SiO2 
 PCOD9322838
Probable space group: C 2 2 2
;
_chemical_formula_sum "Si O2"
_cell_formula_units_Z 54
_cell_length_a 12.741441
_cell_length_b 16.169398
_cell_length_c 13.928330
_cell_angle_alpha 90.000000
_cell_angle_beta 90.000000
_cell_angle_gamma 90.000000
_cell_volume 2869.534473
_symmetry_space_group_name_H-M "C 2 2 2"
_symmetry_group_IT_number 21
_symmetry_cell_setting 'orthorhombic'
loop_
_space_group_symop_operation_xyz
x,y,z
-x,-y,z
x,-y,-z
-x,y,-z
1/2+x,1/2+y,z
1/2-x,1/2-y,z
1/2+x,1/2-y,-z
1/2-x,1/2+y,-z
loop_
_atom_site_type_symbol
_atom_site_label
_atom_site_fract_x
_atom_site_fract_y
_atom_site_fract_z
Si Si1 0.000000 0.000000 0.500000
Si Si2 0.781876 0.557014 0.092363
Si Si3 0.000000 0.276971 0.500000
Si Si4 0.657935 0.317296 0.803483
Si Si5 0.022861 0.316532 0.109540
Si Si6 0.604654 0.055614 0.240308
Si Si7 0.854129 0.136521 0.584898
Si Si8 0.159389 0.587891 0.449304
O O1 0.072713 0.941967 0.564416
O O2 0.681267 0.610891 0.120426
O O3 0.880257 0.620368 0.089423
O O4 0.816731 0.496811 0.176507
O O5 0.771150 0.500000 0.000000
O O6 0.078654 0.217494 0.442982
O O7 0.071405 0.341304 0.556610
O O8 0.750000 0.250000 0.812264
O O9 0.556178 0.263051 0.827879
O O10 0.669163 0.354014 0.696870
O O11 0.939094 0.369123 0.173252
O O12 0.000000 0.289577 0.000000
O O13 0.671038 0.071704 0.336663
O O14 0.500000 0.000000 0.264271
O O15 0.754692 0.123826 0.514060
O O16 0.130732 0.500000 0.500000
#
# Coordination Sequence:
#
# PCOD9322838 Si02
#       8
#     2   8   4   8   8   8   8   8
#     4  10  24  44  62  82 120 172 218 248 304 388
#     4  10  19  34  58  88 119 159 199 252 311 373
#     4  11  23  37  63  86 130 162 205 257 321 367
#     4  10  21  36  60  88 120 161 204 247 315 376
#     4  10  19  36  60  87 124 159 206 258 318 372
#     4  10  20  32  59  93 124 157 202 258 320 368
#     4  11  23  43  63  86 127 172 212 254 320 385
#     4  12  22  37  62  97 128 159 212 267 308 376
#
# _framework density 18.818383000000001
#
# number of rings (size 3 to 8) (size 9 to 14) (size 15 to 20)
#    0.000    1.481    2.222    4.222    0.000    2.370 
#    0.000    1.481    6.519    0.000    0.000    0.000 
#    0.000    0.000    0.000    0.000    0.000    0.000 
#
# Total GULP energy -150409.017014 kJ/mol
# GULP energy per Si atom -5570.704334 kJ/mol
# Density = 1.877555 g / cm^3
# Si number density = 18.818383 Si / 1000 Ang^3
#
#
#
# Elastic Constant Matrix: (Units=GPa)
#
#
# Indices 1 2 3 4 5 6 
#
# 1 26.0824 32.0135 19.7326 0.0000 0.0000 0.0000
# 2 32.0135 112.9963 47.8284 0.0000 0.0000 0.0000
# 3 19.7326 47.8284 133.7332 0.0000 0.0000 0.0000
# 4 0.0000 0.0000 0.0000 4.9808 0.0000 0.0000
# 5 0.0000 0.0000 0.0000 0.0000 15.1073 0.0000
# 6 0.0000 0.0000 0.0000 0.0000 0.0000 7.1966
#
#
#
# Elastic Compliance Matrix: (Units=1/GPa)
#
#
# Indices 1 2 3 4 5 6 
#
# 1 0.059967 -0.015607 -0.003267 0.000000 0.000000 0.000000
# 2 -0.015607 0.014490 -0.002879 0.000000 0.000000 0.000000
# 3 -0.003267 -0.002879 0.008989 0.000000 0.000000 0.000000
# 4 0.000000 0.000000 0.000000 0.200769 0.000000 0.000000
# 5 0.000000 0.000000 0.000000 0.000000 0.066193 0.000000
# 6 0.000000 0.000000 0.000000 0.000000 0.000000 0.138954
#
#
# Mechanical properties :
#
#
# Convention : Reuss Voigt Hill
#
# Bulk Modulus (GPa) = 25.03697 52.44011 38.73854
# Shear Modulus (GPa) = 9.15444 17.00611 13.08028
#
# Velocity S-wave (km/s) = 2.20798 3.00942 2.63930
# Velocity P-wave (km/s) = 4.45350 6.32474 5.46974
#
# Compressibility (1/GPa) = 0.03994094
#
# Stress axis : x y z
#
# Youngs Moduli (GPa) = 16.67572 69.01143 111.24219
#
# Poissons Ratio (x) = 1.07706 0.36339
# Poissons Ratio (y) = 0.26026 0.32032
# Poissons Ratio (z) = 0.05447 0.19872
#
# Static dielectric constant tensor:
#      x y z
#    x 1.695270 0.000000 0.000000 
#    y 0.000000 1.679560 0.000000 
#    z 0.000000 0.000000 1.732790 
# 
# From -- ./inp_files/25327.got.cif
#   From: 2010.05.17/outbox.cif.g08.bks.cpg/sg21_13_cif.got.tgz:25327.got - 2010.06.03 23:14:55.
