data_PCOD9322890
_publ_section_title
;
Structure prediction by ZEFSAII (Michael W. Deem and Ramdas Pophale) SiO2 
 PCOD9322890
Probable space group: C 2 2 2
;
_chemical_formula_sum "Si O2"
_cell_formula_units_Z 48
_cell_length_a 11.117784
_cell_length_b 17.239928
_cell_length_c 12.101001
_cell_angle_alpha 90.000000
_cell_angle_beta 90.000000
_cell_angle_gamma 90.000000
_cell_volume 2319.396389
_symmetry_space_group_name_H-M "C 2 2 2"
_symmetry_group_IT_number 21
_symmetry_cell_setting 'orthorhombic'
loop_
_space_group_symop_operation_xyz
x,y,z
-x,-y,z
x,-y,-z
-x,y,-z
1/2+x,1/2+y,z
1/2-x,1/2-y,z
1/2+x,1/2-y,-z
1/2-x,1/2+y,-z
loop_
_atom_site_type_symbol
_atom_site_label
_atom_site_fract_x
_atom_site_fract_y
_atom_site_fract_z
Si Si1 0.640934 0.594225 0.505566
Si Si2 0.494480 0.668250 0.129168
Si Si3 0.292394 0.412145 0.265832
Si Si4 0.225680 0.094990 0.744677
Si Si5 0.363888 0.917787 0.046148
Si Si6 0.352257 0.190017 0.137543
O O1 0.641793 0.500000 0.500000
O O2 0.500000 0.617715 0.500000
O O3 0.699493 0.618603 0.390414
O O4 0.711139 0.620008 0.616429
O O5 0.598026 0.622053 0.194608
O O6 0.370962 0.643762 0.185638
O O7 0.527602 0.759673 0.137376
O O8 0.500000 0.647843 0.000000
O O9 0.308130 0.504107 0.260731
O O10 0.165652 0.384143 0.215125
O O11 0.343199 0.092689 0.823677
O O12 0.500000 0.918144 0.000000
O O13 0.313542 0.843244 0.981472
O O14 0.310653 0.000000 0.000000
O O15 0.250000 0.250000 0.174836
#
# Coordination Sequence:
#
# PCOD9322890 Si02
#       6
#     8   8   8   8   8   8
#     4   9  17  32  56  92 128 160 208 282 335 374
#     4  11  22  32  56  90 127 165 209 266 333 399
#     4  10  19  35  58  90 132 169 209 273 333 393
#     4  11  20  35  61  94 124 164 226 272 325 393
#     4  11  23  39  60  86 121 169 219 268 324 399
#     4  10  21  38  58  84 127 172 201 259 340 390
#
# _framework density 20.695039999999999
#
# number of rings (size 3 to 8) (size 9 to 14) (size 15 to 20)
#    0.000    1.667    3.333    3.000    0.000    0.667 
#    0.000    0.000    0.000   22.000    0.000    0.000 
#    0.000    0.000    0.000    0.000    0.000    0.000 
#
# Total GULP energy -133700.221654 kJ/mol
# GULP energy per Si atom -5570.842569 kJ/mol
# Density = 2.064794 g / cm^3
# Si number density = 20.695040 Si / 1000 Ang^3
#
#
#
# Elastic Constant Matrix: (Units=GPa)
#
#
# Indices 1 2 3 4 5 6 
#
# 1 60.0523 13.0235 52.6849 0.0000 0.0000 0.0000
# 2 13.0235 66.1144 18.0207 0.0000 0.0000 0.0000
# 3 52.6849 18.0207 202.2759 0.0000 0.0000 0.0000
# 4 0.0000 0.0000 0.0000 7.7947 0.0000 0.0000
# 5 0.0000 0.0000 0.0000 0.0000 20.7190 0.0000
# 6 0.0000 0.0000 0.0000 0.0000 0.0000 31.4653
#
#
#
# Elastic Compliance Matrix: (Units=1/GPa)
#
#
# Indices 1 2 3 4 5 6 
#
# 1 0.022097 -0.002853 -0.005501 0.000000 0.000000 0.000000
# 2 -0.002853 0.015870 -0.000671 0.000000 0.000000 0.000000
# 3 -0.005501 -0.000671 0.006436 0.000000 0.000000 0.000000
# 4 0.000000 0.000000 0.000000 0.128292 0.000000 0.000000
# 5 0.000000 0.000000 0.000000 0.000000 0.048265 0.000000
# 6 0.000000 0.000000 0.000000 0.000000 0.000000 0.031781
#
#
# Mechanical properties :
#
#
# Convention : Reuss Voigt Hill
#
# Bulk Modulus (GPa) = 37.94599 55.10007 46.52303
# Shear Modulus (GPa) = 17.88420 28.31003 23.09712
#
# Velocity S-wave (km/s) = 2.94288 3.70261 3.34439
# Velocity P-wave (km/s) = 5.47019 6.70535 6.11901
#
# Compressibility (1/GPa) = 0.02635324
#
# Stress axis : x y z
#
# Youngs Moduli (GPa) = 45.25439 63.01130 155.36734
#
# Poissons Ratio (x) = 0.17979 0.85472
# Poissons Ratio (y) = 0.12913 0.10420
# Poissons Ratio (z) = 0.24896 0.04226
#
# Static dielectric constant tensor:
#      x y z
#    x 1.837800 0.000000 0.000000 
#    y 0.000000 1.801430 0.000000 
#    z 0.000000 0.000000 1.773840 
# 
# From -- ./inp_files/24072.got.cif
#   From: 2010.05.17/outbox.cif.g08.bks.cpg/sg21_13_cif.got.tgz:24072.got - 2010.06.03 23:14:55.
