data_PCOD9322482
_publ_section_title
;
Structure prediction by ZEFSAII (Michael W. Deem and Ramdas Pophale) SiO2 
 PCOD9322482
Probable space group: C 2 2 2
;
_chemical_formula_sum "Si O2"
_cell_formula_units_Z 44
_cell_length_a 23.374098
_cell_length_b 13.126628
_cell_length_c 6.618991
_cell_angle_alpha 90.000000
_cell_angle_beta 90.000000
_cell_angle_gamma 90.000000
_cell_volume 2030.859267
_symmetry_space_group_name_H-M "C 2 2 2"
_symmetry_group_IT_number 21
_symmetry_cell_setting 'orthorhombic'
loop_
_space_group_symop_operation_xyz
x,y,z
-x,-y,z
x,-y,-z
-x,y,-z
1/2+x,1/2+y,z
1/2-x,1/2-y,z
1/2+x,1/2-y,-z
1/2-x,1/2+y,-z
loop_
_atom_site_type_symbol
_atom_site_label
_atom_site_fract_x
_atom_site_fract_y
_atom_site_fract_z
Si Si1 0.448797 0.784988 0.623324
Si Si2 0.923047 0.089838 0.345173
Si Si3 0.500000 0.336275 0.000000
Si Si4 0.707372 0.608578 0.592244
Si Si5 0.728712 0.381451 0.990861
Si Si6 0.325951 0.225607 0.257143
O O1 0.500000 0.842460 0.500000
O O2 0.435776 0.692473 0.469464
O O3 0.469982 0.736104 0.833853
O O4 0.385521 0.826037 0.679969
O O5 0.855290 0.082287 0.317660
O O6 0.938936 0.000000 0.500000
O O7 0.956824 0.097492 0.136394
O O8 0.727181 0.500000 0.500000
O O9 0.694843 0.702078 0.441778
O O10 0.746248 0.640701 0.779239
O O11 0.675217 0.312285 0.919234
O O12 0.779858 0.352850 0.835824
O O13 0.716959 0.500000 0.000000
#
# Coordination Sequence:
#
# PCOD9322482 Si02
#       6
#     8   8   4   8   8   8
#     4   9  19  34  52  78 114 155 207 254 316 388
#     4   9  19  30  47  73 104 156 202 250 303 371
#     4  10  18  31  48  68 109 148 198 252 311 368
#     4  10  19  38  58  78 120 168 211 264 322 383
#     4  11  22  37  61  92 125 169 218 269 330 394
#     4  10  22  38  59  90 126 167 221 263 332 394
#
# _framework density 21.665707000000001
#
# number of rings (size 3 to 8) (size 9 to 14) (size 15 to 20)
#    0.000    2.182    1.818    1.091    0.000    7.636 
#    0.000    0.000    0.000    0.000    0.000    0.636 
#    0.000   18.909    0.000    0.000    0.000    0.000 
#
# Total GULP energy -122520.593489 kJ/mol
# GULP energy per Si atom -5569.117886 kJ/mol
# Density = 2.161639 g / cm^3
# Si number density = 21.665707 Si / 1000 Ang^3
#
#
#
# Elastic Constant Matrix: (Units=GPa)
#
#
# Indices 1 2 3 4 5 6 
#
# 1 119.5479 9.8085 48.8822 0.0000 0.0000 0.0000
# 2 9.8085 33.7561 11.8713 0.0000 0.0000 0.0000
# 3 48.8822 11.8713 152.6015 0.0000 0.0000 0.0000
# 4 0.0000 0.0000 0.0000 24.7797 0.0000 0.0000
# 5 0.0000 0.0000 0.0000 0.0000 28.7863 0.0000
# 6 0.0000 0.0000 0.0000 0.0000 0.0000 15.9832
#
#
#
# Elastic Compliance Matrix: (Units=1/GPa)
#
#
# Indices 1 2 3 4 5 6 
#
# 1 0.009728 -0.001780 -0.002978 0.000000 0.000000 0.000000
# 2 -0.001780 0.030783 -0.001825 0.000000 0.000000 0.000000
# 3 -0.002978 -0.001825 0.007649 0.000000 0.000000 0.000000
# 4 0.000000 0.000000 0.000000 0.040356 0.000000 0.000000
# 5 0.000000 0.000000 0.000000 0.000000 0.034739 0.000000
# 6 0.000000 0.000000 0.000000 0.000000 0.000000 0.062566
#
#
# Mechanical properties :
#
#
# Convention : Reuss Voigt Hill
#
# Bulk Modulus (GPa) = 28.57449 49.66994 39.12222
# Shear Modulus (GPa) = 23.73606 29.59940 26.66773
#
# Velocity S-wave (km/s) = 3.31351 3.70021 3.51219
# Velocity P-wave (km/s) = 5.27794 6.42112 5.87739
#
# Compressibility (1/GPa) = 0.03499625
#
# Stress axis : x y z
#
# Youngs Moduli (GPa) = 102.79101 32.48539 130.73872
#
# Poissons Ratio (x) = 0.05781 0.38932
# Poissons Ratio (y) = 0.18292 0.23855
# Poissons Ratio (z) = 0.30610 0.05927
#
# Static dielectric constant tensor:
#      x y z
#    x 1.921830 0.000000 0.000000 
#    y 0.000000 1.836670 0.000000 
#    z 0.000000 0.000000 1.939610 
# 
# From -- ./inp_files/7260.got.cif
#   From: 2010.05.17/outbox.cif.g08.bks.cpg/sg21_4_cif.got.tgz:7260.got - 2010.06.03 23:14:55.
