data_PCOD9322344
_publ_section_title
;
Structure prediction by ZEFSAII (Michael W. Deem and Ramdas Pophale) SiO2 
 PCOD9322344
Probable space group: C 2 2 2
;
_chemical_formula_sum "Si O2"
_cell_formula_units_Z 54
_cell_length_a 8.232858
_cell_length_b 21.592702
_cell_length_c 17.328365
_cell_angle_alpha 90.000000
_cell_angle_beta 90.000000
_cell_angle_gamma 90.000000
_cell_volume 3080.457371
_symmetry_space_group_name_H-M "C 2 2 2"
_symmetry_group_IT_number 21
_symmetry_cell_setting 'orthorhombic'
loop_
_space_group_symop_operation_xyz
x,y,z
-x,-y,z
x,-y,-z
-x,y,-z
1/2+x,1/2+y,z
1/2-x,1/2-y,z
1/2+x,1/2-y,-z
1/2-x,1/2+y,-z
loop_
_atom_site_type_symbol
_atom_site_label
_atom_site_fract_x
_atom_site_fract_y
_atom_site_fract_z
Si Si1 0.145479 0.306990 0.445307
Si Si2 0.265663 0.471108 0.869372
Si Si3 0.000000 0.000000 0.000000
Si Si4 0.450291 0.089763 0.088893
Si Si5 0.063998 0.243226 0.688677
Si Si6 0.636970 0.809820 0.196512
Si Si7 0.500000 0.500000 0.268634
Si Si8 0.147918 0.124951 0.324080
O O1 0.250000 0.250000 0.481603
O O2 0.265207 0.356806 0.405235
O O3 0.000000 0.330274 0.500000
O O4 0.053428 0.274390 0.374202
O O5 0.387557 0.460683 0.941479
O O6 0.179893 0.536946 0.889229
O O7 0.365011 0.473514 0.790616
O O8 0.116994 0.424085 0.865762
O O9 0.385969 0.155287 0.116692
O O10 0.500000 0.084608 0.000000
O O11 0.250000 0.250000 0.668263
O O12 0.025905 0.281938 0.766027
O O13 0.000073 0.172888 0.691081
O O14 0.750000 0.750000 0.190899
O O15 0.722501 0.857917 0.256389
O O16 0.581934 0.555583 0.316336
#
# Coordination Sequence:
#
# PCOD9322344 Si02
#       8
#     8   8   2   8   8   8   4   8
#     4   9  17  32  57  88 116 140 178 220 270 319
#     4  10  20  30  54  76 105 140 187 238 283 331
#     4  10  16  34  44  80 100 132 180 238 290 308
#     4  11  19  35  52  76 103 145 193 240 288 333
#     4   9  18  32  54  81 110 137 179 226 272 319
#     4   9  19  36  52  69 110 147 176 230 288 330
#     4  11  20  33  54  82 115 147 184 224 291 330
#     4   9  19  34  52  84 116 144 176 231 270 329
#
# _framework density 17.529865000000001
#
# number of rings (size 3 to 8) (size 9 to 14) (size 15 to 20)
#    0.000    2.370    2.963    2.667    2.074    0.000 
#    0.000    0.741    1.630    0.000    0.000   28.000 
#    0.000    0.000    0.000    0.000    0.000    0.000 
#
# Total GULP energy -150385.462711 kJ/mol
# GULP energy per Si atom -5569.831952 kJ/mol
# Density = 1.748997 g / cm^3
# Si number density = 17.529865 Si / 1000 Ang^3
#
#
#
# Elastic Constant Matrix: (Units=GPa)
#
#
# Indices 1 2 3 4 5 6 
#
# 1 89.7638 26.6101 19.3872 0.0000 0.0000 0.0000
# 2 26.6101 88.4213 29.9029 0.0000 0.0000 0.0000
# 3 19.3872 29.9029 49.0264 0.0000 0.0000 0.0000
# 4 0.0000 0.0000 0.0000 11.6526 0.0000 0.0000
# 5 0.0000 0.0000 0.0000 0.0000 27.9048 0.0000
# 6 0.0000 0.0000 0.0000 0.0000 0.0000 11.2479
#
#
#
# Elastic Compliance Matrix: (Units=1/GPa)
#
#
# Indices 1 2 3 4 5 6 
#
# 1 0.012661 -0.002667 -0.003380 0.000000 0.000000 0.000000
# 2 -0.002667 0.014810 -0.007979 0.000000 0.000000 0.000000
# 3 -0.003380 -0.007979 0.026600 0.000000 0.000000 0.000000
# 4 0.000000 0.000000 0.000000 0.085818 0.000000 0.000000
# 5 0.000000 0.000000 0.000000 0.000000 0.035836 0.000000
# 6 0.000000 0.000000 0.000000 0.000000 0.000000 0.088905
#
#
# Mechanical properties :
#
#
# Convention : Reuss Voigt Hill
#
# Bulk Modulus (GPa) = 38.43184 42.11242 40.27213
# Shear Modulus (GPa) = 16.59168 20.24848 18.42008
#
# Velocity S-wave (km/s) = 3.07983 3.40234 3.24509
# Velocity P-wave (km/s) = 5.88374 6.28570 6.08803
#
# Compressibility (1/GPa) = 0.02602009
#
# Stress axis : x y z
#
# Youngs Moduli (GPa) = 78.98249 67.51985 37.59369
#
# Poissons Ratio (x) = 0.18009 0.12706
# Poissons Ratio (y) = 0.21067 0.29995
# Poissons Ratio (z) = 0.26695 0.53872
#
# Static dielectric constant tensor:
#      x y z
#    x 1.657460 0.000000 0.000000 
#    y 0.000000 1.584090 0.000000 
#    z 0.000000 0.000000 1.610040 
# 
# From -- ./inp_files/35882.got.cif
#   From: 2010.05.17/outbox.cif.g08.bks.cpg/sg21_18_cif.got.tgz:35882.got - 2010.06.03 23:14:55.
