data_PCOD9322917
_publ_section_title
;
Structure prediction by ZEFSAII (Michael W. Deem and Ramdas Pophale) SiO2 
 PCOD9322917
Probable space group: C 2 2 2
;
_chemical_formula_sum "Si O2"
_cell_formula_units_Z 54
_cell_length_a 19.083287
_cell_length_b 12.568267
_cell_length_c 11.798460
_cell_angle_alpha 90.000000
_cell_angle_beta 90.000000
_cell_angle_gamma 90.000000
_cell_volume 2829.788026
_symmetry_space_group_name_H-M "C 2 2 2"
_symmetry_group_IT_number 21
_symmetry_cell_setting 'orthorhombic'
loop_
_space_group_symop_operation_xyz
x,y,z
-x,-y,z
x,-y,-z
-x,y,-z
1/2+x,1/2+y,z
1/2-x,1/2-y,z
1/2+x,1/2-y,-z
1/2-x,1/2+y,-z
loop_
_atom_site_type_symbol
_atom_site_label
_atom_site_fract_x
_atom_site_fract_y
_atom_site_fract_z
Si Si1 0.398522 0.914711 0.097334
Si Si2 0.769872 0.908169 0.294248
Si Si3 0.101674 0.805784 0.026204
Si Si4 0.231454 0.076987 0.893325
Si Si5 0.305994 0.000000 0.500000
Si Si6 0.575156 0.977792 0.331826
Si Si7 0.500000 0.500000 0.000000
Si Si8 0.137893 0.275193 0.227968
O O1 0.314100 0.900941 0.101101
O O2 0.423065 0.965319 0.212110
O O3 0.431226 0.799230 0.080641
O O4 0.413992 0.000000 0.000000
O O5 0.742641 0.925208 0.422268
O O6 0.835176 0.829167 0.292618
O O7 0.707539 0.850873 0.220968
O O8 0.783769 0.015933 0.224796
O O9 0.113108 0.768610 0.894459
O O10 0.055152 0.911337 0.047655
O O11 0.176956 0.829499 0.082900
O O12 0.216868 0.000000 0.000000
O O13 0.362285 0.031916 0.596330
O O14 0.500000 0.000000 0.382599
O O15 0.588764 0.853043 0.302130
#
# Coordination Sequence:
#
# PCOD9322917 Si02
#       8
#     8   8   8   8   4   8   2   8
#     4  11  22  36  61  96 125 156 210 267 325 375
#     4  10  19  35  64  91 127 160 208 272 318 377
#     4  12  23  37  58  88 138 174 207 251 312 408
#     4  11  18  35  58  90 124 157 208 259 317 374
#     4  10  21  42  56  90 128 161 218 276 318 379
#     4  11  23  40  63  93 129 169 211 274 325 389
#     4  12  28  40  50  88 140 190 202 234 312 416
#     4  10  19  37  61  93 117 171 213 251 331 380
#
# _framework density 19.082701
#
# number of rings (size 3 to 8) (size 9 to 14) (size 15 to 20)
#    0.000    1.185    6.667    1.556    4.148    0.296 
#    0.000    5.926    0.000    0.000    0.000    0.000 
#    0.000    0.000    0.000    0.000    0.000    0.000 
#
# Total GULP energy -150309.569746 kJ/mol
# GULP energy per Si atom -5567.021102 kJ/mol
# Density = 1.903927 g / cm^3
# Si number density = 19.082701 Si / 1000 Ang^3
#
#
#
# Elastic Constant Matrix: (Units=GPa)
#
#
# Indices 1 2 3 4 5 6 
#
# 1 70.0581 26.2339 25.3354 0.0000 0.0000 0.0000
# 2 26.2339 119.8659 42.2798 0.0000 0.0000 0.0000
# 3 25.3354 42.2798 116.6126 0.0000 0.0000 0.0000
# 4 0.0000 0.0000 0.0000 9.5888 0.0000 0.0000
# 5 0.0000 0.0000 0.0000 0.0000 7572.5018 0.0000
# 6 0.0000 0.0000 0.0000 0.0000 0.0000 8.2675
#
#
#
# Elastic Compliance Matrix: (Units=1/GPa)
#
#
# Indices 1 2 3 4 5 6 
#
# 1 0.016188 -0.002640 -0.002560 0.000000 0.000000 0.000000
# 2 -0.002640 0.009997 -0.003051 0.000000 0.000000 0.000000
# 3 -0.002560 -0.003051 0.010238 0.000000 0.000000 0.000000
# 4 0.000000 0.000000 0.000000 0.104289 0.000000 0.000000
# 5 0.000000 0.000000 0.000000 0.000000 0.000132 0.000000
# 6 0.000000 0.000000 0.000000 0.000000 0.000000 0.120956
#
#
# Mechanical properties :
#
#
# Convention : Reuss Voigt Hill
#
# Bulk Modulus (GPa) = 50.19839 54.91498 52.55669
# Shear Modulus (GPa) = 17.54752 1532.25078 774.89915
#
# Velocity S-wave (km/s) = 3.03570 28.36716 20.17314
# Velocity P-wave (km/s) = 6.21692 33.19289 23.87905
#
# Compressibility (1/GPa) = 0.01992096
#
# Stress axis : x y z
#
# Youngs Moduli (GPa) = 61.77339 100.03431 97.67814
#
# Poissons Ratio (x) = 0.26409 0.25005
# Poissons Ratio (y) = 0.16308 0.29800
# Poissons Ratio (z) = 0.15813 0.30519
#
# Static dielectric constant tensor:
#      x y z
#    x 1.751030 0.000000 0.000000 
#    y 0.000000 -0.171730 0.000000 
#    z 0.000000 0.000000 1.663870 
# 
# From -- ./inp_files/26870.got.cif
#   From: 2010.05.17/outbox.cif.g08.bks.cpg/sg21_14_cif.got.tgz:26870.got - 2010.06.03 23:14:55.
