data_PCOD9322307
_publ_section_title
;
Structure prediction by ZEFSAII (Michael W. Deem and Ramdas Pophale) SiO2 
 PCOD9322307
Probable space group: C 2 2 2
;
_chemical_formula_sum "Si O2"
_cell_formula_units_Z 22
_cell_length_a 13.234304
_cell_length_b 4.823514
_cell_length_c 12.968485
_cell_angle_alpha 90.000000
_cell_angle_beta 90.000000
_cell_angle_gamma 90.000000
_cell_volume 827.854271
_symmetry_space_group_name_H-M "C 2 2 2"
_symmetry_group_IT_number 21
_symmetry_cell_setting 'orthorhombic'
loop_
_space_group_symop_operation_xyz
x,y,z
-x,-y,z
x,-y,-z
-x,y,-z
1/2+x,1/2+y,z
1/2-x,1/2-y,z
1/2+x,1/2-y,-z
1/2-x,1/2+y,-z
loop_
_atom_site_type_symbol
_atom_site_label
_atom_site_fract_x
_atom_site_fract_y
_atom_site_fract_z
Si Si1 0.629480 0.288521 0.328605
Si Si2 0.628793 0.785942 0.196505
Si Si3 0.500000 0.000000 0.500000
Si Si4 0.173165 0.000000 0.000000
O O1 0.750000 0.250000 0.344734
O O2 0.602624 0.597232 0.294519
O O3 0.571718 0.183005 0.427615
O O4 0.603651 0.096911 0.228465
O O5 0.750000 0.750000 0.192491
O O6 0.605327 0.650037 0.086896
O O7 0.250000 0.250000 0.962268
#
# Coordination Sequence:
#
# PCOD9322307 Si02
#       4
#     8   8   2   4
#     4  10  23  41  62  92 128 167 216 273 324 382
#     4   9  18  35  59  91 129 164 207 262 320 388
#     4  12  28  46  72  94 128 182 232 278 340 394
#     4  10  16  28  58  95 126 167 210 250 320 401
#
# _framework density 26.574724
#
# number of rings (size 3 to 8) (size 9 to 14) (size 15 to 20)
#    0.000    2.182    0.000    5.455    0.000    8.727 
#    0.000    0.000    0.000    6.545    0.000    0.000 
#    0.000    0.000    0.000    0.000    0.000    0.182 
#
# Total GULP energy -61598.584382 kJ/mol
# GULP energy per Si atom -5599.871307 kJ/mol
# Density = 2.651424 g / cm^3
# Si number density = 26.574724 Si / 1000 Ang^3
#
#
#
# Elastic Constant Matrix: (Units=GPa)
#
#
# Indices 1 2 3 4 5 6 
#
# 1 103.3513 -14.2603 23.5647 0.0000 0.0000 0.0000
# 2 -14.2603 126.0296 34.0819 0.0000 0.0000 0.0000
# 3 23.5647 34.0819 164.3311 0.0000 0.0000 0.0000
# 4 0.0000 0.0000 0.0000 45.9097 0.0000 0.0000
# 5 0.0000 0.0000 0.0000 0.0000 34.5997 0.0000
# 6 0.0000 0.0000 0.0000 0.0000 0.0000 38.2212
#
#
#
# Elastic Compliance Matrix: (Units=1/GPa)
#
#
# Indices 1 2 3 4 5 6 
#
# 1 0.010321 0.001661 -0.001825 0.000000 0.000000 0.000000
# 2 0.001661 0.008673 -0.002037 0.000000 0.000000 0.000000
# 3 -0.001825 -0.002037 0.006769 0.000000 0.000000 0.000000
# 4 0.000000 0.000000 0.000000 0.021782 0.000000 0.000000
# 5 0.000000 0.000000 0.000000 0.000000 0.028902 0.000000
# 6 0.000000 0.000000 0.000000 0.000000 0.000000 0.026164
#
#
# Mechanical properties :
#
#
# Convention : Reuss Voigt Hill
#
# Bulk Modulus (GPa) = 46.80976 53.38718 50.09847
# Shear Modulus (GPa) = 43.80854 47.10117 45.45486
#
# Velocity S-wave (km/s) = 4.06458 4.21456 4.14025
# Velocity P-wave (km/s) = 6.29924 6.61940 6.46130
#
# Compressibility (1/GPa) = 0.02136306
#
# Stress axis : x y z
#
# Youngs Moduli (GPa) = 96.89027 115.29382 147.72373
#
# Poissons Ratio (x) = -0.19153 0.26953
# Poissons Ratio (y) = -0.16096 0.30092
# Poissons Ratio (z) = 0.17678 0.23486
#
# Static dielectric constant tensor:
#      x y z
#    x 2.164280 0.000000 0.000000 
#    y 0.000000 2.059470 0.000000 
#    z 0.000000 0.000000 2.111890 
# 
# From -- ./inp_files/24587.got.cif
#   From: 2010.05.17/outbox.cif.g08.bks.cpg/sg21_13_cif.got.tgz:24587.got - 2010.06.03 23:14:55.
