data_PCOD9322695
_publ_section_title
;
Structure prediction by ZEFSAII (Michael W. Deem and Ramdas Pophale) SiO2 
 PCOD9322695
Probable space group: C 2 2 2
;
_chemical_formula_sum "Si O2"
_cell_formula_units_Z 40
_cell_length_a 8.755011
_cell_length_b 16.186977
_cell_length_c 15.125829
_cell_angle_alpha 90.000000
_cell_angle_beta 90.000000
_cell_angle_gamma 90.000000
_cell_volume 2143.589554
_symmetry_space_group_name_H-M "C 2 2 2"
_symmetry_group_IT_number 21
_symmetry_cell_setting 'orthorhombic'
loop_
_space_group_symop_operation_xyz
x,y,z
-x,-y,z
x,-y,-z
-x,y,-z
1/2+x,1/2+y,z
1/2-x,1/2-y,z
1/2+x,1/2-y,-z
1/2-x,1/2+y,-z
loop_
_atom_site_type_symbol
_atom_site_label
_atom_site_fract_x
_atom_site_fract_y
_atom_site_fract_z
Si Si1 0.072713 0.409383 0.585363
Si Si2 0.864585 0.828885 0.774099
Si Si3 0.131224 0.172159 0.573155
Si Si4 0.930265 0.738409 0.097625
Si Si5 0.438144 0.907255 0.215552
O O1 0.253157 0.405711 0.568618
O O2 0.038749 0.375097 0.682930
O O3 0.000000 0.500000 0.588317
O O4 0.000000 0.366000 0.500000
O O5 0.750000 0.750000 0.779271
O O6 0.927550 0.830384 0.674261
O O7 0.746250 0.902721 0.794459
O O8 0.993239 0.812058 0.845622
O O9 0.250000 0.250000 0.565462
O O10 0.000000 0.171923 0.500000
O O11 0.750000 0.750000 0.093922
O O12 0.978976 0.654420 0.148500
O O13 0.000000 0.737091 0.000000
O O14 0.500000 0.000000 0.207934
#
# Coordination Sequence:
#
# PCOD9322695 Si02
#       5
#     8   8   8   8   8
#     4   9  18  34  53  74 109 149 179 213 263 318
#     4   8  17  34  52  76 110 141 175 219 269 323
#     4  10  19  30  50  80 110 141 181 229 267 305
#     4  11  22  37  57  79 105 139 176 220 273 328
#     4   9  18  35  58  80 104 140 180 219 263 315
#
# _framework density 18.660288000000001
#
# number of rings (size 3 to 8) (size 9 to 14) (size 15 to 20)
#    0.000    2.600    0.000    3.600    0.000    2.800 
#    0.000    3.000    0.000   13.200    0.000    0.000 
#    0.000    0.000    0.000    0.000    0.000    0.000 
#
# Total GULP energy -111369.370098 kJ/mol
# GULP energy per Si atom -5568.468505 kJ/mol
# Density = 1.861782 g / cm^3
# Si number density = 18.660288 Si / 1000 Ang^3
#
#
#
# Elastic Constant Matrix: (Units=GPa)
#
#
# Indices 1 2 3 4 5 6 
#
# 1 139.2274 50.0750 110.9783 0.0000 0.0000 0.0000
# 2 50.0750 73.9392 37.3444 0.0000 0.0000 0.0000
# 3 110.9783 37.3444 188.7790 0.0000 0.0000 0.0000
# 4 0.0000 0.0000 0.0000 -9.3549 0.0000 0.0000
# 5 0.0000 0.0000 0.0000 0.0000 39.2404 0.0000
# 6 0.0000 0.0000 0.0000 0.0000 0.0000 33.0024
#
#
#
# Elastic Compliance Matrix: (Units=1/GPa)
#
#
# Indices 1 2 3 4 5 6 
#
# 1 0.016102 -0.006804 -0.008120 0.000000 0.000000 0.000000
# 2 -0.006804 0.017901 0.000459 0.000000 0.000000 0.000000
# 3 -0.008120 0.000459 0.009980 0.000000 0.000000 0.000000
# 4 0.000000 0.000000 0.000000 -0.106896 0.000000 0.000000
# 5 0.000000 0.000000 0.000000 0.000000 0.025484 0.000000
# 6 0.000000 0.000000 0.000000 0.000000 0.000000 0.030301
#
#
# Mechanical properties :
#
#
# Convention : Reuss Voigt Hill
#
# Bulk Modulus (GPa) = 66.43437 88.74899 77.59168
# Shear Modulus (GPa) = 186.43031 26.14745 106.28888
#
# Velocity S-wave (km/s) = 10.00622 3.74737 7.55537
# Velocity P-wave (km/s) = 13.00686 8.14784 10.85278
#
# Compressibility (1/GPa) = 0.01505245
#
# Stress axis : x y z
#
# Youngs Moduli (GPa) = 62.10368 55.86324 100.20003
#
# Poissons Ratio (x) = 0.38009 0.81363
# Poissons Ratio (y) = 0.42255 -0.04596
# Poissons Ratio (z) = 0.50429 -0.02562
#
# Static dielectric constant tensor:
#      x y z
#    x 1.651690 0.000000 0.000000 
#    y 0.000000 1.723330 0.000000 
#    z 0.000000 0.000000 1.671200 
# 
# From -- ./inp_files/30353.got.cif
#   From: 2010.05.17/outbox.cif.g08.bks.cpg/sg21_16_cif.got.tgz:30353.got - 2010.06.03 23:14:55.
