data_PCOD9322201
_publ_section_title
;
Structure prediction by ZEFSAII (Michael W. Deem and Ramdas Pophale) SiO2 
 PCOD9322201
Probable space group: C 2 2 21
;
_chemical_formula_sum "Si O2"
_cell_formula_units_Z 32
_cell_length_a 24.000000
_cell_length_b 15.000000
_cell_length_c 9.000000
_cell_angle_alpha 90.000000
_cell_angle_beta 90.000000
_cell_angle_gamma 90.000000
_cell_volume 3240.000000
_symmetry_space_group_name_H-M "C 2 2 21"
_symmetry_group_IT_number 20
_symmetry_cell_setting 'orthorhombic'
loop_
_space_group_symop_operation_xyz
x,y,z
-x,-y,1/2+z
x,-y,-z
-x,y,1/2-z
1/2+x,1/2+y,z
1/2-x,1/2-y,1/2+z
1/2+x,1/2-y,-z
1/2-x,1/2+y,1/2-z
loop_
_atom_site_type_symbol
_atom_site_label
_atom_site_fract_x
_atom_site_fract_y
_atom_site_fract_z
Si Si1 0.624418 0.824306 0.629764
Si Si2 0.755275 0.354792 0.842626
Si Si3 0.900996 0.396921 0.543910
Si Si4 0.467267 0.410456 0.595021
Si Si5 0.646500 0.557587 0.255552
Si Si6 0.337349 0.624167 0.911851
Si Si7 0.503930 0.771722 0.568717
Si Si8 0.281574 0.824277 0.495080
O O1 0.683748 0.869191 0.581037
O O2 0.608632 0.876914 0.780307
O O3 0.642800 0.720086 0.647330
O O4 0.566176 0.811982 0.539864
O O5 0.707315 0.428496 0.819188
O O6 0.770189 0.326306 0.672453
O O7 0.725833 0.274346 0.930282
O O8 0.908246 0.500000 0.500000
O O9 0.956123 0.339147 0.511068
O O10 0.843386 0.362069 0.469537
O O11 0.476967 0.500000 0.500000
O O12 0.500000 0.415712 0.750000
O O13 0.402088 0.410051 0.645147
O O14 0.489570 0.323823 0.505455
O O15 0.640308 0.455079 0.308537
O O16 0.644545 0.610149 0.415055
O O17 0.269711 0.621338 0.920703
O O18 0.500000 0.762954 0.750000
#
# Coordination Sequence:
#
# PCOD9322201 Si02
#       8
#     8   8   8   8   8   8   8   8
#     4   9  19  36  63  86 125 167 211 257 331 389
#     4   9  18  35  58  90 118 160 206 256 318 384
#     4  10  21  35  64  94 120 160 220 269 313 381
#     4  12  27  40  62  94 130 174 217 267 323 402
#     4  10  21  35  60  92 133 162 219 266 318 398
#     4   9  19  34  61  93 126 175 204 261 332 403
#     4  10  22  42  64  89 125 171 216 269 332 380
#     4   9  18  33  58  87 125 158 206 257 319 384
#
# _framework density 9.8765429999999999
#
# number of rings (size 3 to 8) (size 9 to 14) (size 15 to 20)
#    0.000    2.250    0.000    1.875   12.250    0.000 
#    2.250    1.875    0.000    0.750    0.000    0.000 
#    0.000    0.000    0.000    0.000    0.000    0.000 
#
# Total GULP energy -178470.532497 kJ/mol
# GULP energy per Si atom -5577.204141 kJ/mol
# Density = 0.985406 g / cm^3
# Si number density = 9.876543 Si / 1000 Ang^3
#
#
#
# Elastic Constant Matrix: (Units=GPa)
#
#
# Indices 1 2 3 4 5 6 
#
# 1 160.6293 48.3623 25.6160 0.0000 0.0000 0.0000
# 2 48.3623 92.3397 28.4154 0.0000 0.0000 0.0000
# 3 25.6160 28.4154 41.8998 0.0000 0.0000 0.0000
# 4 0.0000 0.0000 0.0000 32.4548 0.0000 0.0000
# 5 0.0000 0.0000 0.0000 0.0000 32.0850 0.0000
# 6 0.0000 0.0000 0.0000 0.0000 0.0000 26.6652
#
#
#
# Elastic Compliance Matrix: (Units=1/GPa)
#
#
# Indices 1 2 3 4 5 6 
#
# 1 0.007586 -0.003217 -0.002456 0.000000 0.000000 0.000000
# 2 -0.003217 0.015050 -0.008240 0.000000 0.000000 0.000000
# 3 -0.002456 -0.008240 0.030956 0.000000 0.000000 0.000000
# 4 0.000000 0.000000 0.000000 0.030812 0.000000 0.000000
# 5 0.000000 0.000000 0.000000 0.000000 0.031167 0.000000
# 6 0.000000 0.000000 0.000000 0.000000 0.000000 0.037502
#
#
# Mechanical properties :
#
#
# Convention : Reuss Voigt Hill
#
# Bulk Modulus (GPa) = 38.81056 55.51737 47.16397
# Shear Modulus (GPa) = 26.38695 31.07268 28.72982
#
# Velocity S-wave (km/s) = 3.65888 3.97048 3.81786
# Velocity P-wave (km/s) = 6.12702 7.01329 6.58508
#
# Compressibility (1/GPa) = 0.02576618
#
# Stress axis : x y z
#
# Youngs Moduli (GPa) = 131.82501 66.44418 32.30407
#
# Poissons Ratio (x) = 0.21377 0.07933
# Poissons Ratio (y) = 0.42412 0.26618
# Poissons Ratio (z) = 0.32373 0.54748
#
# Static dielectric constant tensor:
#      x y z
#    x 1.762030 0.000000 0.000000 
#    y 0.000000 1.672710 0.000000 
#    z 0.000000 0.000000 1.689220 
# 
# From -- ./inp_files/10796.got.cif
#   From: 2010.05.17/outbox.ucp.g08.bks.cvg/sg20_6_cif.got.tgz:10796.got - 2010.06.11 15:13:06.
