data_PCOD9322240
_publ_section_title
;
Structure prediction by ZEFSAII (Michael W. Deem and Ramdas Pophale) SiO2 
 PCOD9322240
Probable space group: C 2 2 21
;
_chemical_formula_sum "Si O2"
_cell_formula_units_Z 32
_cell_length_a 12.000000
_cell_length_b 24.000000
_cell_length_c 12.000000
_cell_angle_alpha 90.000000
_cell_angle_beta 90.000000
_cell_angle_gamma 90.000000
_cell_volume 3456.000000
_symmetry_space_group_name_H-M "C 2 2 21"
_symmetry_group_IT_number 20
_symmetry_cell_setting 'orthorhombic'
loop_
_space_group_symop_operation_xyz
x,y,z
-x,-y,1/2+z
x,-y,-z
-x,y,1/2-z
1/2+x,1/2+y,z
1/2-x,1/2-y,1/2+z
1/2+x,1/2-y,-z
1/2-x,1/2+y,1/2-z
loop_
_atom_site_type_symbol
_atom_site_label
_atom_site_fract_x
_atom_site_fract_y
_atom_site_fract_z
Si Si1 0.516159 0.185269 0.873690
Si Si2 0.229096 0.279138 0.392853
Si Si3 0.112352 0.809330 0.901327
Si Si4 0.871781 0.162989 0.039153
Si Si5 0.150166 0.616647 0.060577
Si Si6 0.385022 0.726851 0.811960
Si Si7 0.470526 0.964660 0.884622
Si Si8 0.662584 0.147253 0.313039
O O1 0.500000 0.160685 0.750000
O O2 0.387240 0.189303 0.911262
O O3 0.570731 0.247550 0.862186
O O4 0.591673 0.151865 0.961594
O O5 0.322173 0.296239 0.483118
O O6 0.192516 0.214927 0.403642
O O7 0.284015 0.285423 0.272003
O O8 0.203955 0.844066 0.831414
O O9 0.996316 0.842391 0.914689
O O10 0.782811 0.113810 0.044496
O O11 0.881745 0.185466 0.914272
O O12 0.131487 0.643882 0.182494
O O13 0.087723 0.558723 0.071592
O O14 0.500000 0.719079 0.750000
O O15 0.380727 0.791533 0.850108
O O16 0.500000 0.983815 0.750000
O O17 0.389661 0.909350 0.867059
O O18 0.431533 0.000000 0.000000
#
# Coordination Sequence:
#
# PCOD9322240 Si02
#       8
#     8   8   8   8   8   8   8   8
#     4  11  22  32  49  82 126 170 201 242 284 335
#     4  11  20  31  46  73 117 164 212 238 272 335
#     4  11  21  33  49  82 122 165 203 236 277 346
#     4  11  22  31  51  79 124 163 203 237 284 346
#     4  11  21  38  57  84 113 155 200 244 302 358
#     4  12  20  32  51  78 122 174 209 237 286 351
#     4  10  24  44  71  92 112 144 198 264 327 372
#     4  11  21  35  60  84 113 151 203 248 295 357
#
# _framework density 9.2592590000000001
#
# number of rings (size 3 to 8) (size 9 to 14) (size 15 to 20)
#    0.000    1.000    5.000    3.375    5.250    0.500 
#    0.000    1.250    0.000    0.750    0.000    0.000 
#    0.000    0.000    0.000    0.000    0.000    0.000 
#
# Total GULP energy -178282.264977 kJ/mol
# GULP energy per Si atom -5571.320781 kJ/mol
# Density = 0.923818 g / cm^3
# Si number density = 9.259259 Si / 1000 Ang^3
#
#
#
# Elastic Constant Matrix: (Units=GPa)
#
#
# Indices 1 2 3 4 5 6 
#
# 1 135.2426 18.7231 31.8770 0.0000 0.0000 0.0000
# 2 18.7231 31.4838 24.9663 0.0000 0.0000 0.0000
# 3 31.8770 24.9663 117.4058 0.0000 0.0000 0.0000
# 4 0.0000 0.0000 0.0000 26.5504 0.0000 0.0000
# 5 0.0000 0.0000 0.0000 0.0000 45.2466 0.0000
# 6 0.0000 0.0000 0.0000 0.0000 0.0000 21.6603
#
#
#
# Elastic Compliance Matrix: (Units=1/GPa)
#
#
# Indices 1 2 3 4 5 6 
#
# 1 0.008255 -0.003767 -0.001440 0.000000 0.000000 0.000000
# 2 -0.003767 0.039924 -0.007467 0.000000 0.000000 0.000000
# 3 -0.001440 -0.007467 0.010496 0.000000 0.000000 0.000000
# 4 0.000000 0.000000 0.000000 0.037664 0.000000 0.000000
# 5 0.000000 0.000000 0.000000 0.000000 0.022101 0.000000
# 6 0.000000 0.000000 0.000000 0.000000 0.000000 0.046167
#
#
# Mechanical properties :
#
#
# Convention : Reuss Voigt Hill
#
# Bulk Modulus (GPa) = 30.00606 48.36277 39.18441
# Shear Modulus (GPa) = 24.86751 32.59586 28.73168
#
# Velocity S-wave (km/s) = 3.66846 4.20000 3.94320
# Velocity P-wave (km/s) = 5.84653 7.04929 6.47590
#
# Compressibility (1/GPa) = 0.03332660
#
# Stress axis : x y z
#
# Youngs Moduli (GPa) = 121.13700 25.04769 95.27105
#
# Poissons Ratio (x) = 0.09436 0.13722
# Poissons Ratio (y) = 0.45633 0.71139
# Poissons Ratio (z) = 0.17447 0.18703
#
# Static dielectric constant tensor:
#      x y z
#    x 1.697420 0.000000 0.000000 
#    y 0.000000 1.633510 0.000000 
#    z 0.000000 0.000000 1.763480 
# 
# From -- ./inp_files/14487.got.cif
#   From: 2010.05.17/outbox.ucp.g08.bks.cvg/sg20_8_cif.got.tgz:14487.got - 2010.06.11 15:13:06.
