data_PCOD9322117
_publ_section_title
;
Structure prediction by ZEFSAII (Michael W. Deem and Ramdas Pophale) SiO2 
 PCOD9322117
Probable space group: C 2 2 21
;
_chemical_formula_sum "Si O2"
_cell_formula_units_Z 32
_cell_length_a 8.666302
_cell_length_b 29.752566
_cell_length_c 5.073548
_cell_angle_alpha 90.000000
_cell_angle_beta 90.000000
_cell_angle_gamma 90.000000
_cell_volume 1308.187575
_symmetry_space_group_name_H-M "C 2 2 21"
_symmetry_group_IT_number 20
_symmetry_cell_setting 'orthorhombic'
loop_
_space_group_symop_operation_xyz
x,y,z
-x,-y,1/2+z
x,-y,-z
-x,y,1/2-z
1/2+x,1/2+y,z
1/2-x,1/2-y,1/2+z
1/2+x,1/2-y,-z
1/2-x,1/2+y,1/2-z
loop_
_atom_site_type_symbol
_atom_site_label
_atom_site_fract_x
_atom_site_fract_y
_atom_site_fract_z
Si Si1 0.603983 0.590161 0.497314
Si Si2 0.825767 0.637692 0.834593
Si Si3 0.325578 0.956479 0.840604
Si Si4 0.321455 0.272231 0.351015
O O1 0.500000 0.580161 0.750000
O O2 0.721838 0.628683 0.578466
O O3 0.712106 0.550123 0.402791
O O4 0.500000 0.602496 0.250000
O O5 0.739712 0.679809 0.961196
O O6 0.000000 0.647081 0.750000
O O7 0.823870 0.590642 0.996356
O O8 0.500000 0.963465 0.750000
O O9 0.276077 0.000000 0.000000
O O10 0.500000 0.272418 0.250000
O O11 0.284653 0.239289 0.595576
#
# Coordination Sequence:
#
# PCOD9322117 Si02
#       4
#     8   8   8   8
#     4  12  27  50  77 116 157 207 267 336 408 473
#     4  12  26  50  82 117 161 218 274 339 406 489
#     4  12  28  51  83 119 164 223 284 337 402 488
#     4  12  29  52  83 121 164 213 272 340 416 496
#
# _framework density 24.461326
#
# number of rings (size 3 to 8) (size 9 to 14) (size 15 to 20)
#    0.000    0.000    5.000    3.750    3.500    1.000 
#    4.500    0.000    0.000    0.000    0.000    0.000 
#    0.000    0.000    0.000    0.000    0.000    0.000 
#
# Total GULP energy -89635.441878 kJ/mol
# GULP energy per Si atom -5602.215117 kJ/mol
# Density = 2.440565 g / cm^3
# Si number density = 24.461326 Si / 1000 Ang^3
#
#
#
# Elastic Constant Matrix: (Units=GPa)
#
#
# Indices 1 2 3 4 5 6 
#
# 1 177.1400 23.0826 55.2429 0.0000 0.0000 0.0000
# 2 23.0826 130.4031 33.9353 0.0000 0.0000 0.0000
# 3 55.2429 33.9353 134.3738 0.0000 0.0000 0.0000
# 4 0.0000 0.0000 0.0000 51.4618 0.0000 0.0000
# 5 0.0000 0.0000 0.0000 0.0000 31.6049 0.0000
# 6 0.0000 0.0000 0.0000 0.0000 0.0000 96.7794
#
#
#
# Elastic Compliance Matrix: (Units=1/GPa)
#
#
# Indices 1 2 3 4 5 6 
#
# 1 0.006504 -0.000487 -0.002551 0.000000 0.000000 0.000000
# 2 -0.000487 0.008245 -0.001882 0.000000 0.000000 0.000000
# 3 -0.002551 -0.001882 0.008966 0.000000 0.000000 0.000000
# 4 0.000000 0.000000 0.000000 0.019432 0.000000 0.000000
# 5 0.000000 0.000000 0.000000 0.000000 0.031641 0.000000
# 6 0.000000 0.000000 0.000000 0.000000 0.000000 0.010333
#
#
# Mechanical properties :
#
#
# Convention : Reuss Voigt Hill
#
# Bulk Modulus (GPa) = 72.07467 74.04871 73.06169
# Shear Modulus (GPa) = 50.20840 57.94630 54.07735
#
# Velocity S-wave (km/s) = 4.53544 4.87241 4.70694
# Velocity P-wave (km/s) = 7.54689 7.87346 7.71190
#
# Compressibility (1/GPa) = 0.01387450
#
# Stress axis : x y z
#
# Youngs Moduli (GPa) = 153.74443 121.29298 111.53439
#
# Poissons Ratio (x) = 0.05913 0.28451
# Poissons Ratio (y) = 0.07495 0.20987
# Poissons Ratio (z) = 0.39219 0.22823
#
# Static dielectric constant tensor:
#      x y z
#    x 1.917740 0.000000 0.000000 
#    y 0.000000 2.002690 0.000000 
#    z 0.000000 0.000000 1.878870 
# 
# From -- ./inp_files/575.got.cif
#   From: 2010.05.17/outbox.cif.g08.bks.cpg/sg20_1_cif.got.tgz:575.got - 2010.06.03 22:52:26.
