data_PCOD9322143
_publ_section_title
;
Structure prediction by ZEFSAII (Michael W. Deem and Ramdas Pophale) SiO2 
 PCOD9322143
Probable space group: C 2 2 21
;
_chemical_formula_sum "Si O2"
_cell_formula_units_Z 20
_cell_length_a 18.266511
_cell_length_b 8.506349
_cell_length_c 4.921362
_cell_angle_alpha 90.000000
_cell_angle_beta 90.000000
_cell_angle_gamma 90.000000
_cell_volume 764.687712
_symmetry_space_group_name_H-M "C 2 2 21"
_symmetry_group_IT_number 20
_symmetry_cell_setting 'orthorhombic'
loop_
_space_group_symop_operation_xyz
x,y,z
-x,-y,1/2+z
x,-y,-z
-x,y,1/2-z
1/2+x,1/2+y,z
1/2-x,1/2-y,1/2+z
1/2+x,1/2-y,-z
1/2-x,1/2+y,1/2-z
loop_
_atom_site_type_symbol
_atom_site_label
_atom_site_fract_x
_atom_site_fract_y
_atom_site_fract_z
Si Si1 0.080309 0.835636 0.118107
Si Si2 0.500000 0.893199 0.250000
Si Si3 0.792914 0.312095 0.971650
O O1 0.135838 0.764718 0.333972
O O2 0.229208 0.766060 0.756319
O O3 0.000000 0.863843 0.250000
O O4 0.106822 0.000000 0.000000
O O5 0.436785 0.787876 0.379754
O O6 0.525488 0.000000 0.500000
O O7 0.798584 0.500000 0.000000
#
# Coordination Sequence:
#
# PCOD9322143 Si02
#       3
#     8   4   8
#     4  12  29  54  90 126 174 231 293 362 435 522
#     4  12  28  48  80 128 174 216 284 358 432 504
#     4  12  31  58  89 125 177 233 296 364 437 525
#
# _framework density 26.154467
#
# number of rings (size 3 to 8) (size 9 to 14) (size 15 to 20)
#    0.000    0.000    4.000    2.400   11.200    3.200 
#    0.000    2.000    0.000    0.000    0.000    0.000 
#    0.000    0.000    0.000    0.000    0.000    0.000 
#
# Total GULP energy -56255.152038 kJ/mol
# GULP energy per Si atom -5625.515204 kJ/mol
# Density = 2.609494 g / cm^3
# Si number density = 26.154467 Si / 1000 Ang^3
#
#
#
# Elastic Constant Matrix: (Units=GPa)
#
#
# Indices 1 2 3 4 5 6 
#
# 1 127.5444 41.7729 6.5284 0.0000 0.0000 0.0000
# 2 41.7729 230.1545 61.2307 0.0000 0.0000 0.0000
# 3 6.5284 61.2307 139.0167 0.0000 0.0000 0.0000
# 4 0.0000 0.0000 0.0000 73.8426 0.0000 0.0000
# 5 0.0000 0.0000 0.0000 0.0000 61.3810 0.0000
# 6 0.0000 0.0000 0.0000 0.0000 0.0000 -5.2099
#
#
#
# Elastic Compliance Matrix: (Units=1/GPa)
#
#
# Indices 1 2 3 4 5 6 
#
# 1 0.008348 -0.001598 0.000312 0.000000 0.000000 0.000000
# 2 -0.001598 0.005228 -0.002227 0.000000 0.000000 0.000000
# 3 0.000312 -0.002227 0.008160 0.000000 0.000000 0.000000
# 4 0.000000 0.000000 0.000000 0.013542 0.000000 0.000000
# 5 0.000000 0.000000 0.000000 0.000000 0.016292 0.000000
# 6 0.000000 0.000000 0.000000 0.000000 0.000000 -0.191942
#
#
# Mechanical properties :
#
#
# Convention : Reuss Voigt Hill
#
# Bulk Modulus (GPa) = 67.99087 79.53107 73.76097
# Shear Modulus (GPa) = -38.92798 51.81498 6.44350
#
# Velocity S-wave (km/s) = -3.86215 4.45580 1.57130
# Velocity P-wave (km/s) = 2.48276 7.54629 5.61741
#
# Compressibility (1/GPa) = 0.01470786
#
# Stress axis : x y z
#
# Youngs Moduli (GPa) = 119.79131 191.29384 122.55158
#
# Poissons Ratio (x) = 0.30571 -0.03822
# Poissons Ratio (y) = 0.19144 0.27298
# Poissons Ratio (z) = -0.03736 0.42610
#
# Static dielectric constant tensor:
#      x y z
#    x 2.155610 0.000000 0.000000 
#    y 0.000000 1.977530 0.000000 
#    z 0.000000 0.000000 2.018070 
# 
# From -- ./inp_files/1491.got.cif
#   From: 2010.05.17/outbox.cif.g08.bks.cpg/sg20_1_cif.got.tgz:1491.got - 2010.06.03 22:52:26.
