data_PCOD9322025
_publ_section_title
;
Structure prediction by ZEFSAII (Michael W. Deem and Ramdas Pophale) SiO2 
 PCOD9322025
Probable space group: C 2 2 21
;
_chemical_formula_sum "Si O2"
_cell_formula_units_Z 48
_cell_length_a 17.967112
_cell_length_b 10.805275
_cell_length_c 11.182181
_cell_angle_alpha 90.000000
_cell_angle_beta 90.000000
_cell_angle_gamma 90.000000
_cell_volume 2170.903991
_symmetry_space_group_name_H-M "C 2 2 21"
_symmetry_group_IT_number 20
_symmetry_cell_setting 'orthorhombic'
loop_
_space_group_symop_operation_xyz
x,y,z
-x,-y,1/2+z
x,-y,-z
-x,y,1/2-z
1/2+x,1/2+y,z
1/2-x,1/2-y,1/2+z
1/2+x,1/2-y,-z
1/2-x,1/2+y,1/2-z
loop_
_atom_site_type_symbol
_atom_site_label
_atom_site_fract_x
_atom_site_fract_y
_atom_site_fract_z
Si Si1 0.866717 0.968808 0.229528
Si Si2 0.172131 0.500000 0.500000
Si Si3 0.580106 0.035607 0.745642
Si Si4 0.779564 0.445217 0.629131
Si Si5 0.035574 0.000000 0.500000
Si Si6 0.801931 0.184863 0.565795
Si Si7 0.424132 0.302622 0.628628
O O1 0.861346 0.879510 0.343828
O O2 0.778885 0.984401 0.209724
O O3 0.912440 0.944481 0.107523
O O4 0.899489 0.097968 0.273471
O O5 0.119059 0.522339 0.615331
O O6 0.233071 0.610499 0.507886
O O7 0.500000 0.972485 0.750000
O O8 0.566407 0.172544 0.802243
O O9 0.637123 0.968275 0.832309
O O10 0.766431 0.500000 0.500000
O O11 0.765645 0.300138 0.632381
O O12 0.986547 0.884354 0.554610
O O13 0.855012 0.224431 0.458134
#
# Coordination Sequence:
#
# PCOD9322025 Si02
#       7
#     8   4   8   8   4   8   8
#     4  12  24  46  72 111 144 194 260 313 376 457
#     4  12  25  48  81 106 144 202 260 310 393 458
#     4  12  28  50  73 109 153 201 252 313 391 473
#     4  12  26  47  73 107 148 189 250 320 382 459
#     4  12  25  44  75 116 154 202 250 318 383 448
#     4  12  24  47  80 107 145 199 254 323 390 455
#     4  12  24  47  75 105 156 199 254 317 379 462
#
# _framework density 22.110605
#
# number of rings (size 3 to 8) (size 9 to 14) (size 15 to 20)
#    0.000    0.000    7.500    2.500    1.167    1.333 
#    9.000    0.000    0.000    0.000    0.000    0.000 
#    0.000    0.000    0.000    0.000    0.000    0.000 
#
# Total GULP energy -133812.738589 kJ/mol
# GULP energy per Si atom -5575.530775 kJ/mol
# Density = 2.206028 g / cm^3
# Si number density = 22.110605 Si / 1000 Ang^3
#
#
#
# Elastic Constant Matrix: (Units=GPa)
#
#
# Indices 1 2 3 4 5 6 
#
# 1 110.1901 13.0727 27.4235 0.0000 0.0000 0.0000
# 2 13.0727 67.1847 10.7488 0.0000 0.0000 0.0000
# 3 27.4235 10.7488 87.3046 0.0000 0.0000 0.0000
# 4 0.0000 0.0000 0.0000 16.3175 0.0000 0.0000
# 5 0.0000 0.0000 0.0000 0.0000 -79.9618 0.0000
# 6 0.0000 0.0000 0.0000 0.0000 0.0000 3.3844
#
#
#
# Elastic Compliance Matrix: (Units=1/GPa)
#
#
# Indices 1 2 3 4 5 6 
#
# 1 0.009985 -0.001470 -0.002955 0.000000 0.000000 0.000000
# 2 -0.001470 0.015400 -0.001434 0.000000 0.000000 0.000000
# 3 -0.002955 -0.001434 0.012559 0.000000 0.000000 0.000000
# 4 0.000000 0.000000 0.000000 0.061284 0.000000 0.000000
# 5 0.000000 0.000000 0.000000 0.000000 -0.012506 0.000000
# 6 0.000000 0.000000 0.000000 0.000000 0.000000 0.295471
#
#
# Mechanical properties :
#
#
# Convention : Reuss Voigt Hill
#
# Bulk Modulus (GPa) = 38.13223 40.79663 39.46443
# Shear Modulus (GPa) = 12.41761 2.17699 7.29730
#
# Velocity S-wave (km/s) = 2.37241 0.99334 1.81866
# Velocity P-wave (km/s) = 4.97875 4.45049 4.72202
#
# Compressibility (1/GPa) = 0.02622453
#
# Stress axis : x y z
#
# Youngs Moduli (GPa) = 100.14848 64.93573 79.62361
#
# Poissons Ratio (x) = 0.09546 0.23533
# Poissons Ratio (y) = 0.14722 0.11420
# Poissons Ratio (z) = 0.29599 0.09313
#
# Static dielectric constant tensor:
#      x y z
#    x 1.806190 0.000000 0.000000 
#    y 0.000000 1.879260 0.000000 
#    z 0.000000 0.000000 2.006500 
# 
# From -- ./inp_files/15765.got.cif
#   From: 2010.05.17/outbox.cif.g08.bks.cpg/sg20_8_cif.got.tgz:15765.got - 2010.06.03 22:52:26.
