data_PCOD9322696
_publ_section_title
;
Structure prediction by ZEFSAII (Michael W. Deem and Ramdas Pophale) SiO2 
 PCOD9322696
Probable space group: C 2 2 2
;
_chemical_formula_sum "Si O2"
_cell_formula_units_Z 56
_cell_length_a 5.172953
_cell_length_b 23.810775
_cell_length_c 24.428850
_cell_angle_alpha 90.000000
_cell_angle_beta 90.000000
_cell_angle_gamma 90.000000
_cell_volume 3008.950800
_symmetry_space_group_name_H-M "C 2 2 2"
_symmetry_group_IT_number 21
_symmetry_cell_setting 'orthorhombic'
loop_
_space_group_symop_operation_xyz
x,y,z
-x,-y,z
x,-y,-z
-x,y,-z
1/2+x,1/2+y,z
1/2-x,1/2-y,z
1/2+x,1/2-y,-z
1/2-x,1/2+y,-z
loop_
_atom_site_type_symbol
_atom_site_label
_atom_site_fract_x
_atom_site_fract_y
_atom_site_fract_z
Si Si1 0.414727 0.384323 0.749914
Si Si2 0.015451 0.067979 0.132411
Si Si3 0.440689 0.063622 0.421545
Si Si4 0.912629 0.561098 0.290953
Si Si5 0.983142 0.432397 0.061906
Si Si6 0.444939 0.633375 0.441965
Si Si7 0.500572 0.711088 0.665238
O O1 0.470519 0.395664 0.813317
O O2 0.114480 0.396504 0.737126
O O3 0.489842 0.326504 0.720160
O O4 0.613321 0.427876 0.721013
O O5 0.284172 0.082214 0.102812
O O6 0.788179 0.080503 0.089734
O O7 0.000000 0.000000 0.144810
O O8 0.454137 0.065206 0.355632
O O9 0.157462 0.083833 0.438559
O O10 0.660609 0.106483 0.441436
O O11 0.500000 0.000000 0.438331
O O12 0.000000 0.500000 0.271126
O O13 0.000000 0.500000 0.057717
O O14 0.000000 0.409933 0.000000
O O15 0.500000 0.663303 0.500000
O O16 0.488440 0.671068 0.388251
O O17 0.250000 0.750000 0.663527
O O18 0.750000 0.750000 0.663684
#
# Coordination Sequence:
#
# PCOD9322696 Si02
#       7
#     8   8   8   8   8   8   8
#     4  12  22  38  58  84 116 148 190 242 289 340
#     4  10  19  30  50  82 116 151 191 229 267 325
#     4  11  22  39  61  89 121 151 179 213 275 354
#     4  11  20  34  58  84 115 150 178 215 278 350
#     4   9  17  30  47  73 117 166 197 219 254 307
#     4  12  25  43  64  88 114 145 191 239 282 347
#     4  12  26  45  64  81 108 145 193 247 308 350
#
# _framework density 18.611139000000001
#
# number of rings (size 3 to 8) (size 9 to 14) (size 15 to 20)
#    0.000    1.000    2.857    5.143    0.000    7.429 
#    0.000    0.000    0.000    0.000    0.000    0.000 
#    0.000   11.429    0.000    0.000    0.000    0.000 
#
# Total GULP energy -156428.641882 kJ/mol
# GULP energy per Si atom -5586.737210 kJ/mol
# Density = 1.856878 g / cm^3
# Si number density = 18.611139 Si / 1000 Ang^3
#
#
#
# Elastic Constant Matrix: (Units=GPa)
#
#
# Indices 1 2 3 4 5 6 
#
# 1 73.2745 8.3620 -3.4922 0.0000 0.0000 0.0000
# 2 8.3620 52.8843 19.7152 0.0000 0.0000 0.0000
# 3 -3.4922 19.7152 118.4306 0.0000 0.0000 0.0000
# 4 0.0000 0.0000 0.0000 115.3917 0.0000 0.0000
# 5 0.0000 0.0000 0.0000 0.0000 2.3435 0.0000
# 6 0.0000 0.0000 0.0000 0.0000 0.0000 30.5860
#
#
#
# Elastic Compliance Matrix: (Units=1/GPa)
#
#
# Indices 1 2 3 4 5 6 
#
# 1 0.013974 -0.002520 0.000832 0.000000 0.000000 0.000000
# 2 -0.002520 0.020615 -0.003506 0.000000 0.000000 0.000000
# 3 0.000832 -0.003506 0.009052 0.000000 0.000000 0.000000
# 4 0.000000 0.000000 0.000000 0.008666 0.000000 0.000000
# 5 0.000000 0.000000 0.000000 0.000000 0.426718 0.000000
# 6 0.000000 0.000000 0.000000 0.000000 0.000000 0.032695
#
#
# Mechanical properties :
#
#
# Convention : Reuss Voigt Hill
#
# Bulk Modulus (GPa) = 30.07264 32.63991 31.35628
# Shear Modulus (GPa) = 9.37747 44.33120 26.85434
#
# Velocity S-wave (km/s) = 2.24713 4.88584 3.80270
# Velocity P-wave (km/s) = 4.78814 7.02883 6.01376
#
# Compressibility (1/GPa) = 0.03325281
#
# Stress axis : x y z
#
# Youngs Moduli (GPa) = 71.55907 48.50923 110.47366
#
# Poissons Ratio (x) = 0.12222 -0.09186
# Poissons Ratio (y) = 0.18030 0.38732
# Poissons Ratio (z) = -0.05950 0.17007
#
# Static dielectric constant tensor:
#      x y z
#    x 1.627720 0.000000 0.000000 
#    y 0.000000 1.638440 0.000000 
#    z 0.000000 0.000000 1.670230 
# 
# From -- ./inp_files/38296.got.cif
#   From: 2010.05.17/outbox.cif.g08.bks.cpg/sg21_20_cif.got.tgz:38296.got - 2010.06.03 23:14:55.
