data_PCOD9322095
_publ_section_title
;
Structure prediction by ZEFSAII (Michael W. Deem and Ramdas Pophale) SiO2 
 PCOD9322095
Probable space group: C 2 2 21
;
_chemical_formula_sum "Si O2"
_cell_formula_units_Z 36
_cell_length_a 7.975758
_cell_length_b 21.011830
_cell_length_c 9.805457
_cell_angle_alpha 90.000000
_cell_angle_beta 90.000000
_cell_angle_gamma 90.000000
_cell_volume 1643.250171
_symmetry_space_group_name_H-M "C 2 2 21"
_symmetry_group_IT_number 20
_symmetry_cell_setting 'orthorhombic'
loop_
_space_group_symop_operation_xyz
x,y,z
-x,-y,1/2+z
x,-y,-z
-x,y,1/2-z
1/2+x,1/2+y,z
1/2-x,1/2-y,1/2+z
1/2+x,1/2-y,-z
1/2-x,1/2+y,1/2-z
loop_
_atom_site_type_symbol
_atom_site_label
_atom_site_fract_x
_atom_site_fract_y
_atom_site_fract_z
Si Si1 0.590805 0.000000 0.500000
Si Si2 0.500000 0.320136 0.750000
Si Si3 0.662880 0.878463 0.655533
Si Si4 0.000000 0.420835 0.250000
Si Si5 0.834288 0.255043 0.027748
Si Si6 0.686160 0.671882 0.735393
O O1 0.691543 0.943855 0.574244
O O2 0.486070 0.964575 0.383298
O O3 0.330790 0.360315 0.736906
O O4 0.517162 0.275383 0.617965
O O5 0.500000 0.885480 0.750000
O O6 0.628107 0.820375 0.551389
O O7 0.164263 0.377100 0.259303
O O8 0.702491 0.273794 0.147181
O O9 0.793922 0.203348 0.912738
O O10 0.500000 0.643950 0.750000
#
# Coordination Sequence:
#
# PCOD9322095 Si02
#       6
#     4   4   8   4   8   8
#     4  12  28  52  74 106 146 210 254 304 352 434
#     4  12  29  46  76 118 150 191 240 312 384 445
#     4  12  28  49  74 108 154 198 251 304 368 441
#     4  12  29  52  76 106 152 197 256 304 364 435
#     4  12  26  45  75 115 151 184 243 310 381 443
#     4  12  28  46  76 115 149 193 243 308 381 446
#
# _framework density 21.907802
#
# number of rings (size 3 to 8) (size 9 to 14) (size 15 to 20)
#    0.000    0.000    5.556    2.667    9.333    0.000 
#    2.000    2.222    0.000    0.000    0.000    0.000 
#    0.000    0.000    0.000    0.000    0.000    0.000 
#
# Total GULP energy -100759.035266 kJ/mol
# GULP energy per Si atom -5597.724181 kJ/mol
# Density = 2.185794 g / cm^3
# Si number density = 21.907802 Si / 1000 Ang^3
#
#
#
# Elastic Constant Matrix: (Units=GPa)
#
#
# Indices 1 2 3 4 5 6 
#
# 1 165.6083 53.8678 42.5522 0.0000 0.0000 0.0000
# 2 53.8678 114.0377 44.4483 0.0000 0.0000 0.0000
# 3 42.5522 44.4483 155.4484 0.0000 0.0000 0.0000
# 4 0.0000 0.0000 0.0000 53.2490 0.0000 0.0000
# 5 0.0000 0.0000 0.0000 0.0000 31.3067 0.0000
# 6 0.0000 0.0000 0.0000 0.0000 0.0000 12.9734
#
#
#
# Elastic Compliance Matrix: (Units=1/GPa)
#
#
# Indices 1 2 3 4 5 6 
#
# 1 0.007310 -0.003008 -0.001141 0.000000 0.000000 0.000000
# 2 -0.003008 0.011107 -0.002352 0.000000 0.000000 0.000000
# 3 -0.001141 -0.002352 0.007418 0.000000 0.000000 0.000000
# 4 0.000000 0.000000 0.000000 0.018780 0.000000 0.000000
# 5 0.000000 0.000000 0.000000 0.000000 0.031942 0.000000
# 6 0.000000 0.000000 0.000000 0.000000 0.000000 0.077081
#
#
# Mechanical properties :
#
#
# Convention : Reuss Voigt Hill
#
# Bulk Modulus (GPa) = 77.93163 79.64789 78.78976
# Shear Modulus (GPa) = 29.25384 39.12089 34.18737
#
# Velocity S-wave (km/s) = 3.65816 4.23035 3.95462
# Velocity P-wave (km/s) = 7.31387 7.76505 7.54283
#
# Compressibility (1/GPa) = 0.01283176
#
# Stress axis : x y z
#
# Youngs Moduli (GPa) = 136.79874 90.03364 134.80862
#
# Poissons Ratio (x) = 0.27085 0.15379
# Poissons Ratio (y) = 0.41154 0.31712
# Poissons Ratio (z) = 0.15606 0.21179
#
# Static dielectric constant tensor:
#      x y z
#    x 1.846930 0.000000 0.000000 
#    y 0.000000 1.778070 0.000000 
#    z 0.000000 0.000000 1.820200 
# 
# From -- ./inp_files/5951.got.cif
#   From: 2010.05.17/outbox.cif.g08.bks.cpg/sg20_3_cif.got.tgz:5951.got - 2010.06.03 22:52:26.
