data_PCOD9322711
_publ_section_title
;
Structure prediction by ZEFSAII (Michael W. Deem and Ramdas Pophale) SiO2 
 PCOD9322711
Probable space group: C 2 2 2
;
_chemical_formula_sum "Si O2"
_cell_formula_units_Z 40
_cell_length_a 14.226982
_cell_length_b 5.271926
_cell_length_c 24.069886
_cell_angle_alpha 90.000000
_cell_angle_beta 90.000000
_cell_angle_gamma 90.000000
_cell_volume 1805.328013
_symmetry_space_group_name_H-M "C 2 2 2"
_symmetry_group_IT_number 21
_symmetry_cell_setting 'orthorhombic'
loop_
_space_group_symop_operation_xyz
x,y,z
-x,-y,z
x,-y,-z
-x,y,-z
1/2+x,1/2+y,z
1/2-x,1/2-y,z
1/2+x,1/2-y,-z
1/2-x,1/2+y,-z
loop_
_atom_site_type_symbol
_atom_site_label
_atom_site_fract_x
_atom_site_fract_y
_atom_site_fract_z
Si Si1 0.103356 0.781064 0.338588
Si Si2 0.136586 0.753635 0.465125
Si Si3 0.315592 0.002280 0.180704
Si Si4 0.893410 0.294575 0.707928
Si Si5 0.815858 0.501063 0.940339
O O1 0.093958 0.800184 0.404340
O O2 0.151757 0.509797 0.330435
O O3 0.000729 0.745577 0.311119
O O4 0.147191 0.016886 0.305195
O O5 0.111486 0.500000 0.500000
O O6 0.250000 0.750000 0.457421
O O7 0.112408 0.000000 0.500000
O O8 0.250000 0.750000 0.189296
O O9 0.364451 0.983175 0.119988
O O10 0.250000 0.250000 0.177529
O O11 0.382435 0.082936 0.231336
O O12 0.750000 0.750000 0.940939
O O13 0.750000 0.250000 0.940202
O O14 0.868160 0.500000 0.000000
#
# Coordination Sequence:
#
# PCOD9322711 Si02
#       5
#     8   8   8   8   8
#     4  10  21  38  56  76 106 140 175 217 265 322
#     4  10  21  38  59  82 105 130 166 216 272 327
#     4  10  19  31  50  77 108 142 181 226 272 320
#     4  10  21  36  51  76 107 141 180 216 264 320
#     4   8  14  25  42  67 101 136 171 217 268 313
#
# _framework density 22.156637
#
# number of rings (size 3 to 8) (size 9 to 14) (size 15 to 20)
#    0.000    2.400    0.000    2.400    0.000    2.400 
#    0.000   12.000    0.000    0.000    0.000    2.800 
#    0.000    6.400    0.000    0.000    0.000    0.000 
#
# Total GULP energy -111348.433217 kJ/mol
# GULP energy per Si atom -5567.421661 kJ/mol
# Density = 2.210621 g / cm^3
# Si number density = 22.156637 Si / 1000 Ang^3
#
#
#
# Elastic Constant Matrix: (Units=GPa)
#
#
# Indices 1 2 3 4 5 6 
#
# 1 79.9207 12.6680 39.6857 0.0000 0.0000 0.0000
# 2 12.6680 211.2133 55.1420 0.0000 0.0000 0.0000
# 3 39.6857 55.1420 264.6751 0.0000 0.0000 0.0000
# 4 0.0000 0.0000 0.0000 35.5598 0.0000 0.0000
# 5 0.0000 0.0000 0.0000 0.0000 356.4774 0.0000
# 6 0.0000 0.0000 0.0000 0.0000 0.0000 -11.5486
#
#
#
# Elastic Compliance Matrix: (Units=1/GPa)
#
#
# Indices 1 2 3 4 5 6 
#
# 1 0.013537 -0.000298 -0.001968 0.000000 0.000000 0.000000
# 2 -0.000298 0.005013 -0.001000 0.000000 0.000000 0.000000
# 3 -0.001968 -0.001000 0.004282 0.000000 0.000000 0.000000
# 4 0.000000 0.000000 0.000000 0.028122 0.000000 0.000000
# 5 0.000000 0.000000 0.000000 0.000000 0.002805 0.000000
# 6 0.000000 0.000000 0.000000 0.000000 0.000000 -0.086591
#
#
# Mechanical properties :
#
#
# Convention : Reuss Voigt Hill
#
# Bulk Modulus (GPa) = 61.34771 85.64452 73.49611
# Shear Modulus (GPa) = -239.60752 105.98529 -66.81111
#
# Velocity S-wave (km/s) = -10.41044 6.92376 -5.49722
# Velocity P-wave (km/s) = 10.80531 10.13192 2.65508
#
# Compressibility (1/GPa) = 0.01630053
#
# Stress axis : x y z
#
# Youngs Moduli (GPa) = 73.87327 199.46343 233.56131
#
# Poissons Ratio (x) = 0.05948 0.45955
# Poissons Ratio (y) = 0.02203 0.23351
# Poissons Ratio (z) = 0.14535 0.19942
#
# Static dielectric constant tensor:
#      x y z
#    x 1.708970 0.000000 0.000000 
#    y 0.000000 1.637540 0.000000 
#    z 0.000000 0.000000 1.951890 
# 
# From -- ./inp_files/37644.got.cif
#   From: 2010.05.17/outbox.cif.g08.bks.cpg/sg21_19_cif.got.tgz:37644.got - 2010.06.03 23:14:55.
