data_PCOD9322283
_publ_section_title
;
Structure prediction by ZEFSAII (Michael W. Deem and Ramdas Pophale) SiO2 
 PCOD9322283
Probable space group: C 2 2 2
;
_chemical_formula_sum "Si O2"
_cell_formula_units_Z 48
_cell_length_a 23.616161
_cell_length_b 5.258730
_cell_length_c 22.816057
_cell_angle_alpha 90.000000
_cell_angle_beta 90.000000
_cell_angle_gamma 90.000000
_cell_volume 2833.549262
_symmetry_space_group_name_H-M "C 2 2 2"
_symmetry_group_IT_number 21
_symmetry_cell_setting 'orthorhombic'
loop_
_space_group_symop_operation_xyz
x,y,z
-x,-y,z
x,-y,-z
-x,y,-z
1/2+x,1/2+y,z
1/2-x,1/2-y,z
1/2+x,1/2-y,-z
1/2-x,1/2+y,-z
loop_
_atom_site_type_symbol
_atom_site_label
_atom_site_fract_x
_atom_site_fract_y
_atom_site_fract_z
Si Si1 0.681847 0.702116 0.181691
Si Si2 0.351827 0.189402 0.886494
Si Si3 0.711912 0.000000 0.500000
Si Si4 0.818389 0.276380 0.380448
Si Si5 0.474940 0.751500 0.066897
Si Si6 0.750000 0.750000 0.967993
Si Si7 0.681524 0.727217 0.318517
O O1 0.750000 0.750000 0.174850
O O2 0.663764 0.446820 0.148113
O O3 0.670344 0.670106 0.250726
O O4 0.648448 0.945583 0.156110
O O5 0.408073 0.232351 0.924952
O O6 0.300354 0.136689 0.929996
O O7 0.750000 0.250000 0.518899
O O8 0.676237 0.113925 0.446137
O O9 0.750000 0.250000 0.374344
O O10 0.840058 0.496444 0.337607
O O11 0.839237 0.999129 0.361003
O O12 0.500000 0.500000 0.094994
O O13 0.500000 0.000000 0.096244
O O14 0.500000 0.751170 0.000000
O O15 0.726197 0.500000 0.000000
O O16 0.750000 0.750000 0.324012
#
# Coordination Sequence:
#
# PCOD9322283 Si02
#       7
#     8   8   4   8   8   4   8
#     4  11  20  36  52  78 102 131 160 208 263 313
#     4  12  23  39  57  77 105 128 165 204 256 321
#     4  10  16  22  34  50  82 118 168 222 257 280
#     4   9  15  24  34  56  79 121 162 209 251 283
#     4  10  23  40  58  76  97 129 164 201 244 302
#     4  12  26  36  56  80 106 132 154 196 258 322
#     4   9  17  26  42  58  88 118 159 199 251 301
#
# _framework density 16.939885
#
# number of rings (size 3 to 8) (size 9 to 14) (size 15 to 20)
#    0.000    1.667    1.667    5.500    4.667    2.667 
#    0.000    0.000    0.000    0.000    0.000    0.000 
#    0.000    0.000    0.000    0.000    0.000    0.000 
#
# Total GULP energy -133644.015032 kJ/mol
# GULP energy per Si atom -5568.500626 kJ/mol
# Density = 1.690133 g / cm^3
# Si number density = 16.939885 Si / 1000 Ang^3
#
#
#
# Elastic Constant Matrix: (Units=GPa)
#
#
# Indices 1 2 3 4 5 6 
#
# 1 51.7338 -0.3064 11.8690 0.0000 0.0000 0.0000
# 2 -0.3064 125.2696 27.9040 0.0000 0.0000 0.0000
# 3 11.8690 27.9040 76.1245 0.0000 0.0000 0.0000
# 4 0.0000 0.0000 0.0000 63.0270 0.0000 0.0000
# 5 0.0000 0.0000 0.0000 0.0000 1.2139 0.0000
# 6 0.0000 0.0000 0.0000 0.0000 0.0000 15.4472
#
#
#
# Elastic Compliance Matrix: (Units=1/GPa)
#
#
# Indices 1 2 3 4 5 6 
#
# 1 0.020123 0.000815 -0.003436 0.000000 0.000000 0.000000
# 2 0.000815 0.008726 -0.003325 0.000000 0.000000 0.000000
# 3 -0.003436 -0.003325 0.014891 0.000000 0.000000 0.000000
# 4 0.000000 0.000000 0.000000 0.015866 0.000000 0.000000
# 5 0.000000 0.000000 0.000000 0.000000 0.823758 0.000000
# 6 0.000000 0.000000 0.000000 0.000000 0.000000 0.064736
#
#
# Mechanical properties :
#
#
# Convention : Reuss Voigt Hill
#
# Bulk Modulus (GPa) = 31.40140 36.89568 34.14854
# Shear Modulus (GPa) = 5.15140 30.18172 17.66656
#
# Velocity S-wave (km/s) = 1.74574 4.22559 3.23290
# Velocity P-wave (km/s) = 4.75822 6.75538 5.84277
#
# Compressibility (1/GPa) = 0.03184572
#
# Stress axis : x y z
#
# Youngs Moduli (GPa) = 49.69468 114.60637 67.15436
#
# Poissons Ratio (x) = -0.09336 0.23075
# Poissons Ratio (y) = -0.04048 0.22332
# Poissons Ratio (z) = 0.17075 0.38111
#
# Static dielectric constant tensor:
#      x y z
#    x 1.510550 0.000000 0.000000 
#    y 0.000000 1.643880 0.000000 
#    z 0.000000 0.000000 1.610580 
# 
# From -- ./inp_files/37803.got.cif
#   From: 2010.05.17/outbox.cif.g08.bks.cpg/sg21_19_cif.got.tgz:37803.got - 2010.06.03 23:14:55.
