data_PCOD9322430
_publ_section_title
;
Structure prediction by ZEFSAII (Michael W. Deem and Ramdas Pophale) SiO2 
 PCOD9322430
Probable space group: C 2 2 2
;
_chemical_formula_sum "Si O2"
_cell_formula_units_Z 36
_cell_length_a 19.083993
_cell_length_b 8.352126
_cell_length_c 12.132683
_cell_angle_alpha 90.000000
_cell_angle_beta 90.000000
_cell_angle_gamma 90.000000
_cell_volume 1933.851567
_symmetry_space_group_name_H-M "C 2 2 2"
_symmetry_group_IT_number 21
_symmetry_cell_setting 'orthorhombic'
loop_
_space_group_symop_operation_xyz
x,y,z
-x,-y,z
x,-y,-z
-x,y,-z
1/2+x,1/2+y,z
1/2-x,1/2-y,z
1/2+x,1/2-y,-z
1/2-x,1/2+y,-z
loop_
_atom_site_type_symbol
_atom_site_label
_atom_site_fract_x
_atom_site_fract_y
_atom_site_fract_z
Si Si1 0.750000 0.250000 0.607859
Si Si2 0.211792 0.520676 0.243124
Si Si3 0.157018 0.500000 0.000000
Si Si4 0.853874 0.000000 0.500000
Si Si5 0.366556 0.661772 0.284164
Si Si6 0.921434 0.833686 0.954328
O O1 0.796114 0.361098 0.686999
O O2 0.698565 0.358156 0.536413
O O3 0.292108 0.576051 0.257769
O O4 0.158873 0.653916 0.291442
O O5 0.199129 0.496761 0.114009
O O6 0.114636 0.332348 0.991408
O O7 0.893373 0.925698 0.605569
O O8 0.416127 0.653431 0.177979
O O9 0.000000 0.827758 0.000000
O O10 0.888741 0.000000 0.000000
#
# Coordination Sequence:
#
# PCOD9322430 Si02
#       6
#     4   8   4   4   8   8
#     4  10  18  28  48  76 116 156 172 214 278 334
#     4   9  19  30  49  83 116 146 177 221 285 334
#     4  10  21  34  56  84 113 144 180 232 276 340
#     4  10  18  30  50  75 116 144 189 218 264 338
#     4   9  19  34  50  79 114 145 183 226 272 333
#     4  10  22  38  57  78 109 146 189 230 275 324
#
# _framework density 18.615698999999999
#
# number of rings (size 3 to 8) (size 9 to 14) (size 15 to 20)
#    0.000    2.444    0.000    3.000    7.778    1.778 
#    0.000    0.000    0.000    2.667    0.000    0.000 
#    0.000    0.000    0.000    0.000    0.000    0.000 
#
# Total GULP energy -100310.746507 kJ/mol
# GULP energy per Si atom -5572.819250 kJ/mol
# Density = 1.857333 g / cm^3
# Si number density = 18.615699 Si / 1000 Ang^3
#
#
#
# Elastic Constant Matrix: (Units=GPa)
#
#
# Indices 1 2 3 4 5 6 
#
# 1 25.0006 13.3144 26.3846 0.0000 0.0000 0.0000
# 2 13.3144 132.1339 61.4342 0.0000 0.0000 0.0000
# 3 26.3846 61.4342 135.7359 0.0000 0.0000 0.0000
# 4 0.0000 0.0000 0.0000 40.9565 0.0000 0.0000
# 5 0.0000 0.0000 0.0000 0.0000 34.8794 0.0000
# 6 0.0000 0.0000 0.0000 0.0000 0.0000 6.4599
#
#
#
# Elastic Compliance Matrix: (Units=1/GPa)
#
#
# Indices 1 2 3 4 5 6 
#
# 1 0.050368 -0.000663 -0.009491 0.000000 0.000000 0.000000
# 2 -0.000663 0.009594 -0.004213 0.000000 0.000000 0.000000
# 3 -0.009491 -0.004213 0.011119 0.000000 0.000000 0.000000
# 4 0.000000 0.000000 0.000000 0.024416 0.000000 0.000000
# 5 0.000000 0.000000 0.000000 0.000000 0.028670 0.000000
# 6 0.000000 0.000000 0.000000 0.000000 0.000000 0.154801
#
#
# Mechanical properties :
#
#
# Convention : Reuss Voigt Hill
#
# Bulk Modulus (GPa) = 23.61420 55.01521 39.31471
# Shear Modulus (GPa) = 15.53673 29.24163 22.38918
#
# Velocity S-wave (km/s) = 2.89208 3.96764 3.47176
# Velocity P-wave (km/s) = 4.88517 7.11385 6.10212
#
# Compressibility (1/GPa) = 0.04234740
#
# Stress axis : x y z
#
# Youngs Moduli (GPa) = 19.85382 104.23393 89.93588
#
# Poissons Ratio (x) = 0.06908 0.85356
# Poissons Ratio (y) = 0.01316 0.37893
# Poissons Ratio (z) = 0.18843 0.43917
#
# Static dielectric constant tensor:
#      x y z
#    x 1.620060 0.000000 0.000000 
#    y 0.000000 1.689440 0.000000 
#    z 0.000000 0.000000 1.671990 
# 
# From -- ./inp_files/22484.got.cif
#   From: 2010.05.17/outbox.cif.g08.bks.cpg/sg21_12_cif.got.tgz:22484.got - 2010.06.03 23:14:55.
