data_PCOD9322565
_publ_section_title
;
Structure prediction by ZEFSAII (Michael W. Deem and Ramdas Pophale) SiO2 
 PCOD9322565
Probable space group: C 2 2 2
;
_chemical_formula_sum "Si O2"
_cell_formula_units_Z 64
_cell_length_a 23.234733
_cell_length_b 15.881937
_cell_length_c 8.764737
_cell_angle_alpha 90.000000
_cell_angle_beta 90.000000
_cell_angle_gamma 90.000000
_cell_volume 3234.298088
_symmetry_space_group_name_H-M "C 2 2 2"
_symmetry_group_IT_number 21
_symmetry_cell_setting 'orthorhombic'
loop_
_space_group_symop_operation_xyz
x,y,z
-x,-y,z
x,-y,-z
-x,y,-z
1/2+x,1/2+y,z
1/2-x,1/2-y,z
1/2+x,1/2-y,-z
1/2-x,1/2+y,-z
loop_
_atom_site_type_symbol
_atom_site_label
_atom_site_fract_x
_atom_site_fract_y
_atom_site_fract_z
Si Si1 0.127786 0.127860 0.134040
Si Si2 0.393807 0.255063 0.589969
Si Si3 0.307153 0.204034 0.190532
Si Si4 0.744567 0.410321 0.022611
Si Si5 0.455381 0.306888 0.882117
Si Si6 0.960242 0.875471 0.370990
Si Si7 0.828110 0.595155 0.468524
Si Si8 0.777741 0.157517 0.350803
O O1 0.144841 0.224770 0.174587
O O2 0.188353 0.088159 0.086613
O O3 0.094909 0.088413 0.279195
O O4 0.086743 0.136219 0.985879
O O5 0.419285 0.252837 0.761079
O O6 0.436903 0.292541 0.462459
O O7 0.368730 0.164459 0.547926
O O8 0.341511 0.322448 0.592278
O O9 0.250000 0.250000 0.259287
O O10 0.285465 0.165296 0.031985
O O11 0.325600 0.126677 0.295008
O O12 0.773995 0.500000 0.000000
O O13 0.723715 0.391279 0.191780
O O14 0.496414 0.358239 0.768189
O O15 0.500000 0.263314 0.000000
O O16 0.000000 0.916688 0.500000
O O17 0.845959 0.500000 0.500000
O O18 0.763855 0.608611 0.534496
O O19 0.750000 0.250000 0.327114
#
# Coordination Sequence:
#
# PCOD9322565 Si02
#       8
#     8   8   8   8   8   8   8   8
#     4  10  18  34  57  81 108 138 180 222 266 315
#     4  10  18  34  57  81 108 138 180 222 266 315
#     4  10  20  34  54  78 112 144 184 214 254 316
#     4  11  22  34  51  82 115 148 173 213 265 326
#     4   9  18  32  56  86  99 126 183 240 265 303
#     4   9  18  32  56  86  99 126 183 240 265 303
#     4  11  22  34  51  82 115 148 173 213 265 326
#     4  10  20  34  54  78 112 144 184 214 254 316
#
# _framework density 19.78791
#
# number of rings (size 3 to 8) (size 9 to 14) (size 15 to 20)
#    0.000    2.000    2.500    3.000    3.500    0.000 
#    0.000    0.000    0.000    6.750    6.500    0.000 
#    0.000    0.000    0.000    0.000    0.000    0.000 
#
# Total GULP energy -178351.441942 kJ/mol
# GULP energy per Si atom -5573.482561 kJ/mol
# Density = 1.974287 g / cm^3
# Si number density = 19.787910 Si / 1000 Ang^3
#
#
#
# Elastic Constant Matrix: (Units=GPa)
#
#
# Indices 1 2 3 4 5 6 
#
# 1 61.0000 -5.8585 19.2565 0.0000 0.0000 0.0000
# 2 -5.8585 61.9412 5.7153 0.0000 0.0000 0.0000
# 3 19.2565 5.7153 88.0574 0.0000 0.0000 0.0000
# 4 0.0000 0.0000 0.0000 4.7687 0.0000 0.0000
# 5 0.0000 0.0000 0.0000 0.0000 43.9074 0.0000
# 6 0.0000 0.0000 0.0000 0.0000 0.0000 -7.0927
#
#
#
# Elastic Compliance Matrix: (Units=1/GPa)
#
#
# Indices 1 2 3 4 5 6 
#
# 1 0.017867 0.002063 -0.004041 0.000000 0.000000 0.000000
# 2 0.002063 0.016480 -0.001521 0.000000 0.000000 0.000000
# 3 -0.004041 -0.001521 0.012339 0.000000 0.000000 0.000000
# 4 0.000000 0.000000 0.000000 0.209702 0.000000 0.000000
# 5 0.000000 0.000000 0.000000 0.000000 0.022775 0.000000
# 6 0.000000 0.000000 0.000000 0.000000 0.000000 -0.140990
#
#
# Mechanical properties :
#
#
# Convention : Reuss Voigt Hill
#
# Bulk Modulus (GPa) = 25.19677 27.69168 26.44423
# Shear Modulus (GPa) = 31.56566 21.10904 26.33735
#
# Velocity S-wave (km/s) = 3.99833 3.26968 3.65222
# Velocity P-wave (km/s) = 5.83751 5.31780 5.58371
#
# Compressibility (1/GPa) = 0.03968762
#
# Stress axis : x y z
#
# Youngs Moduli (GPa) = 55.96828 60.68050 81.04618
#
# Poissons Ratio (x) = -0.12517 0.32752
# Poissons Ratio (y) = -0.11545 0.12325
# Poissons Ratio (z) = 0.22617 0.09228
#
# Static dielectric constant tensor:
#      x y z
#    x 1.740300 0.000000 0.000000 
#    y 0.000000 1.673380 0.000000 
#    z 0.000000 0.000000 1.757620 
# 
# From -- ./inp_files/19241.got.cif
#   From: 2010.05.17/outbox.cif.g08.bks.cpg/sg21_10_cif.got.tgz:19241.got - 2010.06.03 23:14:55.
