data_PCOD9322308
_publ_section_title
;
Structure prediction by ZEFSAII (Michael W. Deem and Ramdas Pophale) SiO2 
 PCOD9322308
Probable space group: C 2 2 2
;
_chemical_formula_sum "Si O2"
_cell_formula_units_Z 48
_cell_length_a 16.826347
_cell_length_b 29.721571
_cell_length_c 5.256379
_cell_angle_alpha 90.000000
_cell_angle_beta 90.000000
_cell_angle_gamma 90.000000
_cell_volume 2628.743875
_symmetry_space_group_name_H-M "C 2 2 2"
_symmetry_group_IT_number 21
_symmetry_cell_setting 'orthorhombic'
loop_
_space_group_symop_operation_xyz
x,y,z
-x,-y,z
x,-y,-z
-x,y,-z
1/2+x,1/2+y,z
1/2-x,1/2-y,z
1/2+x,1/2-y,-z
1/2-x,1/2+y,-z
loop_
_atom_site_type_symbol
_atom_site_label
_atom_site_fract_x
_atom_site_fract_y
_atom_site_fract_z
Si Si1 0.219750 0.969826 0.751485
Si Si2 0.746076 0.871241 0.414349
Si Si3 0.202110 0.679404 0.079832
Si Si4 0.534959 0.449304 0.759182
Si Si5 0.127258 0.228517 0.896502
Si Si6 0.416143 0.678441 0.598109
O O1 0.261380 0.923163 0.671100
O O2 0.128202 0.954867 0.789994
O O3 0.222185 0.000000 0.500000
O O4 0.243020 0.000000 0.000000
O O5 0.709810 0.855902 0.686079
O O6 0.840111 0.855686 0.411005
O O7 0.702532 0.844108 0.192149
O O8 0.134886 0.717722 0.086919
O O9 0.284909 0.706742 0.089124
O O10 0.500000 0.500000 0.762100
O O11 0.500000 0.431237 0.500000
O O12 0.500000 0.423456 0.000000
O O13 0.099349 0.215973 0.616101
O O14 0.082900 0.203016 0.127789
O O15 0.500000 0.659508 0.500000
#
# Coordination Sequence:
#
# PCOD9322308 Si02
#       6
#     8   8   8   8   8   8
#     4  12  21  32  45  59  83 117 162 202 247 283
#     4  10  21  32  46  66  91 119 158 214 240 268
#     4   9  17  33  49  69  84 111 163 196 237 276
#     4  10  16  29  41  53  68  98 148 199 216 274
#     4   9  17  30  53  66  89 122 148 191 230 293
#     4  10  19  32  45  72 100 122 150 187 245 290
#
# _framework density 18.259671999999998
#
# number of rings (size 3 to 8) (size 9 to 14) (size 15 to 20)
#    0.000    2.000    3.333    2.500    0.000    4.667 
#    0.000    3.333    0.000    0.000    0.000    0.000 
#    0.000    0.000    0.000    0.000    0.000  175.000 
#
# Total GULP energy -133641.560786 kJ/mol
# GULP energy per Si atom -5568.398366 kJ/mol
# Density = 1.821811 g / cm^3
# Si number density = 18.259672 Si / 1000 Ang^3
#
#
#
# Elastic Constant Matrix: (Units=GPa)
#
#
# Indices 1 2 3 4 5 6 
#
# 1 10.6283 17.8023 9.7408 0.0000 0.0000 0.0000
# 2 17.8023 94.4057 29.8109 0.0000 0.0000 0.0000
# 3 9.7408 29.8109 139.6887 0.0000 0.0000 0.0000
# 4 0.0000 0.0000 0.0000 47.8963 0.0000 0.0000
# 5 0.0000 0.0000 0.0000 0.0000 12.9274 0.0000
# 6 0.0000 0.0000 0.0000 0.0000 0.0000 1.4228
#
#
#
# Elastic Compliance Matrix: (Units=1/GPa)
#
#
# Indices 1 2 3 4 5 6 
#
# 1 0.140036 -0.025009 -0.004428 0.000000 0.000000 0.000000
# 2 -0.025009 0.015824 -0.001633 0.000000 0.000000 0.000000
# 3 -0.004428 -0.001633 0.007816 0.000000 0.000000 0.000000
# 4 0.000000 0.000000 0.000000 0.020878 0.000000 0.000000
# 5 0.000000 0.000000 0.000000 0.000000 0.077355 0.000000
# 6 0.000000 0.000000 0.000000 0.000000 0.000000 0.702863
#
#
# Mechanical properties :
#
#
# Convention : Reuss Voigt Hill
#
# Bulk Modulus (GPa) = 9.84868 39.93676 24.89272
# Shear Modulus (GPa) = 4.71361 24.94054 14.82708
#
# Velocity S-wave (km/s) = 1.60843 3.69979 2.85267
# Velocity P-wave (km/s) = 2.97570 6.33801 4.95102
#
# Compressibility (1/GPa) = 0.10153648
#
# Stress axis : x y z
#
# Youngs Moduli (GPa) = 7.14104 63.19424 127.94148
#
# Poissons Ratio (x) = 1.58040 0.56652
# Poissons Ratio (y) = 0.17859 0.20894
# Poissons Ratio (z) = 0.03162 0.10320
#
# Static dielectric constant tensor:
#      x y z
#    x 1.664260 0.000000 0.000000 
#    y 0.000000 1.665050 0.000000 
#    z 0.000000 0.000000 1.663360 
# 
# From -- ./inp_files/6048.got.cif
#   From: 2010.05.17/outbox.cif.g08.bks.cpg/sg21_4_cif.got.tgz:6048.got - 2010.06.03 23:14:55.
