data_PCOD9322570
_publ_section_title
;
Structure prediction by ZEFSAII (Michael W. Deem and Ramdas Pophale) SiO2 
 PCOD9322570
Probable space group: C 2 2 2
;
_chemical_formula_sum "Si O2"
_cell_formula_units_Z 40
_cell_length_a 11.540465
_cell_length_b 21.587280
_cell_length_c 7.436932
_cell_angle_alpha 90.000000
_cell_angle_beta 90.000000
_cell_angle_gamma 90.000000
_cell_volume 1852.742412
_symmetry_space_group_name_H-M "C 2 2 2"
_symmetry_group_IT_number 21
_symmetry_cell_setting 'orthorhombic'
loop_
_space_group_symop_operation_xyz
x,y,z
-x,-y,z
x,-y,-z
-x,y,-z
1/2+x,1/2+y,z
1/2-x,1/2-y,z
1/2+x,1/2-y,-z
1/2-x,1/2+y,-z
loop_
_atom_site_type_symbol
_atom_site_label
_atom_site_fract_x
_atom_site_fract_y
_atom_site_fract_z
Si Si1 0.846337 0.402520 0.143797
Si Si2 0.878507 0.238435 0.890790
Si Si3 0.712263 0.026870 0.684742
Si Si4 0.427911 0.139384 0.258755
Si Si5 0.372900 0.598935 0.946728
O O1 0.857843 0.473294 0.209322
O O2 0.933459 0.362949 0.264959
O O3 0.888697 0.385457 0.941411
O O4 0.709252 0.391764 0.122273
O O5 0.750000 0.250000 0.978604
O O6 0.884244 0.290370 0.734944
O O7 0.879411 0.165795 0.849117
O O8 0.000000 0.249231 0.000000
O O9 0.632763 0.085462 0.629894
O O10 0.811347 0.050293 0.817826
O O11 0.759608 0.000000 0.500000
O O12 0.500000 0.579821 0.000000
#
# Coordination Sequence:
#
# PCOD9322570 Si02
#       5
#     8   8   8   8   8
#     4  10  19  34  54  84 118 150 202 260 304 356
#     4  11  17  32  60  93 119 151 208 270 315 358
#     4  11  23  36  55  86 124 159 195 248 314 378
#     4  10  18  34  58  87 116 154 201 257 311 358
#     4  10  21  36  61  89 116 160 210 253 311 367
#
# _framework density 21.589615999999999
#
# number of rings (size 3 to 8) (size 9 to 14) (size 15 to 20)
#    0.000    1.600    6.000    3.000    0.000    6.400 
#    0.000    2.000    0.000    4.800    5.200    0.000 
#    0.000    0.000    0.000    0.000    0.000    0.000 
#
# Total GULP energy -111348.898191 kJ/mol
# GULP energy per Si atom -5567.444910 kJ/mol
# Density = 2.154048 g / cm^3
# Si number density = 21.589616 Si / 1000 Ang^3
#
#
#
# Elastic Constant Matrix: (Units=GPa)
#
#
# Indices 1 2 3 4 5 6 
#
# 1 164.8186 9.6609 10.1035 0.0000 0.0000 0.0000
# 2 9.6609 130.1990 13.1378 0.0000 0.0000 0.0000
# 3 10.1035 13.1378 28.5619 0.0000 0.0000 0.0000
# 4 0.0000 0.0000 0.0000 8.8563 0.0000 0.0000
# 5 0.0000 0.0000 0.0000 0.0000 7.6879 0.0000
# 6 0.0000 0.0000 0.0000 0.0000 0.0000 40.4557
#
#
#
# Elastic Compliance Matrix: (Units=1/GPa)
#
#
# Indices 1 2 3 4 5 6 
#
# 1 0.006210 -0.000251 -0.002081 0.000000 0.000000 0.000000
# 2 -0.000251 0.008065 -0.003621 0.000000 0.000000 0.000000
# 3 -0.002081 -0.003621 0.037413 0.000000 0.000000 0.000000
# 4 0.000000 0.000000 0.000000 0.112914 0.000000 0.000000
# 5 0.000000 0.000000 0.000000 0.000000 0.130074 0.000000
# 6 0.000000 0.000000 0.000000 0.000000 0.000000 0.024718
#
#
# Mechanical properties :
#
#
# Convention : Reuss Voigt Hill
#
# Bulk Modulus (GPa) = 25.13704 43.26487 34.20095
# Shear Modulus (GPa) = 14.51124 30.77848 22.64486
#
# Velocity S-wave (km/s) = 2.59538 3.77983 3.24215
# Velocity P-wave (km/s) = 4.54420 6.25561 5.46728
#
# Compressibility (1/GPa) = 0.03978193
#
# Stress axis : x y z
#
# Youngs Moduli (GPa) = 161.04218 124.00007 26.72839
#
# Poissons Ratio (x) = 0.03109 0.05563
# Poissons Ratio (y) = 0.04038 0.09678
# Poissons Ratio (z) = 0.33517 0.44898
#
# Static dielectric constant tensor:
#      x y z
#    x 1.853640 0.000000 0.000000 
#    y 0.000000 1.832780 0.000000 
#    z 0.000000 0.000000 1.834010 
# 
# From -- ./inp_files/13023.got.cif
#   From: 2010.05.17/outbox.cif.g08.bks.cpg/sg21_7_cif.got.tgz:13023.got - 2010.06.03 23:14:55.
