data_PCOD9322716
_publ_section_title
;
Structure prediction by ZEFSAII (Michael W. Deem and Ramdas Pophale) SiO2 
 PCOD9322716
Probable space group: C 2 2 2
;
_chemical_formula_sum "Si O2"
_cell_formula_units_Z 48
_cell_length_a 5.209848
_cell_length_b 15.080056
_cell_length_c 30.022048
_cell_angle_alpha 90.000000
_cell_angle_beta 90.000000
_cell_angle_gamma 90.000000
_cell_volume 2358.676184
_symmetry_space_group_name_H-M "C 2 2 2"
_symmetry_group_IT_number 21
_symmetry_cell_setting 'orthorhombic'
loop_
_space_group_symop_operation_xyz
x,y,z
-x,-y,z
x,-y,-z
-x,y,-z
1/2+x,1/2+y,z
1/2-x,1/2-y,z
1/2+x,1/2-y,-z
1/2-x,1/2+y,-z
loop_
_atom_site_type_symbol
_atom_site_label
_atom_site_fract_x
_atom_site_fract_y
_atom_site_fract_z
Si Si1 0.249425 0.143975 0.474807
Si Si2 0.012327 0.606095 0.143565
Si Si3 0.251964 0.061611 0.379882
Si Si4 0.497393 0.188008 0.951416
Si Si5 0.478548 0.391721 0.192942
Si Si6 0.752319 0.937323 0.281661
O O1 0.500000 0.109013 0.500000
O O2 0.250000 0.250000 0.479830
O O3 0.244302 0.123508 0.422661
O O4 0.000000 0.108553 0.500000
O O5 0.042860 0.628544 0.091973
O O6 0.242427 0.638939 0.175977
O O7 0.000000 0.500000 0.148747
O O8 0.735126 0.640208 0.158588
O O9 0.281150 0.104681 0.330600
O O10 0.500000 0.000000 0.384455
O O11 0.000000 0.000000 0.381166
O O12 0.250000 0.250000 0.953076
O O13 0.750000 0.250000 0.946735
O O14 0.500000 0.141478 0.000000
O O15 0.500000 0.500000 0.191644
O O16 0.346579 0.375309 0.241167
O O17 0.500000 0.000000 0.271405
O O18 0.000000 0.000000 0.287104
#
# Coordination Sequence:
#
# PCOD9322716 Si02
#       6
#     8   8   8   8   8   8
#     4  10  21  36  52  71  99 136 170 203 254 312
#     4  10  19  31  52  79 100 126 167 210 245 282
#     4  10  20  32  51  78 102 128 167 213 252 289
#     4  10  21  37  54  72 100 138 170 200 250 308
#     4   9  16  28  47  74 104 129 158 200 248 294
#     4   9  16  28  46  72 104 133 162 200 249 301
#
# _framework density 20.350398999999999
#
# number of rings (size 3 to 8) (size 9 to 14) (size 15 to 20)
#    0.000    2.333    0.000    4.500    0.000    2.333 
#    0.000    0.000    0.000    9.000    0.000    0.000 
#    0.000    0.000    0.000    0.000    0.000    0.000 
#
# Total GULP energy -133699.656430 kJ/mol
# GULP energy per Si atom -5570.819018 kJ/mol
# Density = 2.030408 g / cm^3
# Si number density = 20.350399 Si / 1000 Ang^3
#
#
#
# Elastic Constant Matrix: (Units=GPa)
#
#
# Indices 1 2 3 4 5 6 
#
# 1 164.2649 13.7813 45.7616 0.0000 0.0000 0.0000
# 2 13.7813 23.1675 13.5417 0.0000 0.0000 0.0000
# 3 45.7616 13.5417 174.0148 0.0000 0.0000 0.0000
# 4 0.0000 0.0000 0.0000 315.9718 0.0000 0.0000
# 5 0.0000 0.0000 0.0000 0.0000 34.6318 0.0000
# 6 0.0000 0.0000 0.0000 0.0000 0.0000 -3.5602
#
#
#
# Elastic Compliance Matrix: (Units=1/GPa)
#
#
# Indices 1 2 3 4 5 6 
#
# 1 0.006779 -0.003133 -0.001539 0.000000 0.000000 0.000000
# 2 -0.003133 0.046669 -0.002808 0.000000 0.000000 0.000000
# 3 -0.001539 -0.002808 0.006370 0.000000 0.000000 0.000000
# 4 0.000000 0.000000 0.000000 0.003165 0.000000 0.000000
# 5 0.000000 0.000000 0.000000 0.000000 0.028875 0.000000
# 6 0.000000 0.000000 0.000000 0.000000 0.000000 -0.280885
#
#
# Mechanical properties :
#
#
# Convention : Reuss Voigt Hill
#
# Bulk Modulus (GPa) = 22.29244 56.40180 39.34712
# Shear Modulus (GPa) = -31.42405 88.63285 28.60440
#
# Velocity S-wave (km/s) = -3.93383 6.60666 3.75319
# Velocity P-wave (km/s) = 3.10729 9.27215 6.17728
#
# Compressibility (1/GPa) = 0.04485826
#
# Stress axis : x y z
#
# Youngs Moduli (GPa) = 147.50727 21.42752 156.98955
#
# Poissons Ratio (x) = 0.06714 0.24160
# Poissons Ratio (y) = 0.46217 0.44079
# Poissons Ratio (z) = 0.22701 0.06016
#
# Static dielectric constant tensor:
#      x y z
#    x 1.713850 0.000000 0.000000 
#    y 0.000000 1.717730 0.000000 
#    z 0.000000 0.000000 1.802220 
# 
# From -- ./inp_files/38244.got.cif
#   From: 2010.05.17/outbox.cif.g08.bks.cpg/sg21_20_cif.got.tgz:38244.got - 2010.06.03 23:14:55.
