data_PCOD9322679
_publ_section_title
;
Structure prediction by ZEFSAII (Michael W. Deem and Ramdas Pophale) SiO2 
 PCOD9322679
Probable space group: C 2 2 2
;
_chemical_formula_sum "Si O2"
_cell_formula_units_Z 48
_cell_length_a 21.369574
_cell_length_b 9.254497
_cell_length_c 11.758405
_cell_angle_alpha 90.000000
_cell_angle_beta 90.000000
_cell_angle_gamma 90.000000
_cell_volume 2325.396949
_symmetry_space_group_name_H-M "C 2 2 2"
_symmetry_group_IT_number 21
_symmetry_cell_setting 'orthorhombic'
loop_
_space_group_symop_operation_xyz
x,y,z
-x,-y,z
x,-y,-z
-x,y,-z
1/2+x,1/2+y,z
1/2-x,1/2-y,z
1/2+x,1/2-y,-z
1/2-x,1/2+y,-z
loop_
_atom_site_type_symbol
_atom_site_label
_atom_site_fract_x
_atom_site_fract_y
_atom_site_fract_z
Si Si1 0.763610 0.594659 0.842603
Si Si2 0.064486 0.575090 0.645097
Si Si3 0.691029 0.893721 0.589113
Si Si4 0.184944 0.162724 0.186835
Si Si5 0.389798 0.079760 0.105418
Si Si6 0.370418 0.653654 0.558192
O O1 0.750000 0.750000 0.894437
O O2 0.772854 0.610401 0.706805
O O3 0.706070 0.488915 0.863567
O O4 0.828603 0.523100 0.879176
O O5 0.125077 0.476000 0.615995
O O6 0.069011 0.585708 0.781350
O O7 0.074245 0.729595 0.583898
O O8 0.000000 0.500000 0.616612
O O9 0.674888 0.743855 0.527236
O O10 0.724373 0.000000 0.500000
O O11 0.250000 0.250000 0.202063
O O12 0.139852 0.258888 0.107545
O O13 0.158240 0.140203 0.314513
O O14 0.422209 0.000000 0.000000
O O15 0.385863 0.500000 0.500000
#
# Coordination Sequence:
#
# PCOD9322679 Si02
#       6
#     8   8   8   8   8   8
#     4  10  19  29  46  73 104 137 168 204 252 304
#     4   9  19  36  53  70  98 130 166 219 267 309
#     4   9  18  30  45  70 102 137 173 202 240 305
#     4   9  18  31  47  73 109 142 173 211 250 300
#     4   9  19  35  52  72  96 127 174 220 260 310
#     4  10  19  30  49  77 106 138 174 210 254 308
#
# _framework density 20.641635000000001
#
# number of rings (size 3 to 8) (size 9 to 14) (size 15 to 20)
#    0.000    2.667    0.000    4.000    0.000    9.333 
#    0.000    1.667    0.000    0.000    0.000    0.000 
#    0.000   10.667    0.000    0.000    0.000    0.000 
#
# Total GULP energy -133884.774736 kJ/mol
# GULP energy per Si atom -5578.532281 kJ/mol
# Density = 2.059465 g / cm^3
# Si number density = 20.641635 Si / 1000 Ang^3
#
#
#
# Elastic Constant Matrix: (Units=GPa)
#
#
# Indices 1 2 3 4 5 6 
#
# 1 56.5320 42.5431 11.7133 0.0000 0.0000 0.0000
# 2 42.5431 179.2106 41.6374 0.0000 0.0000 0.0000
# 3 11.7133 41.6374 122.4917 0.0000 0.0000 0.0000
# 4 0.0000 0.0000 0.0000 24.3204 0.0000 0.0000
# 5 0.0000 0.0000 0.0000 0.0000 0.2234 0.0000
# 6 0.0000 0.0000 0.0000 0.0000 0.0000 25.0979
#
#
#
# Elastic Compliance Matrix: (Units=1/GPa)
#
#
# Indices 1 2 3 4 5 6 
#
# 1 0.021550 -0.005035 -0.000349 0.000000 0.000000 0.000000
# 2 -0.005035 0.007235 -0.001978 0.000000 0.000000 0.000000
# 3 -0.000349 -0.001978 0.008870 0.000000 0.000000 0.000000
# 4 0.000000 0.000000 0.000000 0.041118 0.000000 0.000000
# 5 0.000000 0.000000 0.000000 0.000000 4.476136 0.000000
# 6 0.000000 0.000000 0.000000 0.000000 0.000000 0.039844
#
#
# Mechanical properties :
#
#
# Convention : Reuss Voigt Hill
#
# Bulk Modulus (GPa) = 43.60929 61.11357 52.36143
# Shear Modulus (GPa) = 1.08293 27.41769 14.25031
#
# Velocity S-wave (km/s) = 0.72510 3.64850 2.63033
# Velocity P-wave (km/s) = 4.67694 6.88621 5.88616
#
# Compressibility (1/GPa) = 0.02293089
#
# Stress axis : x y z
#
# Youngs Moduli (GPa) = 46.40294 138.22197 112.74572
#
# Poissons Ratio (x) = 0.69591 0.03939
# Poissons Ratio (y) = 0.23363 0.22299
# Poissons Ratio (z) = 0.01621 0.27337
#
# Static dielectric constant tensor:
#      x y z
#    x 1.736040 0.000000 0.000000 
#    y 0.000000 1.781020 0.000000 
#    z 0.000000 0.000000 1.844050 
# 
# From -- ./inp_files/22905.got.cif
#   From: 2010.05.17/outbox.cif.g08.bks.cpg/sg21_12_cif.got.tgz:22905.got - 2010.06.03 23:14:55.
