data_PCOD9322374
_publ_section_title
;
Structure prediction by ZEFSAII (Michael W. Deem and Ramdas Pophale) SiO2 
 PCOD9322374
Probable space group: C 2 2 2
;
_chemical_formula_sum "Si O2"
_cell_formula_units_Z 64
_cell_length_a 11.148183
_cell_length_b 12.148600
_cell_length_c 24.739643
_cell_angle_alpha 90.000000
_cell_angle_beta 90.000000
_cell_angle_gamma 90.000000
_cell_volume 3350.608997
_symmetry_space_group_name_H-M "C 2 2 2"
_symmetry_group_IT_number 21
_symmetry_cell_setting 'orthorhombic'
loop_
_space_group_symop_operation_xyz
x,y,z
-x,-y,z
x,-y,-z
-x,y,-z
1/2+x,1/2+y,z
1/2-x,1/2-y,z
1/2+x,1/2-y,-z
1/2-x,1/2+y,-z
loop_
_atom_site_type_symbol
_atom_site_label
_atom_site_fract_x
_atom_site_fract_y
_atom_site_fract_z
Si Si1 0.865074 0.005481 0.406644
Si Si2 0.307837 0.492660 0.288721
Si Si3 0.181680 0.000692 0.936165
Si Si4 0.914455 0.599909 0.224416
Si Si5 0.851090 0.660543 0.106678
Si Si6 0.977960 0.839315 0.886234
Si Si7 0.517304 0.666603 0.756467
Si Si8 0.635269 0.323934 0.498917
O O1 0.788367 0.993352 0.353210
O O2 0.849571 0.115439 0.441386
O O3 0.859718 0.911680 0.452242
O O4 0.000000 0.000000 0.384379
O O5 0.184636 0.454645 0.262277
O O6 0.406797 0.402847 0.268809
O O7 0.364054 0.610066 0.269384
O O8 0.145229 0.118229 0.911736
O O9 0.310964 0.952149 0.920912
O O10 0.083986 0.919034 0.908308
O O11 0.164137 0.000000 0.000000
O O12 0.847510 0.644404 0.171157
O O13 0.987112 0.703458 0.249927
O O14 0.000000 0.500000 0.207212
O O15 0.750000 0.750000 0.090656
O O16 0.979127 0.717597 0.096793
O O17 0.975239 0.849802 0.821385
O O18 0.500000 0.275139 0.500000
O O19 0.750000 0.250000 0.506738
#
# Coordination Sequence:
#
# PCOD9322374 Si02
#       8
#     8   8   8   8   8   8   8   8
#     4   9  18  37  57  84 114 148 197 245 291 338
#     4  11  19  36  59  88 115 145 200 258 280 348
#     4  10  17  28  54  82 102 133 181 238 294 336
#     4  11  23  37  54  82 122 159 188 233 300 369
#     4   9  18  35  58  73 103 146 192 233 275 346
#     4   9  16  29  51  81 102 136 176 235 282 346
#     4  10  20  35  62  85 107 150 203 233 294 349
#     4   9  19  37  60  83 114 160 202 241 295 358
#
# _framework density 19.101006000000002
#
# number of rings (size 3 to 8) (size 9 to 14) (size 15 to 20)
#    0.000    2.250    1.250    6.375    0.000    1.500 
#    2.250    1.250   24.750    0.000    0.000    0.000 
#    0.000    0.000    0.000    0.000    0.000    0.000 
#
# Total GULP energy -178224.901252 kJ/mol
# GULP energy per Si atom -5569.528164 kJ/mol
# Density = 1.905753 g / cm^3
# Si number density = 19.101006 Si / 1000 Ang^3
#
#
#
# Elastic Constant Matrix: (Units=GPa)
#
#
# Indices 1 2 3 4 5 6 
#
# 1 55.0057 41.8909 21.0376 0.0000 0.0000 0.0000
# 2 41.8909 62.3779 6.3230 0.0000 0.0000 0.0000
# 3 21.0376 6.3230 86.1818 0.0000 0.0000 0.0000
# 4 0.0000 0.0000 0.0000 -20.7680 0.0000 0.0000
# 5 0.0000 0.0000 0.0000 0.0000 -291.3155 0.0000
# 6 0.0000 0.0000 0.0000 0.0000 0.0000 32.2160
#
#
#
# Elastic Compliance Matrix: (Units=1/GPa)
#
#
# Indices 1 2 3 4 5 6 
#
# 1 0.042414 -0.027640 -0.008326 0.000000 0.000000 0.000000
# 2 -0.027640 0.034163 0.004241 0.000000 0.000000 0.000000
# 3 -0.008326 0.004241 0.013325 0.000000 0.000000 0.000000
# 4 0.000000 0.000000 0.000000 -0.048151 0.000000 0.000000
# 5 0.000000 0.000000 0.000000 0.000000 -0.003433 0.000000
# 6 0.000000 0.000000 0.000000 0.000000 0.000000 0.031041
#
#
# Mechanical properties :
#
#
# Convention : Reuss Voigt Hill
#
# Bulk Modulus (GPa) = 37.80411 38.00759 37.90585
# Shear Modulus (GPa) = 35.30421 -47.01924 -5.85751
#
# Velocity S-wave (km/s) = 4.30384 -4.96684 -1.75307
# Velocity P-wave (km/s) = 6.67323 3.59879 3.97371
#
# Compressibility (1/GPa) = 0.02645215
#
# Stress axis : x y z
#
# Youngs Moduli (GPa) = 23.57710 29.27103 75.04910
#
# Poissons Ratio (x) = 0.80905 0.62484
# Poissons Ratio (y) = 0.65167 -0.31825
# Poissons Ratio (z) = 0.19630 -0.12413
#
# Static dielectric constant tensor:
#      x y z
#    x 1.700140 0.000000 0.000000 
#    y 0.000000 1.922220 0.000000 
#    z 0.000000 0.000000 1.639500 
# 
# From -- ./inp_files/38650.got.cif
#   From: 2010.05.17/outbox.cif.g08.bks.cpg/sg21_20_cif.got.tgz:38650.got - 2010.06.03 23:14:55.
