data_PCOD9322103
_publ_section_title
;
Structure prediction by ZEFSAII (Michael W. Deem and Ramdas Pophale) SiO2 
 PCOD9322103
Probable space group: C 2 2 21
;
_chemical_formula_sum "Si O2"
_cell_formula_units_Z 20
_cell_length_a 8.091402
_cell_length_b 5.311921
_cell_length_c 17.683483
_cell_angle_alpha 90.000000
_cell_angle_beta 90.000000
_cell_angle_gamma 90.000000
_cell_volume 760.051806
_symmetry_space_group_name_H-M "C 2 2 21"
_symmetry_group_IT_number 20
_symmetry_cell_setting 'orthorhombic'
loop_
_space_group_symop_operation_xyz
x,y,z
-x,-y,1/2+z
x,-y,-z
-x,y,1/2-z
1/2+x,1/2+y,z
1/2-x,1/2-y,1/2+z
1/2+x,1/2-y,-z
1/2-x,1/2+y,1/2-z
loop_
_atom_site_type_symbol
_atom_site_label
_atom_site_fract_x
_atom_site_fract_y
_atom_site_fract_z
Si Si1 0.454738 0.316053 0.901691
Si Si2 0.242342 0.007049 0.799972
Si Si3 0.330154 0.000000 0.500000
O O1 0.393130 0.069293 0.856381
O O2 0.575703 0.469652 0.848041
O O3 0.553772 0.227490 0.975551
O O4 0.288020 0.448397 0.929034
O O5 0.231712 0.252775 0.747106
#
# Coordination Sequence:
#
# PCOD9322103 Si02
#       3
#     8   8   4
#     4  12  27  48  78 112 153 200 254 314 378 452
#     4  12  29  51  80 115 155 202 254 316 382 454
#     4  12  26  48  76 110 150 200 252 312 376 448
#
# _framework density 26.313998999999999
#
# number of rings (size 3 to 8) (size 9 to 14) (size 15 to 20)
#    0.000    0.000    0.000    8.400    0.000   19.200 
#    0.000    0.000    0.000    0.000    0.000    0.000 
#    0.000    0.000    0.000    0.000    0.000    0.000 
#
# Total GULP energy -56219.829885 kJ/mol
# GULP energy per Si atom -5621.982989 kJ/mol
# Density = 2.625411 g / cm^3
# Si number density = 26.313999 Si / 1000 Ang^3
#
#
#
# Elastic Constant Matrix: (Units=GPa)
#
#
# Indices 1 2 3 4 5 6 
#
# 1 133.1419 43.9720 32.4665 0.0000 0.0000 0.0000
# 2 43.9720 149.1885 43.0700 0.0000 0.0000 0.0000
# 3 32.4665 43.0700 92.9127 0.0000 0.0000 0.0000
# 4 0.0000 0.0000 0.0000 35.5484 0.0000 0.0000
# 5 0.0000 0.0000 0.0000 0.0000 43.8298 0.0000
# 6 0.0000 0.0000 0.0000 0.0000 0.0000 46.1999
#
#
#
# Elastic Compliance Matrix: (Units=1/GPa)
#
#
# Indices 1 2 3 4 5 6 
#
# 1 0.008671 -0.001941 -0.002130 0.000000 0.000000 0.000000
# 2 -0.001941 0.008173 -0.003110 0.000000 0.000000 0.000000
# 3 -0.002130 -0.003110 0.012949 0.000000 0.000000 0.000000
# 4 0.000000 0.000000 0.000000 0.028131 0.000000 0.000000
# 5 0.000000 0.000000 0.000000 0.000000 0.022816 0.000000
# 6 0.000000 0.000000 0.000000 0.000000 0.000000 0.021645
#
#
# Mechanical properties :
#
#
# Convention : Reuss Voigt Hill
#
# Bulk Modulus (GPa) = 64.80821 68.25112 66.52966
# Shear Modulus (GPa) = 41.02031 42.16460 41.59246
#
# Velocity S-wave (km/s) = 3.95255 4.00730 3.98002
# Velocity P-wave (km/s) = 6.74629 6.88511 6.81605
#
# Compressibility (1/GPa) = 0.01543014
#
# Stress axis : x y z
#
# Youngs Moduli (GPa) = 115.32392 122.35530 77.22577
#
# Poissons Ratio (x) = 0.23746 0.16452
# Poissons Ratio (y) = 0.22381 0.24021
# Poissons Ratio (z) = 0.24568 0.38058
#
# Static dielectric constant tensor:
#      x y z
#    x 1.973100 0.000000 0.000000 
#    y 0.000000 1.993600 0.000000 
#    z 0.000000 0.000000 2.098350 
# 
# From -- ./inp_files/22365.got.cif
#   From: 2010.05.17/outbox.cif.g08.bks.cpg/sg20_12_cif.got.tgz:22365.got - 2010.06.03 22:52:26.
