data_PCOD9322563
_publ_section_title
;
Structure prediction by ZEFSAII (Michael W. Deem and Ramdas Pophale) SiO2 
 PCOD9322563
Probable space group: C 2 2 2
;
_chemical_formula_sum "Si O2"
_cell_formula_units_Z 28
_cell_length_a 4.965982
_cell_length_b 26.196599
_cell_length_c 10.968818
_cell_angle_alpha 90.000000
_cell_angle_beta 90.000000
_cell_angle_gamma 90.000000
_cell_volume 1426.953706
_symmetry_space_group_name_H-M "C 2 2 2"
_symmetry_group_IT_number 21
_symmetry_cell_setting 'orthorhombic'
loop_
_space_group_symop_operation_xyz
x,y,z
-x,-y,z
x,-y,-z
-x,y,-z
1/2+x,1/2+y,z
1/2-x,1/2-y,z
1/2+x,1/2-y,-z
1/2-x,1/2+y,-z
loop_
_atom_site_type_symbol
_atom_site_label
_atom_site_fract_x
_atom_site_fract_y
_atom_site_fract_z
Si Si1 0.000000 0.713715 0.000000
Si Si2 0.247439 0.407045 0.417860
Si Si3 0.974481 0.056600 0.817610
Si Si4 0.007847 0.375471 0.183896
O O1 0.750000 0.750000 0.025529
O O2 0.946927 0.675830 0.887114
O O3 0.500000 0.390475 0.500000
O O4 0.643946 0.448005 0.679627
O O5 0.123068 0.366518 0.320839
O O6 0.000000 0.424827 0.500000
O O7 0.250921 0.087619 0.809684
O O8 0.749881 0.092506 0.880791
O O9 0.000000 0.000000 0.867095
#
# Coordination Sequence:
#
# PCOD9322563 Si02
#       4
#     4   8   8   8
#     4  12  26  46  73  88 103 150 210 268 314 356
#     4  10  18  34  56  88 126 169 193 236 283 343
#     4  10  20  36  56  90 131 166 196 230 284 354
#     4  10  22  39  58  91 122 149 209 247 295 350
#
# _framework density 19.622219999999999
#
# number of rings (size 3 to 8) (size 9 to 14) (size 15 to 20)
#    1.714    0.000    2.857    2.571    0.000    0.571 
#    5.143    4.286    0.000    3.429    0.000    0.000 
#    0.000    0.000    0.000    0.000    0.000    0.000 
#
# Total GULP energy -77964.554788 kJ/mol
# GULP energy per Si atom -5568.896771 kJ/mol
# Density = 1.957756 g / cm^3
# Si number density = 19.622220 Si / 1000 Ang^3
#
#
#
# Elastic Constant Matrix: (Units=GPa)
#
#
# Indices 1 2 3 4 5 6 
#
# 1 142.9600 37.1301 24.6006 0.0000 0.0000 0.0000
# 2 37.1301 96.6078 28.8477 0.0000 0.0000 0.0000
# 3 24.6006 28.8477 102.8007 0.0000 0.0000 0.0000
# 4 0.0000 0.0000 0.0000 12.1495 0.0000 0.0000
# 5 0.0000 0.0000 0.0000 0.0000 19.4917 0.0000
# 6 0.0000 0.0000 0.0000 0.0000 0.0000 28.9556
#
#
#
# Elastic Compliance Matrix: (Units=1/GPa)
#
#
# Indices 1 2 3 4 5 6 
#
# 1 0.007890 -0.002694 -0.001132 0.000000 0.000000 0.000000
# 2 -0.002694 0.012218 -0.002784 0.000000 0.000000 0.000000
# 3 -0.001132 -0.002784 0.010780 0.000000 0.000000 0.000000
# 4 0.000000 0.000000 0.000000 0.082308 0.000000 0.000000
# 5 0.000000 0.000000 0.000000 0.000000 0.051304 0.000000
# 6 0.000000 0.000000 0.000000 0.000000 0.000000 0.034536
#
#
# Mechanical properties :
#
#
# Convention : Reuss Voigt Hill
#
# Bulk Modulus (GPa) = 56.60255 58.16946 57.38600
# Shear Modulus (GPa) = 22.92068 28.90537 25.91302
#
# Velocity S-wave (km/s) = 3.42145 3.84225 3.63794
# Velocity P-wave (km/s) = 6.67212 7.02801 6.85238
#
# Compressibility (1/GPa) = 0.01766705
#
# Stress axis : x y z
#
# Youngs Moduli (GPa) = 126.75067 81.84715 92.76765
#
# Poissons Ratio (x) = 0.22052 0.10501
# Poissons Ratio (y) = 0.34150 0.25825
# Poissons Ratio (z) = 0.14347 0.22785
#
# Static dielectric constant tensor:
#      x y z
#    x 1.694280 0.000000 0.000000 
#    y 0.000000 1.636420 0.000000 
#    z 0.000000 0.000000 1.777100 
# 
# From -- ./inp_files/20548.got.cif
#   From: 2010.05.17/outbox.cif.g08.bks.cpg/sg21_11_cif.got.tgz:20548.got - 2010.06.03 23:14:55.
