data_PCOD9322817
_publ_section_title
;
Structure prediction by ZEFSAII (Michael W. Deem and Ramdas Pophale) SiO2 
 PCOD9322817
Probable space group: C 2 2 2
;
_chemical_formula_sum "Si O2"
_cell_formula_units_Z 36
_cell_length_a 27.367946
_cell_length_b 4.944943
_cell_length_c 13.048046
_cell_angle_alpha 90.000000
_cell_angle_beta 90.000000
_cell_angle_gamma 90.000000
_cell_volume 1765.830335
_symmetry_space_group_name_H-M "C 2 2 2"
_symmetry_group_IT_number 21
_symmetry_cell_setting 'orthorhombic'
loop_
_space_group_symop_operation_xyz
x,y,z
-x,-y,z
x,-y,-z
-x,y,-z
1/2+x,1/2+y,z
1/2-x,1/2-y,z
1/2+x,1/2-y,-z
1/2-x,1/2+y,-z
loop_
_atom_site_type_symbol
_atom_site_label
_atom_site_fract_x
_atom_site_fract_y
_atom_site_fract_z
Si Si1 0.250000 0.750000 0.931032
Si Si2 0.843477 0.991423 0.825512
Si Si3 0.615057 0.575233 0.388369
Si Si4 0.594546 0.006270 0.884350
Si Si5 0.446252 0.084519 0.667876
O O1 0.207160 0.890680 0.866090
O O2 0.230996 0.500000 0.000000
O O3 0.847576 0.003060 0.702664
O O4 0.885425 0.194922 0.864140
O O5 0.859839 0.700844 0.868347
O O6 0.634194 0.500000 0.500000
O O7 0.568558 0.381087 0.368044
O O8 0.594707 0.878053 0.375603
O O9 0.558615 0.930889 0.791513
O O10 0.575631 0.000000 0.000000
O O11 0.500000 0.000000 0.635375
#
# Coordination Sequence:
#
# PCOD9322817 Si02
#       5
#     4   8   8   8   8
#     4  12  22  34  58  86 110 136 172 220 268 316
#     4  10  21  35  53  80 106 134 177 216 258 318
#     4  10  21  37  56  75 105 144 176 219 271 313
#     4  10  19  34  53  74 108 145 171 209 266 319
#     4  10  21  34  52  81 107 135 183 226 259 313
#
# _framework density 20.387011000000001
#
# number of rings (size 3 to 8) (size 9 to 14) (size 15 to 20)
#    0.000    1.778    0.000    5.333    0.000    3.111 
#    0.000    0.000    0.000   17.333    0.000    0.000 
#    0.000    0.000    0.000    0.000    0.000    0.000 
#
# Total GULP energy -100555.021878 kJ/mol
# GULP energy per Si atom -5586.390104 kJ/mol
# Density = 2.034061 g / cm^3
# Si number density = 20.387011 Si / 1000 Ang^3
#
#
#
# Elastic Constant Matrix: (Units=GPa)
#
#
# Indices 1 2 3 4 5 6 
#
# 1 54.4896 0.0237 4.4249 0.0000 0.0000 0.0000
# 2 0.0237 71.7343 19.4932 0.0000 0.0000 0.0000
# 3 4.4249 19.4932 141.6994 0.0000 0.0000 0.0000
# 4 0.0000 0.0000 0.0000 23.3935 0.0000 0.0000
# 5 0.0000 0.0000 0.0000 0.0000 0.2031 0.0000
# 6 0.0000 0.0000 0.0000 0.0000 0.0000 19.7406
#
#
#
# Elastic Compliance Matrix: (Units=1/GPa)
#
#
# Indices 1 2 3 4 5 6 
#
# 1 0.018400 0.000156 -0.000596 0.000000 0.000000 0.000000
# 2 0.000156 0.014483 -0.001997 0.000000 0.000000 0.000000
# 3 -0.000596 -0.001997 0.007351 0.000000 0.000000 0.000000
# 4 0.000000 0.000000 0.000000 0.042747 0.000000 0.000000
# 5 0.000000 0.000000 0.000000 0.000000 4.924300 0.000000
# 6 0.000000 0.000000 0.000000 0.000000 0.000000 0.050657
#
#
# Mechanical properties :
#
#
# Convention : Reuss Voigt Hill
#
# Bulk Modulus (GPa) = 28.28118 35.08967 31.68543
# Shear Modulus (GPa) = 0.98530 24.93287 12.95908
#
# Velocity S-wave (km/s) = 0.69595 3.50090 2.52395
# Velocity P-wave (km/s) = 3.81419 5.79577 4.90607
#
# Compressibility (1/GPa) = 0.03535921
#
# Stress axis : x y z
#
# Youngs Moduli (GPa) = 54.34646 69.04640 136.04394
#
# Poissons Ratio (x) = -0.01076 0.08109
# Poissons Ratio (y) = -0.00847 0.27172
# Poissons Ratio (z) = 0.03239 0.13790
#
# Static dielectric constant tensor:
#      x y z
#    x 1.697960 0.000000 0.000000 
#    y 0.000000 1.700410 0.000000 
#    z 0.000000 0.000000 1.784050 
# 
# From -- ./inp_files/27911.got.cif
#   From: 2010.05.17/outbox.cif.g08.bks.cpg/sg21_14_cif.got.tgz:27911.got - 2010.06.03 23:14:55.
