data_PCOD9322666
_publ_section_title
;
Structure prediction by ZEFSAII (Michael W. Deem and Ramdas Pophale) SiO2 
 PCOD9322666
Probable space group: C 2 2 2
;
_chemical_formula_sum "Si O2"
_cell_formula_units_Z 58
_cell_length_a 9.292539
_cell_length_b 19.091795
_cell_length_c 16.505148
_cell_angle_alpha 90.000000
_cell_angle_beta 90.000000
_cell_angle_gamma 90.000000
_cell_volume 2928.198932
_symmetry_space_group_name_H-M "C 2 2 2"
_symmetry_group_IT_number 21
_symmetry_cell_setting 'orthorhombic'
loop_
_space_group_symop_operation_xyz
x,y,z
-x,-y,z
x,-y,-z
-x,y,-z
1/2+x,1/2+y,z
1/2-x,1/2-y,z
1/2+x,1/2-y,-z
1/2-x,1/2+y,-z
loop_
_atom_site_type_symbol
_atom_site_label
_atom_site_fract_x
_atom_site_fract_y
_atom_site_fract_z
Si Si1 0.078399 0.259288 0.576284
Si Si2 0.000000 0.000000 0.500000
Si Si3 0.916348 0.230981 0.079438
Si Si4 0.989161 0.923429 0.119247
Si Si5 0.031863 0.888913 0.622249
Si Si6 0.243417 0.410852 0.237661
Si Si7 0.214604 0.067930 0.736753
Si Si8 0.958572 0.680687 0.757902
O O1 0.250000 0.250000 0.562744
O O2 0.055608 0.289930 0.666595
O O3 0.000000 0.296902 0.500000
O O4 0.997020 0.185378 0.583639
O O5 0.915811 0.053277 0.558285
O O6 0.750000 0.250000 0.068525
O O7 0.956843 0.263518 0.168057
O O8 0.948445 0.147631 0.081524
O O9 0.000000 0.259383 0.000000
O O10 0.828355 0.909903 0.152246
O O11 0.089273 0.935076 0.197388
O O12 0.000000 0.000000 0.079342
O O13 0.144873 0.883221 0.694853
O O14 0.875733 0.914416 0.656071
O O15 0.213590 0.491591 0.262162
O O16 0.103204 0.364076 0.235250
O O17 0.323034 0.128364 0.763161
#
# Coordination Sequence:
#
# PCOD9322666 Si02
#       8
#     8   2   8   8   8   8   8   8
#     4  12  27  42  63  92 129 171 219 273 330 399
#     4  12  20  36  64  86 128 164 220 286 324 384
#     4  12  27  46  72 102 138 175 224 283 344 407
#     4   9  20  41  71  97 128 173 225 264 325 406
#     4  11  21  38  63  88 122 175 224 269 328 392
#     4  10  22  36  66 100 127 169 229 271 319 399
#     4  10  18  41  64  93 127 175 223 267 326 397
#     4  12  24  42  69  95 138 179 213 275 348 396
#
# _framework density 19.807397999999999
#
# number of rings (size 3 to 8) (size 9 to 14) (size 15 to 20)
#    0.000    1.103    4.828    3.310    3.862    1.379 
#    0.000    0.000    0.000    3.310    0.000    0.000 
#    0.000    0.000    0.000    0.000    0.000    0.000 
#
# Total GULP energy -161722.279300 kJ/mol
# GULP energy per Si atom -5576.630321 kJ/mol
# Density = 1.976232 g / cm^3
# Si number density = 19.807398 Si / 1000 Ang^3
#
#
#
# Elastic Constant Matrix: (Units=GPa)
#
#
# Indices 1 2 3 4 5 6 
#
# 1 88.5781 34.7284 49.9029 0.0000 0.0000 0.0000
# 2 34.7284 98.7620 31.0479 0.0000 0.0000 0.0000
# 3 49.9029 31.0479 119.3675 0.0000 0.0000 0.0000
# 4 0.0000 0.0000 0.0000 -309.6504 0.0000 0.0000
# 5 0.0000 0.0000 0.0000 0.0000 -79.8754 0.0000
# 6 0.0000 0.0000 0.0000 0.0000 0.0000 24.6205
#
#
#
# Elastic Compliance Matrix: (Units=1/GPa)
#
#
# Indices 1 2 3 4 5 6 
#
# 1 0.016000 -0.003837 -0.005691 0.000000 0.000000 0.000000
# 2 -0.003837 0.011947 -0.001503 0.000000 0.000000 0.000000
# 3 -0.005691 -0.001503 0.011148 0.000000 0.000000 0.000000
# 4 0.000000 0.000000 0.000000 -0.003229 0.000000 0.000000
# 5 0.000000 0.000000 0.000000 0.000000 -0.012520 0.000000
# 6 0.000000 0.000000 0.000000 0.000000 0.000000 0.040616
#
#
# Mechanical properties :
#
#
# Convention : Reuss Voigt Hill
#
# Bulk Modulus (GPa) = 58.71274 59.78510 59.24892
# Shear Modulus (GPa) = 54.52402 -60.24582 -2.86090
#
# Velocity S-wave (km/s) = 5.25232 -5.52104 -1.20312
# Velocity P-wave (km/s) = 8.15406 3.22393 5.29599
#
# Compressibility (1/GPa) = 0.01703208
#
# Stress axis : x y z
#
# Youngs Moduli (GPa) = 62.49992 83.70127 89.70483
#
# Poissons Ratio (x) = 0.32117 0.51050
# Poissons Ratio (y) = 0.23982 0.13486
# Poissons Ratio (z) = 0.35568 0.12583
#
# Static dielectric constant tensor:
#      x y z
#    x 1.772510 0.000000 0.000000 
#    y 0.000000 1.745230 0.000000 
#    z 0.000000 0.000000 1.792520 
# 
# From -- ./inp_files/35839.got.cif
#   From: 2010.05.17/outbox.cif.g08.bks.cpg/sg21_18_cif.got.tgz:35839.got - 2010.06.03 23:14:55.
