data_PCOD9322590
_publ_section_title
;
Structure prediction by ZEFSAII (Michael W. Deem and Ramdas Pophale) SiO2 
 PCOD9322590
Probable space group: C 2 2 2
;
_chemical_formula_sum "Si O2"
_cell_formula_units_Z 56
_cell_length_a 18.349469
_cell_length_b 19.842929
_cell_length_c 8.332763
_cell_angle_alpha 90.000000
_cell_angle_beta 90.000000
_cell_angle_gamma 90.000000
_cell_volume 3034.019092
_symmetry_space_group_name_H-M "C 2 2 2"
_symmetry_group_IT_number 21
_symmetry_cell_setting 'orthorhombic'
loop_
_space_group_symop_operation_xyz
x,y,z
-x,-y,z
x,-y,-z
-x,y,-z
1/2+x,1/2+y,z
1/2-x,1/2-y,z
1/2+x,1/2-y,-z
1/2-x,1/2+y,-z
loop_
_atom_site_type_symbol
_atom_site_label
_atom_site_fract_x
_atom_site_fract_y
_atom_site_fract_z
Si Si1 0.177549 0.567547 0.832015
Si Si2 0.837424 0.233457 0.114207
Si Si3 0.206817 0.553588 0.355692
Si Si4 0.696681 0.316120 0.438876
Si Si5 0.404490 0.879117 0.136313
Si Si6 0.472157 0.922641 0.671971
Si Si7 0.298232 0.682296 0.794549
O O1 0.218030 0.497156 0.795024
O O2 0.114495 0.578608 0.696720
O O3 0.239508 0.623613 0.822434
O O4 0.129086 0.577032 0.991814
O O5 0.750000 0.250000 0.118593
O O6 0.853512 0.198753 0.284777
O O7 0.879165 0.303601 0.104693
O O8 0.847694 0.190383 0.952569
O O9 0.205189 0.500000 0.500000
O O10 0.260924 0.614677 0.395841
O O11 0.134142 0.591997 0.297942
O O12 0.750000 0.250000 0.447554
O O13 0.665841 0.324317 0.618891
O O14 0.488703 0.884749 0.181443
O O15 0.500000 0.896789 0.500000
O O16 0.500000 0.000000 0.684145
O O17 0.250000 0.750000 0.787263
#
# Coordination Sequence:
#
# PCOD9322590 Si02
#       7
#     8   8   8   8   8   8   8
#     4  12  22  35  53  72 104 142 186 228 269 315
#     4  10  18  35  54  72  94 130 185 230 276 324
#     4  12  21  31  49  75 103 137 185 230 265 315
#     4  10  19  32  51  72 100 132 182 223 279 318
#     4  12  22  37  51  72 102 140 192 233 264 313
#     4  11  25  36  49  70 106 150 190 227 264 311
#     4  10  19  33  54  75  92 132 182 224 277 326
#
# _framework density 18.457366
#
# number of rings (size 3 to 8) (size 9 to 14) (size 15 to 20)
#    0.000    1.000    8.571    1.714    0.000    0.571 
#    0.000    0.000    0.000    0.000    0.000    0.000 
#    0.000    0.000    0.000    1.286   16.857    4.000 
#
# Total GULP energy -155933.371346 kJ/mol
# GULP energy per Si atom -5569.048977 kJ/mol
# Density = 1.841536 g / cm^3
# Si number density = 18.457366 Si / 1000 Ang^3
#
#
#
# Elastic Constant Matrix: (Units=GPa)
#
#
# Indices 1 2 3 4 5 6 
#
# 1 18.0766 33.7804 14.9963 0.0000 0.0000 0.0000
# 2 33.7804 107.3553 27.9924 0.0000 0.0000 0.0000
# 3 14.9963 27.9924 148.0327 0.0000 0.0000 0.0000
# 4 0.0000 0.0000 0.0000 27.5696 0.0000 0.0000
# 5 0.0000 0.0000 0.0000 0.0000 5.4779 0.0000
# 6 0.0000 0.0000 0.0000 0.0000 0.0000 16.9765
#
#
#
# Elastic Compliance Matrix: (Units=1/GPa)
#
#
# Indices 1 2 3 4 5 6 
#
# 1 0.139370 -0.042256 -0.006128 0.000000 0.000000 0.000000
# 2 -0.042256 0.022610 0.000005 0.000000 0.000000 0.000000
# 3 -0.006128 0.000005 0.007375 0.000000 0.000000 0.000000
# 4 0.000000 0.000000 0.000000 0.036272 0.000000 0.000000
# 5 0.000000 0.000000 0.000000 0.000000 0.182550 0.000000
# 6 0.000000 0.000000 0.000000 0.000000 0.000000 0.058905
#
#
# Mechanical properties :
#
#
# Convention : Reuss Voigt Hill
#
# Bulk Modulus (GPa) = 13.77482 47.44476 30.60979
# Shear Modulus (GPa) = 8.80222 23.11784 15.96003
#
# Velocity S-wave (km/s) = 2.18616 3.54291 2.94376
# Velocity P-wave (km/s) = 3.72178 6.51898 5.30795
#
# Compressibility (1/GPa) = 0.07259623
#
# Stress axis : x y z
#
# Youngs Moduli (GPa) = 7.17517 44.22857 135.59174
#
# Poissons Ratio (x) = 1.86893 0.83094
# Poissons Ratio (y) = 0.30320 -0.00072
# Poissons Ratio (z) = 0.04397 -0.00023
#
# Static dielectric constant tensor:
#      x y z
#    x 1.620210 0.000000 0.000000 
#    y 0.000000 1.643690 0.000000 
#    z 0.000000 0.000000 1.803150 
# 
# From -- ./inp_files/16791.got.cif
#   From: 2010.05.17/outbox.cif.g08.bks.cpg/sg21_9_cif.got.tgz:16791.got - 2010.06.03 23:14:55.
