data_PCOD9322085
_publ_section_title
;
Structure prediction by ZEFSAII (Michael W. Deem and Ramdas Pophale) SiO2 
 PCOD9322085
Probable space group: C 2 2 21
;
_chemical_formula_sum "Si O2"
_cell_formula_units_Z 40
_cell_length_a 8.662676
_cell_length_b 14.700862
_cell_length_c 13.598179
_cell_angle_alpha 90.000000
_cell_angle_beta 90.000000
_cell_angle_gamma 90.000000
_cell_volume 1731.711838
_symmetry_space_group_name_H-M "C 2 2 21"
_symmetry_group_IT_number 20
_symmetry_cell_setting 'orthorhombic'
loop_
_space_group_symop_operation_xyz
x,y,z
-x,-y,1/2+z
x,-y,-z
-x,y,1/2-z
1/2+x,1/2+y,z
1/2-x,1/2-y,1/2+z
1/2+x,1/2-y,-z
1/2-x,1/2+y,1/2-z
loop_
_atom_site_type_symbol
_atom_site_label
_atom_site_fract_x
_atom_site_fract_y
_atom_site_fract_z
Si Si1 0.000000 0.726356 0.750000
Si Si2 0.298192 0.697412 0.863729
Si Si3 0.489594 0.484960 0.139414
Si Si4 0.312365 0.338555 0.913699
Si Si5 0.532832 0.881278 0.647951
Si Si6 0.768346 0.500000 0.000000
O O1 0.868201 0.678721 0.684377
O O2 0.903659 0.782599 0.831381
O O3 0.399506 0.608551 0.846965
O O4 0.368749 0.791464 0.824009
O O5 0.306012 0.709938 0.981164
O O6 0.500000 0.523597 0.250000
O O7 0.399923 0.564392 0.080881
O O8 0.650613 0.464393 0.084511
O O9 0.135181 0.354831 0.888912
O O10 0.500000 0.934873 0.750000
O O11 0.624387 0.932333 0.562000
#
# Coordination Sequence:
#
# PCOD9322085 Si02
#       6
#     4   8   8   8   8   4
#     4  12  26  50  78 110 156 206 252 326 390 458
#     4  12  27  47  79 113 151 204 262 319 381 462
#     4  12  26  49  79 112 154 205 256 315 394 459
#     4  12  25  50  76 110 156 205 255 318 394 457
#     4  12  27  50  77 113 155 203 257 321 387 459
#     4  12  28  50  80 110 158 210 252 318 390 466
#
# _framework density 23.098531999999999
#
# number of rings (size 3 to 8) (size 9 to 14) (size 15 to 20)
#    0.000    0.000    5.000    4.200    5.600    1.600 
#    1.800    0.000    0.000    0.000    0.000    0.000 
#    0.000    0.000    0.000    0.000    0.000    0.000 
#
# Total GULP energy -111851.642600 kJ/mol
# GULP energy per Si atom -5592.582130 kJ/mol
# Density = 2.304596 g / cm^3
# Si number density = 23.098532 Si / 1000 Ang^3
#
#
#
# Elastic Constant Matrix: (Units=GPa)
#
#
# Indices 1 2 3 4 5 6 
#
# 1 162.7270 37.8719 68.6747 0.0000 0.0000 0.0000
# 2 37.8719 62.6120 33.6261 0.0000 0.0000 0.0000
# 3 68.6747 33.6261 170.4330 0.0000 0.0000 0.0000
# 4 0.0000 0.0000 0.0000 21.7762 0.0000 0.0000
# 5 0.0000 0.0000 0.0000 0.0000 66.9127 0.0000
# 6 0.0000 0.0000 0.0000 0.0000 0.0000 61.0237
#
#
#
# Elastic Compliance Matrix: (Units=1/GPa)
#
#
# Indices 1 2 3 4 5 6 
#
# 1 0.008033 -0.003490 -0.002548 0.000000 0.000000 0.000000
# 2 -0.003490 0.019381 -0.002417 0.000000 0.000000 0.000000
# 3 -0.002548 -0.002417 0.007371 0.000000 0.000000 0.000000
# 4 0.000000 0.000000 0.000000 0.045922 0.000000 0.000000
# 5 0.000000 0.000000 0.000000 0.000000 0.014945 0.000000
# 6 0.000000 0.000000 0.000000 0.000000 0.000000 0.016387
#
#
# Mechanical properties :
#
#
# Convention : Reuss Voigt Hill
#
# Bulk Modulus (GPa) = 55.95005 75.12414 65.53709
# Shear Modulus (GPa) = 37.06227 46.98248 42.02238
#
# Velocity S-wave (km/s) = 4.01000 4.51488 4.26991
# Velocity P-wave (km/s) = 6.76129 7.73129 7.26250
#
# Compressibility (1/GPa) = 0.01787308
#
# Stress axis : x y z
#
# Youngs Moduli (GPa) = 124.48684 51.59735 135.66449
#
# Poissons Ratio (x) = 0.18009 0.34570
# Poissons Ratio (y) = 0.43450 0.32795
# Poissons Ratio (z) = 0.31722 0.12473
#
# Static dielectric constant tensor:
#      x y z
#    x 1.832460 0.000000 0.000000 
#    y 0.000000 1.855200 0.000000 
#    z 0.000000 0.000000 1.836860 
# 
# From -- ./inp_files/18576.got.cif
#   From: 2010.05.17/outbox.cif.g08.bks.cpg/sg20_10_cif.got.tgz:18576.got - 2010.06.03 22:52:26.
