data_PCOD9322699
_publ_section_title
;
Structure prediction by ZEFSAII (Michael W. Deem and Ramdas Pophale) SiO2 
 PCOD9322699
Probable space group: C 2 2 2
;
_chemical_formula_sum "Si O2"
_cell_formula_units_Z 64
_cell_length_a 26.148366
_cell_length_b 29.497420
_cell_length_c 5.517340
_cell_angle_alpha 90.000000
_cell_angle_beta 90.000000
_cell_angle_gamma 90.000000
_cell_volume 4255.575842
_symmetry_space_group_name_H-M "C 2 2 2"
_symmetry_group_IT_number 21
_symmetry_cell_setting 'orthorhombic'
loop_
_space_group_symop_operation_xyz
x,y,z
-x,-y,z
x,-y,-z
-x,y,-z
1/2+x,1/2+y,z
1/2-x,1/2-y,z
1/2+x,1/2-y,-z
1/2-x,1/2+y,-z
loop_
_atom_site_type_symbol
_atom_site_label
_atom_site_fract_x
_atom_site_fract_y
_atom_site_fract_z
Si Si1 0.122898 0.685150 0.026074
Si Si2 0.969600 0.662537 0.257046
Si Si3 0.098894 0.613025 0.406563
Si Si4 0.700860 0.977269 0.246870
Si Si5 0.583870 0.013253 0.248331
Si Si6 0.808041 0.770434 0.875830
Si Si7 0.719364 0.298310 0.621996
Si Si8 0.302044 0.125709 0.291549
O O1 0.095810 0.657092 0.238295
O O2 0.151569 0.729756 0.113095
O O3 0.079210 0.692976 0.823329
O O4 0.166318 0.652124 0.915491
O O5 0.941139 0.617963 0.370807
O O6 0.000000 0.679035 0.500000
O O7 0.000000 0.655314 0.000000
O O8 0.092085 0.567060 0.260029
O O9 0.156083 0.615364 0.504445
O O10 0.714941 0.924577 0.224079
O O11 0.718370 0.000000 0.500000
O O12 0.638697 0.985885 0.248593
O O13 0.719568 0.000000 0.000000
O O14 0.558481 0.000000 0.500000
O O15 0.557939 0.000000 0.000000
O O16 0.750000 0.750000 0.873881
O O17 0.812498 0.797385 0.625320
O O18 0.811057 0.798283 0.125348
O O19 0.750000 0.250000 0.624499
O O20 0.758932 0.339681 0.622002
#
# Coordination Sequence:
#
# PCOD9322699 Si02
#       8
#     8   8   8   8   8   8   8   8
#     4  11  21  33  57  73  89 130 154 185 254 305
#     4  11  24  40  52  76  94 113 159 210 244 309
#     4  11  21  33  57  72  87 119 155 191 259 304
#     4  10  19  31  43  65  97 111 155 205 228 282
#     4  10  19  32  45  71  91 103 139 202 232 292
#     4  10  19  32  45  71 103 116 148 183 218 295
#     4  10  19  31  43  66 106 121 146 184 220 296
#     4  11  20  30  50  74  94 133 152 186 255 301
#
# _framework density 15.039094
#
# number of rings (size 3 to 8) (size 9 to 14) (size 15 to 20)
#    0.000    1.500    6.250    3.000    3.500    0.000 
#    0.000    0.000    0.000    0.375    3.250    0.000 
#    0.000    0.000    0.000    0.000    0.000    0.000 
#
# Total GULP energy -178181.822037 kJ/mol
# GULP energy per Si atom -5568.181939 kJ/mol
# Density = 1.500486 g / cm^3
# Si number density = 15.039094 Si / 1000 Ang^3
#
#
#
# Elastic Constant Matrix: (Units=GPa)
#
#
# Indices 1 2 3 4 5 6 
#
# 1 40.3347 46.5560 32.7004 0.0000 0.0000 0.0000
# 2 46.5560 83.6848 45.1443 0.0000 0.0000 0.0000
# 3 32.7004 45.1443 149.9242 0.0000 0.0000 0.0000
# 4 0.0000 0.0000 0.0000 24.7156 0.0000 0.0000
# 5 0.0000 0.0000 0.0000 0.0000 -147.9163 0.0000
# 6 0.0000 0.0000 0.0000 0.0000 0.0000 -5.3442
#
#
#
# Elastic Compliance Matrix: (Units=1/GPa)
#
#
# Indices 1 2 3 4 5 6 
#
# 1 0.071551 -0.037474 -0.004322 0.000000 0.000000 0.000000
# 2 -0.037474 0.033894 -0.002032 0.000000 0.000000 0.000000
# 3 -0.004322 -0.002032 0.008225 0.000000 0.000000 0.000000
# 4 0.000000 0.000000 0.000000 0.040460 0.000000 0.000000
# 5 0.000000 0.000000 0.000000 0.000000 -0.006761 0.000000
# 6 0.000000 0.000000 0.000000 0.000000 0.000000 -0.187118
#
#
# Mechanical properties :
#
#
# Convention : Reuss Voigt Hill
#
# Bulk Modulus (GPa) = 38.44343 58.08277 48.26310
# Shear Modulus (GPa) = 88.37261 -15.73946 36.31657
#
# Velocity S-wave (km/s) = 7.67395 -3.23858 4.91940
# Velocity P-wave (km/s) = 10.20476 4.97197 8.02676
#
# Compressibility (1/GPa) = 0.02601225
#
# Stress axis : x y z
#
# Youngs Moduli (GPa) = 13.97612 29.50409 121.58456
#
# Poissons Ratio (x) = 1.10563 0.52551
# Poissons Ratio (y) = 0.52374 0.24710
# Poissons Ratio (z) = 0.06041 0.05996
#
# Static dielectric constant tensor:
#      x y z
#    x 1.495910 0.000000 0.000000 
#    y 0.000000 1.546520 0.000000 
#    z 0.000000 0.000000 1.620450 
# 
# From -- ./inp_files/6175.got.cif
#   From: 2010.05.17/outbox.cif.g08.bks.cpg/sg21_4_cif.got.tgz:6175.got - 2010.06.03 23:14:55.
