data_PCOD9322007
_publ_section_title
;
Structure prediction by ZEFSAII (Michael W. Deem and Ramdas Pophale) SiO2 
 PCOD9322007
Probable space group: C 2 2 21
;
_chemical_formula_sum "Si O2"
_cell_formula_units_Z 40
_cell_length_a 7.595152
_cell_length_b 25.920702
_cell_length_c 7.687794
_cell_angle_alpha 90.000000
_cell_angle_beta 90.000000
_cell_angle_gamma 90.000000
_cell_volume 1513.508856
_symmetry_space_group_name_H-M "C 2 2 21"
_symmetry_group_IT_number 20
_symmetry_cell_setting 'orthorhombic'
loop_
_space_group_symop_operation_xyz
x,y,z
-x,-y,1/2+z
x,-y,-z
-x,y,1/2-z
1/2+x,1/2+y,z
1/2-x,1/2-y,1/2+z
1/2+x,1/2-y,-z
1/2-x,1/2+y,1/2-z
loop_
_atom_site_type_symbol
_atom_site_label
_atom_site_fract_x
_atom_site_fract_y
_atom_site_fract_z
Si Si1 0.213158 0.518170 0.751777
Si Si2 0.861362 0.803907 0.580147
Si Si3 0.878831 0.610922 0.577303
Si Si4 0.270098 0.916640 0.905295
Si Si5 0.872555 0.791615 0.123800
O O1 0.238389 0.559064 0.904359
O O2 0.267603 0.551978 0.584006
O O3 0.278667 0.460387 0.733153
O O4 0.000000 0.510540 0.750000
O O5 0.828511 0.863199 0.614677
O O6 0.899157 0.800361 0.356219
O O7 0.710233 0.765511 0.629726
O O8 0.061421 0.787473 0.590792
O O9 0.760822 0.661094 0.587023
O O10 0.000000 0.615516 0.750000
O O11 0.024822 0.600716 0.430788
#
# Coordination Sequence:
#
# PCOD9322007 Si02
#       5
#     8   8   8   8   8
#     4   8  16  32  59  86 115 160 203 237 291 365
#     4  12  26  41  61  94 124 158 204 260 313 355
#     4   9  18  36  63  90 116 161 210 245 292 367
#     4   9  18  36  57  86 123 154 199 254 295 349
#     4  12  24  43  65  88 122 165 205 250 308 374
#
# _framework density 26.428652
#
# number of rings (size 3 to 8) (size 9 to 14) (size 15 to 20)
#    0.000    2.400    0.000    5.400    0.000    2.400 
#    0.000    5.000    0.000    0.000    0.000    0.000 
#    0.000    0.000    0.000    0.000    0.000    0.000 
#
# Total GULP energy -111339.358796 kJ/mol
# GULP energy per Si atom -5566.967940 kJ/mol
# Density = 2.636850 g / cm^3
# Si number density = 26.428652 Si / 1000 Ang^3
#
#
#
# Elastic Constant Matrix: (Units=GPa)
#
#
# Indices 1 2 3 4 5 6 
#
# 1 69.3492 65.8935 21.1207 0.0000 0.0000 0.0000
# 2 65.8935 227.2800 35.6528 0.0000 0.0000 0.0000
# 3 21.1207 35.6528 78.9651 0.0000 0.0000 0.0000
# 4 0.0000 0.0000 0.0000 -3.7430 0.0000 0.0000
# 5 0.0000 0.0000 0.0000 0.0000 29.7084 0.0000
# 6 0.0000 0.0000 0.0000 0.0000 0.0000 39.5779
#
#
#
# Elastic Compliance Matrix: (Units=1/GPa)
#
#
# Indices 1 2 3 4 5 6 
#
# 1 0.020551 -0.005484 -0.003021 0.000000 0.000000 0.000000
# 2 -0.005484 0.006199 -0.001332 0.000000 0.000000 0.000000
# 3 -0.003021 -0.001332 0.014073 0.000000 0.000000 0.000000
# 4 0.000000 0.000000 0.000000 -0.267165 0.000000 0.000000
# 5 0.000000 0.000000 0.000000 0.000000 0.033661 0.000000
# 6 0.000000 0.000000 0.000000 0.000000 0.000000 0.025267
#
#
# Mechanical properties :
#
#
# Convention : Reuss Voigt Hill
#
# Bulk Modulus (GPa) = 47.28314 68.99204 58.13759
# Shear Modulus (GPa) = -35.53853 29.97047 -2.78403
#
# Velocity S-wave (km/s) = -3.67099 3.37117 -1.02747
# Velocity P-wave (km/s) = 0.19625 6.42765 4.54292
#
# Compressibility (1/GPa) = 0.02114919
#
# Stress axis : x y z
#
# Youngs Moduli (GPa) = 48.66019 161.32144 71.05775
#
# Poissons Ratio (x) = 0.88473 0.21463
# Poissons Ratio (y) = 0.26687 0.09464
# Poissons Ratio (z) = 0.14698 0.21486
#
# Static dielectric constant tensor:
#      x y z
#    x 2.023090 0.000000 0.000000 
#    y 0.000000 2.003590 0.000000 
#    z 0.000000 0.000000 2.798170 
# 
# From -- ./inp_files/6089.got.cif
#   From: 2010.05.17/outbox.cif.g08.bks.cpg/sg20_4_cif.got.tgz:6089.got - 2010.06.03 22:52:26.
