data_PCOD9322296
_publ_section_title
;
Structure prediction by ZEFSAII (Michael W. Deem and Ramdas Pophale) SiO2 
 PCOD9322296
Probable space group: C 2 2 2
;
_chemical_formula_sum "Si O2"
_cell_formula_units_Z 28
_cell_length_a 14.360321
_cell_length_b 5.241683
_cell_length_c 15.722199
_cell_angle_alpha 90.000000
_cell_angle_beta 90.000000
_cell_angle_gamma 90.000000
_cell_volume 1183.445301
_symmetry_space_group_name_H-M "C 2 2 2"
_symmetry_group_IT_number 21
_symmetry_cell_setting 'orthorhombic'
loop_
_space_group_symop_operation_xyz
x,y,z
-x,-y,z
x,-y,-z
-x,y,-z
1/2+x,1/2+y,z
1/2-x,1/2-y,z
1/2+x,1/2-y,-z
1/2-x,1/2+y,-z
loop_
_atom_site_type_symbol
_atom_site_label
_atom_site_fract_x
_atom_site_fract_y
_atom_site_fract_z
Si Si1 0.863280 0.250083 0.734790
Si Si2 0.637143 0.755646 0.831791
Si Si3 0.895961 0.754344 0.461891
Si Si4 0.314459 0.000000 0.000000
O O1 0.750000 0.250000 0.731851
O O2 0.894161 0.524920 0.768137
O O3 0.897920 0.220707 0.639085
O O4 0.892367 0.022403 0.799010
O O5 0.750000 0.750000 0.828462
O O6 0.623857 0.870502 0.926162
O O7 0.853159 0.500000 0.500000
O O8 0.000000 0.753356 0.500000
O O9 0.847871 0.000000 0.500000
O O10 0.250000 0.750000 0.970893
#
# Coordination Sequence:
#
# PCOD9322296 Si02
#       4
#     8   8   8   4
#     4  10  19  31  48  72 102 134 169 212 258 299
#     4   9  17  28  44  70 103 138 170 202 247 300
#     4  10  21  36  52  70  96 129 173 219 262 313
#     4  10  16  26  44  68 104 147 178 201 244 306
#
# _framework density 23.659732000000002
#
# number of rings (size 3 to 8) (size 9 to 14) (size 15 to 20)
#    0.000    2.286    0.000    6.000    0.000    1.143 
#    0.000    0.000    0.000    0.000    0.000    0.000 
#    0.000   68.571    0.000    6.857    0.000    0.000 
#
# Total GULP energy -78127.773504 kJ/mol
# GULP energy per Si atom -5580.555250 kJ/mol
# Density = 2.360588 g / cm^3
# Si number density = 23.659732 Si / 1000 Ang^3
#
#
#
# Elastic Constant Matrix: (Units=GPa)
#
#
# Indices 1 2 3 4 5 6 
#
# 1 99.3716 -6.9720 3.5448 0.0000 0.0000 0.0000
# 2 -6.9720 191.7985 48.8809 0.0000 0.0000 0.0000
# 3 3.5448 48.8809 173.0115 0.0000 0.0000 0.0000
# 4 0.0000 0.0000 0.0000 47.6026 0.0000 0.0000
# 5 0.0000 0.0000 0.0000 0.0000 29.1567 0.0000
# 6 0.0000 0.0000 0.0000 0.0000 0.0000 -40.3488
#
#
#
# Elastic Compliance Matrix: (Units=1/GPa)
#
#
# Indices 1 2 3 4 5 6 
#
# 1 0.010107 0.000453 -0.000335 0.000000 0.000000 0.000000
# 2 0.000453 0.005639 -0.001602 0.000000 0.000000 0.000000
# 3 -0.000335 -0.001602 0.006240 0.000000 0.000000 0.000000
# 4 0.000000 0.000000 0.000000 0.021007 0.000000 0.000000
# 5 0.000000 0.000000 0.000000 0.000000 0.034297 0.000000
# 6 0.000000 0.000000 0.000000 0.000000 0.000000 -0.024784
#
#
# Mechanical properties :
#
#
# Convention : Reuss Voigt Hill
#
# Bulk Modulus (GPa) = 52.58745 61.67657 57.13201
# Shear Modulus (GPa) = 80.88818 35.19730 58.04274
#
# Velocity S-wave (km/s) = 5.85340 3.86119 4.95838
# Velocity P-wave (km/s) = 8.24366 6.78256 7.54854
#
# Compressibility (1/GPa) = 0.01901594
#
# Stress axis : x y z
#
# Youngs Moduli (GPa) = 98.94178 177.34793 160.26818
#
# Poissons Ratio (x) = -0.08030 0.05369
# Poissons Ratio (y) = -0.04480 0.25681
# Poissons Ratio (z) = 0.03315 0.28418
#
# Static dielectric constant tensor:
#      x y z
#    x 1.903530 0.000000 0.000000 
#    y 0.000000 1.901150 0.000000 
#    z 0.000000 0.000000 1.907670 
# 
# From -- ./inp_files/20809.got.cif
#   From: 2010.05.17/outbox.cif.g08.bks.cpg/sg21_11_cif.got.tgz:20809.got - 2010.06.03 23:14:55.
