data_PCOD9322701
_publ_section_title
;
Structure prediction by ZEFSAII (Michael W. Deem and Ramdas Pophale) SiO2 
 PCOD9322701
Probable space group: C 2 2 2
;
_chemical_formula_sum "Si O2"
_cell_formula_units_Z 40
_cell_length_a 16.005549
_cell_length_b 15.301285
_cell_length_c 5.703499
_cell_angle_alpha 90.000000
_cell_angle_beta 90.000000
_cell_angle_gamma 90.000000
_cell_volume 1396.818085
_symmetry_space_group_name_H-M "C 2 2 2"
_symmetry_group_IT_number 21
_symmetry_cell_setting 'orthorhombic'
loop_
_space_group_symop_operation_xyz
x,y,z
-x,-y,z
x,-y,-z
-x,y,-z
1/2+x,1/2+y,z
1/2-x,1/2-y,z
1/2+x,1/2-y,-z
1/2-x,1/2+y,-z
loop_
_atom_site_type_symbol
_atom_site_label
_atom_site_fract_x
_atom_site_fract_y
_atom_site_fract_z
Si Si1 0.508030 0.284823 0.245807
Si Si2 0.289907 0.654954 0.431269
Si Si3 0.104527 0.619522 0.866100
Si Si4 0.894054 0.607750 0.635823
Si Si5 0.303047 0.601207 0.933696
O O1 0.500000 0.331268 0.500000
O O2 0.433304 0.216115 0.170514
O O3 0.577352 0.210049 0.328400
O O4 0.500000 0.339252 0.000000
O O5 0.250000 0.750000 0.472209
O O6 0.206112 0.597593 0.385086
O O7 0.334503 0.623103 0.669769
O O8 0.332867 0.649400 0.173888
O O9 0.079134 0.577828 0.620132
O O10 0.204706 0.625188 0.893627
O O11 0.079089 0.577687 0.110337
O O12 0.311739 0.500000 0.000000
#
# Coordination Sequence:
#
# PCOD9322701 Si02
#       5
#     8   8   8   8   8
#     4   8  12  20  34  52  73 100 134 168 209 245
#     4  10  19  31  46  64  86 115 154 195 235 275
#     4   8  14  23  37  55  76 103 136 170 212 253
#     4   8  14  23  37  55  76 103 138 176 215 248
#     4  10  19  31  46  65  88 116 152 192 234 277
#
# _framework density 28.636513000000001
#
# number of rings (size 3 to 8) (size 9 to 14) (size 15 to 20)
#    0.000    3.200    0.000    1.200    0.000    0.000 
#    0.000    0.000    0.000   15.000    0.000   49.000 
#    0.000    0.000    0.000    0.000    0.000  375.000 
#
# Total GULP energy -111487.547725 kJ/mol
# GULP energy per Si atom -5574.377386 kJ/mol
# Density = 2.857134 g / cm^3
# Si number density = 28.636513 Si / 1000 Ang^3
#
#
#
# Elastic Constant Matrix: (Units=GPa)
#
#
# Indices 1 2 3 4 5 6 
#
# 1 64.4827 3.3592 36.4840 0.0000 0.0000 0.0000
# 2 3.3592 91.8996 52.1958 0.0000 0.0000 0.0000
# 3 36.4840 52.1958 443.5162 0.0000 0.0000 0.0000
# 4 0.0000 0.0000 0.0000 36.0996 0.0000 0.0000
# 5 0.0000 0.0000 0.0000 0.0000 31.5760 0.0000
# 6 0.0000 0.0000 0.0000 0.0000 0.0000 327.4786
#
#
#
# Elastic Compliance Matrix: (Units=1/GPa)
#
#
# Indices 1 2 3 4 5 6 
#
# 1 0.016268 0.000177 -0.001359 0.000000 0.000000 0.000000
# 2 0.000177 0.011663 -0.001387 0.000000 0.000000 0.000000
# 3 -0.001359 -0.001387 0.002530 0.000000 0.000000 0.000000
# 4 0.000000 0.000000 0.000000 0.027701 0.000000 0.000000
# 5 0.000000 0.000000 0.000000 0.000000 0.031670 0.000000
# 6 0.000000 0.000000 0.000000 0.000000 0.000000 0.003054
#
#
# Mechanical properties :
#
#
# Convention : Reuss Voigt Hill
#
# Bulk Modulus (GPa) = 39.49065 87.10848 63.29957
# Shear Modulus (GPa) = 46.96451 112.88815 79.92633
#
# Velocity S-wave (km/s) = 4.05411 6.28543 5.28878
# Velocity P-wave (km/s) = 5.97785 9.11922 7.71022
#
# Compressibility (1/GPa) = 0.02532245
#
# Stress axis : x y z
#
# Youngs Moduli (GPa) = 61.47131 85.74271 395.29555
#
# Poissons Ratio (x) = -0.01520 0.53723
# Poissons Ratio (y) = -0.01090 0.54833
# Poissons Ratio (z) = 0.08354 0.11894
#
# Static dielectric constant tensor:
#      x y z
#    x 2.452980 0.000000 0.000000 
#    y 0.000000 2.251990 0.000000 
#    z 0.000000 0.000000 2.308740 
# 
# From -- ./inp_files/3968.got.cif
#   From: 2010.05.17/outbox.cif.g08.bks.cpg/sg21_2_cif.got.tgz:3968.got - 2010.06.03 23:14:55.
