data_PCOD9322136
_publ_section_title
;
Structure prediction by ZEFSAII (Michael W. Deem and Ramdas Pophale) SiO2 
 PCOD9322136
Probable space group: C 2 2 21
;
_chemical_formula_sum "Si O2"
_cell_formula_units_Z 32
_cell_length_a 8.720593
_cell_length_b 5.351166
_cell_length_c 26.667117
_cell_angle_alpha 90.000000
_cell_angle_beta 90.000000
_cell_angle_gamma 90.000000
_cell_volume 1244.430102
_symmetry_space_group_name_H-M "C 2 2 21"
_symmetry_group_IT_number 20
_symmetry_cell_setting 'orthorhombic'
loop_
_space_group_symop_operation_xyz
x,y,z
-x,-y,1/2+z
x,-y,-z
-x,y,1/2-z
1/2+x,1/2+y,z
1/2-x,1/2-y,1/2+z
1/2+x,1/2-y,-z
1/2-x,1/2+y,1/2-z
loop_
_atom_site_type_symbol
_atom_site_label
_atom_site_fract_x
_atom_site_fract_y
_atom_site_fract_z
Si Si1 0.393481 0.751027 0.487938
Si Si2 0.024544 0.089930 0.850253
Si Si3 0.759073 0.310221 0.782152
Si Si4 0.748488 0.925618 0.915151
O O1 0.478271 0.500000 0.500000
O O2 0.314974 0.806667 0.435004
O O3 0.488190 0.000000 0.500000
O O4 0.269680 0.767141 0.533621
O O5 0.910946 0.235824 0.812665
O O6 0.123455 0.888649 0.819848
O O7 0.912284 0.961267 0.890572
O O8 0.137450 0.287988 0.876256
O O9 0.717913 0.061412 0.750705
#
# Coordination Sequence:
#
# PCOD9322136 Si02
#       4
#     8   8   8   8
#     4   8  20  48  70 114 164 202 248 312 378 448
#     4  12  27  52  82 116 152 204 266 316 381 480
#     4  12  31  56  79 115 156 203 255 334 405 456
#     4   9  25  46  77 118 154 208 253 314 375 455
#
# _framework density 25.714582
#
# number of rings (size 3 to 8) (size 9 to 14) (size 15 to 20)
#    1.500    0.000    0.000    2.250    3.500   14.000 
#    9.000    0.000    0.000    0.000    0.000    0.000 
#    0.000    0.000    0.000    0.000    0.000    0.000 
#
# Total GULP energy -89549.601764 kJ/mol
# GULP energy per Si atom -5596.850110 kJ/mol
# Density = 2.565605 g / cm^3
# Si number density = 25.714582 Si / 1000 Ang^3
#
#
#
# Elastic Constant Matrix: (Units=GPa)
#
#
# Indices 1 2 3 4 5 6 
#
# 1 138.7285 58.4921 68.2062 0.0000 0.0000 0.0000
# 2 58.4921 135.9762 40.8291 0.0000 0.0000 0.0000
# 3 68.2062 40.8291 139.3896 0.0000 0.0000 0.0000
# 4 0.0000 0.0000 0.0000 43.0933 0.0000 0.0000
# 5 0.0000 0.0000 0.0000 0.0000 38.1487 0.0000
# 6 0.0000 0.0000 0.0000 0.0000 0.0000 31.0317
#
#
#
# Elastic Compliance Matrix: (Units=1/GPa)
#
#
# Indices 1 2 3 4 5 6 
#
# 1 0.010707 -0.003325 -0.004265 0.000000 0.000000 0.000000
# 2 -0.003325 0.009096 -0.001037 0.000000 0.000000 0.000000
# 3 -0.004265 -0.001037 0.009565 0.000000 0.000000 0.000000
# 4 0.000000 0.000000 0.000000 0.023205 0.000000 0.000000
# 5 0.000000 0.000000 0.000000 0.000000 0.026213 0.000000
# 6 0.000000 0.000000 0.000000 0.000000 0.000000 0.032225
#
#
# Mechanical properties :
#
#
# Convention : Reuss Voigt Hill
#
# Bulk Modulus (GPa) = 82.55656 83.23879 82.89768
# Shear Modulus (GPa) = 37.79128 38.89254 38.34191
#
# Velocity S-wave (km/s) = 3.83775 3.89327 3.86561
# Velocity P-wave (km/s) = 7.19809 7.25607 7.22714
#
# Compressibility (1/GPa) = 0.01211291
#
# Stress axis : x y z
#
# Youngs Moduli (GPa) = 93.39334 109.93757 104.54682
#
# Poissons Ratio (x) = 0.36556 0.44593
# Poissons Ratio (y) = 0.31055 0.10844
# Poissons Ratio (z) = 0.39836 0.11403
#
# Static dielectric constant tensor:
#      x y z
#    x 1.943850 0.000000 0.000000 
#    y 0.000000 2.084320 0.000000 
#    z 0.000000 0.000000 2.087200 
# 
# From -- ./inp_files/28988.got.cif
#   From: 2010.05.17/outbox.cif.g08.bks.cpg/sg20_15_cif.got.tgz:28988.got - 2010.06.03 22:52:26.
