data_PCOD9322148
_publ_section_title
;
Structure prediction by ZEFSAII (Michael W. Deem and Ramdas Pophale) SiO2 
 PCOD9322148
Probable space group: C 2 2 21
;
_chemical_formula_sum "Si O2"
_cell_formula_units_Z 32
_cell_length_a 5.272690
_cell_length_b 13.774833
_cell_length_c 16.802162
_cell_angle_alpha 90.000000
_cell_angle_beta 90.000000
_cell_angle_gamma 90.000000
_cell_volume 1220.348154
_symmetry_space_group_name_H-M "C 2 2 21"
_symmetry_group_IT_number 20
_symmetry_cell_setting 'orthorhombic'
loop_
_space_group_symop_operation_xyz
x,y,z
-x,-y,1/2+z
x,-y,-z
-x,y,1/2-z
1/2+x,1/2+y,z
1/2-x,1/2-y,1/2+z
1/2+x,1/2-y,-z
1/2-x,1/2+y,1/2-z
loop_
_atom_site_type_symbol
_atom_site_label
_atom_site_fract_x
_atom_site_fract_y
_atom_site_fract_z
Si Si1 0.344837 0.704932 0.320691
Si Si2 0.500000 0.628037 0.750000
Si Si3 0.177806 0.790885 0.534083
Si Si4 0.345511 0.000000 0.500000
Si Si5 0.134375 0.498087 0.662607
O O1 0.500000 0.655754 0.250000
O O2 0.557130 0.736019 0.382296
O O3 0.172928 0.617171 0.350662
O O4 0.202441 0.798525 0.288461
O O5 0.385616 0.560502 0.680422
O O6 0.460241 0.750183 0.524248
O O7 0.185444 0.906310 0.524272
O O8 0.502414 0.970760 0.420116
O O9 0.000000 0.507461 0.750000
#
# Coordination Sequence:
#
# PCOD9322148 Si02
#       5
#     8   4   8   4   8
#     4  12  28  52  85 123 176 229 300 367 435 532
#     4  12  30  52  92 122 178 246 296 368 460 526
#     4  12  32  56  87 131 177 227 291 365 446 532
#     4  12  32  56  90 130 178 234 300 372 452 540
#     4  12  28  57  87 129 180 235 301 367 449 534
#
# _framework density 26.222026
#
# number of rings (size 3 to 8) (size 9 to 14) (size 15 to 20)
#    0.000    0.000    2.500    3.750   10.500    6.000 
#    0.000    0.000    0.000    0.000    0.000    0.000 
#    0.000    0.000    0.000    0.000    0.000    0.000 
#
# Total GULP energy -89747.919971 kJ/mol
# GULP energy per Si atom -5609.244998 kJ/mol
# Density = 2.616234 g / cm^3
# Si number density = 26.222026 Si / 1000 Ang^3
#
#
#
# Elastic Constant Matrix: (Units=GPa)
#
#
# Indices 1 2 3 4 5 6 
#
# 1 86.7496 65.0195 49.6100 0.0000 0.0000 0.0000
# 2 65.0195 175.7895 29.1300 0.0000 0.0000 0.0000
# 3 49.6100 29.1300 161.2936 0.0000 0.0000 0.0000
# 4 0.0000 0.0000 0.0000 23.1800 0.0000 0.0000
# 5 0.0000 0.0000 0.0000 0.0000 16.9592 0.0000
# 6 0.0000 0.0000 0.0000 0.0000 0.0000 42.5770
#
#
#
# Elastic Compliance Matrix: (Units=1/GPa)
#
#
# Indices 1 2 3 4 5 6 
#
# 1 0.018846 -0.006195 -0.004678 0.000000 0.000000 0.000000
# 2 -0.006195 0.007901 0.000479 0.000000 0.000000 0.000000
# 3 -0.004678 0.000479 0.007552 0.000000 0.000000 0.000000
# 4 0.000000 0.000000 0.000000 0.043141 0.000000 0.000000
# 5 0.000000 0.000000 0.000000 0.000000 0.058965 0.000000
# 6 0.000000 0.000000 0.000000 0.000000 0.000000 0.023487
#
#
# Mechanical properties :
#
#
# Convention : Reuss Voigt Hill
#
# Bulk Modulus (GPa) = 74.01880 79.03908 76.52894
# Shear Modulus (GPa) = 27.00021 35.21480 31.10751
#
# Velocity S-wave (km/s) = 3.21234 3.66860 3.44802
# Velocity P-wave (km/s) = 6.48443 6.93920 6.71567
#
# Compressibility (1/GPa) = 0.01351008
#
# Stress axis : x y z
#
# Youngs Moduli (GPa) = 53.06159 126.56905 132.41239
#
# Poissons Ratio (x) = 0.78415 0.61938
# Poissons Ratio (y) = 0.32874 -0.06338
# Poissons Ratio (z) = 0.24820 -0.06058
#
# Static dielectric constant tensor:
#      x y z
#    x 2.091460 0.000000 0.000000 
#    y 0.000000 1.940890 0.000000 
#    z 0.000000 0.000000 2.033140 
# 
# From -- ./inp_files/22503.got.cif
#   From: 2010.05.17/outbox.cif.g08.bks.cpg/sg20_12_cif.got.tgz:22503.got - 2010.06.03 22:52:26.
