data_PCOD9322319
_publ_section_title
;
Structure prediction by ZEFSAII (Michael W. Deem and Ramdas Pophale) SiO2 
 PCOD9322319
Probable space group: C 2 2 2
;
_chemical_formula_sum "Si O2"
_cell_formula_units_Z 32
_cell_length_a 24.178055
_cell_length_b 5.271073
_cell_length_c 11.017491
_cell_angle_alpha 90.000000
_cell_angle_beta 90.000000
_cell_angle_gamma 90.000000
_cell_volume 1404.116350
_symmetry_space_group_name_H-M "C 2 2 2"
_symmetry_group_IT_number 21
_symmetry_cell_setting 'orthorhombic'
loop_
_space_group_symop_operation_xyz
x,y,z
-x,-y,z
x,-y,-z
-x,y,-z
1/2+x,1/2+y,z
1/2-x,1/2-y,z
1/2+x,1/2-y,-z
1/2-x,1/2+y,-z
loop_
_atom_site_type_symbol
_atom_site_label
_atom_site_fract_x
_atom_site_fract_y
_atom_site_fract_z
Si Si1 0.437166 0.751124 0.052886
Si Si2 0.652149 0.586738 0.627719
Si Si3 0.964105 0.251012 0.336828
Si Si4 0.193914 0.591969 0.642399
O O1 0.444660 0.756437 0.196392
O O2 0.410063 0.500000 0.000000
O O3 0.500000 0.750583 0.000000
O O4 0.409382 0.000000 0.000000
O O5 0.679677 0.500000 0.500000
O O6 0.593512 0.712714 0.594869
O O7 0.648150 0.302766 0.683160
O O8 0.684325 0.810324 0.697617
O O9 0.000000 0.500000 0.362530
O O10 0.000000 0.000000 0.355298
O O11 0.191643 0.500000 0.500000
O O12 0.250000 0.750000 0.667856
#
# Coordination Sequence:
#
# PCOD9322319 Si02
#       4
#     8   8   8   8
#     4  10  16  30  49  73  96 129 171 232 263 289
#     4  10  22  35  48  75 107 135 179 214 244 319
#     4  12  21  33  52  73 108 153 175 211 261 307
#     4  10  18  34  57  75  94 127 170 228 278 296
#
# _framework density 22.790133000000001
#
# number of rings (size 3 to 8) (size 9 to 14) (size 15 to 20)
#    0.000    1.500    5.000    4.500    0.000    0.500 
#    0.000    1.250    0.000    0.000    0.000    0.000 
#    0.000   20.000    0.000    0.000    0.000    0.000 
#
# Total GULP energy -89113.384091 kJ/mol
# GULP energy per Si atom -5569.586506 kJ/mol
# Density = 2.273826 g / cm^3
# Si number density = 22.790133 Si / 1000 Ang^3
#
#
#
# Elastic Constant Matrix: (Units=GPa)
#
#
# Indices 1 2 3 4 5 6 
#
# 1 98.7095 60.6330 -5.1129 0.0000 0.0000 0.0000
# 2 60.6330 303.0641 11.5375 0.0000 0.0000 0.0000
# 3 -5.1129 11.5375 59.2082 0.0000 0.0000 0.0000
# 4 0.0000 0.0000 0.0000 -27.4795 0.0000 0.0000
# 5 0.0000 0.0000 0.0000 0.0000 -3.9186 0.0000
# 6 0.0000 0.0000 0.0000 0.0000 0.000040491.1584
#
#
#
# Elastic Compliance Matrix: (Units=1/GPa)
#
#
# Indices 1 2 3 4 5 6 
#
# 1 0.011677 -0.002392 0.001474 0.000000 0.000000 0.000000
# 2 -0.002392 0.003814 -0.000950 0.000000 0.000000 0.000000
# 3 0.001474 -0.000950 0.017202 0.000000 0.000000 0.000000
# 4 0.000000 0.000000 0.000000 -0.036391 0.000000 0.000000
# 5 0.000000 0.000000 0.000000 0.000000 -0.255196 0.000000
# 6 0.000000 0.000000 0.000000 0.000000 0.000000 0.000025
#
#
# Mechanical properties :
#
#
# Convention : Reuss Voigt Hill
#
# Bulk Modulus (GPa) = 34.53312 66.12190 50.32751
# Shear Modulus (GPa) = -20.36817 8118.21368 4048.92276
#
# Velocity S-wave (km/s) = -2.99277 59.74860 42.19560
# Velocity P-wave (km/s) = 1.80092 69.20214 48.94987
#
# Compressibility (1/GPa) = 0.02895771
#
# Stress axis : x y z
#
# Youngs Moduli (GPa) = 85.64174 262.16471 58.13285
#
# Poissons Ratio (x) = 0.62716 -0.08572
# Poissons Ratio (y) = 0.20487 0.05522
# Poissons Ratio (z) = -0.12628 0.24902
#
# Static dielectric constant tensor:
#      x y z
#    x 1.895850 0.000000 0.000000 
#    y 0.000000 2.032560 0.000000 
#    z 0.000000 0.000000 -17.749760 
# 
# From -- ./inp_files/20856.got.cif
#   From: 2010.05.17/outbox.cif.g08.bks.cpg/sg21_11_cif.got.tgz:20856.got - 2010.06.03 23:14:55.
