data_PCOD9322149
_publ_section_title
;
Structure prediction by ZEFSAII (Michael W. Deem and Ramdas Pophale) SiO2 
 PCOD9322149
Probable space group: C 2 2 21
;
_chemical_formula_sum "Si O2"
_cell_formula_units_Z 56
_cell_length_a 4.675778
_cell_length_b 13.503913
_cell_length_c 31.898692
_cell_angle_alpha 90.000000
_cell_angle_beta 90.000000
_cell_angle_gamma 90.000000
_cell_volume 2014.124859
_symmetry_space_group_name_H-M "C 2 2 21"
_symmetry_group_IT_number 20
_symmetry_cell_setting 'orthorhombic'
loop_
_space_group_symop_operation_xyz
x,y,z
-x,-y,1/2+z
x,-y,-z
-x,y,1/2-z
1/2+x,1/2+y,z
1/2-x,1/2-y,1/2+z
1/2+x,1/2-y,-z
1/2-x,1/2+y,1/2-z
loop_
_atom_site_type_symbol
_atom_site_label
_atom_site_fract_x
_atom_site_fract_y
_atom_site_fract_z
Si Si1 0.000000 0.316878 0.250000
Si Si2 0.772963 0.246416 0.615625
Si Si3 0.100438 0.500000 0.000000
Si Si4 0.220644 0.987813 0.787706
Si Si5 0.602282 0.792210 0.795500
Si Si6 0.744845 0.790566 0.976123
Si Si7 0.039985 0.046580 0.123063
Si Si8 0.972624 0.447606 0.411917
O O1 0.863214 0.405691 0.220174
O O2 0.938076 0.231020 0.213182
O O3 0.956999 0.247929 0.658514
O O4 0.890440 0.257833 0.568085
O O5 0.578885 0.344325 0.619353
O O6 0.581181 0.148532 0.611811
O O7 0.265929 0.591392 0.020308
O O8 0.940390 0.452591 0.039471
O O9 0.542259 0.900399 0.706839
O O10 0.033838 0.988637 0.829471
O O11 0.000000 0.971669 0.750000
O O12 0.500000 0.741147 0.750000
O O13 0.555848 0.750997 0.014524
O O14 0.366151 0.039936 0.109051
O O15 0.859335 0.968308 0.095693
#
# Coordination Sequence:
#
# PCOD9322149 Si02
#       8
#     4   8   4   8   8   8   8   8
#     4  12  30  56  84 122 168 226 284 360 432 520
#     4  12  29  52  88 121 171 221 288 352 439 514
#     4  12  28  54  84 120 174 222 286 348 432 524
#     4  12  29  54  87 118 174 228 287 359 442 518
#     4  12  29  55  85 127 168 227 288 361 432 526
#     4  12  30  52  83 124 167 222 281 356 429 520
#     4  12  30  52  81 123 169 222 283 357 423 514
#     4  12  30  51  84 126 165 223 289 351 432 523
#
# _framework density 27.803640000000001
#
# number of rings (size 3 to 8) (size 9 to 14) (size 15 to 20)
#    0.000    0.000    3.571    3.000   11.000    4.571 
#    1.286    0.000    0.000    0.000    0.000    0.000 
#    0.000    0.000    0.000    0.000    0.000    0.000 
#
# Total GULP energy -156449.562990 kJ/mol
# GULP energy per Si atom -5587.484393 kJ/mol
# Density = 2.774036 g / cm^3
# Si number density = 27.803640 Si / 1000 Ang^3
#
#
#
# Elastic Constant Matrix: (Units=GPa)
#
#
# Indices 1 2 3 4 5 6 
#
# 1 69.2757 34.5753 33.4853 0.0000 0.0000 0.0000
# 2 34.5753 168.2846 33.6335 0.0000 0.0000 0.0000
# 3 33.4853 33.6335 218.6007 0.0000 0.0000 0.0000
# 4 0.0000 0.0000 0.0000 54.7267 0.0000 0.0000
# 5 0.0000 0.0000 0.0000 0.0000 50.4660 0.0000
# 6 0.0000 0.0000 0.0000 0.0000 0.0000 53.1563
#
#
#
# Elastic Compliance Matrix: (Units=1/GPa)
#
#
# Indices 1 2 3 4 5 6 
#
# 1 0.016996 -0.003066 -0.002132 0.000000 0.000000 0.000000
# 2 -0.003066 0.006684 -0.000559 0.000000 0.000000 0.000000
# 3 -0.002132 -0.000559 0.004987 0.000000 0.000000 0.000000
# 4 0.000000 0.000000 0.000000 0.018273 0.000000 0.000000
# 5 0.000000 0.000000 0.000000 0.000000 0.019815 0.000000
# 6 0.000000 0.000000 0.000000 0.000000 0.000000 0.018812
#
#
# Mechanical properties :
#
#
# Convention : Reuss Voigt Hill
#
# Bulk Modulus (GPa) = 58.29541 73.28325 65.78933
# Shear Modulus (GPa) = 48.63935 55.30093 51.97014
#
# Velocity S-wave (km/s) = 4.18711 4.46464 4.32810
# Velocity P-wave (km/s) = 6.66244 7.27956 6.97783
#
# Compressibility (1/GPa) = 0.01715401
#
# Stress axis : x y z
#
# Youngs Moduli (GPa) = 58.83881 149.61369 200.51936
#
# Poissons Ratio (x) = 0.45869 0.42744
# Poissons Ratio (y) = 0.18039 0.11204
# Poissons Ratio (z) = 0.12543 0.08360
#
# Static dielectric constant tensor:
#      x y z
#    x 1.805670 0.000000 0.000000 
#    y 0.000000 2.148880 0.000000 
#    z 0.000000 0.000000 2.193290 
# 
# From -- ./inp_files/30785.got.cif
#   From: 2010.05.17/outbox.cif.g08.bks.cpg/sg20_16_cif.got.tgz:30785.got - 2010.06.03 22:52:26.
