data_PCOD9322102
_publ_section_title
;
Structure prediction by ZEFSAII (Michael W. Deem and Ramdas Pophale) SiO2 
 PCOD9322102
Probable space group: C 2 2 21
;
_chemical_formula_sum "Si O2"
_cell_formula_units_Z 24
_cell_length_a 25.734128
_cell_length_b 8.014528
_cell_length_c 4.794251
_cell_angle_alpha 90.000000
_cell_angle_beta 90.000000
_cell_angle_gamma 90.000000
_cell_volume 988.799356
_symmetry_space_group_name_H-M "C 2 2 21"
_symmetry_group_IT_number 20
_symmetry_cell_setting 'orthorhombic'
loop_
_space_group_symop_operation_xyz
x,y,z
-x,-y,1/2+z
x,-y,-z
-x,y,1/2-z
1/2+x,1/2+y,z
1/2-x,1/2-y,1/2+z
1/2+x,1/2-y,-z
1/2-x,1/2+y,1/2-z
loop_
_atom_site_type_symbol
_atom_site_label
_atom_site_fract_x
_atom_site_fract_y
_atom_site_fract_z
Si Si1 0.553412 0.189338 0.105720
Si Si2 0.219641 0.687036 0.890637
Si Si3 0.385205 0.687456 0.105729
O O1 0.500000 0.243371 0.250000
O O2 0.597468 0.202055 0.342353
O O3 0.570646 0.297693 0.842183
O O4 0.547647 0.000000 0.000000
O O5 0.263842 0.701201 0.653960
O O6 0.167133 0.748172 0.747362
O O7 0.214755 0.500000 0.000000
O O8 0.379326 0.500000 0.000000
#
# Coordination Sequence:
#
# PCOD9322102 Si02
#       3
#     8   8   8
#     4  12  26  48  76 108 149 197 248 305 369 440
#     4  12  27  49  76 109 150 196 247 305 372 441
#     4  12  27  49  76 109 151 195 245 306 373 441
#
# _framework density 24.27186
#
# number of rings (size 3 to 8) (size 9 to 14) (size 15 to 20)
#    0.000    0.000    0.000   10.000    0.000    8.000 
#    0.000    3.333    0.000    0.000    0.000    0.000 
#    0.000    0.000    0.000    0.000    0.000    0.000 
#
# Total GULP energy -67436.091005 kJ/mol
# GULP energy per Si atom -5619.674250 kJ/mol
# Density = 2.421662 g / cm^3
# Si number density = 24.271860 Si / 1000 Ang^3
#
#
#
# Elastic Constant Matrix: (Units=GPa)
#
#
# Indices 1 2 3 4 5 6 
#
# 1 112.8118 64.0667 67.3792 0.0000 0.0000 0.0000
# 2 64.0667 123.8935 69.0088 0.0000 0.0000 0.0000
# 3 67.3792 69.0088 191.1808 0.0000 0.0000 0.0000
# 4 0.0000 0.0000 0.0000 68.4706 0.0000 0.0000
# 5 0.0000 0.0000 0.0000 0.0000 75.2894 0.0000
# 6 0.0000 0.0000 0.0000 0.0000 0.0000 31.8064
#
#
#
# Elastic Compliance Matrix: (Units=1/GPa)
#
#
# Indices 1 2 3 4 5 6 
#
# 1 0.013679 -0.005493 -0.002838 0.000000 0.000000 0.000000
# 2 -0.005493 0.012308 -0.002507 0.000000 0.000000 0.000000
# 3 -0.002838 -0.002507 0.007136 0.000000 0.000000 0.000000
# 4 0.000000 0.000000 0.000000 0.014605 0.000000 0.000000
# 5 0.000000 0.000000 0.000000 0.000000 0.013282 0.000000
# 6 0.000000 0.000000 0.000000 0.000000 0.000000 0.031440
#
#
# Mechanical properties :
#
#
# Convention : Reuss Voigt Hill
#
# Bulk Modulus (GPa) = 87.35795 92.08839 89.72317
# Shear Modulus (GPa) = 42.39398 50.27537 46.33467
#
# Velocity S-wave (km/s) = 4.18381 4.55614 4.37394
# Velocity P-wave (km/s) = 7.70769 8.10559 7.90915
#
# Compressibility (1/GPa) = 0.01144715
#
# Stress axis : x y z
#
# Youngs Moduli (GPa) = 73.10574 81.24743 140.13643
#
# Poissons Ratio (x) = 0.44625 0.39775
# Poissons Ratio (y) = 0.40153 0.35132
# Poissons Ratio (z) = 0.20750 0.20369
#
# Static dielectric constant tensor:
#      x y z
#    x 1.953790 0.000000 0.000000 
#    y 0.000000 1.876740 0.000000 
#    z 0.000000 0.000000 1.907450 
# 
# From -- ./inp_files/3456.got.cif
#   From: 2010.05.17/outbox.cif.g08.bks.cpg/sg20_2_cif.got.tgz:3456.got - 2010.06.03 22:52:26.
