data_PCOD9322207
_publ_section_title
;
Structure prediction by ZEFSAII (Michael W. Deem and Ramdas Pophale) SiO2 
 PCOD9322207
Probable space group: C 2 2 21
;
_chemical_formula_sum "Si O2"
_cell_formula_units_Z 28
_cell_length_a 15.000000
_cell_length_b 9.000000
_cell_length_c 21.000000
_cell_angle_alpha 90.000000
_cell_angle_beta 90.000000
_cell_angle_gamma 90.000000
_cell_volume 2835.000000
_symmetry_space_group_name_H-M "C 2 2 21"
_symmetry_group_IT_number 20
_symmetry_cell_setting 'orthorhombic'
loop_
_space_group_symop_operation_xyz
x,y,z
-x,-y,1/2+z
x,-y,-z
-x,y,1/2-z
1/2+x,1/2+y,z
1/2-x,1/2-y,1/2+z
1/2+x,1/2-y,-z
1/2-x,1/2+y,1/2-z
loop_
_atom_site_type_symbol
_atom_site_label
_atom_site_fract_x
_atom_site_fract_y
_atom_site_fract_z
Si Si1 0.756774 0.661996 0.030436
Si Si2 0.450846 0.413409 0.318240
Si Si3 0.866399 0.165234 0.074006
Si Si4 0.693654 0.901732 0.193493
Si Si5 0.571340 0.718158 0.102559
Si Si6 0.735301 0.234460 0.191966
Si Si7 0.127036 0.166324 0.616957
O O1 0.654339 0.694415 0.052452
O O2 0.828820 0.685791 0.087076
O O3 0.759051 0.500000 0.000000
O O4 0.801631 0.778397 0.981943
O O5 0.500000 0.437055 0.250000
O O6 0.437074 0.570175 0.354054
O O7 0.352396 0.339092 0.316784
O O8 0.527402 0.318566 0.355521
O O9 0.803474 0.211028 0.133527
O O10 0.968528 0.233719 0.076132
O O11 0.879004 0.986327 0.075367
O O12 0.614250 0.848858 0.146589
O O13 0.699263 0.798354 0.254547
O O14 0.793061 0.877096 0.164731
O O15 0.692298 0.075280 0.209148
#
# Coordination Sequence:
#
# PCOD9322207 Si02
#       7
#     8   8   8   8   8   8   8
#     4  11  23  41  63  94 126 160 213 272 312 370
#     4  11  21  40  66  95 127 171 215 264 322 396
#     4  10  23  41  63  90 124 175 210 259 319 392
#     4  10  21  38  60  91 131 168 208 272 311 386
#     4  10  24  41  65  91 125 171 221 263 324 384
#     4  11  22  38  61  94 130 167 215 258 330 373
#     4   9  21  41  63  89 125 169 214 251 324 384
#
# _framework density 9.8765429999999999
#
# number of rings (size 3 to 8) (size 9 to 14) (size 15 to 20)
#    0.000    1.714    1.429    2.143    4.000    5.714 
#    2.571    2.857    0.000    0.000    0.000    0.000 
#    0.000    0.000    0.000    0.000    0.000    0.000 
#
# Total GULP energy -155877.407181 kJ/mol
# GULP energy per Si atom -5567.050256 kJ/mol
# Density = 0.985406 g / cm^3
# Si number density = 9.876543 Si / 1000 Ang^3
#
#
#
# Elastic Constant Matrix: (Units=GPa)
#
#
# Indices 1 2 3 4 5 6 
#
# 1 155.5607 17.9112 38.0973 0.0000 0.0000 0.0000
# 2 17.9112 57.0753 23.6968 0.0000 0.0000 0.0000
# 3 38.0973 23.6968 65.4575 0.0000 0.0000 0.0000
# 4 0.0000 0.0000 0.0000 27.1755 0.0000 0.0000
# 5 0.0000 0.0000 0.0000 0.0000 33.5944 0.0000
# 6 0.0000 0.0000 0.0000 0.0000 0.0000 24.6010
#
#
#
# Elastic Compliance Matrix: (Units=1/GPa)
#
#
# Indices 1 2 3 4 5 6 
#
# 1 0.007517 -0.000638 -0.004144 0.000000 0.000000 0.000000
# 2 -0.000638 0.020674 -0.007113 0.000000 0.000000 0.000000
# 3 -0.004144 -0.007113 0.020264 0.000000 0.000000 0.000000
# 4 0.000000 0.000000 0.000000 0.036798 0.000000 0.000000
# 5 0.000000 0.000000 0.000000 0.000000 0.029767 0.000000
# 6 0.000000 0.000000 0.000000 0.000000 0.000000 0.040649
#
#
# Mechanical properties :
#
#
# Convention : Reuss Voigt Hill
#
# Bulk Modulus (GPa) = 40.54386 48.61158 44.57772
# Shear Modulus (GPa) = 26.64112 30.30005 28.47058
#
# Velocity S-wave (km/s) = 3.67646 3.92080 3.80060
# Velocity P-wave (km/s) = 6.21222 6.72012 6.47115
#
# Compressibility (1/GPa) = 0.02466465
#
# Stress axis : x y z
#
# Youngs Moduli (GPa) = 133.03754 48.36944 49.34911
#
# Poissons Ratio (x) = 0.03088 0.20449
# Poissons Ratio (y) = 0.08494 0.35101
# Poissons Ratio (z) = 0.55127 0.34405
#
# Static dielectric constant tensor:
#      x y z
#    x 1.647540 0.000000 0.000000 
#    y 0.000000 1.703680 0.000000 
#    z 0.000000 0.000000 1.925540 
# 
# From -- ./inp_files/26747.got.cif
#   From: 2010.05.17/outbox.ucp.g08.bks.cvg/sg20_14_cif.got.tgz:26747.got - 2010.06.11 15:13:06.
