data_PCOD9322241
_publ_section_title
;
Structure prediction by ZEFSAII (Michael W. Deem and Ramdas Pophale) SiO2 
 PCOD9322241
Probable space group: C 2 2 21
;
_chemical_formula_sum "Si O2"
_cell_formula_units_Z 32
_cell_length_a 12.000000
_cell_length_b 30.000000
_cell_length_c 9.000000
_cell_angle_alpha 90.000000
_cell_angle_beta 90.000000
_cell_angle_gamma 90.000000
_cell_volume 3240.000000
_symmetry_space_group_name_H-M "C 2 2 21"
_symmetry_group_IT_number 20
_symmetry_cell_setting 'orthorhombic'
loop_
_space_group_symop_operation_xyz
x,y,z
-x,-y,1/2+z
x,-y,-z
-x,y,1/2-z
1/2+x,1/2+y,z
1/2-x,1/2-y,1/2+z
1/2+x,1/2-y,-z
1/2-x,1/2+y,1/2-z
loop_
_atom_site_type_symbol
_atom_site_label
_atom_site_fract_x
_atom_site_fract_y
_atom_site_fract_z
Si Si1 0.613400 0.180730 0.431880
Si Si2 0.127357 0.928670 0.307522
Si Si3 0.820169 0.908866 0.869807
Si Si4 0.379242 0.484541 0.670312
Si Si5 0.497338 0.331363 0.903609
Si Si6 0.323753 0.283133 0.099493
Si Si7 0.303819 0.657320 0.627812
Si Si8 0.644958 0.837669 0.912702
O O1 0.653267 0.231957 0.434567
O O2 0.683319 0.155270 0.555303
O O3 0.483103 0.170897 0.454222
O O4 0.647236 0.168312 0.264626
O O5 0.133717 0.933342 0.483826
O O6 0.176314 0.883156 0.241714
O O7 0.000000 0.927608 0.250000
O O8 0.181275 0.972872 0.241573
O O9 0.817130 0.939682 0.723970
O O10 0.913054 0.870428 0.851038
O O11 0.705866 0.885625 0.924286
O O12 0.392587 0.500000 0.500000
O O13 0.500000 0.479565 0.750000
O O14 0.500000 0.303228 0.750000
O O15 0.431676 0.307357 0.034338
O O16 0.610584 0.344419 0.987979
O O17 0.314413 0.297994 0.271447
O O18 0.220146 0.303209 0.006803
#
# Coordination Sequence:
#
# PCOD9322241 Si02
#       8
#     8   8   8   8   8   8   8   8
#     4  11  26  40  65  89 125 174 222 272 322 381
#     4  11  20  39  61  96 136 164 205 252 336 392
#     4  11  21  42  60  89 135 166 211 257 329 383
#     4  11  24  35  62 100 135 168 207 264 326 409
#     4  11  23  35  62  91 129 173 210 256 325 387
#     4  11  23  42  61  92 128 167 221 274 319 382
#     4  12  22  39  66  94 129 173 214 272 325 395
#     4  10  24  45  59  90 125 176 214 268 325 378
#
# _framework density 9.8765429999999999
#
# number of rings (size 3 to 8) (size 9 to 14) (size 15 to 20)
#    0.000    1.000    3.750    4.875    8.750    0.500 
#    0.000    0.000    0.000    0.000   13.000    0.000 
#    0.000    0.000    0.000    0.000    0.000    0.000 
#
# Total GULP energy -178427.836639 kJ/mol
# GULP energy per Si atom -5575.869895 kJ/mol
# Density = 0.985406 g / cm^3
# Si number density = 9.876543 Si / 1000 Ang^3
#
#
#
# Elastic Constant Matrix: (Units=GPa)
#
#
# Indices 1 2 3 4 5 6 
#
# 1 65.4803 16.6750 44.9303 0.0000 0.0000 0.0000
# 2 16.6750 39.1003 3.3704 0.0000 0.0000 0.0000
# 3 44.9303 3.3704 96.8636 0.0000 0.0000 0.0000
# 4 0.0000 0.0000 0.0000 50.7011 0.0000 0.0000
# 5 0.0000 0.0000 0.0000 0.0000 32.7284 0.0000
# 6 0.0000 0.0000 0.0000 0.0000 0.0000 8.1309
#
#
#
# Elastic Compliance Matrix: (Units=1/GPa)
#
#
# Indices 1 2 3 4 5 6 
#
# 1 0.025786 -0.009996 -0.011613 0.000000 0.000000 0.000000
# 2 -0.009996 0.029527 0.003609 0.000000 0.000000 0.000000
# 3 -0.011613 0.003609 0.015585 0.000000 0.000000 0.000000
# 4 0.000000 0.000000 0.000000 0.019723 0.000000 0.000000
# 5 0.000000 0.000000 0.000000 0.000000 0.030554 0.000000
# 6 0.000000 0.000000 0.000000 0.000000 0.000000 0.122988
#
#
# Mechanical properties :
#
#
# Convention : Reuss Voigt Hill
#
# Bulk Modulus (GPa) = 28.65448 36.82172 32.73810
# Shear Modulus (GPa) = 17.13534 27.40999 22.27266
#
# Velocity S-wave (km/s) = 2.94849 3.72913 3.36155
# Velocity P-wave (km/s) = 5.11168 6.10110 5.62817
#
# Compressibility (1/GPa) = 0.03489855
#
# Stress axis : x y z
#
# Youngs Moduli (GPa) = 38.78135 33.86732 64.16476
#
# Poissons Ratio (x) = 0.33853 0.74514
# Poissons Ratio (y) = 0.38765 -0.23158
# Poissons Ratio (z) = 0.45036 -0.12223
#
# Static dielectric constant tensor:
#      x y z
#    x 1.405250 0.000000 0.000000 
#    y 0.000000 1.797920 0.000000 
#    z 0.000000 0.000000 1.775400 
# 
# From -- ./inp_files/7672.got.cif
#   From: 2010.05.17/outbox.ucp.g08.bks.cvg/sg20_4_cif.got.tgz:7672.got - 2010.06.11 15:13:06.
