data_PCOD9322386
_publ_section_title
;
Structure prediction by ZEFSAII (Michael W. Deem and Ramdas Pophale) SiO2 
 PCOD9322386
Probable space group: C 2 2 2
;
_chemical_formula_sum "Si O2"
_cell_formula_units_Z 40
_cell_length_a 12.076596
_cell_length_b 13.964059
_cell_length_c 11.144446
_cell_angle_alpha 90.000000
_cell_angle_beta 90.000000
_cell_angle_gamma 90.000000
_cell_volume 1879.380417
_symmetry_space_group_name_H-M "C 2 2 2"
_symmetry_group_IT_number 21
_symmetry_cell_setting 'orthorhombic'
loop_
_space_group_symop_operation_xyz
x,y,z
-x,-y,z
x,-y,-z
-x,y,-z
1/2+x,1/2+y,z
1/2-x,1/2-y,z
1/2+x,1/2-y,-z
1/2-x,1/2+y,-z
loop_
_atom_site_type_symbol
_atom_site_label
_atom_site_fract_x
_atom_site_fract_y
_atom_site_fract_z
Si Si1 0.376622 0.266915 0.724790
Si Si2 0.874441 0.372512 0.479435
Si Si3 0.838982 0.969436 0.633367
Si Si4 0.525071 0.106268 0.859815
Si Si5 0.262284 0.860334 0.738122
O O1 0.250000 0.250000 0.770812
O O2 0.379917 0.227956 0.588682
O O3 0.393401 0.380549 0.704405
O O4 0.461264 0.195278 0.794594
O O5 0.788625 0.433473 0.397104
O O6 0.822686 0.361587 0.609240
O O7 0.000000 0.404440 0.500000
O O8 0.879932 0.000000 0.500000
O O9 0.834506 0.063736 0.715837
O O10 0.655690 0.107719 0.841100
O O11 0.500000 0.000000 0.808922
O O12 0.500000 0.110237 0.000000
O O13 0.250000 0.750000 0.764135
#
# Coordination Sequence:
#
# PCOD9322386 Si02
#       5
#     8   8   8   8   8
#     4  10  19  36  59  90 124 154 190 246 307 363
#     4  10  17  30  58  91 118 148 191 243 303 367
#     4   9  19  33  58  88 125 157 191 239 306 372
#     4  11  24  41  63  89 114 154 211 258 297 351
#     4  11  22  37  58  86 121 155 197 248 301 360
#
# _framework density 21.283611000000001
#
# number of rings (size 3 to 8) (size 9 to 14) (size 15 to 20)
#    0.000    1.800    2.000    5.400    0.000    3.600 
#    0.000    1.000    0.000    1.200    0.000    0.000 
#    0.000    0.000    0.000    0.000    0.000    0.000 
#
# Total GULP energy -111392.136008 kJ/mol
# GULP energy per Si atom -5569.606800 kJ/mol
# Density = 2.123517 g / cm^3
# Si number density = 21.283611 Si / 1000 Ang^3
#
#
#
# Elastic Constant Matrix: (Units=GPa)
#
#
# Indices 1 2 3 4 5 6 
#
# 1 67.6842 23.2606 0.1321 0.0000 0.0000 0.0000
# 2 23.2606 182.4770 16.4023 0.0000 0.0000 0.0000
# 3 0.1321 16.4023 59.3067 0.0000 0.0000 0.0000
# 4 0.0000 0.0000 0.0000 -4.4159 0.0000 0.0000
# 5 0.0000 0.0000 0.0000 0.0000 -39.1272 0.0000
# 6 0.0000 0.0000 0.0000 0.0000 0.0000 39.8263
#
#
#
# Elastic Compliance Matrix: (Units=1/GPa)
#
#
# Indices 1 2 3 4 5 6 
#
# 1 0.015467 -0.002019 0.000524 0.000000 0.000000 0.000000
# 2 -0.002019 0.005883 -0.001623 0.000000 0.000000 0.000000
# 3 0.000524 -0.001623 0.017309 0.000000 0.000000 0.000000
# 4 0.000000 0.000000 0.000000 -0.226455 0.000000 0.000000
# 5 0.000000 0.000000 0.000000 0.000000 -0.025558 0.000000
# 6 0.000000 0.000000 0.000000 0.000000 0.000000 0.025109
#
#
# Mechanical properties :
#
#
# Convention : Reuss Voigt Hill
#
# Bulk Modulus (GPa) = 30.84072 43.22866 37.03469
# Shear Modulus (GPa) = -29.20548 17.23482 -5.98533
#
# Velocity S-wave (km/s) = -3.70835 2.84873 -1.67877
# Velocity P-wave (km/s) = 1.95294 5.58348 3.69873
#
# Compressibility (1/GPa) = 0.03242467
#
# Stress axis : x y z
#
# Youngs Moduli (GPa) = 64.65279 169.97182 57.77307
#
# Poissons Ratio (x) = 0.34313 -0.03027
# Poissons Ratio (y) = 0.13052 0.09374
# Poissons Ratio (z) = -0.03387 0.27580
#
# Static dielectric constant tensor:
#      x y z
#    x 1.889980 0.000000 0.000000 
#    y 0.000000 2.284120 0.000000 
#    z 0.000000 0.000000 1.709010 
# 
# From -- ./inp_files/24955.got.cif
#   From: 2010.05.17/outbox.cif.g08.bks.cpg/sg21_13_cif.got.tgz:24955.got - 2010.06.03 23:14:55.
