data_PCOD9322578
_publ_section_title
;
Structure prediction by ZEFSAII (Michael W. Deem and Ramdas Pophale) SiO2 
 PCOD9322578
Probable space group: C 2 2 2
;
_chemical_formula_sum "Si O2"
_cell_formula_units_Z 42
_cell_length_a 10.750301
_cell_length_b 23.686505
_cell_length_c 7.310303
_cell_angle_alpha 90.000000
_cell_angle_beta 90.000000
_cell_angle_gamma 90.000000
_cell_volume 1861.474052
_symmetry_space_group_name_H-M "C 2 2 2"
_symmetry_group_IT_number 21
_symmetry_cell_setting 'orthorhombic'
loop_
_space_group_symop_operation_xyz
x,y,z
-x,-y,z
x,-y,-z
-x,y,-z
1/2+x,1/2+y,z
1/2-x,1/2-y,z
1/2+x,1/2-y,-z
1/2-x,1/2+y,-z
loop_
_atom_site_type_symbol
_atom_site_label
_atom_site_fract_x
_atom_site_fract_y
_atom_site_fract_z
Si Si1 0.881560 0.084322 0.904404
Si Si2 0.698943 0.915424 0.375180
Si Si3 0.000000 0.500000 0.500000
Si Si4 0.529422 0.817838 0.281221
Si Si5 0.511734 0.692029 0.719040
Si Si6 0.765102 0.364792 0.223869
O O1 0.812448 0.057309 0.733428
O O2 0.936427 0.142776 0.819338
O O3 0.781845 0.095280 0.062930
O O4 0.000000 0.057690 0.000000
O O5 0.586571 0.959094 0.383350
O O6 0.647074 0.859309 0.271678
O O7 0.733115 0.896626 0.580404
O O8 0.500000 0.816852 0.500000
O O9 0.542280 0.752879 0.226333
O O10 0.403944 0.842167 0.191886
O O11 0.500000 0.685691 0.500000
O O12 0.658268 0.683499 0.762495
#
# Coordination Sequence:
#
# PCOD9322578 Si02
#       6
#     8   8   2   8   8   8
#     4  10  23  39  63  99 132 179 215 256 322 394
#     4  11  22  44  67  94 129 161 225 282 330 398
#     4  12  24  48  78  98 112 178 224 282 378 394
#     4   9  19  35  59  93 130 174 214 259 317 377
#     4  10  18  34  61  89 132 184 212 244 310 387
#     4  10  19  39  60  91 136 171 210 264 312 385
#
# _framework density 22.562766
#
# number of rings (size 3 to 8) (size 9 to 14) (size 15 to 20)
#    0.000    1.905    4.762    0.571    0.000    1.524 
#   17.143    1.905    0.000   12.571    0.000    0.000 
#    0.000    0.000    0.000    0.000    0.000    0.000 
#
# Total GULP energy -117336.301507 kJ/mol
# GULP energy per Si atom -5587.442929 kJ/mol
# Density = 2.251141 g / cm^3
# Si number density = 22.562766 Si / 1000 Ang^3
#
#
#
# Elastic Constant Matrix: (Units=GPa)
#
#
# Indices 1 2 3 4 5 6 
#
# 1 94.6555 22.2597 35.1346 0.0000 0.0000 0.0000
# 2 22.2597 81.5967 24.8472 0.0000 0.0000 0.0000
# 3 35.1346 24.8472 94.3487 0.0000 0.0000 0.0000
# 4 0.0000 0.0000 0.0000 -14.4959 0.0000 0.0000
# 5 0.0000 0.0000 0.0000 0.0000 53.1741 0.0000
# 6 0.0000 0.0000 0.0000 0.0000 0.0000 -87.9383
#
#
#
# Elastic Compliance Matrix: (Units=1/GPa)
#
#
# Indices 1 2 3 4 5 6 
#
# 1 0.012608 -0.002185 -0.004120 0.000000 0.000000 0.000000
# 2 -0.002185 0.013703 -0.002795 0.000000 0.000000 0.000000
# 3 -0.004120 -0.002795 0.012869 0.000000 0.000000 0.000000
# 4 0.000000 0.000000 0.000000 -0.068985 0.000000 0.000000
# 5 0.000000 0.000000 0.000000 0.000000 0.018806 0.000000
# 6 0.000000 0.000000 0.000000 0.000000 0.000000 -0.011372
#
#
# Mechanical properties :
#
#
# Convention : Reuss Voigt Hill
#
# Bulk Modulus (GPa) = 47.66361 48.34264 48.00312
# Shear Modulus (GPa) = 1772.29156 2.70528 887.49842
#
# Velocity S-wave (km/s) = 28.05707 1.09618 19.85448
# Velocity P-wave (km/s) = 32.72262 4.80359 23.38637
#
# Compressibility (1/GPa) = 0.02098037
#
# Stress axis : x y z
#
# Youngs Moduli (GPa) = 79.31763 72.97915 77.70538
#
# Poissons Ratio (x) = 0.15945 0.32011
# Poissons Ratio (y) = 0.17330 0.21719
# Poissons Ratio (z) = 0.32675 0.20398
#
# Static dielectric constant tensor:
#      x y z
#    x 1.837860 0.000000 0.000000 
#    y 0.000000 1.839320 0.000000 
#    z 0.000000 0.000000 1.862540 
# 
# From -- ./inp_files/13259.got.cif
#   From: 2010.05.17/outbox.cif.g08.bks.cpg/sg21_7_cif.got.tgz:13259.got - 2010.06.03 23:14:55.
