data_PCOD9322263
_publ_section_title
;
Structure prediction by ZEFSAII (Michael W. Deem and Ramdas Pophale) SiO2 
 PCOD9322263
Probable space group: C 2 2 2
;
_chemical_formula_sum "Si O2"
_cell_formula_units_Z 34
_cell_length_a 9.684197
_cell_length_b 17.270301
_cell_length_c 6.715181
_cell_angle_alpha 90.000000
_cell_angle_beta 90.000000
_cell_angle_gamma 90.000000
_cell_volume 1123.107288
_symmetry_space_group_name_H-M "C 2 2 2"
_symmetry_group_IT_number 21
_symmetry_cell_setting 'orthorhombic'
loop_
_space_group_symop_operation_xyz
x,y,z
-x,-y,z
x,-y,-z
-x,y,-z
1/2+x,1/2+y,z
1/2-x,1/2-y,z
1/2+x,1/2-y,-z
1/2-x,1/2+y,-z
loop_
_atom_site_type_symbol
_atom_site_label
_atom_site_fract_x
_atom_site_fract_y
_atom_site_fract_z
Si Si1 0.902497 0.229602 0.254243
Si Si2 0.250000 0.750000 0.857114
Si Si3 0.790140 0.925041 0.689668
Si Si4 0.500000 0.861188 0.500000
Si Si5 0.255722 0.917842 0.827902
Si Si6 0.000000 0.500000 0.000000
O O1 0.750000 0.250000 0.343368
O O2 0.908782 0.140293 0.323127
O O3 0.991576 0.293989 0.671938
O O4 0.871045 0.243754 0.023022
O O5 0.231422 0.832203 0.754093
O O6 0.642543 0.906144 0.573308
O O7 0.820920 0.982622 0.302735
O O8 0.769082 0.916833 0.933243
O O9 0.413469 0.946891 0.847672
#
# Coordination Sequence:
#
# PCOD9322263 Si02
#       6
#     8   4   8   4   8   2
#     4   7  13  22  36  70 109 152 185 228 305 368
#     4   8  14  28  46  74 110 160 180 234 308 372
#     4   8  15  24  42  72 118 155 187 241 312 369
#     4  10  12  22  42  71 116 160 187 250 306 366
#     4   9  15  29  46  76 116 154 186 244 311 360
#     4   8  16  24  48  78 116 144 192 262 296 356
#
# _framework density 30.273154000000002
#
# number of rings (size 3 to 8) (size 9 to 14) (size 15 to 20)
#    0.706    3.294    2.353    0.000    0.000    0.000 
#    0.000    0.000    0.000   11.294   36.706    1.647 
#    0.000  181.647   11.294    0.000    0.000    0.000 
#
# Total GULP energy -94645.153226 kJ/mol
# GULP energy per Si atom -5567.361954 kJ/mol
# Density = 3.020425 g / cm^3
# Si number density = 30.273154 Si / 1000 Ang^3
#
#
#
# Elastic Constant Matrix: (Units=GPa)
#
#
# Indices 1 2 3 4 5 6 
#
# 1 103.7072 48.0676 28.5223 0.0000 0.0000 0.0000
# 2 48.0676 323.2789 42.3198 0.0000 0.0000 0.0000
# 3 28.5223 42.3198 162.0520 0.0000 0.0000 0.0000
# 4 0.0000 0.0000 0.0000 39.4626 0.0000 0.0000
# 5 0.0000 0.0000 0.0000 0.0000 34.9081 0.0000
# 6 0.0000 0.0000 0.0000 0.0000 0.0000 47.2111
#
#
#
# Elastic Compliance Matrix: (Units=1/GPa)
#
#
# Indices 1 2 3 4 5 6 
#
# 1 0.010706 -0.001393 -0.001521 0.000000 0.000000 0.000000
# 2 -0.001393 0.003384 -0.000639 0.000000 0.000000 0.000000
# 3 -0.001521 -0.000639 0.006605 0.000000 0.000000 0.000000
# 4 0.000000 0.000000 0.000000 0.025340 0.000000 0.000000
# 5 0.000000 0.000000 0.000000 0.000000 0.028647 0.000000
# 6 0.000000 0.000000 0.000000 0.000000 0.000000 0.021181
#
#
# Mechanical properties :
#
#
# Convention : Reuss Voigt Hill
#
# Bulk Modulus (GPa) = 73.57561 91.87304 82.72433
# Shear Modulus (GPa) = 46.51215 55.65824 51.08520
#
# Velocity S-wave (km/s) = 3.92397 4.29247 4.11235
# Velocity P-wave (km/s) = 6.69975 7.41491 7.06639
#
# Compressibility (1/GPa) = 0.01359146
#
# Stress axis : x y z
#
# Youngs Moduli (GPa) = 93.40273 295.50856 151.39426
#
# Poissons Ratio (x) = 0.41159 0.23022
# Poissons Ratio (y) = 0.13009 0.09668
# Poissons Ratio (z) = 0.14203 0.18871
#
# Static dielectric constant tensor:
#      x y z
#    x 2.553220 0.000000 0.000000 
#    y 0.000000 2.512440 0.000000 
#    z 0.000000 0.000000 2.490250 
# 
# From -- ./inp_files/3721.got.cif
#   From: 2010.05.17/outbox.cif.g08.bks.cpg/sg21_2_cif.got.tgz:3721.got - 2010.06.03 23:14:55.
