data_PCOD9322651
_publ_section_title
;
Structure prediction by ZEFSAII (Michael W. Deem and Ramdas Pophale) SiO2 
 PCOD9322651
Probable space group: C 2 2 2
;
_chemical_formula_sum "Si O2"
_cell_formula_units_Z 44
_cell_length_a 8.365655
_cell_length_b 17.265333
_cell_length_c 15.551428
_cell_angle_alpha 90.000000
_cell_angle_beta 90.000000
_cell_angle_gamma 90.000000
_cell_volume 2246.183245
_symmetry_space_group_name_H-M "C 2 2 2"
_symmetry_group_IT_number 21
_symmetry_cell_setting 'orthorhombic'
loop_
_space_group_symop_operation_xyz
x,y,z
-x,-y,z
x,-y,-z
-x,y,-z
1/2+x,1/2+y,z
1/2-x,1/2-y,z
1/2+x,1/2-y,-z
1/2-x,1/2+y,-z
loop_
_atom_site_type_symbol
_atom_site_label
_atom_site_fract_x
_atom_site_fract_y
_atom_site_fract_z
Si Si1 0.448904 0.408701 0.405031
Si Si2 0.000000 0.000000 0.872583
Si Si3 0.837631 0.535317 0.305961
Si Si4 0.360116 0.615519 0.249443
Si Si5 0.348195 0.943116 0.889753
Si Si6 0.250000 0.250000 0.869300
Si Si7 0.500000 0.811939 0.000000
O O1 0.500000 0.500000 0.399530
O O2 0.500000 0.383674 0.500000
O O3 0.265945 0.414648 0.372752
O O4 0.546511 0.359709 0.334650
O O5 0.178643 0.985943 0.910046
O O6 0.986346 0.923728 0.814415
O O7 0.746626 0.456741 0.278167
O O8 0.858750 0.576149 0.212830
O O9 0.000000 0.500000 0.343150
O O10 0.267254 0.677418 0.194019
O O11 0.500000 0.000000 0.903663
O O12 0.378072 0.868339 0.948531
O O13 0.401685 0.237897 0.931181
#
# Coordination Sequence:
#
# PCOD9322651 Si02
#       7
#     8   4   8   8   8   4   4
#     4   9  16  31  59  92 117 144 195 251 291 362
#     4  10  18  38  74  84 110 166 206 242 329 369
#     4   9  16  32  63  87 116 152 194 254 313 358
#     4  10  19  39  56  87 115 160 199 240 317 370
#     4  10  20  38  63  92 120 148 208 266 305 365
#     4  12  28  40  58  78 130 168 200 260 316 374
#     4  12  27  42  54  89 120 156 218 266 300 367
#
# _framework density 19.588784
#
# number of rings (size 3 to 8) (size 9 to 14) (size 15 to 20)
#    0.000    2.000    4.545    3.545    2.545    0.000 
#    0.000   10.909    0.000    4.364    0.000    0.000 
#    0.000    0.000    0.000    0.000    0.000    0.000 
#
# Total GULP energy -122478.292732 kJ/mol
# GULP energy per Si atom -5567.195124 kJ/mol
# Density = 1.954420 g / cm^3
# Si number density = 19.588784 Si / 1000 Ang^3
#
#
#
# Elastic Constant Matrix: (Units=GPa)
#
#
# Indices 1 2 3 4 5 6 
#
# 1 110.5024 0.0571 41.8874 0.0000 0.0000 0.0000
# 2 0.0571 23.9943 17.1860 0.0000 0.0000 0.0000
# 3 41.8874 17.1860 134.7184 0.0000 0.0000 0.0000
# 4 0.0000 0.0000 0.0000 12.3193 0.0000 0.0000
# 5 0.0000 0.0000 0.0000 0.0000 32.8688 0.0000
# 6 0.0000 0.0000 0.0000 0.0000 0.0000 17.3638
#
#
#
# Elastic Compliance Matrix: (Units=1/GPa)
#
#
# Indices 1 2 3 4 5 6 
#
# 1 0.010395 0.002521 -0.003554 0.000000 0.000000 0.000000
# 2 0.002521 0.046479 -0.006713 0.000000 0.000000 0.000000
# 3 -0.003554 -0.006713 0.009384 0.000000 0.000000 0.000000
# 4 0.000000 0.000000 0.000000 0.081173 0.000000 0.000000
# 5 0.000000 0.000000 0.000000 0.000000 0.030424 0.000000
# 6 0.000000 0.000000 0.000000 0.000000 0.000000 0.057591
#
#
# Mechanical properties :
#
#
# Convention : Reuss Voigt Hill
#
# Bulk Modulus (GPa) = 19.69814 43.05287 31.37550
# Shear Modulus (GPa) = 18.66640 26.51604 22.59122
#
# Velocity S-wave (km/s) = 3.09028 3.68317 3.39967
# Velocity P-wave (km/s) = 4.77606 6.33354 5.60912
#
# Compressibility (1/GPa) = 0.05076622
#
# Stress axis : x y z
#
# Youngs Moduli (GPa) = 96.19670 21.51517 106.56193
#
# Poissons Ratio (x) = -0.05423 0.37869
# Poissons Ratio (y) = -0.24248 0.71535
# Poissons Ratio (z) = 0.34186 0.14443
#
# Static dielectric constant tensor:
#      x y z
#    x 1.789380 0.000000 0.000000 
#    y 0.000000 1.728610 0.000000 
#    z 0.000000 0.000000 1.740990 
# 
# From -- ./inp_files/30428.got.cif
#   From: 2010.05.17/outbox.cif.g08.bks.cpg/sg21_16_cif.got.tgz:30428.got - 2010.06.03 23:14:55.
