data_PCOD9322760
_publ_section_title
;
Structure prediction by ZEFSAII (Michael W. Deem and Ramdas Pophale) SiO2 
 PCOD9322760
Probable space group: C 2 2 2
;
_chemical_formula_sum "Si O2"
_cell_formula_units_Z 64
_cell_length_a 23.353779
_cell_length_b 17.000638
_cell_length_c 8.636520
_cell_angle_alpha 90.000000
_cell_angle_beta 90.000000
_cell_angle_gamma 90.000000
_cell_volume 3428.950132
_symmetry_space_group_name_H-M "C 2 2 2"
_symmetry_group_IT_number 21
_symmetry_cell_setting 'orthorhombic'
loop_
_space_group_symop_operation_xyz
x,y,z
-x,-y,z
x,-y,-z
-x,y,-z
1/2+x,1/2+y,z
1/2-x,1/2-y,z
1/2+x,1/2-y,-z
1/2-x,1/2+y,-z
loop_
_atom_site_type_symbol
_atom_site_label
_atom_site_fract_x
_atom_site_fract_y
_atom_site_fract_z
Si Si1 0.935700 0.493196 0.311136
Si Si2 0.626758 0.841005 0.644586
Si Si3 0.834664 0.092327 0.351201
Si Si4 0.835496 0.606920 0.316053
Si Si5 0.211137 0.074407 0.316686
Si Si6 0.856942 0.219715 0.801498
Si Si7 0.432267 0.309653 0.490547
Si Si8 0.186537 0.768700 0.119859
O O1 0.938239 0.500000 0.500000
O O2 0.910363 0.407998 0.274908
O O3 0.891507 0.560414 0.259836
O O4 0.000000 0.500000 0.252123
O O5 0.658282 0.882663 0.501035
O O6 0.586836 0.772274 0.572101
O O7 0.670033 0.799420 0.759997
O O8 0.793971 0.096937 0.501898
O O9 0.895494 0.122876 0.420355
O O10 0.815301 0.151234 0.217977
O O11 0.828327 0.002473 0.296405
O O12 0.777320 0.561383 0.277837
O O13 0.834153 0.695565 0.253362
O O14 0.187570 0.149176 0.226129
O O15 0.909461 0.198257 0.686690
O O16 0.861055 0.226519 0.985687
O O17 0.500000 0.321206 0.500000
O O18 0.250000 0.750000 0.057478
#
# Coordination Sequence:
#
# PCOD9322760 Si02
#       8
#     8   8   8   8   8   8   8   8
#     4   9  19  31  52  85 113 142 189 241 276 326
#     4   9  20  32  54  86 109 151 191 229 284 337
#     4   9  21  34  54  87 108 144 189 240 292 340
#     4  10  19  32  58  80 112 148 193 235 290 333
#     4  10  19  35  57  81 116 139 192 244 290 342
#     4  10  22  37  53  84 109 153 187 231 285 354
#     4   9  19  38  63  82 111 145 192 242 286 336
#     4  11  21  35  55  79 123 152 188 229 291 363
#
# _framework density 18.664605999999999
#
# number of rings (size 3 to 8) (size 9 to 14) (size 15 to 20)
#    0.000    2.375    0.000    2.625   12.250    0.500 
#    0.000    8.125    0.000    0.750    0.000   10.500 
#    0.000    0.000    0.000    0.000    0.000    0.000 
#
# Total GULP energy -178383.428971 kJ/mol
# GULP energy per Si atom -5574.482155 kJ/mol
# Density = 1.862212 g / cm^3
# Si number density = 18.664606 Si / 1000 Ang^3
#
#
#
# Elastic Constant Matrix: (Units=GPa)
#
#
# Indices 1 2 3 4 5 6 
#
# 1 127.0326 46.6410 10.3223 0.0000 0.0000 0.0000
# 2 46.6410 108.1462 15.7977 0.0000 0.0000 0.0000
# 3 10.3223 15.7977 49.7538 0.0000 0.0000 0.0000
# 4 0.0000 0.0000 0.0000 -1.4048 0.0000 0.0000
# 5 0.0000 0.0000 0.0000 0.0000 11.1469 0.0000
# 6 0.0000 0.0000 0.0000 0.0000 0.0000 15.3213
#
#
#
# Elastic Compliance Matrix: (Units=1/GPa)
#
#
# Indices 1 2 3 4 5 6 
#
# 1 0.009376 -0.003942 -0.000693 0.000000 0.000000 0.000000
# 2 -0.003942 0.011354 -0.002787 0.000000 0.000000 0.000000
# 3 -0.000693 -0.002787 0.021128 0.000000 0.000000 0.000000
# 4 0.000000 0.000000 0.000000 -0.711869 0.000000 0.000000
# 5 0.000000 0.000000 0.000000 0.000000 0.089711 0.000000
# 6 0.000000 0.000000 0.000000 0.000000 0.000000 0.065269
#
#
# Mechanical properties :
#
#
# Convention : Reuss Voigt Hill
#
# Bulk Modulus (GPa) = 37.02079 47.82829 42.42454
# Shear Modulus (GPa) = -10.17952 19.15747 4.48898
#
# Velocity S-wave (km/s) = -2.33790 3.20723 1.55251
# Velocity P-wave (km/s) = 3.54826 6.27661 5.09833
#
# Compressibility (1/GPa) = 0.02701185
#
# Stress axis : x y z
#
# Youngs Moduli (GPa) = 106.65792 88.07396 47.33093
#
# Poissons Ratio (x) = 0.34721 0.03282
# Poissons Ratio (y) = 0.42047 0.13192
# Poissons Ratio (z) = 0.07396 0.24548
#
# Static dielectric constant tensor:
#      x y z
#    x 1.645150 0.000000 0.000000 
#    y 0.000000 1.658970 0.000000 
#    z 0.000000 0.000000 1.655110 
# 
# From -- ./inp_files/18698.got.cif
#   From: 2010.05.17/outbox.cif.g08.bks.cpg/sg21_10_cif.got.tgz:18698.got - 2010.06.03 23:14:55.
