data_PCOD9322072
_publ_section_title
;
Structure prediction by ZEFSAII (Michael W. Deem and Ramdas Pophale) SiO2 
 PCOD9322072
Probable space group: C 2 2 21
;
_chemical_formula_sum "Si O2"
_cell_formula_units_Z 20
_cell_length_a 4.718448
_cell_length_b 13.796836
_cell_length_c 13.740573
_cell_angle_alpha 90.000000
_cell_angle_beta 90.000000
_cell_angle_gamma 90.000000
_cell_volume 894.506537
_symmetry_space_group_name_H-M "C 2 2 21"
_symmetry_group_IT_number 20
_symmetry_cell_setting 'orthorhombic'
loop_
_space_group_symop_operation_xyz
x,y,z
-x,-y,1/2+z
x,-y,-z
-x,y,1/2-z
1/2+x,1/2+y,z
1/2-x,1/2-y,1/2+z
1/2+x,1/2-y,-z
1/2-x,1/2+y,1/2-z
loop_
_atom_site_type_symbol
_atom_site_label
_atom_site_fract_x
_atom_site_fract_y
_atom_site_fract_z
Si Si1 0.736879 0.573291 0.816796
Si Si2 0.935386 0.500000 0.500000
Si Si3 0.079139 0.809517 0.468968
O O1 0.500000 0.522452 0.750000
O O2 0.572123 0.661639 0.868412
O O3 0.000000 0.602980 0.750000
O O4 0.869360 0.512347 0.905172
O O5 0.736923 0.405793 0.505703
O O6 0.326450 0.729970 0.463715
#
# Coordination Sequence:
#
# PCOD9322072 Si02
#       3
#     8   4   8
#     4  12  25  46  80 112 152 201 249 310 377 439
#     4  12  26  48  84 106 156 204 244 322 362 448
#     4  12  25  46  80 107 145 201 249 309 376 437
#
# _framework density 22.358695999999998
#
# number of rings (size 3 to 8) (size 9 to 14) (size 15 to 20)
#    0.000    0.000    8.000    1.200    0.000    0.000 
#    0.000    2.000   35.200    0.000    0.000    0.000 
#    0.000    0.000    0.000    0.000    0.000    0.000 
#
# Total GULP energy -55926.381164 kJ/mol
# GULP energy per Si atom -5592.638116 kJ/mol
# Density = 2.230781 g / cm^3
# Si number density = 22.358696 Si / 1000 Ang^3
#
#
#
# Elastic Constant Matrix: (Units=GPa)
#
#
# Indices 1 2 3 4 5 6 
#
# 1 227.0683 75.2223 107.1643 0.0000 0.0000 0.0000
# 2 75.2223 96.8376 61.3676 0.0000 0.0000 0.0000
# 3 107.1643 61.3676 157.6206 0.0000 0.0000 0.0000
# 4 0.0000 0.0000 0.0000 15.2975 0.0000 0.0000
# 5 0.0000 0.0000 0.0000 0.0000 81.4641 0.0000
# 6 0.0000 0.0000 0.0000 0.0000 0.0000 66.3153
#
#
#
# Elastic Compliance Matrix: (Units=1/GPa)
#
#
# Indices 1 2 3 4 5 6 
#
# 1 0.007203 -0.003308 -0.003610 0.000000 0.000000 0.000000
# 2 -0.003308 0.015228 -0.003680 0.000000 0.000000 0.000000
# 3 -0.003610 -0.003680 0.010231 0.000000 0.000000 0.000000
# 4 0.000000 0.000000 0.000000 0.065370 0.000000 0.000000
# 5 0.000000 0.000000 0.000000 0.000000 0.012275 0.000000
# 6 0.000000 0.000000 0.000000 0.000000 0.000000 0.015079
#
#
# Mechanical properties :
#
#
# Convention : Reuss Voigt Hill
#
# Bulk Modulus (GPa) = 87.20004 107.67052 97.43528
# Shear Modulus (GPa) = 33.24355 48.46686 40.85521
#
# Velocity S-wave (km/s) = 3.86013 4.66090 4.27929
# Velocity P-wave (km/s) = 7.67806 8.78783 8.25162
#
# Compressibility (1/GPa) = 0.01146788
#
# Stress axis : x y z
#
# Youngs Moduli (GPa) = 138.82454 65.66778 97.74131
#
# Poissons Ratio (x) = 0.21723 0.35280
# Poissons Ratio (y) = 0.45924 0.35967
# Poissons Ratio (z) = 0.50109 0.24164
#
# Static dielectric constant tensor:
#      x y z
#    x 1.855780 0.000000 0.000000 
#    y 0.000000 1.826790 0.000000 
#    z 0.000000 0.000000 1.854170 
# 
# From -- ./inp_files/11708.got.cif
#   From: 2010.05.17/outbox.cif.g08.bks.cpg/sg20_6_cif.got.tgz:11708.got - 2010.06.03 22:52:26.
