data_PCOD9322903
_publ_section_title
;
Structure prediction by ZEFSAII (Michael W. Deem and Ramdas Pophale) SiO2 
 PCOD9322903
Probable space group: C 2 2 2
;
_chemical_formula_sum "Si O2"
_cell_formula_units_Z 40
_cell_length_a 10.870578
_cell_length_b 16.294764
_cell_length_c 10.228572
_cell_angle_alpha 90.000000
_cell_angle_beta 90.000000
_cell_angle_gamma 90.000000
_cell_volume 1811.822790
_symmetry_space_group_name_H-M "C 2 2 2"
_symmetry_group_IT_number 21
_symmetry_cell_setting 'orthorhombic'
loop_
_space_group_symop_operation_xyz
x,y,z
-x,-y,z
x,-y,-z
-x,y,-z
1/2+x,1/2+y,z
1/2-x,1/2-y,z
1/2+x,1/2-y,-z
1/2-x,1/2+y,-z
loop_
_atom_site_type_symbol
_atom_site_label
_atom_site_fract_x
_atom_site_fract_y
_atom_site_fract_z
Si Si1 0.358941 0.815531 0.711675
Si Si2 0.128888 0.524834 0.848622
Si Si3 0.813483 0.902860 0.470436
Si Si4 0.380906 0.542397 0.143154
Si Si5 0.463986 0.673245 0.304650
O O1 0.250000 0.750000 0.730498
O O2 0.358918 0.878387 0.831461
O O3 0.315165 0.870679 0.588559
O O4 0.485448 0.765540 0.698526
O O5 0.250556 0.480699 0.794439
O O6 0.000000 0.500000 0.784716
O O7 0.123069 0.500000 0.000000
O O8 0.855053 0.849042 0.595374
O O9 0.918514 0.876283 0.365084
O O10 0.817848 0.000000 0.500000
O O11 0.500000 0.500000 0.204922
O O12 0.416849 0.636998 0.165838
O O13 0.374631 0.500000 0.000000
#
# Coordination Sequence:
#
# PCOD9322903 Si02
#       5
#     8   8   8   8   8
#     4  10  21  39  61  91 130 170 215 272 325 378
#     4  10  22  43  64  88 129 174 216 265 322 386
#     4  10  19  35  61  87 124 174 216 263 325 389
#     4  10  19  35  64  96 124 163 217 265 314 384
#     4  10  19  35  60  92 126 162 217 280 321 369
#
# _framework density 22.077214000000001
#
# number of rings (size 3 to 8) (size 9 to 14) (size 15 to 20)
#    0.000    2.000    0.000    6.000    0.000    0.000 
#    0.000   35.000    0.000    1.200    0.000    0.000 
#    0.000    0.000    0.000    0.000    0.000    0.000 
#
# Total GULP energy -111392.908405 kJ/mol
# GULP energy per Si atom -5569.645420 kJ/mol
# Density = 2.202697 g / cm^3
# Si number density = 22.077214 Si / 1000 Ang^3
#
#
#
# Elastic Constant Matrix: (Units=GPa)
#
#
# Indices 1 2 3 4 5 6 
#
# 1 128.5668 42.1195 15.8616 0.0000 0.0000 0.0000
# 2 42.1195 141.9422 47.7074 0.0000 0.0000 0.0000
# 3 15.8616 47.7074 82.6767 0.0000 0.0000 0.0000
# 4 0.0000 0.0000 0.0000 31.9004 0.0000 0.0000
# 5 0.0000 0.0000 0.0000 0.0000 -10.8541 0.0000
# 6 0.0000 0.0000 0.0000 0.0000 0.0000 32.8352
#
#
#
# Elastic Compliance Matrix: (Units=1/GPa)
#
#
# Indices 1 2 3 4 5 6 
#
# 1 0.008619 -0.002483 -0.000221 0.000000 0.000000 0.000000
# 2 -0.002483 0.009456 -0.004980 0.000000 0.000000 0.000000
# 3 -0.000221 -0.004980 0.015011 0.000000 0.000000 0.000000
# 4 0.000000 0.000000 0.000000 0.031348 0.000000 0.000000
# 5 0.000000 0.000000 0.000000 0.000000 -0.092131 0.000000
# 6 0.000000 0.000000 0.000000 0.000000 0.000000 0.030455
#
#
# Mechanical properties :
#
#
# Convention : Reuss Voigt Hill
#
# Bulk Modulus (GPa) = 56.43916 62.72919 59.58417
# Shear Modulus (GPa) = 208.06069 27.27611 117.66840
#
# Velocity S-wave (km/s) = 9.71838 3.51876 7.30851
# Velocity P-wave (km/s) = 12.31053 6.70702 9.91295
#
# Compressibility (1/GPa) = 0.01771820
#
# Stress axis : x y z
#
# Youngs Moduli (GPa) = 116.02478 105.75510 66.61698
#
# Poissons Ratio (x) = 0.26263 0.01469
# Poissons Ratio (y) = 0.28814 0.33175
# Poissons Ratio (z) = 0.02559 0.52665
#
# Static dielectric constant tensor:
#      x y z
#    x 1.881130 0.000000 0.000000 
#    y 0.000000 1.842900 0.000000 
#    z 0.000000 0.000000 1.844830 
# 
# From -- ./inp_files/23812.got.cif
#   From: 2010.05.17/outbox.cif.g08.bks.cpg/sg21_12_cif.got.tgz:23812.got - 2010.06.03 23:14:55.
