data_PCOD9322862
_publ_section_title
;
Structure prediction by ZEFSAII (Michael W. Deem and Ramdas Pophale) SiO2 
 PCOD9322862
Probable space group: C 2 2 2
;
_chemical_formula_sum "Si O2"
_cell_formula_units_Z 48
_cell_length_a 5.915314
_cell_length_b 28.388028
_cell_length_c 13.469011
_cell_angle_alpha 90.000000
_cell_angle_beta 90.000000
_cell_angle_gamma 90.000000
_cell_volume 2261.771543
_symmetry_space_group_name_H-M "C 2 2 2"
_symmetry_group_IT_number 21
_symmetry_cell_setting 'orthorhombic'
loop_
_space_group_symop_operation_xyz
x,y,z
-x,-y,z
x,-y,-z
-x,y,-z
1/2+x,1/2+y,z
1/2-x,1/2-y,z
1/2+x,1/2-y,-z
1/2-x,1/2+y,-z
loop_
_atom_site_type_symbol
_atom_site_label
_atom_site_fract_x
_atom_site_fract_y
_atom_site_fract_z
Si Si1 0.313415 0.364584 0.256679
Si Si2 0.072055 0.328791 0.601439
Si Si3 0.861925 0.921269 0.597211
Si Si4 0.799943 0.197693 0.200387
Si Si5 0.750688 0.523089 0.777154
Si Si6 0.442586 0.108068 0.885964
O O1 0.470987 0.398008 0.321833
O O2 0.449661 0.323924 0.199160
O O3 0.148582 0.340219 0.335140
O O4 0.166813 0.395148 0.181041
O O5 0.192601 0.378261 0.572711
O O6 0.232526 0.304469 0.682385
O O7 0.000000 0.303687 0.500000
O O8 0.744890 0.962191 0.660473
O O9 0.000000 0.935567 0.500000
O O10 0.750000 0.250000 0.164642
O O11 0.652675 0.159704 0.140468
O O12 0.500000 0.500000 0.793765
O O13 0.766385 0.569929 0.845131
O O14 0.000000 0.500000 0.797870
O O15 0.500000 0.102011 0.000000
#
# Coordination Sequence:
#
# PCOD9322862 Si02
#       6
#     8   8   8   8   8   8
#     4  10  19  41  68  93 142 182 224 292 347 424
#     4  10  19  34  64  98 136 187 232 277 347 425
#     4  11  21  39  68  99 135 189 231 283 359 424
#     4  10  23  43  66 103 140 183 233 296 364 429
#     4  12  27  48  73 105 147 188 245 307 364 436
#     4  11  25  47  72 101 134 190 237 297 374 431
#
# _framework density 21.222301999999999
#
# number of rings (size 3 to 8) (size 9 to 14) (size 15 to 20)
#    0.000    1.333    6.667    1.000    0.000    4.000 
#    6.000    5.000    0.000    0.000    0.000    0.000 
#    0.000    0.000    0.000    0.000    0.000    0.000 
#
# Total GULP energy -133898.700106 kJ/mol
# GULP energy per Si atom -5579.112504 kJ/mol
# Density = 2.117400 g / cm^3
# Si number density = 21.222302 Si / 1000 Ang^3
#
#
#
# Elastic Constant Matrix: (Units=GPa)
#
#
# Indices 1 2 3 4 5 6 
#
# 1 99.6183 43.0989 22.9700 0.0000 0.0000 0.0000
# 2 43.0989 102.2286 31.5218 0.0000 0.0000 0.0000
# 3 22.9700 31.5218 106.6563 0.0000 0.0000 0.0000
# 4 0.0000 0.0000 0.0000 -5.0874 0.0000 0.0000
# 5 0.0000 0.0000 0.0000 0.0000 20.9613 0.0000
# 6 0.0000 0.0000 0.0000 0.0000 0.0000 13.2429
#
#
#
# Elastic Compliance Matrix: (Units=1/GPa)
#
#
# Indices 1 2 3 4 5 6 
#
# 1 0.012425 -0.004856 -0.001241 0.000000 0.000000 0.000000
# 2 -0.004856 0.012660 -0.002696 0.000000 0.000000 0.000000
# 3 -0.001241 -0.002696 0.010440 0.000000 0.000000 0.000000
# 4 0.000000 0.000000 0.000000 -0.196566 0.000000 0.000000
# 5 0.000000 0.000000 0.000000 0.000000 0.047707 0.000000
# 6 0.000000 0.000000 0.000000 0.000000 0.000000 0.075512
#
#
# Mechanical properties :
#
#
# Convention : Reuss Voigt Hill
#
# Bulk Modulus (GPa) = 55.74012 55.96496 55.85254
# Shear Modulus (GPa) = -350.73858 19.88420 -165.42719
#
# Velocity S-wave (km/s) = -12.86964 3.06428 -8.83849
# Velocity P-wave (km/s) = 13.94686 6.24082 8.81950
#
# Compressibility (1/GPa) = 0.01794040
#
# Stress axis : x y z
#
# Youngs Moduli (GPa) = 80.48134 78.98604 95.78605
#
# Poissons Ratio (x) = 0.38354 0.11886
# Poissons Ratio (y) = 0.39080 0.25824
# Poissons Ratio (z) = 0.09986 0.21295
#
# Static dielectric constant tensor:
#      x y z
#    x 1.815660 0.000000 0.000000 
#    y 0.000000 1.818350 0.000000 
#    z 0.000000 0.000000 1.731140 
# 
# From -- ./inp_files/29367.got.cif
#   From: 2010.05.17/outbox.cif.g08.bks.cpg/sg21_15_cif.got.tgz:29367.got - 2010.06.03 23:14:55.
