data_PCOD9322393
_publ_section_title
;
Structure prediction by ZEFSAII (Michael W. Deem and Ramdas Pophale) SiO2 
 PCOD9322393
Probable space group: C 2 2 2
;
_chemical_formula_sum "Si O2"
_cell_formula_units_Z 58
_cell_length_a 11.263686
_cell_length_b 27.980997
_cell_length_c 9.351861
_cell_angle_alpha 90.000000
_cell_angle_beta 90.000000
_cell_angle_gamma 90.000000
_cell_volume 2947.418215
_symmetry_space_group_name_H-M "C 2 2 2"
_symmetry_group_IT_number 21
_symmetry_cell_setting 'orthorhombic'
loop_
_space_group_symop_operation_xyz
x,y,z
-x,-y,z
x,-y,-z
-x,y,-z
1/2+x,1/2+y,z
1/2-x,1/2-y,z
1/2+x,1/2-y,-z
1/2-x,1/2+y,-z
loop_
_atom_site_type_symbol
_atom_site_label
_atom_site_fract_x
_atom_site_fract_y
_atom_site_fract_z
Si Si1 0.764168 0.646798 0.361383
Si Si2 0.000000 0.000000 0.500000
Si Si3 0.506585 0.809631 0.674718
Si Si4 0.150391 0.949712 0.735723
Si Si5 0.366049 0.986261 0.330656
Si Si6 0.712864 0.879327 0.694100
Si Si7 0.539980 0.384536 0.155012
Si Si8 0.547534 0.704545 0.338782
O O1 0.893571 0.657091 0.300366
O O2 0.714142 0.600870 0.281630
O O3 0.752777 0.633590 0.529754
O O4 0.687630 0.694647 0.340628
O O5 0.914783 0.967108 0.407137
O O6 0.500000 0.807046 0.500000
O O7 0.624067 0.835819 0.730459
O O8 0.490133 0.755344 0.725850
O O9 0.034387 0.934317 0.828367
O O10 0.257733 0.987744 0.754926
O O11 0.354177 0.929573 0.317158
O O12 0.500000 0.000000 0.286914
O O13 0.353315 0.000000 0.500000
O O14 0.821729 0.888471 0.802627
O O15 0.501875 0.342427 0.262505
O O16 0.500000 0.367119 0.000000
O O17 0.500000 0.703687 0.500000
#
# Coordination Sequence:
#
# PCOD9322393 Si02
#       8
#     8   2   8   8   8   8   8   8
#     4  10  17  31  56  89 123 159 198 264 316 374
#     4  12  20  32  56  96 116 160 202 258 308 380
#     4   9  20  31  56  92 126 157 204 263 328 377
#     4  11  20  34  57  84 125 155 206 246 312 369
#     4  11  21  33  58  95 131 159 201 253 323 393
#     4  11  20  36  57  89 130 167 203 261 323 382
#     4  11  25  41  62  87 127 168 213 268 321 380
#     4  10  19  35  61  91 120 160 209 264 324 384
#
# _framework density 19.678239000000001
#
# number of rings (size 3 to 8) (size 9 to 14) (size 15 to 20)
#    0.000    1.517    3.448    2.897    5.793    0.552 
#    0.000    3.103   12.138    4.966    0.000    0.000 
#    0.000    0.000    0.000    0.000    0.000    0.000 
#
# Total GULP energy -161462.697447 kJ/mol
# GULP energy per Si atom -5567.679222 kJ/mol
# Density = 1.963345 g / cm^3
# Si number density = 19.678239 Si / 1000 Ang^3
#
#
#
# Elastic Constant Matrix: (Units=GPa)
#
#
# Indices 1 2 3 4 5 6 
#
# 1 108.5397 29.8272 7.8129 0.0000 0.0000 0.0000
# 2 29.8272 116.1244 2.4767 0.0000 0.0000 0.0000
# 3 7.8129 2.4767 25.8110 0.0000 0.0000 0.0000
# 4 0.0000 0.0000 0.0000 -3.1020 0.0000 0.0000
# 5 0.0000 0.0000 0.0000 0.0000 11.8123 0.0000
# 6 0.0000 0.0000 0.0000 0.0000 0.0000 99.9026
#
#
#
# Elastic Compliance Matrix: (Units=1/GPa)
#
#
# Indices 1 2 3 4 5 6 
#
# 1 0.010113 -0.002538 -0.002818 0.000000 0.000000 0.000000
# 2 -0.002538 0.009266 -0.000121 0.000000 0.000000 0.000000
# 3 -0.002818 -0.000121 0.039608 0.000000 0.000000 0.000000
# 4 0.000000 0.000000 0.000000 -0.322372 0.000000 0.000000
# 5 0.000000 0.000000 0.000000 0.000000 0.084658 0.000000
# 6 0.000000 0.000000 0.000000 0.000000 0.000000 0.010010
#
#
# Mechanical properties :
#
#
# Convention : Reuss Voigt Hill
#
# Bulk Modulus (GPa) = 20.81852 36.74541 28.78196
# Shear Modulus (GPa) = -35.27258 35.74646 0.23694
#
# Velocity S-wave (km/s) = -4.23835 4.26672 0.34737
# Velocity P-wave (km/s) = 3.65363 6.55644 3.84954
#
# Compressibility (1/GPa) = 0.04803415
#
# Stress axis : x y z
#
# Youngs Moduli (GPa) = 98.87881 107.92348 25.24764
#
# Poissons Ratio (x) = 0.27386 0.07114
# Poissons Ratio (y) = 0.25091 0.00305
# Poissons Ratio (z) = 0.27862 0.01306
#
# Static dielectric constant tensor:
#      x y z
#    x 1.791900 0.000000 0.000000 
#    y 0.000000 1.686840 0.000000 
#    z 0.000000 0.000000 1.642960 
# 
# From -- ./inp_files/13540.got.cif
#   From: 2010.05.17/outbox.cif.g08.bks.cpg/sg21_7_cif.got.tgz:13540.got - 2010.06.03 23:14:55.
