data_PCOD9322971
_publ_section_title
;
Structure prediction by ZEFSAII (Michael W. Deem and Ramdas Pophale) SiO2 
 PCOD9322971
Probable space group: C 2 2 2
;
_chemical_formula_sum "Si O2"
_cell_formula_units_Z 48
_cell_length_a 16.802616
_cell_length_b 8.621004
_cell_length_c 14.904863
_cell_angle_alpha 90.000000
_cell_angle_beta 90.000000
_cell_angle_gamma 90.000000
_cell_volume 2159.050186
_symmetry_space_group_name_H-M "C 2 2 2"
_symmetry_group_IT_number 21
_symmetry_cell_setting 'orthorhombic'
loop_
_space_group_symop_operation_xyz
x,y,z
-x,-y,z
x,-y,-z
-x,y,-z
1/2+x,1/2+y,z
1/2-x,1/2-y,z
1/2+x,1/2-y,-z
1/2-x,1/2+y,-z
loop_
_atom_site_type_symbol
_atom_site_label
_atom_site_fract_x
_atom_site_fract_y
_atom_site_fract_z
Si Si1 0.962824 0.831516 0.695103
Si Si2 0.087141 0.782905 0.959590
Si Si3 0.424624 0.899687 0.785128
Si Si4 0.318327 0.621749 0.420504
Si Si5 0.742684 0.061737 0.744726
Si Si6 0.137756 0.095702 0.870091
O O1 0.899954 0.800153 0.615818
O O2 0.912918 0.834732 0.788487
O O3 0.037860 0.721907 0.714884
O O4 0.000000 0.000000 0.679667
O O5 0.107077 0.670358 0.878235
O O6 0.089380 0.949787 0.910602
O O7 0.144655 0.789859 0.045600
O O8 0.000000 0.750951 0.000000
O O9 0.349831 0.980833 0.740564
O O10 0.500000 0.000000 0.810050
O O11 0.332783 0.500000 0.500000
O O12 0.250000 0.750000 0.440708
O O13 0.287347 0.514292 0.338762
O O14 0.750000 0.250000 0.746466
O O15 0.782925 0.979550 0.830252
#
# Coordination Sequence:
#
# PCOD9322971 Si02
#       6
#     8   8   8   8   8   8
#     4  11  20  41  69  95 125 173 224 259 322 416
#     4  11  19  35  63  89 129 180 230 272 317 378
#     4  12  24  39  63 100 137 174 216 288 350 379
#     4  11  25  45  71  99 131 172 215 270 337 414
#     4  11  22  43  69  98 134 174 222 276 342 401
#     4  10  19  36  66  87 119 181 232 261 304 389
#
# _framework density 22.231998000000001
#
# number of rings (size 3 to 8) (size 9 to 14) (size 15 to 20)
#    0.000    1.000    5.000    3.500    0.000    0.667 
#    0.000    5.000   11.000    3.500    0.000    0.000 
#    0.000    0.000    0.000    0.000    0.000    0.000 
#
# Total GULP energy -134136.428283 kJ/mol
# GULP energy per Si atom -5589.017845 kJ/mol
# Density = 2.218140 g / cm^3
# Si number density = 22.231998 Si / 1000 Ang^3
#
#
#
# Elastic Constant Matrix: (Units=GPa)
#
#
# Indices 1 2 3 4 5 6 
#
# 1 106.8174 9.9179 28.0068 0.0000 0.0000 0.0000
# 2 9.9179 40.5841 11.8500 0.0000 0.0000 0.0000
# 3 28.0068 11.8500 97.6773 0.0000 0.0000 0.0000
# 4 0.0000 0.0000 0.0000 12.6785 0.0000 0.0000
# 5 0.0000 0.0000 0.0000 0.0000 16.8060 0.0000
# 6 0.0000 0.0000 0.0000 0.0000 0.0000 26.0905
#
#
#
# Elastic Compliance Matrix: (Units=1/GPa)
#
#
# Indices 1 2 3 4 5 6 
#
# 1 0.010235 -0.001705 -0.002728 0.000000 0.000000 0.000000
# 2 -0.001705 0.025829 -0.002645 0.000000 0.000000 0.000000
# 3 -0.002728 -0.002645 0.011341 0.000000 0.000000 0.000000
# 4 0.000000 0.000000 0.000000 0.078873 0.000000 0.000000
# 5 0.000000 0.000000 0.000000 0.000000 0.059503 0.000000
# 6 0.000000 0.000000 0.000000 0.000000 0.000000 0.038328
#
#
# Mechanical properties :
#
#
# Convention : Reuss Voigt Hill
#
# Bulk Modulus (GPa) = 30.07493 38.29204 34.18348
# Shear Modulus (GPa) = 20.05232 24.13527 22.09380
#
# Velocity S-wave (km/s) = 3.00652 3.29843 3.15585
# Velocity P-wave (km/s) = 5.06057 5.63626 5.35616
#
# Compressibility (1/GPa) = 0.03325029
#
# Stress axis : x y z
#
# Youngs Moduli (GPa) = 97.70111 38.71615 88.17711
#
# Poissons Ratio (x) = 0.06600 0.24054
# Poissons Ratio (y) = 0.16656 0.23320
# Poissons Ratio (z) = 0.26652 0.10239
#
# Static dielectric constant tensor:
#      x y z
#    x 1.828670 0.000000 0.000000 
#    y 0.000000 1.912340 0.000000 
#    z 0.000000 0.000000 1.816700 
# 
# From -- ./inp_files/32813.got.cif
#   From: 2010.05.17/outbox.cif.g08.bks.cpg/sg21_17_cif.got.tgz:32813.got - 2010.06.03 23:14:55.
