data_PCOD9322247
_publ_section_title
;
Structure prediction by ZEFSAII (Michael W. Deem and Ramdas Pophale) SiO2 
 PCOD9322247
Probable space group: C 2 2 21
;
_chemical_formula_sum "Si O2"
_cell_formula_units_Z 28
_cell_length_a 15.000000
_cell_length_b 9.000000
_cell_length_c 21.000000
_cell_angle_alpha 90.000000
_cell_angle_beta 90.000000
_cell_angle_gamma 90.000000
_cell_volume 2835.000000
_symmetry_space_group_name_H-M "C 2 2 21"
_symmetry_group_IT_number 20
_symmetry_cell_setting 'orthorhombic'
loop_
_space_group_symop_operation_xyz
x,y,z
-x,-y,1/2+z
x,-y,-z
-x,y,1/2-z
1/2+x,1/2+y,z
1/2-x,1/2-y,1/2+z
1/2+x,1/2-y,-z
1/2-x,1/2+y,1/2-z
loop_
_atom_site_type_symbol
_atom_site_label
_atom_site_fract_x
_atom_site_fract_y
_atom_site_fract_z
Si Si1 0.259237 0.163761 0.117506
Si Si2 0.000000 0.384738 0.250000
Si Si3 0.060507 0.836220 0.862637
Si Si4 0.594320 0.400051 0.232167
Si Si5 0.693156 0.487992 0.352606
Si Si6 0.656118 0.000000 0.500000
Si Si7 0.102153 0.843557 0.541936
Si Si8 0.829290 0.586426 0.253301
O O1 0.156497 0.206918 0.109561
O O2 0.312101 0.321680 0.118138
O O3 0.272723 0.095191 0.188132
O O4 0.290635 0.049175 0.063499
O O5 0.974110 0.279650 0.309426
O O6 0.916875 0.492899 0.236462
O O7 0.989509 0.847048 0.918624
O O8 0.079116 0.993208 0.827256
O O9 0.500000 0.329509 0.250000
O O10 0.622809 0.495367 0.294192
O O11 0.657898 0.258507 0.226296
O O12 0.677032 0.614238 0.404837
O O13 0.783538 0.506874 0.312975
O O14 0.613101 0.169697 0.516302
O O15 0.102396 0.000000 0.500000
#
# Coordination Sequence:
#
# PCOD9322247 Si02
#       8
#     8   4   8   8   8   4   8   8
#     4  11  25  43  69 103 142 181 237 285 350 417
#     4  12  22  40  64 100 142 172 216 278 354 414
#     4  12  24  41  67 101 135 176 224 288 346 413
#     4  11  21  38  64 103 139 169 213 276 353 412
#     4  11  22  44  69 102 141 177 226 291 356 410
#     4  12  28  50  70  98 136 200 240 284 342 424
#     4  12  27  49  71  96 138 188 233 290 344 416
#     4  11  24  39  68 107 141 177 220 289 357 422
#
# _framework density 9.8765429999999999
#
# number of rings (size 3 to 8) (size 9 to 14) (size 15 to 20)
#    0.000    0.571    7.143    0.857    3.000    0.000 
#    2.571    1.429    0.000    0.000    0.000    0.000 
#    0.000    0.000    0.000    0.000    0.000    0.000 
#
# Total GULP energy -156003.098570 kJ/mol
# GULP energy per Si atom -5571.539235 kJ/mol
# Density = 0.985406 g / cm^3
# Si number density = 9.876543 Si / 1000 Ang^3
#
#
#
# Elastic Constant Matrix: (Units=GPa)
#
#
# Indices 1 2 3 4 5 6 
#
# 1 85.6529 24.0529 36.9926 0.0000 0.0000 0.0000
# 2 24.0529 129.0222 54.0788 0.0000 0.0000 0.0000
# 3 36.9926 54.0788 91.8001 0.0000 0.0000 0.0000
# 4 0.0000 0.0000 0.0000 41.1808 0.0000 0.0000
# 5 0.0000 0.0000 0.0000 0.0000 30.8855 0.0000
# 6 0.0000 0.0000 0.0000 0.0000 0.0000 27.8912
#
#
#
# Elastic Compliance Matrix: (Units=1/GPa)
#
#
# Indices 1 2 3 4 5 6 
#
# 1 0.014146 -0.000329 -0.005506 0.000000 0.000000 0.000000
# 2 -0.000329 0.010299 -0.005935 0.000000 0.000000 0.000000
# 3 -0.005506 -0.005935 0.016608 0.000000 0.000000 0.000000
# 4 0.000000 0.000000 0.000000 0.024283 0.000000 0.000000
# 5 0.000000 0.000000 0.000000 0.000000 0.032378 0.000000
# 6 0.000000 0.000000 0.000000 0.000000 0.000000 0.035854
#
#
# Mechanical properties :
#
#
# Convention : Reuss Voigt Hill
#
# Bulk Modulus (GPa) = 57.10084 59.63601 58.36842
# Shear Modulus (GPa) = 30.68505 32.74821 31.71663
#
# Velocity S-wave (km/s) = 3.94563 4.07612 4.01141
# Velocity P-wave (km/s) = 7.05177 7.23943 7.14621
#
# Compressibility (1/GPa) = 0.01751288
#
# Stress axis : x y z
#
# Youngs Moduli (GPa) = 70.69343 97.09252 60.21116
#
# Poissons Ratio (x) = 0.03196 0.33154
# Poissons Ratio (y) = 0.02327 0.35734
# Poissons Ratio (z) = 0.38926 0.57622
#
# Static dielectric constant tensor:
#      x y z
#    x 1.775810 0.000000 0.000000 
#    y 0.000000 1.699430 0.000000 
#    z 0.000000 0.000000 1.694260 
# 
# From -- ./inp_files/27614.got.cif
#   From: 2010.05.17/outbox.ucp.g08.bks.cvg/sg20_14_cif.got.tgz:27614.got - 2010.06.11 15:13:06.
