data_PCOD9322321
_publ_section_title
;
Structure prediction by ZEFSAII (Michael W. Deem and Ramdas Pophale) SiO2 
 PCOD9322321
Probable space group: C 2 2 2
;
_chemical_formula_sum "Si O2"
_cell_formula_units_Z 56
_cell_length_a 5.309268
_cell_length_b 14.617950
_cell_length_c 33.178717
_cell_angle_alpha 90.000000
_cell_angle_beta 90.000000
_cell_angle_gamma 90.000000
_cell_volume 2575.020603
_symmetry_space_group_name_H-M "C 2 2 2"
_symmetry_group_IT_number 21
_symmetry_cell_setting 'orthorhombic'
loop_
_space_group_symop_operation_xyz
x,y,z
-x,-y,z
x,-y,-z
-x,y,-z
1/2+x,1/2+y,z
1/2-x,1/2-y,z
1/2+x,1/2-y,-z
1/2-x,1/2+y,-z
loop_
_atom_site_type_symbol
_atom_site_label
_atom_site_fract_x
_atom_site_fract_y
_atom_site_fract_z
Si Si1 0.998116 0.611951 0.953686
Si Si2 0.748173 0.060444 0.608822
Si Si3 0.501350 0.689459 0.818683
Si Si4 0.725241 0.361245 0.261584
Si Si5 0.005943 0.889954 0.906633
Si Si6 0.752648 0.105651 0.517679
Si Si7 0.733450 0.859041 0.304474
O O1 0.753889 0.640197 0.927885
O O2 0.000000 0.500000 0.954369
O O3 0.254153 0.641052 0.932192
O O4 0.000000 0.642756 0.000000
O O5 0.500000 0.000000 0.604396
O O6 0.769499 0.108866 0.565708
O O7 0.700255 0.119442 0.648695
O O8 0.000000 0.000000 0.614116
O O9 0.750000 0.750000 0.826064
O O10 0.600703 0.624252 0.782506
O O11 0.453602 0.640414 0.860795
O O12 0.250000 0.750000 0.807591
O O13 0.750000 0.250000 0.263185
O O14 0.507734 0.393953 0.291438
O O15 0.000509 0.392971 0.276539
O O16 0.000000 0.000000 0.907238
O O17 0.500000 0.145654 0.500000
O O18 0.000000 0.149196 0.500000
O O19 0.752966 0.000000 0.500000
O O20 0.750000 0.750000 0.299047
#
# Coordination Sequence:
#
# PCOD9322321 Si02
#       7
#     8   8   8   8   8   8   8
#     4   9  17  31  53  78 107 146 188 223 259 325
#     4  12  21  33  55  84 109 137 180 224 262 313
#     4  11  21  36  60  83 104 140 187 227 263 327
#     4   9  18  36  58  77  99 142 186 213 255 329
#     4  10  20  34  54  83 112 138 179 230 283 318
#     4  10  16  30  49  75 100 139 178 212 245 306
#     4  10  21  37  56  77 107 140 176 220 269 318
#
# _framework density 21.747399999999999
#
# number of rings (size 3 to 8) (size 9 to 14) (size 15 to 20)
#    0.000    1.857    2.857    4.286    0.000    1.714 
#    0.000    2.143    0.000    9.429    0.000    0.000 
#    0.000    0.000    0.000    0.000    0.000    0.000 
#
# Total GULP energy -156273.071048 kJ/mol
# GULP energy per Si atom -5581.181109 kJ/mol
# Density = 2.169790 g / cm^3
# Si number density = 21.747400 Si / 1000 Ang^3
#
#
#
# Elastic Constant Matrix: (Units=GPa)
#
#
# Indices 1 2 3 4 5 6 
#
# 1 204.7792 15.7660 69.2242 0.0000 0.0000 0.0000
# 2 15.7660 53.4326 13.8634 0.0000 0.0000 0.0000
# 3 69.2242 13.8634 195.9104 0.0000 0.0000 0.0000
# 4 0.0000 0.0000 0.0000 30.3155 0.0000 0.0000
# 5 0.0000 0.0000 0.0000 0.0000 47.6446 0.0000
# 6 0.0000 0.0000 0.0000 0.0000 0.0000 -20.4175
#
#
#
# Elastic Compliance Matrix: (Units=1/GPa)
#
#
# Indices 1 2 3 4 5 6 
#
# 1 0.005616 -0.001164 -0.001902 0.000000 0.000000 0.000000
# 2 -0.001164 0.019306 -0.000955 0.000000 0.000000 0.000000
# 3 -0.001902 -0.000955 0.005844 0.000000 0.000000 0.000000
# 4 0.000000 0.000000 0.000000 0.032986 0.000000 0.000000
# 5 0.000000 0.000000 0.000000 0.000000 0.020989 0.000000
# 6 0.000000 0.000000 0.000000 0.000000 0.000000 -0.048978
#
#
# Mechanical properties :
#
#
# Convention : Reuss Voigt Hill
#
# Bulk Modulus (GPa) = 44.00449 72.42549 58.21499
# Shear Modulus (GPa) = 97.31440 35.19310 66.25375
#
# Velocity S-wave (km/s) = 6.69662 4.02713 5.52551
# Velocity P-wave (km/s) = 8.94826 7.41614 8.21798
#
# Compressibility (1/GPa) = 0.02272495
#
# Stress axis : x y z
#
# Youngs Moduli (GPa) = 178.06740 51.79661 171.11498
#
# Poissons Ratio (x) = 0.06027 0.32546
# Poissons Ratio (y) = 0.20719 0.16342
# Poissons Ratio (z) = 0.33868 0.04947
#
# Static dielectric constant tensor:
#      x y z
#    x 1.787550 0.000000 0.000000 
#    y 0.000000 1.791730 0.000000 
#    z 0.000000 0.000000 1.859210 
# 
# From -- ./inp_files/39490.got.cif
#   From: 2010.05.17/outbox.cif.g08.bks.cpg/sg21_20_cif.got.tgz:39490.got - 2010.06.03 23:14:55.
