data_PCOD9322996
_publ_section_title
;
Structure prediction by ZEFSAII (Michael W. Deem and Ramdas Pophale) SiO2 
 PCOD9322996
Probable space group: C 2 2 2
;
_chemical_formula_sum "Si O2"
_cell_formula_units_Z 48
_cell_length_a 29.498787
_cell_length_b 8.388631
_cell_length_c 8.763867
_cell_angle_alpha 90.000000
_cell_angle_beta 90.000000
_cell_angle_gamma 90.000000
_cell_volume 2168.657793
_symmetry_space_group_name_H-M "C 2 2 2"
_symmetry_group_IT_number 21
_symmetry_cell_setting 'orthorhombic'
loop_
_space_group_symop_operation_xyz
x,y,z
-x,-y,z
x,-y,-z
-x,y,-z
1/2+x,1/2+y,z
1/2-x,1/2-y,z
1/2+x,1/2-y,-z
1/2-x,1/2+y,-z
loop_
_atom_site_type_symbol
_atom_site_label
_atom_site_fract_x
_atom_site_fract_y
_atom_site_fract_z
Si Si1 0.375129 0.672529 0.455778
Si Si2 0.155769 0.364024 0.814114
Si Si3 0.977067 0.170820 0.340650
Si Si4 0.207192 0.827848 0.938580
Si Si5 0.622408 0.774561 0.212263
Si Si6 0.941432 0.316543 0.038752
O O1 0.355690 0.500000 0.500000
O O2 0.343517 0.781378 0.350230
O O3 0.424142 0.645153 0.379422
O O4 0.385820 0.764547 0.610446
O O5 0.194202 0.291302 0.921942
O O6 0.146950 0.553530 0.815287
O O7 0.108108 0.306629 0.884527
O O8 0.975290 0.256114 0.171829
O O9 0.000000 0.240949 0.500000
O O10 0.000000 0.000000 0.320612
O O11 0.250000 0.750000 0.854545
O O12 0.161357 0.846414 0.840839
O O13 0.219469 0.000000 0.000000
O O14 0.575060 0.743968 0.123944
O O15 0.951190 0.500000 0.000000
#
# Coordination Sequence:
#
# PCOD9322996 Si02
#       6
#     8   8   8   8   8   8
#     4  11  20  35  61  89 125 160 212 261 320 399
#     4   9  19  36  60  89 121 164 210 257 312 381
#     4  10  19  37  61  92 124 163 209 269 344 387
#     4  11  21  37  61  92 130 166 206 262 320 379
#     4  10  20  37  60  92 122 164 218 263 320 383
#     4   8  17  35  62  89 118 156 214 262 314 391
#
# _framework density 22.133505
#
# number of rings (size 3 to 8) (size 9 to 14) (size 15 to 20)
#    0.000    2.167    1.667    4.000    0.000    0.000 
#    0.000    2.500    0.000   23.000    0.000    0.000 
#    0.000    0.000    0.000    0.000    0.000    0.000 
#
# Total GULP energy -133694.202995 kJ/mol
# GULP energy per Si atom -5570.591791 kJ/mol
# Density = 2.208313 g / cm^3
# Si number density = 22.133505 Si / 1000 Ang^3
#
#
#
# Elastic Constant Matrix: (Units=GPa)
#
#
# Indices 1 2 3 4 5 6 
#
# 1 91.6027 16.4485 14.2965 0.0000 0.0000 0.0000
# 2 16.4485 65.1615 33.9896 0.0000 0.0000 0.0000
# 3 14.2965 33.9896 143.1885 0.0000 0.0000 0.0000
# 4 0.0000 0.0000 0.0000 28.4067 0.0000 0.0000
# 5 0.0000 0.0000 0.0000 0.0000 15.1872 0.0000
# 6 0.0000 0.0000 0.0000 0.0000 0.0000 24.9284
#
#
#
# Elastic Compliance Matrix: (Units=1/GPa)
#
#
# Indices 1 2 3 4 5 6 
#
# 1 0.011469 -0.002623 -0.000523 0.000000 0.000000 0.000000
# 2 -0.002623 0.018115 -0.004038 0.000000 0.000000 0.000000
# 3 -0.000523 -0.004038 0.007995 0.000000 0.000000 0.000000
# 4 0.000000 0.000000 0.000000 0.035203 0.000000 0.000000
# 5 0.000000 0.000000 0.000000 0.000000 0.065845 0.000000
# 6 0.000000 0.000000 0.000000 0.000000 0.000000 0.040115
#
#
# Mechanical properties :
#
#
# Convention : Reuss Voigt Hill
#
# Bulk Modulus (GPa) = 43.08125 47.71353 45.39739
# Shear Modulus (GPa) = 24.89478 29.38568 27.14023
#
# Velocity S-wave (km/s) = 3.35738 3.64765 3.50552
# Velocity P-wave (km/s) = 5.87672 6.27252 6.07784
#
# Compressibility (1/GPa) = 0.02321196
#
# Stress axis : x y z
#
# Youngs Moduli (GPa) = 87.19014 55.20324 125.08512
#
# Poissons Ratio (x) = 0.14477 0.06537
# Poissons Ratio (y) = 0.22866 0.50512
# Poissons Ratio (z) = 0.04557 0.22292
#
# Static dielectric constant tensor:
#      x y z
#    x 1.822570 0.000000 0.000000 
#    y 0.000000 1.816370 0.000000 
#    z 0.000000 0.000000 1.941460 
# 
# From -- ./inp_files/19670.got.cif
#   From: 2010.05.17/outbox.cif.g08.bks.cpg/sg21_10_cif.got.tgz:19670.got - 2010.06.03 23:14:55.
