data_PCOD9322844
_publ_section_title
;
Structure prediction by ZEFSAII (Michael W. Deem and Ramdas Pophale) SiO2 
 PCOD9322844
Probable space group: C 2 2 2
;
_chemical_formula_sum "Si O2"
_cell_formula_units_Z 46
_cell_length_a 7.551332
_cell_length_b 19.234793
_cell_length_c 13.422597
_cell_angle_alpha 90.000000
_cell_angle_beta 90.000000
_cell_angle_gamma 90.000000
_cell_volume 1949.609502
_symmetry_space_group_name_H-M "C 2 2 2"
_symmetry_group_IT_number 21
_symmetry_cell_setting 'orthorhombic'
loop_
_space_group_symop_operation_xyz
x,y,z
-x,-y,z
x,-y,-z
-x,y,-z
1/2+x,1/2+y,z
1/2-x,1/2-y,z
1/2+x,1/2-y,-z
1/2-x,1/2+y,-z
loop_
_atom_site_type_symbol
_atom_site_label
_atom_site_fract_x
_atom_site_fract_y
_atom_site_fract_z
Si Si1 0.848582 0.677803 0.403884
Si Si2 0.500000 0.500000 0.000000
Si Si3 0.637020 0.556626 0.321476
Si Si4 0.416798 0.674195 0.222857
Si Si5 0.250000 0.750000 0.404587
Si Si6 0.673221 0.045074 0.867987
Si Si7 0.517407 0.176805 0.189494
O O1 0.750000 0.750000 0.370110
O O2 0.728556 0.607958 0.399791
O O3 0.849970 0.696907 0.522730
O O4 0.973808 0.664767 0.307356
O O5 0.353717 0.461993 0.069092
O O6 0.500000 0.500000 0.361285
O O7 0.532474 0.608324 0.246280
O O8 0.778428 0.522957 0.245970
O O9 0.371533 0.705039 0.332991
O O10 0.502901 0.740910 0.169330
O O11 0.225326 0.659561 0.175201
O O12 0.606667 0.124538 0.868502
O O13 0.500000 0.000000 0.896308
#
# Coordination Sequence:
#
# PCOD9322844 Si02
#       7
#     8   2   8   8   4   8   8
#     4   9  17  32  52  83 134 188 239 291 339 390
#     4  12  26  48  76 110 128 174 218 286 384 434
#     4  11  21  36  61  97 134 178 239 288 348 421
#     4  10  19  34  59 100 131 193 242 281 342 397
#     4   8  18  32  56  86 142 182 254 292 326 404
#     4  11  24  44  69 103 135 170 224 285 347 445
#     4   9  19  33  60  93 131 175 233 283 325 410
#
# _framework density 23.594467999999999
#
# number of rings (size 3 to 8) (size 9 to 14) (size 15 to 20)
#    0.522    1.739    2.609    1.304    0.000    6.261 
#    0.000    1.739    0.000    0.000   18.087    9.739 
#    0.000    0.000    0.000    0.000    0.000    0.000 
#
# Total GULP energy -128071.539128 kJ/mol
# GULP energy per Si atom -5568.327788 kJ/mol
# Density = 2.354077 g / cm^3
# Si number density = 23.594468 Si / 1000 Ang^3
#
#
#
# Elastic Constant Matrix: (Units=GPa)
#
#
# Indices 1 2 3 4 5 6 
#
# 1 51.4421 9.7385 8.4479 0.0000 0.0000 0.0000
# 2 9.7385 74.8454 16.4196 0.0000 0.0000 0.0000
# 3 8.4479 16.4196 60.1475 0.0000 0.0000 0.0000
# 4 0.0000 0.0000 0.0000 34.5756 0.0000 0.0000
# 5 0.0000 0.0000 0.0000 0.0000 48.7135 0.0000
# 6 0.0000 0.0000 0.0000 0.0000 0.0000 53.1825
#
#
#
# Elastic Compliance Matrix: (Units=1/GPa)
#
#
# Indices 1 2 3 4 5 6 
#
# 1 0.020214 -0.002135 -0.002256 0.000000 0.000000 0.000000
# 2 -0.002135 0.014438 -0.003641 0.000000 0.000000 0.000000
# 3 -0.002256 -0.003641 0.017937 0.000000 0.000000 0.000000
# 4 0.000000 0.000000 0.000000 0.028922 0.000000 0.000000
# 5 0.000000 0.000000 0.000000 0.000000 0.020528 0.000000
# 6 0.000000 0.000000 0.000000 0.000000 0.000000 0.018803
#
#
# Mechanical properties :
#
#
# Convention : Reuss Voigt Hill
#
# Bulk Modulus (GPa) = 27.38022 28.40522 27.89272
# Shear Modulus (GPa) = 33.53866 37.41626 35.47746
#
# Velocity S-wave (km/s) = 3.77432 3.98654 3.88188
# Velocity P-wave (km/s) = 5.53387 5.76672 5.65149
#
# Compressibility (1/GPa) = 0.03652272
#
# Stress axis : x y z
#
# Youngs Moduli (GPa) = 49.47056 69.26381 55.75146
#
# Poissons Ratio (x) = 0.14789 0.12579
# Poissons Ratio (y) = 0.10563 0.20301
# Poissons Ratio (z) = 0.11162 0.25222
#
# Static dielectric constant tensor:
#      x y z
#    x 2.286830 0.000000 0.000000 
#    y 0.000000 1.890320 0.000000 
#    z 0.000000 0.000000 1.939130 
# 
# From -- ./inp_files/30660.got.cif
#   From: 2010.05.17/outbox.cif.g08.bks.cpg/sg21_16_cif.got.tgz:30660.got - 2010.06.03 23:14:55.
