data_PCOD9322406
_publ_section_title
;
Structure prediction by ZEFSAII (Michael W. Deem and Ramdas Pophale) SiO2 
 PCOD9322406
Probable space group: C 2 2 2
;
_chemical_formula_sum "Si O2"
_cell_formula_units_Z 26
_cell_length_a 7.944809
_cell_length_b 16.946069
_cell_length_c 7.760070
_cell_angle_alpha 90.000000
_cell_angle_beta 90.000000
_cell_angle_gamma 90.000000
_cell_volume 1044.763689
_symmetry_space_group_name_H-M "C 2 2 2"
_symmetry_group_IT_number 21
_symmetry_cell_setting 'orthorhombic'
loop_
_space_group_symop_operation_xyz
x,y,z
-x,-y,z
x,-y,-z
-x,y,-z
1/2+x,1/2+y,z
1/2-x,1/2-y,z
1/2+x,1/2-y,-z
1/2-x,1/2+y,-z
loop_
_atom_site_type_symbol
_atom_site_label
_atom_site_fract_x
_atom_site_fract_y
_atom_site_fract_z
Si Si1 0.262507 0.913114 0.069816
Si Si2 0.058990 0.279832 0.805999
Si Si3 0.088310 0.869758 0.742586
Si Si4 0.500000 0.500000 0.500000
O O1 0.407737 0.873615 0.184972
O O2 0.085786 0.904083 0.172021
O O3 0.228502 0.867021 0.890227
O O4 0.291409 0.000000 0.000000
O O5 0.250000 0.250000 0.780786
O O6 0.948170 0.220817 0.690567
O O7 0.000000 0.259221 0.000000
O O8 0.117936 0.937159 0.601803
#
# Coordination Sequence:
#
# PCOD9322406 Si02
#       4
#     8   8   8   2
#     4  10  17  33  58  80 111 144 204 250 277 334
#     4  10  18  32  58  83 115 141 191 256 289 327
#     4  10  18  32  54  86 111 153 194 244 286 344
#     4  12  20  30  60  84 126 156 204 232 286 366
#
# _framework density 24.886009999999999
#
# number of rings (size 3 to 8) (size 9 to 14) (size 15 to 20)
#    0.000    1.846    9.231    0.923    0.000    0.615 
#    0.000    0.000   20.308    0.000    0.000    8.615 
#    0.000    0.000    0.000    0.000    0.000    0.000 
#
# Total GULP energy -72375.353491 kJ/mol
# GULP energy per Si atom -5567.334884 kJ/mol
# Density = 2.482937 g / cm^3
# Si number density = 24.886010 Si / 1000 Ang^3
#
#
#
# Elastic Constant Matrix: (Units=GPa)
#
#
# Indices 1 2 3 4 5 6 
#
# 1 95.5341 27.0693 0.1957 0.0000 0.0000 0.0000
# 2 27.0693 208.6100 16.7754 0.0000 0.0000 0.0000
# 3 0.1957 16.7754 55.9286 0.0000 0.0000 0.0000
# 4 0.0000 0.0000 0.0000 34.2774 0.0000 0.0000
# 5 0.0000 0.0000 0.0000 0.0000 8.6012 0.0000
# 6 0.0000 0.0000 0.0000 0.0000 0.0000 13.1083
#
#
#
# Elastic Compliance Matrix: (Units=1/GPa)
#
#
# Indices 1 2 3 4 5 6 
#
# 1 0.010876 -0.001443 0.000395 0.000000 0.000000 0.000000
# 2 -0.001443 0.005104 -0.001526 0.000000 0.000000 0.000000
# 3 0.000395 -0.001526 0.018336 0.000000 0.000000 0.000000
# 4 0.000000 0.000000 0.000000 0.029174 0.000000 0.000000
# 5 0.000000 0.000000 0.000000 0.000000 0.116263 0.000000
# 6 0.000000 0.000000 0.000000 0.000000 0.000000 0.076288
#
#
# Mechanical properties :
#
#
# Convention : Reuss Voigt Hill
#
# Bulk Modulus (GPa) = 34.28486 49.79483 42.03985
# Shear Modulus (GPa) = 18.45630 32.26621 25.36126
#
# Velocity S-wave (km/s) = 2.72625 3.60468 3.19579
# Velocity P-wave (km/s) = 4.86997 6.11372 5.52694
#
# Compressibility (1/GPa) = 0.02916739
#
# Stress axis : x y z
#
# Youngs Moduli (GPa) = 91.94969 195.94154 54.53700
#
# Poissons Ratio (x) = 0.28273 -0.02153
# Poissons Ratio (y) = 0.13268 0.08321
# Poissons Ratio (z) = -0.03630 0.29895
#
# Static dielectric constant tensor:
#      x y z
#    x 1.995500 0.000000 0.000000 
#    y 0.000000 2.120560 0.000000 
#    z 0.000000 0.000000 2.048940 
# 
# From -- ./inp_files/10035.got.cif
#   From: 2010.05.17/outbox.cif.g08.bks.cpg/sg21_6_cif.got.tgz:10035.got - 2010.06.03 23:14:55.
