data_PCOD9322458
_publ_section_title
;
Structure prediction by ZEFSAII (Michael W. Deem and Ramdas Pophale) SiO2 
 PCOD9322458
Probable space group: C 2 2 2
;
_chemical_formula_sum "Si O2"
_cell_formula_units_Z 32
_cell_length_a 34.877549
_cell_length_b 5.330240
_cell_length_c 7.246080
_cell_angle_alpha 90.000000
_cell_angle_beta 90.000000
_cell_angle_gamma 90.000000
_cell_volume 1347.087624
_symmetry_space_group_name_H-M "C 2 2 2"
_symmetry_group_IT_number 21
_symmetry_cell_setting 'orthorhombic'
loop_
_space_group_symop_operation_xyz
x,y,z
-x,-y,z
x,-y,-z
-x,y,-z
1/2+x,1/2+y,z
1/2-x,1/2-y,z
1/2+x,1/2-y,-z
1/2-x,1/2+y,-z
loop_
_atom_site_type_symbol
_atom_site_label
_atom_site_fract_x
_atom_site_fract_y
_atom_site_fract_z
Si Si1 0.295723 0.259538 0.788513
Si Si2 0.911652 0.504387 0.276375
Si Si3 0.171220 0.272209 0.205517
Si Si4 0.455802 0.494899 0.275768
O O1 0.250000 0.250000 0.795233
O O2 0.317708 0.502906 0.710956
O O3 0.306958 0.998521 0.698378
O O4 0.311849 0.247840 0.998475
O O5 0.908044 0.500000 0.500000
O O6 0.871920 0.623094 0.203401
O O7 0.941168 0.720984 0.222000
O O8 0.928028 0.229215 0.220353
O O9 0.500000 0.500000 0.217186
O O10 0.455442 0.500000 0.500000
#
# Coordination Sequence:
#
# PCOD9322458 Si02
#       4
#     8   8   8   8
#     4  10  19  33  53  75  93 123 171 216 248 281
#     4  10  19  30  47  74 103 130 159 198 251 303
#     4  10  18  30  49  74 100 123 156 210 255 289
#     4   9  17  30  47  68  97 132 168 201 234 283
#
# _framework density 23.754947999999999
#
# number of rings (size 3 to 8) (size 9 to 14) (size 15 to 20)
#    0.000    2.250    0.000    6.000    0.000    3.000 
#    0.000    0.000    0.000    4.500    0.000   52.500 
#    0.000    0.000    0.000    0.000    0.000    0.000 
#
# Total GULP energy -89209.601202 kJ/mol
# GULP energy per Si atom -5575.600075 kJ/mol
# Density = 2.370088 g / cm^3
# Si number density = 23.754948 Si / 1000 Ang^3
#
#
#
# Elastic Constant Matrix: (Units=GPa)
#
#
# Indices 1 2 3 4 5 6 
#
# 1 180.3429 52.3809 0.0936 0.0000 0.0000 0.0000
# 2 52.3809 227.1883 7.0814 0.0000 0.0000 0.0000
# 3 0.0936 7.0814 95.3035 0.0000 0.0000 0.0000
# 4 0.0000 0.0000 0.0000 -21.0014 0.0000 0.0000
# 5 0.0000 0.0000 0.0000 0.0000 -7.8002 0.0000
# 6 0.0000 0.0000 0.0000 0.0000 0.0000 3.9131
#
#
#
# Elastic Compliance Matrix: (Units=1/GPa)
#
#
# Indices 1 2 3 4 5 6 
#
# 1 0.005944 -0.001373 0.000096 0.000000 0.000000 0.000000
# 2 -0.001373 0.004729 -0.000350 0.000000 0.000000 0.000000
# 3 0.000096 -0.000350 0.010519 0.000000 0.000000 0.000000
# 4 0.000000 0.000000 0.000000 -0.047616 0.000000 0.000000
# 5 0.000000 0.000000 0.000000 0.000000 -0.128202 0.000000
# 6 0.000000 0.000000 0.000000 0.000000 0.000000 0.255552
#
#
# Mechanical properties :
#
#
# Convention : Reuss Voigt Hill
#
# Bulk Modulus (GPa) = 55.74990 69.10517 62.42754
# Shear Modulus (GPa) = 45.38870 24.57423 34.98146
#
# Velocity S-wave (km/s) = 4.37590 3.21984 3.84161
# Velocity P-wave (km/s) = 7.00365 6.55569 6.78337
#
# Compressibility (1/GPa) = 0.01793725
#
# Stress axis : x y z
#
# Youngs Moduli (GPa) = 168.24095 211.45208 95.06870
#
# Poissons Ratio (x) = 0.29041 -0.00915
# Poissons Ratio (y) = 0.23107 0.03328
# Poissons Ratio (z) = -0.01619 0.07402
#
# Static dielectric constant tensor:
#      x y z
#    x 1.985990 0.000000 0.000000 
#    y 0.000000 2.027280 0.000000 
#    z 0.000000 0.000000 1.924900 
# 
# From -- ./inp_files/9049.got.cif
#   From: 2010.05.17/outbox.cif.g08.bks.cpg/sg21_5_cif.got.tgz:9049.got - 2010.06.03 23:14:55.
