data_PCOD9322742
_publ_section_title
;
Structure prediction by ZEFSAII (Michael W. Deem and Ramdas Pophale) SiO2 
 PCOD9322742
Probable space group: C 2 2 2
;
_chemical_formula_sum "Si O2"
_cell_formula_units_Z 56
_cell_length_a 14.454679
_cell_length_b 11.862707
_cell_length_c 15.172445
_cell_angle_alpha 90.000000
_cell_angle_beta 90.000000
_cell_angle_gamma 90.000000
_cell_volume 2601.643750
_symmetry_space_group_name_H-M "C 2 2 2"
_symmetry_group_IT_number 21
_symmetry_cell_setting 'orthorhombic'
loop_
_space_group_symop_operation_xyz
x,y,z
-x,-y,z
x,-y,-z
-x,y,-z
1/2+x,1/2+y,z
1/2-x,1/2-y,z
1/2+x,1/2-y,-z
1/2-x,1/2+y,-z
loop_
_atom_site_type_symbol
_atom_site_label
_atom_site_fract_x
_atom_site_fract_y
_atom_site_fract_z
Si Si1 0.813904 0.500441 0.845696
Si Si2 0.307463 0.498899 0.397176
Si Si3 0.173956 0.151588 0.245015
Si Si4 0.119288 0.729770 0.095055
Si Si5 0.143416 0.790131 0.287441
Si Si6 0.097186 0.450534 0.662166
Si Si7 0.409257 0.783675 0.907866
O O1 0.718878 0.456999 0.803082
O O2 0.813351 0.623064 0.889483
O O3 0.883979 0.509048 0.762604
O O4 0.849418 0.397179 0.903544
O O5 0.326758 0.500000 0.500000
O O6 0.342727 0.389028 0.344113
O O7 0.358764 0.601143 0.347793
O O8 0.194761 0.514622 0.384440
O O9 0.250000 0.250000 0.249997
O O10 0.101513 0.206066 0.178383
O O11 0.121527 0.802727 0.183849
O O12 0.015517 0.680559 0.091072
O O13 0.125359 0.779655 0.996682
O O14 0.250000 0.750000 0.288946
O O15 0.089376 0.684526 0.329078
O O16 0.000000 0.500000 0.628754
#
# Coordination Sequence:
#
# PCOD9322742 Si02
#       7
#     8   8   8   8   8   8   8
#     4   9  16  30  52  82 118 153 187 224 271 336
#     4  10  21  38  61  83 109 151 198 240 291 351
#     4   9  20  36  53  80 118 155 189 233 289 343
#     4  10  19  32  56  83 112 150 191 234 278 333
#     4   9  19  35  57  86 118 152 190 235 284 342
#     4   9  17  32  58  91 122 148 181 234 292 340
#     4  10  19  32  52  84 118 150 188 232 283 333
#
# _framework density 21.524853
#
# number of rings (size 3 to 8) (size 9 to 14) (size 15 to 20)
#    0.000    2.571    0.000    3.429    0.000    4.857 
#    0.000    5.714    0.000   10.286    0.000    0.000 
#    0.000    0.000    0.000    0.000    0.000    0.000 
#
# Total GULP energy -156059.030266 kJ/mol
# GULP energy per Si atom -5573.536795 kJ/mol
# Density = 2.147586 g / cm^3
# Si number density = 21.524853 Si / 1000 Ang^3
#
#
#
# Elastic Constant Matrix: (Units=GPa)
#
#
# Indices 1 2 3 4 5 6 
#
# 1 31.1478 17.4095 4.0107 0.0000 0.0000 0.0000
# 2 17.4095 75.7627 41.1530 0.0000 0.0000 0.0000
# 3 4.0107 41.1530 139.7388 0.0000 0.0000 0.0000
# 4 0.0000 0.0000 0.0000 20.6319 0.0000 0.0000
# 5 0.0000 0.0000 0.0000 0.0000 17.5776 0.0000
# 6 0.0000 0.0000 0.0000 0.0000 0.0000 22.9395
#
#
#
# Elastic Compliance Matrix: (Units=1/GPa)
#
#
# Indices 1 2 3 4 5 6 
#
# 1 0.037182 -0.009481 0.001725 0.000000 0.000000 0.000000
# 2 -0.009481 0.018130 -0.005067 0.000000 0.000000 0.000000
# 3 0.001725 -0.005067 0.008599 0.000000 0.000000 0.000000
# 4 0.000000 0.000000 0.000000 0.048469 0.000000 0.000000
# 5 0.000000 0.000000 0.000000 0.000000 0.056891 0.000000
# 6 0.000000 0.000000 0.000000 0.000000 0.000000 0.043593
#
#
# Mechanical properties :
#
#
# Convention : Reuss Voigt Hill
#
# Bulk Modulus (GPa) = 26.13371 41.31064 33.72217
# Shear Modulus (GPa) = 19.89931 24.50155 22.20043
#
# Velocity S-wave (km/s) = 3.04383 3.37752 3.21500
# Velocity P-wave (km/s) = 4.95184 5.86889 5.42976
#
# Compressibility (1/GPa) = 0.03826476
#
# Stress axis : x y z
#
# Youngs Moduli (GPa) = 26.89459 55.15666 116.29282
#
# Poissons Ratio (x) = 0.52295 -0.20060
# Poissons Ratio (y) = 0.25499 0.58928
# Poissons Ratio (z) = -0.04639 0.27949
#
# Static dielectric constant tensor:
#      x y z
#    x 1.815190 0.000000 0.000000 
#    y 0.000000 1.812960 0.000000 
#    z 0.000000 0.000000 1.826650 
# 
# From -- ./inp_files/32328.got.cif
#   From: 2010.05.17/outbox.cif.g08.bks.cpg/sg21_17_cif.got.tgz:32328.got - 2010.06.03 23:14:55.
