data_PCOD9322513
_publ_section_title
;
Structure prediction by ZEFSAII (Michael W. Deem and Ramdas Pophale) SiO2 
 PCOD9322513
Probable space group: C 2 2 2
;
_chemical_formula_sum "Si O2"
_cell_formula_units_Z 56
_cell_length_a 14.895760
_cell_length_b 8.484165
_cell_length_c 24.314594
_cell_angle_alpha 90.000000
_cell_angle_beta 90.000000
_cell_angle_gamma 90.000000
_cell_volume 3072.831843
_symmetry_space_group_name_H-M "C 2 2 2"
_symmetry_group_IT_number 21
_symmetry_cell_setting 'orthorhombic'
loop_
_space_group_symop_operation_xyz
x,y,z
-x,-y,z
x,-y,-z
-x,y,-z
1/2+x,1/2+y,z
1/2-x,1/2-y,z
1/2+x,1/2-y,-z
1/2-x,1/2+y,-z
loop_
_atom_site_type_symbol
_atom_site_label
_atom_site_fract_x
_atom_site_fract_y
_atom_site_fract_z
Si Si1 0.096408 0.067252 0.440895
Si Si2 0.250781 0.558788 0.232743
Si Si3 0.745997 0.439736 0.359525
Si Si4 0.167032 0.378549 0.450099
Si Si5 0.897900 0.560025 0.854000
Si Si6 0.397994 0.560810 0.144956
Si Si7 0.249447 0.561663 0.937978
O O1 0.087461 0.254831 0.446426
O O2 0.128456 0.000000 0.500000
O O3 0.160451 0.006434 0.392558
O O4 0.000000 0.000000 0.430365
O O5 0.250000 0.750000 0.232532
O O6 0.252915 0.510116 0.296087
O O7 0.161619 0.509542 0.199208
O O8 0.338964 0.509686 0.198256
O O9 0.750000 0.250000 0.363186
O O10 0.824322 0.521346 0.394650
O O11 0.164799 0.500000 0.500000
O O12 0.250000 0.250000 0.455021
O O13 0.899392 0.749596 0.855954
O O14 0.838318 0.499248 0.905132
O O15 0.000000 0.500000 0.853427
O O16 0.500000 0.500000 0.144989
O O17 0.337745 0.501178 0.093947
O O18 0.250000 0.750000 0.937069
O O19 0.248527 0.500000 0.000000
#
# Coordination Sequence:
#
# PCOD9322513 Si02
#       7
#     8   8   8   8   8   8   8
#     4  10  21  36  51  75 108 138 172 224 276 324
#     4   8  18  35  55  79 111 146 186 230 274 323
#     4  10  18  34  56  78 104 141 182 221 266 324
#     4  10  18  32  55  79 102 137 179 218 267 329
#     4  10  20  38  59  83 115 149 184 229 277 327
#     4  10  20  37  58  83 112 150 190 229 275 325
#     4  11  22  38  59  86 115 148 186 230 276 327
#
# _framework density 18.224231
#
# number of rings (size 3 to 8) (size 9 to 14) (size 15 to 20)
#    0.000    2.143    0.000    6.000    0.000    1.143 
#    0.000   25.000    0.000    0.000    0.000    0.000 
#    0.000    0.000    0.000    0.000    0.000    0.000 
#
# Total GULP energy -156115.969248 kJ/mol
# GULP energy per Si atom -5575.570330 kJ/mol
# Density = 1.818275 g / cm^3
# Si number density = 18.224231 Si / 1000 Ang^3
#
#
#
# Elastic Constant Matrix: (Units=GPa)
#
#
# Indices 1 2 3 4 5 6 
#
# 1 141.0045 51.3662 80.4711 0.0000 0.0000 0.0000
# 2 51.3662 119.1401 59.7686 0.0000 0.0000 0.0000
# 3 80.4711 59.7686 198.4552 0.0000 0.0000 0.0000
# 4 0.0000 0.0000 0.0000 26.2988 0.0000 0.0000
# 5 0.0000 0.0000 0.0000 0.0000 52.5900 0.0000
# 6 0.0000 0.0000 0.0000 0.0000 0.0000 25.0959
#
#
#
# Elastic Compliance Matrix: (Units=1/GPa)
#
#
# Indices 1 2 3 4 5 6 
#
# 1 0.009892 -0.002653 -0.003212 0.000000 0.000000 0.000000
# 2 -0.002653 0.010599 -0.002116 0.000000 0.000000 0.000000
# 3 -0.003212 -0.002116 0.006979 0.000000 0.000000 0.000000
# 4 0.000000 0.000000 0.000000 0.038024 0.000000 0.000000
# 5 0.000000 0.000000 0.000000 0.000000 0.019015 0.000000
# 6 0.000000 0.000000 0.000000 0.000000 0.000000 0.039847
#
#
# Mechanical properties :
#
#
# Convention : Reuss Voigt Hill
#
# Bulk Modulus (GPa) = 86.90763 93.53459 90.22111
# Shear Modulus (GPa) = 34.68510 38.59654 36.64082
#
# Velocity S-wave (km/s) = 4.36735 4.60702 4.48879
# Velocity P-wave (km/s) = 8.55705 8.92946 8.74524
#
# Compressibility (1/GPa) = 0.01150647
#
# Stress axis : x y z
#
# Youngs Moduli (GPa) = 101.09668 94.34760 143.29551
#
# Poissons Ratio (x) = 0.25034 0.46023
# Poissons Ratio (y) = 0.26825 0.30324
# Poissons Ratio (z) = 0.32470 0.19966
#
# Static dielectric constant tensor:
#      x y z
#    x 1.675660 0.000000 0.000000 
#    y 0.000000 1.630980 0.000000 
#    z 0.000000 0.000000 1.613230 
# 
# From -- ./inp_files/37584.got.cif
#   From: 2010.05.17/outbox.cif.g08.bks.cpg/sg21_19_cif.got.tgz:37584.got - 2010.06.03 23:14:55.
