data_PCOD9322242
_publ_section_title
;
Structure prediction by ZEFSAII (Michael W. Deem and Ramdas Pophale) SiO2 
 PCOD9322242
Probable space group: C 2 2 21
;
_chemical_formula_sum "Si O2"
_cell_formula_units_Z 32
_cell_length_a 12.000000
_cell_length_b 9.000000
_cell_length_c 30.000000
_cell_angle_alpha 90.000000
_cell_angle_beta 90.000000
_cell_angle_gamma 90.000000
_cell_volume 3240.000000
_symmetry_space_group_name_H-M "C 2 2 21"
_symmetry_group_IT_number 20
_symmetry_cell_setting 'orthorhombic'
loop_
_space_group_symop_operation_xyz
x,y,z
-x,-y,1/2+z
x,-y,-z
-x,y,1/2-z
1/2+x,1/2+y,z
1/2-x,1/2-y,1/2+z
1/2+x,1/2-y,-z
1/2-x,1/2+y,1/2-z
loop_
_atom_site_type_symbol
_atom_site_label
_atom_site_fract_x
_atom_site_fract_y
_atom_site_fract_z
Si Si1 0.721736 0.819152 0.141582
Si Si2 0.650038 0.279633 0.534447
Si Si3 0.997072 0.557635 0.905722
Si Si4 0.616331 0.456869 0.693916
Si Si5 0.607117 0.612223 0.565025
Si Si6 0.858819 0.040242 0.299017
Si Si7 0.622379 0.746817 0.923046
Si Si8 0.198843 0.339381 0.347791
O O1 0.605013 0.872830 0.119318
O O2 0.811301 0.809410 0.100824
O O3 0.685658 0.676044 0.170481
O O4 0.789754 0.932328 0.174144
O O5 0.562241 0.161595 0.556085
O O6 0.638311 0.437888 0.560349
O O7 0.623186 0.312277 0.483188
O O8 0.781791 0.238360 0.538851
O O9 0.891412 0.551450 0.871437
O O10 0.051075 0.401233 0.922194
O O11 0.636608 0.428842 0.746336
O O12 0.486506 0.504927 0.688247
O O13 0.630304 0.302320 0.668225
O O14 0.476134 0.626310 0.575970
O O15 0.767624 0.913944 0.308246
O O16 0.703841 0.718151 0.881047
#
# Coordination Sequence:
#
# PCOD9322242 Si02
#       8
#     8   8   8   8   8   8   8   8
#     4  12  22  42  69  95 128 176 215 263 328 391
#     4  10  25  43  61  97 128 168 211 270 318 378
#     4  11  22  41  68  92 128 169 213 262 321 387
#     4  11  23  44  62  96 129 171 214 270 325 385
#     4  11  24  42  67  93 129 169 216 262 326 381
#     4  11  25  40  68  92 132 167 216 270 324 383
#     4  11  23  42  64  92 129 169 210 267 317 380
#     4  11  22  41  64  93 126 166 217 261 318 388
#
# _framework density 9.8765429999999999
#
# number of rings (size 3 to 8) (size 9 to 14) (size 15 to 20)
#    0.000    1.000    3.750    3.000    3.500    0.500 
#    0.000    0.000    0.000    0.000    0.000    0.000 
#    0.000    0.000    0.000    0.000    0.000    0.000 
#
# Total GULP energy -178584.716410 kJ/mol
# GULP energy per Si atom -5580.772388 kJ/mol
# Density = 0.985406 g / cm^3
# Si number density = 9.876543 Si / 1000 Ang^3
#
#
#
# Elastic Constant Matrix: (Units=GPa)
#
#
# Indices 1 2 3 4 5 6 
#
# 1 166.4900 20.6888 36.5200 0.0000 0.0000 0.0000
# 2 20.6888 28.5682 2.9028 0.0000 0.0000 0.0000
# 3 36.5200 2.9028 92.1084 0.0000 0.0000 0.0000
# 4 0.0000 0.0000 0.0000 25.5353 0.0000 0.0000
# 5 0.0000 0.0000 0.0000 0.0000 36.6405 0.0000
# 6 0.0000 0.0000 0.0000 0.0000 0.0000 47.8249
#
#
#
# Elastic Compliance Matrix: (Units=1/GPa)
#
#
# Indices 1 2 3 4 5 6 
#
# 1 0.007215 -0.004950 -0.002705 0.000000 0.000000 0.000000
# 2 -0.004950 0.038513 0.000749 0.000000 0.000000 0.000000
# 3 -0.002705 0.000749 0.011906 0.000000 0.000000 0.000000
# 4 0.000000 0.000000 0.000000 0.039161 0.000000 0.000000
# 5 0.000000 0.000000 0.000000 0.000000 0.027292 0.000000
# 6 0.000000 0.000000 0.000000 0.000000 0.000000 0.020910
#
#
# Mechanical properties :
#
#
# Convention : Reuss Voigt Hill
#
# Bulk Modulus (GPa) = 22.81984 45.26553 34.04269
# Shear Modulus (GPa) = 28.83262 37.13714 32.98488
#
# Velocity S-wave (km/s) = 3.82468 4.34068 4.09082
# Velocity P-wave (km/s) = 5.57511 6.93451 6.29163
#
# Compressibility (1/GPa) = 0.04382152
#
# Stress axis : x y z
#
# Youngs Moduli (GPa) = 138.60524 25.96550 83.99473
#
# Poissons Ratio (x) = 0.12853 0.22717
# Poissons Ratio (y) = 0.68610 -0.06291
# Poissons Ratio (z) = 0.37487 -0.01945
#
# Static dielectric constant tensor:
#      x y z
#    x 1.659900 0.000000 0.000000 
#    y 0.000000 1.731670 0.000000 
#    z 0.000000 0.000000 1.725580 
# 
# From -- ./inp_files/31204.got.cif
#   From: 2010.05.17/outbox.ucp.g08.bks.cvg/sg20_16_cif.got.tgz:31204.got - 2010.06.11 15:13:06.
