data_PCOD9322133
_publ_section_title
;
Structure prediction by ZEFSAII (Michael W. Deem and Ramdas Pophale) SiO2 
 PCOD9322133
Probable space group: C 2 2 21
;
_chemical_formula_sum "Si O2"
_cell_formula_units_Z 40
_cell_length_a 18.370485
_cell_length_b 17.099455
_cell_length_c 5.138800
_cell_angle_alpha 90.000000
_cell_angle_beta 90.000000
_cell_angle_gamma 90.000000
_cell_volume 1614.226997
_symmetry_space_group_name_H-M "C 2 2 21"
_symmetry_group_IT_number 20
_symmetry_cell_setting 'orthorhombic'
loop_
_space_group_symop_operation_xyz
x,y,z
-x,-y,1/2+z
x,-y,-z
-x,y,1/2-z
1/2+x,1/2+y,z
1/2-x,1/2-y,1/2+z
1/2+x,1/2-y,-z
1/2-x,1/2+y,1/2-z
loop_
_atom_site_type_symbol
_atom_site_label
_atom_site_fract_x
_atom_site_fract_y
_atom_site_fract_z
Si Si1 0.000000 0.796309 0.750000
Si Si2 0.376566 0.633802 0.573328
Si Si3 0.363078 0.077843 0.379715
Si Si4 0.500000 0.816764 0.750000
Si Si5 0.500000 0.550489 0.750000
Si Si6 0.256016 0.500000 0.500000
Si Si7 0.212577 0.726447 0.959901
O O1 0.931425 0.850234 0.667256
O O2 0.007452 0.738251 0.503392
O O3 0.429992 0.603145 0.794025
O O4 0.311760 0.571133 0.560977
O O5 0.343172 0.718182 0.615645
O O6 0.428175 0.128381 0.258653
O O7 0.320251 0.139985 0.564567
O O8 0.397713 0.000000 0.500000
O O9 0.299149 0.040358 0.203794
O O10 0.483349 0.500000 0.500000
O O11 0.275929 0.732602 0.179417
#
# Coordination Sequence:
#
# PCOD9322133 Si02
#       7
#     4   8   8   4   4   4   8
#     4  12  29  53  83 127 160 224 278 343 425 489
#     4  12  27  50  83 120 166 213 276 339 414 498
#     4  12  30  52  80 123 161 218 275 340 424 485
#     4  12  31  53  91 117 170 214 284 351 411 511
#     4  12  28  50  78 122 168 216 266 336 420 492
#     4  12  28  52  84 118 168 216 270 346 414 506
#     4  12  28  50  82 116 162 214 273 338 405 492
#
# _framework density 24.779661000000001
#
# number of rings (size 3 to 8) (size 9 to 14) (size 15 to 20)
#    0.000    0.000    5.000    2.400    7.000    4.000 
#    3.600    0.000    0.000    0.000    0.000    0.000 
#    0.000    0.000    0.000    0.000    0.000    0.000 
#
# Total GULP energy -111736.841698 kJ/mol
# GULP energy per Si atom -5586.842085 kJ/mol
# Density = 2.472326 g / cm^3
# Si number density = 24.779661 Si / 1000 Ang^3
#
#
#
# Elastic Constant Matrix: (Units=GPa)
#
#
# Indices 1 2 3 4 5 6 
#
# 1 140.3247 55.6521 28.6073 0.0000 0.0000 0.0000
# 2 55.6521 183.9851 44.1576 0.0000 0.0000 0.0000
# 3 28.6073 44.1576 114.4253 0.0000 0.0000 0.0000
# 4 0.0000 0.0000 0.0000 25.9373 0.0000 0.0000
# 5 0.0000 0.0000 0.0000 0.0000 32.1408 0.0000
# 6 0.0000 0.0000 0.0000 0.0000 0.0000 109.1344
#
#
#
# Elastic Compliance Matrix: (Units=1/GPa)
#
#
# Indices 1 2 3 4 5 6 
#
# 1 0.008247 -0.002204 -0.001211 0.000000 0.000000 0.000000
# 2 -0.002204 0.006579 -0.001988 0.000000 0.000000 0.000000
# 3 -0.001211 -0.001988 0.009809 0.000000 0.000000 0.000000
# 4 0.000000 0.000000 0.000000 0.038554 0.000000 0.000000
# 5 0.000000 0.000000 0.000000 0.000000 0.031113 0.000000
# 6 0.000000 0.000000 0.000000 0.000000 0.000000 0.009163
#
#
# Mechanical properties :
#
#
# Convention : Reuss Voigt Hill
#
# Bulk Modulus (GPa) = 72.31049 77.28544 74.79797
# Shear Modulus (GPa) = 42.05839 54.13040 48.09440
#
# Velocity S-wave (km/s) = 4.12429 4.67890 4.41032
# Velocity P-wave (km/s) = 7.20586 7.77472 7.49569
#
# Compressibility (1/GPa) = 0.01382925
#
# Stress axis : x y z
#
# Youngs Moduli (GPa) = 121.25099 151.99936 101.94385
#
# Poissons Ratio (x) = 0.33500 0.12349
# Poissons Ratio (y) = 0.26723 0.20265
# Poissons Ratio (z) = 0.14688 0.30216
#
# Static dielectric constant tensor:
#      x y z
#    x 2.074910 0.000000 0.000000 
#    y 0.000000 1.956590 0.000000 
#    z 0.000000 0.000000 1.976820 
# 
# From -- ./inp_files/2567.got.cif
#   From: 2010.05.17/outbox.cif.g08.bks.cpg/sg20_2_cif.got.tgz:2567.got - 2010.06.03 22:52:26.
