data_PCOD9322847
_publ_section_title
;
Structure prediction by ZEFSAII (Michael W. Deem and Ramdas Pophale) SiO2 
 PCOD9322847
Probable space group: C 2 2 2
;
_chemical_formula_sum "Si O2"
_cell_formula_units_Z 32
_cell_length_a 5.243904
_cell_length_b 36.080287
_cell_length_c 7.882658
_cell_angle_alpha 90.000000
_cell_angle_beta 90.000000
_cell_angle_gamma 90.000000
_cell_volume 1491.411201
_symmetry_space_group_name_H-M "C 2 2 2"
_symmetry_group_IT_number 21
_symmetry_cell_setting 'orthorhombic'
loop_
_space_group_symop_operation_xyz
x,y,z
-x,-y,z
x,-y,-z
-x,y,-z
1/2+x,1/2+y,z
1/2-x,1/2-y,z
1/2+x,1/2-y,-z
1/2-x,1/2+y,-z
loop_
_atom_site_type_symbol
_atom_site_label
_atom_site_fract_x
_atom_site_fract_y
_atom_site_fract_z
Si Si1 0.896109 0.142388 0.808015
Si Si2 0.256835 0.983362 0.304237
Si Si3 0.886326 0.603354 0.685442
Si Si4 0.993770 0.771768 0.206556
O O1 0.614974 0.123387 0.793874
O O2 0.113500 0.122351 0.700861
O O3 0.929206 0.185401 0.756279
O O4 0.000000 0.139219 0.000000
O O5 0.310349 0.939843 0.294200
O O6 0.500000 0.000000 0.214735
O O7 0.255048 0.000000 0.500000
O O8 0.000000 0.000000 0.229551
O O9 0.000000 0.606953 0.500000
O O10 0.250000 0.750000 0.262794
O O11 0.750000 0.750000 0.271346
O O12 0.000000 0.769941 0.000000
#
# Coordination Sequence:
#
# PCOD9322847 Si02
#       4
#     8   8   8   8
#     4  11  24  40  62  95 135 163 199 265 328 372
#     4  10  19  34  59  90 111 148 207 268 282 340
#     4  12  23  39  65  96 123 163 213 262 310 374
#     4   9  17  33  59  86 114 162 219 253 285 359
#
# _framework density 21.456188999999998
#
# number of rings (size 3 to 8) (size 9 to 14) (size 15 to 20)
#    0.000    1.500    2.500    4.500    3.500    4.000 
#    0.000    0.000    0.000   26.250    0.000    0.000 
#    0.000    0.000    0.000    0.000    0.000    0.000 
#
# Total GULP energy -89089.936629 kJ/mol
# GULP energy per Si atom -5568.121039 kJ/mol
# Density = 2.140735 g / cm^3
# Si number density = 21.456189 Si / 1000 Ang^3
#
#
#
# Elastic Constant Matrix: (Units=GPa)
#
#
# Indices 1 2 3 4 5 6 
#
# 1 198.3449 83.1754 17.7820 0.0000 0.0000 0.0000
# 2 83.1754 197.2299 31.1757 0.0000 0.0000 0.0000
# 3 17.7820 31.1757 23.1911 0.0000 0.0000 0.0000
# 4 0.0000 0.0000 0.0000 -9.6981 0.0000 0.0000
# 5 0.0000 0.0000 0.0000 0.0000 5.6529 0.0000
# 6 0.0000 0.0000 0.0000 0.0000 0.0000 49.1708
#
#
#
# Elastic Compliance Matrix: (Units=1/GPa)
#
#
# Indices 1 2 3 4 5 6 
#
# 1 0.006169 -0.002354 -0.001566 0.000000 0.000000 0.000000
# 2 -0.002354 0.007337 -0.008058 0.000000 0.000000 0.000000
# 3 -0.001566 -0.008058 0.055152 0.000000 0.000000 0.000000
# 4 0.000000 0.000000 0.000000 -0.103113 0.000000 0.000000
# 5 0.000000 0.000000 0.000000 0.000000 0.176899 0.000000
# 6 0.000000 0.000000 0.000000 0.000000 0.000000 0.020337
#
#
# Mechanical properties :
#
#
# Convention : Reuss Voigt Hill
#
# Bulk Modulus (GPa) = 22.36964 75.89245 49.13105
# Shear Modulus (GPa) = 24.79702 28.13398 26.46550
#
# Velocity S-wave (km/s) = 3.40325 3.62502 3.51588
# Velocity P-wave (km/s) = 5.08834 7.27796 6.27933
#
# Compressibility (1/GPa) = 0.04470345
#
# Stress axis : x y z
#
# Youngs Moduli (GPa) = 162.09225 136.30115 18.13164
#
# Poissons Ratio (x) = 0.32089 0.02839
# Poissons Ratio (y) = 0.38161 0.14610
# Poissons Ratio (z) = 0.25377 1.09825
#
# Static dielectric constant tensor:
#      x y z
#    x 1.796470 0.000000 0.000000 
#    y 0.000000 2.344370 0.000000 
#    z 0.000000 0.000000 1.786410 
# 
# From -- ./inp_files/9031.got.cif
#   From: 2010.05.17/outbox.cif.g08.bks.cpg/sg21_5_cif.got.tgz:9031.got - 2010.06.03 23:14:55.
