data_PCOD9322221
_publ_section_title
;
Structure prediction by ZEFSAII (Michael W. Deem and Ramdas Pophale) SiO2 
 PCOD9322221
Probable space group: C 2 2 21
;
_chemical_formula_sum "Si O2"
_cell_formula_units_Z 32
_cell_length_a 12.000000
_cell_length_b 15.000000
_cell_length_c 18.000000
_cell_angle_alpha 90.000000
_cell_angle_beta 90.000000
_cell_angle_gamma 90.000000
_cell_volume 3240.000000
_symmetry_space_group_name_H-M "C 2 2 21"
_symmetry_group_IT_number 20
_symmetry_cell_setting 'orthorhombic'
loop_
_space_group_symop_operation_xyz
x,y,z
-x,-y,1/2+z
x,-y,-z
-x,y,1/2-z
1/2+x,1/2+y,z
1/2-x,1/2-y,1/2+z
1/2+x,1/2-y,-z
1/2-x,1/2+y,1/2-z
loop_
_atom_site_type_symbol
_atom_site_label
_atom_site_fract_x
_atom_site_fract_y
_atom_site_fract_z
Si Si1 0.010048 0.443121 0.160369
Si Si2 0.195682 0.192665 0.248576
Si Si3 0.413428 0.700078 0.557863
Si Si4 0.571624 0.144912 0.175432
Si Si5 0.623771 0.506978 0.730203
Si Si6 0.828541 0.708555 0.592935
Si Si7 0.129389 0.075325 0.563142
Si Si8 0.280458 0.127982 0.836151
O O1 0.884109 0.427876 0.132681
O O2 0.000000 0.434209 0.250000
O O3 0.053961 0.543623 0.147533
O O4 0.087587 0.366932 0.125354
O O5 0.306461 0.161018 0.291288
O O6 0.203069 0.227582 0.163243
O O7 0.168402 0.283384 0.295287
O O8 0.128422 0.099130 0.251444
O O9 0.450561 0.783038 0.610887
O O10 0.381617 0.736708 0.475972
O O11 0.510818 0.626069 0.555277
O O12 0.306055 0.659091 0.600694
O O13 0.500000 0.159103 0.250000
O O14 0.500000 0.540411 0.750000
O O15 0.640046 0.527088 0.643216
O O16 0.713026 0.565577 0.777242
O O17 0.722865 0.652807 0.562519
O O18 0.143182 0.000000 0.500000
#
# Coordination Sequence:
#
# PCOD9322221 Si02
#       8
#     8   8   8   8   8   8   8   8
#     4  11  22  43  73 108 140 178 240 305 349 425
#     4  11  24  41  73 102 136 180 240 286 354 419
#     4  11  28  44  70 103 144 192 235 298 360 431
#     4  10  22  43  74 100 135 182 246 291 358 416
#     4  12  25  45  75 102 138 190 237 298 356 422
#     4  12  27  44  72 104 148 186 240 294 368 424
#     4  12  28  48  70 104 148 187 240 292 365 438
#     4  11  24  47  70 104 141 183 239 295 349 427
#
# _framework density 9.8765429999999999
#
# number of rings (size 3 to 8) (size 9 to 14) (size 15 to 20)
#    0.000    0.750    3.750    3.000   12.250    0.000 
#    0.000    0.000    2.750    0.000    0.000    0.000 
#    0.000    0.000    0.000    0.000    0.000    0.000 
#
# Total GULP energy -178832.375579 kJ/mol
# GULP energy per Si atom -5588.511737 kJ/mol
# Density = 0.985406 g / cm^3
# Si number density = 9.876543 Si / 1000 Ang^3
#
#
#
# Elastic Constant Matrix: (Units=GPa)
#
#
# Indices 1 2 3 4 5 6 
#
# 1 78.2743 42.4723 16.5142 0.0000 0.0000 0.0000
# 2 42.4723 145.9117 56.4700 0.0000 0.0000 0.0000
# 3 16.5142 56.4700 110.5727 0.0000 0.0000 0.0000
# 4 0.0000 0.0000 0.0000 42.2725 0.0000 0.0000
# 5 0.0000 0.0000 0.0000 0.0000 25.7968 0.0000
# 6 0.0000 0.0000 0.0000 0.0000 0.0000 42.6708
#
#
#
# Elastic Compliance Matrix: (Units=1/GPa)
#
#
# Indices 1 2 3 4 5 6 
#
# 1 0.015172 -0.004411 -0.000013 0.000000 0.000000 0.000000
# 2 -0.004411 0.009824 -0.004358 0.000000 0.000000 0.000000
# 3 -0.000013 -0.004358 0.011272 0.000000 0.000000 0.000000
# 4 0.000000 0.000000 0.000000 0.023656 0.000000 0.000000
# 5 0.000000 0.000000 0.000000 0.000000 0.038765 0.000000
# 6 0.000000 0.000000 0.000000 0.000000 0.000000 0.023435
#
#
# Mechanical properties :
#
#
# Convention : Reuss Voigt Hill
#
# Bulk Modulus (GPa) = 53.46951 62.85241 58.16096
# Shear Modulus (GPa) = 34.26456 36.76816 35.51636
#
# Velocity S-wave (km/s) = 4.16942 4.31906 4.24490
# Velocity P-wave (km/s) = 7.09271 7.53396 7.31666
#
# Compressibility (1/GPa) = 0.01870225
#
# Stress axis : x y z
#
# Youngs Moduli (GPa) = 65.91130 101.78872 88.71790
#
# Poissons Ratio (x) = 0.44901 0.00117
# Poissons Ratio (y) = 0.29075 0.38668
# Poissons Ratio (z) = 0.00087 0.44364
#
# Static dielectric constant tensor:
#      x y z
#    x 1.814240 0.000000 0.000000 
#    y 0.000000 1.692990 0.000000 
#    z 0.000000 0.000000 1.665470 
# 
# From -- ./inp_files/24458.got.cif
#   From: 2010.05.17/outbox.ucp.g08.bks.cvg/sg20_13_cif.got.tgz:24458.got - 2010.06.11 15:13:06.
