data_PCOD9322801
_publ_section_title
;
Structure prediction by ZEFSAII (Michael W. Deem and Ramdas Pophale) SiO2 
 PCOD9322801
Probable space group: C 2 2 2
;
_chemical_formula_sum "Si O2"
_cell_formula_units_Z 48
_cell_length_a 8.899898
_cell_length_b 16.129313
_cell_length_c 15.219512
_cell_angle_alpha 90.000000
_cell_angle_beta 90.000000
_cell_angle_gamma 90.000000
_cell_volume 2184.749389
_symmetry_space_group_name_H-M "C 2 2 2"
_symmetry_group_IT_number 21
_symmetry_cell_setting 'orthorhombic'
loop_
_space_group_symop_operation_xyz
x,y,z
-x,-y,z
x,-y,-z
-x,y,-z
1/2+x,1/2+y,z
1/2-x,1/2-y,z
1/2+x,1/2-y,-z
1/2-x,1/2+y,-z
loop_
_atom_site_type_symbol
_atom_site_label
_atom_site_fract_x
_atom_site_fract_y
_atom_site_fract_z
Si Si1 0.901289 0.919924 0.642055
Si Si2 0.401250 0.581969 0.144344
Si Si3 0.864835 0.328249 0.428716
Si Si4 0.412720 0.732899 0.664337
Si Si5 0.914308 0.239217 0.865979
Si Si6 0.440632 0.914753 0.099345
O O1 0.877729 0.913798 0.748495
O O2 0.744337 0.905385 0.591817
O O3 0.010004 0.843940 0.617703
O O4 0.000000 0.000000 0.622977
O O5 0.500000 0.500000 0.127933
O O6 0.483569 0.662860 0.104796
O O7 0.237496 0.579154 0.103088
O O8 0.750000 0.250000 0.440479
O O9 0.000000 0.336353 0.500000
O O10 0.966005 0.305770 0.343564
O O11 0.250000 0.750000 0.626020
O O12 0.386274 0.711838 0.765333
O O13 0.750000 0.250000 0.909096
O O14 0.998324 0.327156 0.865058
O O15 0.500000 0.000000 0.143311
O O16 0.500000 0.914811 0.000000
#
# Coordination Sequence:
#
# PCOD9322801 Si02
#       6
#     8   8   8   8   8   8
#     4   9  19  36  61  91 119 148 194 255 303 345
#     4  10  20  39  65  90 118 155 200 255 311 358
#     4  10  19  33  58  86 115 157 199 236 291 358
#     4   9  18  34  58  87 116 148 194 240 288 350
#     4  10  20  36  60  90 119 152 196 247 296 353
#     4  11  24  40  56  84 122 160 200 244 299 363
#
# _framework density 21.970482000000001
#
# number of rings (size 3 to 8) (size 9 to 14) (size 15 to 20)
#    0.000    2.167    0.000    3.000    0.000    5.333 
#    0.000    5.833    0.000   27.000    0.000    2.333 
#    0.000    0.000    0.000    0.000    0.000    0.000 
#
# Total GULP energy -133809.529708 kJ/mol
# GULP energy per Si atom -5575.397071 kJ/mol
# Density = 2.192048 g / cm^3
# Si number density = 21.970482 Si / 1000 Ang^3
#
#
#
# Elastic Constant Matrix: (Units=GPa)
#
#
# Indices 1 2 3 4 5 6 
#
# 1 237.7462 94.0644 35.4330 0.0000 0.0000 0.0000
# 2 94.0644 147.0260 2.5089 0.0000 0.0000 0.0000
# 3 35.4330 2.5089 47.7917 0.0000 0.0000 0.0000
# 4 0.0000 0.0000 0.0000 -15.4120 0.0000 0.0000
# 5 0.0000 0.0000 0.0000 0.0000 23.8274 0.0000
# 6 0.0000 0.0000 0.0000 0.0000 0.0000 42.7467
#
#
#
# Elastic Compliance Matrix: (Units=1/GPa)
#
#
# Indices 1 2 3 4 5 6 
#
# 1 0.006510 -0.004087 -0.004612 0.000000 0.000000 0.000000
# 2 -0.004087 0.009373 0.002538 0.000000 0.000000 0.000000
# 3 -0.004612 0.002538 0.024211 0.000000 0.000000 0.000000
# 4 0.000000 0.000000 0.000000 -0.064885 0.000000 0.000000
# 5 0.000000 0.000000 0.000000 0.000000 0.041968 0.000000
# 6 0.000000 0.000000 0.000000 0.000000 0.000000 0.023394
#
#
# Mechanical properties :
#
#
# Convention : Reuss Voigt Hill
#
# Bulk Modulus (GPa) = 36.00826 77.39738 56.70282
# Shear Modulus (GPa) = 80.45011 30.26962 55.35987
#
# Velocity S-wave (km/s) = 6.05779 3.71582 5.02515
# Velocity P-wave (km/s) = 8.08419 7.32899 7.71584
#
# Compressibility (1/GPa) = 0.02777140
#
# Stress axis : x y z
#
# Youngs Moduli (GPa) = 153.60021 106.69290 41.30437
#
# Poissons Ratio (x) = 0.43600 0.19051
# Poissons Ratio (y) = 0.62769 -0.10482
# Poissons Ratio (z) = 0.70845 -0.27076
#
# Static dielectric constant tensor:
#      x y z
#    x 1.795280 0.000000 0.000000 
#    y 0.000000 1.884770 0.000000 
#    z 0.000000 0.000000 1.878820 
# 
# From -- ./inp_files/35691.got.cif
#   From: 2010.05.17/outbox.cif.g08.bks.cpg/sg21_18_cif.got.tgz:35691.got - 2010.06.03 23:14:55.
