data_PCOD9322702
_publ_section_title
;
Structure prediction by ZEFSAII (Michael W. Deem and Ramdas Pophale) SiO2 
 PCOD9322702
Probable space group: C 2 2 2
;
_chemical_formula_sum "Si O2"
_cell_formula_units_Z 56
_cell_length_a 5.260925
_cell_length_b 14.184017
_cell_length_c 31.752242
_cell_angle_alpha 90.000000
_cell_angle_beta 90.000000
_cell_angle_gamma 90.000000
_cell_volume 2369.385626
_symmetry_space_group_name_H-M "C 2 2 2"
_symmetry_group_IT_number 21
_symmetry_cell_setting 'orthorhombic'
loop_
_space_group_symop_operation_xyz
x,y,z
-x,-y,z
x,-y,-z
-x,y,-z
1/2+x,1/2+y,z
1/2-x,1/2-y,z
1/2+x,1/2-y,-z
1/2-x,1/2+y,-z
loop_
_atom_site_type_symbol
_atom_site_label
_atom_site_fract_x
_atom_site_fract_y
_atom_site_fract_z
Si Si1 0.247255 0.135296 0.828184
Si Si2 0.273975 0.141525 0.310433
Si Si3 0.011195 0.115125 0.451797
Si Si4 0.248603 0.634993 0.974393
Si Si5 0.749002 0.365116 0.878270
Si Si6 0.768347 0.865244 0.732541
Si Si7 0.503874 0.886534 0.597490
O O1 0.250000 0.250000 0.826813
O O2 0.515687 0.107289 0.848532
O O3 0.190352 0.104699 0.780492
O O4 0.017246 0.106930 0.858050
O O5 0.250000 0.250000 0.298097
O O6 0.493410 0.099880 0.281688
O O7 0.397181 0.141448 0.356870
O O8 0.991389 0.105114 0.300030
O O9 0.780068 0.142961 0.420355
O O10 0.000000 0.147684 0.500000
O O11 0.284288 0.143434 0.434375
O O12 0.000000 0.000000 0.452638
O O13 0.250000 0.750000 0.972599
O O14 0.234437 0.601206 0.926309
O O15 0.500000 0.607632 0.000000
O O16 0.000000 0.607353 0.000000
O O17 0.750000 0.250000 0.879491
O O18 0.750000 0.750000 0.731636
O O19 0.500000 0.000000 0.598281
#
# Coordination Sequence:
#
# PCOD9322702 Si02
#       7
#     8   8   8   8   8   8   8
#     4   9  15  23  34  48  65  86 118 161 205 248
#     4  10  19  31  46  65  89 118 147 177 219 269
#     4   9  17  30  49  72  95 118 147 184 223 260
#     4   9  15  21  27  36  53  78 109 147 196 253
#     4   9  15  21  30  43  59  82 114 156 206 251
#     4   9  17  28  42  59  80 107 139 174 216 264
#     4  10  19  31  49  72  95 119 149 185 222 261
#
# _framework density 23.634820999999999
#
# number of rings (size 3 to 8) (size 9 to 14) (size 15 to 20)
#    0.000    2.714    0.000    3.000    0.000    8.571 
#    0.000    0.000    0.000    1.714    0.000    0.000 
#    0.000    0.000    0.000    0.000    0.000    0.000 
#
# Total GULP energy -156468.168388 kJ/mol
# GULP energy per Si atom -5588.148871 kJ/mol
# Density = 2.358103 g / cm^3
# Si number density = 23.634821 Si / 1000 Ang^3
#
#
#
# Elastic Constant Matrix: (Units=GPa)
#
#
# Indices 1 2 3 4 5 6 
#
# 1 171.1203 -10.8575 54.4220 0.0000 0.0000 0.0000
# 2 -10.8575 83.3791 -22.8872 0.0000 0.0000 0.0000
# 3 54.4220 -22.8872 113.5325 0.0000 0.0000 0.0000
# 4 0.0000 0.0000 0.0000 0.9058 0.0000 0.0000
# 5 0.0000 0.0000 0.0000 0.0000 46.1076 0.0000
# 6 0.0000 0.0000 0.0000 0.0000 0.0000 -27.2001
#
#
#
# Elastic Compliance Matrix: (Units=1/GPa)
#
#
# Indices 1 2 3 4 5 6 
#
# 1 0.006895 -0.000010 -0.003307 0.000000 0.000000 0.000000
# 2 -0.000010 0.012696 0.002564 0.000000 0.000000 0.000000
# 3 -0.003307 0.002564 0.010910 0.000000 0.000000 0.000000
# 4 0.000000 0.000000 0.000000 1.103969 0.000000 0.000000
# 5 0.000000 0.000000 0.000000 0.000000 0.021688 0.000000
# 6 0.000000 0.000000 0.000000 0.000000 0.000000 -0.036765
#
#
# Mechanical properties :
#
#
# Convention : Reuss Voigt Hill
#
# Bulk Modulus (GPa) = 34.48821 45.48738 39.98780
# Shear Modulus (GPa) = 4.42257 27.11964 15.77110
#
# Velocity S-wave (km/s) = 1.36941 3.39107 2.58598
# Velocity P-wave (km/s) = 4.13813 5.88389 5.08647
#
# Compressibility (1/GPa) = 0.02899541
#
# Stress axis : x y z
#
# Youngs Moduli (GPa) = 145.03281 78.76512 91.65698
#
# Poissons Ratio (x) = 0.00078 0.30312
# Poissons Ratio (y) = 0.00144 -0.23502
# Poissons Ratio (z) = 0.47964 -0.20197
#
# Static dielectric constant tensor:
#      x y z
#    x 1.842650 0.000000 0.000000 
#    y 0.000000 1.959660 0.000000 
#    z 0.000000 0.000000 1.881020 
# 
# From -- ./inp_files/39167.got.cif
#   From: 2010.05.17/outbox.cif.g08.bks.cpg/sg21_20_cif.got.tgz:39167.got - 2010.06.03 23:14:55.
