data_PCOD9322764
_publ_section_title
;
Structure prediction by ZEFSAII (Michael W. Deem and Ramdas Pophale) SiO2 
 PCOD9322764
Probable space group: C 2 2 2
;
_chemical_formula_sum "Si O2"
_cell_formula_units_Z 34
_cell_length_a 16.699012
_cell_length_b 13.742309
_cell_length_c 5.659350
_cell_angle_alpha 90.000000
_cell_angle_beta 90.000000
_cell_angle_gamma 90.000000
_cell_volume 1298.724519
_symmetry_space_group_name_H-M "C 2 2 2"
_symmetry_group_IT_number 21
_symmetry_cell_setting 'orthorhombic'
loop_
_space_group_symop_operation_xyz
x,y,z
-x,-y,z
x,-y,-z
-x,y,-z
1/2+x,1/2+y,z
1/2-x,1/2-y,z
1/2+x,1/2-y,-z
1/2-x,1/2+y,-z
loop_
_atom_site_type_symbol
_atom_site_label
_atom_site_fract_x
_atom_site_fract_y
_atom_site_fract_z
Si Si1 0.090488 0.855847 0.763236
Si Si2 0.680517 0.169155 0.787163
Si Si3 0.635535 0.872149 0.712654
Si Si4 0.500000 0.000000 0.500000
Si Si5 0.099555 0.858704 0.262728
O O1 0.101370 0.738522 0.770790
O O2 0.126724 0.893635 0.519034
O O3 0.996024 0.875504 0.751091
O O4 0.128069 0.893112 0.006793
O O5 0.750000 0.250000 0.800629
O O6 0.684016 0.116088 0.534545
O O7 0.674949 0.110361 0.031041
O O8 0.617715 0.756393 0.727752
O O9 0.556201 0.934170 0.665837
#
# Coordination Sequence:
#
# PCOD9322764 Si02
#       5
#     8   8   8   2   8
#     4   8  13  21  37  55  75 107 145 194 242 287
#     4  10  19  33  48  66  94 133 187 228 266 324
#     4  10  21  32  49  72  98 139 178 227 276 316
#     4  12  24  38  56  82 120 146 196 238 276 342
#     4   8  13  24  37  56  83 109 152 191 240 294
#
# _framework density 26.179531999999998
#
# number of rings (size 3 to 8) (size 9 to 14) (size 15 to 20)
#    0.000    2.824    0.000    3.529    0.000    4.706 
#    0.000    0.000    0.000    0.000    0.000    0.000 
#    0.000    0.000    0.000    0.000    0.000  694.118 
#
# Total GULP energy -94851.438298 kJ/mol
# GULP energy per Si atom -5579.496370 kJ/mol
# Density = 2.611995 g / cm^3
# Si number density = 26.179532 Si / 1000 Ang^3
#
#
#
# Elastic Constant Matrix: (Units=GPa)
#
#
# Indices 1 2 3 4 5 6 
#
# 1 98.4349 17.9542 39.7537 0.0000 0.0000 0.0000
# 2 17.9542 111.5079 36.2124 0.0000 0.0000 0.0000
# 3 39.7537 36.2124 400.7084 0.0000 0.0000 0.0000
# 4 0.0000 0.0000 0.0000 -13.0339 0.0000 0.0000
# 5 0.0000 0.0000 0.0000 0.0000 -4.0275 0.0000
# 6 0.0000 0.0000 0.0000 0.0000 0.0000 2.8557
#
#
#
# Elastic Compliance Matrix: (Units=1/GPa)
#
#
# Indices 1 2 3 4 5 6 
#
# 1 0.010801 -0.001433 -0.000942 0.000000 0.000000 0.000000
# 2 -0.001433 0.009429 -0.000710 0.000000 0.000000 0.000000
# 3 -0.000942 -0.000710 0.002653 0.000000 0.000000 0.000000
# 4 0.000000 0.000000 0.000000 -0.076723 0.000000 0.000000
# 5 0.000000 0.000000 0.000000 0.000000 -0.248291 0.000000
# 6 0.000000 0.000000 0.000000 0.000000 0.000000 0.350178
#
#
# Mechanical properties :
#
#
# Convention : Reuss Voigt Hill
#
# Bulk Modulus (GPa) = 59.83338 88.72131 74.27734
# Shear Modulus (GPa) = 83.62766 31.60757 57.61762
#
# Velocity S-wave (km/s) = 5.65803 3.47845 4.69643
# Velocity P-wave (km/s) = 8.09870 7.07785 7.60542
#
# Compressibility (1/GPa) = 0.01671308
#
# Stress axis : x y z
#
# Youngs Moduli (GPa) = 92.58534 106.05250 376.90395
#
# Poissons Ratio (x) = 0.15199 0.35505
# Poissons Ratio (y) = 0.13269 0.26758
# Poissons Ratio (z) = 0.08722 0.07529
#
# Static dielectric constant tensor:
#      x y z
#    x 2.017810 0.000000 0.000000 
#    y 0.000000 2.036550 0.000000 
#    z 0.000000 0.000000 2.166390 
# 
# From -- ./inp_files/5704.got.cif
#   From: 2010.05.17/outbox.cif.g08.bks.cpg/sg21_3_cif.got.tgz:5704.got - 2010.06.03 23:14:55.
