data_PCOD9322403
_publ_section_title
;
Structure prediction by ZEFSAII (Michael W. Deem and Ramdas Pophale) SiO2 
 PCOD9322403
Probable space group: C 2 2 2
;
_chemical_formula_sum "Si O2"
_cell_formula_units_Z 60
_cell_length_a 12.459038
_cell_length_b 15.469566
_cell_length_c 13.850910
_cell_angle_alpha 90.000000
_cell_angle_beta 90.000000
_cell_angle_gamma 90.000000
_cell_volume 2669.567752
_symmetry_space_group_name_H-M "C 2 2 2"
_symmetry_group_IT_number 21
_symmetry_cell_setting 'orthorhombic'
loop_
_space_group_symop_operation_xyz
x,y,z
-x,-y,z
x,-y,-z
-x,y,-z
1/2+x,1/2+y,z
1/2-x,1/2-y,z
1/2+x,1/2-y,-z
1/2-x,1/2+y,-z
loop_
_atom_site_type_symbol
_atom_site_label
_atom_site_fract_x
_atom_site_fract_y
_atom_site_fract_z
Si Si1 0.074224 0.912866 0.233920
Si Si2 0.400817 0.902339 0.571996
Si Si3 0.808515 0.616863 0.100065
Si Si4 0.506641 0.895504 0.776493
Si Si5 0.138372 0.843641 0.739989
Si Si6 0.750000 0.750000 0.423412
Si Si7 0.798998 0.007804 0.390707
Si Si8 0.716455 0.092145 0.117514
O O1 0.162822 0.899262 0.153597
O O2 0.984712 0.839968 0.232931
O O3 0.141397 0.914997 0.334936
O O4 0.000000 0.000000 0.218383
O O5 0.500000 0.910006 0.500000
O O6 0.457521 0.875674 0.672191
O O7 0.310230 0.833572 0.531513
O O8 0.328802 0.988003 0.599216
O O9 0.716240 0.656959 0.168095
O O10 0.798860 0.512138 0.109365
O O11 0.923027 0.640946 0.144975
O O12 0.799927 0.634245 0.986940
O O13 0.628305 0.874148 0.805972
O O14 0.500000 0.000000 0.783404
O O15 0.161210 0.780781 0.652262
O O16 0.167120 0.932651 0.683588
O O17 0.841295 0.000000 0.500000
#
# Coordination Sequence:
#
# PCOD9322403 Si02
#       8
#     8   8   8   8   8   4   8   8
#     4  10  19  35  52  88 122 154 193 245 314 369
#     4  11  24  38  64  88 115 161 206 251 303 372
#     4  10  17  33  53  87 119 165 188 241 311 371
#     4  10  19  34  56  87 124 152 193 245 310 372
#     4  10  20  38  62  78 118 160 210 243 296 370
#     4  10  22  48  58  80 116 168 222 248 290 356
#     4  10  20  35  56  88 120 147 185 246 320 377
#     4  10  19  29  54  88 128 149 191 248 314 379
#
# _framework density 22.475549999999998
#
# number of rings (size 3 to 8) (size 9 to 14) (size 15 to 20)
#    0.000    1.867    5.333    1.200    3.733    4.533 
#    4.800    0.000    0.000    3.200    0.000    0.000 
#    0.000    0.000    0.000    0.000    0.000    0.000 
#
# Total GULP energy -167143.787483 kJ/mol
# GULP energy per Si atom -5571.459583 kJ/mol
# Density = 2.242439 g / cm^3
# Si number density = 22.475550 Si / 1000 Ang^3
#
#
#
# Elastic Constant Matrix: (Units=GPa)
#
#
# Indices 1 2 3 4 5 6 
#
# 1 183.9025 29.6167 50.6069 0.0000 0.0000 0.0000
# 2 29.6167 30.9475 2.1737 0.0000 0.0000 0.0000
# 3 50.6069 2.1737 112.4752 0.0000 0.0000 0.0000
# 4 0.0000 0.0000 0.0000 9.7595 0.0000 0.0000
# 5 0.0000 0.0000 0.0000 0.0000 30.0294 0.0000
# 6 0.0000 0.0000 0.0000 0.0000 0.0000 15.4128
#
#
#
# Elastic Compliance Matrix: (Units=1/GPa)
#
#
# Indices 1 2 3 4 5 6 
#
# 1 0.007430 -0.006885 -0.003210 0.000000 0.000000 0.000000
# 2 -0.006885 0.038736 0.002349 0.000000 0.000000 0.000000
# 3 -0.003210 0.002349 0.010290 0.000000 0.000000 0.000000
# 4 0.000000 0.000000 0.000000 0.102465 0.000000 0.000000
# 5 0.000000 0.000000 0.000000 0.000000 0.033301 0.000000
# 6 0.000000 0.000000 0.000000 0.000000 0.000000 0.064881
#
#
# Mechanical properties :
#
#
# Convention : Reuss Voigt Hill
#
# Bulk Modulus (GPa) = 24.41119 54.67998 39.54559
# Shear Modulus (GPa) = 17.46735 27.36887 22.41811
#
# Velocity S-wave (km/s) = 2.79080 3.49337 3.16166
# Velocity P-wave (km/s) = 4.61190 6.37597 5.56428
#
# Compressibility (1/GPa) = 0.04096481
#
# Stress axis : x y z
#
# Youngs Moduli (GPa) = 134.59444 25.81548 97.18464
#
# Poissons Ratio (x) = 0.17773 0.31195
# Poissons Ratio (y) = 0.92665 -0.22830
# Poissons Ratio (z) = 0.43203 -0.06064
#
# Static dielectric constant tensor:
#      x y z
#    x 1.808360 0.000000 0.000000 
#    y 0.000000 2.039030 0.000000 
#    z 0.000000 0.000000 1.833920 
# 
# From -- ./inp_files/31792.got.cif
#   From: 2010.05.17/outbox.cif.g08.bks.cpg/sg21_16_cif.got.tgz:31792.got - 2010.06.03 23:14:55.
