data_PCOD9322778
_publ_section_title
;
Structure prediction by ZEFSAII (Michael W. Deem and Ramdas Pophale) SiO2 
 PCOD9322778
Probable space group: C 2 2 2
;
_chemical_formula_sum "Si O2"
_cell_formula_units_Z 44
_cell_length_a 23.893742
_cell_length_b 19.660446
_cell_length_c 5.741367
_cell_angle_alpha 90.000000
_cell_angle_beta 90.000000
_cell_angle_gamma 90.000000
_cell_volume 2697.073888
_symmetry_space_group_name_H-M "C 2 2 2"
_symmetry_group_IT_number 21
_symmetry_cell_setting 'orthorhombic'
loop_
_space_group_symop_operation_xyz
x,y,z
-x,-y,z
x,-y,-z
-x,y,-z
1/2+x,1/2+y,z
1/2-x,1/2-y,z
1/2+x,1/2-y,-z
1/2-x,1/2+y,-z
loop_
_atom_site_type_symbol
_atom_site_label
_atom_site_fract_x
_atom_site_fract_y
_atom_site_fract_z
Si Si1 0.307537 0.705788 0.727810
Si Si2 0.928097 0.430822 0.367188
Si Si3 0.110621 0.329259 0.245484
Si Si4 0.818000 0.427258 0.068910
Si Si5 0.500000 0.137787 0.000000
Si Si6 0.274926 0.673086 0.230958
O O1 0.250000 0.750000 0.731395
O O2 0.358921 0.758236 0.716042
O O3 0.305149 0.665349 0.481937
O O4 0.307469 0.668865 0.981415
O O5 0.937903 0.500000 0.500000
O O6 0.911931 0.366652 0.526290
O O7 0.873613 0.444551 0.211646
O O8 0.980049 0.409604 0.209994
O O9 0.056362 0.323360 0.077176
O O10 0.157589 0.379937 0.137558
O O11 0.775193 0.380854 0.211531
O O12 0.792570 0.500000 0.000000
O O13 0.250000 0.750000 0.234230
#
# Coordination Sequence:
#
# PCOD9322778 Si02
#       6
#     8   8   8   8   4   8
#     4  10  19  33  56  74  96 132 180 226 267 334
#     4  11  22  36  50  65 100 146 189 231 275 311
#     4  11  21  37  50  71 101 141 188 232 273 320
#     4  11  21  34  51  79 104 138 185 233 272 321
#     4  10  26  35  48  72  98 140 195 240 276 302
#     4  10  19  33  53  77 101 131 180 221 273 326
#
# _framework density 16.313977000000001
#
# number of rings (size 3 to 8) (size 9 to 14) (size 15 to 20)
#    0.000    1.455    5.455    2.727    2.545    2.182 
#    0.000    0.000    0.000    0.000    0.000    0.000 
#    0.000    0.000    0.000    0.818    5.455    1.273 
#
# Total GULP energy -122661.502111 kJ/mol
# GULP energy per Si atom -5575.522823 kJ/mol
# Density = 1.627685 g / cm^3
# Si number density = 16.313977 Si / 1000 Ang^3
#
#
#
# Elastic Constant Matrix: (Units=GPa)
#
#
# Indices 1 2 3 4 5 6 
#
# 1 69.1015 39.1879 24.2762 0.0000 0.0000 0.0000
# 2 39.1879 45.4969 10.5530 0.0000 0.0000 0.0000
# 3 24.2762 10.5530 107.9323 0.0000 0.0000 0.0000
# 4 0.0000 0.0000 0.0000 -12.6138 0.0000 0.0000
# 5 0.0000 0.0000 0.0000 0.0000 391.3015 0.0000
# 6 0.0000 0.0000 0.0000 0.0000 0.0000 11.9469
#
#
#
# Elastic Compliance Matrix: (Units=1/GPa)
#
#
# Indices 1 2 3 4 5 6 
#
# 1 0.030156 -0.024967 -0.004342 0.000000 0.000000 0.000000
# 2 -0.024967 0.043161 0.001396 0.000000 0.000000 0.000000
# 3 -0.004342 0.001396 0.010105 0.000000 0.000000 0.000000
# 4 0.000000 0.000000 0.000000 -0.079279 0.000000 0.000000
# 5 0.000000 0.000000 0.000000 0.000000 0.002556 0.000000
# 6 0.000000 0.000000 0.000000 0.000000 0.000000 0.083703
#
#
# Mechanical properties :
#
#
# Convention : Reuss Voigt Hill
#
# Bulk Modulus (GPa) = 36.23763 41.17390 38.70577
# Shear Modulus (GPa) = 32.16952 88.02783 60.09867
#
# Velocity S-wave (km/s) = 4.44542 7.35362 6.07608
# Velocity P-wave (km/s) = 6.97208 9.86885 8.54412
#
# Compressibility (1/GPa) = 0.02759562
#
# Stress axis : x y z
#
# Youngs Moduli (GPa) = 33.16120 23.16917 98.95985
#
# Poissons Ratio (x) = 0.57847 0.42964
# Poissons Ratio (y) = 0.82794 -0.13811
# Poissons Ratio (z) = 0.14397 -0.03233
#
# Static dielectric constant tensor:
#      x y z
#    x 1.542330 0.000000 0.000000 
#    y 0.000000 1.500840 0.000000 
#    z 0.000000 0.000000 1.655090 
# 
# From -- ./inp_files/6034.got.cif
#   From: 2010.05.17/outbox.cif.g08.bks.cpg/sg21_4_cif.got.tgz:6034.got - 2010.06.03 23:14:55.
