data_PCOD9322464
_publ_section_title
;
Structure prediction by ZEFSAII (Michael W. Deem and Ramdas Pophale) SiO2 
 PCOD9322464
Probable space group: C 2 2 2
;
_chemical_formula_sum "Si O2"
_cell_formula_units_Z 56
_cell_length_a 38.611221
_cell_length_b 5.054441
_cell_length_c 15.856281
_cell_angle_alpha 90.000000
_cell_angle_beta 90.000000
_cell_angle_gamma 90.000000
_cell_volume 3094.482283
_symmetry_space_group_name_H-M "C 2 2 2"
_symmetry_group_IT_number 21
_symmetry_cell_setting 'orthorhombic'
loop_
_space_group_symop_operation_xyz
x,y,z
-x,-y,z
x,-y,-z
-x,y,-z
1/2+x,1/2+y,z
1/2-x,1/2-y,z
1/2+x,1/2-y,-z
1/2-x,1/2+y,-z
loop_
_atom_site_type_symbol
_atom_site_label
_atom_site_fract_x
_atom_site_fract_y
_atom_site_fract_z
Si Si1 0.842660 0.488079 0.289960
Si Si2 0.022382 0.764301 0.830526
Si Si3 0.410802 0.743731 0.943470
Si Si4 0.934513 0.973584 0.691216
Si Si5 0.274854 0.999161 0.402746
Si Si6 0.368047 0.506233 0.197465
Si Si7 0.910368 0.508212 0.399974
O O1 0.806498 0.486127 0.338328
O O2 0.850651 0.774539 0.251686
O O3 0.873263 0.435083 0.358261
O O4 0.846247 0.270935 0.215247
O O5 0.057517 0.690017 0.880520
O O6 0.034454 0.894841 0.742424
O O7 0.000000 0.500000 0.820702
O O8 0.000000 0.000000 0.873244
O O9 0.378129 0.623902 0.891788
O O10 0.423281 0.500000 0.000000
O O11 0.402611 0.000000 0.000000
O O12 0.905579 0.923853 0.763111
O O13 0.919827 0.198312 0.629728
O O14 0.937474 0.701817 0.640042
O O15 0.250000 0.750000 0.392797
O O16 0.287914 0.000000 0.500000
O O17 0.250000 0.250000 0.390578
O O18 0.909150 0.500000 0.500000
#
# Coordination Sequence:
#
# PCOD9322464 Si02
#       7
#     8   8   8   8   8   8   8
#     4  10  18  32  51  73 103 138 179 210 244 305
#     4  11  22  36  54  73  98 137 174 199 243 321
#     4  11  22  36  54  79 110 132 157 209 269 318
#     4   9  19  33  48  70  97 125 163 212 258 299
#     4  10  20  32  47  73 112 151 181 214 255 294
#     4   9  19  33  51  73  99 134 169 208 254 304
#     4  10  18  30  51  74  95 124 167 220 266 298
#
# _framework density 18.096724999999999
#
# number of rings (size 3 to 8) (size 9 to 14) (size 15 to 20)
#    0.000    2.000    0.000    4.286    0.000    6.286 
#    0.000    4.286    0.000    6.429    0.000    0.000 
#    0.000   32.000    0.000    0.000    0.000    0.000 
#
# Total GULP energy -156157.273193 kJ/mol
# GULP energy per Si atom -5577.045471 kJ/mol
# Density = 1.805554 g / cm^3
# Si number density = 18.096725 Si / 1000 Ang^3
#
#
#
# Elastic Constant Matrix: (Units=GPa)
#
#
# Indices 1 2 3 4 5 6 
#
# 1 60.8389 6.4732 8.3163 0.0000 0.0000 0.0000
# 2 6.4732 88.7039 -6.2179 0.0000 0.0000 0.0000
# 3 8.3163 -6.2179 37.5125 0.0000 0.0000 0.0000
# 4 0.0000 0.0000 0.0000 23.0132 0.0000 0.0000
# 5 0.0000 0.0000 0.0000 0.0000 9.2452 0.0000
# 6 0.0000 0.0000 0.0000 0.0000 0.0000 -1.7340
#
#
#
# Elastic Compliance Matrix: (Units=1/GPa)
#
#
# Indices 1 2 3 4 5 6 
#
# 1 0.017155 -0.001536 -0.004058 0.000000 0.000000 0.000000
# 2 -0.001536 0.011544 0.002254 0.000000 0.000000 0.000000
# 3 -0.004058 0.002254 0.027931 0.000000 0.000000 0.000000
# 4 0.000000 0.000000 0.000000 0.043453 0.000000 0.000000
# 5 0.000000 0.000000 0.000000 0.000000 0.108165 0.000000
# 6 0.000000 0.000000 0.000000 0.000000 0.000000 -0.576706
#
#
# Mechanical properties :
#
#
# Convention : Reuss Voigt Hill
#
# Bulk Modulus (GPa) = 20.02031 22.68872 21.35452
# Shear Modulus (GPa) = -14.48734 18.00380 1.75823
#
# Velocity S-wave (km/s) = -2.83247 3.15757 0.98675
# Velocity P-wave (km/s) = 0.62433 5.08511 3.62272
#
# Compressibility (1/GPa) = 0.04994927
#
# Stress axis : x y z
#
# Youngs Moduli (GPa) = 58.29209 86.62820 35.80254
#
# Poissons Ratio (x) = 0.13309 0.14528
# Poissons Ratio (y) = 0.08956 -0.08070
# Poissons Ratio (z) = 0.23654 -0.19526
#
# Static dielectric constant tensor:
#      x y z
#    x 1.616370 0.000000 0.000000 
#    y 0.000000 1.631050 0.000000 
#    z 0.000000 0.000000 1.651320 
# 
# From -- ./inp_files/34031.got.cif
#   From: 2010.05.17/outbox.cif.g08.bks.cpg/sg21_18_cif.got.tgz:34031.got - 2010.06.03 23:14:55.
