data_PCOD9322026
_publ_section_title
;
Structure prediction by ZEFSAII (Michael W. Deem and Ramdas Pophale) SiO2 
 PCOD9322026
Probable space group: C 2 2 21
;
_chemical_formula_sum "Si O2"
_cell_formula_units_Z 40
_cell_length_a 10.801398
_cell_length_b 19.175698
_cell_length_c 7.954464
_cell_angle_alpha 90.000000
_cell_angle_beta 90.000000
_cell_angle_gamma 90.000000
_cell_volume 1647.563154
_symmetry_space_group_name_H-M "C 2 2 21"
_symmetry_group_IT_number 20
_symmetry_cell_setting 'orthorhombic'
loop_
_space_group_symop_operation_xyz
x,y,z
-x,-y,1/2+z
x,-y,-z
-x,y,1/2-z
1/2+x,1/2+y,z
1/2-x,1/2-y,1/2+z
1/2+x,1/2-y,-z
1/2-x,1/2+y,1/2-z
loop_
_atom_site_type_symbol
_atom_site_label
_atom_site_fract_x
_atom_site_fract_y
_atom_site_fract_z
Si Si1 0.291080 0.000000 0.500000
Si Si2 0.290958 0.736598 0.410559
Si Si3 0.087520 0.875123 0.090256
Si Si4 0.654540 0.355089 0.593083
Si Si5 0.660270 0.051860 0.640239
Si Si6 0.500000 0.829069 0.250000
O O1 0.217307 0.928705 0.546049
O O2 0.356556 0.978661 0.326721
O O3 0.333869 0.695712 0.577219
O O4 0.286418 0.676240 0.266076
O O5 0.185201 0.791487 0.462656
O O6 0.406601 0.782998 0.354484
O O7 0.194297 0.932827 0.106299
O O8 0.000000 0.881581 0.250000
O O9 0.991409 0.871748 0.933834
O O10 0.583515 0.122744 0.632106
O O11 0.615792 0.000000 0.500000
#
# Coordination Sequence:
#
# PCOD9322026 Si02
#       6
#     4   8   8   8   8   4
#     4  12  26  48  72 114 150 194 252 316 380 464
#     4  12  25  47  79 106 149 201 256 315 381 460
#     4  12  24  46  73 107 146 193 251 313 376 456
#     4  12  25  47  76 109 150 196 256 312 386 455
#     4  12  29  48  74 106 152 202 249 312 389 459
#     4  12  24  50  70 110 146 190 262 312 368 472
#
# _framework density 24.278279999999999
#
# number of rings (size 3 to 8) (size 9 to 14) (size 15 to 20)
#    0.000    0.000    6.000    3.600    2.800    0.000 
#    3.600    0.000    0.000    0.000    0.000    0.000 
#    0.000    0.000    0.000    0.000    0.000    0.000 
#
# Total GULP energy -111821.950789 kJ/mol
# GULP energy per Si atom -5591.097539 kJ/mol
# Density = 2.422302 g / cm^3
# Si number density = 24.278280 Si / 1000 Ang^3
#
#
#
# Elastic Constant Matrix: (Units=GPa)
#
#
# Indices 1 2 3 4 5 6 
#
# 1 89.7662 28.0651 20.4044 0.0000 0.0000 0.0000
# 2 28.0651 137.4008 42.4237 0.0000 0.0000 0.0000
# 3 20.4044 42.4237 90.5699 0.0000 0.0000 0.0000
# 4 0.0000 0.0000 0.0000 36.4491 0.0000 0.0000
# 5 0.0000 0.0000 0.0000 0.0000 30.2768 0.0000
# 6 0.0000 0.0000 0.0000 0.0000 0.0000 34.3814
#
#
#
# Elastic Compliance Matrix: (Units=1/GPa)
#
#
# Indices 1 2 3 4 5 6 
#
# 1 0.012157 -0.001914 -0.001842 0.000000 0.000000 0.000000
# 2 -0.001914 0.008810 -0.003695 0.000000 0.000000 0.000000
# 3 -0.001842 -0.003695 0.013187 0.000000 0.000000 0.000000
# 4 0.000000 0.000000 0.000000 0.027436 0.000000 0.000000
# 5 0.000000 0.000000 0.000000 0.000000 0.033029 0.000000
# 6 0.000000 0.000000 0.000000 0.000000 0.000000 0.029085
#
#
# Mechanical properties :
#
#
# Convention : Reuss Voigt Hill
#
# Bulk Modulus (GPa) = 51.94664 55.50258 53.72461
# Shear Modulus (GPa) = 34.47685 35.34439 34.91062
#
# Velocity S-wave (km/s) = 3.77247 3.81964 3.79613
# Velocity P-wave (km/s) = 6.35753 6.50872 6.43357
#
# Compressibility (1/GPa) = 0.01925052
#
# Stress axis : x y z
#
# Youngs Moduli (GPa) = 82.25491 113.50749 75.83130
#
# Poissons Ratio (x) = 0.21730 0.13969
# Poissons Ratio (y) = 0.15747 0.28023
# Poissons Ratio (z) = 0.15153 0.41945
#
# Static dielectric constant tensor:
#      x y z
#    x 1.953890 0.000000 0.000000 
#    y 0.000000 1.901150 0.000000 
#    z 0.000000 0.000000 2.178670 
# 
# From -- ./inp_files/7087.got.cif
#   From: 2010.05.17/outbox.cif.g08.bks.cpg/sg20_4_cif.got.tgz:7087.got - 2010.06.03 22:52:26.
