data_PCOD9322494
_publ_section_title
;
Structure prediction by ZEFSAII (Michael W. Deem and Ramdas Pophale) SiO2 
 PCOD9322494
Probable space group: C 2 2 2
;
_chemical_formula_sum "Si O2"
_cell_formula_units_Z 36
_cell_length_a 7.157204
_cell_length_b 16.501628
_cell_length_c 13.771389
_cell_angle_alpha 90.000000
_cell_angle_beta 90.000000
_cell_angle_gamma 90.000000
_cell_volume 1626.477030
_symmetry_space_group_name_H-M "C 2 2 2"
_symmetry_group_IT_number 21
_symmetry_cell_setting 'orthorhombic'
loop_
_space_group_symop_operation_xyz
x,y,z
-x,-y,z
x,-y,-z
-x,y,-z
1/2+x,1/2+y,z
1/2-x,1/2-y,z
1/2+x,1/2-y,-z
1/2-x,1/2+y,-z
loop_
_atom_site_type_symbol
_atom_site_label
_atom_site_fract_x
_atom_site_fract_y
_atom_site_fract_z
Si Si1 0.702998 0.589542 0.720983
Si Si2 0.280036 0.655888 0.482411
Si Si3 0.250000 0.750000 0.791785
Si Si4 0.743909 0.587622 0.322239
Si Si5 0.897787 0.182726 0.091800
O O1 0.779393 0.638937 0.628057
O O2 0.791407 0.500490 0.718638
O O3 0.481766 0.587088 0.694281
O O4 0.706549 0.628515 0.827460
O O5 0.500000 0.642462 0.500000
O O6 0.250000 0.750000 0.505347
O O7 0.198314 0.598050 0.565634
O O8 0.195585 0.670061 0.730560
O O9 0.068127 0.774164 0.852409
O O10 0.750000 0.250000 0.057265
O O11 0.000000 0.140685 0.000000
#
# Coordination Sequence:
#
# PCOD9322494 Si02
#       5
#     8   8   4   8   8
#     4   9  19  33  56  89 118 157 198 258 300 362
#     4  10  18  31  55  85 118 157 200 238 298 376
#     4  10  20  38  64  88 116 162 204 252 306 378
#     4   9  17  34  57  86 120 157 199 242 312 366
#     4  11  22  40  65  89 118 160 211 255 312 365
#
# _framework density 22.133728000000001
#
# number of rings (size 3 to 8) (size 9 to 14) (size 15 to 20)
#    0.000    2.222    2.222    1.333    0.000    2.667 
#    0.000   10.000    0.000    2.667    0.000    0.000 
#    0.000    0.000    0.000    0.000    0.000    0.000 
#
# Total GULP energy -100384.887847 kJ/mol
# GULP energy per Si atom -5576.938214 kJ/mol
# Density = 2.208335 g / cm^3
# Si number density = 22.133728 Si / 1000 Ang^3
#
#
#
# Elastic Constant Matrix: (Units=GPa)
#
#
# Indices 1 2 3 4 5 6 
#
# 1 70.3446 0.5187 14.8638 0.0000 0.0000 0.0000
# 2 0.5187 129.6913 75.9169 0.0000 0.0000 0.0000
# 3 14.8638 75.9169 158.5857 0.0000 0.0000 0.0000
# 4 0.0000 0.0000 0.0000 31.0315 0.0000 0.0000
# 5 0.0000 0.0000 0.0000 0.0000 26.2217 0.0000
# 6 0.0000 0.0000 0.0000 0.0000 0.0000 9.7139
#
#
#
# Elastic Compliance Matrix: (Units=1/GPa)
#
#
# Indices 1 2 3 4 5 6 
#
# 1 0.014602 0.001032 -0.001863 0.000000 0.000000 0.000000
# 2 0.001032 0.010785 -0.005260 0.000000 0.000000 0.000000
# 3 -0.001863 -0.005260 0.008998 0.000000 0.000000 0.000000
# 4 0.000000 0.000000 0.000000 0.032225 0.000000 0.000000
# 5 0.000000 0.000000 0.000000 0.000000 0.038136 0.000000
# 6 0.000000 0.000000 0.000000 0.000000 0.000000 0.102945
#
#
# Mechanical properties :
#
#
# Convention : Reuss Voigt Hill
#
# Bulk Modulus (GPa) = 45.03622 60.13559 52.58591
# Shear Modulus (GPa) = 21.99983 31.21491 26.60737
#
# Velocity S-wave (km/s) = 3.15612 3.75945 3.47092
# Velocity P-wave (km/s) = 5.80284 6.78770 6.31450
#
# Compressibility (1/GPa) = 0.02220435
#
# Stress axis : x y z
#
# Youngs Moduli (GPa) = 68.48530 92.71784 111.13269
#
# Poissons Ratio (x) = -0.09567 0.20699
# Poissons Ratio (y) = -0.07067 0.58454
# Poissons Ratio (z) = 0.12756 0.48768
#
# Static dielectric constant tensor:
#      x y z
#    x 1.875760 0.000000 0.000000 
#    y 0.000000 1.799840 0.000000 
#    z 0.000000 0.000000 1.847350 
# 
# From -- ./inp_files/23574.got.cif
#   From: 2010.05.17/outbox.cif.g08.bks.cpg/sg21_12_cif.got.tgz:23574.got - 2010.06.03 23:14:55.
