data_PCOD9322138
_publ_section_title
;
Structure prediction by ZEFSAII (Michael W. Deem and Ramdas Pophale) SiO2 
 PCOD9322138
Probable space group: C 2 2 21
;
_chemical_formula_sum "Si O2"
_cell_formula_units_Z 20
_cell_length_a 12.996646
_cell_length_b 5.710210
_cell_length_c 10.192481
_cell_angle_alpha 90.000000
_cell_angle_beta 90.000000
_cell_angle_gamma 90.000000
_cell_volume 756.420483
_symmetry_space_group_name_H-M "C 2 2 21"
_symmetry_group_IT_number 20
_symmetry_cell_setting 'orthorhombic'
loop_
_space_group_symop_operation_xyz
x,y,z
-x,-y,1/2+z
x,-y,-z
-x,y,1/2-z
1/2+x,1/2+y,z
1/2-x,1/2-y,1/2+z
1/2+x,1/2-y,-z
1/2-x,1/2+y,1/2-z
loop_
_atom_site_type_symbol
_atom_site_label
_atom_site_fract_x
_atom_site_fract_y
_atom_site_fract_z
Si Si1 0.963115 0.000000 0.500000
Si Si2 0.595434 0.775347 0.665934
Si Si3 0.670684 0.145248 0.864241
O O1 0.882520 0.109390 0.396179
O O2 0.041945 0.216997 0.527144
O O3 0.500000 0.675800 0.750000
O O4 0.708095 0.664566 0.661631
O O5 0.618378 0.018565 0.740486
O O6 0.658423 0.000000 0.000000
#
# Coordination Sequence:
#
# PCOD9322138 Si02
#       3
#     4   8   8
#     4  12  28  56  82 120 164 212 266 340 402 476
#     4  12  27  53  83 118 162 214 270 330 410 472
#     4  12  28  53  81 122 160 213 272 332 398 490
#
# _framework density 26.440318000000001
#
# number of rings (size 3 to 8) (size 9 to 14) (size 15 to 20)
#    0.000    0.000    6.000    2.400    0.000    8.000 
#    0.000    0.000    0.000    0.000    0.000    0.000 
#    0.000    0.000    0.000    0.000    0.000    0.000 
#
# Total GULP energy -55759.938396 kJ/mol
# GULP energy per Si atom -5575.993840 kJ/mol
# Density = 2.638014 g / cm^3
# Si number density = 26.440318 Si / 1000 Ang^3
#
#
#
# Elastic Constant Matrix: (Units=GPa)
#
#
# Indices 1 2 3 4 5 6 
#
# 1 287.0438 82.3569 68.1261 0.0000 0.0000 0.0000
# 2 82.3569 104.8580 62.8283 0.0000 0.0000 0.0000
# 3 68.1261 62.8283 87.1070 0.0000 0.0000 0.0000
# 4 0.0000 0.0000 0.0000 64.2479 0.0000 0.0000
# 5 0.0000 0.0000 0.0000 0.0000 192.5812 0.0000
# 6 0.0000 0.0000 0.0000 0.0000 0.0000 37.2120
#
#
#
# Elastic Compliance Matrix: (Units=1/GPa)
#
#
# Indices 1 2 3 4 5 6 
#
# 1 0.004646 -0.002592 -0.001764 0.000000 0.000000 0.000000
# 2 -0.002592 0.018241 -0.011130 0.000000 0.000000 0.000000
# 3 -0.001764 -0.011130 0.020887 0.000000 0.000000 0.000000
# 4 0.000000 0.000000 0.000000 0.015565 0.000000 0.000000
# 5 0.000000 0.000000 0.000000 0.000000 0.005193 0.000000
# 6 0.000000 0.000000 0.000000 0.000000 0.000000 0.026873
#
#
# Mechanical properties :
#
#
# Convention : Reuss Voigt Hill
#
# Bulk Modulus (GPa) = 78.10687 100.62571 89.36629
# Shear Modulus (GPa) = 39.48049 76.52139 58.00094
#
# Velocity S-wave (km/s) = 3.86838 5.38554 4.68873
# Velocity P-wave (km/s) = 7.03970 8.76426 7.94889
#
# Compressibility (1/GPa) = 0.01280297
#
# Stress axis : x y z
#
# Youngs Moduli (GPa) = 215.22908 54.82074 47.87572
#
# Poissons Ratio (x) = 0.14211 0.08446
# Poissons Ratio (y) = 0.55792 0.53284
# Poissons Ratio (z) = 0.37969 0.61014
#
# Static dielectric constant tensor:
#      x y z
#    x 1.923000 0.000000 0.000000 
#    y 0.000000 2.083480 0.000000 
#    z 0.000000 0.000000 2.749440 
# 
# From -- ./inp_files/5389.got.cif
#   From: 2010.05.17/outbox.cif.g08.bks.cpg/sg20_3_cif.got.tgz:5389.got - 2010.06.03 22:52:26.
