data_PCOD9322166
_publ_section_title
;
Structure prediction by ZEFSAII (Michael W. Deem and Ramdas Pophale) SiO2 
 PCOD9322166
Probable space group: C 2 2 21
;
_chemical_formula_sum "Si O2"
_cell_formula_units_Z 32
_cell_length_a 14.902497
_cell_length_b 8.730950
_cell_length_c 10.823108
_cell_angle_alpha 90.000000
_cell_angle_beta 90.000000
_cell_angle_gamma 90.000000
_cell_volume 1408.226577
_symmetry_space_group_name_H-M "C 2 2 21"
_symmetry_group_IT_number 20
_symmetry_cell_setting 'orthorhombic'
loop_
_space_group_symop_operation_xyz
x,y,z
-x,-y,1/2+z
x,-y,-z
-x,y,1/2-z
1/2+x,1/2+y,z
1/2-x,1/2-y,1/2+z
1/2+x,1/2-y,-z
1/2-x,1/2+y,1/2-z
loop_
_atom_site_type_symbol
_atom_site_label
_atom_site_fract_x
_atom_site_fract_y
_atom_site_fract_z
Si Si1 0.840027 0.795967 0.682257
Si Si2 0.700135 0.356311 0.164536
Si Si3 0.347228 0.326688 0.960646
Si Si4 0.968203 0.816789 0.467771
O O1 0.755554 0.686989 0.713084
O O2 0.883669 0.824148 0.818137
O O3 0.912798 0.745574 0.582499
O O4 0.802496 0.963099 0.649211
O O5 0.758387 0.273303 0.057875
O O6 0.597861 0.301856 0.148715
O O7 0.429768 0.262946 0.040538
O O8 0.327447 0.500000 0.000000
O O9 0.974662 0.000000 0.500000
#
# Coordination Sequence:
#
# PCOD9322166 Si02
#       4
#     8   8   8   8
#     4   9  19  33  55  84 107 147 179 233 278 327
#     4   9  20  31  58  84 111 142 187 232 271 336
#     4   9  19  31  56  84 106 147 186 228 269 331
#     4   9  17  34  52  81 108 142 190 230 265 320
#
# _framework density 22.723616
#
# number of rings (size 3 to 8) (size 9 to 14) (size 15 to 20)
#    1.500    1.500    0.000    0.750    3.500    0.000 
#    0.000    0.000    0.000   22.500    0.000    0.000 
#    0.000    0.000    0.000    0.000    0.000    0.000 
#
# Total GULP energy -89138.779862 kJ/mol
# GULP energy per Si atom -5571.173741 kJ/mol
# Density = 2.267190 g / cm^3
# Si number density = 22.723616 Si / 1000 Ang^3
#
#
#
# Elastic Constant Matrix: (Units=GPa)
#
#
# Indices 1 2 3 4 5 6 
#
# 1 143.8178 31.2467 0.9759 0.0000 0.0000 0.0000
# 2 31.2467 27.0753 3.4236 0.0000 0.0000 0.0000
# 3 0.9759 3.4236 57.1073 0.0000 0.0000 0.0000
# 4 0.0000 0.0000 0.0000 36.4910 0.0000 0.0000
# 5 0.0000 0.0000 0.0000 0.0000 34.1371 0.0000
# 6 0.0000 0.0000 0.0000 0.0000 0.0000 25.8579
#
#
#
# Elastic Compliance Matrix: (Units=1/GPa)
#
#
# Indices 1 2 3 4 5 6 
#
# 1 0.009294 -0.010787 0.000488 0.000000 0.000000 0.000000
# 2 -0.010787 0.049737 -0.002797 0.000000 0.000000 0.000000
# 3 0.000488 -0.002797 0.017670 0.000000 0.000000 0.000000
# 4 0.000000 0.000000 0.000000 0.027404 0.000000 0.000000
# 5 0.000000 0.000000 0.000000 0.000000 0.029294 0.000000
# 6 0.000000 0.000000 0.000000 0.000000 0.000000 0.038673
#
#
# Mechanical properties :
#
#
# Convention : Reuss Voigt Hill
#
# Bulk Modulus (GPa) = 19.79910 33.25474 26.52692
# Shear Modulus (GPa) = 23.24501 32.12083 27.68292
#
# Velocity S-wave (km/s) = 3.20182 3.76379 3.49412
# Velocity P-wave (km/s) = 4.73295 5.79261 5.28938
#
# Compressibility (1/GPa) = 0.05050736
#
# Stress axis : x y z
#
# Youngs Moduli (GPa) = 107.60103 20.10590 56.59225
#
# Poissons Ratio (x) = 0.21688 -0.02761
# Poissons Ratio (y) = 1.16070 0.15831
# Poissons Ratio (z) = -0.05249 0.05624
#
# Static dielectric constant tensor:
#      x y z
#    x 1.869790 0.000000 0.000000 
#    y 0.000000 1.781890 0.000000 
#    z 0.000000 0.000000 2.037160 
# 
# From -- ./inp_files/13748.got.cif
#   From: 2010.05.17/outbox.cif.g08.bks.cpg/sg20_7_cif.got.tgz:13748.got - 2010.06.03 22:52:26.
