data_PCOD9322766
_publ_section_title
;
Structure prediction by ZEFSAII (Michael W. Deem and Ramdas Pophale) SiO2 
 PCOD9322766
Probable space group: C 2 2 2
;
_chemical_formula_sum "Si O2"
_cell_formula_units_Z 64
_cell_length_a 29.144644
_cell_length_b 9.318687
_cell_length_c 15.820246
_cell_angle_alpha 90.000000
_cell_angle_beta 90.000000
_cell_angle_gamma 90.000000
_cell_volume 4296.617687
_symmetry_space_group_name_H-M "C 2 2 2"
_symmetry_group_IT_number 21
_symmetry_cell_setting 'orthorhombic'
loop_
_space_group_symop_operation_xyz
x,y,z
-x,-y,z
x,-y,-z
-x,y,-z
1/2+x,1/2+y,z
1/2-x,1/2-y,z
1/2+x,1/2-y,-z
1/2-x,1/2+y,-z
loop_
_atom_site_type_symbol
_atom_site_label
_atom_site_fract_x
_atom_site_fract_y
_atom_site_fract_z
Si Si1 0.396581 0.827280 0.844261
Si Si2 0.444202 0.334837 0.500000
Si Si3 0.445163 0.329813 1.000000
Si Si4 0.396581 0.827280 0.155739
Si Si5 0.796042 0.670896 0.099677
Si Si6 0.296042 0.829104 0.099677
Si Si7 0.445869 0.170872 0.669006
Si Si8 0.945869 0.329128 0.669006
O O1 0.342753 0.791239 0.852171
O O2 0.417759 0.792797 0.753105
O O3 0.401062 0.000000 0.857679
O O4 0.423536 0.745162 0.917786
O O5 0.429714 0.500000 0.500000
O O6 0.500000 0.331008 0.500000
O O7 0.430065 0.254446 0.585601
O O8 0.430065 0.254446 0.414399
O O9 0.423536 0.254838 0.917786
O O10 0.435324 0.500000 0.000000
O O11 0.500000 0.310449 0.000000
O O12 0.342753 0.791239 0.147829
O O13 0.417759 0.792797 0.246895
O O14 0.750000 0.750000 0.128182
O O15 0.789384 0.500000 0.105906
O O16 0.803231 0.705274 0.000000
O O17 0.250000 0.750000 0.128182
O O18 0.500000 0.202031 0.683346
O O19 0.441986 1.000000 0.654236
#
# Coordination Sequence:
#
# PCOD9322766 Si02
#       8
#     8   8   8   8   8   8   8   8
#     4  10  19  33  50  68  90 122 161 195 228 271
#     4   9  17  29  45  65  92 123 150 183 228 273
#     4  11  23  33  42  63  96 129 158 189 226 271
#     4  10  19  33  50  68  90 122 161 195 228 271
#     4   9  17  30  47  67  90 117 152 193 234 275
#     4   9  17  30  47  67  90 117 152 193 234 275
#     4   9  17  29  47  69  91 118 154 192 226 265
#     4   9  17  29  47  69  91 118 154 192 226 265
#
# _framework density 14.895438
#
# number of rings (size 3 to 8) (size 9 to 14) (size 15 to 20)
#    0.000    2.500    1.250    1.500    0.000    5.500 
#    0.000    2.500    0.000    0.000    0.000    0.875 
#    0.000    0.000    0.000    0.000    0.000    0.000 
#
# Total GULP energy -178398.270720 kJ/mol
# GULP energy per Si atom -5574.945960 kJ/mol
# Density = 1.486154 g / cm^3
# Si number density = 14.895438 Si / 1000 Ang^3
#
#
#
# Elastic Constant Matrix: (Units=GPa)
#
#
# Indices 1 2 3 4 5 6 
#
# 1 103.5709 53.6797 76.6892 0.0000 0.0000 0.0000
# 2 53.6797 49.1797 69.1149 0.0000 0.0000 0.0000
# 3 76.6892 69.1149 142.8052 0.0000 0.0000 0.0000
# 4 0.0000 0.0000 0.0000 10.1200 0.0000 0.0000
# 5 0.0000 0.0000 0.0000 0.0000 5.8306 0.0000
# 6 0.0000 0.0000 0.0000 0.0000 0.0000 22.7970
#
#
#
# Elastic Compliance Matrix: (Units=1/GPa)
#
#
# Indices 1 2 3 4 5 6 
#
# 1 0.022249 -0.023429 -0.000609 0.000000 0.000000 0.000000
# 2 -0.023429 0.088247 -0.030128 0.000000 0.000000 0.000000
# 3 -0.000609 -0.030128 0.021911 0.000000 0.000000 0.000000
# 4 0.000000 0.000000 0.000000 0.098814 0.000000 0.000000
# 5 0.000000 0.000000 0.000000 0.000000 0.171510 0.000000
# 6 0.000000 0.000000 0.000000 0.000000 0.000000 0.043865
#
#
# Mechanical properties :
#
#
# Convention : Reuss Voigt Hill
#
# Bulk Modulus (GPa) = 41.53696 77.16927 59.35311
# Shear Modulus (GPa) = 8.88173 14.15432 11.51802
#
# Velocity S-wave (km/s) = 2.44452 3.08595 2.78377
# Velocity P-wave (km/s) = 5.99281 8.03848 7.08982
#
# Compressibility (1/GPa) = 0.02407495
#
# Stress axis : x y z
#
# Youngs Moduli (GPa) = 44.94524 11.33182 45.63939
#
# Poissons Ratio (x) = 0.26550 0.02779
# Poissons Ratio (y) = 1.05304 1.37502
# Poissons Ratio (z) = 0.02737 0.34140
#
# Static dielectric constant tensor:
#      x y z
#    x 1.479500 0.000000 0.000000 
#    y 0.000000 1.497470 0.000000 
#    z 0.000000 0.000000 1.471030 
# 
# From -- ./inp_files/34083.got.cif
#   From: 2010.05.17/outbox.cif.g08.bks.cpg/sg21_18_cif.got.tgz:34083.got - 2010.06.03 23:14:55.
