data_PCOD9322203
_publ_section_title
;
Structure prediction by ZEFSAII (Michael W. Deem and Ramdas Pophale) SiO2 
 PCOD9322203
Probable space group: C 2 2 21
;
_chemical_formula_sum "Si O2"
_cell_formula_units_Z 20
_cell_length_a 9.000000
_cell_length_b 24.000000
_cell_length_c 9.000000
_cell_angle_alpha 90.000000
_cell_angle_beta 90.000000
_cell_angle_gamma 90.000000
_cell_volume 1944.000000
_symmetry_space_group_name_H-M "C 2 2 21"
_symmetry_group_IT_number 20
_symmetry_cell_setting 'orthorhombic'
loop_
_space_group_symop_operation_xyz
x,y,z
-x,-y,1/2+z
x,-y,-z
-x,y,1/2-z
1/2+x,1/2+y,z
1/2-x,1/2-y,1/2+z
1/2+x,1/2-y,-z
1/2-x,1/2+y,1/2-z
loop_
_atom_site_type_symbol
_atom_site_label
_atom_site_fract_x
_atom_site_fract_y
_atom_site_fract_z
Si Si1 0.112018 0.548965 0.618303
Si Si2 0.897739 0.355384 0.889132
Si Si3 0.165656 0.125075 0.687576
Si Si4 0.843124 0.277099 0.163208
Si Si5 0.343334 0.645478 0.164713
O O1 0.150957 0.500000 0.500000
O O2 0.047566 0.598050 0.508518
O O3 0.239774 0.579320 0.717642
O O4 0.000000 0.529865 0.750000
O O5 0.763969 0.380479 0.790498
O O6 0.000000 0.338001 0.750000
O O7 0.854551 0.304485 0.998424
O O8 0.231597 0.184655 0.741520
O O9 0.166030 0.122361 0.505447
O O10 0.000000 0.121163 0.750000
O O11 0.805990 0.211792 0.152833
O O12 0.000000 0.281723 0.250000
O O13 0.500000 0.641763 0.250000
#
# Coordination Sequence:
#
# PCOD9322203 Si02
#       5
#     8   8   8   8   8
#     4  11  24  45  69  93 117 152 202 256 315 375
#     4  11  21  36  60  89 121 158 205 259 310 359
#     4  11  23  41  62  91 130 165 204 254 306 362
#     4  10  21  36  57  89 129 173 216 248 288 352
#     4  11  22  36  58  90 129 172 209 247 297 356
#
# _framework density 10.288066000000001
#
# number of rings (size 3 to 8) (size 9 to 14) (size 15 to 20)
#    0.000    1.200    0.000    9.000    0.000    6.400 
#    0.000    4.000    0.000    0.000    0.000    0.000 
#    0.000    0.000    0.000    0.000    0.000    0.000 
#
# Total GULP energy -111566.274813 kJ/mol
# GULP energy per Si atom -5578.313741 kJ/mol
# Density = 1.026465 g / cm^3
# Si number density = 10.288066 Si / 1000 Ang^3
#
#
#
# Elastic Constant Matrix: (Units=GPa)
#
#
# Indices 1 2 3 4 5 6 
#
# 1 96.6304 9.6795 43.2757 0.0000 0.0000 0.0000
# 2 9.6795 62.3489 33.0671 0.0000 0.0000 0.0000
# 3 43.2757 33.0671 221.2431 0.0000 0.0000 0.0000
# 4 0.0000 0.0000 0.0000 38.4784 0.0000 0.0000
# 5 0.0000 0.0000 0.0000 0.0000 40.9641 0.0000
# 6 0.0000 0.0000 0.0000 0.0000 0.0000 15.7869
#
#
#
# Elastic Compliance Matrix: (Units=1/GPa)
#
#
# Indices 1 2 3 4 5 6 
#
# 1 0.011365 -0.000636 -0.002128 0.000000 0.000000 0.000000
# 2 -0.000636 0.017455 -0.002484 0.000000 0.000000 0.000000
# 3 -0.002128 -0.002484 0.005308 0.000000 0.000000 0.000000
# 4 0.000000 0.000000 0.000000 0.025989 0.000000 0.000000
# 5 0.000000 0.000000 0.000000 0.000000 0.024412 0.000000
# 6 0.000000 0.000000 0.000000 0.000000 0.000000 0.063343
#
#
# Mechanical properties :
#
#
# Convention : Reuss Voigt Hill
#
# Bulk Modulus (GPa) = 42.31670 61.36300 51.83985
# Shear Modulus (GPa) = 30.07596 38.65922 34.36759
#
# Velocity S-wave (km/s) = 3.82736 4.33926 4.09132
# Velocity P-wave (km/s) = 6.33578 7.41571 6.89691
#
# Compressibility (1/GPa) = 0.02363133
#
# Stress axis : x y z
#
# Youngs Moduli (GPa) = 87.98592 57.28973 188.41242
#
# Poissons Ratio (x) = 0.03643 0.40096
# Poissons Ratio (y) = 0.05594 0.46811
# Poissons Ratio (z) = 0.18724 0.14234
#
# Static dielectric constant tensor:
#      x y z
#    x 1.895810 0.000000 0.000000 
#    y 0.000000 1.747990 0.000000 
#    z 0.000000 0.000000 1.687590 
# 
# From -- ./inp_files/6029.got.cif
#   From: 2010.05.17/outbox.ucp.g08.bks.cvg/sg20_4_cif.got.tgz:6029.got - 2010.06.11 15:13:06.
