data_PCOD9322300
_publ_section_title
;
Structure prediction by ZEFSAII (Michael W. Deem and Ramdas Pophale) SiO2 
 PCOD9322300
Probable space group: C 2 2 2
;
_chemical_formula_sum "Si O2"
_cell_formula_units_Z 48
_cell_length_a 12.345215
_cell_length_b 26.472284
_cell_length_c 7.389217
_cell_angle_alpha 90.000000
_cell_angle_beta 90.000000
_cell_angle_gamma 90.000000
_cell_volume 2414.840728
_symmetry_space_group_name_H-M "C 2 2 2"
_symmetry_group_IT_number 21
_symmetry_cell_setting 'orthorhombic'
loop_
_space_group_symop_operation_xyz
x,y,z
-x,-y,z
x,-y,-z
-x,y,-z
1/2+x,1/2+y,z
1/2-x,1/2-y,z
1/2+x,1/2-y,-z
1/2-x,1/2+y,-z
loop_
_atom_site_type_symbol
_atom_site_label
_atom_site_fract_x
_atom_site_fract_y
_atom_site_fract_z
Si Si1 0.282813 0.810128 0.307259
Si Si2 0.874167 0.058644 0.039969
Si Si3 0.758884 0.647905 0.106073
Si Si4 0.023072 0.316868 0.218373
Si Si5 0.901755 0.120702 0.381835
Si Si6 0.949335 0.794810 0.199726
O O1 0.250000 0.750000 0.325751
O O2 0.410470 0.823533 0.324916
O O3 0.207405 0.847524 0.425668
O O4 0.265856 0.826345 0.095071
O O5 0.862135 0.077327 0.245496
O O6 0.794170 0.093158 0.922741
O O7 0.000000 0.071602 0.000000
O O8 0.858226 0.000000 0.000000
O O9 0.871152 0.648059 0.214847
O O10 0.668259 0.681874 0.197438
O O11 0.058008 0.260896 0.276463
O O12 0.000000 0.315840 0.000000
O O13 0.000000 0.097395 0.500000
O O14 0.970058 0.166813 0.294618
O O15 0.000000 0.790644 0.000000
#
# Coordination Sequence:
#
# PCOD9322300 Si02
#       6
#     8   8   8   8   8   8
#     4  10  16  30  49  73 113 154 186 226 272 332
#     4  10  19  35  58  78 105 143 186 245 304 331
#     4  10  16  27  50  81 104 137 190 243 280 327
#     4   9  17  24  48  80 108 144 192 223 269 324
#     4  11  21  33  53  77 114 148 184 227 287 345
#     4  11  15  29  50  75 104 146 183 229 270 319
#
# _framework density 19.877087
#
# number of rings (size 3 to 8) (size 9 to 14) (size 15 to 20)
#    0.000    1.833    6.667    2.500    0.000    0.000 
#    0.000    3.333    0.000   12.500    0.000    0.000 
#    0.000    0.000   45.333    0.000    0.000    0.000 
#
# Total GULP energy -133642.357751 kJ/mol
# GULP energy per Si atom -5568.431573 kJ/mol
# Density = 1.983185 g / cm^3
# Si number density = 19.877087 Si / 1000 Ang^3
#
#
#
# Elastic Constant Matrix: (Units=GPa)
#
#
# Indices 1 2 3 4 5 6 
#
# 1 175.0714 54.6466 21.2145 0.0000 0.0000 0.0000
# 2 54.6466 107.8921 15.1344 0.0000 0.0000 0.0000
# 3 21.2145 15.1344 38.4342 0.0000 0.0000 0.0000
# 4 0.0000 0.0000 0.0000 19.7279 0.0000 0.0000
# 5 0.0000 0.0000 0.0000 0.0000 17.7644 0.0000
# 6 0.0000 0.0000 0.0000 0.0000 0.0000 30.2356
#
#
#
# Elastic Compliance Matrix: (Units=1/GPa)
#
#
# Indices 1 2 3 4 5 6 
#
# 1 0.007026 -0.003191 -0.002621 0.000000 0.000000 0.000000
# 2 -0.003191 0.011259 -0.002673 0.000000 0.000000 0.000000
# 3 -0.002621 -0.002673 0.028518 0.000000 0.000000 0.000000
# 4 0.000000 0.000000 0.000000 0.050690 0.000000 0.000000
# 5 0.000000 0.000000 0.000000 0.000000 0.056292 0.000000
# 6 0.000000 0.000000 0.000000 0.000000 0.000000 0.033074
#
#
# Mechanical properties :
#
#
# Convention : Reuss Voigt Hill
#
# Bulk Modulus (GPa) = 33.51937 55.93208 44.72573
# Shear Modulus (GPa) = 23.38938 28.90573 26.14755
#
# Velocity S-wave (km/s) = 3.43403 3.81757 3.63086
# Velocity P-wave (km/s) = 5.71168 6.90158 6.33463
#
# Compressibility (1/GPa) = 0.02983349
#
# Stress axis : x y z
#
# Youngs Moduli (GPa) = 142.33755 88.81424 35.06575
#
# Poissons Ratio (x) = 0.28338 0.09192
# Poissons Ratio (y) = 0.45415 0.09371
# Poissons Ratio (z) = 0.37314 0.23736
#
# Static dielectric constant tensor:
#      x y z
#    x 1.607370 0.000000 0.000000 
#    y 0.000000 1.659020 0.000000 
#    z 0.000000 0.000000 1.832640 
# 
# From -- ./inp_files/13458.got.cif
#   From: 2010.05.17/outbox.cif.g08.bks.cpg/sg21_7_cif.got.tgz:13458.got - 2010.06.03 23:14:55.
