data_PCOD9322001
_publ_section_title
;
Structure prediction by ZEFSAII (Michael W. Deem and Ramdas Pophale) SiO2 
 PCOD9322001
Probable space group: C 2 2 21
;
_chemical_formula_sum "Si O2"
_cell_formula_units_Z 28
_cell_length_a 9.120172
_cell_length_b 16.669481
_cell_length_c 7.047617
_cell_angle_alpha 90.000000
_cell_angle_beta 90.000000
_cell_angle_gamma 90.000000
_cell_volume 1071.438880
_symmetry_space_group_name_H-M "C 2 2 21"
_symmetry_group_IT_number 20
_symmetry_cell_setting 'orthorhombic'
loop_
_space_group_symop_operation_xyz
x,y,z
-x,-y,1/2+z
x,-y,-z
-x,y,1/2-z
1/2+x,1/2+y,z
1/2-x,1/2-y,1/2+z
1/2+x,1/2-y,-z
1/2-x,1/2+y,1/2-z
loop_
_atom_site_type_symbol
_atom_site_label
_atom_site_fract_x
_atom_site_fract_y
_atom_site_fract_z
Si Si1 0.500000 0.623103 0.250000
Si Si2 0.956376 0.415030 0.531763
Si Si3 0.303697 0.304012 0.077848
Si Si4 0.734011 0.626300 0.975927
O O1 0.582228 0.673695 0.412871
O O2 0.372504 0.581244 0.375192
O O3 0.877848 0.500000 0.500000
O O4 0.852550 0.342727 0.475849
O O5 0.000000 0.408641 0.750000
O O6 0.113067 0.415976 0.426058
O O7 0.338302 0.343367 0.281072
O O8 0.283228 0.208868 0.080907
#
# Coordination Sequence:
#
# PCOD9322001 Si02
#       4
#     4   8   8   8
#     4  12  24  42  66 100 146 174 236 296 360 404
#     4  12  25  48  76 106 143 192 247 294 353 440
#     4  12  24  44  72 105 145 189 241 298 358 425
#     4  12  24  44  72 105 145 189 241 298 358 425
#
# _framework density 26.133081000000001
#
# number of rings (size 3 to 8) (size 9 to 14) (size 15 to 20)
#    0.000    0.000    5.714    5.143    0.000    0.000 
#    0.000    1.429    0.000    0.000    0.000    0.000 
#    0.000    0.000    0.000    0.000    0.000    0.000 
#
# Total GULP energy -78436.731025 kJ/mol
# GULP energy per Si atom -5602.623645 kJ/mol
# Density = 2.607360 g / cm^3
# Si number density = 26.133081 Si / 1000 Ang^3
#
#
#
# Elastic Constant Matrix: (Units=GPa)
#
#
# Indices 1 2 3 4 5 6 
#
# 1 128.4699 9.2767 32.6992 0.0000 0.0000 0.0000
# 2 9.2767 76.7198 -7.6051 0.0000 0.0000 0.0000
# 3 32.6992 -7.6051 173.5760 0.0000 0.0000 0.0000
# 4 0.0000 0.0000 0.0000 30.5146 0.0000 0.0000
# 5 0.0000 0.0000 0.0000 0.0000 61.1255 0.0000
# 6 0.0000 0.0000 0.0000 0.0000 0.0000 22.7219
#
#
#
# Elastic Compliance Matrix: (Units=1/GPa)
#
#
# Indices 1 2 3 4 5 6 
#
# 1 0.008278 -0.001161 -0.001610 0.000000 0.000000 0.000000
# 2 -0.001161 0.013254 0.000799 0.000000 0.000000 0.000000
# 3 -0.001610 0.000799 0.006100 0.000000 0.000000 0.000000
# 4 0.000000 0.000000 0.000000 0.032771 0.000000 0.000000
# 5 0.000000 0.000000 0.000000 0.000000 0.016360 0.000000
# 6 0.000000 0.000000 0.000000 0.000000 0.000000 0.044010
#
#
# Mechanical properties :
#
#
# Convention : Reuss Voigt Hill
#
# Bulk Modulus (GPa) = 42.21491 49.72305 45.96898
# Shear Modulus (GPa) = 37.70416 45.83206 41.76811
#
# Velocity S-wave (km/s) = 3.80251 4.19238 4.00219
# Velocity P-wave (km/s) = 5.95547 6.51942 6.24382
#
# Compressibility (1/GPa) = 0.02368831
#
# Stress axis : x y z
#
# Youngs Moduli (GPa) = 120.80841 75.44884 163.94711
#
# Poissons Ratio (x) = 0.08756 0.26399
# Poissons Ratio (y) = 0.14020 -0.13105
# Poissons Ratio (z) = 0.19453 -0.06031
#
# Static dielectric constant tensor:
#      x y z
#    x 2.110680 0.000000 0.000000 
#    y 0.000000 1.926600 0.000000 
#    z 0.000000 0.000000 2.059290 
# 
# From -- ./inp_files/5610.got.cif
#   From: 2010.05.17/outbox.cif.g08.bks.cpg/sg20_3_cif.got.tgz:5610.got - 2010.06.03 22:52:26.
