data_PCOD9322299
_publ_section_title
;
Structure prediction by ZEFSAII (Michael W. Deem and Ramdas Pophale) SiO2 
 PCOD9322299
Probable space group: C 2 2 2
;
_chemical_formula_sum "Si O2"
_cell_formula_units_Z 40
_cell_length_a 21.524084
_cell_length_b 22.122639
_cell_length_c 4.977287
_cell_angle_alpha 90.000000
_cell_angle_beta 90.000000
_cell_angle_gamma 90.000000
_cell_volume 2370.032462
_symmetry_space_group_name_H-M "C 2 2 2"
_symmetry_group_IT_number 21
_symmetry_cell_setting 'orthorhombic'
loop_
_space_group_symop_operation_xyz
x,y,z
-x,-y,z
x,-y,-z
-x,y,-z
1/2+x,1/2+y,z
1/2-x,1/2-y,z
1/2+x,1/2-y,-z
1/2-x,1/2+y,-z
loop_
_atom_site_type_symbol
_atom_site_label
_atom_site_fract_x
_atom_site_fract_y
_atom_site_fract_z
Si Si1 0.199086 0.804538 0.112205
Si Si2 0.128114 0.287158 0.569325
Si Si3 0.428963 0.153749 0.085740
Si Si4 0.846485 0.543017 0.252332
Si Si5 0.248994 0.643293 0.602878
O O1 0.284688 0.917611 0.691616
O O2 0.200968 0.831212 0.814234
O O3 0.140956 0.774655 0.267461
O O4 0.223172 0.857334 0.306750
O O5 0.080622 0.296030 0.322055
O O6 0.192180 0.308578 0.427500
O O7 0.109713 0.331175 0.815314
O O8 0.400708 0.091955 0.202277
O O9 0.500000 0.149259 0.000000
O O10 0.861226 0.500000 0.500000
O O11 0.838449 0.500000 0.000000
O O12 0.250000 0.750000 0.107844
#
# Coordination Sequence:
#
# PCOD9322299 Si02
#       5
#     8   8   8   8   8
#     4  10  16  27  47  69  88 107 136 186 245 301
#     4  10  19  32  49  70  91 115 152 200 251 303
#     4  11  22  36  49  65  91 128 172 215 248 277
#     4  11  21  34  47  62  88 124 168 210 240 270
#     4  10  18  29  45  66  88 112 146 192 242 290
#
# _framework density 16.877406000000001
#
# number of rings (size 3 to 8) (size 9 to 14) (size 15 to 20)
#    0.000    1.600    0.000   12.000    0.000    0.400 
#    0.000    3.000    0.000    0.000    0.000    0.000 
#    0.000    0.000    0.000    0.000    0.000  210.000 
#
# Total GULP energy -111433.598653 kJ/mol
# GULP energy per Si atom -5571.679933 kJ/mol
# Density = 1.683899 g / cm^3
# Si number density = 16.877406 Si / 1000 Ang^3
#
#
#
# Elastic Constant Matrix: (Units=GPa)
#
#
# Indices 1 2 3 4 5 6 
#
# 1 34.3924 40.2642 26.2641 0.0000 0.0000 0.0000
# 2 40.2642 34.8539 25.8921 0.0000 0.0000 0.0000
# 3 26.2641 25.8921 126.0150 0.0000 0.0000 0.0000
# 4 0.0000 0.0000 0.0000 36.9644 0.0000 0.0000
# 5 0.0000 0.0000 0.0000 0.0000 22.7579 0.0000
# 6 0.0000 0.0000 0.0000 0.0000 0.0000 15.2383
#
#
#
# Elastic Compliance Matrix: (Units=1/GPa)
#
#
# Indices 1 2 3 4 5 6 
#
# 1 -0.081655 0.096402 -0.002789 0.000000 0.000000 0.000000
# 2 0.096402 -0.079954 -0.003664 0.000000 0.000000 0.000000
# 3 -0.002789 -0.003664 0.009270 0.000000 0.000000 0.000000
# 4 0.000000 0.000000 0.000000 0.027053 0.000000 0.000000
# 5 0.000000 0.000000 0.000000 0.000000 0.043941 0.000000
# 6 0.000000 0.000000 0.000000 0.000000 0.000000 0.065624
#
#
# Mechanical properties :
#
#
# Convention : Reuss Voigt Hill
#
# Bulk Modulus (GPa) = 36.28561 42.23356 39.25959
# Shear Modulus (GPa) = -26.81932 21.84817 -2.48557
#
# Velocity S-wave (km/s) = -3.99063 3.60185 -1.21487
# Velocity P-wave (km/s) = 0.55915 6.50967 4.61998
#
# Compressibility (1/GPa) = 0.02755913
#
# Stress axis : x y z
#
# Youngs Moduli (GPa) = -12.24662 -12.50727 107.87769
#
# Poissons Ratio (x) = 1.20573 0.30087
# Poissons Ratio (y) = 1.18060 0.39530
# Poissons Ratio (z) = -0.03416 -0.04583
#
# Static dielectric constant tensor:
#      x y z
#    x 1.595930 0.000000 0.000000 
#    y 0.000000 1.581350 0.000000 
#    z 0.000000 0.000000 1.603130 
# 
# From -- ./inp_files/5811.got.cif
#   From: 2010.05.17/outbox.cif.g08.bks.cpg/sg21_3_cif.got.tgz:5811.got - 2010.06.03 23:14:55.
