data_PCOD9322719
_publ_section_title
;
Structure prediction by ZEFSAII (Michael W. Deem and Ramdas Pophale) SiO2 
 PCOD9322719
Probable space group: C 2 2 2
;
_chemical_formula_sum "Si O2"
_cell_formula_units_Z 48
_cell_length_a 7.611683
_cell_length_b 29.091922
_cell_length_c 8.884197
_cell_angle_alpha 90.000000
_cell_angle_beta 90.000000
_cell_angle_gamma 90.000000
_cell_volume 1967.303152
_symmetry_space_group_name_H-M "C 2 2 2"
_symmetry_group_IT_number 21
_symmetry_cell_setting 'orthorhombic'
loop_
_space_group_symop_operation_xyz
x,y,z
-x,-y,z
x,-y,-z
-x,y,-z
1/2+x,1/2+y,z
1/2-x,1/2-y,z
1/2+x,1/2-y,-z
1/2-x,1/2+y,-z
loop_
_atom_site_type_symbol
_atom_site_label
_atom_site_fract_x
_atom_site_fract_y
_atom_site_fract_z
Si Si1 0.325825 0.127976 0.405037
Si Si2 0.430556 0.719470 0.832437
Si Si3 0.772019 0.554179 0.837269
Si Si4 0.047184 0.688301 0.176677
Si Si5 0.620466 0.359426 0.300574
Si Si6 0.801862 0.447144 0.818123
O O1 0.500000 0.112676 0.500000
O O2 0.408360 0.162188 0.281700
O O3 0.193292 0.146551 0.530983
O O4 0.242817 0.085329 0.316163
O O5 0.750000 0.750000 0.160915
O O6 0.555202 0.759384 0.767188
O O7 0.453977 0.671873 0.743859
O O8 0.500000 0.710441 0.000000
O O9 0.648487 0.587099 0.740246
O O10 0.748890 0.500291 0.802444
O O11 0.984244 0.559457 0.817229
O O12 0.739903 0.565205 0.013600
O O13 0.229364 0.663129 0.195931
O O14 0.000000 0.687013 0.000000
#
# Coordination Sequence:
#
# PCOD9322719 Si02
#       6
#     8   8   8   8   8   8
#     4  10  19  31  53  93 139 185 228 288 363 422
#     4  11  24  44  69  96 125 176 240 311 379 453
#     4   9  17  29  55  89 142 191 237 294 330 425
#     4  10  19  37  63  90 125 179 237 292 355 435
#     4  11  21  36  59  96 137 177 228 303 366 433
#     4   9  16  30  50  93 144 190 241 278 347 418
#
# _framework density 24.398883000000001
#
# number of rings (size 3 to 8) (size 9 to 14) (size 15 to 20)
#    0.000    2.000    3.333    4.500    0.000    0.667 
#    0.000    5.833    0.000    2.000    0.000    8.167 
#    0.000   13.333    0.000    0.333    0.000    2.000 
#
# Total GULP energy -134111.034674 kJ/mol
# GULP energy per Si atom -5587.959778 kJ/mol
# Density = 2.434335 g / cm^3
# Si number density = 24.398883 Si / 1000 Ang^3
#
#
#
# Elastic Constant Matrix: (Units=GPa)
#
#
# Indices 1 2 3 4 5 6 
#
# 1 132.7585 38.5137 34.0555 0.0000 0.0000 0.0000
# 2 38.5137 141.4487 82.9660 0.0000 0.0000 0.0000
# 3 34.0555 82.9660 141.9101 0.0000 0.0000 0.0000
# 4 0.0000 0.0000 0.0000 -7.8714 0.0000 0.0000
# 5 0.0000 0.0000 0.0000 0.0000 18.1610 0.0000
# 6 0.0000 0.0000 0.0000 0.0000 0.0000 20.9987
#
#
#
# Elastic Compliance Matrix: (Units=1/GPa)
#
#
# Indices 1 2 3 4 5 6 
#
# 1 0.008274 -0.001656 -0.001017 0.000000 0.000000 0.000000
# 2 -0.001656 0.011091 -0.006087 0.000000 0.000000 0.000000
# 3 -0.001017 -0.006087 0.010849 0.000000 0.000000 0.000000
# 4 0.000000 0.000000 0.000000 -0.127042 0.000000 0.000000
# 5 0.000000 0.000000 0.000000 0.000000 0.055063 0.000000
# 6 0.000000 0.000000 0.000000 0.000000 0.000000 0.047622
#
#
# Mechanical properties :
#
#
# Convention : Reuss Voigt Hill
#
# Bulk Modulus (GPa) = 78.77865 80.79863 79.78864
# Shear Modulus (GPa) = 181.10740 23.62981 102.36860
#
# Velocity S-wave (km/s) = 8.62490 3.11542 6.48439
# Velocity P-wave (km/s) = 11.46922 6.79181 9.42528
#
# Compressibility (1/GPa) = 0.01269379
#
# Stress axis : x y z
#
# Youngs Moduli (GPa) = 120.86226 90.16570 92.17171
#
# Poissons Ratio (x) = 0.14932 0.09377
# Poissons Ratio (y) = 0.20016 0.56101
# Poissons Ratio (z) = 0.12296 0.54880
#
# Static dielectric constant tensor:
#      x y z
#    x 2.161880 0.000000 0.000000 
#    y 0.000000 1.956150 0.000000 
#    z 0.000000 0.000000 1.902180 
# 
# From -- ./inp_files/13578.got.cif
#   From: 2010.05.17/outbox.cif.g08.bks.cpg/sg21_7_cif.got.tgz:13578.got - 2010.06.03 23:14:55.
