data_PCOD9322864
_publ_section_title
;
Structure prediction by ZEFSAII (Michael W. Deem and Ramdas Pophale) SiO2 
 PCOD9322864
Probable space group: C 2 2 2
;
_chemical_formula_sum "Si O2"
_cell_formula_units_Z 48
_cell_length_a 26.784511
_cell_length_b 5.717036
_cell_length_c 13.862207
_cell_angle_alpha 90.000000
_cell_angle_beta 90.000000
_cell_angle_gamma 90.000000
_cell_volume 2122.692222
_symmetry_space_group_name_H-M "C 2 2 2"
_symmetry_group_IT_number 21
_symmetry_cell_setting 'orthorhombic'
loop_
_space_group_symop_operation_xyz
x,y,z
-x,-y,z
x,-y,-z
-x,y,-z
1/2+x,1/2+y,z
1/2-x,1/2-y,z
1/2+x,1/2-y,-z
1/2-x,1/2+y,-z
loop_
_atom_site_type_symbol
_atom_site_label
_atom_site_fract_x
_atom_site_fract_y
_atom_site_fract_z
Si Si1 0.051373 0.623972 0.833964
Si Si2 0.696067 0.134366 0.745044
Si Si3 0.139439 0.136634 0.093799
Si Si4 0.053438 0.077505 0.359979
Si Si5 0.374163 0.745902 0.257591
Si Si6 0.143565 0.751242 0.548798
O O1 0.084450 0.747635 0.916865
O O2 0.043197 0.802531 0.744644
O O3 0.089211 0.437971 0.787846
O O4 0.000000 0.500000 0.862403
O O5 0.750000 0.250000 0.739605
O O6 0.676553 0.181969 0.854308
O O7 0.666079 0.254722 0.657139
O O8 0.679491 0.866133 0.723688
O O9 0.133660 0.947056 0.177329
O O10 0.156523 0.000000 0.000000
O O11 0.084030 0.243593 0.431366
O O12 0.092642 0.865173 0.342341
O O13 0.000000 0.000000 0.395087
O O14 0.157150 0.500000 0.500000
O O15 0.158950 0.000000 0.500000
#
# Coordination Sequence:
#
# PCOD9322864 Si02
#       6
#     8   8   8   8   8   8
#     4  10  19  34  67  97 133 192 236 277 352 428
#     4  11  25  46  71 100 134 188 239 301 378 436
#     4  10  23  43  67 100 141 181 232 302 365 433
#     4  11  21  39  69 101 138 193 236 287 365 438
#     4  10  19  41  67  95 139 183 228 291 353 431
#     4  12  27  47  72 106 146 186 245 307 367 442
#
# _framework density 22.612794000000001
#
# number of rings (size 3 to 8) (size 9 to 14) (size 15 to 20)
#    0.000    1.333    6.667    1.000    0.000    4.333 
#    3.000    5.000    0.000    0.000    0.000    0.000 
#    0.000    0.000    0.000    0.000    0.000    0.000 
#
# Total GULP energy -133806.928539 kJ/mol
# GULP energy per Si atom -5575.288689 kJ/mol
# Density = 2.256133 g / cm^3
# Si number density = 22.612794 Si / 1000 Ang^3
#
#
#
# Elastic Constant Matrix: (Units=GPa)
#
#
# Indices 1 2 3 4 5 6 
#
# 1 121.7551 27.8467 7.3627 0.0000 0.0000 0.0000
# 2 27.8467 91.3220 12.5503 0.0000 0.0000 0.0000
# 3 7.3627 12.5503 87.4951 0.0000 0.0000 0.0000
# 4 0.0000 0.0000 0.0000 29.2936 0.0000 0.0000
# 5 0.0000 0.0000 0.0000 0.0000 10.8843 0.0000
# 6 0.0000 0.0000 0.0000 0.0000 0.0000 33.5039
#
#
#
# Elastic Compliance Matrix: (Units=1/GPa)
#
#
# Indices 1 2 3 4 5 6 
#
# 1 0.008840 -0.002646 -0.000364 0.000000 0.000000 0.000000
# 2 -0.002646 0.011962 -0.001493 0.000000 0.000000 0.000000
# 3 -0.000364 -0.001493 0.011674 0.000000 0.000000 0.000000
# 4 0.000000 0.000000 0.000000 0.034137 0.000000 0.000000
# 5 0.000000 0.000000 0.000000 0.000000 0.091876 0.000000
# 6 0.000000 0.000000 0.000000 0.000000 0.000000 0.029847
#
#
# Mechanical properties :
#
#
# Convention : Reuss Voigt Hill
#
# Bulk Modulus (GPa) = 42.60744 44.01018 43.30881
# Shear Modulus (GPa) = 24.37045 31.59053 27.98049
#
# Velocity S-wave (km/s) = 3.28644 3.74173 3.52145
# Velocity P-wave (km/s) = 5.76923 6.17836 5.97730
#
# Compressibility (1/GPa) = 0.02347008
#
# Stress axis : x y z
#
# Youngs Moduli (GPa) = 113.11808 83.59674 85.65998
#
# Poissons Ratio (x) = 0.22116 0.03122
# Poissons Ratio (y) = 0.29926 0.12791
# Poissons Ratio (z) = 0.04122 0.12483
#
# Static dielectric constant tensor:
#      x y z
#    x 1.842230 0.000000 0.000000 
#    y 0.000000 1.969550 0.000000 
#    z 0.000000 0.000000 1.858610 
# 
# From -- ./inp_files/33796.got.cif
#   From: 2010.05.17/outbox.cif.g08.bks.cpg/sg21_17_cif.got.tgz:33796.got - 2010.06.03 23:14:55.
