data_PCOD9322527
_publ_section_title
;
Structure prediction by ZEFSAII (Michael W. Deem and Ramdas Pophale) SiO2 
 PCOD9322527
Probable space group: C 2 2 2
;
_chemical_formula_sum "Si O2"
_cell_formula_units_Z 56
_cell_length_a 22.642278
_cell_length_b 11.890279
_cell_length_c 12.054790
_cell_angle_alpha 90.000000
_cell_angle_beta 90.000000
_cell_angle_gamma 90.000000
_cell_volume 3245.426760
_symmetry_space_group_name_H-M "C 2 2 2"
_symmetry_group_IT_number 21
_symmetry_cell_setting 'orthorhombic'
loop_
_space_group_symop_operation_xyz
x,y,z
-x,-y,z
x,-y,-z
-x,y,-z
1/2+x,1/2+y,z
1/2-x,1/2-y,z
1/2+x,1/2-y,-z
1/2-x,1/2+y,-z
loop_
_atom_site_type_symbol
_atom_site_label
_atom_site_fract_x
_atom_site_fract_y
_atom_site_fract_z
Si Si1 0.733695 0.437640 0.386105
Si Si2 0.508774 0.864584 0.260163
Si Si3 0.589174 0.129116 0.539466
Si Si4 0.878835 0.363873 0.883263
Si Si5 0.112425 0.635766 0.138374
Si Si6 0.661178 0.227764 0.352513
Si Si7 0.706062 0.849044 0.304087
O O1 0.719624 0.500000 0.500000
O O2 0.680379 0.356834 0.352958
O O3 0.788233 0.352441 0.403853
O O4 0.756961 0.535405 0.305661
O O5 0.533924 0.835948 0.382914
O O6 0.561641 0.828126 0.179041
O O7 0.449063 0.829386 0.197618
O O8 0.500000 0.000000 0.264656
O O9 0.604765 0.201230 0.430091
O O10 0.647891 0.135002 0.618198
O O11 0.581772 0.000000 0.500000
O O12 0.881022 0.500226 0.868454
O O13 0.821781 0.323599 0.815991
O O14 0.881045 0.329072 0.011134
O O15 0.157638 0.685789 0.226431
O O16 0.750000 0.750000 0.340864
#
# Coordination Sequence:
#
# PCOD9322527 Si02
#       7
#     8   8   8   8   8   8   8
#     4  11  20  33  50  74 103 142 175 213 260 315
#     4   9  18  28  48  73 104 138 168 210 262 321
#     4  11  18  29  47  76 105 133 172 210 258 321
#     4   9  18  32  49  74 102 138 174 212 259 323
#     4  10  18  33  48  72 108 138 166 212 270 316
#     4  11  20  31  51  74 105 140 171 207 260 318
#     4  11  19  33  51  73 101 138 182 218 256 304
#
# _framework density 17.255049
#
# number of rings (size 3 to 8) (size 9 to 14) (size 15 to 20)
#    0.000    1.714    4.286    3.000    0.000    3.714 
#    2.571    0.000    0.000    0.000    0.000   14.000 
#    0.000    6.857    0.000    0.000    0.000    0.000 
#
# Total GULP energy -155933.934288 kJ/mol
# GULP energy per Si atom -5569.069082 kJ/mol
# Density = 1.721578 g / cm^3
# Si number density = 17.255049 Si / 1000 Ang^3
#
#
#
# Elastic Constant Matrix: (Units=GPa)
#
#
# Indices 1 2 3 4 5 6 
#
# 1 53.0476 25.6058 34.5455 0.0000 0.0000 0.0000
# 2 25.6058 57.1848 22.9072 0.0000 0.0000 0.0000
# 3 34.5455 22.9072 144.5843 0.0000 0.0000 0.0000
# 4 0.0000 0.0000 0.0000 11.6505 0.0000 0.0000
# 5 0.0000 0.0000 0.0000 0.0000 18.1104 0.0000
# 6 0.0000 0.0000 0.0000 0.0000 0.0000 12.6256
#
#
#
# Elastic Compliance Matrix: (Units=1/GPa)
#
#
# Indices 1 2 3 4 5 6 
#
# 1 0.026863 -0.010099 -0.004819 0.000000 0.000000 0.000000
# 2 -0.010099 0.022468 -0.001147 0.000000 0.000000 0.000000
# 3 -0.004819 -0.001147 0.008249 0.000000 0.000000 0.000000
# 4 0.000000 0.000000 0.000000 0.085833 0.000000 0.000000
# 5 0.000000 0.000000 0.000000 0.000000 0.055217 0.000000
# 6 0.000000 0.000000 0.000000 0.000000 0.000000 0.079204
#
#
# Mechanical properties :
#
#
# Convention : Reuss Voigt Hill
#
# Bulk Modulus (GPa) = 39.28763 46.77041 43.02902
# Shear Modulus (GPa) = 15.70116 19.92784 17.81450
#
# Velocity S-wave (km/s) = 3.01980 3.40207 3.21662
# Velocity P-wave (km/s) = 5.91415 6.52658 6.22790
#
# Compressibility (1/GPa) = 0.02545330
#
# Stress axis : x y z
#
# Youngs Moduli (GPa) = 37.22536 44.50681 121.22118
#
# Poissons Ratio (x) = 0.44945 0.58410
# Poissons Ratio (y) = 0.37592 0.13904
# Poissons Ratio (z) = 0.17937 0.05105
#
# Static dielectric constant tensor:
#      x y z
#    x 1.646170 0.000000 0.000000 
#    y 0.000000 1.561330 0.000000 
#    z 0.000000 0.000000 1.635620 
# 
# From -- ./inp_files/27459.got.cif
#   From: 2010.05.17/outbox.cif.g08.bks.cpg/sg21_14_cif.got.tgz:27459.got - 2010.06.03 23:14:55.
