data_PCOD9322937
_publ_section_title
;
Structure prediction by ZEFSAII (Michael W. Deem and Ramdas Pophale) SiO2 
 PCOD9322937
Probable space group: C 2 2 2
;
_chemical_formula_sum "Si O2"
_cell_formula_units_Z 64
_cell_length_a 36.099623
_cell_length_b 5.682931
_cell_length_c 16.420060
_cell_angle_alpha 90.000000
_cell_angle_beta 90.000000
_cell_angle_gamma 90.000000
_cell_volume 3368.602675
_symmetry_space_group_name_H-M "C 2 2 2"
_symmetry_group_IT_number 21
_symmetry_cell_setting 'orthorhombic'
loop_
_space_group_symop_operation_xyz
x,y,z
-x,-y,z
x,-y,-z
-x,y,-z
1/2+x,1/2+y,z
1/2-x,1/2-y,z
1/2+x,1/2-y,-z
1/2-x,1/2+y,-z
loop_
_atom_site_type_symbol
_atom_site_label
_atom_site_fract_x
_atom_site_fract_y
_atom_site_fract_z
Si Si1 0.865065 0.496059 0.705379
Si Si2 0.842401 0.888954 0.176544
Si Si3 0.213427 0.405557 0.090539
Si Si4 0.588800 0.674391 0.825680
Si Si5 0.014604 0.745792 0.093260
Si Si6 0.069093 0.511150 0.403860
Si Si7 0.790398 0.265292 0.246975
Si Si8 0.456202 0.488360 0.323792
O O1 0.858870 0.244069 0.745358
O O2 0.892085 0.624332 0.770745
O O3 0.887659 0.503015 0.622319
O O4 0.824621 0.617117 0.704431
O O5 0.824931 0.725902 0.108472
O O6 0.875398 0.042198 0.140185
O O7 0.807494 0.024292 0.214587
O O8 0.250000 0.250000 0.096973
O O9 0.215467 0.588961 0.164056
O O10 0.212869 0.500000 0.000000
O O11 0.558707 0.754170 0.891738
O O12 0.566238 0.515613 0.760594
O O13 0.000000 0.500000 0.132155
O O14 0.000000 0.000000 0.123779
O O15 0.000000 0.739975 0.000000
O O16 0.063315 0.500000 0.500000
O O17 0.054153 0.767176 0.372424
O O18 0.052913 0.267330 0.364304
O O19 0.750000 0.250000 0.287559
O O20 0.500000 0.500000 0.311475
#
# Coordination Sequence:
#
# PCOD9322937 Si02
#       8
#     8   8   8   8   8   8   8   8
#     4   9  21  36  59  91 115 156 198 247 302 370
#     4  10  20  38  58  83 118 149 204 247 306 362
#     4  11  22  34  56  82 120 158 200 251 312 381
#     4  10  21  38  64  83 120 155 207 262 306 379
#     4  10  23  41  62  85 113 158 209 264 321 368
#     4  11  23  41  62  93 130 165 202 251 315 381
#     4  10  19  36  59  87 111 155 202 249 299 357
#     4  11  23  38  62  95 124 166 208 255 314 373
#
# _framework density 18.998975999999999
#
# number of rings (size 3 to 8) (size 9 to 14) (size 15 to 20)
#    0.000    1.750    2.500    1.500    1.750    3.500 
#    0.000    7.500    0.000    0.000    3.250    0.000 
#    0.000    0.000    0.000    0.000    0.000    0.000 
#
# Total GULP energy -178237.805212 kJ/mol
# GULP energy per Si atom -5569.931413 kJ/mol
# Density = 1.895573 g / cm^3
# Si number density = 18.998976 Si / 1000 Ang^3
#
#
#
# Elastic Constant Matrix: (Units=GPa)
#
#
# Indices 1 2 3 4 5 6 
#
# 1 131.7971 26.2026 18.9688 0.0000 0.0000 0.0000
# 2 26.2026 91.6606 11.2281 0.0000 0.0000 0.0000
# 3 18.9688 11.2281 50.3918 0.0000 0.0000 0.0000
# 4 0.0000 0.0000 0.0000 -2.9714 0.0000 0.0000
# 5 0.0000 0.0000 0.0000 0.0000 23.5275 0.0000
# 6 0.0000 0.0000 0.0000 0.0000 0.0000 36.6867
#
#
#
# Elastic Compliance Matrix: (Units=1/GPa)
#
#
# Indices 1 2 3 4 5 6 
#
# 1 0.008386 -0.002067 -0.002696 0.000000 0.000000 0.000000
# 2 -0.002067 0.011725 -0.001834 0.000000 0.000000 0.000000
# 3 -0.002696 -0.001834 0.021268 0.000000 0.000000 0.000000
# 4 0.000000 0.000000 0.000000 -0.336547 0.000000 0.000000
# 5 0.000000 0.000000 0.000000 0.000000 0.042504 0.000000
# 6 0.000000 0.000000 0.000000 0.000000 0.000000 0.027258
#
#
# Mechanical properties :
#
#
# Convention : Reuss Voigt Hill
#
# Bulk Modulus (GPa) = 35.48077 42.96095 39.22086
# Shear Modulus (GPa) = -24.65304 25.94523 0.64610
#
# Velocity S-wave (km/s) = -3.60613 3.69943 0.58379
# Velocity P-wave (km/s) = 1.17336 6.39602 4.59814
#
# Compressibility (1/GPa) = 0.02818428
#
# Stress axis : x y z
#
# Youngs Moduli (GPa) = 119.24000 85.28462 47.01857
#
# Poissons Ratio (x) = 0.17629 0.12678
# Poissons Ratio (y) = 0.24648 0.08626
# Poissons Ratio (z) = 0.32151 0.15645
#
# Static dielectric constant tensor:
#      x y z
#    x 1.753830 0.000000 0.000000 
#    y 0.000000 1.741230 0.000000 
#    z 0.000000 0.000000 1.629060 
# 
# From -- ./inp_files/37212.got.cif
#   From: 2010.05.17/outbox.cif.g08.bks.cpg/sg21_19_cif.got.tgz:37212.got - 2010.06.03 23:14:55.
