data_PCOD9322883
_publ_section_title
;
Structure prediction by ZEFSAII (Michael W. Deem and Ramdas Pophale) SiO2 
 PCOD9322883
Probable space group: C 2 2 2
;
_chemical_formula_sum "Si O2"
_cell_formula_units_Z 36
_cell_length_a 24.053043
_cell_length_b 6.212190
_cell_length_c 10.932062
_cell_angle_alpha 90.000000
_cell_angle_beta 90.000000
_cell_angle_gamma 90.000000
_cell_volume 1633.491368
_symmetry_space_group_name_H-M "C 2 2 2"
_symmetry_group_IT_number 21
_symmetry_cell_setting 'orthorhombic'
loop_
_space_group_symop_operation_xyz
x,y,z
-x,-y,z
x,-y,-z
-x,y,-z
1/2+x,1/2+y,z
1/2-x,1/2-y,z
1/2+x,1/2-y,-z
1/2-x,1/2+y,-z
loop_
_atom_site_type_symbol
_atom_site_label
_atom_site_fract_x
_atom_site_fract_y
_atom_site_fract_z
Si Si1 0.750000 0.250000 0.562768
Si Si2 0.157252 0.000000 0.000000
Si Si3 0.500000 0.000000 0.309519
Si Si4 0.340165 0.739067 0.772535
Si Si5 0.088348 0.618933 0.119831
Si Si6 0.440294 0.605552 0.624419
O O1 0.747929 0.500000 0.500000
O O2 0.697412 0.239470 0.653648
O O3 0.187941 0.117209 0.112564
O O4 0.118247 0.824138 0.063909
O O5 0.539771 0.137679 0.219123
O O6 0.458403 0.146288 0.386387
O O7 0.394288 0.603765 0.728560
O O8 0.364530 0.964772 0.820539
O O9 0.065027 0.500000 0.000000
O O10 0.500000 0.500000 0.648510
O O11 0.418655 0.500000 0.500000
#
# Coordination Sequence:
#
# PCOD9322883 Si02
#       6
#     4   4   4   8   8   8
#     4  12  30  54  78 110 146 204 256 306 370 440
#     4  10  20  40  71  98 138 176 232 305 376 440
#     4  10  19  35  56  90 140 176 232 286 344 440
#     4  10  23  45  69 100 141 182 243 304 364 444
#     4   9  19  36  63  98 135 181 224 291 365 435
#     4  10  21  38  60  94 133 183 235 288 363 427
#
# _framework density 22.038682999999999
#
# number of rings (size 3 to 8) (size 9 to 14) (size 15 to 20)
#    0.000    2.000    0.000    2.333    3.111    1.778 
#   22.000   12.778    0.000    0.000    0.000    0.000 
#    0.000    0.000    0.000    0.000    0.000    0.000 
#
# Total GULP energy -100248.642980 kJ/mol
# GULP energy per Si atom -5569.369054 kJ/mol
# Density = 2.198852 g / cm^3
# Si number density = 22.038683 Si / 1000 Ang^3
#
#
#
# Elastic Constant Matrix: (Units=GPa)
#
#
# Indices 1 2 3 4 5 6 
#
# 1 49.5779 15.6358 30.4666 0.0000 0.0000 0.0000
# 2 15.6358 102.3520 87.3729 0.0000 0.0000 0.0000
# 3 30.4666 87.3729 134.2246 0.0000 0.0000 0.0000
# 4 0.0000 0.0000 0.0000 51.4306 0.0000 0.0000
# 5 0.0000 0.0000 0.0000 0.0000 49.6510 0.0000
# 6 0.0000 0.0000 0.0000 0.0000 0.0000 3.7070
#
#
#
# Elastic Compliance Matrix: (Units=1/GPa)
#
#
# Indices 1 2 3 4 5 6 
#
# 1 0.023654 0.002183 -0.006790 0.000000 0.000000 0.000000
# 2 0.002183 0.022191 -0.014940 0.000000 0.000000 0.000000
# 3 -0.006790 -0.014940 0.018717 0.000000 0.000000 0.000000
# 4 0.000000 0.000000 0.000000 0.019444 0.000000 0.000000
# 5 0.000000 0.000000 0.000000 0.000000 0.020141 0.000000
# 6 0.000000 0.000000 0.000000 0.000000 0.000000 0.269758
#
#
# Mechanical properties :
#
#
# Convention : Reuss Voigt Hill
#
# Bulk Modulus (GPa) = 39.26713 61.45613 50.36163
# Shear Modulus (GPa) = 11.86275 31.13635 21.49955
#
# Velocity S-wave (km/s) = 2.32258 3.76281 3.12675
# Velocity P-wave (km/s) = 5.00485 6.84284 5.99470
#
# Compressibility (1/GPa) = 0.02546659
#
# Stress axis : x y z
#
# Youngs Moduli (GPa) = 42.27539 45.06430 53.42837
#
# Poissons Ratio (x) = -0.09836 0.36277
# Poissons Ratio (y) = -0.09227 0.79823
# Poissons Ratio (z) = 0.28705 0.67327
#
# Static dielectric constant tensor:
#      x y z
#    x 1.776980 0.000000 0.000000 
#    y 0.000000 1.850370 0.000000 
#    z 0.000000 0.000000 1.840560 
# 
# From -- ./inp_files/27184.got.cif
#   From: 2010.05.17/outbox.cif.g08.bks.cpg/sg21_14_cif.got.tgz:27184.got - 2010.06.03 23:14:55.
