data_PCOD9322336
_publ_section_title
;
Structure prediction by ZEFSAII (Michael W. Deem and Ramdas Pophale) SiO2 
 PCOD9322336
Probable space group: C 2 2 2
;
_chemical_formula_sum "Si O2"
_cell_formula_units_Z 30
_cell_length_a 11.278953
_cell_length_b 16.843479
_cell_length_c 7.840973
_cell_angle_alpha 90.000000
_cell_angle_beta 90.000000
_cell_angle_gamma 90.000000
_cell_volume 1489.603022
_symmetry_space_group_name_H-M "C 2 2 2"
_symmetry_group_IT_number 21
_symmetry_cell_setting 'orthorhombic'
loop_
_space_group_symop_operation_xyz
x,y,z
-x,-y,z
x,-y,-z
-x,y,-z
1/2+x,1/2+y,z
1/2-x,1/2-y,z
1/2+x,1/2-y,-z
1/2-x,1/2+y,-z
loop_
_atom_site_type_symbol
_atom_site_label
_atom_site_fract_x
_atom_site_fract_y
_atom_site_fract_z
Si Si1 0.500000 0.721294 0.000000
Si Si2 0.140171 0.594709 0.489491
Si Si3 0.294253 0.659801 0.179010
Si Si4 0.500000 0.000000 0.000000
Si Si5 0.655896 0.136364 0.851371
O O1 0.565719 0.670052 0.854154
O O2 0.411765 0.782569 0.902585
O O3 0.140815 0.500000 0.500000
O O4 0.220192 0.616330 0.326034
O O5 0.196770 0.634092 0.657923
O O6 0.000000 0.620107 0.500000
O O7 0.250000 0.750000 0.197394
O O8 0.252861 0.626242 0.996867
O O9 0.570870 0.060322 0.879113
#
# Coordination Sequence:
#
# PCOD9322336 Si02
#       5
#     4   8   8   2   8
#     4   9  20  39  56  79 118 159 194 234 284 349
#     4  11  21  34  58  90 117 143 184 242 301 347
#     4  10  21  36  56  83 115 153 194 236 289 348
#     4  10  16  32  58  82 116 148 180 242 306 348
#     4  10  19  34  56  82 112 145 187 241 295 340
#
# _framework density 20.139593999999999
#
# number of rings (size 3 to 8) (size 9 to 14) (size 15 to 20)
#    0.000    1.867    0.000    8.000    0.000    3.200 
#    0.000    6.667    0.000    8.800    0.000    3.733 
#    0.000    0.000    0.000    0.000    0.000    0.000 
#
# Total GULP energy -83554.198458 kJ/mol
# GULP energy per Si atom -5570.279897 kJ/mol
# Density = 2.009376 g / cm^3
# Si number density = 20.139594 Si / 1000 Ang^3
#
#
#
# Elastic Constant Matrix: (Units=GPa)
#
#
# Indices 1 2 3 4 5 6 
#
# 1 70.1172 27.7379 43.3400 0.0000 0.0000 0.0000
# 2 27.7379 60.0816 23.2855 0.0000 0.0000 0.0000
# 3 43.3400 23.2855 147.9290 0.0000 0.0000 0.0000
# 4 0.0000 0.0000 0.0000 13.4581 0.0000 0.0000
# 5 0.0000 0.0000 0.0000 0.0000 11.2158 0.0000
# 6 0.0000 0.0000 0.0000 0.0000 0.0000 16.0854
#
#
#
# Elastic Compliance Matrix: (Units=1/GPa)
#
#
# Indices 1 2 3 4 5 6 
#
# 1 0.020135 -0.007465 -0.004724 0.000000 0.000000 0.000000
# 2 -0.007465 0.020493 -0.001039 0.000000 0.000000 0.000000
# 3 -0.004724 -0.001039 0.008308 0.000000 0.000000 0.000000
# 4 0.000000 0.000000 0.000000 0.074305 0.000000 0.000000
# 5 0.000000 0.000000 0.000000 0.000000 0.089160 0.000000
# 6 0.000000 0.000000 0.000000 0.000000 0.000000 0.062168
#
#
# Mechanical properties :
#
#
# Convention : Reuss Voigt Hill
#
# Bulk Modulus (GPa) = 44.48379 51.87272 48.17826
# Shear Modulus (GPa) = 16.20658 20.40282 18.30470
#
# Velocity S-wave (km/s) = 2.83982 3.18633 3.01805
# Velocity P-wave (km/s) = 5.73485 6.27291 6.00990
#
# Compressibility (1/GPa) = 0.02248010
#
# Stress axis : x y z
#
# Youngs Moduli (GPa) = 49.66530 48.79743 120.37243
#
# Poissons Ratio (x) = 0.36426 0.56864
# Poissons Ratio (y) = 0.37074 0.12504
# Poissons Ratio (z) = 0.23462 0.05069
#
# Static dielectric constant tensor:
#      x y z
#    x 1.883720 0.000000 0.000000 
#    y 0.000000 1.709470 0.000000 
#    z 0.000000 0.000000 1.787290 
# 
# From -- ./inp_files/12223.got.cif
#   From: 2010.05.17/outbox.cif.g08.bks.cpg/sg21_7_cif.got.tgz:12223.got - 2010.06.03 23:14:55.
