data_PCOD9322706
_publ_section_title
;
Structure prediction by ZEFSAII (Michael W. Deem and Ramdas Pophale) SiO2 
 PCOD9322706
Probable space group: C 2 2 2
;
_chemical_formula_sum "Si O2"
_cell_formula_units_Z 48
_cell_length_a 23.994663
_cell_length_b 5.121844
_cell_length_c 20.992220
_cell_angle_alpha 90.000000
_cell_angle_beta 90.000000
_cell_angle_gamma 90.000000
_cell_volume 2579.879197
_symmetry_space_group_name_H-M "C 2 2 2"
_symmetry_group_IT_number 21
_symmetry_cell_setting 'orthorhombic'
loop_
_space_group_symop_operation_xyz
x,y,z
-x,-y,z
x,-y,-z
-x,y,-z
1/2+x,1/2+y,z
1/2-x,1/2-y,z
1/2+x,1/2-y,-z
1/2-x,1/2+y,-z
loop_
_atom_site_type_symbol
_atom_site_label
_atom_site_fract_x
_atom_site_fract_y
_atom_site_fract_z
Si Si1 0.710357 0.999821 0.638262
Si Si2 0.556630 0.377076 0.754321
Si Si3 0.377208 0.108632 0.746988
Si Si4 0.209686 0.500000 0.500000
Si Si5 0.061269 0.084235 0.094022
Si Si6 0.750000 0.750000 0.960386
Si Si7 0.364676 0.075188 0.897845
O O1 0.750000 0.250000 0.644561
O O2 0.680111 0.008235 0.568792
O O3 0.750000 0.750000 0.637353
O O4 0.670067 0.967799 0.697653
O O5 0.500000 0.500000 0.728570
O O6 0.604814 0.590061 0.741525
O O7 0.550980 0.359101 0.830956
O O8 0.572003 0.088680 0.732458
O O9 0.361315 0.053380 0.820703
O O10 0.250000 0.750000 0.500007
O O11 0.099320 0.332479 0.073941
O O12 0.099550 0.831778 0.087877
O O13 0.000000 0.000000 0.068820
O O14 0.697656 0.875748 0.922933
O O15 0.728023 0.500000 0.000000
#
# Coordination Sequence:
#
# PCOD9322706 Si02
#       7
#     8   8   8   4   8   4   8
#     4  10  19  31  47  72 105 140 170 215 257 312
#     4   9  17  30  48  74 108 136 165 208 265 324
#     4  10  19  31  50  80 104 132 172 216 268 300
#     4   8  16  30  46  64  95 138 181 206 252 308
#     4   9  17  33  58  85 110 134 169 227 284 319
#     4  12  26  44  60  76 110 160 190 214 254 336
#     4  10  21  36  56  83 108 142 183 220 265 327
#
# _framework density 18.605521
#
# number of rings (size 3 to 8) (size 9 to 14) (size 15 to 20)
#    0.000    2.333    0.000    3.000    1.167    4.000 
#    1.500    0.000    0.000    7.500    0.000    3.500 
#    0.000    0.000    0.000    0.000    0.000    0.000 
#
# Total GULP energy -133721.515838 kJ/mol
# GULP energy per Si atom -5571.729827 kJ/mol
# Density = 1.856317 g / cm^3
# Si number density = 18.605521 Si / 1000 Ang^3
#
#
#
# Elastic Constant Matrix: (Units=GPa)
#
#
# Indices 1 2 3 4 5 6 
#
# 1 97.8810 18.9035 40.2145 0.0000 0.0000 0.0000
# 2 18.9035 93.3049 32.0054 0.0000 0.0000 0.0000
# 3 40.2145 32.0054 69.8566 0.0000 0.0000 0.0000
# 4 0.0000 0.0000 0.0000 18.2437 0.0000 0.0000
# 5 0.0000 0.0000 0.0000 0.0000 -78.7193 0.0000
# 6 0.0000 0.0000 0.0000 0.0000 0.0000 12.2254
#
#
#
# Elastic Compliance Matrix: (Units=1/GPa)
#
#
# Indices 1 2 3 4 5 6 
#
# 1 0.013382 -0.000081 -0.007666 0.000000 0.000000 0.000000
# 2 -0.000081 0.012716 -0.005779 0.000000 0.000000 0.000000
# 3 -0.007666 -0.005779 0.021376 0.000000 0.000000 0.000000
# 4 0.000000 0.000000 0.000000 0.054813 0.000000 0.000000
# 5 0.000000 0.000000 0.000000 0.000000 -0.012703 0.000000
# 6 0.000000 0.000000 0.000000 0.000000 0.000000 0.081797
#
#
# Mechanical properties :
#
#
# Convention : Reuss Voigt Hill
#
# Bulk Modulus (GPa) = 48.97041 49.25435 49.11238
# Shear Modulus (GPa) = 24.36144 1.67790 13.01967
#
# Velocity S-wave (km/s) = 3.62244 0.95068 2.64819
# Velocity P-wave (km/s) = 6.62372 5.26645 5.98369
#
# Compressibility (1/GPa) = 0.02042049
#
# Stress axis : x y z
#
# Youngs Moduli (GPa) = 74.72767 78.63829 46.78122
#
# Poissons Ratio (x) = 0.00641 0.35864
# Poissons Ratio (y) = 0.00609 0.27036
# Poissons Ratio (z) = 0.57288 0.45447
#
# Static dielectric constant tensor:
#      x y z
#    x 1.661370 0.000000 0.000000 
#    y 0.000000 1.645050 0.000000 
#    z 0.000000 0.000000 1.692960 
# 
# From -- ./inp_files/37786.got.cif
#   From: 2010.05.17/outbox.cif.g08.bks.cpg/sg21_19_cif.got.tgz:37786.got - 2010.06.03 23:14:55.
