data_PCOD9322694
_publ_section_title
;
Structure prediction by ZEFSAII (Michael W. Deem and Ramdas Pophale) SiO2 
 PCOD9322694
Probable space group: C 2 2 2
;
_chemical_formula_sum "Si O2"
_cell_formula_units_Z 58
_cell_length_a 25.703407
_cell_length_b 15.218708
_cell_length_c 7.226904
_cell_angle_alpha 90.000000
_cell_angle_beta 90.000000
_cell_angle_gamma 90.000000
_cell_volume 2826.967158
_symmetry_space_group_name_H-M "C 2 2 2"
_symmetry_group_IT_number 21
_symmetry_cell_setting 'orthorhombic'
loop_
_space_group_symop_operation_xyz
x,y,z
-x,-y,z
x,-y,-z
-x,y,-z
1/2+x,1/2+y,z
1/2-x,1/2-y,z
1/2+x,1/2-y,-z
1/2-x,1/2+y,-z
loop_
_atom_site_type_symbol
_atom_site_label
_atom_site_fract_x
_atom_site_fract_y
_atom_site_fract_z
Si Si1 0.778609 0.014442 0.287425
Si Si2 0.000000 0.500000 0.500000
Si Si3 0.799856 0.200026 0.336138
Si Si4 0.508711 0.852897 0.219185
Si Si5 0.708971 0.322382 0.765751
Si Si6 0.107973 0.669484 0.264772
Si Si7 0.158111 0.492921 0.223451
Si Si8 0.618484 0.803438 0.172634
O O1 0.804945 0.106706 0.233413
O O2 0.715917 0.021372 0.282369
O O3 0.795812 0.000000 0.500000
O O4 0.787465 0.923791 0.177138
O O5 0.024988 0.433991 0.349657
O O6 0.750000 0.250000 0.253424
O O7 0.782711 0.176851 0.544578
O O8 0.850681 0.261614 0.346716
O O9 0.453580 0.817025 0.292288
O O10 0.558753 0.791253 0.229098
O O11 0.500000 0.877301 0.000000
O O12 0.750000 0.250000 0.839881
O O13 0.653083 0.280848 0.796375
O O14 0.120918 0.567712 0.308047
O O15 0.117478 0.678659 0.045683
O O16 0.144105 0.391211 0.263864
O O17 0.155244 0.500000 0.000000
#
# Coordination Sequence:
#
# PCOD9322694 Si02
#       8
#     8   2   8   8   8   8   8   8
#     4  10  20  35  50  77 114 146 174 231 290 324
#     4  12  22  36  64  90 112 174 194 228 300 356
#     4  10  20  34  54  80 110 144 186 234 282 344
#     4  10  23  41  55  85 124 152 199 249 286 341
#     4  10  20  34  54  80 110 144 186 234 282 344
#     4  10  21  37  56  77 113 153 185 236 287 333
#     4  10  19  30  50  78 107 145 182 218 272 341
#     4  10  21  37  56  77 113 153 185 236 287 333
#
# _framework density 20.516686
#
# number of rings (size 3 to 8) (size 9 to 14) (size 15 to 20)
#    0.000    1.931    2.759    1.034    1.931    3.862 
#    2.483    0.000    0.000    0.828    0.000    5.793 
#    0.000    0.000    0.000    0.000    0.000    0.000 
#
# Total GULP energy -161735.570488 kJ/mol
# GULP energy per Si atom -5577.088638 kJ/mol
# Density = 2.046999 g / cm^3
# Si number density = 20.516686 Si / 1000 Ang^3
#
#
#
# Elastic Constant Matrix: (Units=GPa)
#
#
# Indices 1 2 3 4 5 6 
#
# 1 103.1231 60.0910 -11.2287 0.0000 0.0000 0.0000
# 2 60.0910 136.2841 -4.4041 0.0000 0.0000 0.0000
# 3 -11.2287 -4.4041 65.1747 0.0000 0.0000 0.0000
# 4 0.0000 0.0000 0.0000 12.7371 0.0000 0.0000
# 5 0.0000 0.0000 0.0000 0.0000 26.7305 0.0000
# 6 0.0000 0.0000 0.0000 0.0000 0.0000 26.0775
#
#
#
# Elastic Compliance Matrix: (Units=1/GPa)
#
#
# Indices 1 2 3 4 5 6 
#
# 1 0.013280 -0.005794 0.001896 0.000000 0.000000 0.000000
# 2 -0.005794 0.009882 -0.000331 0.000000 0.000000 0.000000
# 3 0.001896 -0.000331 0.015648 0.000000 0.000000 0.000000
# 4 0.000000 0.000000 0.000000 0.078511 0.000000 0.000000
# 5 0.000000 0.000000 0.000000 0.000000 0.037410 0.000000
# 6 0.000000 0.000000 0.000000 0.000000 0.000000 0.038347
#
#
# Mechanical properties :
#
#
# Convention : Reuss Voigt Hill
#
# Bulk Modulus (GPa) = 32.94575 43.72204 38.33390
# Shear Modulus (GPa) = 23.62364 30.45059 27.03712
#
# Velocity S-wave (km/s) = 3.39696 3.85669 3.63411
# Velocity P-wave (km/s) = 5.61059 6.41785 6.02775
#
# Compressibility (1/GPa) = 0.03035293
#
# Stress axis : x y z
#
# Youngs Moduli (GPa) = 75.30131 101.19678 63.90687
#
# Poissons Ratio (x) = 0.58635 -0.12119
# Poissons Ratio (y) = 0.43631 0.02112
# Poissons Ratio (z) = -0.14280 0.03345
#
# Static dielectric constant tensor:
#      x y z
#    x 1.723040 0.000000 0.000000 
#    y 0.000000 1.753800 0.000000 
#    z 0.000000 0.000000 1.826150 
# 
# From -- ./inp_files/18594.got.cif
#   From: 2010.05.17/outbox.cif.g08.bks.cpg/sg21_10_cif.got.tgz:18594.got - 2010.06.03 23:14:55.
