data_PCOD9322351
_publ_section_title
;
Structure prediction by ZEFSAII (Michael W. Deem and Ramdas Pophale) SiO2 
 PCOD9322351
Probable space group: C 2 2 2
;
_chemical_formula_sum "Si O2"
_cell_formula_units_Z 48
_cell_length_a 5.126300
_cell_length_b 26.843171
_cell_length_c 14.296395
_cell_angle_alpha 90.000000
_cell_angle_beta 90.000000
_cell_angle_gamma 90.000000
_cell_volume 1967.271839
_symmetry_space_group_name_H-M "C 2 2 2"
_symmetry_group_IT_number 21
_symmetry_cell_setting 'orthorhombic'
loop_
_space_group_symop_operation_xyz
x,y,z
-x,-y,z
x,-y,-z
-x,y,-z
1/2+x,1/2+y,z
1/2-x,1/2-y,z
1/2+x,1/2-y,-z
1/2-x,1/2+y,-z
loop_
_atom_site_type_symbol
_atom_site_label
_atom_site_fract_x
_atom_site_fract_y
_atom_site_fract_z
Si Si1 0.939076 0.334969 0.202974
Si Si2 0.299562 0.408604 0.575868
Si Si3 0.786033 0.577107 0.304471
Si Si4 0.850059 0.800938 0.612624
Si Si5 0.753091 0.592028 0.936588
Si Si6 0.500000 0.000000 0.173723
Si Si7 0.750000 0.750000 0.252736
O O1 0.822113 0.314850 0.298871
O O2 0.734613 0.361689 0.135213
O O3 0.126047 0.379792 0.234203
O O4 0.093095 0.285102 0.180084
O O5 0.500000 0.433631 0.500000
O O6 0.493068 0.412835 0.663917
O O7 0.293917 0.349769 0.550910
O O8 0.007792 0.424115 0.610534
O O9 0.805458 0.527678 0.244279
O O10 0.750000 0.750000 0.566194
O O11 0.110589 0.786874 0.670633
O O12 0.841776 0.540677 0.886144
O O13 0.500000 0.584857 0.000000
O O14 0.000000 0.605871 0.000000
#
# Coordination Sequence:
#
# PCOD9322351 Si02
#       7
#     8   8   8   8   8   4   4
#     4   9  20  36  64  88 126 171 215 268 311 397
#     4  11  22  40  60  93 135 174 212 283 345 382
#     4  10  22  41  65  93 126 174 228 263 330 403
#     4   9  19  35  57  89 120 169 226 264 309 384
#     4  11  26  43  68 100 136 160 207 273 358 403
#     4  10  25  46  73  98 126 176 224 278 331 428
#     4  10  16  34  66  88 118 168 242 258 300 382
#
# _framework density 24.399270000000001
#
# number of rings (size 3 to 8) (size 9 to 14) (size 15 to 20)
#    0.000    2.000    1.667    0.750    2.333    7.333 
#    1.500    2.500    5.500    0.000    0.000    0.000 
#    0.000    0.000    0.000    0.000    0.000    0.000 
#
# Total GULP energy -133720.306034 kJ/mol
# GULP energy per Si atom -5571.679418 kJ/mol
# Density = 2.434374 g / cm^3
# Si number density = 24.399270 Si / 1000 Ang^3
#
#
#
# Elastic Constant Matrix: (Units=GPa)
#
#
# Indices 1 2 3 4 5 6 
#
# 1 111.5280 16.0619 7.1063 0.0000 0.0000 0.0000
# 2 16.0619 62.6804 25.0361 0.0000 0.0000 0.0000
# 3 7.1063 25.0361 47.1861 0.0000 0.0000 0.0000
# 4 0.0000 0.0000 0.0000-1995.5900 0.0000 0.0000
# 5 0.0000 0.0000 0.0000 0.0000 23.8910 0.0000
# 6 0.0000 0.0000 0.0000 0.0000 0.0000 -6.6590
#
#
#
# Elastic Compliance Matrix: (Units=1/GPa)
#
#
# Indices 1 2 3 4 5 6 
#
# 1 0.009311 -0.002317 -0.000173 0.000000 0.000000 0.000000
# 2 -0.002317 0.020821 -0.010698 0.000000 0.000000 0.000000
# 3 -0.000173 -0.010698 0.026895 0.000000 0.000000 0.000000
# 4 0.000000 0.000000 0.000000 -0.000501 0.000000 0.000000
# 5 0.000000 0.000000 0.000000 0.000000 0.041857 0.000000
# 6 0.000000 0.000000 0.000000 0.000000 0.000000 -0.150173
#
#
# Mechanical properties :
#
#
# Convention : Reuss Voigt Hill
#
# Bulk Modulus (GPa) = 32.62564 35.31147 33.96855
# Shear Modulus (GPa) = -329.00584 -384.12559 -356.56571
#
# Velocity S-wave (km/s) = -11.62477 -12.56085 -12.10186
# Velocity P-wave (km/s) = 12.91432 13.99510 13.46556
#
# Compressibility (1/GPa) = 0.03065074
#
# Stress axis : x y z
#
# Youngs Moduli (GPa) = 107.39930 48.02895 37.18159
#
# Poissons Ratio (x) = 0.11128 0.00643
# Poissons Ratio (y) = 0.24883 0.39778
# Poissons Ratio (z) = 0.01858 0.51382
#
# Static dielectric constant tensor:
#      x y z
#    x 39.173610 0.000000 0.000000 
#    y 0.000000 2.219690 0.000000 
#    z 0.000000 0.000000 2.267520 
# 
# From -- ./inp_files/29413.got.cif
#   From: 2010.05.17/outbox.cif.g08.bks.cpg/sg21_15_cif.got.tgz:29413.got - 2010.06.03 23:14:55.
