data_PCOD9322341
_publ_section_title
;
Structure prediction by ZEFSAII (Michael W. Deem and Ramdas Pophale) SiO2 
 PCOD9322341
Probable space group: C 2 2 2
;
_chemical_formula_sum "Si O2"
_cell_formula_units_Z 48
_cell_length_a 21.799150
_cell_length_b 12.881875
_cell_length_c 7.575724
_cell_angle_alpha 90.000000
_cell_angle_beta 90.000000
_cell_angle_gamma 90.000000
_cell_volume 2127.368794
_symmetry_space_group_name_H-M "C 2 2 2"
_symmetry_group_IT_number 21
_symmetry_cell_setting 'orthorhombic'
loop_
_space_group_symop_operation_xyz
x,y,z
-x,-y,z
x,-y,-z
-x,y,-z
1/2+x,1/2+y,z
1/2-x,1/2-y,z
1/2+x,1/2-y,-z
1/2-x,1/2+y,-z
loop_
_atom_site_type_symbol
_atom_site_label
_atom_site_fract_x
_atom_site_fract_y
_atom_site_fract_z
Si Si1 0.820233 0.774483 0.294351
Si Si2 0.583066 0.901241 0.288741
Si Si3 0.340392 0.724463 0.278593
Si Si4 0.686357 0.952252 0.814926
Si Si5 0.961382 0.683264 0.646682
Si Si6 0.188840 0.999000 0.698842
O O1 0.750000 0.750000 0.246800
O O2 0.870222 0.690777 0.233854
O O3 0.824111 0.774100 0.510590
O O4 0.833261 0.890123 0.225310
O O5 0.512383 0.876974 0.239320
O O6 0.618397 0.002566 0.221810
O O7 0.574074 0.110567 0.497984
O O8 0.310450 0.828045 0.197565
O O9 0.412324 0.748222 0.256999
O O10 0.325524 0.609384 0.213830
O O11 0.736939 0.001651 0.687063
O O12 0.705168 0.000000 0.000000
O O13 0.000000 0.749040 0.500000
O O14 0.163475 0.000000 0.500000
#
# Coordination Sequence:
#
# PCOD9322341 Si02
#       6
#     8   8   8   8   8   8
#     4  10  16  32  60  86 111 146 197 252 291 358
#     4   8  18  35  54  86 111 150 197 237 305 351
#     4  10  20  36  55  83 120 151 198 240 304 358
#     4  12  24  37  54  89 126 159 194 250 309 379
#     4   7  17  35  61  85 115 151 194 259 301 354
#     4  10  21  36  61  87 114 156 196 248 304 360
#
# _framework density 22.563082000000001
#
# number of rings (size 3 to 8) (size 9 to 14) (size 15 to 20)
#    1.000    1.333    1.667    2.500    2.333    0.667 
#    9.000    2.500    3.667    0.000    0.000    0.000 
#    0.000    0.000    0.000    0.000    0.000    0.000 
#
# Total GULP energy -133650.721598 kJ/mol
# GULP energy per Si atom -5568.780067 kJ/mol
# Density = 2.251173 g / cm^3
# Si number density = 22.563082 Si / 1000 Ang^3
#
#
#
# Elastic Constant Matrix: (Units=GPa)
#
#
# Indices 1 2 3 4 5 6 
#
# 1 99.5676 41.3056 -5.8591 0.0000 0.0000 0.0000
# 2 41.3056 183.3668 17.7561 0.0000 0.0000 0.0000
# 3 -5.8591 17.7561 54.6253 0.0000 0.0000 0.0000
# 4 0.0000 0.0000 0.0000 3.3753 0.0000 0.0000
# 5 0.0000 0.0000 0.0000 0.0000 -1.8978 0.0000
# 6 0.0000 0.0000 0.0000 0.0000 0.0000 14.2499
#
#
#
# Elastic Compliance Matrix: (Units=1/GPa)
#
#
# Indices 1 2 3 4 5 6 
#
# 1 0.011309 -0.002752 0.002107 0.000000 0.000000 0.000000
# 2 -0.002752 0.006300 -0.002343 0.000000 0.000000 0.000000
# 3 0.002107 -0.002343 0.019294 0.000000 0.000000 0.000000
# 4 0.000000 0.000000 0.000000 0.296271 0.000000 0.000000
# 5 0.000000 0.000000 0.000000 0.000000 -0.526934 0.000000
# 6 0.000000 0.000000 0.000000 0.000000 0.000000 0.070176
#
#
# Mechanical properties :
#
#
# Convention : Reuss Voigt Hill
#
# Bulk Modulus (GPa) = 32.33216 49.32942 40.83079
# Shear Modulus (GPa) = -46.59885 22.10262 -12.24811
#
# Velocity S-wave (km/s) = -4.54945 3.13324 -2.33242
# Velocity P-wave (km/s) = 3.63812 5.91607 3.29879
#
# Compressibility (1/GPa) = 0.03092896
#
# Stress axis : x y z
#
# Youngs Moduli (GPa) = 88.42584 158.72383 51.82912
#
# Poissons Ratio (x) = 0.43673 -0.10922
# Poissons Ratio (y) = 0.24331 0.12144
# Poissons Ratio (z) = -0.18635 0.37190
#
# Static dielectric constant tensor:
#      x y z
#    x 1.880870 0.000000 0.000000 
#    y 0.000000 1.885630 0.000000 
#    z 0.000000 0.000000 1.900650 
# 
# From -- ./inp_files/18458.got.cif
#   From: 2010.05.17/outbox.cif.g08.bks.cpg/sg21_10_cif.got.tgz:18458.got - 2010.06.03 23:14:55.
