data_PCOD9322009
_publ_section_title
;
Structure prediction by ZEFSAII (Michael W. Deem and Ramdas Pophale) SiO2 
 PCOD9322009
Probable space group: C 2 2 21
;
_chemical_formula_sum "Si O2"
_cell_formula_units_Z 40
_cell_length_a 8.457919
_cell_length_b 11.928253
_cell_length_c 18.946892
_cell_angle_alpha 90.000000
_cell_angle_beta 90.000000
_cell_angle_gamma 90.000000
_cell_volume 1911.517786
_symmetry_space_group_name_H-M "C 2 2 21"
_symmetry_group_IT_number 20
_symmetry_cell_setting 'orthorhombic'
loop_
_space_group_symop_operation_xyz
x,y,z
-x,-y,1/2+z
x,-y,-z
-x,y,1/2-z
1/2+x,1/2+y,z
1/2-x,1/2-y,1/2+z
1/2+x,1/2-y,-z
1/2-x,1/2+y,1/2-z
loop_
_atom_site_type_symbol
_atom_site_label
_atom_site_fract_x
_atom_site_fract_y
_atom_site_fract_z
Si Si1 0.669045 0.292024 0.942377
Si Si2 0.665866 0.209623 0.789166
Si Si3 0.661991 0.615316 0.466920
Si Si4 0.500000 0.202978 0.250000
Si Si5 0.368535 0.000000 0.000000
Si Si6 0.412922 0.023748 0.364026
O O1 0.688312 0.285221 0.858790
O O2 0.484377 0.305911 0.954003
O O3 0.760893 0.392861 0.980908
O O4 0.727634 0.177863 0.977510
O O5 0.500000 0.239778 0.750000
O O6 0.834954 0.226223 0.749557
O O7 0.638174 0.082590 0.817056
O O8 0.602418 0.500000 0.500000
O O9 0.760534 0.582698 0.398455
O O10 0.494599 0.118635 0.316549
O O11 0.476092 0.012935 0.929703
#
# Coordination Sequence:
#
# PCOD9322009 Si02
#       6
#     8   8   8   4   4   8
#     4  12  25  46  75 112 145 192 248 307 379 442
#     4  12  26  50  74 105 150 200 243 305 376 451
#     4  12  24  43  73 107 142 185 242 306 363 434
#     4  12  28  48  76 102 148 200 242 298 382 456
#     4  12  24  46  84 106 148 198 248 316 380 432
#     4  12  24  50  72 108 146 190 248 312 366 446
#
# _framework density 20.925778999999999
#
# number of rings (size 3 to 8) (size 9 to 14) (size 15 to 20)
#    0.000    0.000    7.000    3.600    0.000    0.000 
#    9.000    0.000    0.000    0.000    0.000    0.000 
#    0.000    0.000    0.000    0.000    0.000    0.000 
#
# Total GULP energy -111761.965015 kJ/mol
# GULP energy per Si atom -5588.098251 kJ/mol
# Density = 2.087815 g / cm^3
# Si number density = 20.925779 Si / 1000 Ang^3
#
#
#
# Elastic Constant Matrix: (Units=GPa)
#
#
# Indices 1 2 3 4 5 6 
#
# 1 161.1231 55.3598 55.5298 0.0000 0.0000 0.0000
# 2 55.3598 65.2680 43.6652 0.0000 0.0000 0.0000
# 3 55.5298 43.6652 93.4989 0.0000 0.0000 0.0000
# 4 0.0000 0.0000 0.0000 16.3154 0.0000 0.0000
# 5 0.0000 0.0000 0.0000 0.0000 8.8272 0.0000
# 6 0.0000 0.0000 0.0000 0.0000 0.0000 47.9830
#
#
#
# Elastic Compliance Matrix: (Units=1/GPa)
#
#
# Indices 1 2 3 4 5 6 
#
# 1 0.009187 -0.006024 -0.002643 0.000000 0.000000 0.000000
# 2 -0.006024 0.026234 -0.008674 0.000000 0.000000 0.000000
# 3 -0.002643 -0.008674 0.016316 0.000000 0.000000 0.000000
# 4 0.000000 0.000000 0.000000 0.061292 0.000000 0.000000
# 5 0.000000 0.000000 0.000000 0.000000 0.113286 0.000000
# 6 0.000000 0.000000 0.000000 0.000000 0.000000 0.020841
#
#
# Mechanical properties :
#
#
# Convention : Reuss Voigt Hill
#
# Bulk Modulus (GPa) = 58.63389 69.88886 64.26138
# Shear Modulus (GPa) = 17.38995 25.64748 21.51872
#
# Velocity S-wave (km/s) = 2.88589 3.50471 3.21025
# Velocity P-wave (km/s) = 6.25981 7.06033 6.67209
#
# Compressibility (1/GPa) = 0.01705498
#
# Stress axis : x y z
#
# Youngs Moduli (GPa) = 108.84738 38.11830 61.29062
#
# Poissons Ratio (x) = 0.22964 0.16198
# Poissons Ratio (y) = 0.65574 0.53162
# Poissons Ratio (z) = 0.28767 0.33063
#
# Static dielectric constant tensor:
#      x y z
#    x 1.754440 0.000000 0.000000 
#    y 0.000000 1.737410 0.000000 
#    z 0.000000 0.000000 1.739980 
# 
# From -- ./inp_files/23203.got.cif
#   From: 2010.05.17/outbox.cif.g08.bks.cpg/sg20_12_cif.got.tgz:23203.got - 2010.06.03 22:52:26.
