data_PCOD9322947
_publ_section_title
;
Structure prediction by ZEFSAII (Michael W. Deem and Ramdas Pophale) SiO2 
 PCOD9322947
Probable space group: C 2 2 2
;
_chemical_formula_sum "Si O2"
_cell_formula_units_Z 48
_cell_length_a 22.529796
_cell_length_b 8.020283
_cell_length_c 11.948415
_cell_angle_alpha 90.000000
_cell_angle_beta 90.000000
_cell_angle_gamma 90.000000
_cell_volume 2159.022909
_symmetry_space_group_name_H-M "C 2 2 2"
_symmetry_group_IT_number 21
_symmetry_cell_setting 'orthorhombic'
loop_
_space_group_symop_operation_xyz
x,y,z
-x,-y,z
x,-y,-z
-x,y,-z
1/2+x,1/2+y,z
1/2-x,1/2-y,z
1/2+x,1/2-y,-z
1/2-x,1/2+y,-z
loop_
_atom_site_type_symbol
_atom_site_label
_atom_site_fract_x
_atom_site_fract_y
_atom_site_fract_z
Si Si1 0.804438 0.165655 0.689401
Si Si2 0.600088 0.252512 0.072979
Si Si3 0.082496 0.028171 0.627799
Si Si4 0.107001 0.391148 0.173484
Si Si5 0.719467 0.574026 0.883143
Si Si6 0.502407 0.727656 0.756629
O O1 0.750000 0.250000 0.622340
O O2 0.849388 0.030391 0.636187
O O3 0.845753 0.308741 0.743811
O O4 0.773571 0.063553 0.789331
O O5 0.649362 0.387502 0.104329
O O6 0.536133 0.296676 0.125000
O O7 0.618447 0.078441 0.132994
O O8 0.602206 0.217271 0.940913
O O9 0.046151 0.906484 0.711439
O O10 0.065142 0.000000 0.500000
O O11 0.057728 0.207177 0.669761
O O12 0.042490 0.380769 0.230109
O O13 0.750000 0.750000 0.859247
O O14 0.742538 0.500000 0.000000
#
# Coordination Sequence:
#
# PCOD9322947 Si02
#       6
#     8   8   8   8   8   8
#     4  11  22  42  63  89 121 167 213 263 316 377
#     4  11  21  36  56  93 132 174 206 246 302 373
#     4  10  22  41  66  92 117 161 212 276 336 378
#     4  10  22  35  59  90 137 172 202 246 302 375
#     4  12  24  36  58  89 128 173 215 252 301 378
#     4  10  19  36  60  90 122 163 203 246 315 382
#
# _framework density 22.232278000000001
#
# number of rings (size 3 to 8) (size 9 to 14) (size 15 to 20)
#    0.000    1.333    3.333    3.500    2.333    1.333 
#    0.000    4.167    0.000   16.000    0.000    0.000 
#    0.000    0.000    0.000    0.000    0.000    0.000 
#
# Total GULP energy -133840.517268 kJ/mol
# GULP energy per Si atom -5576.688220 kJ/mol
# Density = 2.218168 g / cm^3
# Si number density = 22.232278 Si / 1000 Ang^3
#
#
#
# Elastic Constant Matrix: (Units=GPa)
#
#
# Indices 1 2 3 4 5 6 
#
# 1 143.7360 27.8094 11.3857 0.0000 0.0000 0.0000
# 2 27.8094 62.7442 0.7125 0.0000 0.0000 0.0000
# 3 11.3857 0.7125 47.5421 0.0000 0.0000 0.0000
# 4 0.0000 0.0000 0.0000 10.0800 0.0000 0.0000
# 5 0.0000 0.0000 0.0000 0.0000 0.0182 0.0000
# 6 0.0000 0.0000 0.0000 0.0000 0.0000 54.7036
#
#
#
# Elastic Compliance Matrix: (Units=1/GPa)
#
#
# Indices 1 2 3 4 5 6 
#
# 1 0.007762 -0.003420 -0.001808 0.000000 0.000000 0.000000
# 2 -0.003420 0.017447 0.000557 0.000000 0.000000 0.000000
# 3 -0.001808 0.000557 0.021459 0.000000 0.000000 0.000000
# 4 0.000000 0.000000 0.000000 0.099206 0.000000 0.000000
# 5 0.000000 0.000000 0.000000 0.000000 55.083638 0.000000
# 6 0.000000 0.000000 0.000000 0.000000 0.000000 0.018280
#
#
# Mechanical properties :
#
#
# Convention : Reuss Voigt Hill
#
# Bulk Modulus (GPa) = 26.78963 37.09306 31.94135
# Shear Modulus (GPa) = 0.09047 27.23467 13.66257
#
# Velocity S-wave (km/s) = 0.20194 3.50381 2.48168
# Velocity P-wave (km/s) = 3.48287 5.75234 4.75499
#
# Compressibility (1/GPa) = 0.03732787
#
# Stress axis : x y z
#
# Youngs Moduli (GPa) = 128.83235 57.31618 46.60145
#
# Poissons Ratio (x) = 0.19601 0.08424
# Poissons Ratio (y) = 0.44057 -0.02598
# Poissons Ratio (z) = 0.23288 -0.03195
#
# Static dielectric constant tensor:
#      x y z
#    x 1.904370 0.000000 0.000000 
#    y 0.000000 1.896950 0.000000 
#    z 0.000000 0.000000 1.790440 
# 
# From -- ./inp_files/22749.got.cif
#   From: 2010.05.17/outbox.cif.g08.bks.cpg/sg21_12_cif.got.tgz:22749.got - 2010.06.03 23:14:55.
