data_PCOD9322131
_publ_section_title
;
Structure prediction by ZEFSAII (Michael W. Deem and Ramdas Pophale) SiO2 
 PCOD9322131
Probable space group: C 2 2 21
;
_chemical_formula_sum "Si O2"
_cell_formula_units_Z 28
_cell_length_a 8.835710
_cell_length_b 15.560462
_cell_length_c 8.250972
_cell_angle_alpha 90.000000
_cell_angle_beta 90.000000
_cell_angle_gamma 90.000000
_cell_volume 1134.407408
_symmetry_space_group_name_H-M "C 2 2 21"
_symmetry_group_IT_number 20
_symmetry_cell_setting 'orthorhombic'
loop_
_space_group_symop_operation_xyz
x,y,z
-x,-y,1/2+z
x,-y,-z
-x,y,1/2-z
1/2+x,1/2+y,z
1/2-x,1/2-y,1/2+z
1/2+x,1/2-y,-z
1/2-x,1/2+y,1/2-z
loop_
_atom_site_type_symbol
_atom_site_label
_atom_site_fract_x
_atom_site_fract_y
_atom_site_fract_z
Si Si1 0.844050 0.950093 0.327269
Si Si2 0.419344 0.840137 0.604280
Si Si3 0.639197 0.781969 0.372584
Si Si4 0.209001 0.500000 0.000000
O O1 0.727523 0.872342 0.358913
O O2 0.000000 0.914168 0.250000
O O3 0.863012 0.000000 0.500000
O O4 0.793519 0.009606 0.173137
O O5 0.500000 0.888454 0.750000
O O6 0.550497 0.777168 0.542568
O O7 0.266194 0.790387 0.639437
O O8 0.385233 0.913698 0.475793
O O9 0.500000 0.770701 0.250000
#
# Coordination Sequence:
#
# PCOD9322131 Si02
#       4
#     8   8   8   4
#     4  12  27  49  80 117 163 211 266 329 399 474
#     4  12  28  48  79 113 156 208 268 326 404 472
#     4  12  27  49  79 111 160 205 267 329 397 475
#     4  12  28  50  80 118 156 208 272 328 400 468
#
# _framework density 24.682490999999999
#
# number of rings (size 3 to 8) (size 9 to 14) (size 15 to 20)
#    0.000    0.000    4.286    4.286   10.000    1.143 
#    0.000    0.000    0.000    0.000    0.000    0.000 
#    0.000    0.000    0.000    0.000    0.000    0.000 
#
# Total GULP energy -78199.848884 kJ/mol
# GULP energy per Si atom -5585.703492 kJ/mol
# Density = 2.462631 g / cm^3
# Si number density = 24.682491 Si / 1000 Ang^3
#
#
#
# Elastic Constant Matrix: (Units=GPa)
#
#
# Indices 1 2 3 4 5 6 
#
# 1 195.3837 65.9289 53.7267 0.0000 0.0000 0.0000
# 2 65.9289 103.6912 34.2008 0.0000 0.0000 0.0000
# 3 53.7267 34.2008 135.2811 0.0000 0.0000 0.0000
# 4 0.0000 0.0000 0.0000 27.1599 0.0000 0.0000
# 5 0.0000 0.0000 0.0000 0.0000 52.6361 0.0000
# 6 0.0000 0.0000 0.0000 0.0000 0.0000 36.9684
#
#
#
# Elastic Compliance Matrix: (Units=1/GPa)
#
#
# Indices 1 2 3 4 5 6 
#
# 1 0.006886 -0.003793 -0.001776 0.000000 0.000000 0.000000
# 2 -0.003793 0.012610 -0.001682 0.000000 0.000000 0.000000
# 3 -0.001776 -0.001682 0.008523 0.000000 0.000000 0.000000
# 4 0.000000 0.000000 0.000000 0.036819 0.000000 0.000000
# 5 0.000000 0.000000 0.000000 0.000000 0.018998 0.000000
# 6 0.000000 0.000000 0.000000 0.000000 0.000000 0.027050
#
#
# Mechanical properties :
#
#
# Convention : Reuss Voigt Hill
#
# Bulk Modulus (GPa) = 73.97504 82.45209 78.21356
# Shear Modulus (GPa) = 38.49308 42.05283 40.27296
#
# Velocity S-wave (km/s) = 3.95337 4.13213 4.04374
# Velocity P-wave (km/s) = 7.13264 7.49957 7.31841
#
# Compressibility (1/GPa) = 0.01351807
#
# Stress axis : x y z
#
# Youngs Moduli (GPa) = 145.21643 79.30111 117.33583
#
# Poissons Ratio (x) = 0.30076 0.20839
# Poissons Ratio (y) = 0.55075 0.19733
# Poissons Ratio (z) = 0.25791 0.13337
#
# Static dielectric constant tensor:
#      x y z
#    x 1.960630 0.000000 0.000000 
#    y 0.000000 1.878900 0.000000 
#    z 0.000000 0.000000 2.466190 
# 
# From -- ./inp_files/5690.got.cif
#   From: 2010.05.17/outbox.cif.g08.bks.cpg/sg20_3_cif.got.tgz:5690.got - 2010.06.03 22:52:26.
