data_PCOD9322059
_publ_section_title
;
Structure prediction by ZEFSAII (Michael W. Deem and Ramdas Pophale) SiO2 
 PCOD9322059
Probable space group: C 2 2 21
;
_chemical_formula_sum "Si O2"
_cell_formula_units_Z 60
_cell_length_a 5.519781
_cell_length_b 22.488230
_cell_length_c 21.160573
_cell_angle_alpha 90.000000
_cell_angle_beta 90.000000
_cell_angle_gamma 90.000000
_cell_volume 2626.664142
_symmetry_space_group_name_H-M "C 2 2 21"
_symmetry_group_IT_number 20
_symmetry_cell_setting 'orthorhombic'
loop_
_space_group_symop_operation_xyz
x,y,z
-x,-y,1/2+z
x,-y,-z
-x,y,1/2-z
1/2+x,1/2+y,z
1/2-x,1/2-y,1/2+z
1/2+x,1/2-y,-z
1/2-x,1/2+y,1/2-z
loop_
_atom_site_type_symbol
_atom_site_label
_atom_site_fract_x
_atom_site_fract_y
_atom_site_fract_z
Si Si1 0.106791 0.213086 0.355909
Si Si2 0.346699 0.497344 0.137586
Si Si3 0.851862 0.530020 0.067488
Si Si4 0.500000 0.792453 0.250000
Si Si5 0.249144 0.888984 0.713658
Si Si6 0.093609 0.212075 0.936619
Si Si7 0.375726 0.361869 0.180671
Si Si8 0.287858 0.830908 0.938697
O O1 0.263302 0.153517 0.348003
O O2 0.156085 0.261587 0.409515
O O3 0.161063 0.247371 0.290742
O O4 0.846862 0.186578 0.373648
O O5 0.607317 0.515828 0.107767
O O6 0.290115 0.543354 0.193465
O O7 0.365684 0.430117 0.161211
O O8 0.106742 0.504543 0.093997
O O9 0.874032 0.601421 0.062736
O O10 0.810872 0.500000 0.000000
O O11 0.618521 0.833131 0.197166
O O12 0.500000 0.882770 0.750000
O O13 0.000000 0.871957 0.750000
O O14 0.983942 0.175229 0.877894
O O15 0.959710 0.274419 0.949596
O O16 0.112186 0.173335 0.999560
O O17 0.500000 0.356298 0.250000
#
# Coordination Sequence:
#
# PCOD9322059 Si02
#       8
#     8   8   8   4   8   8   8   8
#     4  12  25  45  70 109 151 190 252 306 388 457
#     4  12  28  50  76 109 151 199 263 313 383 454
#     4  12  28  51  79 110 150 205 260 323 382 458
#     4  12  26  42  72 104 146 198 236 310 380 468
#     4  12  27  45  76 107 147 195 250 313 375 454
#     4  12  26  45  73 110 150 197 252 317 394 462
#     4  12  28  46  74 107 155 200 251 315 388 465
#     4  12  26  47  75 109 149 197 255 321 384 461
#
# _framework density 22.842663000000002
#
# number of rings (size 3 to 8) (size 9 to 14) (size 15 to 20)
#    0.000    0.000    6.000    3.200    6.533    2.133 
#    0.000    0.000    0.000    0.000    0.000    0.000 
#    0.000    0.000    0.000    0.000    0.000    0.000 
#
# Total GULP energy -167509.707058 kJ/mol
# GULP energy per Si atom -5583.656902 kJ/mol
# Density = 2.279067 g / cm^3
# Si number density = 22.842663 Si / 1000 Ang^3
#
#
#
# Elastic Constant Matrix: (Units=GPa)
#
#
# Indices 1 2 3 4 5 6 
#
# 1 89.0667 24.9423 29.5697 0.0000 0.0000 0.0000
# 2 24.9423 166.5126 38.5246 0.0000 0.0000 0.0000
# 3 29.5697 38.5246 86.1637 0.0000 0.0000 0.0000
# 4 0.0000 0.0000 0.0000 46.8471 0.0000 0.0000
# 5 0.0000 0.0000 0.0000 0.0000 37.2900 0.0000
# 6 0.0000 0.0000 0.0000 0.0000 0.0000 -5.4120
#
#
#
# Elastic Compliance Matrix: (Units=1/GPa)
#
#
# Indices 1 2 3 4 5 6 
#
# 1 0.012821 -0.001007 -0.003950 0.000000 0.000000 0.000000
# 2 -0.001007 0.006778 -0.002685 0.000000 0.000000 0.000000
# 3 -0.003950 -0.002685 0.014162 0.000000 0.000000 0.000000
# 4 0.000000 0.000000 0.000000 0.021346 0.000000 0.000000
# 5 0.000000 0.000000 0.000000 0.000000 0.026817 0.000000
# 6 0.000000 0.000000 0.000000 0.000000 0.000000 -0.184774
#
#
# Mechanical properties :
#
#
# Convention : Reuss Voigt Hill
#
# Bulk Modulus (GPa) = 54.11981 58.64625 56.38303
# Shear Modulus (GPa) = -61.41780 32.32545 -14.54617
#
# Velocity S-wave (km/s) = -5.19092 3.76591 -2.52622
# Velocity P-wave (km/s) = 3.49052 6.68125 4.02836
#
# Compressibility (1/GPa) = 0.01847752
#
# Stress axis : x y z
#
# Youngs Moduli (GPa) = 77.99872 147.54693 70.61300
#
# Poissons Ratio (x) = 0.14852 0.27890
# Poissons Ratio (y) = 0.07852 0.18958
# Poissons Ratio (z) = 0.30807 0.39614
#
# Static dielectric constant tensor:
#      x y z
#    x 2.009080 0.000000 0.000000 
#    y 0.000000 1.791060 0.000000 
#    z 0.000000 0.000000 1.997610 
# 
# From -- ./inp_files/26220.got.cif
#   From: 2010.05.17/outbox.cif.g08.bks.cpg/sg20_14_cif.got.tgz:26220.got - 2010.06.03 22:52:26.
