data_PCOD9322441
_publ_section_title
;
Structure prediction by ZEFSAII (Michael W. Deem and Ramdas Pophale) SiO2 
 PCOD9322441
Probable space group: C 2 2 2
;
_chemical_formula_sum "Si O2"
_cell_formula_units_Z 48
_cell_length_a 10.323433
_cell_length_b 31.936883
_cell_length_c 5.637937
_cell_angle_alpha 90.000000
_cell_angle_beta 90.000000
_cell_angle_gamma 90.000000
_cell_volume 1858.818086
_symmetry_space_group_name_H-M "C 2 2 2"
_symmetry_group_IT_number 21
_symmetry_cell_setting 'orthorhombic'
loop_
_space_group_symop_operation_xyz
x,y,z
-x,-y,z
x,-y,-z
-x,y,-z
1/2+x,1/2+y,z
1/2-x,1/2-y,z
1/2+x,1/2-y,-z
1/2-x,1/2+y,-z
loop_
_atom_site_type_symbol
_atom_site_label
_atom_site_fract_x
_atom_site_fract_y
_atom_site_fract_z
Si Si1 0.000000 0.910614 0.000000
Si Si2 0.224215 0.549621 0.507174
Si Si3 0.724949 0.674337 0.822437
Si Si4 0.774938 0.798109 0.315489
Si Si5 0.276658 0.078421 0.981868
Si Si6 0.504578 0.153884 0.750899
Si Si7 0.000000 0.902978 0.500000
O O1 0.128100 0.939126 0.002878
O O2 0.990463 0.883272 0.239569
O O3 0.230494 0.500000 0.500000
O O4 0.158376 0.561509 0.256000
O O5 0.367940 0.570143 0.491449
O O6 0.170994 0.567814 0.757226
O O7 0.667928 0.680999 0.557057
O O8 0.740417 0.626521 0.914454
O O9 0.879085 0.684183 0.772420
O O10 0.666335 0.698581 0.048096
O O11 0.750000 0.750000 0.372546
O O12 0.637586 0.821060 0.269246
O O13 0.500000 0.131067 0.500000
O O14 0.500000 0.129365 0.000000
#
# Coordination Sequence:
#
# PCOD9322441 Si02
#       7
#     4   8   8   8   8   8   4
#     4   8  16  28  43  60  94 132 164 214 248 296
#     4  10  18  29  45  70  99 132 176 219 261 308
#     4  10  19  33  53  74 103 136 172 208 261 313
#     4  10  19  33  55  78 102 127 160 214 275 308
#     4  10  19  31  48  68  99 140 173 214 262 304
#     4   8  16  30  50  74  98 123 155 207 251 296
#     4   8  15  26  42  64  86 124 172 214 256 298
#
# _framework density 25.822856999999999
#
# number of rings (size 3 to 8) (size 9 to 14) (size 15 to 20)
#    0.000    2.667    0.000    2.250    0.000    0.000 
#    0.000    5.000   16.500    0.000    0.000    0.000 
#    0.000   90.000    0.000    0.000    0.000    0.000 
#
# Total GULP energy -133610.195203 kJ/mol
# GULP energy per Si atom -5567.091467 kJ/mol
# Density = 2.576408 g / cm^3
# Si number density = 25.822857 Si / 1000 Ang^3
#
#
#
# Elastic Constant Matrix: (Units=GPa)
#
#
# Indices 1 2 3 4 5 6 
#
# 1 55.9847 8.1504 26.8812 0.0000 0.0000 0.0000
# 2 8.1504 90.1200 59.9902 0.0000 0.0000 0.0000
# 3 26.8812 59.9902 379.0478 0.0000 0.0000 0.0000
# 4 0.0000 0.0000 0.0000 31.9584 0.0000 0.0000
# 5 0.0000 0.0000 0.0000 0.0000 28.3001 0.0000
# 6 0.0000 0.0000 0.0000 0.0000 0.0000 -3.6393
#
#
#
# Elastic Compliance Matrix: (Units=1/GPa)
#
#
# Indices 1 2 3 4 5 6 
#
# 1 0.018556 -0.000897 -0.001174 0.000000 0.000000 0.000000
# 2 -0.000897 0.012446 -0.001906 0.000000 0.000000 0.000000
# 3 -0.001174 -0.001906 0.003023 0.000000 0.000000 0.000000
# 4 0.000000 0.000000 0.000000 0.031291 0.000000 0.000000
# 5 0.000000 0.000000 0.000000 0.000000 0.035336 0.000000
# 6 0.000000 0.000000 0.000000 0.000000 0.000000 -0.274782
#
#
# Mechanical properties :
#
#
# Convention : Reuss Voigt Hill
#
# Bulk Modulus (GPa) = 38.35557 79.46623 58.91090
# Shear Modulus (GPa) = -31.74906 39.99922 4.12508
#
# Velocity S-wave (km/s) = -3.51022 3.93998 1.26528
# Velocity P-wave (km/s) = 1.24228 7.17902 4.99976
#
# Compressibility (1/GPa) = 0.02607183
#
# Stress axis : x y z
#
# Youngs Moduli (GPa) = 53.89005 80.34491 330.78156
#
# Poissons Ratio (x) = 0.07204 0.38836
# Poissons Ratio (y) = 0.04832 0.63055
# Poissons Ratio (z) = 0.06327 0.15316
#
# Static dielectric constant tensor:
#      x y z
#    x 2.278340 0.000000 0.000000 
#    y 0.000000 1.963800 0.000000 
#    z 0.000000 0.000000 2.204340 
# 
# From -- ./inp_files/4161.got.cif
#   From: 2010.05.17/outbox.cif.g08.bks.cpg/sg21_3_cif.got.tgz:4161.got - 2010.06.03 23:14:55.
