data_PCOD9322118
_publ_section_title
;
Structure prediction by ZEFSAII (Michael W. Deem and Ramdas Pophale) SiO2 
 PCOD9322118
Probable space group: C 2 2 21
;
_chemical_formula_sum "Si O2"
_cell_formula_units_Z 24
_cell_length_a 11.533250
_cell_length_b 9.474040
_cell_length_c 7.641618
_cell_angle_alpha 90.000000
_cell_angle_beta 90.000000
_cell_angle_gamma 90.000000
_cell_volume 834.972638
_symmetry_space_group_name_H-M "C 2 2 21"
_symmetry_group_IT_number 20
_symmetry_cell_setting 'orthorhombic'
loop_
_space_group_symop_operation_xyz
x,y,z
-x,-y,1/2+z
x,-y,-z
-x,y,1/2-z
1/2+x,1/2+y,z
1/2-x,1/2-y,1/2+z
1/2+x,1/2-y,-z
1/2-x,1/2+y,1/2-z
loop_
_atom_site_type_symbol
_atom_site_label
_atom_site_fract_x
_atom_site_fract_y
_atom_site_fract_z
Si Si1 0.500000 0.222700 0.250000
Si Si2 0.123340 0.112437 0.337402
Si Si3 0.417273 0.000000 0.500000
Si Si4 0.255483 0.380468 0.293622
O O1 0.383349 0.312095 0.266818
O O2 0.496545 0.115660 0.410671
O O3 0.187292 0.255991 0.391331
O O4 0.000000 0.138110 0.250000
O O5 0.112996 0.000000 0.500000
O O6 0.203057 0.043385 0.182624
O O7 0.335650 0.917425 0.363284
#
# Coordination Sequence:
#
# PCOD9322118 Si02
#       4
#     4   8   4   8
#     4  12  28  52  84 120 166 214 270 340 406 486
#     4  12  29  51  82 121 163 214 268 335 409 481
#     4  12  30  52  80 126 162 218 270 332 416 478
#     4  12  26  51  80 119 163 208 276 331 402 481
#
# _framework density 28.743456999999999
#
# number of rings (size 3 to 8) (size 9 to 14) (size 15 to 20)
#    0.000    0.000    6.667    0.000    7.000    5.333 
#    3.000    0.000    0.000    0.000    0.000    0.000 
#    0.000    0.000    0.000    0.000    0.000    0.000 
#
# Total GULP energy -67094.128135 kJ/mol
# GULP energy per Si atom -5591.177345 kJ/mol
# Density = 2.867804 g / cm^3
# Si number density = 28.743457 Si / 1000 Ang^3
#
#
#
# Elastic Constant Matrix: (Units=GPa)
#
#
# Indices 1 2 3 4 5 6 
#
# 1 206.6022 83.9560 20.7637 0.0000 0.0000 0.0000
# 2 83.9560 171.2177 31.5502 0.0000 0.0000 0.0000
# 3 20.7637 31.5502 23.5222 0.0000 0.0000 0.0000
# 4 0.0000 0.0000 0.0000 82.7875 0.0000 0.0000
# 5 0.0000 0.0000 0.0000 0.0000 39.6901 0.0000
# 6 0.0000 0.0000 0.0000 0.0000 0.0000 24.3698
#
#
#
# Elastic Compliance Matrix: (Units=1/GPa)
#
#
# Indices 1 2 3 4 5 6 
#
# 1 0.006103 -0.002656 -0.001824 0.000000 0.000000 0.000000
# 2 -0.002656 0.008914 -0.009612 0.000000 0.000000 0.000000
# 3 -0.001824 -0.009612 0.057015 0.000000 0.000000 0.000000
# 4 0.000000 0.000000 0.000000 0.012079 0.000000 0.000000
# 5 0.000000 0.000000 0.000000 0.000000 0.025195 0.000000
# 6 0.000000 0.000000 0.000000 0.000000 0.000000 0.041034
#
#
# Mechanical properties :
#
#
# Convention : Reuss Voigt Hill
#
# Bulk Modulus (GPa) = 22.80607 74.87577 48.84092
# Shear Modulus (GPa) = 25.88766 47.04097 36.46431
#
# Velocity S-wave (km/s) = 3.00433 4.04986 3.56562
# Velocity P-wave (km/s) = 4.47060 6.92637 5.82928
#
# Compressibility (1/GPa) = 0.04384798
#
# Stress axis : x y z
#
# Youngs Moduli (GPa) = 163.85248 112.18003 17.53909
#
# Poissons Ratio (x) = 0.29800 0.03200
# Poissons Ratio (y) = 0.43527 0.16858
# Poissons Ratio (z) = 0.29891 1.07824
#
# Static dielectric constant tensor:
#      x y z
#    x 2.180970 0.000000 0.000000 
#    y 0.000000 2.357000 0.000000 
#    z 0.000000 0.000000 2.825730 
# 
# From -- ./inp_files/13461.got.cif
#   From: 2010.05.17/outbox.cif.g08.bks.cpg/sg20_7_cif.got.tgz:13461.got - 2010.06.03 22:52:26.
