data_PCOD9322900
_publ_section_title
;
Structure prediction by ZEFSAII (Michael W. Deem and Ramdas Pophale) SiO2 
 PCOD9322900
Probable space group: C 2 2 2
;
_chemical_formula_sum "Si O2"
_cell_formula_units_Z 40
_cell_length_a 18.520682
_cell_length_b 9.534527
_cell_length_c 11.141150
_cell_angle_alpha 90.000000
_cell_angle_beta 90.000000
_cell_angle_gamma 90.000000
_cell_volume 1967.370474
_symmetry_space_group_name_H-M "C 2 2 2"
_symmetry_group_IT_number 21
_symmetry_cell_setting 'orthorhombic'
loop_
_space_group_symop_operation_xyz
x,y,z
-x,-y,z
x,-y,-z
-x,y,-z
1/2+x,1/2+y,z
1/2-x,1/2-y,z
1/2+x,1/2-y,-z
1/2-x,1/2+y,-z
loop_
_atom_site_type_symbol
_atom_site_label
_atom_site_fract_x
_atom_site_fract_y
_atom_site_fract_z
Si Si1 0.544014 0.745717 0.870740
Si Si2 0.329294 0.228025 0.289299
Si Si3 0.027173 0.338850 0.376166
Si Si4 0.315099 0.949064 0.134893
Si Si5 0.656258 0.515539 0.857104
O O1 0.495506 0.784415 0.755844
O O2 0.615020 0.848113 0.867459
O O3 0.582102 0.598591 0.839572
O O4 0.500000 0.750262 0.000000
O O5 0.250000 0.250000 0.340909
O O6 0.388382 0.191048 0.385941
O O7 0.344294 0.366439 0.209650
O O8 0.330900 0.090100 0.207450
O O9 0.000000 0.500000 0.375718
O O10 0.000000 0.272352 0.500000
O O11 0.232844 0.907764 0.174739
O O12 0.306907 0.000000 0.000000
O O13 0.657996 0.500000 0.000000
#
# Coordination Sequence:
#
# PCOD9322900 Si02
#       5
#     8   8   8   8   8
#     4  12  24  37  63  95 128 161 214 259 312 376
#     4  10  21  40  64  89 124 169 212 256 316 385
#     4  11  24  43  66  92 126 165 209 266 317 369
#     4  10  19  35  60  89 125 165 213 256 310 378
#     4  10  21  37  57  92 132 166 198 262 327 369
#
# _framework density 20.331707000000002
#
# number of rings (size 3 to 8) (size 9 to 14) (size 15 to 20)
#    0.000    1.400    2.000    4.200    0.000    6.000 
#    0.000    5.000    0.000    0.000    0.000    0.000 
#    0.000    0.000    0.000    0.000    0.000    0.000 
#
# Total GULP energy -111340.314390 kJ/mol
# GULP energy per Si atom -5567.015720 kJ/mol
# Density = 2.028543 g / cm^3
# Si number density = 20.331707 Si / 1000 Ang^3
#
#
#
# Elastic Constant Matrix: (Units=GPa)
#
#
# Indices 1 2 3 4 5 6 
#
# 1 157.6149 48.2758 46.5346 0.0000 0.0000 0.0000
# 2 48.2758 60.1715 4.2525 0.0000 0.0000 0.0000
# 3 46.5346 4.2525 84.9764 0.0000 0.0000 0.0000
# 4 0.0000 0.0000 0.0000 -10.4664 0.0000 0.0000
# 5 0.0000 0.0000 0.0000 0.0000 -43.3563 0.0000
# 6 0.0000 0.0000 0.0000 0.0000 0.0000 62.2681
#
#
#
# Elastic Compliance Matrix: (Units=1/GPa)
#
#
# Indices 1 2 3 4 5 6 
#
# 1 0.010318 -0.007907 -0.005254 0.000000 0.000000 0.000000
# 2 -0.007907 0.022737 0.003192 0.000000 0.000000 0.000000
# 3 -0.005254 0.003192 0.014486 0.000000 0.000000 0.000000
# 4 0.000000 0.000000 0.000000 -0.095544 0.000000 0.000000
# 5 0.000000 0.000000 0.000000 0.000000 -0.023065 0.000000
# 6 0.000000 0.000000 0.000000 0.000000 0.000000 0.016060
#
#
# Mechanical properties :
#
#
# Convention : Reuss Voigt Hill
#
# Bulk Modulus (GPa) = 36.22899 55.65430 45.94164
# Shear Modulus (GPa) = -193.27322 15.26907 -89.00207
#
# Velocity S-wave (km/s) = -9.76045 2.74341 -6.62345
# Velocity P-wave (km/s) = 10.44817 6.12108 5.98734
#
# Compressibility (1/GPa) = 0.02760220
#
# Stress axis : x y z
#
# Youngs Moduli (GPa) = 96.92185 43.98116 69.03383
#
# Poissons Ratio (x) = 0.34774 0.36273
# Poissons Ratio (y) = 0.76631 -0.22035
# Poissons Ratio (z) = 0.50927 -0.14038
#
# Static dielectric constant tensor:
#      x y z
#    x 1.874260 0.000000 0.000000 
#    y 0.000000 1.795160 0.000000 
#    z 0.000000 0.000000 1.643040 
# 
# From -- ./inp_files/25832.got.cif
#   From: 2010.05.17/outbox.cif.g08.bks.cpg/sg21_13_cif.got.tgz:25832.got - 2010.06.03 23:14:55.
