data_PCOD9322967
_publ_section_title
;
Structure prediction by ZEFSAII (Michael W. Deem and Ramdas Pophale) SiO2 
 PCOD9322967
Probable space group: C 2 2 2
;
_chemical_formula_sum "Si O2"
_cell_formula_units_Z 44
_cell_length_a 26.357724
_cell_length_b 9.141164
_cell_length_c 8.310073
_cell_angle_alpha 90.000000
_cell_angle_beta 90.000000
_cell_angle_gamma 90.000000
_cell_volume 2002.231297
_symmetry_space_group_name_H-M "C 2 2 2"
_symmetry_group_IT_number 21
_symmetry_cell_setting 'orthorhombic'
loop_
_space_group_symop_operation_xyz
x,y,z
-x,-y,z
x,-y,-z
-x,y,-z
1/2+x,1/2+y,z
1/2-x,1/2-y,z
1/2+x,1/2-y,-z
1/2-x,1/2+y,-z
loop_
_atom_site_type_symbol
_atom_site_label
_atom_site_fract_x
_atom_site_fract_y
_atom_site_fract_z
Si Si1 0.160610 0.093522 0.323620
Si Si2 0.250000 0.250000 0.516522
Si Si3 0.107263 0.803646 0.389246
Si Si4 0.654818 0.794156 0.063295
Si Si5 0.944915 0.834970 0.933140
Si Si6 0.177748 0.423707 0.738008
O O1 0.208692 0.165862 0.409461
O O2 0.110758 0.161198 0.419678
O O3 0.166242 0.140169 0.141474
O O4 0.150099 0.921840 0.332037
O O5 0.223185 0.374289 0.624513
O O6 0.061957 0.832698 0.262407
O O7 0.128848 0.643943 0.352462
O O8 0.666220 0.912682 0.203078
O O9 0.596847 0.777139 0.003517
O O10 0.684999 0.839334 0.906434
O O11 0.000000 0.795215 0.000000
O O12 0.935279 0.000000 0.000000
#
# Coordination Sequence:
#
# PCOD9322967 Si02
#       6
#     8   4   8   8   8   8
#     4  10  20  34  59  80 123 158 207 251 309 359
#     4  10  22  38  54  88 116 172 212 256 292 372
#     4   9  19  36  53  86 119 157 189 257 311 358
#     4  10  20  38  58  86 117 163 193 254 321 353
#     4  10  19  36  65  91 117 152 208 255 305 384
#     4   9  21  36  56  81 123 155 206 248 298 363
#
# _framework density 21.975482
#
# number of rings (size 3 to 8) (size 9 to 14) (size 15 to 20)
#    0.000    2.364    1.818    0.000    0.000    9.455 
#    0.000   13.636    0.000    0.000    0.000   15.273 
#    0.000    0.000    0.000    0.000    0.000    0.000 
#
# Total GULP energy -122555.657069 kJ/mol
# GULP energy per Si atom -5570.711685 kJ/mol
# Density = 2.192547 g / cm^3
# Si number density = 21.975482 Si / 1000 Ang^3
#
#
#
# Elastic Constant Matrix: (Units=GPa)
#
#
# Indices 1 2 3 4 5 6 
#
# 1 96.7052 8.0366 35.0283 0.0000 0.0000 0.0000
# 2 8.0366 56.2509 29.8906 0.0000 0.0000 0.0000
# 3 35.0283 29.8906 55.4133 0.0000 0.0000 0.0000
# 4 0.0000 0.0000 0.0000 47.4715 0.0000 0.0000
# 5 0.0000 0.0000 0.0000 0.0000 30.6005 0.0000
# 6 0.0000 0.0000 0.0000 0.0000 0.0000 20.9685
#
#
#
# Elastic Compliance Matrix: (Units=1/GPa)
#
#
# Indices 1 2 3 4 5 6 
#
# 1 0.013962 0.003778 -0.010863 0.000000 0.000000 0.000000
# 2 0.003778 0.025943 -0.016382 0.000000 0.000000 0.000000
# 3 -0.010863 -0.016382 0.033750 0.000000 0.000000 0.000000
# 4 0.000000 0.000000 0.000000 0.021065 0.000000 0.000000
# 5 0.000000 0.000000 0.000000 0.000000 0.032679 0.000000
# 6 0.000000 0.000000 0.000000 0.000000 0.000000 0.047691
#
#
# Mechanical properties :
#
#
# Convention : Reuss Voigt Hill
#
# Bulk Modulus (GPa) = 37.42601 39.36450 38.39525
# Shear Modulus (GPa) = 21.65150 28.83569 25.24360
#
# Velocity S-wave (km/s) = 3.14229 3.62633 3.39295
# Velocity P-wave (km/s) = 5.49846 5.95697 5.73230
#
# Compressibility (1/GPa) = 0.02671939
#
# Stress axis : x y z
#
# Youngs Moduli (GPa) = 71.62473 38.54634 29.62971
#
# Poissons Ratio (x) = -0.14562 0.32188
# Poissons Ratio (y) = -0.27059 0.48539
# Poissons Ratio (z) = 0.77809 0.63147
#
# Static dielectric constant tensor:
#      x y z
#    x 1.800230 0.000000 0.000000 
#    y 0.000000 1.819840 0.000000 
#    z 0.000000 0.000000 1.885120 
# 
# From -- ./inp_files/19565.got.cif
#   From: 2010.05.17/outbox.cif.g08.bks.cpg/sg21_10_cif.got.tgz:19565.got - 2010.06.03 23:14:55.
