data_PCOD9322197
_publ_section_title
;
Structure prediction by ZEFSAII (Michael W. Deem and Ramdas Pophale) SiO2 
 PCOD9322197
Probable space group: C 2 2 21
;
_chemical_formula_sum "Si O2"
_cell_formula_units_Z 30
_cell_length_a 12.000000
_cell_length_b 9.000000
_cell_length_c 27.000000
_cell_angle_alpha 90.000000
_cell_angle_beta 90.000000
_cell_angle_gamma 90.000000
_cell_volume 2916.000000
_symmetry_space_group_name_H-M "C 2 2 21"
_symmetry_group_IT_number 20
_symmetry_cell_setting 'orthorhombic'
loop_
_space_group_symop_operation_xyz
x,y,z
-x,-y,1/2+z
x,-y,-z
-x,y,1/2-z
1/2+x,1/2+y,z
1/2-x,1/2-y,1/2+z
1/2+x,1/2-y,-z
1/2-x,1/2+y,1/2-z
loop_
_atom_site_type_symbol
_atom_site_label
_atom_site_fract_x
_atom_site_fract_y
_atom_site_fract_z
Si Si1 0.381876 0.000000 0.000000
Si Si2 0.210009 0.219098 0.184872
Si Si3 0.996836 0.257757 0.064645
Si Si4 0.385466 0.929335 0.749729
Si Si5 0.251702 0.818830 0.923060
Si Si6 0.741979 0.549644 0.338321
Si Si7 0.451124 0.209391 0.821679
Si Si8 0.821567 0.997346 0.056489
O O1 0.454698 0.132232 0.977577
O O2 0.302292 0.945191 0.956311
O O3 0.274143 0.136816 0.227642
O O4 0.233403 0.135075 0.133560
O O5 0.272952 0.376838 0.176866
O O6 0.077329 0.238814 0.192972
O O7 0.967897 0.324424 0.119390
O O8 0.931171 0.100940 0.059067
O O9 0.128561 0.233162 0.060838
O O10 0.500000 0.839279 0.750000
O O11 0.355870 0.929338 0.691545
O O12 0.412302 0.075022 0.784960
O O13 0.332184 0.675786 0.929550
O O14 0.641726 0.659305 0.322397
O O15 0.753091 0.558512 0.397876
O O16 0.779023 0.000000 0.000000
#
# Coordination Sequence:
#
# PCOD9322197 Si02
#       8
#     4   8   8   8   8   8   8   8
#     4  12  22  34  60 100 120 160 218 258 300 374
#     4  10  22  45  62  91 129 167 208 257 315 376
#     4  10  23  39  63  91 123 166 211 252 316 369
#     4  12  23  40  65  95 129 163 203 267 315 371
#     4  10  23  39  63  89 127 165 206 256 313 367
#     4  10  22  39  67  92 118 167 215 244 315 378
#     4  10  22  45  65  87 129 171 204 262 316 374
#     4  10  20  42  63  86 125 165 201 257 304 364
#
# _framework density 10.288066000000001
#
# number of rings (size 3 to 8) (size 9 to 14) (size 15 to 20)
#    0.000    1.600    2.667    1.600    1.867    0.000 
#    4.800    0.000    5.867    0.000    0.000    0.000 
#    0.000    0.000    0.000    0.000    0.000    0.000 
#
# Total GULP energy -167077.497215 kJ/mol
# GULP energy per Si atom -5569.249907 kJ/mol
# Density = 1.026465 g / cm^3
# Si number density = 10.288066 Si / 1000 Ang^3
#
#
#
# Elastic Constant Matrix: (Units=GPa)
#
#
# Indices 1 2 3 4 5 6 
#
# 1 84.1212 21.3993 37.4947 0.0000 0.0000 0.0000
# 2 21.3993 24.8990 0.7381 0.0000 0.0000 0.0000
# 3 37.4947 0.7381 89.5170 0.0000 0.0000 0.0000
# 4 0.0000 0.0000 0.0000 12.1239 0.0000 0.0000
# 5 0.0000 0.0000 0.0000 0.0000 27.4364 0.0000
# 6 0.0000 0.0000 0.0000 0.0000 0.0000 18.8444
#
#
#
# Elastic Compliance Matrix: (Units=1/GPa)
#
#
# Indices 1 2 3 4 5 6 
#
# 1 0.019783 -0.016761 -0.008148 0.000000 0.000000 0.000000
# 2 -0.016761 0.054373 0.006572 0.000000 0.000000 0.000000
# 3 -0.008148 0.006572 0.014530 0.000000 0.000000 0.000000
# 4 0.000000 0.000000 0.000000 0.082481 0.000000 0.000000
# 5 0.000000 0.000000 0.000000 0.000000 0.036448 0.000000
# 6 0.000000 0.000000 0.000000 0.000000 0.000000 0.053066
#
#
# Mechanical properties :
#
#
# Convention : Reuss Voigt Hill
#
# Bulk Modulus (GPa) = 19.22651 35.31126 27.26889
# Shear Modulus (GPa) = 15.88855 20.94130 18.41492
#
# Velocity S-wave (km/s) = 2.78183 3.19368 2.99484
# Velocity P-wave (km/s) = 4.43650 5.54959 5.02397
#
# Compressibility (1/GPa) = 0.05201152
#
# Stress axis : x y z
#
# Youngs Moduli (GPa) = 50.54800 18.39164 68.82436
#
# Poissons Ratio (x) = 0.30826 0.56079
# Poissons Ratio (y) = 0.84724 -0.45232
# Poissons Ratio (z) = 0.41187 -0.12087
#
# Static dielectric constant tensor:
#      x y z
#    x 1.701740 0.000000 0.000000 
#    y 0.000000 1.786680 0.000000 
#    z 0.000000 0.000000 1.819540 
# 
# From -- ./inp_files/30323.got.cif
#   From: 2010.05.17/outbox.ucp.g08.bks.cvg/sg20_16_cif.got.tgz:30323.got - 2010.06.11 15:13:06.
