data_PCOD9322281
_publ_section_title
;
Structure prediction by ZEFSAII (Michael W. Deem and Ramdas Pophale) SiO2 
 PCOD9322281
Probable space group: C 2 2 2
;
_chemical_formula_sum "Si O2"
_cell_formula_units_Z 32
_cell_length_a 7.689771
_cell_length_b 14.293124
_cell_length_c 12.942826
_cell_angle_alpha 90.000000
_cell_angle_beta 90.000000
_cell_angle_gamma 90.000000
_cell_volume 1422.557013
_symmetry_space_group_name_H-M "C 2 2 2"
_symmetry_group_IT_number 21
_symmetry_cell_setting 'orthorhombic'
loop_
_space_group_symop_operation_xyz
x,y,z
-x,-y,z
x,-y,-z
-x,y,-z
1/2+x,1/2+y,z
1/2-x,1/2-y,z
1/2+x,1/2-y,-z
1/2-x,1/2+y,-z
loop_
_atom_site_type_symbol
_atom_site_label
_atom_site_fract_x
_atom_site_fract_y
_atom_site_fract_z
Si Si1 0.724993 0.541969 0.106581
Si Si2 0.567198 0.194618 0.615612
Si Si3 0.048848 0.792349 0.809032
Si Si4 0.500000 0.000000 0.264630
Si Si5 0.500000 0.818201 0.000000
O O1 0.580575 0.599240 0.169343
O O2 0.837969 0.480865 0.186809
O O3 0.664719 0.500000 0.000000
O O4 0.861890 0.616154 0.056187
O O5 0.500000 0.186314 0.500000
O O6 0.750000 0.250000 0.604040
O O7 0.471877 0.260927 0.700034
O O8 0.556655 0.091128 0.668860
O O9 0.250000 0.750000 0.808422
O O10 0.948619 0.749597 0.906068
#
# Coordination Sequence:
#
# PCOD9322281 Si02
#       5
#     8   8   8   4   4
#     4  11  17  30  59  93 122 160 212 267 327 412
#     4  11  22  40  64  94 128 176 230 285 338 394
#     4   9  18  33  53  86 127 164 209 271 333 394
#     4  12  18  36  62  94 126 161 227 272 334 408
#     4  10  15  30  53  78 118 158 190 248 333 385
#
# _framework density 22.494703000000001
#
# number of rings (size 3 to 8) (size 9 to 14) (size 15 to 20)
#    0.000    1.500   10.000    0.375    0.000    0.000 
#    0.000    6.875    0.000    3.000    0.000    0.000 
#    0.000    0.000    0.000    0.000    0.000    0.000 
#
# Total GULP energy -89122.267376 kJ/mol
# GULP energy per Si atom -5570.141711 kJ/mol
# Density = 2.244350 g / cm^3
# Si number density = 22.494703 Si / 1000 Ang^3
#
#
#
# Elastic Constant Matrix: (Units=GPa)
#
#
# Indices 1 2 3 4 5 6 
#
# 1 75.7835 39.2372 39.8792 0.0000 0.0000 0.0000
# 2 39.2372 121.9138 63.2556 0.0000 0.0000 0.0000
# 3 39.8792 63.2556 221.6617 0.0000 0.0000 0.0000
# 4 0.0000 0.0000 0.0000 -280.0588 0.0000 0.0000
# 5 0.0000 0.0000 0.0000 0.0000 1.9557 0.0000
# 6 0.0000 0.0000 0.0000 0.0000 0.0000 101.8697
#
#
#
# Elastic Compliance Matrix: (Units=1/GPa)
#
#
# Indices 1 2 3 4 5 6 
#
# 1 0.016357 -0.004387 -0.001691 0.000000 0.000000 0.000000
# 2 -0.004387 0.010805 -0.002294 0.000000 0.000000 0.000000
# 3 -0.001691 -0.002294 0.005470 0.000000 0.000000 0.000000
# 4 0.000000 0.000000 0.000000 -0.003571 0.000000 0.000000
# 5 0.000000 0.000000 0.000000 0.000000 0.511317 0.000000
# 6 0.000000 0.000000 0.000000 0.000000 0.000000 0.009816
#
#
# Mechanical properties :
#
#
# Convention : Reuss Voigt Hill
#
# Bulk Modulus (GPa) = 62.94128 78.23368 70.58748
# Shear Modulus (GPa) = 8.73768 -16.78088 -4.02160
#
# Velocity S-wave (km/s) = 1.97301 -2.73425 -1.33854
# Velocity P-wave (km/s) = 5.76468 4.98859 5.39062
#
# Compressibility (1/GPa) = 0.01588782
#
# Stress axis : x y z
#
# Youngs Moduli (GPa) = 61.13733 92.55196 182.80748
#
# Poissons Ratio (x) = 0.40602 0.30909
# Poissons Ratio (y) = 0.26821 0.41938
# Poissons Ratio (z) = 0.10337 0.21232
#
# Static dielectric constant tensor:
#      x y z
#    x 2.318660 0.000000 0.000000 
#    y 0.000000 1.974940 0.000000 
#    z 0.000000 0.000000 1.738510 
# 
# From -- ./inp_files/21892.got.cif
#   From: 2010.05.17/outbox.cif.g08.bks.cpg/sg21_11_cif.got.tgz:21892.got - 2010.06.03 23:14:55.
