data_PCOD9322816
_publ_section_title
;
Structure prediction by ZEFSAII (Michael W. Deem and Ramdas Pophale) SiO2 
 PCOD9322816
Probable space group: C 2 2 2
;
_chemical_formula_sum "Si O2"
_cell_formula_units_Z 40
_cell_length_a 12.949405
_cell_length_b 33.160908
_cell_length_c 5.162139
_cell_angle_alpha 90.000000
_cell_angle_beta 90.000000
_cell_angle_gamma 90.000000
_cell_volume 2216.694900
_symmetry_space_group_name_H-M "C 2 2 2"
_symmetry_group_IT_number 21
_symmetry_cell_setting 'orthorhombic'
loop_
_space_group_symop_operation_xyz
x,y,z
-x,-y,z
x,-y,-z
-x,y,-z
1/2+x,1/2+y,z
1/2-x,1/2-y,z
1/2+x,1/2-y,-z
1/2-x,1/2+y,-z
loop_
_atom_site_type_symbol
_atom_site_label
_atom_site_fract_x
_atom_site_fract_y
_atom_site_fract_z
Si Si1 0.428755 0.683814 0.251402
Si Si2 0.116263 0.481548 0.251704
Si Si3 0.288871 0.851553 0.134714
Si Si4 0.386170 0.888454 0.613057
Si Si5 0.571104 0.775741 0.745183
O O1 0.500000 0.672554 0.500000
O O2 0.332408 0.656225 0.171258
O O3 0.390255 0.729966 0.297337
O O4 0.500000 0.685310 0.000000
O O5 0.170351 0.500000 0.500000
O O6 0.107798 0.433826 0.277187
O O7 0.000000 0.500000 0.250804
O O8 0.167616 0.500000 0.000000
O O9 0.319312 0.884222 0.352686
O O10 0.343562 0.809737 0.218222
O O11 0.335742 0.863088 0.851341
O O12 0.500000 0.877456 0.500000
O O13 0.500000 0.785444 0.500000
O O14 0.500000 0.776277 0.000000
#
# Coordination Sequence:
#
# PCOD9322816 Si02
#       5
#     8   8   8   8   8
#     4  10  22  40  59  74 105 154 205 247 286 333
#     4  10  19  34  53  73 110 162 185 193 252 343
#     4  12  23  35  55  85 116 145 196 243 292 330
#     4  12  23  35  54  85 122 155 178 223 281 345
#     4  10  20  36  54  79 110 150 187 229 290 353
#
# _framework density 18.044884
#
# number of rings (size 3 to 8) (size 9 to 14) (size 15 to 20)
#    0.000    1.200    2.000    6.600    2.800    0.000 
#    0.000    8.000    0.000    0.000    0.000    0.000 
#    0.000   56.000    0.000    0.000    0.000    0.000 
#
# Total GULP energy -111481.144177 kJ/mol
# GULP energy per Si atom -5574.057209 kJ/mol
# Density = 1.800381 g / cm^3
# Si number density = 18.044884 Si / 1000 Ang^3
#
#
#
# Elastic Constant Matrix: (Units=GPa)
#
#
# Indices 1 2 3 4 5 6 
#
# 1 75.0216 38.7566 36.3788 0.0000 0.0000 0.0000
# 2 38.7566 74.6128 23.7604 0.0000 0.0000 0.0000
# 3 36.3788 23.7604 163.9783 0.0000 0.0000 0.0000
# 4 0.0000 0.0000 0.0000 22.4301 0.0000 0.0000
# 5 0.0000 0.0000 0.0000 0.0000 18.7691 0.0000
# 6 0.0000 0.0000 0.0000 0.0000 0.0000 11.8978
#
#
#
# Elastic Compliance Matrix: (Units=1/GPa)
#
#
# Indices 1 2 3 4 5 6 
#
# 1 0.019533 -0.009190 -0.003002 0.000000 0.000000 0.000000
# 2 -0.009190 0.018375 -0.000624 0.000000 0.000000 0.000000
# 3 -0.003002 -0.000624 0.006855 0.000000 0.000000 0.000000
# 4 0.000000 0.000000 0.000000 0.044583 0.000000 0.000000
# 5 0.000000 0.000000 0.000000 0.000000 0.053279 0.000000
# 6 0.000000 0.000000 0.000000 0.000000 0.000000 0.084049
#
#
# Mechanical properties :
#
#
# Convention : Reuss Voigt Hill
#
# Bulk Modulus (GPa) = 52.27059 56.82271 54.54665
# Shear Modulus (GPa) = 19.32882 24.93387 22.13135
#
# Velocity S-wave (km/s) = 3.27640 3.72125 3.50589
# Velocity P-wave (km/s) = 6.58353 7.07259 6.83244
#
# Compressibility (1/GPa) = 0.01913122
#
# Stress axis : x y z
#
# Youngs Moduli (GPa) = 51.19614 54.42233 145.88589
#
# Poissons Ratio (x) = 0.50015 0.43791
# Poissons Ratio (y) = 0.47050 0.09098
# Poissons Ratio (z) = 0.15368 0.03394
#
# Static dielectric constant tensor:
#      x y z
#    x 1.618930 0.000000 0.000000 
#    y 0.000000 1.658190 0.000000 
#    z 0.000000 0.000000 1.631810 
# 
# From -- ./inp_files/2999.got.cif
#   From: 2010.05.17/outbox.cif.g08.bks.cpg/sg21_2_cif.got.tgz:2999.got - 2010.06.03 23:14:55.
