data_PCOD9322165
_publ_section_title
;
Structure prediction by ZEFSAII (Michael W. Deem and Ramdas Pophale) SiO2 
 PCOD9322165
Probable space group: C 2 2 21
;
_chemical_formula_sum "Si O2"
_cell_formula_units_Z 48
_cell_length_a 8.140854
_cell_length_b 22.689173
_cell_length_c 12.045660
_cell_angle_alpha 90.000000
_cell_angle_beta 90.000000
_cell_angle_gamma 90.000000
_cell_volume 2224.944761
_symmetry_space_group_name_H-M "C 2 2 21"
_symmetry_group_IT_number 20
_symmetry_cell_setting 'orthorhombic'
loop_
_space_group_symop_operation_xyz
x,y,z
-x,-y,1/2+z
x,-y,-z
-x,y,1/2-z
1/2+x,1/2+y,z
1/2-x,1/2-y,1/2+z
1/2+x,1/2-y,-z
1/2-x,1/2+y,1/2-z
loop_
_atom_site_type_symbol
_atom_site_label
_atom_site_fract_x
_atom_site_fract_y
_atom_site_fract_z
Si Si1 0.854916 0.347577 0.167883
Si Si2 0.321353 0.519317 0.118298
Si Si3 0.498048 0.747008 0.021259
Si Si4 0.190943 0.252704 0.679217
Si Si5 0.837735 0.847403 0.825637
Si Si6 0.862279 0.950572 0.321386
O O1 0.931793 0.308653 0.070162
O O2 0.753230 0.301872 0.246185
O O3 0.748298 0.401891 0.121823
O O4 0.000000 0.368892 0.250000
O O5 0.295210 0.588045 0.133728
O O6 0.259409 0.485308 0.227614
O O7 0.516468 0.498366 0.121057
O O8 0.253844 0.500000 0.000000
O O9 0.674416 0.740545 0.079376
O O10 0.389951 0.694274 0.073040
O O11 0.476337 0.744370 0.889230
O O12 0.208744 0.311988 0.750792
O O13 0.000000 0.853354 0.750000
O O14 0.000000 0.914961 0.250000
#
# Coordination Sequence:
#
# PCOD9322165 Si02
#       6
#     8   8   8   8   8   8
#     4   9  18  35  48  72 112 139 173 212 274 330
#     4   9  18  31  51  84 100 132 178 225 269 298
#     4   9  19  31  53  78  97 148 172 215 278 315
#     4   9  19  32  53  76 105 140 175 219 270 322
#     4   9  16  33  50  75 109 134 171 225 269 316
#     4   8  19  31  50  83  97 131 182 222 256 299
#
# _framework density 21.573568000000002
#
# number of rings (size 3 to 8) (size 9 to 14) (size 15 to 20)
#    1.000    2.000    1.667    2.000    2.333    4.000 
#    0.000    2.500    0.000    3.000    0.000    0.000 
#    0.000    0.000    0.000    0.000    0.000    0.000 
#
# Total GULP energy -133636.637189 kJ/mol
# GULP energy per Si atom -5568.193216 kJ/mol
# Density = 2.152447 g / cm^3
# Si number density = 21.573568 Si / 1000 Ang^3
#
#
#
# Elastic Constant Matrix: (Units=GPa)
#
#
# Indices 1 2 3 4 5 6 
#
# 1 47.8249 21.7769 11.3231 0.0000 0.0000 0.0000
# 2 21.7769 121.4695 14.1298 0.0000 0.0000 0.0000
# 3 11.3231 14.1298 50.2303 0.0000 0.0000 0.0000
# 4 0.0000 0.0000 0.0000 16.3720 0.0000 0.0000
# 5 0.0000 0.0000 0.0000 0.0000 33.4379 0.0000
# 6 0.0000 0.0000 0.0000 0.0000 0.0000 17.1343
#
#
#
# Elastic Compliance Matrix: (Units=1/GPa)
#
#
# Indices 1 2 3 4 5 6 
#
# 1 0.023624 -0.003738 -0.004274 0.000000 0.000000 0.000000
# 2 -0.003738 0.009103 -0.001718 0.000000 0.000000 0.000000
# 3 -0.004274 -0.001718 0.021355 0.000000 0.000000 0.000000
# 4 0.000000 0.000000 0.000000 0.061080 0.000000 0.000000
# 5 0.000000 0.000000 0.000000 0.000000 0.029906 0.000000
# 6 0.000000 0.000000 0.000000 0.000000 0.000000 0.058362
#
#
# Mechanical properties :
#
#
# Convention : Reuss Voigt Hill
#
# Bulk Modulus (GPa) = 28.88374 34.88715 31.88545
# Shear Modulus (GPa) = 21.32837 24.87516 23.10176
#
# Velocity S-wave (km/s) = 3.14767 3.39933 3.27591
# Velocity P-wave (km/s) = 5.16023 5.62260 5.39637
#
# Compressibility (1/GPa) = 0.03462155
#
# Stress axis : x y z
#
# Youngs Moduli (GPa) = 42.33054 109.85984 46.82747
#
# Poissons Ratio (x) = 0.41066 0.20013
# Poissons Ratio (y) = 0.15823 0.08044
# Poissons Ratio (z) = 0.18091 0.18873
#
# Static dielectric constant tensor:
#      x y z
#    x 1.877630 0.000000 0.000000 
#    y 0.000000 1.751450 0.000000 
#    z 0.000000 0.000000 1.825630 
# 
# From -- ./inp_files/19004.got.cif
#   From: 2010.05.17/outbox.cif.g08.bks.cpg/sg20_10_cif.got.tgz:19004.got - 2010.06.03 22:52:26.
