data_PCOD9322920
_publ_section_title
;
Structure prediction by ZEFSAII (Michael W. Deem and Ramdas Pophale) SiO2 
 PCOD9322920
Probable space group: C 2 2 2
;
_chemical_formula_sum "Si O2"
_cell_formula_units_Z 30
_cell_length_a 8.937681
_cell_length_b 13.181084
_cell_length_c 12.369621
_cell_angle_alpha 90.000000
_cell_angle_beta 90.000000
_cell_angle_gamma 90.000000
_cell_volume 1457.244319
_symmetry_space_group_name_H-M "C 2 2 2"
_symmetry_group_IT_number 21
_symmetry_cell_setting 'orthorhombic'
loop_
_space_group_symop_operation_xyz
x,y,z
-x,-y,z
x,-y,-z
-x,y,-z
1/2+x,1/2+y,z
1/2-x,1/2-y,z
1/2+x,1/2-y,-z
1/2-x,1/2+y,-z
loop_
_atom_site_type_symbol
_atom_site_label
_atom_site_fract_x
_atom_site_fract_y
_atom_site_fract_z
Si Si1 0.500000 0.500000 0.000000
Si Si2 0.265480 0.969422 0.850074
Si Si3 0.250000 0.750000 0.294961
Si Si4 0.327373 0.535683 0.385306
Si Si5 0.459187 0.168977 0.885262
O O1 0.615171 0.446808 0.916737
O O2 0.385386 0.881363 0.854005
O O3 0.236892 0.988992 0.724425
O O4 0.343010 0.073107 0.897592
O O5 0.295183 0.654590 0.367736
O O6 0.387172 0.767646 0.211036
O O7 0.500000 0.500000 0.386144
O O8 0.261694 0.500000 0.500000
O O9 0.500000 0.219578 0.000000
#
# Coordination Sequence:
#
# PCOD9322920 Si02
#       5
#     2   8   4   8   8
#     4  12  16  30  66 100 132 174 230 258 340 414
#     4  10  19  35  67  97 130 183 222 273 349 407
#     4  10  24  44  66  98 136 178 238 280 342 416
#     4  10  22  45  67  94 138 179 226 291 339 402
#     4  10  19  40  60  96 142 172 221 281 337 416
#
# _framework density 20.586803
#
# number of rings (size 3 to 8) (size 9 to 14) (size 15 to 20)
#    0.000    1.867    4.000    0.800    0.000    0.000 
#   24.000    9.333    0.000    0.000    0.000    0.000 
#    0.000    0.000    0.000    0.000    0.000    0.000 
#
# Total GULP energy -83650.690599 kJ/mol
# GULP energy per Si atom -5576.712707 kJ/mol
# Density = 2.053995 g / cm^3
# Si number density = 20.586803 Si / 1000 Ang^3
#
#
#
# Elastic Constant Matrix: (Units=GPa)
#
#
# Indices 1 2 3 4 5 6 
#
# 1 114.6700 39.8353 58.9989 0.0000 0.0000 0.0000
# 2 39.8353 96.6445 78.6813 0.0000 0.0000 0.0000
# 3 58.9989 78.6813 179.2775 0.0000 0.0000 0.0000
# 4 0.0000 0.0000 0.0000 34.8508 0.0000 0.0000
# 5 0.0000 0.0000 0.0000 0.0000 21.3709 0.0000
# 6 0.0000 0.0000 0.0000 0.0000 0.0000 11.8097
#
#
#
# Elastic Compliance Matrix: (Units=1/GPa)
#
#
# Indices 1 2 3 4 5 6 
#
# 1 0.010855 -0.002436 -0.002503 0.000000 0.000000 0.000000
# 2 -0.002436 0.016647 -0.006504 0.000000 0.000000 0.000000
# 3 -0.002503 -0.006504 0.009256 0.000000 0.000000 0.000000
# 4 0.000000 0.000000 0.000000 0.028694 0.000000 0.000000
# 5 0.000000 0.000000 0.000000 0.000000 0.046793 0.000000
# 6 0.000000 0.000000 0.000000 0.000000 0.000000 0.084676
#
#
# Mechanical properties :
#
#
# Convention : Reuss Voigt Hill
#
# Bulk Modulus (GPa) = 72.09435 82.84700 77.47067
# Shear Modulus (GPa) = 22.27864 27.81140 25.04502
#
# Velocity S-wave (km/s) = 3.29322 3.67949 3.49170
# Velocity P-wave (km/s) = 7.03961 7.64079 7.34635
#
# Compressibility (1/GPa) = 0.01387071
#
# Stress axis : x y z
#
# Youngs Moduli (GPa) = 92.12450 60.07223 108.03643
#
# Poissons Ratio (x) = 0.14637 0.27041
# Poissons Ratio (y) = 0.22446 0.70267
# Poissons Ratio (z) = 0.23058 0.39071
#
# Static dielectric constant tensor:
#      x y z
#    x 1.714400 0.000000 0.000000 
#    y 0.000000 1.791950 0.000000 
#    z 0.000000 0.000000 1.758850 
# 
# From -- ./inp_files/21861.got.cif
#   From: 2010.05.17/outbox.cif.g08.bks.cpg/sg21_11_cif.got.tgz:21861.got - 2010.06.03 23:14:55.
