data_PCOD9323077
_publ_section_title
;
Structure prediction by ZEFSAII (Michael W. Deem and Ramdas Pophale) SiO2 
 PCOD9323077
Probable space group: C 2 2 2
;
_chemical_formula_sum "Si O2"
_cell_formula_units_Z 64
_cell_length_a 26.322110
_cell_length_b 5.530310
_cell_length_c 23.002771
_cell_angle_alpha 90.000000
_cell_angle_beta 90.000000
_cell_angle_gamma 90.000000
_cell_volume 3348.500220
_symmetry_space_group_name_H-M "C 2 2 2"
_symmetry_group_IT_number 21
_symmetry_cell_setting 'orthorhombic'
loop_
_space_group_symop_operation_xyz
x,y,z
-x,-y,z
x,-y,-z
-x,y,-z
1/2+x,1/2+y,z
1/2-x,1/2-y,z
1/2+x,1/2-y,-z
1/2-x,1/2+y,-z
loop_
_atom_site_type_symbol
_atom_site_label
_atom_site_fract_x
_atom_site_fract_y
_atom_site_fract_z
Si Si1 0.305370 0.668232 0.582427
Si Si2 0.061761 0.502730 0.932734
Si Si3 0.800641 0.618301 0.286262
Si Si4 0.410780 0.250881 0.468825
Si Si5 0.897408 0.854308 0.253041
Si Si6 0.061467 0.002956 0.869342
Si Si7 0.350161 0.277392 0.655850
Si Si8 0.943409 0.411421 0.648025
O O1 0.250000 0.750000 0.560634
O O2 0.308204 0.784130 0.647226
O O3 0.349888 0.755564 0.540755
O O4 0.321077 0.393455 0.600733
O O5 0.077159 0.756397 0.902993
O O6 0.000000 0.500000 0.932278
O O7 0.077315 0.255183 0.899834
O O8 0.077963 0.500000 0.000000
O O9 0.750000 0.750000 0.265844
O O10 0.847269 0.690746 0.245147
O O11 0.807638 0.338282 0.301403
O O12 0.424183 0.500000 0.500000
O O13 0.433506 0.272826 0.404225
O O14 0.426923 0.000000 0.500000
O O15 0.917328 0.978494 0.195639
O O16 0.938135 0.690954 0.286900
O O17 0.879262 0.038248 0.302412
O O18 0.000000 0.000000 0.867483
O O19 0.396202 0.097332 0.639181
O O20 0.000000 0.500000 0.640268
#
# Coordination Sequence:
#
# PCOD9323077 Si02
#       8
#     8   8   8   8   8   8   8   8
#     4  10  21  39  62  88 108 145 185 240 315 382
#     4   9  18  34  53  77 118 173 214 245 287 345
#     4   9  19  36  60  86 114 155 193 231 307 383
#     4  12  26  47  64  86 118 147 203 261 305 375
#     4  10  22  35  58  90 119 156 194 256 306 363
#     4  10  21  32  53  87 124 160 208 251 296 345
#     4  10  19  40  61  87 121 152 194 245 302 381
#     4  11  25  43  63  85 116 165 208 251 312 372
#
# _framework density 19.113033000000001
#
# number of rings (size 3 to 8) (size 9 to 14) (size 15 to 20)
#    0.000    1.875    3.750    1.125    5.250    7.250 
#    0.000    1.875    0.000    0.000    0.000    0.000 
#    0.000    2.000    0.000    0.000    0.000    0.000 
#
# Total GULP energy -178280.493623 kJ/mol
# GULP energy per Si atom -5571.265426 kJ/mol
# Density = 1.906953 g / cm^3
# Si number density = 19.113033 Si / 1000 Ang^3
#
#
#
# Elastic Constant Matrix: (Units=GPa)
#
#
# Indices 1 2 3 4 5 6 
#
# 1 83.5979 30.0393 22.6189 0.0000 0.0000 0.0000
# 2 30.0393 103.7033 44.8642 0.0000 0.0000 0.0000
# 3 22.6189 44.8642 91.2772 0.0000 0.0000 0.0000
# 4 0.0000 0.0000 0.0000 31.4613 0.0000 0.0000
# 5 0.0000 0.0000 0.0000 0.0000 9.4189 0.0000
# 6 0.0000 0.0000 0.0000 0.0000 0.0000 12.0432
#
#
#
# Elastic Compliance Matrix: (Units=1/GPa)
#
#
# Indices 1 2 3 4 5 6 
#
# 1 0.013585 -0.003148 -0.001819 0.000000 0.000000 0.000000
# 2 -0.003148 0.012977 -0.005598 0.000000 0.000000 0.000000
# 3 -0.001819 -0.005598 0.014158 0.000000 0.000000 0.000000
# 4 0.000000 0.000000 0.000000 0.031785 0.000000 0.000000
# 5 0.000000 0.000000 0.000000 0.000000 0.106170 0.000000
# 6 0.000000 0.000000 0.000000 0.000000 0.000000 0.083035
#
#
# Mechanical properties :
#
#
# Convention : Reuss Voigt Hill
#
# Bulk Modulus (GPa) = 51.04857 52.62481 51.83669
# Shear Modulus (GPa) = 17.27890 22.65507 19.96698
#
# Velocity S-wave (km/s) = 3.00998 3.44658 3.23566
# Velocity P-wave (km/s) = 6.23272 6.59028 6.41399
#
# Compressibility (1/GPa) = 0.01958919
#
# Stress axis : x y z
#
# Youngs Moduli (GPa) = 73.60792 77.06129 70.63159
#
# Poissons Ratio (x) = 0.24261 0.12849
# Poissons Ratio (y) = 0.23174 0.39540
# Poissons Ratio (z) = 0.13390 0.43140
#
# Static dielectric constant tensor:
#      x y z
#    x 1.690910 0.000000 0.000000 
#    y 0.000000 1.912530 0.000000 
#    z 0.000000 0.000000 1.646160 
# 
# From -- ./inp_files/37975.got.cif
#   From: 2010.05.17/outbox.cif.g08.bks.cpg/sg21_19_cif.got.tgz:37975.got - 2010.06.03 23:14:55.
