data_PCOD9323811
_publ_section_title
;
Structure prediction by ZEFSAII (Michael W. Deem and Ramdas Pophale) SiO2 
 PCOD9323811
Probable space group: C 2 2 2
;
_chemical_formula_sum "Si O2"
_cell_formula_units_Z 26
_cell_length_a 13.682487
_cell_length_b 15.534923
_cell_length_c 5.134479
_cell_angle_alpha 90.000000
_cell_angle_beta 90.000000
_cell_angle_gamma 90.000000
_cell_volume 1091.366280
_symmetry_space_group_name_H-M "C 2 2 2"
_symmetry_group_IT_number 21
_symmetry_cell_setting 'orthorhombic'
loop_
_space_group_symop_operation_xyz
x,y,z
-x,-y,z
x,-y,-z
-x,y,-z
1/2+x,1/2+y,z
1/2-x,1/2-y,z
1/2+x,1/2-y,-z
1/2-x,1/2+y,-z
loop_
_atom_site_type_symbol
_atom_site_label
_atom_site_fract_x
_atom_site_fract_y
_atom_site_fract_z
Si Si1 0.281320 0.850578 0.635861
Si Si2 0.500000 0.500000 0.000000
Si Si3 0.106500 0.671218 0.129842
Si Si4 0.095894 0.857707 0.339739
O O1 0.250000 0.750000 0.637610
O O2 0.319624 0.870074 0.921477
O O3 0.181430 0.888913 0.529618
O O4 0.366150 0.862715 0.417778
O O5 0.564938 0.562706 0.830022
O O6 0.123089 0.774655 0.163845
O O7 0.000000 0.659788 0.000000
O O8 0.000000 0.828284 0.500000
#
# Coordination Sequence:
#
# PCOD9323811 Si02
#       4
#     8   2   8   8
#     4  10  21  34  59  87 123 167 210 273 331 385
#     4  12  26  40  64  90 150 200 218 254 330 424
#     4  11  20  36  61  89 125 163 212 277 336 379
#     4  11  24  39  60  92 139 180 229 263 334 413
#
# _framework density 23.823349
#
# number of rings (size 3 to 8) (size 9 to 14) (size 15 to 20)
#    0.000    1.231    1.538    7.846    4.308    0.000 
#    0.000    0.000    0.000    0.000    0.000    1.077 
#    0.000    0.000    5.231    0.000    0.000    0.000 
#
# Total GULP energy -72721.567562 kJ/mol
# GULP energy per Si atom -5593.966736 kJ/mol
# Density = 2.376913 g / cm^3
# Si number density = 23.823349 Si / 1000 Ang^3
#
#
#
# Elastic Constant Matrix: (Units=GPa)
#
#
# Indices 1 2 3 4 5 6 
#
# 1 104.5069 6.9390 30.6509 0.0000 0.0000 0.0000
# 2 6.9390 33.1994 17.9595 0.0000 0.0000 0.0000
# 3 30.6509 17.9595 131.5388 0.0000 0.0000 0.0000
# 4 0.0000 0.0000 0.0000 25.1797 0.0000 0.0000
# 5 0.0000 0.0000 0.0000 0.0000 64.3509 0.0000
# 6 0.0000 0.0000 0.0000 0.0000 0.0000 -9.5185
#
#
#
# Elastic Compliance Matrix: (Units=1/GPa)
#
#
# Indices 1 2 3 4 5 6 
#
# 1 0.010297 -0.000922 -0.002273 0.000000 0.000000 0.000000
# 2 -0.000922 0.032606 -0.004237 0.000000 0.000000 0.000000
# 3 -0.002273 -0.004237 0.008711 0.000000 0.000000 0.000000
# 4 0.000000 0.000000 0.000000 0.039715 0.000000 0.000000
# 5 0.000000 0.000000 0.000000 0.000000 0.015540 0.000000
# 6 0.000000 0.000000 0.000000 0.000000 0.000000 -0.105059
#
#
# Mechanical properties :
#
#
# Convention : Reuss Voigt Hill
#
# Bulk Modulus (GPa) = 27.21244 42.26043 34.73644
# Shear Modulus (GPa) = 172.87257 30.24882 101.56069
#
# Velocity S-wave (km/s) = 8.52771 3.56717 6.53631
# Velocity P-wave (km/s) = 10.41201 5.89439 8.46031
#
# Compressibility (1/GPa) = 0.03674790
#
# Stress axis : x y z
#
# Youngs Moduli (GPa) = 97.11803 30.66942 114.80353
#
# Poissons Ratio (x) = 0.02829 0.26099
# Poissons Ratio (y) = 0.08957 0.48641
# Poissons Ratio (z) = 0.22079 0.12994
#
# Static dielectric constant tensor:
#      x y z
#    x 1.985970 0.000000 0.000000 
#    y 0.000000 1.784640 0.000000 
#    z 0.000000 0.000000 1.940640 
# 
# From -- ./inp_files/3256.got.cif
#   From: 2010.05.17/outbox.cif.g08.bks.cpg/sg21_2_cif.got.tgz:3256.got - 2010.06.03 23:14:55.
