data_PCOD9323614
_publ_section_title
;
Structure prediction by ZEFSAII (Michael W. Deem and Ramdas Pophale) SiO2 
 PCOD9323614
Probable space group: C 2 2 2
;
_chemical_formula_sum "Si O2"
_cell_formula_units_Z 48
_cell_length_a 31.516073
_cell_length_b 8.479242
_cell_length_c 8.801915
_cell_angle_alpha 90.000000
_cell_angle_beta 90.000000
_cell_angle_gamma 90.000000
_cell_volume 2352.156957
_symmetry_space_group_name_H-M "C 2 2 2"
_symmetry_group_IT_number 21
_symmetry_cell_setting 'orthorhombic'
loop_
_space_group_symop_operation_xyz
x,y,z
-x,-y,z
x,-y,-z
-x,y,-z
1/2+x,1/2+y,z
1/2-x,1/2-y,z
1/2+x,1/2-y,-z
1/2-x,1/2+y,-z
loop_
_atom_site_type_symbol
_atom_site_label
_atom_site_fract_x
_atom_site_fract_y
_atom_site_fract_z
Si Si1 0.721327 0.383357 0.614063
Si Si2 0.645824 0.183218 0.474500
Si Si3 0.455666 0.317096 0.051291
Si Si4 0.715357 0.383141 0.123050
Si Si5 0.081862 0.098257 0.349720
Si Si6 0.623093 0.312421 0.155223
O O1 0.745965 0.500000 0.500000
O O2 0.750000 0.250000 0.687556
O O3 0.686449 0.290369 0.516833
O O4 0.704229 0.501808 0.738153
O O5 0.610579 0.262829 0.582295
O O6 0.631916 0.203128 0.300143
O O7 0.652813 0.000000 0.500000
O O8 0.451235 0.324335 0.233212
O O9 0.457554 0.500000 0.000000
O O10 0.500000 0.241353 0.000000
O O11 0.413809 0.259092 0.960668
O O12 0.750000 0.250000 0.161424
O O13 0.668791 0.324163 0.072259
O O14 0.735139 0.500000 0.000000
O O15 0.067212 0.000000 0.500000
O O16 0.107546 0.975356 0.239513
#
# Coordination Sequence:
#
# PCOD9323614 Si02
#       6
#     8   8   8   8   8   8
#     4  12  23  39  62  87 120 166 212 266 313 368
#     4  11  22  37  59  90 120 159 218 267 319 383
#     4   9  18  35  64  97 121 157 207 259 322 389
#     4  12  25  42  59  88 128 170 212 259 318 377
#     4   9  17  36  62  88 123 161 197 260 323 375
#     4  10  20  39  62  85 126 161 203 264 322 378
#
# _framework density 20.406801000000002
#
# number of rings (size 3 to 8) (size 9 to 14) (size 15 to 20)
#    0.000    1.500    3.333    3.500    2.333    0.000 
#    0.000   15.000    0.000    3.000    0.000    0.000 
#    0.000    0.000    0.000    0.000    0.000    0.000 
#
# Total GULP energy -133706.599271 kJ/mol
# GULP energy per Si atom -5571.108303 kJ/mol
# Density = 2.036035 g / cm^3
# Si number density = 20.406801 Si / 1000 Ang^3
#
#
#
# Elastic Constant Matrix: (Units=GPa)
#
#
# Indices 1 2 3 4 5 6 
#
# 1 125.1724 33.9951 49.1992 0.0000 0.0000 0.0000
# 2 33.9951 92.0213 38.4388 0.0000 0.0000 0.0000
# 3 49.1992 38.4388 96.1878 0.0000 0.0000 0.0000
# 4 0.0000 0.0000 0.0000 14.4282 0.0000 0.0000
# 5 0.0000 0.0000 0.0000 0.0000 21.8172 0.0000
# 6 0.0000 0.0000 0.0000 0.0000 0.0000 7.9509
#
#
#
# Elastic Compliance Matrix: (Units=1/GPa)
#
#
# Indices 1 2 3 4 5 6 
#
# 1 0.010275 -0.001921 -0.004488 0.000000 0.000000 0.000000
# 2 -0.001921 0.013404 -0.004374 0.000000 0.000000 0.000000
# 3 -0.004488 -0.004374 0.014440 0.000000 0.000000 0.000000
# 4 0.000000 0.000000 0.000000 0.069309 0.000000 0.000000
# 5 0.000000 0.000000 0.000000 0.000000 0.045835 0.000000
# 6 0.000000 0.000000 0.000000 0.000000 0.000000 0.125771
#
#
# Mechanical properties :
#
#
# Convention : Reuss Voigt Hill
#
# Bulk Modulus (GPa) = 60.41275 61.84975 61.13125
# Shear Modulus (GPa) = 16.33366 21.62247 18.97807
#
# Velocity S-wave (km/s) = 2.83221 3.25864 3.05288
# Velocity P-wave (km/s) = 6.35324 6.67327 6.51522
#
# Compressibility (1/GPa) = 0.01655280
#
# Stress axis : x y z
#
# Youngs Moduli (GPa) = 97.32725 74.60574 69.25403
#
# Poissons Ratio (x) = 0.14333 0.31079
# Poissons Ratio (y) = 0.18698 0.30290
# Poissons Ratio (z) = 0.43677 0.32631
#
# Static dielectric constant tensor:
#      x y z
#    x 1.791810 0.000000 0.000000 
#    y 0.000000 1.712440 0.000000 
#    z 0.000000 0.000000 1.775390 
# 
# From -- ./inp_files/11505.got.cif
#   From: 2010.05.17/outbox.cif.g08.bks.cpg/sg21_6_cif.got.tgz:11505.got - 2010.06.03 23:14:55.
