data_PCOD9323349
_publ_section_title
;
Structure prediction by ZEFSAII (Michael W. Deem and Ramdas Pophale) SiO2 
 PCOD9323349
Probable space group: C 2 2 2
;
_chemical_formula_sum "Si O2"
_cell_formula_units_Z 40
_cell_length_a 24.310348
_cell_length_b 9.973877
_cell_length_c 8.090882
_cell_angle_alpha 90.000000
_cell_angle_beta 90.000000
_cell_angle_gamma 90.000000
_cell_volume 1961.783381
_symmetry_space_group_name_H-M "C 2 2 2"
_symmetry_group_IT_number 21
_symmetry_cell_setting 'orthorhombic'
loop_
_space_group_symop_operation_xyz
x,y,z
-x,-y,z
x,-y,-z
-x,y,-z
1/2+x,1/2+y,z
1/2-x,1/2-y,z
1/2+x,1/2-y,-z
1/2-x,1/2+y,-z
loop_
_atom_site_type_symbol
_atom_site_label
_atom_site_fract_x
_atom_site_fract_y
_atom_site_fract_z
Si Si1 0.067743 0.426003 0.322597
Si Si2 0.707146 0.367306 0.089183
Si Si3 0.388776 0.561038 0.319985
Si Si4 0.601884 0.300747 0.871338
Si Si5 0.451020 0.190472 0.806701
O O1 0.068588 0.500000 0.500000
O O2 0.107248 0.302972 0.280215
O O3 0.080366 0.548512 0.199245
O O4 0.008957 0.357361 0.273658
O O5 0.750000 0.250000 0.119570
O O6 0.672164 0.408075 0.250990
O O7 0.731014 0.500000 0.000000
O O8 0.659234 0.315461 0.966164
O O9 0.388029 0.500000 0.500000
O O10 0.413309 0.446552 0.198609
O O11 0.424731 0.695191 0.307307
O O12 0.558808 0.247507 0.009110
#
# Coordination Sequence:
#
# PCOD9323349 Si02
#       5
#     8   8   8   8   8
#     4  11  22  36  56  87 123 157 199 247 292 342
#     4   9  20  39  63  88 114 150 200 251 301 363
#     4  10  21  39  60  86 121 156 198 251 301 351
#     4  10  21  38  60  85 116 159 202 242 293 359
#     4  10  20  36  56  82 118 161 201 238 284 349
#
# _framework density 20.389610999999999
#
# number of rings (size 3 to 8) (size 9 to 14) (size 15 to 20)
#    0.000    2.000    0.000    5.400    0.000    5.600 
#    0.000   11.000    0.000   10.800    0.000    0.000 
#    0.000    0.000    0.000    0.000    0.000    0.000 
#
# Total GULP energy -111480.757414 kJ/mol
# GULP energy per Si atom -5574.037871 kJ/mol
# Density = 2.034320 g / cm^3
# Si number density = 20.389611 Si / 1000 Ang^3
#
#
#
# Elastic Constant Matrix: (Units=GPa)
#
#
# Indices 1 2 3 4 5 6 
#
# 1 31.7586 47.2619 38.0744 0.0000 0.0000 0.0000
# 2 47.2619 158.5836 57.2199 0.0000 0.0000 0.0000
# 3 38.0744 57.2199 128.2102 0.0000 0.0000 0.0000
# 4 0.0000 0.0000 0.0000 50.1638 0.0000 0.0000
# 5 0.0000 0.0000 0.0000 0.0000 9.1915 0.0000
# 6 0.0000 0.0000 0.0000 0.0000 0.0000 42.2561
#
#
#
# Elastic Compliance Matrix: (Units=1/GPa)
#
#
# Indices 1 2 3 4 5 6 
#
# 1 0.073719 -0.016772 -0.014407 0.000000 0.000000 0.000000
# 2 -0.016772 0.011332 -0.000077 0.000000 0.000000 0.000000
# 3 -0.014407 -0.000077 0.012112 0.000000 0.000000 0.000000
# 4 0.000000 0.000000 0.000000 0.019935 0.000000 0.000000
# 5 0.000000 0.000000 0.000000 0.000000 0.108796 0.000000
# 6 0.000000 0.000000 0.000000 0.000000 0.000000 0.023665
#
#
# Mechanical properties :
#
#
# Convention : Reuss Voigt Hill
#
# Bulk Modulus (GPa) = 28.85830 67.07386 47.96608
# Shear Modulus (GPa) = 15.45023 32.05536 23.75279
#
# Velocity S-wave (km/s) = 2.75571 3.96933 3.41683
# Velocity P-wave (km/s) = 4.93046 7.34676 6.25637
#
# Compressibility (1/GPa) = 0.03465207
#
# Stress axis : x y z
#
# Youngs Moduli (GPa) = 13.56511 88.24649 82.56039
#
# Poissons Ratio (x) = 1.48004 1.18944
# Poissons Ratio (y) = 0.22751 0.00633
# Poissons Ratio (z) = 0.19543 0.00677
#
# Static dielectric constant tensor:
#      x y z
#    x 1.772280 0.000000 0.000000 
#    y 0.000000 1.758620 0.000000 
#    z 0.000000 0.000000 1.799000 
# 
# From -- ./inp_files/18940.got.cif
#   From: 2010.05.17/outbox.cif.g08.bks.cpg/sg21_10_cif.got.tgz:18940.got - 2010.06.03 23:14:55.
