data_PCOD9323586
_publ_section_title
;
Structure prediction by ZEFSAII (Michael W. Deem and Ramdas Pophale) SiO2 
 PCOD9323586
Probable space group: C 2 2 2
;
_chemical_formula_sum "Si O2"
_cell_formula_units_Z 30
_cell_length_a 10.229842
_cell_length_b 13.793193
_cell_length_c 8.581893
_cell_angle_alpha 90.000000
_cell_angle_beta 90.000000
_cell_angle_gamma 90.000000
_cell_volume 1210.923854
_symmetry_space_group_name_H-M "C 2 2 2"
_symmetry_group_IT_number 21
_symmetry_cell_setting 'orthorhombic'
loop_
_space_group_symop_operation_xyz
x,y,z
-x,-y,z
x,-y,-z
-x,y,-z
1/2+x,1/2+y,z
1/2-x,1/2-y,z
1/2+x,1/2-y,-z
1/2-x,1/2+y,-z
loop_
_atom_site_type_symbol
_atom_site_label
_atom_site_fract_x
_atom_site_fract_y
_atom_site_fract_z
Si Si1 0.204473 0.110607 0.455115
Si Si2 0.449836 0.142321 0.251893
Si Si3 0.949720 0.149289 0.250572
Si Si4 0.000000 0.500000 0.000000
Si Si5 0.000000 0.000000 0.000000
Si Si6 0.500000 0.000000 0.500000
O O1 0.321711 0.156631 0.357286
O O2 0.159342 0.157057 0.616660
O O3 0.077935 0.109424 0.342452
O O4 0.240130 0.000000 0.500000
O O5 0.512176 0.242605 0.199478
O O6 0.542486 0.080588 0.368184
O O7 0.418222 0.072114 0.108640
O O8 0.921347 0.074084 0.112258
#
# Coordination Sequence:
#
# PCOD9323586 Si02
#       6
#     8   8   8   2   2   2
#     4  11  21  44  69 104 138 184 247 294 352 423
#     4  11  23  43  71 102 144 185 238 293 365 425
#     4  11  23  41  70 106 146 185 238 306 352 430
#     4  10  26  48  68 100 154 186 234 300 360 434
#     4  12  22  40  68  98 156 192 218 302 368 412
#     4  10  20  38  68  98 132 178 232 306 344 418
#
# _framework density 24.774470999999998
#
# number of rings (size 3 to 8) (size 9 to 14) (size 15 to 20)
#    0.000    1.067    4.000    4.000    0.000    1.067 
#    0.000    0.000    0.000    0.000    0.000    0.000 
#    0.000    0.000    0.000    0.000    0.000    0.000 
#
# Total GULP energy -83776.930764 kJ/mol
# GULP energy per Si atom -5585.128718 kJ/mol
# Density = 2.471808 g / cm^3
# Si number density = 24.774471 Si / 1000 Ang^3
#
#
#
# Elastic Constant Matrix: (Units=GPa)
#
#
# Indices 1 2 3 4 5 6 
#
# 1 96.0061 31.6978 33.1786 0.0000 0.0000 0.0000
# 2 31.6978 200.9397 80.5214 0.0000 0.0000 0.0000
# 3 33.1786 80.5214 158.3797 0.0000 0.0000 0.0000
# 4 0.0000 0.0000 0.0000 47.8849 0.0000 0.0000
# 5 0.0000 0.0000 0.0000 0.0000 13.3408 0.0000
# 6 0.0000 0.0000 0.0000 0.0000 0.0000 26.2510
#
#
#
# Elastic Compliance Matrix: (Units=1/GPa)
#
#
# Indices 1 2 3 4 5 6 
#
# 1 0.011405 -0.001057 -0.001852 0.000000 0.000000 0.000000
# 2 -0.001057 0.006348 -0.003006 0.000000 0.000000 0.000000
# 3 -0.001852 -0.003006 0.008230 0.000000 0.000000 0.000000
# 4 0.000000 0.000000 0.000000 0.020883 0.000000 0.000000
# 5 0.000000 0.000000 0.000000 0.000000 0.074958 0.000000
# 6 0.000000 0.000000 0.000000 0.000000 0.000000 0.038094
#
#
# Mechanical properties :
#
#
# Convention : Reuss Voigt Hill
#
# Bulk Modulus (GPa) = 70.65386 82.90232 76.77809
# Shear Modulus (GPa) = 28.33414 38.15717 33.24566
#
# Velocity S-wave (km/s) = 3.38551 3.92877 3.66721
# Velocity P-wave (km/s) = 6.62291 7.35634 6.99924
#
# Compressibility (1/GPa) = 0.01415351
#
# Stress axis : x y z
#
# Youngs Moduli (GPa) = 87.68110 157.53260 121.50557
#
# Poissons Ratio (x) = 0.16652 0.22500
# Poissons Ratio (y) = 0.09268 0.36523
# Poissons Ratio (z) = 0.16237 0.47352
#
# Static dielectric constant tensor:
#      x y z
#    x 1.306920 0.000000 0.000000 
#    y 0.000000 1.969760 0.000000 
#    z 0.000000 0.000000 1.951520 
# 
# From -- ./inp_files/12263.got.cif
#   From: 2010.05.17/outbox.cif.g08.bks.cpg/sg21_7_cif.got.tgz:12263.got - 2010.06.03 23:14:55.
