data_PCOD9323547
_publ_section_title
;
Structure prediction by ZEFSAII (Michael W. Deem and Ramdas Pophale) SiO2 
 PCOD9323547
Probable space group: C 2 2 2
;
_chemical_formula_sum "Si O2"
_cell_formula_units_Z 22
_cell_length_a 18.702755
_cell_length_b 7.230843
_cell_length_c 8.963934
_cell_angle_alpha 90.000000
_cell_angle_beta 90.000000
_cell_angle_gamma 90.000000
_cell_volume 1212.252719
_symmetry_space_group_name_H-M "C 2 2 2"
_symmetry_group_IT_number 21
_symmetry_cell_setting 'orthorhombic'
loop_
_space_group_symop_operation_xyz
x,y,z
-x,-y,z
x,-y,-z
-x,y,-z
1/2+x,1/2+y,z
1/2-x,1/2-y,z
1/2+x,1/2-y,-z
1/2-x,1/2+y,-z
loop_
_atom_site_type_symbol
_atom_site_label
_atom_site_fract_x
_atom_site_fract_y
_atom_site_fract_z
Si Si1 0.500000 0.500000 0.500000
Si Si2 0.798910 0.428145 0.834963
Si Si3 0.392318 0.810292 0.580595
Si Si4 0.750000 0.250000 0.383398
O O1 0.447767 0.642661 0.584292
O O2 0.750000 0.250000 0.849578
O O3 0.868924 0.368805 0.745039
O O4 0.759455 0.575724 0.726677
O O5 0.813361 0.500000 0.000000
O O6 0.320539 0.748828 0.488093
O O7 0.417276 0.000000 0.500000
#
# Coordination Sequence:
#
# PCOD9323547 Si02
#       4
#     2   8   8   4
#     4  12  22  40  64  92 120 162 210 262 312 354
#     4  11  20  34  58  95 129 157 198 255 314 359
#     4  10  22  37  63  91 124 158 207 259 304 366
#     4  10  20  38  62  92 120 156 210 258 298 362
#
# _framework density 18.148031
#
# number of rings (size 3 to 8) (size 9 to 14) (size 15 to 20)
#    0.000    1.455    3.636    2.727    2.545    0.000 
#    0.000    0.000    0.000   26.182    0.000    0.000 
#    0.000    0.000    0.000    0.000    0.000    0.000 
#
# Total GULP energy -61380.757597 kJ/mol
# GULP energy per Si atom -5580.068872 kJ/mol
# Density = 1.810673 g / cm^3
# Si number density = 18.148031 Si / 1000 Ang^3
#
#
#
# Elastic Constant Matrix: (Units=GPa)
#
#
# Indices 1 2 3 4 5 6 
#
# 1 85.2708 60.5782 43.0035 0.0000 0.0000 0.0000
# 2 60.5782 147.3699 62.5164 0.0000 0.0000 0.0000
# 3 43.0035 62.5164 139.5955 0.0000 0.0000 0.0000
# 4 0.0000 0.0000 0.0000 34.8343 0.0000 0.0000
# 5 0.0000 0.0000 0.0000 0.0000 -4.7932 0.0000
# 6 0.0000 0.0000 0.0000 0.0000 0.0000 42.3414
#
#
#
# Elastic Compliance Matrix: (Units=1/GPa)
#
#
# Indices 1 2 3 4 5 6 
#
# 1 0.017325 -0.005997 -0.002651 0.000000 0.000000 0.000000
# 2 -0.005997 0.010453 -0.002834 0.000000 0.000000 0.000000
# 3 -0.002651 -0.002834 0.009249 0.000000 0.000000 0.000000
# 4 0.000000 0.000000 0.000000 0.028707 0.000000 0.000000
# 5 0.000000 0.000000 0.000000 0.000000 -0.208628 0.000000
# 6 0.000000 0.000000 0.000000 0.000000 0.000000 0.023618
#
#
# Mechanical properties :
#
#
# Convention : Reuss Voigt Hill
#
# Bulk Modulus (GPa) = 71.10885 78.27026 74.68956
# Shear Modulus (GPa) = -54.57043 28.21905 -13.17569
#
# Velocity S-wave (km/s) = -5.48953 3.94755 -2.69738
# Velocity P-wave (km/s) = 0.95505 8.00000 5.61640
#
# Compressibility (1/GPa) = 0.01406295
#
# Stress axis : x y z
#
# Youngs Moduli (GPa) = 57.72097 95.66768 108.11443
#
# Poissons Ratio (x) = 0.57370 0.28666
# Poissons Ratio (y) = 0.34614 0.30638
# Poissons Ratio (z) = 0.15304 0.27111
#
# Static dielectric constant tensor:
#      x y z
#    x 1.655380 0.000000 0.000000 
#    y 0.000000 1.648460 0.000000 
#    z 0.000000 0.000000 1.600100 
# 
# From -- ./inp_files/9786.got.cif
#   From: 2010.05.17/outbox.cif.g08.bks.cpg/sg21_5_cif.got.tgz:9786.got - 2010.06.03 23:14:55.
