data_PCOD9323325
_publ_section_title
;
Structure prediction by ZEFSAII (Michael W. Deem and Ramdas Pophale) SiO2 
 PCOD9323325
Probable space group: C 2 2 2
;
_chemical_formula_sum "Si O2"
_cell_formula_units_Z 64
_cell_length_a 14.221663
_cell_length_b 19.539686
_cell_length_c 12.760672
_cell_angle_alpha 90.000000
_cell_angle_beta 90.000000
_cell_angle_gamma 90.000000
_cell_volume 3546.022683
_symmetry_space_group_name_H-M "C 2 2 2"
_symmetry_group_IT_number 21
_symmetry_cell_setting 'orthorhombic'
loop_
_space_group_symop_operation_xyz
x,y,z
-x,-y,z
x,-y,-z
-x,y,-z
1/2+x,1/2+y,z
1/2-x,1/2-y,z
1/2+x,1/2-y,-z
1/2-x,1/2+y,-z
loop_
_atom_site_type_symbol
_atom_site_label
_atom_site_fract_x
_atom_site_fract_y
_atom_site_fract_z
Si Si1 0.994469 0.721403 0.875487
Si Si2 0.494680 0.655848 0.729450
Si Si3 0.798823 0.324647 0.861534
Si Si4 0.814577 0.929187 0.283288
Si Si5 0.792668 0.674166 0.890276
Si Si6 0.242876 0.143228 0.490362
Si Si7 0.304055 0.590851 0.291119
Si Si8 0.595458 0.244103 0.555926
O O1 0.900739 0.678902 0.852856
O O2 0.985326 0.797402 0.829840
O O3 0.090935 0.686400 0.838876
O O4 0.000000 0.727083 0.000000
O O5 0.418735 0.596718 0.745465
O O6 0.591048 0.621478 0.691689
O O7 0.443550 0.711297 0.653178
O O8 0.750000 0.250000 0.843064
O O9 0.752823 0.382645 0.789699
O O10 0.787857 0.342012 0.985414
O O11 0.794634 0.909672 0.404307
O O12 0.805368 0.009907 0.273714
O O13 0.750000 0.750000 0.879527
O O14 0.737367 0.625127 0.812993
O O15 0.255339 0.111004 0.604922
O O16 0.333772 0.180103 0.438432
O O17 0.162075 0.201146 0.502958
O O18 0.500000 0.222303 0.500000
#
# Coordination Sequence:
#
# PCOD9323325 Si02
#       8
#     8   8   8   8   8   8   8   8
#     4  10  20  36  63  91 116 149 200 260 305 347
#     4  11  21  36  60  91 123 150 197 245 304 364
#     4  10  20  40  64  88 118 156 206 258 296 357
#     4  11  24  40  60  86 123 169 200 237 303 371
#     4  10  22  37  61  92 120 156 199 254 315 350
#     4  10  23  38  59  86 120 158 200 239 295 350
#     4  12  24  39  59  89 130 160 194 247 307 372
#     4  10  20  35  60  90 109 148 194 250 288 333
#
# _framework density 18.048390999999999
#
# number of rings (size 3 to 8) (size 9 to 14) (size 15 to 20)
#    0.000    1.500    3.750    1.500    5.250    0.500 
#    0.000    1.875    0.000    5.250    0.000    0.000 
#    0.000    0.000    0.000    0.000    0.000    0.000 
#
# Total GULP energy -178442.852508 kJ/mol
# GULP energy per Si atom -5576.339141 kJ/mol
# Density = 1.800731 g / cm^3
# Si number density = 18.048391 Si / 1000 Ang^3
#
#
#
# Elastic Constant Matrix: (Units=GPa)
#
#
# Indices 1 2 3 4 5 6 
#
# 1 105.6163 33.2464 23.2584 0.0000 0.0000 0.0000
# 2 33.2464 103.0910 48.6871 0.0000 0.0000 0.0000
# 3 23.2584 48.6871 55.3462 0.0000 0.0000 0.0000
# 4 0.0000 0.0000 0.0000 18.5606 0.0000 0.0000
# 5 0.0000 0.0000 0.0000 0.0000 21.8593 0.0000
# 6 0.0000 0.0000 0.0000 0.0000 0.0000 10.9652
#
#
#
# Elastic Compliance Matrix: (Units=1/GPa)
#
#
# Indices 1 2 3 4 5 6 
#
# 1 0.010738 -0.002278 -0.002508 0.000000 0.000000 0.000000
# 2 -0.002278 0.017078 -0.014066 0.000000 0.000000 0.000000
# 3 -0.002508 -0.014066 0.031495 0.000000 0.000000 0.000000
# 4 0.000000 0.000000 0.000000 0.053878 0.000000 0.000000
# 5 0.000000 0.000000 0.000000 0.000000 0.045747 0.000000
# 6 0.000000 0.000000 0.000000 0.000000 0.000000 0.091198
#
#
# Mechanical properties :
#
#
# Convention : Reuss Voigt Hill
#
# Bulk Modulus (GPa) = 46.28189 52.71525 49.49857
# Shear Modulus (GPa) = 16.94688 20.86778 18.90733
#
# Velocity S-wave (km/s) = 3.06758 3.40400 3.24016
# Velocity P-wave (km/s) = 6.18431 6.68736 6.44075
#
# Compressibility (1/GPa) = 0.02160673
#
# Stress axis : x y z
#
# Youngs Moduli (GPa) = 93.12934 58.55584 31.75073
#
# Poissons Ratio (x) = 0.13341 0.07964
# Poissons Ratio (y) = 0.21218 0.44659
# Poissons Ratio (z) = 0.23358 0.82362
#
# Static dielectric constant tensor:
#      x y z
#    x 1.651520 0.000000 0.000000 
#    y 0.000000 1.580450 0.000000 
#    z 0.000000 0.000000 1.646210 
# 
# From -- ./inp_files/25486.got.cif
#   From: 2010.05.17/outbox.cif.g08.bks.cpg/sg21_13_cif.got.tgz:25486.got - 2010.06.03 23:14:55.
