data_PCOD9323744
_publ_section_title
;
Structure prediction by ZEFSAII (Michael W. Deem and Ramdas Pophale) SiO2 
 PCOD9323744
Probable space group: C 2 2 2
;
_chemical_formula_sum "Si O2"
_cell_formula_units_Z 32
_cell_length_a 6.620438
_cell_length_b 30.320875
_cell_length_c 7.847636
_cell_angle_alpha 90.000000
_cell_angle_beta 90.000000
_cell_angle_gamma 90.000000
_cell_volume 1575.314620
_symmetry_space_group_name_H-M "C 2 2 2"
_symmetry_group_IT_number 21
_symmetry_cell_setting 'orthorhombic'
loop_
_space_group_symop_operation_xyz
x,y,z
-x,-y,z
x,-y,-z
-x,y,-z
1/2+x,1/2+y,z
1/2-x,1/2-y,z
1/2+x,1/2-y,-z
1/2-x,1/2+y,-z
loop_
_atom_site_type_symbol
_atom_site_label
_atom_site_fract_x
_atom_site_fract_y
_atom_site_fract_z
Si Si1 0.000000 0.187399 0.500000
Si Si2 0.000000 0.500000 0.500000
Si Si3 0.250000 0.750000 0.251889
Si Si4 0.500000 0.185954 0.000000
Si Si5 0.320171 0.536863 0.749481
Si Si6 0.363692 0.363545 0.168000
Si Si7 0.500000 0.000000 0.000000
O O1 0.134902 0.218157 0.619112
O O2 0.104252 0.158827 0.352223
O O3 0.835236 0.468551 0.592234
O O4 0.384188 0.781175 0.129585
O O5 0.647178 0.153830 0.894810
O O6 0.500000 0.500000 0.744430
O O7 0.401698 0.585151 0.788532
O O8 0.156054 0.528677 0.895539
O O9 0.500000 0.351980 0.000000
#
# Coordination Sequence:
#
# PCOD9323744 Si02
#       7
#     4   2   4   4   8   8   2
#     4  12  26  44  74 108 138 186 245 297 370 450
#     4  10  26  42  66 104 136 206 242 300 368 444
#     4  12  24  48  74 106 144 192 242 300 396 446
#     4  12  25  48  76 105 152 194 245 318 372 463
#     4  11  24  43  71  99 148 194 244 307 368 442
#     4  12  26  47  71 112 146 190 251 306 370 439
#     4  10  20  42  64 104 124 202 238 286 376 426
#
# _framework density 20.313404999999999
#
# number of rings (size 3 to 8) (size 9 to 14) (size 15 to 20)
#    0.000    0.500    2.500    6.000    3.500    4.000 
#    0.000    0.000    0.000    0.000    0.000    0.000 
#    0.000    0.000    0.000    0.000    0.000    0.000 
#
# Total GULP energy -89086.112112 kJ/mol
# GULP energy per Si atom -5567.882007 kJ/mol
# Density = 2.026717 g / cm^3
# Si number density = 20.313405 Si / 1000 Ang^3
#
#
#
# Elastic Constant Matrix: (Units=GPa)
#
#
# Indices 1 2 3 4 5 6 
#
# 1 124.4729 60.7056 62.4617 0.0000 0.0000 0.0000
# 2 60.7056 124.7908 52.4386 0.0000 0.0000 0.0000
# 3 62.4617 52.4386 145.6514 0.0000 0.0000 0.0000
# 4 0.0000 0.0000 0.0000 49.9391 0.0000 0.0000
# 5 0.0000 0.0000 0.0000 0.0000 93.3062 0.0000
# 6 0.0000 0.0000 0.0000 0.0000 0.0000 24.4594
#
#
#
# Elastic Compliance Matrix: (Units=1/GPa)
#
#
# Indices 1 2 3 4 5 6 
#
# 1 0.011920 -0.004301 -0.003563 0.000000 0.000000 0.000000
# 2 -0.004301 0.010994 -0.002114 0.000000 0.000000 0.000000
# 3 -0.003563 -0.002114 0.009155 0.000000 0.000000 0.000000
# 4 0.000000 0.000000 0.000000 0.020024 0.000000 0.000000
# 5 0.000000 0.000000 0.000000 0.000000 0.010717 0.000000
# 6 0.000000 0.000000 0.000000 0.000000 0.000000 0.040884
#
#
# Mechanical properties :
#
#
# Convention : Reuss Voigt Hill
#
# Bulk Modulus (GPa) = 82.55951 82.90299 82.73125
# Shear Modulus (GPa) = 39.15824 48.16154 43.65989
#
# Velocity S-wave (km/s) = 4.39533 4.87450 4.64110
# Velocity P-wave (km/s) = 8.15412 8.51948 8.33880
#
# Compressibility (1/GPa) = 0.01211248
#
# Stress axis : x y z
#
# Youngs Moduli (GPa) = 83.89593 90.95965 109.23370
#
# Poissons Ratio (x) = 0.39123 0.38921
# Poissons Ratio (y) = 0.36084 0.23088
# Poissons Ratio (z) = 0.29893 0.19225
#
# Static dielectric constant tensor:
#      x y z
#    x 1.699340 0.000000 0.000000 
#    y 0.000000 1.396060 0.000000 
#    z 0.000000 0.000000 2.121080 
# 
# From -- ./inp_files/9145.got.cif
#   From: 2010.05.17/outbox.cif.g08.bks.cpg/sg21_5_cif.got.tgz:9145.got - 2010.06.03 23:14:55.
