data_PCOD9323567
_publ_section_title
;
Structure prediction by ZEFSAII (Michael W. Deem and Ramdas Pophale) SiO2 
 PCOD9323567
Probable space group: C 2 2 2
;
_chemical_formula_sum "Si O2"
_cell_formula_units_Z 44
_cell_length_a 25.861519
_cell_length_b 7.078433
_cell_length_c 9.806696
_cell_angle_alpha 90.000000
_cell_angle_beta 90.000000
_cell_angle_gamma 90.000000
_cell_volume 1795.204253
_symmetry_space_group_name_H-M "C 2 2 2"
_symmetry_group_IT_number 21
_symmetry_cell_setting 'orthorhombic'
loop_
_space_group_symop_operation_xyz
x,y,z
-x,-y,z
x,-y,-z
-x,y,-z
1/2+x,1/2+y,z
1/2-x,1/2-y,z
1/2+x,1/2-y,-z
1/2-x,1/2+y,-z
loop_
_atom_site_type_symbol
_atom_site_label
_atom_site_fract_x
_atom_site_fract_y
_atom_site_fract_z
Si Si1 0.250000 0.750000 0.458142
Si Si2 0.450981 0.299090 0.074972
Si Si3 0.666196 0.869270 0.327702
Si Si4 0.333359 0.207005 0.036136
Si Si5 0.333444 0.314249 0.742540
Si Si6 0.577208 0.410145 0.640984
O O1 0.291388 0.837265 0.559514
O O2 0.285672 0.629133 0.354031
O O3 0.459224 0.340277 0.235646
O O4 0.444499 0.500000 0.000000
O O5 0.500000 0.209651 0.000000
O O6 0.396007 0.199919 0.053453
O O7 0.614268 0.770770 0.384016
O O8 0.658615 0.088876 0.287515
O O9 0.683062 0.756744 0.190602
O O10 0.322066 0.331048 0.903468
O O11 0.312701 0.000000 0.000000
O O12 0.384226 0.431300 0.704218
O O13 0.557629 0.500000 0.500000
#
# Coordination Sequence:
#
# PCOD9323567 Si02
#       6
#     4   8   8   8   8   8
#     4  12  24  36  60  86 128 168 212 270 316 352
#     4  10  20  38  65  95 128 155 206 272 313 388
#     4  10  24  38  59  90 124 165 220 268 304 381
#     4   9  20  42  63  87 122 167 210 256 330 378
#     4  11  23  39  60  88 127 167 214 269 311 373
#     4  11  22  39  65  93 125 176 208 251 339 379
#
# _framework density 24.509747999999998
#
# number of rings (size 3 to 8) (size 9 to 14) (size 15 to 20)
#    0.000    1.636    3.636    0.545    5.091    1.091 
#    0.000    1.818    0.000    0.000    0.000    0.000 
#    0.000    0.000    0.000    0.000    0.000    0.000 
#
# Total GULP energy -122961.265411 kJ/mol
# GULP energy per Si atom -5589.148428 kJ/mol
# Density = 2.445396 g / cm^3
# Si number density = 24.509748 Si / 1000 Ang^3
#
#
#
# Elastic Constant Matrix: (Units=GPa)
#
#
# Indices 1 2 3 4 5 6 
#
# 1 93.8713 9.1275 60.1882 0.0000 0.0000 0.0000
# 2 9.1275 91.4809 24.5138 0.0000 0.0000 0.0000
# 3 60.1882 24.5138 242.3278 0.0000 0.0000 0.0000
# 4 0.0000 0.0000 0.0000 36.2672 0.0000 0.0000
# 5 0.0000 0.0000 0.0000 0.0000 32.4033 0.0000
# 6 0.0000 0.0000 0.0000 0.0000 0.0000 18.0772
#
#
#
# Elastic Compliance Matrix: (Units=1/GPa)
#
#
# Indices 1 2 3 4 5 6 
#
# 1 0.012687 -0.000433 -0.003107 0.000000 0.000000 0.000000
# 2 -0.000433 0.011251 -0.001031 0.000000 0.000000 0.000000
# 3 -0.003107 -0.001031 0.005003 0.000000 0.000000 0.000000
# 4 0.000000 0.000000 0.000000 0.027573 0.000000 0.000000
# 5 0.000000 0.000000 0.000000 0.000000 0.030861 0.000000
# 6 0.000000 0.000000 0.000000 0.000000 0.000000 0.055318
#
#
# Mechanical properties :
#
#
# Convention : Reuss Voigt Hill
#
# Bulk Modulus (GPa) = 50.50898 68.37098 59.43998
# Shear Modulus (GPa) = 31.55868 39.60624 35.58246
#
# Velocity S-wave (km/s) = 3.59220 4.02423 3.81434
# Velocity P-wave (km/s) = 6.15286 7.03908 6.61084
#
# Compressibility (1/GPa) = 0.01979846
#
# Stress axis : x y z
#
# Youngs Moduli (GPa) = 78.81830 88.88413 199.89234
#
# Poissons Ratio (x) = 0.03850 0.62115
# Poissons Ratio (y) = 0.03414 0.20599
# Poissons Ratio (z) = 0.24492 0.09160
#
# Static dielectric constant tensor:
#      x y z
#    x 1.998310 0.000000 0.000000 
#    y 0.000000 2.036920 0.000000 
#    z 0.000000 0.000000 1.975260 
# 
# From -- ./inp_files/19563.got.cif
#   From: 2010.05.17/outbox.cif.g08.bks.cpg/sg21_10_cif.got.tgz:19563.got - 2010.06.03 23:14:55.
