data_PCOD9323751
_publ_section_title
;
Structure prediction by ZEFSAII (Michael W. Deem and Ramdas Pophale) SiO2 
 PCOD9323751
Probable space group: C 2 2 2
;
_chemical_formula_sum "Si O2"
_cell_formula_units_Z 60
_cell_length_a 11.542794
_cell_length_b 23.191616
_cell_length_c 11.183518
_cell_angle_alpha 90.000000
_cell_angle_beta 90.000000
_cell_angle_gamma 90.000000
_cell_volume 2993.783549
_symmetry_space_group_name_H-M "C 2 2 2"
_symmetry_group_IT_number 21
_symmetry_cell_setting 'orthorhombic'
loop_
_space_group_symop_operation_xyz
x,y,z
-x,-y,z
x,-y,-z
-x,y,-z
1/2+x,1/2+y,z
1/2-x,1/2-y,z
1/2+x,1/2-y,-z
1/2-x,1/2+y,-z
loop_
_atom_site_type_symbol
_atom_site_label
_atom_site_fract_x
_atom_site_fract_y
_atom_site_fract_z
Si Si1 0.674963 0.649613 0.417813
Si Si2 0.250000 0.250000 0.260520
Si Si3 0.765894 0.435866 0.746302
Si Si4 0.000296 0.616238 0.141289
Si Si5 0.411307 0.340823 0.674559
Si Si6 0.127207 0.068930 0.026164
Si Si7 0.240745 0.571794 0.205201
Si Si8 0.505849 0.253921 0.862452
O O1 0.753962 0.694593 0.345592
O O2 0.731958 0.588272 0.383859
O O3 0.660231 0.671010 0.553123
O O4 0.543535 0.648173 0.366749
O O5 0.362643 0.259855 0.181918
O O6 0.667086 0.416491 0.841297
O O7 0.763026 0.504653 0.760538
O O8 0.884814 0.408769 0.796640
O O9 0.110320 0.593378 0.214596
O O10 0.013818 0.685307 0.143686
O O11 0.000000 0.598420 0.000000
O O12 0.343497 0.395871 0.725881
O O13 0.423223 0.290760 0.774413
O O14 0.224798 0.086120 0.932194
O O15 0.000000 0.092530 0.000000
O O16 0.120634 0.000000 0.000000
O O17 0.500000 0.272374 0.000000
#
# Coordination Sequence:
#
# PCOD9323751 Si02
#       8
#     8   4   8   8   8   8   8   8
#     4  10  22  42  68  87 126 169 225 268 326 404
#     4  10  20  42  66  92 124 172 210 266 332 398
#     4  11  21  38  63  92 127 178 221 263 326 404
#     4  11  22  39  63  96 133 176 219 268 332 399
#     4  10  24  43  62  97 125 169 215 278 340 391
#     4   9  18  32  54  87 125 164 208 262 323 383
#     4  11  23  36  59  93 135 170 216 274 326 392
#     4  10  23  40  67  98 130 168 219 280 342 395
#
# _framework density 20.041530000000002
#
# number of rings (size 3 to 8) (size 9 to 14) (size 15 to 20)
#    0.000    1.733    2.667    1.200    0.000    9.067 
#    0.000    2.000    0.000    1.600    0.000    0.000 
#    0.000    0.000    0.000    0.000    0.000    0.000 
#
# Total GULP energy -167281.723811 kJ/mol
# GULP energy per Si atom -5576.057460 kJ/mol
# Density = 1.999591 g / cm^3
# Si number density = 20.041530 Si / 1000 Ang^3
#
#
#
# Elastic Constant Matrix: (Units=GPa)
#
#
# Indices 1 2 3 4 5 6 
#
# 1 79.5715 36.7654 34.8307 0.0000 0.0000 0.0000
# 2 36.7654 100.3521 44.9497 0.0000 0.0000 0.0000
# 3 34.8307 44.9497 114.2631 0.0000 0.0000 0.0000
# 4 0.0000 0.0000 0.0000 9.5875 0.0000 0.0000
# 5 0.0000 0.0000 0.0000 0.0000 26.9252 0.0000
# 6 0.0000 0.0000 0.0000 0.0000 0.0000 24.7399
#
#
#
# Elastic Compliance Matrix: (Units=1/GPa)
#
#
# Indices 1 2 3 4 5 6 
#
# 1 0.015995 -0.004462 -0.003120 0.000000 0.000000 0.000000
# 2 -0.004462 0.013341 -0.003888 0.000000 0.000000 0.000000
# 3 -0.003120 -0.003888 0.011232 0.000000 0.000000 0.000000
# 4 0.000000 0.000000 0.000000 0.104303 0.000000 0.000000
# 5 0.000000 0.000000 0.000000 0.000000 0.037140 0.000000
# 6 0.000000 0.000000 0.000000 0.000000 0.000000 0.040421
#
#
# Mechanical properties :
#
#
# Convention : Reuss Voigt Hill
#
# Bulk Modulus (GPa) = 56.73025 58.58647 57.65836
# Shear Modulus (GPa) = 19.90058 24.09325 21.99691
#
# Velocity S-wave (km/s) = 3.15456 3.47099 3.31655
# Velocity P-wave (km/s) = 6.45260 6.73496 6.59529
#
# Compressibility (1/GPa) = 0.01762728
#
# Stress axis : x y z
#
# Youngs Moduli (GPa) = 62.51981 74.95529 89.02821
#
# Poissons Ratio (x) = 0.33447 0.27779
# Poissons Ratio (y) = 0.27898 0.34615
# Poissons Ratio (z) = 0.19508 0.29143
#
# Static dielectric constant tensor:
#      x y z
#    x 1.686920 0.000000 0.000000 
#    y 0.000000 1.744070 0.000000 
#    z 0.000000 0.000000 1.760260 
# 
# From -- ./inp_files/24301.got.cif
#   From: 2010.05.17/outbox.cif.g08.bks.cpg/sg21_13_cif.got.tgz:24301.got - 2010.06.03 23:14:55.
