data_PCOD9323638
_publ_section_title
;
Structure prediction by ZEFSAII (Michael W. Deem and Ramdas Pophale) SiO2 
 PCOD9323638
Probable space group: C 2 2 2
;
_chemical_formula_sum "Si O2"
_cell_formula_units_Z 58
_cell_length_a 7.999637
_cell_length_b 26.052671
_cell_length_c 12.007263
_cell_angle_alpha 90.000000
_cell_angle_beta 90.000000
_cell_angle_gamma 90.000000
_cell_volume 2502.456626
_symmetry_space_group_name_H-M "C 2 2 2"
_symmetry_group_IT_number 21
_symmetry_cell_setting 'orthorhombic'
loop_
_space_group_symop_operation_xyz
x,y,z
-x,-y,z
x,-y,-z
-x,y,-z
1/2+x,1/2+y,z
1/2-x,1/2-y,z
1/2+x,1/2-y,-z
1/2-x,1/2+y,-z
loop_
_atom_site_type_symbol
_atom_site_label
_atom_site_fract_x
_atom_site_fract_y
_atom_site_fract_z
Si Si1 0.305787 0.983649 0.620980
Si Si2 0.000000 0.000000 0.000000
Si Si3 0.985022 0.158725 0.765339
Si Si4 0.319168 0.375393 0.438485
Si Si5 0.211845 0.304327 0.628392
Si Si6 0.190038 0.058628 0.808207
Si Si7 0.747027 0.311491 0.955441
Si Si8 0.072762 0.650522 0.168392
O O1 0.274477 0.923425 0.615409
O O2 0.500000 0.000000 0.626913
O O3 0.239439 0.000000 0.500000
O O4 0.214118 0.013388 0.719725
O O5 0.880838 0.965167 0.922019
O O6 0.851193 0.161310 0.666290
O O7 0.915226 0.172369 0.885725
O O8 0.132261 0.192364 0.714081
O O9 0.056146 0.100679 0.767184
O O10 0.500000 0.386786 0.500000
O O11 0.217242 0.348143 0.536050
O O12 0.250000 0.250000 0.572267
O O13 0.067856 0.318596 0.715398
O O14 0.362044 0.092049 0.815746
O O15 0.750000 0.250000 0.949900
O O16 0.897501 0.339882 0.890198
O O17 0.787582 0.327638 0.081577
#
# Coordination Sequence:
#
# PCOD9323638 Si02
#       8
#     8   2   8   8   8   8   8   8
#     4  11  24  42  68  98 133 179 235 281 355 409
#     4  12  24  44  72 104 132 184 250 274 364 420
#     4  10  22  40  67  92 132 171 229 271 336 405
#     4  10  22  41  67  96 133 175 224 279 333 410
#     4  10  20  39  66  94 132 174 217 276 341 407
#     4  11  24  44  70  99 134 182 228 292 344 412
#     4  11  23  40  65  97 130 178 226 278 342 408
#     4  10  23  40  62  96 137 168 223 281 348 397
#
# _framework density 23.177226999999998
#
# number of rings (size 3 to 8) (size 9 to 14) (size 15 to 20)
#    0.000    1.517    0.000    5.379    1.931    6.897 
#    2.483    1.379    0.000    0.000    0.000    0.000 
#    0.000    0.000    0.000    0.000    0.000    0.000 
#
# Total GULP energy -161991.657084 kJ/mol
# GULP energy per Si atom -5585.919210 kJ/mol
# Density = 2.312447 g / cm^3
# Si number density = 23.177227 Si / 1000 Ang^3
#
#
#
# Elastic Constant Matrix: (Units=GPa)
#
#
# Indices 1 2 3 4 5 6 
#
# 1 53.0675 10.0614 15.0886 0.0000 0.0000 0.0000
# 2 10.0614 96.6904 26.2116 0.0000 0.0000 0.0000
# 3 15.0886 26.2116 113.6374 0.0000 0.0000 0.0000
# 4 0.0000 0.0000 0.0000 27.8078 0.0000 0.0000
# 5 0.0000 0.0000 0.0000 0.0000 33.5135 0.0000
# 6 0.0000 0.0000 0.0000 0.0000 0.0000 1.1405
#
#
#
# Elastic Compliance Matrix: (Units=1/GPa)
#
#
# Indices 1 2 3 4 5 6 
#
# 1 0.019768 -0.001435 -0.002294 0.000000 0.000000 0.000000
# 2 -0.001435 0.011136 -0.002378 0.000000 0.000000 0.000000
# 3 -0.002294 -0.002378 0.009653 0.000000 0.000000 0.000000
# 4 0.000000 0.000000 0.000000 0.035961 0.000000 0.000000
# 5 0.000000 0.000000 0.000000 0.000000 0.029839 0.000000
# 6 0.000000 0.000000 0.000000 0.000000 0.000000 0.876814
#
#
# Mechanical properties :
#
#
# Convention : Reuss Voigt Hill
#
# Bulk Modulus (GPa) = 35.28165 40.67982 37.98073
# Shear Modulus (GPa) = 4.97595 26.62794 15.80194
#
# Velocity S-wave (km/s) = 1.46682 3.39320 2.61394
# Velocity P-wave (km/s) = 4.25727 5.73946 5.05301
#
# Compressibility (1/GPa) = 0.02834335
#
# Stress axis : x y z
#
# Youngs Moduli (GPa) = 50.58624 89.79625 103.59448
#
# Poissons Ratio (x) = 0.12888 0.23762
# Poissons Ratio (y) = 0.07260 0.24636
# Poissons Ratio (z) = 0.11603 0.21355
#
# Static dielectric constant tensor:
#      x y z
#    x 1.958310 0.000000 0.000000 
#    y 0.000000 1.956280 0.000000 
#    z 0.000000 0.000000 1.873370 
# 
# From -- ./inp_files/22986.got.cif
#   From: 2010.05.17/outbox.cif.g08.bks.cpg/sg21_12_cif.got.tgz:22986.got - 2010.06.03 23:14:55.
