data_PCOD9323294
_publ_section_title
;
Structure prediction by ZEFSAII (Michael W. Deem and Ramdas Pophale) SiO2 
 PCOD9323294
Probable space group: C 2 2 2
;
_chemical_formula_sum "Si O2"
_cell_formula_units_Z 64
_cell_length_a 11.250029
_cell_length_b 25.110287
_cell_length_c 12.456956
_cell_angle_alpha 90.000000
_cell_angle_beta 90.000000
_cell_angle_gamma 90.000000
_cell_volume 3518.983650
_symmetry_space_group_name_H-M "C 2 2 2"
_symmetry_group_IT_number 21
_symmetry_cell_setting 'orthorhombic'
loop_
_space_group_symop_operation_xyz
x,y,z
-x,-y,z
x,-y,-z
-x,y,-z
1/2+x,1/2+y,z
1/2-x,1/2-y,z
1/2+x,1/2-y,-z
1/2-x,1/2+y,-z
loop_
_atom_site_type_symbol
_atom_site_label
_atom_site_fract_x
_atom_site_fract_y
_atom_site_fract_z
Si Si1 0.371868 0.628313 0.998900
Si Si2 0.486634 0.735209 0.374700
Si Si3 0.134656 0.561403 0.966337
Si Si4 0.806006 0.805873 0.800098
Si Si5 0.688336 0.698104 0.206638
Si Si6 0.144411 0.560572 0.508998
Si Si7 0.390782 0.145508 0.664882
Si Si8 0.640017 0.104449 0.733790
O O1 0.250326 0.593964 0.007616
O O2 0.366445 0.662878 0.889157
O O3 0.500000 0.598939 0.000000
O O4 0.371059 0.667379 0.100989
O O5 0.500000 0.719500 0.500000
O O6 0.384567 0.705904 0.305683
O O7 0.602224 0.720153 0.301766
O O8 0.444859 0.797629 0.375540
O O9 0.147919 0.568385 0.838488
O O10 0.142549 0.500000 0.000000
O O11 0.000000 0.580308 0.000000
O O12 0.750000 0.750000 0.835707
O O13 0.700049 0.842339 0.758813
O O14 0.750000 0.750000 0.157164
O O15 0.790361 0.659511 0.251818
O O16 0.187584 0.500000 0.500000
O O17 0.170335 0.607768 0.424266
O O18 0.185877 0.578320 0.625631
O O19 0.000000 0.558268 0.500000
O O20 0.502245 0.115051 0.713246
#
# Coordination Sequence:
#
# PCOD9323294 Si02
#       8
#     8   8   8   8   8   8   8   8
#     4  11  22  41  61  87 119 158 206 243 304 368
#     4  11  22  35  55  85 120 160 197 240 296 358
#     4  10  23  40  62  90 116 151 202 262 312 358
#     4  10  22  37  56  84 117 157 193 241 291 358
#     4  11  22  36  59  84 117 160 193 243 292 360
#     4   9  19  33  53  82 115 152 187 238 298 353
#     4  10  20  36  56  86 118 152 197 242 299 361
#     4  10  20  35  57  85 114 149 195 242 298 361
#
# _framework density 18.187069999999999
#
# number of rings (size 3 to 8) (size 9 to 14) (size 15 to 20)
#    0.000    1.750    2.500    2.250    1.750    5.750 
#    0.000    0.625    0.000    0.000    0.000    0.875 
#    0.000    0.000    0.000    0.000    0.000    0.000 
#
# Total GULP energy -178158.126440 kJ/mol
# GULP energy per Si atom -5567.441451 kJ/mol
# Density = 1.814568 g / cm^3
# Si number density = 18.187070 Si / 1000 Ang^3
#
#
#
# Elastic Constant Matrix: (Units=GPa)
#
#
# Indices 1 2 3 4 5 6 
#
# 1 83.0808 26.8932 20.0462 0.0000 0.0000 0.0000
# 2 26.8932 90.9581 42.8659 0.0000 0.0000 0.0000
# 3 20.0462 42.8659 95.7822 0.0000 0.0000 0.0000
# 4 0.0000 0.0000 0.0000 2.6697 0.0000 0.0000
# 5 0.0000 0.0000 0.0000 0.0000 -19.3087 0.0000
# 6 0.0000 0.0000 0.0000 0.0000 0.0000 1.8101
#
#
#
# Elastic Compliance Matrix: (Units=1/GPa)
#
#
# Indices 1 2 3 4 5 6 
#
# 1 0.013439 -0.003356 -0.001311 0.000000 0.000000 0.000000
# 2 -0.003356 0.014771 -0.005908 0.000000 0.000000 0.000000
# 3 -0.001311 -0.005908 0.013359 0.000000 0.000000 0.000000
# 4 0.000000 0.000000 0.000000 0.374568 0.000000 0.000000
# 5 0.000000 0.000000 0.000000 0.000000 -0.051790 0.000000
# 6 0.000000 0.000000 0.000000 0.000000 0.000000 0.552448
#
#
# Mechanical properties :
#
#
# Convention : Reuss Voigt Hill
#
# Bulk Modulus (GPa) = 48.97362 49.93685 49.45523
# Shear Modulus (GPa) = 5.29241 9.03528 7.16385
#
# Velocity S-wave (km/s) = 1.70772 2.23131 1.98684
# Velocity P-wave (km/s) = 5.55649 5.84425 5.70219
#
# Compressibility (1/GPa) = 0.02041916
#
# Stress axis : x y z
#
# Youngs Moduli (GPa) = 74.41027 67.70241 74.85733
#
# Poissons Ratio (x) = 0.22719 0.09813
# Poissons Ratio (y) = 0.24970 0.44226
# Poissons Ratio (z) = 0.09754 0.39999
#
# Static dielectric constant tensor:
#      x y z
#    x 1.673790 0.000000 0.000000 
#    y 0.000000 2.101650 0.000000 
#    z 0.000000 0.000000 1.650990 
# 
# From -- ./inp_files/24388.got.cif
#   From: 2010.05.17/outbox.cif.g08.bks.cpg/sg21_13_cif.got.tgz:24388.got - 2010.06.03 23:14:55.
