data_PCOD9323462
_publ_section_title
;
Structure prediction by ZEFSAII (Michael W. Deem and Ramdas Pophale) SiO2 
 PCOD9323462
Probable space group: C 2 2 2
;
_chemical_formula_sum "Si O2"
_cell_formula_units_Z 56
_cell_length_a 12.831982
_cell_length_b 14.138775
_cell_length_c 13.363058
_cell_angle_alpha 90.000000
_cell_angle_beta 90.000000
_cell_angle_gamma 90.000000
_cell_volume 2424.439653
_symmetry_space_group_name_H-M "C 2 2 2"
_symmetry_group_IT_number 21
_symmetry_cell_setting 'orthorhombic'
loop_
_space_group_symop_operation_xyz
x,y,z
-x,-y,z
x,-y,-z
-x,y,-z
1/2+x,1/2+y,z
1/2-x,1/2-y,z
1/2+x,1/2-y,-z
1/2-x,1/2+y,-z
loop_
_atom_site_type_symbol
_atom_site_label
_atom_site_fract_x
_atom_site_fract_y
_atom_site_fract_z
Si Si1 0.400362 0.821612 0.168443
Si Si2 0.388972 0.192090 0.454876
Si Si3 0.129285 0.765925 0.958309
Si Si4 0.387651 0.133473 0.224048
Si Si5 0.197044 0.960067 0.897457
Si Si6 0.318676 0.606389 0.467589
Si Si7 0.165066 0.875405 0.233131
O O1 0.489924 0.892318 0.206770
O O2 0.284071 0.857429 0.193854
O O3 0.401365 0.719379 0.221040
O O4 0.416106 0.790127 0.053241
O O5 0.500000 0.166093 0.500000
O O6 0.374753 0.163182 0.338918
O O7 0.373525 0.304948 0.475627
O O8 0.301732 0.133481 0.514122
O O9 0.250000 0.750000 0.982380
O O10 0.114150 0.723076 0.849535
O O11 0.122503 0.877572 0.940640
O O12 0.290912 0.074212 0.177216
O O13 0.133006 0.037322 0.835671
O O14 0.247818 0.000000 0.000000
O O15 0.344195 0.500000 0.500000
O O16 0.336543 0.606549 0.349798
#
# Coordination Sequence:
#
# PCOD9323462 Si02
#       7
#     8   8   8   8   8   8   8
#     4  11  20  41  61  93 122 173 206 255 326 401
#     4  11  24  46  66 100 136 173 232 283 336 394
#     4  10  20  37  60  91 127 164 205 257 320 392
#     4  11  24  37  69  91 130 168 216 270 328 381
#     4  11  22  40  64  99 128 168 213 268 321 396
#     4  11  25  41  68  97 130 178 228 282 337 398
#     4  11  21  39  66  84 129 170 215 252 331 387
#
# _framework density 23.098120999999999
#
# number of rings (size 3 to 8) (size 9 to 14) (size 15 to 20)
#    0.000    1.143    2.857    5.571    8.000    1.143 
#    0.000    5.714    0.000    0.000    0.000    0.000 
#    0.000    0.000    0.000    0.000    0.000    0.000 
#
# Total GULP energy -156225.055159 kJ/mol
# GULP energy per Si atom -5579.466256 kJ/mol
# Density = 2.304555 g / cm^3
# Si number density = 23.098121 Si / 1000 Ang^3
#
#
#
# Elastic Constant Matrix: (Units=GPa)
#
#
# Indices 1 2 3 4 5 6 
#
# 1 46.5245 -5.2428 7.0249 0.0000 0.0000 0.0000
# 2 -5.2428 105.0200 56.8130 0.0000 0.0000 0.0000
# 3 7.0249 56.8130 168.6555 0.0000 0.0000 0.0000
# 4 0.0000 0.0000 0.0000 573.0739 0.0000 0.0000
# 5 0.0000 0.0000 0.0000 0.0000 20.0421 0.0000
# 6 0.0000 0.0000 0.0000 0.0000 0.0000 2.6700
#
#
#
# Elastic Compliance Matrix: (Units=1/GPa)
#
#
# Indices 1 2 3 4 5 6 
#
# 1 0.021950 0.001945 -0.001569 0.000000 0.000000 0.000000
# 2 0.001945 0.011816 -0.004061 0.000000 0.000000 0.000000
# 3 -0.001569 -0.004061 0.007363 0.000000 0.000000 0.000000
# 4 0.000000 0.000000 0.000000 0.001745 0.000000 0.000000
# 5 0.000000 0.000000 0.000000 0.000000 0.049895 0.000000
# 6 0.000000 0.000000 0.000000 0.000000 0.000000 0.374529
#
#
# Mechanical properties :
#
#
# Convention : Reuss Voigt Hill
#
# Bulk Modulus (GPa) = 29.62339 48.59890 39.11114
# Shear Modulus (GPa) = 10.28970 136.59754 73.44362
#
# Velocity S-wave (km/s) = 2.11292 7.69846 5.64494
# Velocity P-wave (km/s) = 4.33653 10.00538 7.71081
#
# Compressibility (1/GPa) = 0.03375711
#
# Stress axis : x y z
#
# Youngs Moduli (GPa) = 45.55775 84.62974 135.81926
#
# Poissons Ratio (x) = -0.16459 0.21315
# Poissons Ratio (y) = -0.08860 0.55161
# Poissons Ratio (z) = 0.07150 0.34371
#
# Static dielectric constant tensor:
#      x y z
#    x -5.723070 0.000000 0.000000 
#    y 0.000000 1.955590 0.000000 
#    z 0.000000 0.000000 1.663930 
# 
# From -- ./inp_files/25282.got.cif
#   From: 2010.05.17/outbox.cif.g08.bks.cpg/sg21_13_cif.got.tgz:25282.got - 2010.06.03 23:14:55.
