data_PCOD9323969
_publ_section_title
;
Structure prediction by ZEFSAII (Michael W. Deem and Ramdas Pophale) SiO2 
 PCOD9323969
Probable space group: C 2 2 2
;
_chemical_formula_sum "Si O2"
_cell_formula_units_Z 58
_cell_length_a 19.294323
_cell_length_b 8.566270
_cell_length_c 18.619220
_cell_angle_alpha 90.000000
_cell_angle_beta 90.000000
_cell_angle_gamma 90.000000
_cell_volume 3077.391762
_symmetry_space_group_name_H-M "C 2 2 2"
_symmetry_group_IT_number 21
_symmetry_cell_setting 'orthorhombic'
loop_
_space_group_symop_operation_xyz
x,y,z
-x,-y,z
x,-y,-z
-x,y,-z
1/2+x,1/2+y,z
1/2-x,1/2-y,z
1/2+x,1/2-y,-z
1/2-x,1/2+y,-z
loop_
_atom_site_type_symbol
_atom_site_label
_atom_site_fract_x
_atom_site_fract_y
_atom_site_fract_z
Si Si1 0.422060 0.689698 0.212553
Si Si2 0.000000 0.000000 0.000000
Si Si3 0.828069 0.185590 0.497719
Si Si4 0.416547 0.687506 0.783296
Si Si5 0.825080 0.192125 0.082238
Si Si6 0.419208 0.812668 0.628572
Si Si7 0.580980 0.186387 0.367783
Si Si8 0.870741 0.839912 0.069678
O O1 0.414653 0.501549 0.218085
O O2 0.502946 0.730995 0.206004
O O3 0.380513 0.740888 0.142126
O O4 0.397889 0.762769 0.287603
O O5 0.051205 0.102571 0.048776
O O6 0.750000 0.250000 0.498534
O O7 0.871816 0.246232 0.565774
O O8 0.869192 0.240864 0.427038
O O9 0.825501 0.000000 0.500000
O O10 0.394697 0.754277 0.706715
O O11 0.374090 0.741078 0.853355
O O12 0.750000 0.250000 0.102763
O O13 0.829394 0.003040 0.078627
O O14 0.843215 0.245774 0.001032
O O15 0.500331 0.763653 0.620637
O O16 0.417191 0.999716 0.626223
#
# Coordination Sequence:
#
# PCOD9323969 Si02
#       8
#     8   2   8   8   8   8   8   8
#     4   9  17  30  53  80 105 135 178 231 274 316
#     4   8  12  24  48  76  96 118 170 238 284 306
#     4  12  25  41  61  85 114 146 184 226 272 327
#     4   9  16  31  54  80 103 132 182 233 274 313
#     4   9  17  29  44  68 103 138 176 220 272 328
#     4  10  21  38  59  85 117 148 182 225 273 325
#     4  10  21  38  60  85 115 149 182 223 275 327
#     4   9  16  28  49  73  98 132 176 227 274 316
#
# _framework density 18.84713
#
# number of rings (size 3 to 8) (size 9 to 14) (size 15 to 20)
#    0.000    2.483    0.000    4.966    0.000    3.862 
#    0.000    6.207    0.000    0.000    0.000    3.862 
#    0.000    0.000    0.000    0.000    0.000    0.000 
#
# Total GULP energy -161813.225309 kJ/mol
# GULP energy per Si atom -5579.766390 kJ/mol
# Density = 1.880423 g / cm^3
# Si number density = 18.847130 Si / 1000 Ang^3
#
#
#
# Elastic Constant Matrix: (Units=GPa)
#
#
# Indices 1 2 3 4 5 6 
#
# 1 69.0266 26.3376 57.2165 0.0000 0.0000 0.0000
# 2 26.3376 39.3616 41.4327 0.0000 0.0000 0.0000
# 3 57.2165 41.4327 182.1445 0.0000 0.0000 0.0000
# 4 0.0000 0.0000 0.0000 6.3992 0.0000 0.0000
# 5 0.0000 0.0000 0.0000 0.0000 3.0086 0.0000
# 6 0.0000 0.0000 0.0000 0.0000 0.0000 16.0298
#
#
#
# Elastic Compliance Matrix: (Units=1/GPa)
#
#
# Indices 1 2 3 4 5 6 
#
# 1 0.022161 -0.009862 -0.004718 0.000000 0.000000 0.000000
# 2 -0.009862 0.037792 -0.005499 0.000000 0.000000 0.000000
# 3 -0.004718 -0.005499 0.008223 0.000000 0.000000 0.000000
# 4 0.000000 0.000000 0.000000 0.156270 0.000000 0.000000
# 5 0.000000 0.000000 0.000000 0.000000 0.332383 0.000000
# 6 0.000000 0.000000 0.000000 0.000000 0.000000 0.062384
#
#
# Mechanical properties :
#
#
# Convention : Reuss Voigt Hill
#
# Bulk Modulus (GPa) = 35.69043 60.05625 47.87334
# Shear Modulus (GPa) = 7.47708 16.12390 11.80049
#
# Velocity S-wave (km/s) = 1.99395 2.92808 2.50495
# Velocity P-wave (km/s) = 4.92737 6.58526 5.81570
#
# Compressibility (1/GPa) = 0.02801872
#
# Stress axis : x y z
#
# Youngs Moduli (GPa) = 45.12457 26.46029 121.61002
#
# Poissons Ratio (x) = 0.26095 0.57375
# Poissons Ratio (y) = 0.44502 0.66871
# Poissons Ratio (z) = 0.21290 0.14550
#
# Static dielectric constant tensor:
#      x y z
#    x 1.638360 0.000000 0.000000 
#    y 0.000000 1.641700 0.000000 
#    z 0.000000 0.000000 1.679220 
# 
# From -- ./inp_files/36921.got.cif
#   From: 2010.05.17/outbox.cif.g08.bks.cpg/sg21_19_cif.got.tgz:36921.got - 2010.06.03 23:14:55.
