data_PCOD9323987
_publ_section_title
;
Structure prediction by ZEFSAII (Michael W. Deem and Ramdas Pophale) SiO2 
 PCOD9323987
Probable space group: C 2 2 2
;
_chemical_formula_sum "Si O2"
_cell_formula_units_Z 40
_cell_length_a 12.684450
_cell_length_b 14.893133
_cell_length_c 8.303576
_cell_angle_alpha 90.000000
_cell_angle_beta 90.000000
_cell_angle_gamma 90.000000
_cell_volume 1568.638514
_symmetry_space_group_name_H-M "C 2 2 2"
_symmetry_group_IT_number 21
_symmetry_cell_setting 'orthorhombic'
loop_
_space_group_symop_operation_xyz
x,y,z
-x,-y,z
x,-y,-z
-x,y,-z
1/2+x,1/2+y,z
1/2-x,1/2-y,z
1/2+x,1/2-y,-z
1/2-x,1/2+y,-z
loop_
_atom_site_type_symbol
_atom_site_label
_atom_site_fract_x
_atom_site_fract_y
_atom_site_fract_z
Si Si1 0.134424 0.209693 0.346670
Si Si2 0.314424 0.535986 0.817338
Si Si3 0.647920 0.647891 0.708304
Si Si4 0.094396 0.613653 0.785059
Si Si5 0.879829 0.332405 0.147916
O O1 0.250000 0.250000 0.322984
O O2 0.126102 0.129664 0.216935
O O3 0.126836 0.169911 0.523853
O O4 0.075476 0.303898 0.336471
O O5 0.377958 0.455119 0.737135
O O6 0.195262 0.552134 0.745003
O O7 0.301628 0.500000 0.000000
O O8 0.772562 0.651689 0.754624
O O9 0.597146 0.727104 0.815658
O O10 0.970485 0.594070 0.813414
O O11 0.132606 0.656000 0.956549
#
# Coordination Sequence:
#
# PCOD9323987 Si02
#       5
#     8   8   8   8   8
#     4  10  21  38  61  87 124 169 207 253 317 382
#     4  11  21  36  63  94 125 163 211 259 309 373
#     4  11  21  39  60  93 125 168 211 255 318 379
#     4  10  22  39  62  95 123 165 211 262 314 374
#     4  10  21  39  63  90 126 166 211 254 315 380
#
# _framework density 25.499818999999999
#
# number of rings (size 3 to 8) (size 9 to 14) (size 15 to 20)
#    0.000    1.600    4.000    1.800    5.600    1.600 
#    0.000    1.000    0.000    8.400    0.000    0.000 
#    0.000    0.000    0.000    0.000    0.000    0.000 
#
# Total GULP energy -111533.161648 kJ/mol
# GULP energy per Si atom -5576.658082 kJ/mol
# Density = 2.544178 g / cm^3
# Si number density = 25.499819 Si / 1000 Ang^3
#
#
#
# Elastic Constant Matrix: (Units=GPa)
#
#
# Indices 1 2 3 4 5 6 
#
# 1 87.7968 2.2610 7.7428 0.0000 0.0000 0.0000
# 2 2.2610 138.0474 22.8047 0.0000 0.0000 0.0000
# 3 7.7428 22.8047 68.9686 0.0000 0.0000 0.0000
# 4 0.0000 0.0000 0.0000 27.1993 0.0000 0.0000
# 5 0.0000 0.0000 0.0000 0.0000 14.6223 0.0000
# 6 0.0000 0.0000 0.0000 0.0000 0.0000 30.8702
#
#
#
# Elastic Compliance Matrix: (Units=1/GPa)
#
#
# Indices 1 2 3 4 5 6 
#
# 1 0.011504 0.000026 -0.001300 0.000000 0.000000 0.000000
# 2 0.000026 0.007662 -0.002537 0.000000 0.000000 0.000000
# 3 -0.001300 -0.002537 0.015484 0.000000 0.000000 0.000000
# 4 0.000000 0.000000 0.000000 0.036766 0.000000 0.000000
# 5 0.000000 0.000000 0.000000 0.000000 0.068389 0.000000
# 6 0.000000 0.000000 0.000000 0.000000 0.000000 0.032394
#
#
# Mechanical properties :
#
#
# Convention : Reuss Voigt Hill
#
# Bulk Modulus (GPa) = 36.99646 40.04774 38.52210
# Shear Modulus (GPa) = 26.47897 32.00532 29.24215
#
# Velocity S-wave (km/s) = 3.22591 3.54661 3.39006
# Velocity P-wave (km/s) = 5.33061 5.70179 5.51932
#
# Compressibility (1/GPa) = 0.02702961
#
# Stress axis : x y z
#
# Youngs Moduli (GPa) = 86.92686 130.50595 64.58258
#
# Poissons Ratio (x) = -0.00344 0.08397
# Poissons Ratio (y) = -0.00229 0.16382
# Poissons Ratio (z) = 0.11302 0.33104
#
# Static dielectric constant tensor:
#      x y z
#    x 2.250390 0.000000 0.000000 
#    y 0.000000 2.116070 0.000000 
#    z 0.000000 0.000000 1.965380 
# 
# From -- ./inp_files/14555.got.cif
#   From: 2010.05.17/outbox.cif.g08.bks.cpg/sg21_8_cif.got.tgz:14555.got - 2010.06.03 23:14:55.
