data_PCOD9323228
_publ_section_title
;
Structure prediction by ZEFSAII (Michael W. Deem and Ramdas Pophale) SiO2 
 PCOD9323228
Probable space group: C 2 2 2
;
_chemical_formula_sum "Si O2"
_cell_formula_units_Z 38
_cell_length_a 12.386588
_cell_length_b 8.615000
_cell_length_c 17.015490
_cell_angle_alpha 90.000000
_cell_angle_beta 90.000000
_cell_angle_gamma 90.000000
_cell_volume 1815.730690
_symmetry_space_group_name_H-M "C 2 2 2"
_symmetry_group_IT_number 21
_symmetry_cell_setting 'orthorhombic'
loop_
_space_group_symop_operation_xyz
x,y,z
-x,-y,z
x,-y,-z
-x,y,-z
1/2+x,1/2+y,z
1/2-x,1/2-y,z
1/2+x,1/2-y,-z
1/2-x,1/2+y,-z
loop_
_atom_site_type_symbol
_atom_site_label
_atom_site_fract_x
_atom_site_fract_y
_atom_site_fract_z
Si Si1 0.903589 0.878333 0.775617
Si Si2 0.441181 0.757117 0.883224
Si Si3 0.000000 0.500000 0.500000
Si Si4 0.000000 0.000000 0.000000
Si Si5 0.635975 0.167349 0.369720
Si Si6 0.500000 0.000000 0.000000
Si Si7 0.296104 0.901589 0.745033
O O1 0.911299 0.789825 0.693034
O O2 0.937948 0.761255 0.845434
O O3 0.793728 0.977922 0.779939
O O4 0.000000 0.000000 0.778855
O O5 0.430405 0.893760 0.944506
O O6 0.366040 0.813646 0.811727
O O7 0.430222 0.606266 0.939782
O O8 0.929201 0.386586 0.445117
O O9 0.750000 0.250000 0.390747
O O10 0.645700 0.011230 0.317135
O O11 0.250000 0.750000 0.700783
#
# Coordination Sequence:
#
# PCOD9323228 Si02
#       7
#     8   8   2   2   8   2   8
#     4  11  21  41  69  91 122 170 225 272 318 379
#     4  11  20  39  59  95 124 175 212 276 331 390
#     4  12  24  46  70  94 152 178 182 284 340 384
#     4  10  20  34  58  90 140 168 214 266 354 386
#     4  10  25  43  66 103 128 170 225 262 322 408
#     4  10  24  36  62  86 130 168 212 258 346 400
#     4  11  21  39  69  96 122 166 229 274 311 385
#
# _framework density 20.928214000000001
#
# number of rings (size 3 to 8) (size 9 to 14) (size 15 to 20)
#    0.000    1.263    3.158    2.526    0.000    0.842 
#    3.789    6.316    0.000    0.000    0.000    0.000 
#    0.000    0.000    0.000    0.000    0.000    0.000 
#
# Total GULP energy -105819.860638 kJ/mol
# GULP energy per Si atom -5569.466349 kJ/mol
# Density = 2.088058 g / cm^3
# Si number density = 20.928214 Si / 1000 Ang^3
#
#
#
# Elastic Constant Matrix: (Units=GPa)
#
#
# Indices 1 2 3 4 5 6 
#
# 1 63.2299 31.8059 58.7433 0.0000 0.0000 0.0000
# 2 31.8059 130.9929 68.0808 0.0000 0.0000 0.0000
# 3 58.7433 68.0808 144.3406 0.0000 0.0000 0.0000
# 4 0.0000 0.0000 0.0000 30.4995 0.0000 0.0000
# 5 0.0000 0.0000 0.0000 0.0000 15.1808 0.0000
# 6 0.0000 0.0000 0.0000 0.0000 0.0000 22.6907
#
#
#
# Elastic Compliance Matrix: (Units=1/GPa)
#
#
# Indices 1 2 3 4 5 6 
#
# 1 0.025541 -0.001059 -0.009895 0.000000 0.000000 0.000000
# 2 -0.001059 0.010157 -0.004360 0.000000 0.000000 0.000000
# 3 -0.009895 -0.004360 0.013012 0.000000 0.000000 0.000000
# 4 0.000000 0.000000 0.000000 0.032787 0.000000 0.000000
# 5 0.000000 0.000000 0.000000 0.000000 0.065873 0.000000
# 6 0.000000 0.000000 0.000000 0.000000 0.000000 0.044071
#
#
# Mechanical properties :
#
#
# Convention : Reuss Voigt Hill
#
# Bulk Modulus (GPa) = 55.30364 72.86927 64.08645
# Shear Modulus (GPa) = 21.92065 25.66977 23.79521
#
# Velocity S-wave (km/s) = 3.23990 3.50603 3.37559
# Velocity P-wave (km/s) = 6.36229 7.16128 6.77357
#
# Compressibility (1/GPa) = 0.01808199
#
# Stress axis : x y z
#
# Youngs Moduli (GPa) = 39.15281 98.45420 76.85446
#
# Poissons Ratio (x) = 0.10423 0.76049
# Poissons Ratio (y) = 0.04145 0.33508
# Poissons Ratio (z) = 0.38743 0.42925
#
# Static dielectric constant tensor:
#      x y z
#    x 1.855890 0.000000 0.000000 
#    y 0.000000 1.807810 0.000000 
#    z 0.000000 0.000000 1.745030 
# 
# From -- ./inp_files/36106.got.cif
#   From: 2010.05.17/outbox.cif.g08.bks.cpg/sg21_19_cif.got.tgz:36106.got - 2010.06.03 23:14:55.
