data_PCOD9323080
_publ_section_title
;
Structure prediction by ZEFSAII (Michael W. Deem and Ramdas Pophale) SiO2 
 PCOD9323080
Probable space group: C 2 2 2
;
_chemical_formula_sum "Si O2"
_cell_formula_units_Z 58
_cell_length_a 18.512070
_cell_length_b 15.886008
_cell_length_c 8.842142
_cell_angle_alpha 90.000000
_cell_angle_beta 90.000000
_cell_angle_gamma 90.000000
_cell_volume 2600.322692
_symmetry_space_group_name_H-M "C 2 2 2"
_symmetry_group_IT_number 21
_symmetry_cell_setting 'orthorhombic'
loop_
_space_group_symop_operation_xyz
x,y,z
-x,-y,z
x,-y,-z
-x,y,-z
1/2+x,1/2+y,z
1/2-x,1/2-y,z
1/2+x,1/2-y,-z
1/2-x,1/2+y,-z
loop_
_atom_site_type_symbol
_atom_site_label
_atom_site_fract_x
_atom_site_fract_y
_atom_site_fract_z
Si Si1 0.317587 0.362928 0.478081
Si Si2 0.174450 0.781354 0.996803
Si Si3 0.483370 0.099517 0.332165
Si Si4 0.000000 0.000000 0.000000
Si Si5 0.222052 0.939587 0.194363
Si Si6 0.116115 0.090500 0.200338
Si Si7 0.341078 0.835805 0.561410
Si Si8 0.371340 0.871227 0.211352
O O1 0.300942 0.406718 0.637569
O O2 0.380382 0.406009 0.381219
O O3 0.336872 0.263893 0.475690
O O4 0.239192 0.366391 0.396061
O O5 0.250000 0.750000 0.930969
O O6 0.189310 0.865134 0.093013
O O7 0.148522 0.711101 0.114525
O O8 0.126388 0.814573 0.860341
O O9 0.500000 0.136688 0.500000
O O10 0.400238 0.128532 0.320617
O O11 0.541760 0.123704 0.205483
O O12 0.500000 0.000000 0.342761
O O13 0.951358 0.054750 0.888268
O O14 0.308708 0.938293 0.167191
O O15 0.182369 0.026865 0.165022
O O16 0.358188 0.870429 0.392813
#
# Coordination Sequence:
#
# PCOD9323080 Si02
#       8
#     8   8   8   2   8   8   8   8
#     4  10  21  36  64  95 122 164 218 275 320 370
#     4  10  20  38  65  90 119 163 218 256 311 387
#     4   9  18  31  53  94 136 170 204 255 329 385
#     4  12  28  48  58  84 132 174 200 256 344 396
#     4  10  19  40  64  91 120 163 218 270 322 374
#     4  12  25  42  63  88 126 166 213 270 319 392
#     4   9  18  35  57  94 135 161 209 270 321 371
#     4   9  18  34  63  88 127 175 206 255 321 394
#
# _framework density 22.304925000000001
#
# number of rings (size 3 to 8) (size 9 to 14) (size 15 to 20)
#    0.000    2.069    2.759    0.414    3.862    1.103 
#    0.000    1.379    0.000    0.000    0.000    0.966 
#    0.000    0.000    0.000    0.000    0.000    0.000 
#
# Total GULP energy -161484.280258 kJ/mol
# GULP energy per Si atom -5568.423457 kJ/mol
# Density = 2.225416 g / cm^3
# Si number density = 22.304925 Si / 1000 Ang^3
#
#
#
# Elastic Constant Matrix: (Units=GPa)
#
#
# Indices 1 2 3 4 5 6 
#
# 1 99.8688 34.6468 23.6890 0.0000 0.0000 0.0000
# 2 34.6468 65.8589 16.4509 0.0000 0.0000 0.0000
# 3 23.6890 16.4509 73.3124 0.0000 0.0000 0.0000
# 4 0.0000 0.0000 0.0000 25.2291 0.0000 0.0000
# 5 0.0000 0.0000 0.0000 0.0000 3.8335 0.0000
# 6 0.0000 0.0000 0.0000 0.0000 0.0000 -29.9937
#
#
#
# Elastic Compliance Matrix: (Units=1/GPa)
#
#
# Indices 1 2 3 4 5 6 
#
# 1 0.012759 -0.006020 -0.002772 0.000000 0.000000 0.000000
# 2 -0.006020 0.018926 -0.002302 0.000000 0.000000 0.000000
# 3 -0.002772 -0.002302 0.015052 0.000000 0.000000 0.000000
# 4 0.000000 0.000000 0.000000 0.039637 0.000000 0.000000
# 5 0.000000 0.000000 0.000000 0.000000 0.260857 0.000000
# 6 0.000000 0.000000 0.000000 0.000000 0.000000 -0.033340
#
#
# Mechanical properties :
#
#
# Convention : Reuss Voigt Hill
#
# Bulk Modulus (GPa) = 40.73260 43.17927 41.95594
# Shear Modulus (GPa) = 14.52385 10.76402 12.64393
#
# Velocity S-wave (km/s) = 2.55453 2.19916 2.38348
# Velocity P-wave (km/s) = 5.19636 5.08420 5.14059
#
# Compressibility (1/GPa) = 0.02455036
#
# Stress axis : x y z
#
# Youngs Moduli (GPa) = 78.37563 52.83790 66.43450
#
# Poissons Ratio (x) = 0.31808 0.18415
# Poissons Ratio (y) = 0.47181 0.15291
# Poissons Ratio (z) = 0.21725 0.12162
#
# Static dielectric constant tensor:
#      x y z
#    x 1.907980 0.000000 0.000000 
#    y 0.000000 1.848550 0.000000 
#    z 0.000000 0.000000 1.870680 
# 
# From -- ./inp_files/16691.got.cif
#   From: 2010.05.17/outbox.cif.g08.bks.cpg/sg21_9_cif.got.tgz:16691.got - 2010.06.03 23:14:55.
