data_PCOD9323635
_publ_section_title
;
Structure prediction by ZEFSAII (Michael W. Deem and Ramdas Pophale) SiO2 
 PCOD9323635
Probable space group: C 2 2 2
;
_chemical_formula_sum "Si O2"
_cell_formula_units_Z 40
_cell_length_a 16.754940
_cell_length_b 7.658263
_cell_length_c 13.434778
_cell_angle_alpha 90.000000
_cell_angle_beta 90.000000
_cell_angle_gamma 90.000000
_cell_volume 1723.866572
_symmetry_space_group_name_H-M "C 2 2 2"
_symmetry_group_IT_number 21
_symmetry_cell_setting 'orthorhombic'
loop_
_space_group_symop_operation_xyz
x,y,z
-x,-y,z
x,-y,-z
-x,y,-z
1/2+x,1/2+y,z
1/2-x,1/2-y,z
1/2+x,1/2-y,-z
1/2-x,1/2+y,-z
loop_
_atom_site_type_symbol
_atom_site_label
_atom_site_fract_x
_atom_site_fract_y
_atom_site_fract_z
Si Si1 0.130910 0.500000 0.000000
Si Si2 0.840443 0.670721 0.636534
Si Si3 0.154240 0.736328 0.580166
Si Si4 0.750000 0.750000 0.118417
Si Si5 0.054835 0.736305 0.169134
Si Si6 0.396322 0.616317 0.778176
O O1 0.190425 0.632129 0.944174
O O2 0.081058 0.380451 0.923419
O O3 0.750000 0.750000 0.653286
O O4 0.851079 0.465326 0.613539
O O5 0.870860 0.760569 0.534414
O O6 0.894511 0.691450 0.733048
O O7 0.250000 0.750000 0.579549
O O8 0.109993 0.862339 0.658670
O O9 0.693835 0.637922 0.188276
O O10 0.959734 0.736318 0.187709
O O11 0.076794 0.941473 0.165585
#
# Coordination Sequence:
#
# PCOD9323635 Si02
#       6
#     4   8   8   4   8   8
#     4  12  28  49  74 103 138 190 256 309 380 432
#     4  10  22  38  69 104 148 192 241 297 369 447
#     4  10  20  39  66 108 146 191 238 295 367 452
#     4  12  26  44  72  98 130 184 238 304 360 448
#     4  11  27  46  69 105 144 190 240 315 372 439
#     4  11  25  46  71 103 146 186 242 304 379 442
#
# _framework density 23.203654
#
# number of rings (size 3 to 8) (size 9 to 14) (size 15 to 20)
#    0.000    1.200    1.000    3.600    4.200    8.000 
#    0.000    6.000    0.000    0.000    0.000    0.000 
#    0.000    0.000    0.000    0.000    0.000    0.000 
#
# Total GULP energy -111683.749573 kJ/mol
# GULP energy per Si atom -5584.187479 kJ/mol
# Density = 2.315084 g / cm^3
# Si number density = 23.203654 Si / 1000 Ang^3
#
#
#
# Elastic Constant Matrix: (Units=GPa)
#
#
# Indices 1 2 3 4 5 6 
#
# 1 105.6459 35.1026 72.2363 0.0000 0.0000 0.0000
# 2 35.1026 91.8134 65.5767 0.0000 0.0000 0.0000
# 3 72.2363 65.5767 172.6996 0.0000 0.0000 0.0000
# 4 0.0000 0.0000 0.0000 32.7379 0.0000 0.0000
# 5 0.0000 0.0000 0.0000 0.0000 64.3054 0.0000
# 6 0.0000 0.0000 0.0000 0.0000 0.0000 38.5643
#
#
#
# Elastic Compliance Matrix: (Units=1/GPa)
#
#
# Indices 1 2 3 4 5 6 
#
# 1 0.013414 -0.001538 -0.005027 0.000000 0.000000 0.000000
# 2 -0.001538 0.015121 -0.005098 0.000000 0.000000 0.000000
# 3 -0.005027 -0.005098 0.009829 0.000000 0.000000 0.000000
# 4 0.000000 0.000000 0.000000 0.030546 0.000000 0.000000
# 5 0.000000 0.000000 0.000000 0.000000 0.015551 0.000000
# 6 0.000000 0.000000 0.000000 0.000000 0.000000 0.025931
#
#
# Mechanical properties :
#
#
# Convention : Reuss Voigt Hill
#
# Bulk Modulus (GPa) = 66.50079 79.55445 73.02762
# Shear Modulus (GPa) = 36.04139 40.27107 38.15623
#
# Velocity S-wave (km/s) = 3.94542 4.17051 4.05953
# Velocity P-wave (km/s) = 7.03399 7.58621 7.31531
#
# Compressibility (1/GPa) = 0.01503742
#
# Stress axis : x y z
#
# Youngs Moduli (GPa) = 74.55116 66.13235 101.74185
#
# Poissons Ratio (x) = 0.10173 0.51141
# Poissons Ratio (y) = 0.11468 0.51871
# Poissons Ratio (z) = 0.37473 0.33717
#
# Static dielectric constant tensor:
#      x y z
#    x 1.876200 0.000000 0.000000 
#    y 0.000000 1.582020 0.000000 
#    z 0.000000 0.000000 1.891680 
# 
# From -- ./inp_files/32135.got.cif
#   From: 2010.05.17/outbox.cif.g08.bks.cpg/sg21_17_cif.got.tgz:32135.got - 2010.06.03 23:14:55.
