data_PCOD9323712
_publ_section_title
;
Structure prediction by ZEFSAII (Michael W. Deem and Ramdas Pophale) SiO2 
 PCOD9323712
Probable space group: C 2 2 2
;
_chemical_formula_sum "Si O2"
_cell_formula_units_Z 48
_cell_length_a 24.770477
_cell_length_b 5.418380
_cell_length_c 15.849228
_cell_angle_alpha 90.000000
_cell_angle_beta 90.000000
_cell_angle_gamma 90.000000
_cell_volume 2127.217721
_symmetry_space_group_name_H-M "C 2 2 2"
_symmetry_group_IT_number 21
_symmetry_cell_setting 'orthorhombic'
loop_
_space_group_symop_operation_xyz
x,y,z
-x,-y,z
x,-y,-z
-x,y,-z
1/2+x,1/2+y,z
1/2-x,1/2-y,z
1/2+x,1/2-y,-z
1/2-x,1/2+y,-z
loop_
_atom_site_type_symbol
_atom_site_label
_atom_site_fract_x
_atom_site_fract_y
_atom_site_fract_z
Si Si1 0.425729 0.157037 0.583020
Si Si2 0.336119 0.612539 0.334804
Si Si3 0.784137 0.500000 0.000000
Si Si4 0.250000 0.750000 0.725186
Si Si5 0.058976 0.625845 0.752733
Si Si6 0.250000 0.750000 0.448374
Si Si7 0.000000 0.000000 0.339370
Si Si8 0.163872 0.432824 0.824347
O O1 0.386731 0.390229 0.601986
O O2 0.484062 0.277271 0.599507
O O3 0.417746 0.000000 0.500000
O O4 0.417855 0.993448 0.666542
O O5 0.297367 0.379079 0.327821
O O6 0.299554 0.808354 0.386070
O O7 0.344964 0.698567 0.238136
O O8 0.750000 0.250000 0.977089
O O9 0.820154 0.592668 0.921246
O O10 0.216512 0.562500 0.783675
O O11 0.107716 0.585319 0.816775
O O12 0.000000 0.500000 0.772225
O O13 0.045176 0.903223 0.725496
O O14 0.260828 0.500000 0.500000
#
# Coordination Sequence:
#
# PCOD9323712 Si02
#       8
#     8   8   4   4   8   4   4   8
#     4  10  22  39  60  89 127 172 228 292 350 403
#     4  11  23  41  62  89 129 177 224 282 346 426
#     4  12  26  46  71 114 149 178 228 292 356 438
#     4  12  19  38  65  92 124 176 228 273 346 423
#     4   9  21  40  65  94 128 174 233 281 343 416
#     4  12  25  40  59  86 128 170 224 277 328 401
#     4  10  20  41  62  90 125 176 236 292 347 406
#     4  11  23  41  68  98 134 179 224 282 354 431
#
# _framework density 22.564684
#
# number of rings (size 3 to 8) (size 9 to 14) (size 15 to 20)
#    0.000    1.333    2.500    3.000    0.000    4.333 
#    3.000    0.417    0.000    0.000    0.000    0.000 
#    0.000    0.000    0.000    0.000    0.000    0.000 
#
# Total GULP energy -133837.164439 kJ/mol
# GULP energy per Si atom -5576.548518 kJ/mol
# Density = 2.251333 g / cm^3
# Si number density = 22.564684 Si / 1000 Ang^3
#
#
#
# Elastic Constant Matrix: (Units=GPa)
#
#
# Indices 1 2 3 4 5 6 
#
# 1 95.1431 19.3639 34.1649 0.0000 0.0000 0.0000
# 2 19.3639 86.6473 29.5694 0.0000 0.0000 0.0000
# 3 34.1649 29.5694 133.8929 0.0000 0.0000 0.0000
# 4 0.0000 0.0000 0.0000 20.1093 0.0000 0.0000
# 5 0.0000 0.0000 0.0000 0.0000 26.3583 0.0000
# 6 0.0000 0.0000 0.0000 0.0000 0.0000 39.1265
#
#
#
# Elastic Compliance Matrix: (Units=1/GPa)
#
#
# Indices 1 2 3 4 5 6 
#
# 1 0.011809 -0.001742 -0.002629 0.000000 0.000000 0.000000
# 2 -0.001742 0.012739 -0.002369 0.000000 0.000000 0.000000
# 3 -0.002629 -0.002369 0.008662 0.000000 0.000000 0.000000
# 4 0.000000 0.000000 0.000000 0.049728 0.000000 0.000000
# 5 0.000000 0.000000 0.000000 0.000000 0.037939 0.000000
# 6 0.000000 0.000000 0.000000 0.000000 0.000000 0.025558
#
#
# Mechanical properties :
#
#
# Convention : Reuss Voigt Hill
#
# Bulk Modulus (GPa) = 50.68042 53.54221 52.11131
# Shear Modulus (GPa) = 30.03163 32.62447 31.32805
#
# Velocity S-wave (km/s) = 3.65213 3.80652 3.73012
# Velocity P-wave (km/s) = 6.34766 6.56500 6.45725
#
# Compressibility (1/GPa) = 0.01973149
#
# Stress axis : x y z
#
# Youngs Moduli (GPa) = 84.68182 78.50086 115.44026
#
# Poissons Ratio (x) = 0.13675 0.30344
# Poissons Ratio (y) = 0.14752 0.27345
# Poissons Ratio (z) = 0.22259 0.18595
#
# Static dielectric constant tensor:
#      x y z
#    x 2.102150 0.000000 0.000000 
#    y 0.000000 1.966620 0.000000 
#    z 0.000000 0.000000 1.812790 
# 
# From -- ./inp_files/33863.got.cif
#   From: 2010.05.17/outbox.cif.g08.bks.cpg/sg21_17_cif.got.tgz:33863.got - 2010.06.03 23:14:55.
