data_PCOD9323655
_publ_section_title
;
Structure prediction by ZEFSAII (Michael W. Deem and Ramdas Pophale) SiO2 
 PCOD9323655
Probable space group: C 2 2 2
;
_chemical_formula_sum "Si O2"
_cell_formula_units_Z 40
_cell_length_a 16.838258
_cell_length_b 7.672730
_cell_length_c 13.494813
_cell_angle_alpha 90.000000
_cell_angle_beta 90.000000
_cell_angle_gamma 90.000000
_cell_volume 1743.467862
_symmetry_space_group_name_H-M "C 2 2 2"
_symmetry_group_IT_number 21
_symmetry_cell_setting 'orthorhombic'
loop_
_space_group_symop_operation_xyz
x,y,z
-x,-y,z
x,-y,-z
-x,y,-z
1/2+x,1/2+y,z
1/2-x,1/2-y,z
1/2+x,1/2-y,-z
1/2-x,1/2+y,-z
loop_
_atom_site_type_symbol
_atom_site_label
_atom_site_fract_x
_atom_site_fract_y
_atom_site_fract_z
Si Si1 0.290843 0.500000 0.500000
Si Si2 0.409854 0.703900 0.983990
Si Si3 0.431841 0.794875 0.775859
Si Si4 0.107455 0.301575 0.808619
Si Si5 0.414858 0.198954 0.457525
Si Si6 0.750000 0.250000 0.338790
O O1 0.345555 0.329670 0.488353
O O2 0.245039 0.568446 0.402355
O O3 0.383379 0.725146 0.870695
O O4 0.413565 0.500000 0.000000
O O5 0.500000 0.778805 0.000000
O O6 0.364033 0.781401 0.078080
O O7 0.520649 0.715755 0.792185
O O8 0.414874 0.778038 0.660475
O O9 0.417166 0.000108 0.790650
O O10 0.172358 0.240219 0.730477
O O11 0.500000 0.258313 0.500000
O O12 0.407421 0.000000 0.500000
#
# Coordination Sequence:
#
# PCOD9323655 Si02
#       6
#     4   8   8   8   8   4
#     4  12  29  44  66  93 142 198 236 284 358 433
#     4   9  19  36  63 100 131 164 224 286 352 416
#     4  10  20  39  72  97 128 174 231 297 351 405
#     4  10  21  41  65  97 132 179 226 292 350 421
#     4  11  23  44  72 109 139 175 242 303 358 423
#     4  12  28  46  66  96 146 196 238 288 358 444
#
# _framework density 22.942781
#
# number of rings (size 3 to 8) (size 9 to 14) (size 15 to 20)
#    0.000    1.600    0.000    5.700    7.000    2.400 
#    5.400    2.000    0.000    0.000    0.000    0.000 
#    0.000    0.000    0.000    0.000    0.000    0.000 
#
# Total GULP energy -111475.576565 kJ/mol
# GULP energy per Si atom -5573.778828 kJ/mol
# Density = 2.289056 g / cm^3
# Si number density = 22.942781 Si / 1000 Ang^3
#
#
#
# Elastic Constant Matrix: (Units=GPa)
#
#
# Indices 1 2 3 4 5 6 
#
# 1 62.3303 10.5898 35.9369 0.0000 0.0000 0.0000
# 2 10.5898 41.3373 15.5634 0.0000 0.0000 0.0000
# 3 35.9369 15.5634 192.2630 0.0000 0.0000 0.0000
# 4 0.0000 0.0000 0.0000 28.6585 0.0000 0.0000
# 5 0.0000 0.0000 0.0000 0.0000 37.9422 0.0000
# 6 0.0000 0.0000 0.0000 0.0000 0.0000 31.4342
#
#
#
# Elastic Compliance Matrix: (Units=1/GPa)
#
#
# Indices 1 2 3 4 5 6 
#
# 1 0.018470 -0.003540 -0.003166 0.000000 0.000000 0.000000
# 2 -0.003540 0.025630 -0.001413 0.000000 0.000000 0.000000
# 3 -0.003166 -0.001413 0.005907 0.000000 0.000000 0.000000
# 4 0.000000 0.000000 0.000000 0.034894 0.000000 0.000000
# 5 0.000000 0.000000 0.000000 0.000000 0.026356 0.000000
# 6 0.000000 0.000000 0.000000 0.000000 0.000000 0.031812
#
#
# Mechanical properties :
#
#
# Convention : Reuss Voigt Hill
#
# Bulk Modulus (GPa) = 29.61186 46.67899 38.14543
# Shear Modulus (GPa) = 29.31454 35.19636 32.25545
#
# Velocity S-wave (km/s) = 3.57840 3.92100 3.75361
# Velocity P-wave (km/s) = 5.47797 6.39445 5.95387
#
# Compressibility (1/GPa) = 0.03377025
#
# Stress axis : x y z
#
# Youngs Moduli (GPa) = 54.14108 39.01667 169.28099
#
# Poissons Ratio (x) = 0.13811 0.53592
# Poissons Ratio (y) = 0.19165 0.23921
# Poissons Ratio (z) = 0.17140 0.05513
#
# Static dielectric constant tensor:
#      x y z
#    x 1.981320 0.000000 0.000000 
#    y 0.000000 1.827180 0.000000 
#    z 0.000000 0.000000 2.061340 
# 
# From -- ./inp_files/25848.got.cif
#   From: 2010.05.17/outbox.cif.g08.bks.cpg/sg21_13_cif.got.tgz:25848.got - 2010.06.03 23:14:55.
