data_PCOD9323103
_publ_section_title
;
Structure prediction by ZEFSAII (Michael W. Deem and Ramdas Pophale) SiO2 
 PCOD9323103
Probable space group: C 2 2 2
;
_chemical_formula_sum "Si O2"
_cell_formula_units_Z 60
_cell_length_a 21.631854
_cell_length_b 7.376874
_cell_length_c 15.656907
_cell_angle_alpha 90.000000
_cell_angle_beta 90.000000
_cell_angle_gamma 90.000000
_cell_volume 2498.458158
_symmetry_space_group_name_H-M "C 2 2 2"
_symmetry_group_IT_number 21
_symmetry_cell_setting 'orthorhombic'
loop_
_space_group_symop_operation_xyz
x,y,z
-x,-y,z
x,-y,-z
-x,y,-z
1/2+x,1/2+y,z
1/2-x,1/2-y,z
1/2+x,1/2-y,-z
1/2-x,1/2+y,-z
loop_
_atom_site_type_symbol
_atom_site_label
_atom_site_fract_x
_atom_site_fract_y
_atom_site_fract_z
Si Si1 0.761601 0.537692 0.900268
Si Si2 0.326918 0.378041 0.236383
Si Si3 0.869377 0.295753 0.528596
Si Si4 0.535616 0.824414 0.330054
Si Si5 0.374215 0.940161 0.213491
Si Si6 0.552051 0.392990 0.207110
Si Si7 0.750000 0.250000 0.645678
Si Si8 0.683658 0.683486 0.637375
O O1 0.750000 0.750000 0.882773
O O2 0.708056 0.433378 0.848890
O O3 0.828427 0.495024 0.860739
O O4 0.758538 0.500000 0.000000
O O5 0.394825 0.461680 0.230610
O O6 0.301887 0.192376 0.274602
O O7 0.300511 0.487049 0.321708
O O8 0.884107 0.500000 0.500000
O O9 0.920974 0.239883 0.597403
O O10 0.803053 0.302108 0.574037
O O11 0.862111 0.180129 0.441991
O O12 0.485524 0.690634 0.288165
O O13 0.500000 0.000000 0.366319
O O14 0.579151 0.914974 0.256069
O O15 0.416249 0.782954 0.168413
O O16 0.341779 0.815106 0.287990
O O17 0.500000 0.500000 0.155234
O O18 0.750000 0.750000 0.608330
#
# Coordination Sequence:
#
# PCOD9323103 Si02
#       8
#     8   8   8   8   8   8   4   8
#     4  12  24  44  73 108 137 158 203 281 357 418
#     4  11  23  43  67  91 136 171 218 272 348 416
#     4  12  23  35  57  95 133 169 240 292 325 382
#     4  10  22  40  64  95 130 183 244 280 314 380
#     4  10  19  42  69  93 130 175 220 273 337 408
#     4  10  21  40  66  90 128 182 227 268 322 391
#     4  12  26  36  62  98 126 178 230 276 348 420
#     4  11  18  37  63  87 132 179 210 278 355 391
#
# _framework density 24.014807999999999
#
# number of rings (size 3 to 8) (size 9 to 14) (size 15 to 20)
#    0.000    1.067    6.000    2.400    0.933    0.267 
#    0.000    0.000    0.000    6.400    0.000    0.000 
#    0.000    0.000    0.000    0.000    0.000    0.000 
#
# Total GULP energy -167385.302314 kJ/mol
# GULP energy per Si atom -5579.510077 kJ/mol
# Density = 2.396015 g / cm^3
# Si number density = 24.014808 Si / 1000 Ang^3
#
#
#
# Elastic Constant Matrix: (Units=GPa)
#
#
# Indices 1 2 3 4 5 6 
#
# 1 155.0600 14.7092 44.7063 0.0000 0.0000 0.0000
# 2 14.7092 95.6163 24.7890 0.0000 0.0000 0.0000
# 3 44.7063 24.7890 128.0754 0.0000 0.0000 0.0000
# 4 0.0000 0.0000 0.0000 27.0701 0.0000 0.0000
# 5 0.0000 0.0000 0.0000 0.0000 31.2017 0.0000
# 6 0.0000 0.0000 0.0000 0.0000 0.0000 32.0727
#
#
#
# Elastic Compliance Matrix: (Units=1/GPa)
#
#
# Indices 1 2 3 4 5 6 
#
# 1 0.007192 -0.000480 -0.002417 0.000000 0.000000 0.000000
# 2 -0.000480 0.011043 -0.001970 0.000000 0.000000 0.000000
# 3 -0.002417 -0.001970 0.009033 0.000000 0.000000 0.000000
# 4 0.000000 0.000000 0.000000 0.036941 0.000000 0.000000
# 5 0.000000 0.000000 0.000000 0.000000 0.032050 0.000000
# 6 0.000000 0.000000 0.000000 0.000000 0.000000 0.031179
#
#
# Mechanical properties :
#
#
# Convention : Reuss Voigt Hill
#
# Bulk Modulus (GPa) = 57.03354 60.79564 58.91459
# Shear Modulus (GPa) = 34.96111 37.70538 36.33324
#
# Velocity S-wave (km/s) = 3.81965 3.96673 3.89389
# Velocity P-wave (km/s) = 6.57677 6.80814 6.69346
#
# Compressibility (1/GPa) = 0.01753354
#
# Stress axis : x y z
#
# Youngs Moduli (GPa) = 139.05086 90.55534 110.70464
#
# Poissons Ratio (x) = 0.04343 0.26763
# Poissons Ratio (y) = 0.06669 0.21808
# Poissons Ratio (z) = 0.33616 0.17839
#
# Static dielectric constant tensor:
#      x y z
#    x 2.035390 0.000000 0.000000 
#    y 0.000000 1.972880 0.000000 
#    z 0.000000 0.000000 1.849980 
# 
# From -- ./inp_files/33584.got.cif
#   From: 2010.05.17/outbox.cif.g08.bks.cpg/sg21_17_cif.got.tgz:33584.got - 2010.06.03 23:14:55.
