data_PCOD9323360
_publ_section_title
;
Structure prediction by ZEFSAII (Michael W. Deem and Ramdas Pophale) SiO2 
 PCOD9323360
Probable space group: C 2 2 2
;
_chemical_formula_sum "Si O2"
_cell_formula_units_Z 28
_cell_length_a 12.847070
_cell_length_b 13.851499
_cell_length_c 8.367556
_cell_angle_alpha 90.000000
_cell_angle_beta 90.000000
_cell_angle_gamma 90.000000
_cell_volume 1489.016441
_symmetry_space_group_name_H-M "C 2 2 2"
_symmetry_group_IT_number 21
_symmetry_cell_setting 'orthorhombic'
loop_
_space_group_symop_operation_xyz
x,y,z
-x,-y,z
x,-y,-z
-x,y,-z
1/2+x,1/2+y,z
1/2-x,1/2-y,z
1/2+x,1/2-y,-z
1/2-x,1/2+y,-z
loop_
_atom_site_type_symbol
_atom_site_label
_atom_site_fract_x
_atom_site_fract_y
_atom_site_fract_z
Si Si1 0.384184 0.110623 0.548906
Si Si2 0.678792 0.103999 0.082405
Si Si3 0.883653 0.192394 0.957766
Si Si4 0.750000 0.250000 0.667103
O O1 0.500000 0.143044 0.500000
O O2 0.359848 0.111507 0.736573
O O3 0.306870 0.174537 0.445850
O O4 0.374579 0.000000 0.500000
O O5 0.800716 0.132830 0.064401
O O6 0.622858 0.193065 0.994720
O O7 0.660053 0.000000 0.000000
O O8 0.832952 0.192861 0.780387
O O9 0.000000 0.160005 0.000000
#
# Coordination Sequence:
#
# PCOD9323360 Si02
#       4
#     8   8   8   4
#     4  11  22  37  58  85 113 147 188 236 286 332
#     4  10  21  38  57  82 115 148 187 235 280 337
#     4  10  21  37  58  83 111 151 190 228 281 339
#     4  10  20  36  58  86 116 144 188 240 278 328
#
# _framework density 18.804359999999999
#
# number of rings (size 3 to 8) (size 9 to 14) (size 15 to 20)
#    0.000    2.000    0.000    6.857    0.000    3.429 
#    0.000    0.000    0.000    6.000    0.000    0.000 
#    0.000    0.000    0.000    0.000    0.000    0.000 
#
# Total GULP energy -78077.122790 kJ/mol
# GULP energy per Si atom -5576.937342 kJ/mol
# Density = 1.876156 g / cm^3
# Si number density = 18.804360 Si / 1000 Ang^3
#
#
#
# Elastic Constant Matrix: (Units=GPa)
#
#
# Indices 1 2 3 4 5 6 
#
# 1 145.2333 29.4529 73.6859 0.0000 0.0000 0.0000
# 2 29.4529 54.6854 50.1080 0.0000 0.0000 0.0000
# 3 73.6859 50.1080 158.1958 0.0000 0.0000 0.0000
# 4 0.0000 0.0000 0.0000 36.3857 0.0000 0.0000
# 5 0.0000 0.0000 0.0000 0.0000 12.5434 0.0000
# 6 0.0000 0.0000 0.0000 0.0000 0.0000 19.8255
#
#
#
# Elastic Compliance Matrix: (Units=1/GPa)
#
#
# Indices 1 2 3 4 5 6 
#
# 1 0.009095 -0.001432 -0.003783 0.000000 0.000000 0.000000
# 2 -0.001432 0.025990 -0.007565 0.000000 0.000000 0.000000
# 3 -0.003783 -0.007565 0.010479 0.000000 0.000000 0.000000
# 4 0.000000 0.000000 0.000000 0.027483 0.000000 0.000000
# 5 0.000000 0.000000 0.000000 0.000000 0.079723 0.000000
# 6 0.000000 0.000000 0.000000 0.000000 0.000000 0.050440
#
#
# Mechanical properties :
#
#
# Convention : Reuss Voigt Hill
#
# Bulk Modulus (GPa) = 49.98998 73.84534 61.91766
# Shear Modulus (GPa) = 21.23694 27.40878 24.32286
#
# Velocity S-wave (km/s) = 3.36425 3.82196 3.60039
# Velocity P-wave (km/s) = 6.46009 7.67021 7.09101
#
# Compressibility (1/GPa) = 0.02000401
#
# Stress axis : x y z
#
# Youngs Moduli (GPa) = 109.94848 38.47698 95.42564
#
# Poissons Ratio (x) = 0.05512 0.36097
# Poissons Ratio (y) = 0.15750 0.72188
# Poissons Ratio (z) = 0.41590 0.29107
#
# Static dielectric constant tensor:
#      x y z
#    x 1.682700 0.000000 0.000000 
#    y 0.000000 1.609910 0.000000 
#    z 0.000000 0.000000 1.883730 
# 
# From -- ./inp_files/13920.got.cif
#   From: 2010.05.17/outbox.cif.g08.bks.cpg/sg21_7_cif.got.tgz:13920.got - 2010.06.03 23:14:55.
