data_PCOD9323402
_publ_section_title
;
Structure prediction by ZEFSAII (Michael W. Deem and Ramdas Pophale) SiO2 
 PCOD9323402
Probable space group: C 2 2 2
;
_chemical_formula_sum "Si O2"
_cell_formula_units_Z 24
_cell_length_a 27.655194
_cell_length_b 7.510947
_cell_length_c 5.048515
_cell_angle_alpha 90.000000
_cell_angle_beta 90.000000
_cell_angle_gamma 90.000000
_cell_volume 1048.660858
_symmetry_space_group_name_H-M "C 2 2 2"
_symmetry_group_IT_number 21
_symmetry_cell_setting 'orthorhombic'
loop_
_space_group_symop_operation_xyz
x,y,z
-x,-y,z
x,-y,-z
-x,y,-z
1/2+x,1/2+y,z
1/2-x,1/2-y,z
1/2+x,1/2-y,-z
1/2-x,1/2+y,-z
loop_
_atom_site_type_symbol
_atom_site_label
_atom_site_fract_x
_atom_site_fract_y
_atom_site_fract_z
Si Si1 0.710333 0.610050 0.260438
Si Si2 0.554883 0.216217 0.978389
Si Si3 0.884024 0.285693 0.483884
O O1 0.734711 0.500000 0.500000
O O2 0.750000 0.750000 0.164245
O O3 0.664785 0.697571 0.410041
O O4 0.695828 0.500000 0.000000
O O5 0.594475 0.268256 0.199543
O O6 0.500000 0.281028 0.000000
O O7 0.574770 0.263550 0.692829
O O8 0.552975 0.000000 0.000000
O O9 0.877625 0.500000 0.500000
#
# Coordination Sequence:
#
# PCOD9323402 Si02
#       3
#     8   8   8
#     4  12  26  44  66  92 126 167 215 266 323 386
#     4   9  17  31  56  91 126 161 205 256 305 361
#     4  10  20  36  61  91 125 163 208 259 311 369
#
# _framework density 22.886333
#
# number of rings (size 3 to 8) (size 9 to 14) (size 15 to 20)
#    0.000    1.667    0.000    5.000    0.000    8.000 
#    0.000    0.000    0.000   15.000    0.000    0.000 
#    0.000    0.000    0.000    0.000    0.000    0.000 
#
# Total GULP energy -67090.378975 kJ/mol
# GULP energy per Si atom -5590.864915 kJ/mol
# Density = 2.283424 g / cm^3
# Si number density = 22.886333 Si / 1000 Ang^3
#
#
#
# Elastic Constant Matrix: (Units=GPa)
#
#
# Indices 1 2 3 4 5 6 
#
# 1 122.2050 40.0215 14.7084 0.0000 0.0000 0.0000
# 2 40.0215 62.9406 32.9399 0.0000 0.0000 0.0000
# 3 14.7084 32.9399 123.3657 0.0000 0.0000 0.0000
# 4 0.0000 0.0000 0.0000 22.7945 0.0000 0.0000
# 5 0.0000 0.0000 0.0000 0.0000 31.8975 0.0000
# 6 0.0000 0.0000 0.0000 0.0000 0.0000 6.5258
#
#
#
# Elastic Compliance Matrix: (Units=1/GPa)
#
#
# Indices 1 2 3 4 5 6 
#
# 1 0.010374 -0.006916 0.000610 0.000000 0.000000 0.000000
# 2 -0.006916 0.023079 -0.005338 0.000000 0.000000 0.000000
# 3 0.000610 -0.005338 0.009459 0.000000 0.000000 0.000000
# 4 0.000000 0.000000 0.000000 0.043870 0.000000 0.000000
# 5 0.000000 0.000000 0.000000 0.000000 0.031350 0.000000
# 6 0.000000 0.000000 0.000000 0.000000 0.000000 0.153239
#
#
# Mechanical properties :
#
#
# Convention : Reuss Voigt Hill
#
# Bulk Modulus (GPa) = 50.95749 53.76123 52.35936
# Shear Modulus (GPa) = 16.60022 26.96633 21.78327
#
# Velocity S-wave (km/s) = 2.69612 3.43632 3.08848
# Velocity P-wave (km/s) = 5.65738 6.26785 5.97042
#
# Compressibility (1/GPa) = 0.01962420
#
# Stress axis : x y z
#
# Youngs Moduli (GPa) = 96.39043 43.32942 105.72461
#
# Poissons Ratio (x) = 0.29966 -0.06446
# Poissons Ratio (y) = 0.66662 0.56434
# Poissons Ratio (z) = -0.05877 0.23128
#
# Static dielectric constant tensor:
#      x y z
#    x 1.804470 0.000000 0.000000 
#    y 0.000000 1.968150 0.000000 
#    z 0.000000 0.000000 1.814680 
# 
# From -- ./inp_files/1108.got.cif
#   From: 2010.05.17/outbox.cif.g08.bks.cpg/sg21_1_cif.got.tgz:1108.got - 2010.06.03 23:14:55.
