data_PCOD9323737
_publ_section_title
;
Structure prediction by ZEFSAII (Michael W. Deem and Ramdas Pophale) SiO2 
 PCOD9323737
Probable space group: C 2 2 2
;
_chemical_formula_sum "Si O2"
_cell_formula_units_Z 34
_cell_length_a 15.592075
_cell_length_b 5.897211
_cell_length_c 17.054449
_cell_angle_alpha 90.000000
_cell_angle_beta 90.000000
_cell_angle_gamma 90.000000
_cell_volume 1568.152428
_symmetry_space_group_name_H-M "C 2 2 2"
_symmetry_group_IT_number 21
_symmetry_cell_setting 'orthorhombic'
loop_
_space_group_symop_operation_xyz
x,y,z
-x,-y,z
x,-y,-z
-x,y,-z
1/2+x,1/2+y,z
1/2-x,1/2-y,z
1/2+x,1/2-y,-z
1/2-x,1/2+y,-z
loop_
_atom_site_type_symbol
_atom_site_label
_atom_site_fract_x
_atom_site_fract_y
_atom_site_fract_z
Si Si1 0.208469 0.000000 0.500000
Si Si2 0.582081 0.661922 0.379074
Si Si3 0.334436 0.880995 0.926025
Si Si4 0.000000 0.500000 0.500000
Si Si5 0.750000 0.250000 0.186370
Si Si6 0.597865 0.584783 0.212594
O O1 0.250000 0.250000 0.501659
O O2 0.154066 0.012813 0.420209
O O3 0.500000 0.500000 0.373037
O O4 0.604167 0.739612 0.291181
O O5 0.558473 0.853524 0.441789
O O6 0.250000 0.750000 0.957620
O O7 0.384169 0.709348 0.869462
O O8 0.300107 0.072009 0.867606
O O9 0.379099 0.000000 0.000000
O O10 0.672603 0.395194 0.225777
O O11 0.500000 0.500000 0.208681
#
# Coordination Sequence:
#
# PCOD9323737 Si02
#       6
#     4   8   8   2   4   8
#     4  12  26  42  69 109 148 188 250 310 378 456
#     4  11  24  45  68  98 135 194 243 296 372 444
#     4  10  20  41  72  99 133 185 229 284 361 431
#     4  12  20  44  80  88 134 198 254 294 378 446
#     4  10  22  42  70  96 140 182 222 292 362 424
#     4  10  25  43  68 105 141 182 243 301 363 447
#
# _framework density 21.681564000000002
#
# number of rings (size 3 to 8) (size 9 to 14) (size 15 to 20)
#    0.000    1.412    3.529    0.706    1.647    7.529 
#    0.000    3.529    0.000    0.000    0.000    0.000 
#    0.000    0.000    0.000    0.000    0.000    0.000 
#
# Total GULP energy -94782.060270 kJ/mol
# GULP energy per Si atom -5575.415310 kJ/mol
# Density = 2.163222 g / cm^3
# Si number density = 21.681564 Si / 1000 Ang^3
#
#
#
# Elastic Constant Matrix: (Units=GPa)
#
#
# Indices 1 2 3 4 5 6 
#
# 1 103.7915 44.2063 57.4079 0.0000 0.0000 0.0000
# 2 44.2063 89.8310 41.2539 0.0000 0.0000 0.0000
# 3 57.4079 41.2539 154.6325 0.0000 0.0000 0.0000
# 4 0.0000 0.0000 0.0000 48.5370 0.0000 0.0000
# 5 0.0000 0.0000 0.0000 0.0000 47.3424 0.0000
# 6 0.0000 0.0000 0.0000 0.0000 0.0000 16.5058
#
#
#
# Elastic Compliance Matrix: (Units=1/GPa)
#
#
# Indices 1 2 3 4 5 6 
#
# 1 0.013910 -0.005098 -0.003804 0.000000 0.000000 0.000000
# 2 -0.005098 0.014555 -0.001990 0.000000 0.000000 0.000000
# 3 -0.003804 -0.001990 0.008410 0.000000 0.000000 0.000000
# 4 0.000000 0.000000 0.000000 0.020603 0.000000 0.000000
# 5 0.000000 0.000000 0.000000 0.000000 0.021123 0.000000
# 6 0.000000 0.000000 0.000000 0.000000 0.000000 0.060585
#
#
# Mechanical properties :
#
#
# Convention : Reuss Voigt Hill
#
# Bulk Modulus (GPa) = 66.26899 70.44348 68.35624
# Shear Modulus (GPa) = 30.12032 36.16951 33.14491
#
# Velocity S-wave (km/s) = 3.73126 4.08881 3.91412
# Velocity P-wave (km/s) = 7.01385 7.40620 7.21269
#
# Compressibility (1/GPa) = 0.01509001
#
# Stress axis : x y z
#
# Youngs Moduli (GPa) = 71.88972 68.70524 118.90321
#
# Poissons Ratio (x) = 0.35028 0.45231
# Poissons Ratio (y) = 0.36652 0.23665
# Poissons Ratio (z) = 0.27347 0.13674
#
# Static dielectric constant tensor:
#      x y z
#    x 1.839980 0.000000 0.000000 
#    y 0.000000 0.502870 0.000000 
#    z 0.000000 0.000000 1.804190 
# 
# From -- ./inp_files/36501.got.cif
#   From: 2010.05.17/outbox.cif.g08.bks.cpg/sg21_19_cif.got.tgz:36501.got - 2010.06.03 23:14:55.
