data_PCOD9323482
_publ_section_title
;
Structure prediction by ZEFSAII (Michael W. Deem and Ramdas Pophale) SiO2 
 PCOD9323482
Probable space group: C 2 2 2
;
_chemical_formula_sum "Si O2"
_cell_formula_units_Z 30
_cell_length_a 39.112116
_cell_length_b 7.018596
_cell_length_c 4.864987
_cell_angle_alpha 90.000000
_cell_angle_beta 90.000000
_cell_angle_gamma 90.000000
_cell_volume 1335.497997
_symmetry_space_group_name_H-M "C 2 2 2"
_symmetry_group_IT_number 21
_symmetry_cell_setting 'orthorhombic'
loop_
_space_group_symop_operation_xyz
x,y,z
-x,-y,z
x,-y,-z
-x,y,-z
1/2+x,1/2+y,z
1/2-x,1/2-y,z
1/2+x,1/2-y,-z
1/2-x,1/2+y,-z
loop_
_atom_site_type_symbol
_atom_site_label
_atom_site_fract_x
_atom_site_fract_y
_atom_site_fract_z
Si Si1 0.048124 0.500000 0.000000
Si Si2 0.849415 0.769235 0.497053
Si Si3 0.283077 0.636409 0.753682
Si Si4 0.107947 0.771587 0.002513
Si Si5 0.500000 0.000000 0.500000
O O1 0.073286 0.330112 0.910371
O O2 0.026468 0.576190 0.736467
O O3 0.812771 0.726107 0.365055
O O4 0.860594 0.715028 0.799824
O O5 0.848589 0.000000 0.500000
O O6 0.880206 0.711157 0.299160
O O7 0.272870 0.500000 0.500000
O O8 0.250000 0.750000 0.851786
O O9 0.296012 0.500000 0.000000
O O10 0.104068 0.000000 0.000000
#
# Coordination Sequence:
#
# PCOD9323482 Si02
#       5
#     4   8   8   8   2
#     4  11  22  42  62  90 124 158 198 240 304 362
#     4   9  18  35  58  80 115 154 196 245 314 351
#     4  11  22  39  59  82 121 166 208 262 325 383
#     4  10  20  37  62  89 115 155 198 252 296 355
#     4  10  24  42  62  86 132 164 180 242 306 370
#
# _framework density 22.463529000000001
#
# number of rings (size 3 to 8) (size 9 to 14) (size 15 to 20)
#    0.000    1.867    0.000    6.400    0.000    0.000 
#    7.200    4.000    0.000    0.000    0.000    0.000 
#    0.000    0.000    0.000    0.000    0.000    0.000 
#
# Total GULP energy -83596.241827 kJ/mol
# GULP energy per Si atom -5573.082788 kJ/mol
# Density = 2.241240 g / cm^3
# Si number density = 22.463529 Si / 1000 Ang^3
#
#
#
# Elastic Constant Matrix: (Units=GPa)
#
#
# Indices 1 2 3 4 5 6 
#
# 1 119.7817 19.2687 23.9552 0.0000 0.0000 0.0000
# 2 19.2687 77.7653 4.9382 0.0000 0.0000 0.0000
# 3 23.9552 4.9382 120.6629 0.0000 0.0000 0.0000
# 4 0.0000 0.0000 0.0000 12.8311 0.0000 0.0000
# 5 0.0000 0.0000 0.0000 0.0000 48.6858 0.0000
# 6 0.0000 0.0000 0.0000 0.0000 0.0000 -30.0109
#
#
#
# Elastic Compliance Matrix: (Units=1/GPa)
#
#
# Indices 1 2 3 4 5 6 
#
# 1 0.009032 -0.002130 -0.001706 0.000000 0.000000 0.000000
# 2 -0.002130 0.013395 -0.000125 0.000000 0.000000 0.000000
# 3 -0.001706 -0.000125 0.008631 0.000000 0.000000 0.000000
# 4 0.000000 0.000000 0.000000 0.077936 0.000000 0.000000
# 5 0.000000 0.000000 0.000000 0.000000 0.020540 0.000000
# 6 0.000000 0.000000 0.000000 0.000000 0.000000 -0.033321
#
#
# Mechanical properties :
#
#
# Convention : Reuss Voigt Hill
#
# Bulk Modulus (GPa) = 43.22203 46.05934 44.64069
# Shear Modulus (GPa) = 44.70375 24.30438 34.50407
#
# Velocity S-wave (km/s) = 4.46585 3.29287 3.92344
# Velocity P-wave (km/s) = 6.77307 5.91658 6.35926
#
# Compressibility (1/GPa) = 0.02313635
#
# Stress axis : x y z
#
# Youngs Moduli (GPa) = 110.71378 74.65550 115.85635
#
# Poissons Ratio (x) = 0.15899 0.19765
# Poissons Ratio (y) = 0.23579 0.01453
# Poissons Ratio (z) = 0.18888 0.00936
#
# Static dielectric constant tensor:
#      x y z
#    x 1.863770 0.000000 0.000000 
#    y 0.000000 1.877340 0.000000 
#    z 0.000000 0.000000 1.830910 
# 
# From -- ./inp_files/7712.got.cif
#   From: 2010.05.17/outbox.cif.g08.bks.cpg/sg21_4_cif.got.tgz:7712.got - 2010.06.03 23:14:55.
