data_PCOD9323954
_publ_section_title
;
Structure prediction by ZEFSAII (Michael W. Deem and Ramdas Pophale) SiO2 
 PCOD9323954
Probable space group: C 2 2 2
;
_chemical_formula_sum "Si O2"
_cell_formula_units_Z 32
_cell_length_a 10.731302
_cell_length_b 7.974534
_cell_length_c 18.877403
_cell_angle_alpha 90.000000
_cell_angle_beta 90.000000
_cell_angle_gamma 90.000000
_cell_volume 1615.474021
_symmetry_space_group_name_H-M "C 2 2 2"
_symmetry_group_IT_number 21
_symmetry_cell_setting 'orthorhombic'
loop_
_space_group_symop_operation_xyz
x,y,z
-x,-y,z
x,-y,-z
-x,y,-z
1/2+x,1/2+y,z
1/2-x,1/2-y,z
1/2+x,1/2-y,-z
1/2-x,1/2+y,-z
loop_
_atom_site_type_symbol
_atom_site_label
_atom_site_fract_x
_atom_site_fract_y
_atom_site_fract_z
Si Si1 0.613175 0.674565 0.804773
Si Si2 0.269433 0.551743 0.921425
Si Si3 0.613547 0.325767 0.542406
Si Si4 0.500000 0.000000 0.135708
Si Si5 0.000000 0.000000 0.673776
O O1 0.750000 0.750000 0.801735
O O2 0.635754 0.531759 0.865117
O O3 0.587751 0.595543 0.728615
O O4 0.513799 0.824064 0.820994
O O5 0.250000 0.750000 0.914539
O O6 0.127461 0.489135 0.908688
O O7 0.309919 0.500000 0.000000
O O8 0.626866 0.500000 0.500000
O O9 0.500000 0.234959 0.500000
O O10 0.750000 0.250000 0.542410
O O11 0.568854 0.371314 0.621308
#
# Coordination Sequence:
#
# PCOD9323954 Si02
#       5
#     8   8   8   4   4
#     4  10  22  38  56  84 117 153 199 249 303 367
#     4  11  22  37  57  81 112 153 203 257 312 367
#     4   9  21  40  62  90 122 154 194 241 290 355
#     4  10  21  38  56  78 113 152 202 256 305 364
#     4  10  21  38  59  86 120 154 192 240 297 360
#
# _framework density 19.808426999999998
#
# number of rings (size 3 to 8) (size 9 to 14) (size 15 to 20)
#    0.000    2.250    0.000    4.125    0.000    9.500 
#    0.000    4.375    0.000    0.000    0.000    0.000 
#    0.000    0.000    0.000    0.000    0.000    0.000 
#
# Total GULP energy -89113.159095 kJ/mol
# GULP energy per Si atom -5569.572443 kJ/mol
# Density = 1.976334 g / cm^3
# Si number density = 19.808427 Si / 1000 Ang^3
#
#
#
# Elastic Constant Matrix: (Units=GPa)
#
#
# Indices 1 2 3 4 5 6 
#
# 1 130.0677 36.7535 59.2223 0.0000 0.0000 0.0000
# 2 36.7535 94.1468 57.8642 0.0000 0.0000 0.0000
# 3 59.2223 57.8642 175.7893 0.0000 0.0000 0.0000
# 4 0.0000 0.0000 0.0000 7.7831 0.0000 0.0000
# 5 0.0000 0.0000 0.0000 0.0000 13.5864 0.0000
# 6 0.0000 0.0000 0.0000 0.0000 0.0000 41.3134
#
#
#
# Elastic Compliance Matrix: (Units=1/GPa)
#
#
# Indices 1 2 3 4 5 6 
#
# 1 0.009421 -0.002165 -0.002461 0.000000 0.000000 0.000000
# 2 -0.002165 0.013813 -0.003817 0.000000 0.000000 0.000000
# 3 -0.002461 -0.003817 0.007774 0.000000 0.000000 0.000000
# 4 0.000000 0.000000 0.000000 0.128483 0.000000 0.000000
# 5 0.000000 0.000000 0.000000 0.000000 0.073603 0.000000
# 6 0.000000 0.000000 0.000000 0.000000 0.000000 0.024205
#
#
# Mechanical properties :
#
#
# Convention : Reuss Voigt Hill
#
# Bulk Modulus (GPa) = 70.81667 78.63155 74.72411
# Shear Modulus (GPa) = 17.92797 28.94752 23.43774
#
# Velocity S-wave (km/s) = 3.01170 3.82694 3.44353
# Velocity P-wave (km/s) = 6.92258 7.70126 7.32228
#
# Compressibility (1/GPa) = 0.01412097
#
# Stress axis : x y z
#
# Youngs Moduli (GPa) = 106.14958 72.39456 128.62819
#
# Poissons Ratio (x) = 0.15674 0.31657
# Poissons Ratio (y) = 0.22982 0.49103
# Poissons Ratio (z) = 0.26124 0.27636
#
# Static dielectric constant tensor:
#      x y z
#    x 1.742390 0.000000 0.000000 
#    y 0.000000 1.792800 0.000000 
#    z 0.000000 0.000000 1.671050 
# 
# From -- ./inp_files/31235.got.cif
#   From: 2010.05.17/outbox.cif.g08.bks.cpg/sg21_16_cif.got.tgz:31235.got - 2010.06.03 23:14:55.
