data_PCOD9323601
_publ_section_title
;
Structure prediction by ZEFSAII (Michael W. Deem and Ramdas Pophale) SiO2 
 PCOD9323601
Probable space group: C 2 2 2
;
_chemical_formula_sum "Si O2"
_cell_formula_units_Z 34
_cell_length_a 11.234987
_cell_length_b 27.589470
_cell_length_c 5.479818
_cell_angle_alpha 90.000000
_cell_angle_beta 90.000000
_cell_angle_gamma 90.000000
_cell_volume 1698.564592
_symmetry_space_group_name_H-M "C 2 2 2"
_symmetry_group_IT_number 21
_symmetry_cell_setting 'orthorhombic'
loop_
_space_group_symop_operation_xyz
x,y,z
-x,-y,z
x,-y,-z
-x,y,-z
1/2+x,1/2+y,z
1/2-x,1/2-y,z
1/2+x,1/2-y,-z
1/2-x,1/2+y,-z
loop_
_atom_site_type_symbol
_atom_site_label
_atom_site_fract_x
_atom_site_fract_y
_atom_site_fract_z
Si Si1 0.640962 0.848377 0.489272
Si Si2 0.851874 0.291775 0.008545
Si Si3 0.810196 0.452357 0.339894
Si Si4 0.000000 0.500000 0.000000
Si Si5 0.545537 0.555892 0.758259
O O1 0.500000 0.847818 0.500000
O O2 0.673965 0.822599 0.236812
O O3 0.675746 0.904537 0.500048
O O4 0.674882 0.821429 0.741685
O O5 0.750000 0.250000 0.006161
O O6 0.000000 0.280546 0.000000
O O7 0.796944 0.500000 0.500000
O O8 0.685895 0.445776 0.207529
O O9 0.918785 0.464729 0.162946
O O10 0.500000 0.500000 0.755906
O O11 0.500000 0.576619 0.500000
O O12 0.500000 0.581702 0.000000
#
# Coordination Sequence:
#
# PCOD9323601 Si02
#       5
#     8   8   8   2   8
#     4  10  23  40  65 100 132 171 218 267 341 396
#     4  10  22  44  72  96 130 168 214 283 346 410
#     4  12  25  40  63  95 138 183 231 274 321 406
#     4  12  26  36  62  94 140 168 238 274 326 380
#     4  10  20  39  59  79 114 174 232 254 320 366
#
# _framework density 20.016902999999999
#
# number of rings (size 3 to 8) (size 9 to 14) (size 15 to 20)
#    0.000    1.412    2.353    3.882    8.235    0.000 
#    0.000    3.529    0.000    0.000    0.000    0.000 
#    0.000    0.000    0.000    0.000    0.000    0.000 
#
# Total GULP energy -94742.089272 kJ/mol
# GULP energy per Si atom -5573.064075 kJ/mol
# Density = 1.997134 g / cm^3
# Si number density = 20.016903 Si / 1000 Ang^3
#
#
#
# Elastic Constant Matrix: (Units=GPa)
#
#
# Indices 1 2 3 4 5 6 
#
# 1 100.4829 44.8537 71.0952 0.0000 0.0000 0.0000
# 2 44.8537 130.5914 62.9611 0.0000 0.0000 0.0000
# 3 71.0952 62.9611 146.7477 0.0000 0.0000 0.0000
# 4 0.0000 0.0000 0.0000 -8.2909 0.0000 0.0000
# 5 0.0000 0.0000 0.0000 0.0000 379.4707 0.0000
# 6 0.0000 0.0000 0.0000 0.0000 0.0000 3.0622
#
#
#
# Elastic Compliance Matrix: (Units=1/GPa)
#
#
# Indices 1 2 3 4 5 6 
#
# 1 0.015613 -0.002163 -0.006636 0.000000 0.000000 0.000000
# 2 -0.002163 0.009954 -0.003223 0.000000 0.000000 0.000000
# 3 -0.006636 -0.003223 0.011412 0.000000 0.000000 0.000000
# 4 0.000000 0.000000 0.000000 -0.120614 0.000000 0.000000
# 5 0.000000 0.000000 0.000000 0.000000 0.002635 0.000000
# 6 0.000000 0.000000 0.000000 0.000000 0.000000 0.326562
#
#
# Mechanical properties :
#
#
# Convention : Reuss Voigt Hill
#
# Bulk Modulus (GPa) = 77.30758 81.73800 79.52279
# Shear Modulus (GPa) = 18.25367 88.10919 53.18143
#
# Velocity S-wave (km/s) = 3.02307 6.64176 5.16003
# Velocity P-wave (km/s) = 7.13374 9.98701 8.67844
#
# Compressibility (1/GPa) = 0.01293534
#
# Stress axis : x y z
#
# Youngs Moduli (GPa) = 64.05091 100.45984 87.62709
#
# Poissons Ratio (x) = 0.21731 0.58147
# Poissons Ratio (y) = 0.13855 0.28241
# Poissons Ratio (z) = 0.42503 0.32376
#
# Static dielectric constant tensor:
#      x y z
#    x 1.717460 0.000000 0.000000 
#    y 0.000000 0.871290 0.000000 
#    z 0.000000 0.000000 1.798600 
# 
# From -- ./inp_files/2681.got.cif
#   From: 2010.05.17/outbox.cif.g08.bks.cpg/sg21_2_cif.got.tgz:2681.got - 2010.06.03 23:14:55.
