data_PCOD9323981
_publ_section_title
;
Structure prediction by ZEFSAII (Michael W. Deem and Ramdas Pophale) SiO2 
 PCOD9323981
Probable space group: C 2 2 2
;
_chemical_formula_sum "Si O2"
_cell_formula_units_Z 56
_cell_length_a 23.312369
_cell_length_b 14.651814
_cell_length_c 8.093327
_cell_angle_alpha 90.000000
_cell_angle_beta 90.000000
_cell_angle_gamma 90.000000
_cell_volume 2764.425519
_symmetry_space_group_name_H-M "C 2 2 2"
_symmetry_group_IT_number 21
_symmetry_cell_setting 'orthorhombic'
loop_
_space_group_symop_operation_xyz
x,y,z
-x,-y,z
x,-y,-z
-x,y,-z
1/2+x,1/2+y,z
1/2-x,1/2-y,z
1/2+x,1/2-y,-z
1/2-x,1/2+y,-z
loop_
_atom_site_type_symbol
_atom_site_label
_atom_site_fract_x
_atom_site_fract_y
_atom_site_fract_z
Si Si1 0.000000 0.000000 0.712331
Si Si2 0.500000 0.820209 0.000000
Si Si3 0.288631 0.395992 0.434618
Si Si4 0.165912 0.607422 0.524621
Si Si5 0.311220 0.262743 0.736852
Si Si6 0.544039 0.163290 0.653945
Si Si7 0.077582 0.847724 0.096272
Si Si8 0.410575 0.366314 0.282706
O O1 0.049261 0.939623 0.628931
O O2 0.962037 0.921358 0.808610
O O3 0.477745 0.870209 0.834595
O O4 0.546185 0.749609 0.924716
O O5 0.291949 0.500000 0.500000
O O6 0.224389 0.373138 0.371685
O O7 0.294867 0.330268 0.589715
O O8 0.344139 0.374098 0.326963
O O9 0.169578 0.500000 0.500000
O O10 0.168142 0.669661 0.356984
O O11 0.105623 0.622706 0.610862
O O12 0.250000 0.250000 0.830089
O O13 0.361752 0.317184 0.828138
O O14 0.500000 0.150783 0.500000
O O15 0.560428 0.269894 0.676195
O O16 0.085014 0.884755 0.911882
#
# Coordination Sequence:
#
# PCOD9323981 Si02
#       8
#     4   4   8   8   8   8   8   8
#     4  12  21  36  59  94 137 169 198 257 333 402
#     4  10  22  37  60  93 122 166 206 258 319 399
#     4  10  21  38  60  94 123 160 210 257 313 393
#     4  10  22  41  67  87 120 166 218 276 330 377
#     4  10  21  39  61  87 121 166 216 267 316 387
#     4  11  22  39  64  92 123 161 213 260 330 383
#     4  11  20  37  56  87 132 167 202 250 327 389
#     4  11  22  34  58  93 128 170 199 250 314 396
#
# _framework density 20.257372
#
# number of rings (size 3 to 8) (size 9 to 14) (size 15 to 20)
#    0.000    1.429    4.286    2.571    0.000    1.429 
#    5.143    0.714    0.000   12.857    0.000    0.000 
#    0.000    0.000    0.000    0.000    0.000    0.000 
#
# Total GULP energy -155961.377451 kJ/mol
# GULP energy per Si atom -5570.049195 kJ/mol
# Density = 2.021127 g / cm^3
# Si number density = 20.257372 Si / 1000 Ang^3
#
#
#
# Elastic Constant Matrix: (Units=GPa)
#
#
# Indices 1 2 3 4 5 6 
#
# 1 187.5399 13.8087 52.2367 0.0000 0.0000 0.0000
# 2 13.8087 54.6934 11.6974 0.0000 0.0000 0.0000
# 3 52.2367 11.6974 52.2215 0.0000 0.0000 0.0000
# 4 0.0000 0.0000 0.0000 -0.1600 0.0000 0.0000
# 5 0.0000 0.0000 0.0000 0.0000 87.6545 0.0000
# 6 0.0000 0.0000 0.0000 0.0000 0.0000 40.2857
#
#
#
# Elastic Compliance Matrix: (Units=1/GPa)
#
#
# Indices 1 2 3 4 5 6 
#
# 1 0.007396 -0.000299 -0.007331 0.000000 0.000000 0.000000
# 2 -0.000299 0.019216 -0.004005 0.000000 0.000000 0.000000
# 3 -0.007331 -0.004005 0.027380 0.000000 0.000000 0.000000
# 4 0.000000 0.000000 0.000000 -6.250788 0.000000 0.000000
# 5 0.000000 0.000000 0.000000 0.000000 0.011408 0.000000
# 6 0.000000 0.000000 0.000000 0.000000 0.000000 0.024823
#
#
# Mechanical properties :
#
#
# Convention : Reuss Voigt Hill
#
# Bulk Modulus (GPa) = 32.55126 49.99337 41.27231
# Shear Modulus (GPa) = -0.81605 40.00353 19.59374
#
# Velocity S-wave (km/s) = -0.63539 4.44865 3.11342
# Velocity P-wave (km/s) = 3.94531 7.14983 5.77432
#
# Compressibility (1/GPa) = 0.03072078
#
# Stress axis : x y z
#
# Youngs Moduli (GPa) = 135.20274 52.04043 36.52332
#
# Poissons Ratio (x) = 0.01558 0.26777
# Poissons Ratio (y) = 0.04048 0.14627
# Poissons Ratio (z) = 0.99122 0.20841
#
# Static dielectric constant tensor:
#      x y z
#    x 1.826420 0.000000 0.000000 
#    y 0.000000 1.645940 0.000000 
#    z 0.000000 0.000000 1.778820 
# 
# From -- ./inp_files/17759.got.cif
#   From: 2010.05.17/outbox.cif.g08.bks.cpg/sg21_9_cif.got.tgz:17759.got - 2010.06.03 23:14:55.
