data_PCOD9323641
_publ_section_title
;
Structure prediction by ZEFSAII (Michael W. Deem and Ramdas Pophale) SiO2 
 PCOD9323641
Probable space group: C 2 2 2
;
_chemical_formula_sum "Si O2"
_cell_formula_units_Z 56
_cell_length_a 5.354184
_cell_length_b 29.532783
_cell_length_c 14.626655
_cell_angle_alpha 90.000000
_cell_angle_beta 90.000000
_cell_angle_gamma 90.000000
_cell_volume 2312.824526
_symmetry_space_group_name_H-M "C 2 2 2"
_symmetry_group_IT_number 21
_symmetry_cell_setting 'orthorhombic'
loop_
_space_group_symop_operation_xyz
x,y,z
-x,-y,z
x,-y,-z
-x,y,-z
1/2+x,1/2+y,z
1/2-x,1/2-y,z
1/2+x,1/2-y,-z
1/2-x,1/2+y,-z
loop_
_atom_site_type_symbol
_atom_site_label
_atom_site_fract_x
_atom_site_fract_y
_atom_site_fract_z
Si Si1 0.799688 0.112319 0.761839
Si Si2 0.582665 0.047728 0.131400
Si Si3 0.255638 0.297201 0.561716
Si Si4 0.345978 0.540320 0.318934
Si Si5 0.494463 0.774283 0.108525
Si Si6 0.671318 0.360753 0.087384
Si Si7 0.940458 0.383076 0.392928
O O1 0.639008 0.078562 0.826736
O O2 0.623657 0.134978 0.686636
O O3 0.961005 0.079908 0.698303
O O4 0.984586 0.140232 0.826213
O O5 0.744444 0.029889 0.217955
O O6 0.738465 0.086601 0.077488
O O7 0.500000 0.000000 0.089615
O O8 0.500000 0.296201 0.500000
O O9 0.250000 0.250000 0.615723
O O10 0.268922 0.344294 0.613727
O O11 0.000000 0.297203 0.500000
O O12 0.500000 0.500000 0.362266
O O13 0.123875 0.565158 0.370148
O O14 0.750000 0.750000 0.143965
O O15 0.090580 0.672161 0.107665
O O16 0.250000 0.750000 0.148456
O O17 0.500000 0.764277 0.000000
O O18 0.500000 0.347334 0.000000
O O19 0.000000 0.384364 0.500000
#
# Coordination Sequence:
#
# PCOD9323641 Si02
#       7
#     8   8   8   8   8   8   8
#     4  10  23  42  67 101 139 190 241 305 379 447
#     4  10  21  41  70  96 140 196 244 302 377 450
#     4   9  19  37  66 101 133 178 234 292 363 447
#     4  10  20  39  67  91 135 188 236 293 370 447
#     4  10  22  42  73 109 142 189 249 302 374 456
#     4  11  25  42  75 109 147 194 256 317 384 465
#     4  10  23  39  69 102 139 182 244 308 375 456
#
# _framework density 24.212816
#
# number of rings (size 3 to 8) (size 9 to 14) (size 15 to 20)
#    0.000    2.000    1.429    1.286    8.000    0.000 
#    0.000    4.286    0.000   10.286    0.000    0.000 
#    0.000    0.000    0.000    0.000    0.000    0.000 
#
# Total GULP energy -156001.444829 kJ/mol
# GULP energy per Si atom -5571.480172 kJ/mol
# Density = 2.415771 g / cm^3
# Si number density = 24.212816 Si / 1000 Ang^3
#
#
#
# Elastic Constant Matrix: (Units=GPa)
#
#
# Indices 1 2 3 4 5 6 
#
# 1 136.7350 47.6373 31.6970 0.0000 0.0000 0.0000
# 2 47.6373 152.2247 45.1987 0.0000 0.0000 0.0000
# 3 31.6970 45.1987 79.3764 0.0000 0.0000 0.0000
# 4 0.0000 0.0000 0.0000 -348.6635 0.0000 0.0000
# 5 0.0000 0.0000 0.0000 0.0000 19.7775 0.0000
# 6 0.0000 0.0000 0.0000 0.0000 0.0000 44.3643
#
#
#
# Elastic Compliance Matrix: (Units=1/GPa)
#
#
# Indices 1 2 3 4 5 6 
#
# 1 0.008536 -0.001997 -0.002272 0.000000 0.000000 0.000000
# 2 -0.001997 0.008373 -0.003970 0.000000 0.000000 0.000000
# 3 -0.002272 -0.003970 0.015766 0.000000 0.000000 0.000000
# 4 0.000000 0.000000 0.000000 -0.002868 0.000000 0.000000
# 5 0.000000 0.000000 0.000000 0.000000 0.050563 0.000000
# 6 0.000000 0.000000 0.000000 0.000000 0.000000 0.022541
#
#
# Mechanical properties :
#
#
# Convention : Reuss Voigt Hill
#
# Bulk Modulus (GPa) = 61.73815 68.60022 65.16919
# Shear Modulus (GPa) = 40.06851 -40.65080 -0.29115
#
# Velocity S-wave (km/s) = 4.07239 -4.10188 -0.34714
# Velocity P-wave (km/s) = 6.90406 2.44128 5.17812
#
# Compressibility (1/GPa) = 0.01619744
#
# Stress axis : x y z
#
# Youngs Moduli (GPa) = 117.15626 119.43176 63.42704
#
# Poissons Ratio (x) = 0.23847 0.14408
# Poissons Ratio (y) = 0.23392 0.25183
# Poissons Ratio (z) = 0.26612 0.47420
#
# Static dielectric constant tensor:
#      x y z
#    x 4.351480 0.000000 0.000000 
#    y 0.000000 1.768070 0.000000 
#    z 0.000000 0.000000 1.794910 
# 
# From -- ./inp_files/29601.got.cif
#   From: 2010.05.17/outbox.cif.g08.bks.cpg/sg21_15_cif.got.tgz:29601.got - 2010.06.03 23:14:55.
