data_PCOD9323122
_publ_section_title
;
Structure prediction by ZEFSAII (Michael W. Deem and Ramdas Pophale) SiO2 
 PCOD9323122
Probable space group: C 2 2 2
;
_chemical_formula_sum "Si O2"
_cell_formula_units_Z 38
_cell_length_a 9.087917
_cell_length_b 22.339309
_cell_length_c 9.635874
_cell_angle_alpha 90.000000
_cell_angle_beta 90.000000
_cell_angle_gamma 90.000000
_cell_volume 1956.253806
_symmetry_space_group_name_H-M "C 2 2 2"
_symmetry_group_IT_number 21
_symmetry_cell_setting 'orthorhombic'
loop_
_space_group_symop_operation_xyz
x,y,z
-x,-y,z
x,-y,-z
-x,y,-z
1/2+x,1/2+y,z
1/2-x,1/2-y,z
1/2+x,1/2-y,-z
1/2-x,1/2+y,-z
loop_
_atom_site_type_symbol
_atom_site_label
_atom_site_fract_x
_atom_site_fract_y
_atom_site_fract_z
Si Si1 0.655099 0.115662 0.547630
Si Si2 0.322843 0.687784 0.016574
Si Si3 0.338590 0.591699 0.799182
Si Si4 0.000000 0.266169 0.500000
Si Si5 0.500000 0.500000 0.000000
Si Si6 0.375438 0.341381 0.679835
O O1 0.500000 0.088936 0.500000
O O2 0.722148 0.081643 0.678049
O O3 0.611237 0.186476 0.573863
O O4 0.774502 0.121538 0.425508
O O5 0.250000 0.750000 0.983155
O O6 0.271773 0.638700 0.907779
O O7 0.500000 0.691212 0.000000
O O8 0.293010 0.670684 0.175772
O O9 0.400988 0.539554 0.896462
O O10 0.477414 0.622671 0.721043
O O11 0.922254 0.221344 0.391920
#
# Coordination Sequence:
#
# PCOD9323122 Si02
#       6
#     8   8   8   4   2   8
#     4  10  23  35  62 101 135 170 207 268 350 411
#     4  10  22  33  56  95 132 165 211 270 341 416
#     4  11  23  41  67  92 127 180 238 274 326 388
#     4  10  20  30  62  93 153 172 198 272 348 426
#     4  12  24  52  70  90 128 188 258 296 292 376
#     4  11  19  37  56  98 135 176 213 259 335 410
#
# _framework density 19.424883000000001
#
# number of rings (size 3 to 8) (size 9 to 14) (size 15 to 20)
#    0.632    0.842    5.263    1.895    5.895    0.000 
#    0.000    2.105    0.000    3.789    0.000    0.000 
#    0.000    0.000    0.000    0.000    0.000    0.000 
#
# Total GULP energy -105963.618673 kJ/mol
# GULP energy per Si atom -5577.032562 kJ/mol
# Density = 1.938067 g / cm^3
# Si number density = 19.424883 Si / 1000 Ang^3
#
#
#
# Elastic Constant Matrix: (Units=GPa)
#
#
# Indices 1 2 3 4 5 6 
#
# 1 50.0208 21.7514 53.0334 0.0000 0.0000 0.0000
# 2 21.7514 42.1977 45.4411 0.0000 0.0000 0.0000
# 3 53.0334 45.4411 148.2297 0.0000 0.0000 0.0000
# 4 0.0000 0.0000 0.0000 20.2433 0.0000 0.0000
# 5 0.0000 0.0000 0.0000 0.0000 26.7195 0.0000
# 6 0.0000 0.0000 0.0000 0.0000 0.0000 18.2962
#
#
#
# Elastic Compliance Matrix: (Units=1/GPa)
#
#
# Indices 1 2 3 4 5 6 
#
# 1 0.033357 -0.006483 -0.009947 0.000000 0.000000 0.000000
# 2 -0.006483 0.036636 -0.008912 0.000000 0.000000 0.000000
# 3 -0.009947 -0.008912 0.013037 0.000000 0.000000 0.000000
# 4 0.000000 0.000000 0.000000 0.049399 0.000000 0.000000
# 5 0.000000 0.000000 0.000000 0.000000 0.037426 0.000000
# 6 0.000000 0.000000 0.000000 0.000000 0.000000 0.054656
#
#
# Mechanical properties :
#
#
# Convention : Reuss Voigt Hill
#
# Bulk Modulus (GPa) = 30.91448 53.43332 42.17390
# Shear Modulus (GPa) = 17.48393 21.06661 19.27527
#
# Velocity S-wave (km/s) = 3.00339 3.29677 3.15349
# Velocity P-wave (km/s) = 5.28929 6.48529 5.91758
#
# Compressibility (1/GPa) = 0.03234730
#
# Stress axis : x y z
#
# Youngs Moduli (GPa) = 29.97894 27.29523 76.70387
#
# Poissons Ratio (x) = 0.17694 0.76298
# Poissons Ratio (y) = 0.19434 0.68358
# Poissons Ratio (z) = 0.29820 0.24325
#
# Static dielectric constant tensor:
#      x y z
#    x 1.645410 0.000000 0.000000 
#    y 0.000000 1.673890 0.000000 
#    z 0.000000 0.000000 1.695410 
# 
# From -- ./inp_files/10990.got.cif
#   From: 2010.05.17/outbox.cif.g08.bks.cpg/sg21_6_cif.got.tgz:10990.got - 2010.06.03 23:14:55.
