data_PCOD9323651
_publ_section_title
;
Structure prediction by ZEFSAII (Michael W. Deem and Ramdas Pophale) SiO2 
 PCOD9323651
Probable space group: C 2 2 2
;
_chemical_formula_sum "Si O2"
_cell_formula_units_Z 48
_cell_length_a 16.262603
_cell_length_b 16.089351
_cell_length_c 7.540497
_cell_angle_alpha 90.000000
_cell_angle_beta 90.000000
_cell_angle_gamma 90.000000
_cell_volume 1973.006690
_symmetry_space_group_name_H-M "C 2 2 2"
_symmetry_group_IT_number 21
_symmetry_cell_setting 'orthorhombic'
loop_
_space_group_symop_operation_xyz
x,y,z
-x,-y,z
x,-y,-z
-x,y,-z
1/2+x,1/2+y,z
1/2-x,1/2-y,z
1/2+x,1/2-y,-z
1/2-x,1/2+y,-z
loop_
_atom_site_type_symbol
_atom_site_label
_atom_site_fract_x
_atom_site_fract_y
_atom_site_fract_z
Si Si1 0.680850 0.940862 0.241183
Si Si2 0.359238 0.824825 0.093213
Si Si3 0.245214 0.388537 0.630020
Si Si4 0.092893 0.900638 0.526414
Si Si5 0.976464 0.370920 0.703305
Si Si6 0.345345 0.725282 0.785333
O O1 0.709869 0.903788 0.432110
O O2 0.871875 0.863552 0.290290
O O3 0.582093 0.949497 0.254417
O O4 0.727437 0.028046 0.254422
O O5 0.307239 0.821904 0.269459
O O6 0.448302 0.855171 0.162431
O O7 0.357806 0.736929 0.994373
O O8 0.316979 0.885238 0.939620
O O9 0.340468 0.368754 0.612949
O O10 0.000000 0.872658 0.500000
O O11 0.095711 0.000000 0.500000
O O12 0.912812 0.292163 0.715017
O O13 0.000000 0.377393 0.500000
O O14 0.250000 0.750000 0.741594
#
# Coordination Sequence:
#
# PCOD9323651 Si02
#       6
#     8   8   8   8   8   8
#     4  10  20  39  69 109 157 198 252 311 380 474
#     4  11  24  44  71 111 155 201 256 322 395 470
#     4  11  22  43  75 106 156 205 253 317 390 471
#     4  11  24  47  81 114 152 208 263 323 396 466
#     4  11  22  43  72 107 157 198 255 318 397 472
#     4  11  25  46  72 107 153 196 261 328 386 468
#
# _framework density 24.328351000000001
#
# number of rings (size 3 to 8) (size 9 to 14) (size 15 to 20)
#    0.000    1.167    3.333    5.000    0.000    0.667 
#    9.000    3.333    0.000    0.000    0.000    0.000 
#    0.000    0.000    0.000    0.000    0.000    0.000 
#
# Total GULP energy -133892.589816 kJ/mol
# GULP energy per Si atom -5578.857909 kJ/mol
# Density = 2.427298 g / cm^3
# Si number density = 24.328351 Si / 1000 Ang^3
#
#
#
# Elastic Constant Matrix: (Units=GPa)
#
#
# Indices 1 2 3 4 5 6 
#
# 1 198.6492 39.5181 58.7099 0.0000 0.0000 0.0000
# 2 39.5181 86.3768 53.1155 0.0000 0.0000 0.0000
# 3 58.7099 53.1155 140.2293 0.0000 0.0000 0.0000
# 4 0.0000 0.0000 0.0000 48.1613 0.0000 0.0000
# 5 0.0000 0.0000 0.0000 0.0000 33.5781 0.0000
# 6 0.0000 0.0000 0.0000 0.0000 0.0000 18.2661
#
#
#
# Elastic Compliance Matrix: (Units=1/GPa)
#
#
# Indices 1 2 3 4 5 6 
#
# 1 0.005898 -0.001538 -0.001887 0.000000 0.000000 0.000000
# 2 -0.001538 0.015494 -0.005225 0.000000 0.000000 0.000000
# 3 -0.001887 -0.005225 0.009900 0.000000 0.000000 0.000000
# 4 0.000000 0.000000 0.000000 0.020764 0.000000 0.000000
# 5 0.000000 0.000000 0.000000 0.000000 0.029781 0.000000
# 6 0.000000 0.000000 0.000000 0.000000 0.000000 0.054746
#
#
# Mechanical properties :
#
#
# Convention : Reuss Voigt Hill
#
# Bulk Modulus (GPa) = 71.46632 80.88247 76.17440
# Shear Modulus (GPa) = 31.53676 38.26189 34.89933
#
# Velocity S-wave (km/s) = 3.60432 3.97007 3.79160
# Velocity P-wave (km/s) = 6.83820 7.37113 7.10966
#
# Compressibility (1/GPa) = 0.01399260
#
# Stress axis : x y z
#
# Youngs Moduli (GPa) = 169.56240 64.54246 101.01017
#
# Poissons Ratio (x) = 0.09927 0.19056
# Poissons Ratio (y) = 0.26080 0.52775
# Poissons Ratio (z) = 0.31988 0.33721
#
# Static dielectric constant tensor:
#      x y z
#    x 1.991660 0.000000 0.000000 
#    y 0.000000 2.170240 0.000000 
#    z 0.000000 0.000000 1.938180 
# 
# From -- ./inp_files/15161.got.cif
#   From: 2010.05.17/outbox.cif.g08.bks.cpg/sg21_8_cif.got.tgz:15161.got - 2010.06.03 23:14:55.
