data_PCOD9323451
_publ_section_title
;
Structure prediction by ZEFSAII (Michael W. Deem and Ramdas Pophale) SiO2 
 PCOD9323451
Probable space group: C 2 2 2
;
_chemical_formula_sum "Si O2"
_cell_formula_units_Z 48
_cell_length_a 15.480943
_cell_length_b 8.558245
_cell_length_c 19.352599
_cell_angle_alpha 90.000000
_cell_angle_beta 90.000000
_cell_angle_gamma 90.000000
_cell_volume 2564.020094
_symmetry_space_group_name_H-M "C 2 2 2"
_symmetry_group_IT_number 21
_symmetry_cell_setting 'orthorhombic'
loop_
_space_group_symop_operation_xyz
x,y,z
-x,-y,z
x,-y,-z
-x,y,-z
1/2+x,1/2+y,z
1/2-x,1/2-y,z
1/2+x,1/2-y,-z
1/2-x,1/2+y,-z
loop_
_atom_site_type_symbol
_atom_site_label
_atom_site_fract_x
_atom_site_fract_y
_atom_site_fract_z
Si Si1 0.346823 0.316681 0.175403
Si Si2 0.082225 0.620007 0.305504
Si Si3 0.843814 0.311399 0.673467
Si Si4 0.651644 0.309237 0.174818
Si Si5 0.005713 0.186467 0.419203
Si Si6 0.498762 0.813541 0.081848
O O1 0.250000 0.250000 0.160930
O O2 0.372165 0.253988 0.251492
O O3 0.345998 0.503717 0.178906
O O4 0.418217 0.258973 0.120826
O O5 0.157688 0.497574 0.320076
O O6 0.106682 0.727854 0.241244
O O7 0.064316 0.725879 0.371978
O O8 0.000000 0.500000 0.294293
O O9 0.750000 0.250000 0.659676
O O10 0.906810 0.251486 0.614343
O O11 0.750000 0.250000 0.167940
O O12 0.589087 0.257460 0.112744
O O13 0.000000 0.224305 0.500000
O O14 0.000000 0.000000 0.410988
O O15 0.500000 0.000000 0.094299
O O16 0.500000 0.785608 0.000000
#
# Coordination Sequence:
#
# PCOD9323451 Si02
#       6
#     8   8   8   8   8   8
#     4  11  23  40  63  88 118 152 195 244 289 341
#     4  10  21  37  61  86 116 153 193 236 288 346
#     4  10  20  37  59  85 115 146 189 242 287 336
#     4  12  23  38  62  90 119 153 194 239 290 347
#     4  10  21  38  57  81 116 156 194 233 284 345
#     4  11  24  42  62  86 119 156 194 238 290 347
#
# _framework density 18.720600999999998
#
# number of rings (size 3 to 8) (size 9 to 14) (size 15 to 20)
#    0.000    1.333    0.000    8.000    0.000    5.000 
#    0.000    4.167    0.000    0.000    0.000    0.000 
#    0.000    0.000    0.000    0.000    0.000    0.000 
#
# Total GULP energy -134074.493341 kJ/mol
# GULP energy per Si atom -5586.437223 kJ/mol
# Density = 1.867799 g / cm^3
# Si number density = 18.720601 Si / 1000 Ang^3
#
#
#
# Elastic Constant Matrix: (Units=GPa)
#
#
# Indices 1 2 3 4 5 6 
#
# 1 96.1583 60.7423 73.0715 0.0000 0.0000 0.0000
# 2 60.7423 165.5974 92.4181 0.0000 0.0000 0.0000
# 3 73.0715 92.4181 152.9795 0.0000 0.0000 0.0000
# 4 0.0000 0.0000 0.0000 26.5606 0.0000 0.0000
# 5 0.0000 0.0000 0.0000 0.0000 1.3857 0.0000
# 6 0.0000 0.0000 0.0000 0.0000 0.0000 40.0901
#
#
#
# Elastic Compliance Matrix: (Units=1/GPa)
#
#
# Indices 1 2 3 4 5 6 
#
# 1 0.017023 -0.002574 -0.006576 0.000000 0.000000 0.000000
# 2 -0.002574 0.009500 -0.004509 0.000000 0.000000 0.000000
# 3 -0.006576 -0.004509 0.012402 0.000000 0.000000 0.000000
# 4 0.000000 0.000000 0.000000 0.037650 0.000000 0.000000
# 5 0.000000 0.000000 0.000000 0.000000 0.721649 0.000000
# 6 0.000000 0.000000 0.000000 0.000000 0.000000 0.024944
#
#
# Mechanical properties :
#
#
# Convention : Reuss Voigt Hill
#
# Bulk Modulus (GPa) = 86.16571 96.35546 91.26058
# Shear Modulus (GPa) = 5.85238 26.17418 16.01328
#
# Velocity S-wave (km/s) = 1.77002 3.74324 2.92787
# Velocity P-wave (km/s) = 7.09256 8.38239 7.76431
#
# Compressibility (1/GPa) = 0.01160555
#
# Stress axis : x y z
#
# Youngs Moduli (GPa) = 58.74534 105.26815 80.63197
#
# Poissons Ratio (x) = 0.27097 0.53023
# Poissons Ratio (y) = 0.15122 0.36360
# Poissons Ratio (z) = 0.38630 0.47469
#
# Static dielectric constant tensor:
#      x y z
#    x 1.678120 0.000000 0.000000 
#    y 0.000000 1.647730 0.000000 
#    z 0.000000 0.000000 1.618900 
# 
# From -- ./inp_files/36632.got.cif
#   From: 2010.05.17/outbox.cif.g08.bks.cpg/sg21_19_cif.got.tgz:36632.got - 2010.06.03 23:14:55.
