data_PCOD9323841
_publ_section_title
;
Structure prediction by ZEFSAII (Michael W. Deem and Ramdas Pophale) SiO2 
 PCOD9323841
Probable space group: C 2 2 2
;
_chemical_formula_sum "Si O2"
_cell_formula_units_Z 64
_cell_length_a 32.340234
_cell_length_b 12.865784
_cell_length_c 7.870845
_cell_angle_alpha 90.000000
_cell_angle_beta 90.000000
_cell_angle_gamma 90.000000
_cell_volume 3274.920590
_symmetry_space_group_name_H-M "C 2 2 2"
_symmetry_group_IT_number 21
_symmetry_cell_setting 'orthorhombic'
loop_
_space_group_symop_operation_xyz
x,y,z
-x,-y,z
x,-y,-z
-x,y,-z
1/2+x,1/2+y,z
1/2-x,1/2-y,z
1/2+x,1/2-y,-z
1/2-x,1/2+y,-z
loop_
_atom_site_type_symbol
_atom_site_label
_atom_site_fract_x
_atom_site_fract_y
_atom_site_fract_z
Si Si1 0.194101 0.329438 0.003194
Si Si2 0.783613 0.109512 0.908512
Si Si3 0.630825 0.895502 0.291507
Si Si4 0.098984 0.836511 0.314878
Si Si5 0.135356 0.956757 0.808002
Si Si6 0.571929 0.712122 0.306023
Si Si7 0.148742 0.628592 0.320148
Si Si8 0.990619 0.115012 0.197609
O O1 0.197780 0.205259 0.984595
O O2 0.235501 0.361775 0.106565
O O3 0.157407 0.362440 0.127983
O O4 0.187166 0.374888 0.813537
O O5 0.819464 0.092591 0.767612
O O6 0.781565 0.000000 0.000000
O O7 0.589223 0.827946 0.283140
O O8 0.653589 0.867829 0.473320
O O9 0.625332 0.019496 0.290953
O O10 0.083413 0.820198 0.504580
O O11 0.123800 0.732184 0.267943
O O12 0.056875 0.854527 0.213262
O O13 0.125271 0.941890 0.301854
O O14 0.099919 0.869409 0.800213
O O15 0.135713 0.000000 0.000000
O O16 0.523754 0.694175 0.275538
O O17 0.000000 0.000000 0.271986
O O18 0.000000 0.110075 0.000000
#
# Coordination Sequence:
#
# PCOD9323841 Si02
#       8
#     8   8   8   8   8   8   8   8
#     4  11  21  40  65  85 120 165 207 251 313 374
#     4  10  21  35  59  91 122 157 202 258 314 363
#     4  10  22  40  63  89 116 161 208 256 300 367
#     4  11  23  37  62  90 123 163 201 253 311 371
#     4  11  20  35  58  85 123 154 198 248 302 365
#     4  11  22  38  60  89 123 161 205 248 310 373
#     4  10  22  40  63  88 118 157 216 251 302 370
#     4  11  23  37  58  90 123 161 200 250 306 373
#
# _framework density 19.542458
#
# number of rings (size 3 to 8) (size 9 to 14) (size 15 to 20)
#    0.000    1.375    2.500    4.125    1.750    0.500 
#    0.000    3.125   16.500    3.750    0.000    0.000 
#    0.000    0.000    0.000    0.000    0.000    0.000 
#
# Total GULP energy -178295.783720 kJ/mol
# GULP energy per Si atom -5571.743241 kJ/mol
# Density = 1.949798 g / cm^3
# Si number density = 19.542458 Si / 1000 Ang^3
#
#
#
# Elastic Constant Matrix: (Units=GPa)
#
#
# Indices 1 2 3 4 5 6 
#
# 1 83.9359 19.7329 16.3049 0.0000 0.0000 0.0000
# 2 19.7329 117.4500 6.5067 0.0000 0.0000 0.0000
# 3 16.3049 6.5067 48.9720 0.0000 0.0000 0.0000
# 4 0.0000 0.0000 0.0000 21.4476 0.0000 0.0000
# 5 0.0000 0.0000 0.0000 0.0000 20.7632 0.0000
# 6 0.0000 0.0000 0.0000 0.0000 0.0000 25.1872
#
#
#
# Elastic Compliance Matrix: (Units=1/GPa)
#
#
# Indices 1 2 3 4 5 6 
#
# 1 0.013182 -0.001986 -0.004125 0.000000 0.000000 0.000000
# 2 -0.001986 0.008877 -0.000518 0.000000 0.000000 0.000000
# 3 -0.004125 -0.000518 0.021862 0.000000 0.000000 0.000000
# 4 0.000000 0.000000 0.000000 0.046625 0.000000 0.000000
# 5 0.000000 0.000000 0.000000 0.000000 0.048162 0.000000
# 6 0.000000 0.000000 0.000000 0.000000 0.000000 0.039703
#
#
# Mechanical properties :
#
#
# Convention : Reuss Voigt Hill
#
# Bulk Modulus (GPa) = 32.61344 37.27187 34.94266
# Shear Modulus (GPa) = 24.76592 27.33382 26.04987
#
# Velocity S-wave (km/s) = 3.56376 3.74396 3.65497
# Velocity P-wave (km/s) = 5.80160 6.14844 5.97754
#
# Compressibility (1/GPa) = 0.03066220
#
# Stress axis : x y z
#
# Youngs Moduli (GPa) = 75.86046 112.65489 45.74134
#
# Poissons Ratio (x) = 0.22376 0.18868
# Poissons Ratio (y) = 0.15068 0.02370
# Poissons Ratio (z) = 0.31292 0.05837
#
# Static dielectric constant tensor:
#      x y z
#    x 1.795760 0.000000 0.000000 
#    y 0.000000 1.698900 0.000000 
#    z 0.000000 0.000000 1.708900 
# 
# From -- ./inp_files/19812.got.cif
#   From: 2010.05.17/outbox.cif.g08.bks.cpg/sg21_10_cif.got.tgz:19812.got - 2010.06.03 23:14:55.
