data_PCOD9323729
_publ_section_title
;
Structure prediction by ZEFSAII (Michael W. Deem and Ramdas Pophale) SiO2 
 PCOD9323729
Probable space group: C 2 2 2
;
_chemical_formula_sum "Si O2"
_cell_formula_units_Z 64
_cell_length_a 13.550965
_cell_length_b 11.645084
_cell_length_c 18.523824
_cell_angle_alpha 90.000000
_cell_angle_beta 90.000000
_cell_angle_gamma 90.000000
_cell_volume 2923.098803
_symmetry_space_group_name_H-M "C 2 2 2"
_symmetry_group_IT_number 21
_symmetry_cell_setting 'orthorhombic'
loop_
_space_group_symop_operation_xyz
x,y,z
-x,-y,z
x,-y,-z
-x,y,-z
1/2+x,1/2+y,z
1/2-x,1/2-y,z
1/2+x,1/2-y,-z
1/2-x,1/2+y,-z
loop_
_atom_site_type_symbol
_atom_site_label
_atom_site_fract_x
_atom_site_fract_y
_atom_site_fract_z
Si Si1 0.110376 0.047631 0.675959
Si Si2 0.614364 0.630231 0.523055
Si Si3 0.798216 0.374340 0.682550
Si Si4 0.738824 0.936578 0.928816
Si Si5 0.833794 0.655046 0.155097
Si Si6 0.110407 0.620153 0.531621
Si Si7 0.652107 0.698397 0.806220
Si Si8 0.035686 0.629650 0.110933
O O1 0.129113 0.132521 0.609035
O O2 0.105044 0.107982 0.753392
O O3 0.203691 0.960563 0.679988
O O4 0.000000 0.000000 0.661136
O O5 0.647437 0.500000 0.500000
O O6 0.500000 0.628614 0.500000
O O7 0.649316 0.752166 0.489951
O O8 0.750000 0.250000 0.672792
O O9 0.852120 0.369740 0.760251
O O10 0.873537 0.392981 0.617147
O O11 0.812406 0.856593 0.883021
O O12 0.629934 0.878236 0.943523
O O13 0.711094 0.038169 0.874901
O O14 0.777133 0.000000 0.000000
O O15 0.750000 0.750000 0.150392
O O16 0.928987 0.690425 0.107065
O O17 0.152060 0.500000 0.500000
O O18 0.000000 0.622321 0.500000
O O19 0.750000 0.750000 0.770764
O O20 0.584033 0.806346 0.822086
O O21 0.000000 0.500000 0.121621
#
# Coordination Sequence:
#
# PCOD9323729 Si02
#       8
#     8   8   8   8   8   8   8   8
#     4  12  25  42  72 102 137 189 239 304 357 443
#     4  10  20  41  68  94 127 179 242 286 357 430
#     4  11  25  42  67  99 141 181 239 306 362 436
#     4  10  21  44  68  99 140 182 234 294 353 436
#     4  10  22  40  64 102 135 184 233 289 364 424
#     4  10  24  45  63  97 137 182 235 302 379 432
#     4  10  23  42  66 104 141 182 239 298 367 428
#     4   9  21  40  66  97 140 184 232 283 350 435
#
# _framework density 21.894572
#
# number of rings (size 3 to 8) (size 9 to 14) (size 15 to 20)
#    0.000    1.750    2.500    0.750    5.250    6.250 
#    6.750    0.000    0.000    2.625    0.000    0.000 
#    0.000    0.000    0.000    0.000    0.000    0.000 
#
# Total GULP energy -178152.564832 kJ/mol
# GULP energy per Si atom -5567.267651 kJ/mol
# Density = 2.184474 g / cm^3
# Si number density = 21.894572 Si / 1000 Ang^3
#
#
#
# Elastic Constant Matrix: (Units=GPa)
#
#
# Indices 1 2 3 4 5 6 
#
# 1 76.6419 -9.7528 -1.4934 0.0000 0.0000 0.0000
# 2 -9.7528 69.3256 5.7530 0.0000 0.0000 0.0000
# 3 -1.4934 5.7530 102.4003 0.0000 0.0000 0.0000
# 4 0.0000 0.0000 0.0000 23.2577 0.0000 0.0000
# 5 0.0000 0.0000 0.0000 0.0000 30.6066 0.0000
# 6 0.0000 0.0000 0.0000 0.0000 0.0000 -10.9455
#
#
#
# Elastic Compliance Matrix: (Units=1/GPa)
#
#
# Indices 1 2 3 4 5 6 
#
# 1 0.013286 0.001862 0.000089 0.000000 0.000000 0.000000
# 2 0.001862 0.014753 -0.000802 0.000000 0.000000 0.000000
# 3 0.000089 -0.000802 0.009812 0.000000 0.000000 0.000000
# 4 0.000000 0.000000 0.000000 0.042996 0.000000 0.000000
# 5 0.000000 0.000000 0.000000 0.000000 0.032673 0.000000
# 6 0.000000 0.000000 0.000000 0.000000 0.000000 -0.091362
#
#
# Mechanical properties :
#
#
# Convention : Reuss Voigt Hill
#
# Bulk Modulus (GPa) = 24.90669 26.37569 25.64119
# Shear Modulus (GPa) = 150.40536 25.50785 87.95660
#
# Velocity S-wave (km/s) = 8.29725 3.41696 6.34508
# Velocity P-wave (km/s) = 10.15839 5.25740 8.08805
#
# Compressibility (1/GPa) = 0.04014985
#
# Stress axis : x y z
#
# Youngs Moduli (GPa) = 75.26527 67.78219 101.91670
#
# Poissons Ratio (x) = -0.12619 -0.00909
# Poissons Ratio (y) = -0.14012 0.08171
# Poissons Ratio (z) = -0.00671 0.05434
#
# Static dielectric constant tensor:
#      x y z
#    x 1.881940 0.000000 0.000000 
#    y 0.000000 1.859710 0.000000 
#    z 0.000000 0.000000 1.829430 
# 
# From -- ./inp_files/36726.got.cif
#   From: 2010.05.17/outbox.cif.g08.bks.cpg/sg21_19_cif.got.tgz:36726.got - 2010.06.03 23:14:55.
