data_PCOD9323363
_publ_section_title
;
Structure prediction by ZEFSAII (Michael W. Deem and Ramdas Pophale) SiO2 
 PCOD9323363
Probable space group: C 2 2 2
;
_chemical_formula_sum "Si O2"
_cell_formula_units_Z 58
_cell_length_a 11.561194
_cell_length_b 29.886999
_cell_length_c 8.764586
_cell_angle_alpha 90.000000
_cell_angle_beta 90.000000
_cell_angle_gamma 90.000000
_cell_volume 3028.422085
_symmetry_space_group_name_H-M "C 2 2 2"
_symmetry_group_IT_number 21
_symmetry_cell_setting 'orthorhombic'
loop_
_space_group_symop_operation_xyz
x,y,z
-x,-y,z
x,-y,-z
-x,y,-z
1/2+x,1/2+y,z
1/2-x,1/2-y,z
1/2+x,1/2-y,-z
1/2-x,1/2+y,-z
loop_
_atom_site_type_symbol
_atom_site_label
_atom_site_fract_x
_atom_site_fract_y
_atom_site_fract_z
Si Si1 0.000000 0.000000 0.500000
Si Si2 0.329699 0.113871 0.827615
Si Si3 0.488844 0.345421 0.180993
Si Si4 0.438895 0.908176 0.658267
Si Si5 0.869298 0.454508 0.934688
Si Si6 0.787207 0.852118 0.401174
Si Si7 0.126490 0.920105 0.354473
Si Si8 0.206634 0.799443 0.295395
O O1 0.922109 0.967841 0.603518
O O2 0.460042 0.111976 0.765614
O O3 0.252977 0.081448 0.720093
O O4 0.276702 0.162853 0.801279
O O5 0.318400 0.090992 0.992739
O O6 0.361638 0.340693 0.252390
O O7 0.544276 0.392142 0.240795
O O8 0.573176 0.307847 0.252740
O O9 0.500000 0.343538 0.000000
O O10 0.500000 0.920947 0.500000
O O11 0.380956 0.948627 0.753916
O O12 0.338850 0.872076 0.629640
O O13 0.813523 0.500000 0.000000
O O14 0.000000 0.455573 0.000000
O O15 0.858922 0.890658 0.492063
O O16 0.778452 0.812985 0.526943
O O17 0.250000 0.750000 0.265116
#
# Coordination Sequence:
#
# PCOD9323363 Si02
#       8
#     2   8   8   8   8   8   8   8
#     4  12  20  36  58  94 120 168 226 288 298 392
#     4   9  20  40  56  87 124 169 195 262 327 381
#     4  10  21  41  65  89 124 172 211 257 328 388
#     4  11  19  36  64  92 122 163 223 254 320 388
#     4   9  20  37  57  84 126 165 202 253 319 381
#     4  10  20  39  64  90 120 173 203 267 320 385
#     4  10  20  36  59  80 125 161 216 257 325 362
#     4  10  21  41  67  89 124 164 216 265 322 385
#
# _framework density 19.151888
#
# number of rings (size 3 to 8) (size 9 to 14) (size 15 to 20)
#    0.000    2.345    4.138    1.241    3.862    1.103 
#    4.966    7.931    0.000    0.000    0.000    0.000 
#    0.000    0.000    0.000    0.000    0.000    0.000 
#
# Total GULP energy -161638.380836 kJ/mol
# GULP energy per Si atom -5573.737270 kJ/mol
# Density = 1.910830 g / cm^3
# Si number density = 19.151888 Si / 1000 Ang^3
#
#
#
# Elastic Constant Matrix: (Units=GPa)
#
#
# Indices 1 2 3 4 5 6 
#
# 1 83.5292 36.8837 36.7239 0.0000 0.0000 0.0000
# 2 36.8837 121.4746 38.7133 0.0000 0.0000 0.0000
# 3 36.7239 38.7133 116.4409 0.0000 0.0000 0.0000
# 4 0.0000 0.0000 0.0000 10.6897 0.0000 0.0000
# 5 0.0000 0.0000 0.0000 0.0000 21.6383 0.0000
# 6 0.0000 0.0000 0.0000 0.0000 0.0000 12.0678
#
#
#
# Elastic Compliance Matrix: (Units=1/GPa)
#
#
# Indices 1 2 3 4 5 6 
#
# 1 0.015074 -0.003425 -0.003615 0.000000 0.000000 0.000000
# 2 -0.003425 0.009986 -0.002240 0.000000 0.000000 0.000000
# 3 -0.003615 -0.002240 0.010473 0.000000 0.000000 0.000000
# 4 0.000000 0.000000 0.000000 0.093548 0.000000 0.000000
# 5 0.000000 0.000000 0.000000 0.000000 0.046214 0.000000
# 6 0.000000 0.000000 0.000000 0.000000 0.000000 0.082865
#
#
# Mechanical properties :
#
#
# Convention : Reuss Voigt Hill
#
# Bulk Modulus (GPa) = 58.91881 60.67629 59.79755
# Shear Modulus (GPa) = 17.70680 22.82074 20.26377
#
# Velocity S-wave (km/s) = 3.04393 3.45565 3.25631
# Velocity P-wave (km/s) = 6.57151 6.90452 6.74008
#
# Compressibility (1/GPa) = 0.01697251
#
# Stress axis : x y z
#
# Youngs Moduli (GPa) = 66.34113 100.14157 95.48349
#
# Poissons Ratio (x) = 0.34295 0.34521
# Poissons Ratio (y) = 0.22719 0.21388
# Poissons Ratio (z) = 0.23985 0.22431
#
# Static dielectric constant tensor:
#      x y z
#    x 1.709460 0.000000 0.000000 
#    y 0.000000 1.661850 0.000000 
#    z 0.000000 0.000000 1.720510 
# 
# From -- ./inp_files/13645.got.cif
#   From: 2010.05.17/outbox.cif.g08.bks.cpg/sg21_7_cif.got.tgz:13645.got - 2010.06.03 23:14:55.
