data_PCOD9323036
_publ_section_title
;
Structure prediction by ZEFSAII (Michael W. Deem and Ramdas Pophale) SiO2 
 PCOD9323036
Probable space group: C 2 2 2
;
_chemical_formula_sum "Si O2"
_cell_formula_units_Z 48
_cell_length_a 26.392901
_cell_length_b 14.164237
_cell_length_c 6.565447
_cell_angle_alpha 90.000000
_cell_angle_beta 90.000000
_cell_angle_gamma 90.000000
_cell_volume 2454.395881
_symmetry_space_group_name_H-M "C 2 2 2"
_symmetry_group_IT_number 21
_symmetry_cell_setting 'orthorhombic'
loop_
_space_group_symop_operation_xyz
x,y,z
-x,-y,z
x,-y,-z
-x,y,-z
1/2+x,1/2+y,z
1/2-x,1/2-y,z
1/2+x,1/2-y,-z
1/2-x,1/2+y,-z
loop_
_atom_site_type_symbol
_atom_site_label
_atom_site_fract_x
_atom_site_fract_y
_atom_site_fract_z
Si Si1 0.250000 0.750000 0.504617
Si Si2 0.000000 0.746503 0.500000
Si Si3 0.372413 0.000000 0.000000
Si Si4 0.093610 0.159581 0.706343
Si Si5 0.575460 0.908142 0.376058
Si Si6 0.176483 0.908663 0.622194
Si Si7 0.876660 0.000000 0.000000
Si Si8 0.655875 0.160309 0.291958
O O1 0.217294 0.825520 0.629912
O O2 0.289905 0.805113 0.364577
O O3 0.961214 0.808298 0.630625
O O4 0.964979 0.675503 0.369403
O O5 0.406806 0.058275 0.156772
O O6 0.341674 0.925298 0.134403
O O7 0.128553 0.126552 0.514543
O O8 0.092326 0.074948 0.866571
O O9 0.123600 0.250901 0.792986
O O10 0.623332 0.872801 0.510765
O O11 0.556552 0.000000 0.500000
O O12 0.197152 0.000000 0.500000
O O13 0.157500 0.942300 0.840447
#
# Coordination Sequence:
#
# PCOD9323036 Si02
#       8
#     4   4   4   8   8   8   4   8
#     4  10  20  40  64  86 118 156 194 242 294 344
#     4  10  19  38  63  86 118 156 194 242 294 344
#     4  10  20  38  64  90 122 156 188 236 292 350
#     4   9  20  39  61  85 118 156 196 243 292 343
#     4   9  19  37  58  86 124 158 190 234 289 352
#     4   9  20  40  62  85 118 154 192 242 294 347
#     4  10  20  42  64  82 114 156 200 248 296 338
#     4   9  20  38  59  88 123 156 192 237 290 349
#
# _framework density 19.556747999999999
#
# number of rings (size 3 to 8) (size 9 to 14) (size 15 to 20)
#    0.000    2.667    0.000    0.250    0.000    6.000 
#    0.000   47.083    0.000    2.000    0.000    0.000 
#    0.000    0.000    0.000    0.000    0.000    0.000 
#
# Total GULP energy -133981.613774 kJ/mol
# GULP energy per Si atom -5582.567241 kJ/mol
# Density = 1.951224 g / cm^3
# Si number density = 19.556748 Si / 1000 Ang^3
#
#
#
# Elastic Constant Matrix: (Units=GPa)
#
#
# Indices 1 2 3 4 5 6 
#
# 1 119.3884 81.9904 47.8816 0.0000 0.0000 0.0000
# 2 81.9904 156.3119 74.1545 0.0000 0.0000 0.0000
# 3 47.8816 74.1545 88.4718 0.0000 0.0000 0.0000
# 4 0.0000 0.0000 0.0000 35.9636 0.0000 0.0000
# 5 0.0000 0.0000 0.0000 0.0000 32.8608 0.0000
# 6 0.0000 0.0000 0.0000 0.0000 0.0000 36.3107
#
#
#
# Elastic Compliance Matrix: (Units=1/GPa)
#
#
# Indices 1 2 3 4 5 6 
#
# 1 0.013357 -0.005938 -0.002252 0.000000 0.000000 0.000000
# 2 -0.005938 0.013260 -0.007901 0.000000 0.000000 0.000000
# 3 -0.002252 -0.007901 0.019144 0.000000 0.000000 0.000000
# 4 0.000000 0.000000 0.000000 0.027806 0.000000 0.000000
# 5 0.000000 0.000000 0.000000 0.000000 0.030431 0.000000
# 6 0.000000 0.000000 0.000000 0.000000 0.000000 0.027540
#
#
# Mechanical properties :
#
#
# Convention : Reuss Voigt Hill
#
# Bulk Modulus (GPa) = 73.63710 85.80280 79.71995
# Shear Modulus (GPa) = 29.71836 31.70338 30.71087
#
# Velocity S-wave (km/s) = 3.90243 4.03065 3.96706
# Velocity P-wave (km/s) = 7.61840 8.10127 7.86354
#
# Compressibility (1/GPa) = 0.01358011
#
# Stress axis : x y z
#
# Youngs Moduli (GPa) = 74.86697 75.41419 52.23579
#
# Poissons Ratio (x) = 0.44779 0.11764
# Poissons Ratio (y) = 0.44455 0.41270
# Poissons Ratio (z) = 0.16860 0.59582
#
# Static dielectric constant tensor:
#      x y z
#    x 1.661550 0.000000 0.000000 
#    y 0.000000 1.696490 0.000000 
#    z 0.000000 0.000000 1.660410 
# 
# From -- ./inp_files/7401.got.cif
#   From: 2010.05.17/outbox.cif.g08.bks.cpg/sg21_4_cif.got.tgz:7401.got - 2010.06.03 23:14:55.
