data_PCOD9323590
_publ_section_title
;
Structure prediction by ZEFSAII (Michael W. Deem and Ramdas Pophale) SiO2 
 PCOD9323590
Probable space group: C 2 2 2
;
_chemical_formula_sum "Si O2"
_cell_formula_units_Z 22
_cell_length_a 18.591913
_cell_length_b 6.949789
_cell_length_c 7.574379
_cell_angle_alpha 90.000000
_cell_angle_beta 90.000000
_cell_angle_gamma 90.000000
_cell_volume 978.684545
_symmetry_space_group_name_H-M "C 2 2 2"
_symmetry_group_IT_number 21
_symmetry_cell_setting 'orthorhombic'
loop_
_space_group_symop_operation_xyz
x,y,z
-x,-y,z
x,-y,-z
-x,y,-z
1/2+x,1/2+y,z
1/2-x,1/2-y,z
1/2+x,1/2-y,-z
1/2-x,1/2+y,-z
loop_
_atom_site_type_symbol
_atom_site_label
_atom_site_fract_x
_atom_site_fract_y
_atom_site_fract_z
Si Si1 0.000000 0.000000 0.500000
Si Si2 0.236546 0.500000 0.500000
Si Si3 0.750000 0.250000 0.189557
Si Si4 0.405034 0.837244 0.637481
Si Si5 0.132994 0.500000 0.000000
O O1 0.947869 0.858311 0.390661
O O2 0.273840 0.582697 0.325850
O O3 0.179744 0.659440 0.581545
O O4 0.814665 0.333673 0.076077
O O5 0.430144 0.000000 0.500000
O O6 0.410102 0.915887 0.835382
#
# Coordination Sequence:
#
# PCOD9323590 Si02
#       5
#     2   4   4   8   4
#     4  12  22  42  82  86 116 192 226 264 354 360
#     4   8  20  38  62  96 136 162 210 264 312 390
#     4  10  20  38  70  94 134 182 196 264 332 390
#     4   9  22  44  64  98 135 166 219 287 314 389
#     4  10  22  44  63 100 140 161 220 268 320 396
#
# _framework density 22.479154000000001
#
# number of rings (size 3 to 8) (size 9 to 14) (size 15 to 20)
#    1.091    1.455    0.000    0.545    0.000   10.182 
#    0.000    5.455    0.000    0.000    0.000    0.000 
#    0.000    0.000    0.000    0.000    0.000    0.000 
#
# Total GULP energy -61316.035114 kJ/mol
# GULP energy per Si atom -5574.185010 kJ/mol
# Density = 2.242799 g / cm^3
# Si number density = 22.479154 Si / 1000 Ang^3
#
#
#
# Elastic Constant Matrix: (Units=GPa)
#
#
# Indices 1 2 3 4 5 6 
#
# 1 82.7180 63.0116 55.4713 0.0000 0.0000 0.0000
# 2 63.0116 151.2114 93.1464 0.0000 0.0000 0.0000
# 3 55.4713 93.1464 215.9696 0.0000 0.0000 0.0000
# 4 0.0000 0.0000 0.0000 55.5819 0.0000 0.0000
# 5 0.0000 0.0000 0.0000 0.0000 -2.0048 0.0000
# 6 0.0000 0.0000 0.0000 0.0000 0.0000 -3.7286
#
#
#
# Elastic Compliance Matrix: (Units=1/GPa)
#
#
# Indices 1 2 3 4 5 6 
#
# 1 0.018278 -0.006434 -0.001920 0.000000 0.000000 0.000000
# 2 -0.006434 0.011271 -0.003208 0.000000 0.000000 0.000000
# 3 -0.001920 -0.003208 0.006507 0.000000 0.000000 0.000000
# 4 0.000000 0.000000 0.000000 0.017991 0.000000 0.000000
# 5 0.000000 0.000000 0.000000 0.000000 -0.498811 0.000000
# 6 0.000000 0.000000 0.000000 0.000000 0.000000 -0.268194
#
#
# Mechanical properties :
#
#
# Convention : Reuss Voigt Hill
#
# Bulk Modulus (GPa) = 77.33102 97.01752 87.17427
# Shear Modulus (GPa) = -7.29370 25.85434 9.28032
#
# Velocity S-wave (km/s) = -1.80325 3.39506 2.03405
# Velocity P-wave (km/s) = 5.49002 7.65645 6.66189
#
# Compressibility (1/GPa) = 0.01293142
#
# Stress axis : x y z
#
# Youngs Moduli (GPa) = 54.71100 88.72446 153.67764
#
# Poissons Ratio (x) = 0.57086 0.29500
# Poissons Ratio (y) = 0.35202 0.49307
# Poissons Ratio (z) = 0.10502 0.28467
#
# Static dielectric constant tensor:
#      x y z
#    x 1.898190 0.000000 0.000000 
#    y 0.000000 2.018880 0.000000 
#    z 0.000000 0.000000 1.800420 
# 
# From -- ./inp_files/17987.got.cif
#   From: 2010.05.17/outbox.cif.g08.bks.cpg/sg21_9_cif.got.tgz:17987.got - 2010.06.03 23:14:55.
