data_PCOD9323766
_publ_section_title
;
Structure prediction by ZEFSAII (Michael W. Deem and Ramdas Pophale) SiO2 
 PCOD9323766
Probable space group: C 2 2 2
;
_chemical_formula_sum "Si O2"
_cell_formula_units_Z 32
_cell_length_a 5.147698
_cell_length_b 14.037104
_cell_length_c 18.041057
_cell_angle_alpha 90.000000
_cell_angle_beta 90.000000
_cell_angle_gamma 90.000000
_cell_volume 1303.624628
_symmetry_space_group_name_H-M "C 2 2 2"
_symmetry_group_IT_number 21
_symmetry_cell_setting 'orthorhombic'
loop_
_space_group_symop_operation_xyz
x,y,z
-x,-y,z
x,-y,-z
-x,y,-z
1/2+x,1/2+y,z
1/2-x,1/2-y,z
1/2+x,1/2-y,-z
1/2-x,1/2+y,-z
loop_
_atom_site_type_symbol
_atom_site_label
_atom_site_fract_x
_atom_site_fract_y
_atom_site_fract_z
Si Si1 0.000000 0.306910 0.000000
Si Si2 0.858288 0.144404 0.723125
Si Si3 0.886713 0.890813 0.574025
Si Si4 0.259841 0.440465 0.122929
Si Si5 0.500000 0.000000 0.364041
O O1 0.750000 0.250000 0.031925
O O2 0.137485 0.368434 0.063834
O O3 0.750000 0.250000 0.729502
O O4 0.900571 0.110368 0.806964
O O5 0.059114 0.152662 0.654643
O O6 0.684468 0.058141 0.690971
O O7 0.586509 0.915431 0.580555
O O8 0.000000 0.844292 0.500000
O O9 0.000000 0.000000 0.574823
O O10 0.500000 0.500000 0.089303
O O11 0.000000 0.500000 0.145968
#
# Coordination Sequence:
#
# PCOD9323766 Si02
#       5
#     4   8   8   8   4
#     4  12  27  50  77 120 158 198 256 319 388 459
#     4  11  24  42  66 105 140 189 247 309 373 447
#     4   9  20  39  65  97 132 182 239 296 378 444
#     4  12  26  49  79 110 153 206 255 310 382 467
#     4  10  20  43  66  93 134 184 238 301 380 444
#
# _framework density 24.546945000000001
#
# number of rings (size 3 to 8) (size 9 to 14) (size 15 to 20)
#    0.000    1.250    1.250    4.875    0.000   10.000 
#    4.500    0.000    0.000    0.000    0.000    0.000 
#    0.000    0.000    0.000    0.000    0.000    0.000 
#
# Total GULP energy -89085.378996 kJ/mol
# GULP energy per Si atom -5567.836187 kJ/mol
# Density = 2.449108 g / cm^3
# Si number density = 24.546945 Si / 1000 Ang^3
#
#
#
# Elastic Constant Matrix: (Units=GPa)
#
#
# Indices 1 2 3 4 5 6 
#
# 1 102.1477 33.4188 47.8634 0.0000 0.0000 0.0000
# 2 33.4188 79.8442 44.9707 0.0000 0.0000 0.0000
# 3 47.8634 44.9707 194.4267 0.0000 0.0000 0.0000
# 4 0.0000 0.0000 0.0000 -17.7968 0.0000 0.0000
# 5 0.0000 0.0000 0.0000 0.0000 15.5290 0.0000
# 6 0.0000 0.0000 0.0000 0.0000 0.0000 36.8492
#
#
#
# Elastic Compliance Matrix: (Units=1/GPa)
#
#
# Indices 1 2 3 4 5 6 
#
# 1 0.012023 -0.003869 -0.002065 0.000000 0.000000 0.000000
# 2 -0.003869 0.015646 -0.002666 0.000000 0.000000 0.000000
# 3 -0.002065 -0.002666 0.006268 0.000000 0.000000 0.000000
# 4 0.000000 0.000000 0.000000 -0.056190 0.000000 0.000000
# 5 0.000000 0.000000 0.000000 0.000000 0.064396 0.000000
# 6 0.000000 0.000000 0.000000 0.000000 0.000000 0.027138
#
#
# Mechanical properties :
#
#
# Convention : Reuss Voigt Hill
#
# Bulk Modulus (GPa) = 59.75055 69.88048 64.81552
# Shear Modulus (GPa) = 54.31222 23.59398 38.95310
#
# Velocity S-wave (km/s) = 4.70892 3.10365 3.98789
# Velocity P-wave (km/s) = 7.34570 6.43222 6.90409
#
# Compressibility (1/GPa) = 0.01673625
#
# Stress axis : x y z
#
# Youngs Moduli (GPa) = 83.17274 63.91560 159.53147
#
# Poissons Ratio (x) = 0.24731 0.32941
# Poissons Ratio (y) = 0.32182 0.42536
# Poissons Ratio (z) = 0.17174 0.17042
#
# Static dielectric constant tensor:
#      x y z
#    x 2.443300 0.000000 0.000000 
#    y 0.000000 2.077050 0.000000 
#    z 0.000000 0.000000 2.055680 
# 
# From -- ./inp_files/34502.got.cif
#   From: 2010.05.17/outbox.cif.g08.bks.cpg/sg21_18_cif.got.tgz:34502.got - 2010.06.03 23:14:55.
