data_PCOD9323718
_publ_section_title
;
Structure prediction by ZEFSAII (Michael W. Deem and Ramdas Pophale) SiO2 
 PCOD9323718
Probable space group: C 2 2 2
;
_chemical_formula_sum "Si O2"
_cell_formula_units_Z 44
_cell_length_a 6.456648
_cell_length_b 25.415531
_cell_length_c 14.336967
_cell_angle_alpha 90.000000
_cell_angle_beta 90.000000
_cell_angle_gamma 90.000000
_cell_volume 2352.683918
_symmetry_space_group_name_H-M "C 2 2 2"
_symmetry_group_IT_number 21
_symmetry_cell_setting 'orthorhombic'
loop_
_space_group_symop_operation_xyz
x,y,z
-x,-y,z
x,-y,-z
-x,y,-z
1/2+x,1/2+y,z
1/2-x,1/2-y,z
1/2+x,1/2-y,-z
1/2-x,1/2+y,-z
loop_
_atom_site_type_symbol
_atom_site_label
_atom_site_fract_x
_atom_site_fract_y
_atom_site_fract_z
Si Si1 0.355230 0.122574 0.754363
Si Si2 0.767170 0.311049 0.742913
Si Si3 0.003575 0.115288 0.608893
Si Si4 0.528776 0.625120 0.108012
Si Si5 0.832697 0.463626 0.824122
Si Si6 0.500000 0.500000 0.314182
O O1 0.493645 0.174600 0.758023
O O2 0.527092 0.077115 0.765228
O O3 0.224005 0.123616 0.659619
O O4 0.187693 0.117653 0.837362
O O5 0.750000 0.250000 0.720886
O O6 0.661445 0.348435 0.664137
O O7 0.646411 0.328561 0.836642
O O8 0.000000 0.126688 0.500000
O O9 0.969880 0.053010 0.627376
O O10 0.671000 0.572678 0.120171
O O11 0.500000 0.636056 0.000000
O O12 0.697069 0.499621 0.754859
O O13 0.000000 0.500000 0.876521
#
# Coordination Sequence:
#
# PCOD9323718 Si02
#       6
#     8   8   8   8   8   4
#     4  10  20  41  65  82 131 164 199 268 316 370
#     4  10  23  45  65  92 127 170 210 262 336 385
#     4  11  23  39  64  97 127 161 221 265 313 389
#     4  10  22  41  63  95 127 161 220 267 312 391
#     4  11  19  36  64  85 125 177 206 252 324 380
#     4  12  19  40  61  90 130 170 213 262 317 390
#
# _framework density 18.702044999999998
#
# number of rings (size 3 to 8) (size 9 to 14) (size 15 to 20)
#    0.000    1.455    7.273    0.273    0.000    6.545 
#    6.545    6.818    0.000    0.000    0.000    0.000 
#    0.000    0.000    0.000    0.000    0.000    0.000 
#
# Total GULP energy -122652.734590 kJ/mol
# GULP energy per Si atom -5575.124300 kJ/mol
# Density = 1.865948 g / cm^3
# Si number density = 18.702045 Si / 1000 Ang^3
#
#
#
# Elastic Constant Matrix: (Units=GPa)
#
#
# Indices 1 2 3 4 5 6 
#
# 1 122.7168 43.2219 54.0062 0.0000 0.0000 0.0000
# 2 43.2219 120.7489 37.4157 0.0000 0.0000 0.0000
# 3 54.0062 37.4157 158.8984 0.0000 0.0000 0.0000
# 4 0.0000 0.0000 0.0000 13.5020 0.0000 0.0000
# 5 0.0000 0.0000 0.0000 0.0000 6.0108 0.0000
# 6 0.0000 0.0000 0.0000 0.0000 0.0000 25.1353
#
#
#
# Elastic Compliance Matrix: (Units=1/GPa)
#
#
# Indices 1 2 3 4 5 6 
#
# 1 0.010411 -0.002837 -0.002871 0.000000 0.000000 0.000000
# 2 -0.002837 0.009707 -0.001321 0.000000 0.000000 0.000000
# 3 -0.002871 -0.001321 0.007580 0.000000 0.000000 0.000000
# 4 0.000000 0.000000 0.000000 0.074063 0.000000 0.000000
# 5 0.000000 0.000000 0.000000 0.000000 0.166367 0.000000
# 6 0.000000 0.000000 0.000000 0.000000 0.000000 0.039785
#
#
# Mechanical properties :
#
#
# Convention : Reuss Voigt Hill
#
# Bulk Modulus (GPa) = 73.31388 74.62796 73.97092
# Shear Modulus (GPa) = 15.31311 26.77765 21.04538
#
# Velocity S-wave (km/s) = 2.86456 3.78802 3.35819
# Velocity P-wave (km/s) = 7.08710 7.68911 7.39424
#
# Compressibility (1/GPa) = 0.01363998
#
# Stress axis : x y z
#
# Youngs Moduli (GPa) = 96.04809 103.02200 131.92461
#
# Poissons Ratio (x) = 0.29230 0.37869
# Poissons Ratio (y) = 0.27252 0.17431
# Poissons Ratio (z) = 0.27571 0.13612
#
# Static dielectric constant tensor:
#      x y z
#    x 1.652270 0.000000 0.000000 
#    y 0.000000 1.716330 0.000000 
#    z 0.000000 0.000000 1.613940 
# 
# From -- ./inp_files/29315.got.cif
#   From: 2010.05.17/outbox.cif.g08.bks.cpg/sg21_15_cif.got.tgz:29315.got - 2010.06.03 23:14:55.
