data_PCOD9323126
_publ_section_title
;
Structure prediction by ZEFSAII (Michael W. Deem and Ramdas Pophale) SiO2 
 PCOD9323126
Probable space group: C 2 2 2
;
_chemical_formula_sum "Si O2"
_cell_formula_units_Z 52
_cell_length_a 22.483471
_cell_length_b 14.634728
_cell_length_c 8.310422
_cell_angle_alpha 90.000000
_cell_angle_beta 90.000000
_cell_angle_gamma 90.000000
_cell_volume 2734.456955
_symmetry_space_group_name_H-M "C 2 2 2"
_symmetry_group_IT_number 21
_symmetry_cell_setting 'orthorhombic'
loop_
_space_group_symop_operation_xyz
x,y,z
-x,-y,z
x,-y,-z
-x,y,-z
1/2+x,1/2+y,z
1/2-x,1/2-y,z
1/2+x,1/2-y,-z
1/2-x,1/2+y,-z
loop_
_atom_site_type_symbol
_atom_site_label
_atom_site_fract_x
_atom_site_fract_y
_atom_site_fract_z
Si Si1 0.748013 0.901866 0.078652
Si Si2 0.150602 0.248742 0.472269
Si Si3 0.881055 0.312789 0.856926
Si Si4 0.744298 0.602312 0.440855
Si Si5 0.070875 0.492622 0.311233
Si Si6 0.250000 0.750000 0.140120
Si Si7 0.622813 0.181832 0.211916
O O1 0.683844 0.855112 0.103245
O O2 0.773840 0.907204 0.255048
O O3 0.780653 0.829405 0.965722
O O4 0.742964 0.000000 0.000000
O O5 0.123425 0.242181 0.292034
O O6 0.196985 0.334250 0.451227
O O7 0.190821 0.160906 0.517675
O O8 0.105377 0.271617 0.617495
O O9 0.914638 0.398281 0.777022
O O10 0.901389 0.285087 0.037681
O O11 0.754872 0.500000 0.500000
O O12 0.088366 0.500000 0.500000
O O13 0.104683 0.575993 0.224611
O O14 0.000000 0.500000 0.304118
O O15 0.305379 0.801512 0.220504
#
# Coordination Sequence:
#
# PCOD9323126 Si02
#       7
#     8   8   8   8   8   4   8
#     4  10  20  31  49  74 105 145 196 235 280 344
#     4  10  21  35  47  73 104 141 192 233 279 346
#     4  10  20  34  54  73 105 146 187 234 287 334
#     4  10  21  31  47  69 104 147 185 231 284 342
#     4  11  23  39  58  85 118 156 200 248 297 350
#     4  10  20  34  52  76 108 150 200 228 292 350
#     4  11  21  34  57  74 108 151 188 239 282 348
#
# _framework density 19.016573000000001
#
# number of rings (size 3 to 8) (size 9 to 14) (size 15 to 20)
#    0.000    1.692    1.538    6.000   10.769    1.231 
#    0.000    0.000    0.000    0.000    0.000    0.000 
#    0.000    2.462    5.231    0.308    0.000    0.615 
#
# Total GULP energy -144819.216366 kJ/mol
# GULP energy per Si atom -5569.969860 kJ/mol
# Density = 1.897329 g / cm^3
# Si number density = 19.016573 Si / 1000 Ang^3
#
#
#
# Elastic Constant Matrix: (Units=GPa)
#
#
# Indices 1 2 3 4 5 6 
#
# 1 31.8238 11.2976 4.9801 0.0000 0.0000 0.0000
# 2 11.2976 66.8903 7.0696 0.0000 0.0000 0.0000
# 3 4.9801 7.0696 136.6168 0.0000 0.0000 0.0000
# 4 0.0000 0.0000 0.0000 27.4699 0.0000 0.0000
# 5 0.0000 0.0000 0.0000 0.0000 6.8386 0.0000
# 6 0.0000 0.0000 0.0000 0.0000 0.0000 7.2678
#
#
#
# Elastic Compliance Matrix: (Units=1/GPa)
#
#
# Indices 1 2 3 4 5 6 
#
# 1 0.033546 -0.005567 -0.000935 0.000000 0.000000 0.000000
# 2 -0.005567 0.015956 -0.000623 0.000000 0.000000 0.000000
# 3 -0.000935 -0.000623 0.007386 0.000000 0.000000 0.000000
# 4 0.000000 0.000000 0.000000 0.036403 0.000000 0.000000
# 5 0.000000 0.000000 0.000000 0.000000 0.146228 0.000000
# 6 0.000000 0.000000 0.000000 0.000000 0.000000 0.137594
#
#
# Mechanical properties :
#
#
# Convention : Reuss Voigt Hill
#
# Bulk Modulus (GPa) = 23.45291 31.33615 27.39453
# Shear Modulus (GPa) = 12.32819 22.44752 17.38785
#
# Velocity S-wave (km/s) = 2.54891 3.43945 3.02711
# Velocity P-wave (km/s) = 4.58500 5.68218 5.16282
#
# Compressibility (1/GPa) = 0.04263863
#
# Stress axis : x y z
#
# Youngs Moduli (GPa) = 29.81014 62.67271 135.39051
#
# Poissons Ratio (x) = 0.34890 0.12656
# Poissons Ratio (y) = 0.16595 0.08431
# Poissons Ratio (z) = 0.02787 0.03903
#
# Static dielectric constant tensor:
#      x y z
#    x 1.673570 0.000000 0.000000 
#    y 0.000000 1.681170 0.000000 
#    z 0.000000 0.000000 1.861740 
# 
# From -- ./inp_files/17634.got.cif
#   From: 2010.05.17/outbox.cif.g08.bks.cpg/sg21_9_cif.got.tgz:17634.got - 2010.06.03 23:14:55.
