data_PCOD9323099
_publ_section_title
;
Structure prediction by ZEFSAII (Michael W. Deem and Ramdas Pophale) SiO2 
 PCOD9323099
Probable space group: C 2 2 2
;
_chemical_formula_sum "Si O2"
_cell_formula_units_Z 48
_cell_length_a 17.748159
_cell_length_b 14.502941
_cell_length_c 7.741909
_cell_angle_alpha 90.000000
_cell_angle_beta 90.000000
_cell_angle_gamma 90.000000
_cell_volume 1992.771270
_symmetry_space_group_name_H-M "C 2 2 2"
_symmetry_group_IT_number 21
_symmetry_cell_setting 'orthorhombic'
loop_
_space_group_symop_operation_xyz
x,y,z
-x,-y,z
x,-y,-z
-x,y,-z
1/2+x,1/2+y,z
1/2-x,1/2-y,z
1/2+x,1/2-y,-z
1/2-x,1/2+y,-z
loop_
_atom_site_type_symbol
_atom_site_label
_atom_site_fract_x
_atom_site_fract_y
_atom_site_fract_z
Si Si1 0.914335 0.683866 0.834668
Si Si2 0.430520 0.630746 0.365143
Si Si3 0.312609 0.028336 0.796238
Si Si4 0.572621 0.128510 0.761417
Si Si5 0.148474 0.971665 0.802266
Si Si6 0.666344 0.711435 0.363647
O O1 0.931969 0.788712 0.780120
O O2 0.837248 0.634412 0.774245
O O3 0.983127 0.625230 0.752258
O O4 0.914697 0.665025 0.040602
O O5 0.500000 0.636896 0.500000
O O6 0.416553 0.529085 0.291687
O O7 0.353646 0.654975 0.466709
O O8 0.378859 0.962296 0.729030
O O9 0.230520 0.001607 0.730317
O O10 0.310115 0.000000 0.000000
O O11 0.607792 0.205408 0.639871
O O12 0.146457 0.861883 0.785171
O O13 0.144542 0.000000 0.000000
O O14 0.750000 0.750000 0.346969
#
# Coordination Sequence:
#
# PCOD9323099 Si02
#       6
#     8   8   8   8   8   8
#     4  10  21  39  69 100 136 177 225 273 337 408
#     4  12  27  48  66  96 141 184 226 284 347 418
#     4   9  19  37  67 104 137 167 221 287 334 397
#     4  10  19  41  69 102 133 175 225 279 335 401
#     4  11  25  46  72 101 130 179 239 287 338 402
#     4  12  25  44  68  96 140 179 218 283 351 414
#
# _framework density 24.087059
#
# number of rings (size 3 to 8) (size 9 to 14) (size 15 to 20)
#    0.000    1.333    3.333    2.000    2.333    3.333 
#    0.000    1.667    0.000    0.000    0.000    0.000 
#    0.000    0.000    0.000    0.000    0.000    0.000 
#
# Total GULP energy -134163.494341 kJ/mol
# GULP energy per Si atom -5590.145598 kJ/mol
# Density = 2.403224 g / cm^3
# Si number density = 24.087059 Si / 1000 Ang^3
#
#
#
# Elastic Constant Matrix: (Units=GPa)
#
#
# Indices 1 2 3 4 5 6 
#
# 1 80.4627 55.3092 17.5801 0.0000 0.0000 0.0000
# 2 55.3092 106.5038 16.4716 0.0000 0.0000 0.0000
# 3 17.5801 16.4716 42.0493 0.0000 0.0000 0.0000
# 4 0.0000 0.0000 0.0000 24.0612 0.0000 0.0000
# 5 0.0000 0.0000 0.0000 0.0000 24.5979 0.0000
# 6 0.0000 0.0000 0.0000 0.0000 0.0000 36.2541
#
#
#
# Elastic Compliance Matrix: (Units=1/GPa)
#
#
# Indices 1 2 3 4 5 6 
#
# 1 0.020130 -0.009742 -0.004600 0.000000 0.000000 0.000000
# 2 -0.009742 0.014710 -0.001689 0.000000 0.000000 0.000000
# 3 -0.004600 -0.001689 0.026366 0.000000 0.000000 0.000000
# 4 0.000000 0.000000 0.000000 0.041561 0.000000 0.000000
# 5 0.000000 0.000000 0.000000 0.000000 0.040654 0.000000
# 6 0.000000 0.000000 0.000000 0.000000 0.000000 0.027583
#
#
# Mechanical properties :
#
#
# Convention : Reuss Voigt Hill
#
# Bulk Modulus (GPa) = 34.31254 45.30416 39.80835
# Shear Modulus (GPa) = 23.49837 26.29297 24.89567
#
# Velocity S-wave (km/s) = 3.12678 3.30749 3.21841
# Velocity P-wave (km/s) = 5.22607 5.78233 5.51122
#
# Compressibility (1/GPa) = 0.02914387
#
# Stress axis : x y z
#
# Youngs Moduli (GPa) = 49.67727 67.98112 37.92725
#
# Poissons Ratio (x) = 0.66230 0.17445
# Poissons Ratio (y) = 0.48398 0.06406
# Poissons Ratio (z) = 0.22850 0.11482
#
# Static dielectric constant tensor:
#      x y z
#    x 1.899760 0.000000 0.000000 
#    y 0.000000 1.944100 0.000000 
#    z 0.000000 0.000000 1.971540 
# 
# From -- ./inp_files/16429.got.cif
#   From: 2010.05.17/outbox.cif.g08.bks.cpg/sg21_9_cif.got.tgz:16429.got - 2010.06.03 23:14:55.
