data_PCOD9323794
_publ_section_title
;
Structure prediction by ZEFSAII (Michael W. Deem and Ramdas Pophale) SiO2 
 PCOD9323794
Probable space group: C 2 2 2
;
_chemical_formula_sum "Si O2"
_cell_formula_units_Z 44
_cell_length_a 17.627216
_cell_length_b 27.077682
_cell_length_c 5.220616
_cell_angle_alpha 90.000000
_cell_angle_beta 90.000000
_cell_angle_gamma 90.000000
_cell_volume 2491.821679
_symmetry_space_group_name_H-M "C 2 2 2"
_symmetry_group_IT_number 21
_symmetry_cell_setting 'orthorhombic'
loop_
_space_group_symop_operation_xyz
x,y,z
-x,-y,z
x,-y,-z
-x,y,-z
1/2+x,1/2+y,z
1/2-x,1/2-y,z
1/2+x,1/2-y,-z
1/2-x,1/2+y,-z
loop_
_atom_site_type_symbol
_atom_site_label
_atom_site_fract_x
_atom_site_fract_y
_atom_site_fract_z
Si Si1 0.706232 0.119985 0.987407
Si Si2 0.061015 0.325805 0.174042
Si Si3 0.170191 0.443138 0.519653
Si Si4 0.183124 0.209124 0.996468
Si Si5 0.000000 0.587981 0.500000
Si Si6 0.087776 0.234488 0.490622
O O1 0.634350 0.157238 0.979900
O O2 0.697728 0.088625 0.725341
O O3 0.699617 0.083455 0.225855
O O4 0.778388 0.155374 0.012573
O O5 0.018423 0.374652 0.269582
O O6 0.085531 0.292901 0.415816
O O7 0.000000 0.297128 0.000000
O O8 0.193728 0.500000 0.500000
O O9 0.077953 0.441136 0.536289
O O10 0.250000 0.250000 0.017639
O O11 0.133559 0.222043 0.746535
O O12 0.131604 0.212033 0.248422
O O13 0.000000 0.218547 0.500000
#
# Coordination Sequence:
#
# PCOD9323794 Si02
#       6
#     8   8   8   8   4   8
#     4  11  24  39  60  83 120 160 205 258 306 351
#     4  11  20  35  53  85 118 166 213 247 286 348
#     4  11  23  40  59  85 118 162 212 257 304 352
#     4  12  25  40  59  89 124 160 209 255 307 364
#     4  10  21  32  54  80 122 160 212 254 287 330
#     4  12  25  38  60  85 124 163 212 243 297 363
#
# _framework density 17.657765000000001
#
# number of rings (size 3 to 8) (size 9 to 14) (size 15 to 20)
#    0.000    0.727    4.545    4.091    5.091    0.000 
#    0.000    1.818    0.000    0.000    0.000    0.000 
#    0.000   50.909    0.000    0.000    0.000    0.000 
#
# Total GULP energy -122949.011028 kJ/mol
# GULP energy per Si atom -5588.591410 kJ/mol
# Density = 1.761758 g / cm^3
# Si number density = 17.657765 Si / 1000 Ang^3
#
#
#
# Elastic Constant Matrix: (Units=GPa)
#
#
# Indices 1 2 3 4 5 6 
#
# 1 113.5216 52.7111 67.6341 0.0000 0.0000 0.0000
# 2 52.7111 100.1186 46.6682 0.0000 0.0000 0.0000
# 3 67.6341 46.6682 143.4170 0.0000 0.0000 0.0000
# 4 0.0000 0.0000 0.0000 22.9477 0.0000 0.0000
# 5 0.0000 0.0000 0.0000 0.0000 35.7888 0.0000
# 6 0.0000 0.0000 0.0000 0.0000 0.0000 25.0372
#
#
#
# Elastic Compliance Matrix: (Units=1/GPa)
#
#
# Indices 1 2 3 4 5 6 
#
# 1 0.014179 -0.005126 -0.005019 0.000000 0.000000 0.000000
# 2 -0.005126 0.013627 -0.002017 0.000000 0.000000 0.000000
# 3 -0.005019 -0.002017 0.009996 0.000000 0.000000 0.000000
# 4 0.000000 0.000000 0.000000 0.043577 0.000000 0.000000
# 5 0.000000 0.000000 0.000000 0.000000 0.027942 0.000000
# 6 0.000000 0.000000 0.000000 0.000000 0.000000 0.039941
#
#
# Mechanical properties :
#
#
# Convention : Reuss Voigt Hill
#
# Bulk Modulus (GPa) = 74.19036 76.78710 75.48873
# Shear Modulus (GPa) = 28.07771 29.42431 28.75101
#
# Velocity S-wave (km/s) = 3.99194 4.08654 4.03952
# Velocity P-wave (km/s) = 7.95954 8.11463 8.03746
#
# Compressibility (1/GPa) = 0.01347884
#
# Stress axis : x y z
#
# Youngs Moduli (GPa) = 70.52703 73.38408 100.04170
#
# Poissons Ratio (x) = 0.37614 0.50209
# Poissons Ratio (y) = 0.36150 0.20179
# Poissons Ratio (z) = 0.35396 0.14802
#
# Static dielectric constant tensor:
#      x y z
#    x 1.619730 0.000000 0.000000 
#    y 0.000000 1.600170 0.000000 
#    z 0.000000 0.000000 1.637740 
# 
# From -- ./inp_files/4023.got.cif
#   From: 2010.05.17/outbox.cif.g08.bks.cpg/sg21_3_cif.got.tgz:4023.got - 2010.06.03 23:14:55.
