data_PCOD9323826
_publ_section_title
;
Structure prediction by ZEFSAII (Michael W. Deem and Ramdas Pophale) SiO2 
 PCOD9323826
Probable space group: C 2 2 2
;
_chemical_formula_sum "Si O2"
_cell_formula_units_Z 64
_cell_length_a 26.444576
_cell_length_b 15.095002
_cell_length_c 8.790513
_cell_angle_alpha 90.000000
_cell_angle_beta 90.000000
_cell_angle_gamma 90.000000
_cell_volume 3509.005134
_symmetry_space_group_name_H-M "C 2 2 2"
_symmetry_group_IT_number 21
_symmetry_cell_setting 'orthorhombic'
loop_
_space_group_symop_operation_xyz
x,y,z
-x,-y,z
x,-y,-z
-x,y,-z
1/2+x,1/2+y,z
1/2-x,1/2-y,z
1/2+x,1/2-y,-z
1/2-x,1/2+y,-z
loop_
_atom_site_type_symbol
_atom_site_label
_atom_site_fract_x
_atom_site_fract_y
_atom_site_fract_z
Si Si1 0.500000 0.605888 0.817608
Si Si2 0.781318 0.500000 0.683048
Si Si3 0.606914 0.338115 0.317027
Si Si4 0.170158 1.000000 0.818668
Si Si5 0.866721 0.639031 0.682616
Si Si6 0.606914 0.661885 0.317027
Si Si7 0.442256 1.000000 0.181943
Si Si8 0.633279 0.139031 0.682616
O O1 0.500000 0.500000 0.784649
O O2 0.550521 0.648310 0.747770
O O3 0.449479 0.648310 0.747770
O O4 0.500000 0.616352 0.000000
O O5 0.773339 0.500000 0.500000
O O6 0.728174 0.500000 0.766327
O O7 0.815473 0.586004 0.722638
O O8 0.815473 0.413996 0.722638
O O9 0.641827 0.414597 0.248597
O O10 0.629326 0.241773 0.276466
O O11 0.605529 0.345573 0.500000
O O12 0.141827 0.914597 0.751403
O O13 0.165838 0.000000 0.000000
O O14 0.912363 0.584990 0.757024
O O15 0.871545 0.631915 0.500000
O O16 0.629326 0.758228 0.276466
O O17 0.500000 0.000000 0.234339
O O18 0.412363 0.084990 0.242976
O O19 0.441167 0.000000 0.000000
#
# Coordination Sequence:
#
# PCOD9323826 Si02
#       8
#     8   8   8   8   8   8   8   8
#     4  11  23  39  59  86 124 161 192 240 301 355
#     4   9  19  41  65  85 115 153 194 246 298 346
#     4  11  23  40  63  90 117 155 204 246 290 349
#     4  12  25  40  59  88 121 156 196 243 301 356
#     4   9  21  40  62  87 115 152 199 247 292 342
#     4  11  23  40  63  90 117 155 204 246 290 349
#     4  10  21  35  54  85 120 157 194 234 293 356
#     4   9  21  40  62  87 115 152 199 247 292 342
#
# _framework density 18.238786000000001
#
# number of rings (size 3 to 8) (size 9 to 14) (size 15 to 20)
#    0.000    1.750    1.250    3.375    1.750    6.500 
#    0.000    5.000    0.000    0.000    0.000    0.000 
#    0.000    0.000    0.000    0.000    0.000    0.000 
#
# Total GULP energy -178781.669948 kJ/mol
# GULP energy per Si atom -5586.927186 kJ/mol
# Density = 1.819727 g / cm^3
# Si number density = 18.238786 Si / 1000 Ang^3
#
#
#
# Elastic Constant Matrix: (Units=GPa)
#
#
# Indices 1 2 3 4 5 6 
#
# 1 170.4684 97.3846 58.2253 0.0000 0.0000 0.0000
# 2 97.3846 188.7002 69.0214 0.0000 0.0000 0.0000
# 3 58.2253 69.0214 56.3173 0.0000 0.0000 0.0000
# 4 0.0000 0.0000 0.0000 160.0435 0.0000 0.0000
# 5 0.0000 0.0000 0.0000 0.0000 50.5523 0.0000
# 6 0.0000 0.0000 0.0000 0.0000 0.0000 -16.6746
#
#
#
# Elastic Compliance Matrix: (Units=1/GPa)
#
#
# Indices 1 2 3 4 5 6 
#
# 1 0.009637 -0.002409 -0.007011 0.000000 0.000000 0.000000
# 2 -0.002409 0.010208 -0.010019 0.000000 0.000000 0.000000
# 3 -0.007011 -0.010019 0.037285 0.000000 0.000000 0.000000
# 4 0.000000 0.000000 0.000000 0.006248 0.000000 0.000000
# 5 0.000000 0.000000 0.000000 0.000000 0.019781 0.000000
# 6 0.000000 0.000000 0.000000 0.000000 0.000000 -0.059972
#
#
# Mechanical properties :
#
#
# Convention : Reuss Voigt Hill
#
# Bulk Modulus (GPa) = 54.79388 96.08317 75.43852
# Shear Modulus (GPa) = 73.36677 51.50789 62.43733
#
# Velocity S-wave (km/s) = 6.34925 5.31998 5.85727
# Velocity P-wave (km/s) = 9.15742 9.51479 9.33782
#
# Compressibility (1/GPa) = 0.01825021
#
# Stress axis : x y z
#
# Youngs Moduli (GPa) = 103.76481 97.96682 26.82046
#
# Poissons Ratio (x) = 0.23601 0.18804
# Poissons Ratio (y) = 0.24998 0.26873
# Poissons Ratio (z) = 0.72751 0.98158
#
# Static dielectric constant tensor:
#      x y z
#    x 1.594910 0.000000 0.000000 
#    y 0.000000 1.628660 0.000000 
#    z 0.000000 0.000000 1.606450 
# 
# From -- ./inp_files/18651.got.cif
#   From: 2010.05.17/outbox.cif.g08.bks.cpg/sg21_10_cif.got.tgz:18651.got - 2010.06.03 23:14:55.
