data_PCOD9323364
_publ_section_title
;
Structure prediction by ZEFSAII (Michael W. Deem and Ramdas Pophale) SiO2 
 PCOD9323364
Probable space group: C 2 2 2
;
_chemical_formula_sum "Si O2"
_cell_formula_units_Z 40
_cell_length_a 25.309657
_cell_length_b 9.168384
_cell_length_c 7.892776
_cell_angle_alpha 90.000000
_cell_angle_beta 90.000000
_cell_angle_gamma 90.000000
_cell_volume 1831.508049
_symmetry_space_group_name_H-M "C 2 2 2"
_symmetry_group_IT_number 21
_symmetry_cell_setting 'orthorhombic'
loop_
_space_group_symop_operation_xyz
x,y,z
-x,-y,z
x,-y,-z
-x,y,-z
1/2+x,1/2+y,z
1/2-x,1/2-y,z
1/2+x,1/2-y,-z
1/2-x,1/2+y,-z
loop_
_atom_site_type_symbol
_atom_site_label
_atom_site_fract_x
_atom_site_fract_y
_atom_site_fract_z
Si Si1 0.952846 0.677099 0.868167
Si Si2 0.634904 0.310728 0.886755
Si Si3 0.190139 0.257972 0.796221
Si Si4 0.373589 0.026310 0.300886
Si Si5 0.093654 0.079796 0.675616
O O1 0.929661 0.533636 0.775378
O O2 0.953560 0.810426 0.732103
O O3 0.906500 0.735789 0.987622
O O4 0.000000 0.661077 0.000000
O O5 0.609220 0.456398 0.813027
O O6 0.639608 0.192861 0.738618
O O7 0.684633 0.313467 0.014972
O O8 0.250000 0.250000 0.737841
O O9 0.170143 0.424667 0.789301
O O10 0.147601 0.175871 0.675805
O O11 0.374123 0.000000 0.500000
O O12 0.083105 0.000000 0.500000
#
# Coordination Sequence:
#
# PCOD9323364 Si02
#       5
#     8   8   8   8   8
#     4  10  21  39  61  85 115 156 201 243 299 370
#     4  10  20  36  59  84 116 160 200 249 303 355
#     4  10  21  37  59  87 119 164 211 244 293 367
#     4  10  21  39  60  86 122 158 197 254 312 353
#     4  10  21  39  60  86 122 158 197 254 312 353
#
# _framework density 21.839925000000001
#
# number of rings (size 3 to 8) (size 9 to 14) (size 15 to 20)
#    0.000    2.400    0.000    7.200    0.000    7.200 
#    0.000    8.000    0.000    0.000    0.000    0.000 
#    0.000    0.000    0.000    0.000    0.000    0.000 
#
# Total GULP energy -111490.464227 kJ/mol
# GULP energy per Si atom -5574.523211 kJ/mol
# Density = 2.179022 g / cm^3
# Si number density = 21.839925 Si / 1000 Ang^3
#
#
#
# Elastic Constant Matrix: (Units=GPa)
#
#
# Indices 1 2 3 4 5 6 
#
# 1 70.5135 3.4571 13.0182 0.0000 0.0000 0.0000
# 2 3.4571 108.6078 24.0169 0.0000 0.0000 0.0000
# 3 13.0182 24.0169 107.4067 0.0000 0.0000 0.0000
# 4 0.0000 0.0000 0.0000 48.1289 0.0000 0.0000
# 5 0.0000 0.0000 0.0000 0.0000 14.3848 0.0000
# 6 0.0000 0.0000 0.0000 0.0000 0.0000 10.0474
#
#
#
# Elastic Compliance Matrix: (Units=1/GPa)
#
#
# Indices 1 2 3 4 5 6 
#
# 1 0.014507 -0.000077 -0.001741 0.000000 0.000000 0.000000
# 2 -0.000077 0.009687 -0.002157 0.000000 0.000000 0.000000
# 3 -0.001741 -0.002157 0.010004 0.000000 0.000000 0.000000
# 4 0.000000 0.000000 0.000000 0.020778 0.000000 0.000000
# 5 0.000000 0.000000 0.000000 0.000000 0.069518 0.000000
# 6 0.000000 0.000000 0.000000 0.000000 0.000000 0.099528
#
#
# Mechanical properties :
#
#
# Convention : Reuss Voigt Hill
#
# Bulk Modulus (GPa) = 38.09793 40.83472 39.46632
# Shear Modulus (GPa) = 20.77103 30.91461 25.84282
#
# Velocity S-wave (km/s) = 3.08727 3.76641 3.44362
# Velocity P-wave (km/s) = 5.49457 6.13615 5.82420
#
# Compressibility (1/GPa) = 0.02624815
#
# Stress axis : x y z
#
# Youngs Moduli (GPa) = 68.93278 103.23315 99.96298
#
# Poissons Ratio (x) = 0.00792 0.17405
# Poissons Ratio (y) = 0.00529 0.21559
# Poissons Ratio (z) = 0.12002 0.22265
#
# Static dielectric constant tensor:
#      x y z
#    x 1.856010 0.000000 0.000000 
#    y 0.000000 1.925220 0.000000 
#    z 0.000000 0.000000 1.894840 
# 
# From -- ./inp_files/18941.got.cif
#   From: 2010.05.17/outbox.cif.g08.bks.cpg/sg21_10_cif.got.tgz:18941.got - 2010.06.03 23:14:55.
