data_PCOD9323561
_publ_section_title
;
Structure prediction by ZEFSAII (Michael W. Deem and Ramdas Pophale) SiO2 
 PCOD9323561
Probable space group: C 2 2 2
;
_chemical_formula_sum "Si O2"
_cell_formula_units_Z 32
_cell_length_a 9.694671
_cell_length_b 14.478091
_cell_length_c 10.725224
_cell_angle_alpha 90.000000
_cell_angle_beta 90.000000
_cell_angle_gamma 90.000000
_cell_volume 1505.395969
_symmetry_space_group_name_H-M "C 2 2 2"
_symmetry_group_IT_number 21
_symmetry_cell_setting 'orthorhombic'
loop_
_space_group_symop_operation_xyz
x,y,z
-x,-y,z
x,-y,-z
-x,y,-z
1/2+x,1/2+y,z
1/2-x,1/2-y,z
1/2+x,1/2-y,-z
1/2-x,1/2+y,-z
loop_
_atom_site_type_symbol
_atom_site_label
_atom_site_fract_x
_atom_site_fract_y
_atom_site_fract_z
Si Si1 0.591259 0.649788 0.382055
Si Si2 0.101540 0.629564 0.607690
Si Si3 0.000000 0.500000 0.187227
Si Si4 0.885125 0.817855 0.097379
Si Si5 0.741476 0.000000 0.000000
O O1 0.500000 0.617548 0.500000
O O2 0.739305 0.601160 0.397043
O O3 0.603749 0.760174 0.399718
O O4 0.555242 0.650048 0.233460
O O5 0.000000 0.597487 0.500000
O O6 0.038326 0.589233 0.732640
O O7 0.864631 0.476353 0.109889
O O8 0.750000 0.750000 0.115372
O O9 0.829650 0.911384 0.035058
O O10 0.000000 0.778587 0.000000
#
# Coordination Sequence:
#
# PCOD9323561 Si02
#       5
#     8   8   4   8   4
#     4  10  21  42  66  97 137 175 226 285 342 414
#     4  10  20  38  64  98 132 172 225 280 340 411
#     4  11  21  38  70  98 135 175 234 286 342 413
#     4  12  26  46  70 103 142 185 236 288 355 421
#     4  11  25  42  68 100 142 182 228 292 350 412
#
# _framework density 21.256865999999999
#
# number of rings (size 3 to 8) (size 9 to 14) (size 15 to 20)
#    0.000    1.250    5.000    0.750    7.000    2.000 
#    4.500    0.000    0.000    0.000    0.000    0.000 
#    0.000    0.000    0.000    0.000    0.000    0.000 
#
# Total GULP energy -89201.546125 kJ/mol
# GULP energy per Si atom -5575.096633 kJ/mol
# Density = 2.120848 g / cm^3
# Si number density = 21.256866 Si / 1000 Ang^3
#
#
#
# Elastic Constant Matrix: (Units=GPa)
#
#
# Indices 1 2 3 4 5 6 
#
# 1 96.2981 5.7494 72.0328 0.0000 0.0000 0.0000
# 2 5.7494 59.8313 2.3962 0.0000 0.0000 0.0000
# 3 72.0328 2.3962 159.9817 0.0000 0.0000 0.0000
# 4 0.0000 0.0000 0.0000 40.0509 0.0000 0.0000
# 5 0.0000 0.0000 0.0000 0.0000 101.2928 0.0000
# 6 0.0000 0.0000 0.0000 0.0000 0.0000 -83.5703
#
#
#
# Elastic Compliance Matrix: (Units=1/GPa)
#
#
# Indices 1 2 3 4 5 6 
#
# 1 0.015748 -0.001230 -0.007072 0.000000 0.000000 0.000000
# 2 -0.001230 0.016820 0.000302 0.000000 0.000000 0.000000
# 3 -0.007072 0.000302 0.009431 0.000000 0.000000 0.000000
# 4 0.000000 0.000000 0.000000 0.024968 0.000000 0.000000
# 5 0.000000 0.000000 0.000000 0.000000 0.009872 0.000000
# 6 0.000000 0.000000 0.000000 0.000000 0.000000 -0.011966
#
#
# Mechanical properties :
#
#
# Convention : Reuss Voigt Hill
#
# Bulk Modulus (GPa) = 38.46510 52.94087 45.70298
# Shear Modulus (GPa) = 55.84130 27.28352 41.56241
#
# Velocity S-wave (km/s) = 5.13096 3.58651 4.42661
# Velocity P-wave (km/s) = 7.29637 6.48923 6.90460
#
# Compressibility (1/GPa) = 0.02599759
#
# Stress axis : x y z
#
# Youngs Moduli (GPa) = 63.50011 59.45384 106.03891
#
# Poissons Ratio (x) = 0.07313 0.74993
# Poissons Ratio (y) = 0.07811 -0.03201
# Poissons Ratio (z) = 0.44909 -0.01795
#
# Static dielectric constant tensor:
#      x y z
#    x 1.741470 0.000000 0.000000 
#    y 0.000000 1.752140 0.000000 
#    z 0.000000 0.000000 1.908070 
# 
# From -- ./inp_files/12332.got.cif
#   From: 2010.05.17/outbox.cif.g08.bks.cpg/sg21_7_cif.got.tgz:12332.got - 2010.06.03 23:14:55.
