data_PCOD9323172
_publ_section_title
;
Structure prediction by ZEFSAII (Michael W. Deem and Ramdas Pophale) SiO2 
 PCOD9323172
Probable space group: C 2 2 2
;
_chemical_formula_sum "Si O2"
_cell_formula_units_Z 64
_cell_length_a 8.232046
_cell_length_b 25.746099
_cell_length_c 13.922845
_cell_angle_alpha 90.000000
_cell_angle_beta 90.000000
_cell_angle_gamma 90.000000
_cell_volume 2950.850530
_symmetry_space_group_name_H-M "C 2 2 2"
_symmetry_group_IT_number 21
_symmetry_cell_setting 'orthorhombic'
loop_
_space_group_symop_operation_xyz
x,y,z
-x,-y,z
x,-y,-z
-x,y,-z
1/2+x,1/2+y,z
1/2-x,1/2-y,z
1/2+x,1/2-y,-z
1/2-x,1/2+y,-z
loop_
_atom_site_type_symbol
_atom_site_label
_atom_site_fract_x
_atom_site_fract_y
_atom_site_fract_z
Si Si1 0.221258 0.570362 0.270441
Si Si2 0.310141 0.518563 0.606847
Si Si3 0.570553 0.730359 0.290385
Si Si4 0.330336 0.657204 0.862099
Si Si5 0.960589 0.058343 0.113828
Si Si6 0.977433 0.662762 0.762002
Si Si7 0.177962 0.306780 0.952235
Si Si8 0.477177 0.379961 0.386315
O O1 0.208424 0.513324 0.315443
O O2 0.282561 0.566580 0.159824
O O3 0.070667 0.608578 0.284710
O O4 0.367117 0.597108 0.331045
O O5 0.500000 0.500000 0.613027
O O6 0.257960 0.500000 0.500000
O O7 0.326232 0.579995 0.626549
O O8 0.750000 0.750000 0.314732
O O9 0.575298 0.707331 0.180859
O O10 0.466582 0.782950 0.295901
O O11 0.538560 0.679109 0.351467
O O12 0.427516 0.604467 0.844670
O O13 0.157605 0.658924 0.807242
O O14 0.293067 0.662306 0.974623
O O15 0.000000 0.000000 0.147878
O O16 0.000000 0.058717 0.000000
O O17 0.848709 0.670071 0.847987
O O18 0.250000 0.250000 0.945681
O O19 0.000000 0.305046 0.000000
O O20 0.500000 0.380777 0.500000
#
# Coordination Sequence:
#
# PCOD9323172 Si02
#       8
#     8   8   8   8   8   8   8   8
#     4  11  21  36  63  95 121 154 205 264 301 355
#     4   9  16  34  60  91 116 145 206 255 301 362
#     4  10  22  40  59  83 124 169 199 242 317 383
#     4  10  20  40  60  80 124 175 202 245 309 372
#     4  11  23  38  61  94 123 158 209 259 307 366
#     4  10  23  37  56  91 129 163 200 246 316 379
#     4  10  20  33  55  85 119 163 208 245 287 355
#     4  11  20  37  63  93 117 161 211 261 312 362
#
# _framework density 21.688662999999998
#
# number of rings (size 3 to 8) (size 9 to 14) (size 15 to 20)
#    0.000    1.750    3.750    3.750    1.750    2.500 
#    2.250    0.625    0.000    1.500    0.000    4.375 
#    0.000    0.000    0.000    0.000    0.000    0.000 
#
# Total GULP energy -178580.059336 kJ/mol
# GULP energy per Si atom -5580.626854 kJ/mol
# Density = 2.163930 g / cm^3
# Si number density = 21.688663 Si / 1000 Ang^3
#
#
#
# Elastic Constant Matrix: (Units=GPa)
#
#
# Indices 1 2 3 4 5 6 
#
# 1 28.7731 32.8662 3.5321 0.0000 0.0000 0.0000
# 2 32.8662 150.1105 7.5771 0.0000 0.0000 0.0000
# 3 3.5321 7.5771 73.0411 0.0000 0.0000 0.0000
# 4 0.0000 0.0000 0.0000 33.2403 0.0000 0.0000
# 5 0.0000 0.0000 0.0000 0.0000 6.0074 0.0000
# 6 0.0000 0.0000 0.0000 0.0000 0.0000 33.6858
#
#
#
# Elastic Compliance Matrix: (Units=1/GPa)
#
#
# Indices 1 2 3 4 5 6 
#
# 1 0.046449 -0.010110 -0.001197 0.000000 0.000000 0.000000
# 2 -0.010110 0.008897 -0.000434 0.000000 0.000000 0.000000
# 3 -0.001197 -0.000434 0.013794 0.000000 0.000000 0.000000
# 4 0.000000 0.000000 0.000000 0.030084 0.000000 0.000000
# 5 0.000000 0.000000 0.000000 0.000000 0.166460 0.000000
# 6 0.000000 0.000000 0.000000 0.000000 0.000000 0.029686
#
#
# Mechanical properties :
#
#
# Convention : Reuss Voigt Hill
#
# Bulk Modulus (GPa) = 21.90182 37.76393 29.83288
# Shear Modulus (GPa) = 14.96683 28.44999 21.70841
#
# Velocity S-wave (km/s) = 2.62978 3.62573 3.16715
# Velocity P-wave (km/s) = 4.39786 5.91418 5.21146
#
# Compressibility (1/GPa) = 0.04565830
#
# Stress axis : x y z
#
# Youngs Moduli (GPa) = 21.52881 112.39594 72.49600
#
# Poissons Ratio (x) = 1.13627 0.08681
# Poissons Ratio (y) = 0.21765 0.03147
# Poissons Ratio (z) = 0.02578 0.04879
#
# Static dielectric constant tensor:
#      x y z
#    x 1.803260 0.000000 0.000000 
#    y 0.000000 1.823920 0.000000 
#    z 0.000000 0.000000 1.831730 
# 
# From -- ./inp_files/30896.got.cif
#   From: 2010.05.17/outbox.cif.g08.bks.cpg/sg21_16_cif.got.tgz:30896.got - 2010.06.03 23:14:55.
