data_PCOD9323377
_publ_section_title
;
Structure prediction by ZEFSAII (Michael W. Deem and Ramdas Pophale) SiO2 
 PCOD9323377
Probable space group: C 2 2 2
;
_chemical_formula_sum "Si O2"
_cell_formula_units_Z 40
_cell_length_a 8.554137
_cell_length_b 18.681642
_cell_length_c 12.084529
_cell_angle_alpha 90.000000
_cell_angle_beta 90.000000
_cell_angle_gamma 90.000000
_cell_volume 1931.172085
_symmetry_space_group_name_H-M "C 2 2 2"
_symmetry_group_IT_number 21
_symmetry_cell_setting 'orthorhombic'
loop_
_space_group_symop_operation_xyz
x,y,z
-x,-y,z
x,-y,-z
-x,y,-z
1/2+x,1/2+y,z
1/2-x,1/2-y,z
1/2+x,1/2-y,-z
1/2-x,1/2+y,-z
loop_
_atom_site_type_symbol
_atom_site_label
_atom_site_fract_x
_atom_site_fract_y
_atom_site_fract_z
Si Si1 0.603254 0.800127 0.393397
Si Si2 0.351594 0.408294 0.078644
Si Si3 0.651513 0.151724 0.118621
Si Si4 0.953579 0.207448 0.200330
Si Si5 0.893443 0.436629 0.756006
O O1 0.500000 0.816179 0.500000
O O2 0.750000 0.750000 0.422554
O O3 0.504196 0.751320 0.307446
O O4 0.648421 0.874379 0.331867
O O5 0.414172 0.344298 0.155201
O O6 0.255868 0.458072 0.166076
O O7 0.500000 0.429000 0.000000
O O8 0.228054 0.378061 0.991352
O O9 0.793748 0.162023 0.206905
O O10 0.582165 0.231193 0.110353
O O11 0.517489 0.100871 0.162232
O O12 0.000000 0.500000 0.706196
#
# Coordination Sequence:
#
# PCOD9323377 Si02
#       5
#     8   8   8   8   8
#     4  11  24  41  71  96 125 164 227 295 351 400
#     4  10  20  36  59  92 133 180 218 269 320 402
#     4   9  20  32  58  89 130 173 212 258 325 395
#     4   9  19  36  56  91 127 161 216 279 333 377
#     4  11  24  42  61  93 136 176 218 274 335 408
#
# _framework density 20.712810000000001
#
# number of rings (size 3 to 8) (size 9 to 14) (size 15 to 20)
#    0.000    2.000    2.000    0.600    5.600   19.600 
#    0.000    7.000    0.000    0.000    0.000    0.000 
#    0.000    0.000    0.000    0.000    0.000    0.000 
#
# Total GULP energy -111524.019039 kJ/mol
# GULP energy per Si atom -5576.200952 kJ/mol
# Density = 2.066567 g / cm^3
# Si number density = 20.712810 Si / 1000 Ang^3
#
#
#
# Elastic Constant Matrix: (Units=GPa)
#
#
# Indices 1 2 3 4 5 6 
#
# 1 48.5171 16.1902 32.4263 0.0000 0.0000 0.0000
# 2 16.1902 66.9440 16.9827 0.0000 0.0000 0.0000
# 3 32.4263 16.9827 83.9698 0.0000 0.0000 0.0000
# 4 0.0000 0.0000 0.0000 -324.4124 0.0000 0.0000
# 5 0.0000 0.0000 0.0000 0.0000 37.6971 0.0000
# 6 0.0000 0.0000 0.0000 0.0000 0.0000 25.1121
#
#
#
# Elastic Compliance Matrix: (Units=1/GPa)
#
#
# Indices 1 2 3 4 5 6 
#
# 1 0.028957 -0.004392 -0.010294 0.000000 0.000000 0.000000
# 2 -0.004392 0.016412 -0.001623 0.000000 0.000000 0.000000
# 3 -0.010294 -0.001623 0.016213 0.000000 0.000000 0.000000
# 4 0.000000 0.000000 0.000000 -0.003082 0.000000 0.000000
# 5 0.000000 0.000000 0.000000 0.000000 0.026527 0.000000
# 6 0.000000 0.000000 0.000000 0.000000 0.000000 0.039821
#
#
# Mechanical properties :
#
#
# Convention : Reuss Voigt Hill
#
# Bulk Modulus (GPa) = 34.52658 36.73659 35.63159
# Shear Modulus (GPa) = 29.91874 -43.39851 -6.73989
#
# Velocity S-wave (km/s) = 3.80472 -4.58236 -1.80583
# Velocity P-wave (km/s) = 6.00055 3.19729 3.59054
#
# Compressibility (1/GPa) = 0.02896319
#
# Stress axis : x y z
#
# Youngs Moduli (GPa) = 34.53435 60.93178 61.68076
#
# Poissons Ratio (x) = 0.26759 0.63494
# Poissons Ratio (y) = 0.15166 0.10013
# Poissons Ratio (z) = 0.35549 0.09891
#
# Static dielectric constant tensor:
#      x y z
#    x 1.828110 0.000000 0.000000 
#    y 0.000000 1.789200 0.000000 
#    z 0.000000 0.000000 1.720090 
# 
# From -- ./inp_files/22571.got.cif
#   From: 2010.05.17/outbox.cif.g08.bks.cpg/sg21_12_cif.got.tgz:22571.got - 2010.06.03 23:14:55.
