data_PCOD9323631
_publ_section_title
;
Structure prediction by ZEFSAII (Michael W. Deem and Ramdas Pophale) SiO2 
 PCOD9323631
Probable space group: C 2 2 2
;
_chemical_formula_sum "Si O2"
_cell_formula_units_Z 54
_cell_length_a 15.013477
_cell_length_b 24.219753
_cell_length_c 6.667538
_cell_angle_alpha 90.000000
_cell_angle_beta 90.000000
_cell_angle_gamma 90.000000
_cell_volume 2424.468201
_symmetry_space_group_name_H-M "C 2 2 2"
_symmetry_group_IT_number 21
_symmetry_cell_setting 'orthorhombic'
loop_
_space_group_symop_operation_xyz
x,y,z
-x,-y,z
x,-y,-z
-x,y,-z
1/2+x,1/2+y,z
1/2-x,1/2-y,z
1/2+x,1/2-y,-z
1/2-x,1/2+y,-z
loop_
_atom_site_type_symbol
_atom_site_label
_atom_site_fract_x
_atom_site_fract_y
_atom_site_fract_z
Si Si1 0.856944 0.556141 0.203567
Si Si2 0.277539 0.900498 0.169277
Si Si3 0.399805 0.433326 0.054245
Si Si4 0.000000 0.732042 0.000000
Si Si5 0.843803 0.278746 0.253662
Si Si6 0.689006 0.445109 0.568573
Si Si7 0.080984 0.666462 0.630977
Si Si8 0.500000 0.000000 0.500000
O O1 0.765033 0.531277 0.282075
O O2 0.855944 0.619695 0.280816
O O3 0.935245 0.530503 0.338150
O O4 0.847248 0.561137 0.960956
O O5 0.325743 0.841283 0.175928
O O6 0.244193 0.915709 0.393281
O O7 0.182711 0.904225 0.057387
O O8 0.380283 0.416381 0.285305
O O9 0.393945 0.500000 0.000000
O O10 0.500000 0.416731 0.000000
O O11 0.913483 0.755406 0.884482
O O12 0.039117 0.695473 0.821461
O O13 0.750000 0.250000 0.253660
O O14 0.877170 0.289117 0.480309
O O15 0.639012 0.500000 0.500000
O O16 0.000000 0.640719 0.500000
#
# Coordination Sequence:
#
# PCOD9323631 Si02
#       8
#     8   8   8   4   8   8   8   2
#     4  11  22  38  61  92 138 188 226 275 332 399
#     4  11  23  42  67  96 135 179 223 282 349 410
#     4  10  22  40  65  97 128 177 226 270 340 417
#     4  10  22  44  70  99 128 174 219 278 340 428
#     4  11  24  43  72 102 131 180 230 286 353 415
#     4  11  21  39  61  89 132 174 223 277 334 404
#     4  10  20  39  65  91 130 175 225 271 337 401
#     4  12  24  40  62 108 150 190 246 284 316 414
#
# _framework density 22.272925000000001
#
# number of rings (size 3 to 8) (size 9 to 14) (size 15 to 20)
#    0.000    1.333    5.926    0.000    0.000    1.185 
#    1.333    0.741    6.519    0.000    0.000    0.000 
#    0.000    0.000    0.000    0.000    0.000    0.000 
#
# Total GULP energy -150304.856999 kJ/mol
# GULP energy per Si atom -5566.846556 kJ/mol
# Density = 2.222223 g / cm^3
# Si number density = 22.272925 Si / 1000 Ang^3
#
#
#
# Elastic Constant Matrix: (Units=GPa)
#
#
# Indices 1 2 3 4 5 6 
#
# 1 123.5647 10.0586 56.5147 0.0000 0.0000 0.0000
# 2 10.0586 11.6337 16.6580 0.0000 0.0000 0.0000
# 3 56.5147 16.6580 166.7450 0.0000 0.0000 0.0000
# 4 0.0000 0.0000 0.0000 4.9628 0.0000 0.0000
# 5 0.0000 0.0000 0.0000 0.0000 28.0067 0.0000
# 6 0.0000 0.0000 0.0000 0.0000 0.0000 25.3549
#
#
#
# Elastic Compliance Matrix: (Units=1/GPa)
#
#
# Indices 1 2 3 4 5 6 
#
# 1 0.009760 -0.004320 -0.002876 0.000000 0.000000 0.000000
# 2 -0.004320 0.102218 -0.008747 0.000000 0.000000 0.000000
# 3 -0.002876 -0.008747 0.007846 0.000000 0.000000 0.000000
# 4 0.000000 0.000000 0.000000 0.201499 0.000000 0.000000
# 5 0.000000 0.000000 0.000000 0.000000 0.035706 0.000000
# 6 0.000000 0.000000 0.000000 0.000000 0.000000 0.039440
#
#
# Mechanical properties :
#
#
# Convention : Reuss Voigt Hill
#
# Bulk Modulus (GPa) = 11.37189 52.04509 31.70849
# Shear Modulus (GPa) = 10.92493 26.24569 18.58531
#
# Velocity S-wave (km/s) = 2.21713 3.43646 2.89179
# Velocity P-wave (km/s) = 3.41629 6.25807 5.04155
#
# Compressibility (1/GPa) = 0.08793615
#
# Stress axis : x y z
#
# Youngs Moduli (GPa) = 102.45713 9.78302 127.45400
#
# Poissons Ratio (x) = 0.04226 0.36661
# Poissons Ratio (y) = 0.44262 1.11490
# Poissons Ratio (z) = 0.29471 0.08558
#
# Static dielectric constant tensor:
#      x y z
#    x 1.835270 0.000000 0.000000 
#    y 0.000000 1.836150 0.000000 
#    z 0.000000 0.000000 1.936500 
# 
# From -- ./inp_files/4337.got.cif
#   From: 2010.05.17/outbox.cif.g08.bks.cpg/sg21_3_cif.got.tgz:4337.got - 2010.06.03 23:14:55.
