data_PCOD9323653
_publ_section_title
;
Structure prediction by ZEFSAII (Michael W. Deem and Ramdas Pophale) SiO2 
 PCOD9323653
Probable space group: C 2 2 2
;
_chemical_formula_sum "Si O2"
_cell_formula_units_Z 48
_cell_length_a 10.144193
_cell_length_b 15.961052
_cell_length_c 13.197438
_cell_angle_alpha 90.000000
_cell_angle_beta 90.000000
_cell_angle_gamma 90.000000
_cell_volume 2136.823475
_symmetry_space_group_name_H-M "C 2 2 2"
_symmetry_group_IT_number 21
_symmetry_cell_setting 'orthorhombic'
loop_
_space_group_symop_operation_xyz
x,y,z
-x,-y,z
x,-y,-z
-x,y,-z
1/2+x,1/2+y,z
1/2-x,1/2-y,z
1/2+x,1/2-y,-z
1/2-x,1/2+y,-z
loop_
_atom_site_type_symbol
_atom_site_label
_atom_site_fract_x
_atom_site_fract_y
_atom_site_fract_z
Si Si1 0.004933 0.373834 0.883538
Si Si2 0.737977 0.896807 0.244798
Si Si3 0.740244 0.349184 0.233331
Si Si4 0.000000 0.159500 0.500000
Si Si5 0.976558 0.828650 0.117537
Si Si6 0.750000 0.250000 0.597465
Si Si7 0.182782 0.041144 0.606992
O O1 0.151446 0.383802 0.842486
O O2 0.896248 0.417336 0.813653
O O3 0.976430 0.272992 0.877295
O O4 0.000000 0.398689 0.000000
O O5 0.840312 0.861263 0.162761
O O6 0.707992 0.825729 0.328726
O O7 0.805498 0.972247 0.305892
O O8 0.750000 0.250000 0.239024
O O9 0.595273 0.363965 0.186914
O O10 0.770850 0.385982 0.344048
O O11 0.875589 0.214446 0.535347
O O12 0.950581 0.093710 0.414585
O O13 0.000000 0.851082 0.000000
O O14 0.221007 0.000000 0.500000
#
# Coordination Sequence:
#
# PCOD9323653 Si02
#       7
#     8   8   8   4   8   4   8
#     4  10  21  42  70 102 145 188 236 301 368 431
#     4  12  24  44  70 110 143 192 243 301 369 446
#     4  10  24  42  69 102 137 190 241 298 364 441
#     4  12  29  50  76 107 144 202 250 311 380 430
#     4  10  20  39  70 104 139 185 245 296 357 440
#     4  12  26  44  76 108 144 192 254 306 362 458
#     4  12  28  46  71 100 145 191 237 301 368 434
#
# _framework density 22.463249000000001
#
# number of rings (size 3 to 8) (size 9 to 14) (size 15 to 20)
#    0.000    1.000    3.333    2.250    5.833    3.333 
#    0.000    5.833    0.000    0.000    0.000    0.000 
#    0.000    0.000    0.000    0.000    0.000    0.000 
#
# Total GULP energy -134161.934264 kJ/mol
# GULP energy per Si atom -5590.080594 kJ/mol
# Density = 2.241212 g / cm^3
# Si number density = 22.463249 Si / 1000 Ang^3
#
#
#
# Elastic Constant Matrix: (Units=GPa)
#
#
# Indices 1 2 3 4 5 6 
#
# 1 102.8064 38.2631 55.7893 0.0000 0.0000 0.0000
# 2 38.2631 91.3856 43.9696 0.0000 0.0000 0.0000
# 3 55.7893 43.9696 143.0329 0.0000 0.0000 0.0000
# 4 0.0000 0.0000 0.0000 16.7422 0.0000 0.0000
# 5 0.0000 0.0000 0.0000 0.0000 45.1481 0.0000
# 6 0.0000 0.0000 0.0000 0.0000 0.0000 48.7444
#
#
#
# Elastic Compliance Matrix: (Units=1/GPa)
#
#
# Indices 1 2 3 4 5 6 
#
# 1 0.013276 -0.003600 -0.004072 0.000000 0.000000 0.000000
# 2 -0.003600 0.013818 -0.002844 0.000000 0.000000 0.000000
# 3 -0.004072 -0.002844 0.009454 0.000000 0.000000 0.000000
# 4 0.000000 0.000000 0.000000 0.059729 0.000000 0.000000
# 5 0.000000 0.000000 0.000000 0.000000 0.022149 0.000000
# 6 0.000000 0.000000 0.000000 0.000000 0.000000 0.020515
#
#
# Mechanical properties :
#
#
# Convention : Reuss Voigt Hill
#
# Bulk Modulus (GPa) = 64.44239 68.14099 66.29169
# Shear Modulus (GPa) = 30.27641 35.40715 32.84178
#
# Velocity S-wave (km/s) = 3.67525 3.97448 3.82779
# Velocity P-wave (km/s) = 6.83814 7.17372 7.00794
#
# Compressibility (1/GPa) = 0.01551774
#
# Stress axis : x y z
#
# Youngs Moduli (GPa) = 75.32162 72.36896 105.77764
#
# Poissons Ratio (x) = 0.26051 0.43071
# Poissons Ratio (y) = 0.27113 0.30081
# Poissons Ratio (z) = 0.30670 0.20580
#
# Static dielectric constant tensor:
#      x y z
#    x 1.828670 0.000000 0.000000 
#    y 0.000000 1.912180 0.000000 
#    z 0.000000 0.000000 1.736220 
# 
# From -- ./inp_files/30551.got.cif
#   From: 2010.05.17/outbox.cif.g08.bks.cpg/sg21_16_cif.got.tgz:30551.got - 2010.06.03 23:14:55.
