data_PCOD9323465
_publ_section_title
;
Structure prediction by ZEFSAII (Michael W. Deem and Ramdas Pophale) SiO2 
 PCOD9323465
Probable space group: C 2 2 2
;
_chemical_formula_sum "Si O2"
_cell_formula_units_Z 56
_cell_length_a 13.927032
_cell_length_b 13.659517
_cell_length_c 13.181891
_cell_angle_alpha 90.000000
_cell_angle_beta 90.000000
_cell_angle_gamma 90.000000
_cell_volume 2507.677207
_symmetry_space_group_name_H-M "C 2 2 2"
_symmetry_group_IT_number 21
_symmetry_cell_setting 'orthorhombic'
loop_
_space_group_symop_operation_xyz
x,y,z
-x,-y,z
x,-y,-z
-x,y,-z
1/2+x,1/2+y,z
1/2-x,1/2-y,z
1/2+x,1/2-y,-z
1/2-x,1/2+y,-z
loop_
_atom_site_type_symbol
_atom_site_label
_atom_site_fract_x
_atom_site_fract_y
_atom_site_fract_z
Si Si1 0.150560 0.688190 0.747098
Si Si2 0.575710 0.371389 0.830411
Si Si3 0.696626 0.393361 0.450038
Si Si4 0.298901 0.618669 0.019081
Si Si5 0.363168 0.572785 0.223294
Si Si6 0.097925 0.608833 0.953142
Si Si7 0.886535 0.690409 0.479989
O O1 0.250000 0.750000 0.765096
O O2 0.075290 0.775382 0.762874
O O3 0.116179 0.610937 0.832021
O O4 0.143183 0.653819 0.632354
O O5 0.468222 0.408173 0.822981
O O6 0.645758 0.454606 0.783562
O O7 0.616302 0.349862 0.942540
O O8 0.683005 0.500000 0.500000
O O9 0.654225 0.395211 0.336922
O O10 0.809963 0.365425 0.448331
O O11 0.642641 0.305503 0.509952
O O12 0.301631 0.627767 0.139607
O O13 0.301077 0.500000 0.000000
O O14 0.195682 0.658907 0.988576
O O15 0.099714 0.500000 0.000000
O O16 0.000000 0.652195 0.000000
O O17 0.000000 0.677016 0.500000
#
# Coordination Sequence:
#
# PCOD9323465 Si02
#       7
#     8   8   8   8   8   8   8
#     4  12  22  42  71  92 133 186 228 276 358 418
#     4  10  20  37  61 100 126 172 223 270 352 436
#     4  11  24  43  69 102 139 184 245 301 364 426
#     4   9  18  34  58  86 128 166 208 266 337 409
#     4  10  21  36  64  95 136 168 217 290 352 408
#     4  10  23  41  62  94 130 177 232 280 335 429
#     4  11  26  47  70 102 142 188 247 304 353 434
#
# _framework density 22.331422
#
# number of rings (size 3 to 8) (size 9 to 14) (size 15 to 20)
#    0.000    1.571    2.857    2.143    0.000    5.714 
#    0.000    4.286    0.000    0.000    0.000    0.000 
#    0.000    0.000    0.000    0.000    0.000    0.000 
#
# Total GULP energy -156129.165978 kJ/mol
# GULP energy per Si atom -5576.041642 kJ/mol
# Density = 2.228059 g / cm^3
# Si number density = 22.331422 Si / 1000 Ang^3
#
#
#
# Elastic Constant Matrix: (Units=GPa)
#
#
# Indices 1 2 3 4 5 6 
#
# 1 122.4367 18.7939 52.8155 0.0000 0.0000 0.0000
# 2 18.7939 58.9246 25.4880 0.0000 0.0000 0.0000
# 3 52.8155 25.4880 152.0055 0.0000 0.0000 0.0000
# 4 0.0000 0.0000 0.0000 20.4178 0.0000 0.0000
# 5 0.0000 0.0000 0.0000 0.0000 84.0259 0.0000
# 6 0.0000 0.0000 0.0000 0.0000 0.0000 19.8420
#
#
#
# Elastic Compliance Matrix: (Units=1/GPa)
#
#
# Indices 1 2 3 4 5 6 
#
# 1 0.009777 -0.001778 -0.003099 0.000000 0.000000 0.000000
# 2 -0.001778 0.018621 -0.002505 0.000000 0.000000 0.000000
# 3 -0.003099 -0.002505 0.008075 0.000000 0.000000 0.000000
# 4 0.000000 0.000000 0.000000 0.048977 0.000000 0.000000
# 5 0.000000 0.000000 0.000000 0.000000 0.011901 0.000000
# 6 0.000000 0.000000 0.000000 0.000000 0.000000 0.050398
#
#
# Mechanical properties :
#
#
# Convention : Reuss Voigt Hill
#
# Bulk Modulus (GPa) = 46.06008 58.61794 52.33901
# Shear Modulus (GPa) = 29.45506 40.60844 35.03175
#
# Velocity S-wave (km/s) = 3.63574 4.26895 3.96500
# Velocity P-wave (km/s) = 6.18832 7.11369 6.66708
#
# Compressibility (1/GPa) = 0.02171077
#
# Stress axis : x y z
#
# Youngs Moduli (GPa) = 102.27837 53.70197 123.83184
#
# Poissons Ratio (x) = 0.09548 0.38376
# Poissons Ratio (y) = 0.18184 0.31015
# Poissons Ratio (z) = 0.31697 0.13450
#
# Static dielectric constant tensor:
#      x y z
#    x 2.020840 0.000000 0.000000 
#    y 0.000000 1.818180 0.000000 
#    z 0.000000 0.000000 1.843500 
# 
# From -- ./inp_files/25279.got.cif
#   From: 2010.05.17/outbox.cif.g08.bks.cpg/sg21_13_cif.got.tgz:25279.got - 2010.06.03 23:14:55.
