data_PCOD9323071
_publ_section_title
;
Structure prediction by ZEFSAII (Michael W. Deem and Ramdas Pophale) SiO2 
 PCOD9323071
Probable space group: C 2 2 2
;
_chemical_formula_sum "Si O2"
_cell_formula_units_Z 18
_cell_length_a 4.935494
_cell_length_b 13.671564
_cell_length_c 9.812283
_cell_angle_alpha 90.000000
_cell_angle_beta 90.000000
_cell_angle_gamma 90.000000
_cell_volume 662.092843
_symmetry_space_group_name_H-M "C 2 2 2"
_symmetry_group_IT_number 21
_symmetry_cell_setting 'orthorhombic'
loop_
_space_group_symop_operation_xyz
x,y,z
-x,-y,z
x,-y,-z
-x,y,-z
1/2+x,1/2+y,z
1/2-x,1/2-y,z
1/2+x,1/2-y,-z
1/2-x,1/2+y,-z
loop_
_atom_site_type_symbol
_atom_site_label
_atom_site_fract_x
_atom_site_fract_y
_atom_site_fract_z
Si Si1 0.263425 0.866682 0.104834
Si Si2 0.742130 0.132191 0.726677
Si Si3 0.000000 0.000000 0.500000
O O1 0.250000 0.750000 0.083917
O O2 0.429559 0.889217 0.241941
O O3 0.952200 0.892281 0.145072
O O4 0.500000 0.899460 0.000000
O O5 0.750000 0.250000 0.710281
O O6 0.834410 0.072211 0.597942
#
# Coordination Sequence:
#
# PCOD9323071 Si02
#       3
#     8   8   2
#     4  10  19  39  69 102 136 175 225 290 361 421
#     4  10  24  42  68 101 137 183 234 287 348 416
#     4  12  28  50  70 100 148 198 244 292 340 416
#
# _framework density 27.186518
#
# number of rings (size 3 to 8) (size 9 to 14) (size 15 to 20)
#    0.000    1.778    0.000    5.333    0.000   10.667 
#    0.000    6.667    0.000    0.000    0.000    0.000 
#    0.000    0.000    0.000    0.000    0.000    0.000 
#
# Total GULP energy -50261.535530 kJ/mol
# GULP energy per Si atom -5584.615059 kJ/mol
# Density = 2.712464 g / cm^3
# Si number density = 27.186518 Si / 1000 Ang^3
#
#
#
# Elastic Constant Matrix: (Units=GPa)
#
#
# Indices 1 2 3 4 5 6 
#
# 1 269.1741 24.0667 54.1720 0.0000 0.0000 0.0000
# 2 24.0667 163.8517 25.4219 0.0000 0.0000 0.0000
# 3 54.1720 25.4219 75.3229 0.0000 0.0000 0.0000
# 4 0.0000 0.0000 0.0000 73.2812 0.0000 0.0000
# 5 0.0000 0.0000 0.0000 0.0000 15.4579 0.0000
# 6 0.0000 0.0000 0.0000 0.0000 0.0000 14.7328
#
#
#
# Elastic Compliance Matrix: (Units=1/GPa)
#
#
# Indices 1 2 3 4 5 6 
#
# 1 0.004348 -0.000162 -0.003072 0.000000 0.000000 0.000000
# 2 -0.000162 0.006446 -0.002059 0.000000 0.000000 0.000000
# 3 -0.003072 -0.002059 0.016181 0.000000 0.000000 0.000000
# 4 0.000000 0.000000 0.000000 0.013646 0.000000 0.000000
# 5 0.000000 0.000000 0.000000 0.000000 0.064692 0.000000
# 6 0.000000 0.000000 0.000000 0.000000 0.000000 0.067876
#
#
# Mechanical properties :
#
#
# Convention : Reuss Voigt Hill
#
# Bulk Modulus (GPa) = 61.02003 79.51886 70.26945
# Shear Modulus (GPa) = 26.42172 47.67358 37.04765
#
# Velocity S-wave (km/s) = 3.12086 4.19211 3.69551
# Velocity P-wave (km/s) = 5.95651 7.26255 6.64171
#
# Compressibility (1/GPa) = 0.01638806
#
# Stress axis : x y z
#
# Youngs Moduli (GPa) = 229.99827 155.12636 61.80172
#
# Poissons Ratio (x) = 0.02512 0.18987
# Poissons Ratio (y) = 0.03725 0.12726
# Poissons Ratio (z) = 0.70663 0.31944
#
# Static dielectric constant tensor:
#      x y z
#    x 2.032070 0.000000 0.000000 
#    y 0.000000 2.079770 0.000000 
#    z 0.000000 0.000000 2.258610 
# 
# From -- ./inp_files/20114.got.cif
#   From: 2010.05.17/outbox.cif.g08.bks.cpg/sg21_11_cif.got.tgz:20114.got - 2010.06.03 23:14:55.
