data_PCOD9323236
_publ_section_title
;
Structure prediction by ZEFSAII (Michael W. Deem and Ramdas Pophale) SiO2 
 PCOD9323236
Probable space group: C 2 2 2
;
_chemical_formula_sum "Si O2"
_cell_formula_units_Z 58
_cell_length_a 25.587497
_cell_length_b 8.469018
_cell_length_c 14.846593
_cell_angle_alpha 90.000000
_cell_angle_beta 90.000000
_cell_angle_gamma 90.000000
_cell_volume 3217.271144
_symmetry_space_group_name_H-M "C 2 2 2"
_symmetry_group_IT_number 21
_symmetry_cell_setting 'orthorhombic'
loop_
_space_group_symop_operation_xyz
x,y,z
-x,-y,z
x,-y,-z
-x,y,-z
1/2+x,1/2+y,z
1/2-x,1/2-y,z
1/2+x,1/2-y,-z
1/2-x,1/2+y,-z
loop_
_atom_site_type_symbol
_atom_site_label
_atom_site_fract_x
_atom_site_fract_y
_atom_site_fract_z
Si Si1 0.307278 0.171075 0.725072
Si Si2 0.200648 0.451119 0.104836
Si Si3 0.438328 0.326608 0.352139
Si Si4 0.032247 0.357631 0.741725
Si Si5 0.322241 0.590222 0.904324
Si Si6 0.882168 0.517532 0.391819
Si Si7 0.105948 0.096553 0.772076
Si Si8 0.500000 0.500000 0.500000
O O1 0.250000 0.250000 0.719995
O O2 0.346977 0.316384 0.721681
O O3 0.316983 0.078870 0.820647
O O4 0.327752 0.051179 0.647821
O O5 0.262415 0.435921 0.127514
O O6 0.172855 0.279940 0.104931
O O7 0.197004 0.500000 0.000000
O O8 0.486707 0.241648 0.304397
O O9 0.392321 0.200169 0.366374
O O10 0.422113 0.476741 0.294367
O O11 0.461802 0.388785 0.444265
O O12 0.071500 0.426723 0.664325
O O13 0.066568 0.236883 0.800220
O O14 0.000000 0.500000 0.787503
O O15 0.367012 0.505013 0.848777
O O16 0.323365 0.500000 0.000000
O O17 0.886528 0.500000 0.500000
#
# Coordination Sequence:
#
# PCOD9323236 Si02
#       8
#     8   8   8   8   8   8   8   2
#     4  11  22  39  56  82 120 162 196 237 290 348
#     4  10  20  35  59  87 120 152 193 247 297 340
#     4  11  21  35  57  87 114 143 195 249 306 345
#     4   9  19  36  56  83 112 149 190 248 301 345
#     4  10  20  34  59  89 116 150 193 241 292 350
#     4  10  22  38  59  83 117 158 200 243 296 354
#     4  11  20  35  56  85 117 151 194 238 293 355
#     4  12  20  32  62  88 114 140 194 264 316 328
#
# _framework density 18.027702000000001
#
# number of rings (size 3 to 8) (size 9 to 14) (size 15 to 20)
#    0.000    1.655    2.759    2.483    3.862    1.931 
#    0.000    1.379    0.000    1.655    0.000    8.690 
#    0.000    0.000    0.000    0.000    0.000    0.000 
#
# Total GULP energy -161474.774379 kJ/mol
# GULP energy per Si atom -5568.095668 kJ/mol
# Density = 1.798667 g / cm^3
# Si number density = 18.027702 Si / 1000 Ang^3
#
#
#
# Elastic Constant Matrix: (Units=GPa)
#
#
# Indices 1 2 3 4 5 6 
#
# 1 76.9702 59.4093 25.9410 0.0000 0.0000 0.0000
# 2 59.4093 129.0112 33.8232 0.0000 0.0000 0.0000
# 3 25.9410 33.8232 54.8129 0.0000 0.0000 0.0000
# 4 0.0000 0.0000 0.0000 -73.8775 0.0000 0.0000
# 5 0.0000 0.0000 0.0000 0.0000 -36.7796 0.0000
# 6 0.0000 0.0000 0.0000 0.0000 0.0000 33.7173
#
#
#
# Elastic Compliance Matrix: (Units=1/GPa)
#
#
# Indices 1 2 3 4 5 6 
#
# 1 0.021153 -0.008490 -0.004772 0.000000 0.000000 0.000000
# 2 -0.008490 0.012655 -0.003791 0.000000 0.000000 0.000000
# 3 -0.004772 -0.003791 0.022842 0.000000 0.000000 0.000000
# 4 0.000000 0.000000 0.000000 -0.013536 0.000000 0.000000
# 5 0.000000 0.000000 0.000000 0.000000 -0.027189 0.000000
# 6 0.000000 0.000000 0.000000 0.000000 0.000000 0.029658
#
#
# Mechanical properties :
#
#
# Convention : Reuss Voigt Hill
#
# Bulk Modulus (GPa) = 44.35842 55.46015 49.90928
# Shear Modulus (GPa) = 57.33703 -5.94657 25.69523
#
# Velocity S-wave (km/s) = 5.64571 -1.81817 3.77944
# Velocity P-wave (km/s) = 8.19499 5.14033 6.84035
#
# Compressibility (1/GPa) = 0.02254363
#
# Stress axis : x y z
#
# Youngs Moduli (GPa) = 47.27385 79.02211 43.77968
#
# Poissons Ratio (x) = 0.67089 0.20893
# Poissons Ratio (y) = 0.40135 0.16596
# Poissons Ratio (z) = 0.22561 0.29956
#
# Static dielectric constant tensor:
#      x y z
#    x 1.896220 0.000000 0.000000 
#    y 0.000000 1.834960 0.000000 
#    z 0.000000 0.000000 1.595690 
# 
# From -- ./inp_files/33600.got.cif
#   From: 2010.05.17/outbox.cif.g08.bks.cpg/sg21_17_cif.got.tgz:33600.got - 2010.06.03 23:14:55.
