data_PCOD9323911
_publ_section_title
;
Structure prediction by ZEFSAII (Michael W. Deem and Ramdas Pophale) SiO2 
 PCOD9323911
Probable space group: C 2 2 2
;
_chemical_formula_sum "Si O2"
_cell_formula_units_Z 64
_cell_length_a 27.347963
_cell_length_b 9.962196
_cell_length_c 12.813513
_cell_angle_alpha 90.000000
_cell_angle_beta 90.000000
_cell_angle_gamma 90.000000
_cell_volume 3490.987385
_symmetry_space_group_name_H-M "C 2 2 2"
_symmetry_group_IT_number 21
_symmetry_cell_setting 'orthorhombic'
loop_
_space_group_symop_operation_xyz
x,y,z
-x,-y,z
x,-y,-z
-x,y,-z
1/2+x,1/2+y,z
1/2-x,1/2-y,z
1/2+x,1/2-y,-z
1/2-x,1/2+y,-z
loop_
_atom_site_type_symbol
_atom_site_label
_atom_site_fract_x
_atom_site_fract_y
_atom_site_fract_z
Si Si1 0.057691 0.338170 0.994744
Si Si2 0.210200 0.459449 0.118243
Si Si3 0.000075 0.151164 0.625758
Si Si4 0.639435 0.199515 0.178569
Si Si5 0.589934 0.841005 0.615986
Si Si6 0.135082 0.247922 0.169555
Si Si7 0.817678 0.015543 0.125313
Si Si8 0.910965 0.653535 0.372010
O O1 0.089156 0.301409 0.890499
O O2 0.057979 0.500000 0.000000
O O3 0.090055 0.284602 0.092512
O O4 0.000000 0.296042 0.000000
O O5 0.169909 0.566329 0.153986
O O6 0.184484 0.315203 0.123889
O O7 0.263675 0.476749 0.167157
O O8 0.218857 0.500000 0.000000
O O9 0.047360 0.239155 0.647649
O O10 0.000000 0.140206 0.500000
O O11 0.954232 0.243034 0.654349
O O12 0.000000 0.000000 0.669034
O O13 0.631361 0.192832 0.302035
O O14 0.669082 0.332041 0.149689
O O15 0.602547 0.824713 0.493703
O O16 0.574399 0.996543 0.633336
O O17 0.143670 0.089350 0.173082
O O18 0.128068 0.313141 0.283322
O O19 0.820888 0.000000 0.000000
#
# Coordination Sequence:
#
# PCOD9323911 Si02
#       8
#     8   8   8   8   8   8   8   8
#     4  11  22  37  58  86 121 160 197 235 290 356
#     4  11  20  40  65  89 114 151 200 253 301 355
#     4   9  19  35  55  84 115 152 205 251 289 333
#     4  12  21  40  59  90 121 155 198 242 298 362
#     4  10  21  37  59  83 116 162 207 246 285 345
#     4  12  21  40  59  90 121 155 198 242 298 362
#     4  11  24  38  63  91 122 149 192 255 309 355
#     4  10  21  37  59  83 116 162 207 246 285 345
#
# _framework density 18.332920999999999
#
# number of rings (size 3 to 8) (size 9 to 14) (size 15 to 20)
#    0.000    1.250    5.000    1.125    3.500    3.500 
#    0.000    1.250    0.000    4.500    0.000    0.000 
#    0.000    0.000    0.000    0.000    0.000    0.000 
#
# Total GULP energy -178405.884584 kJ/mol
# GULP energy per Si atom -5575.183893 kJ/mol
# Density = 1.829119 g / cm^3
# Si number density = 18.332921 Si / 1000 Ang^3
#
#
#
# Elastic Constant Matrix: (Units=GPa)
#
#
# Indices 1 2 3 4 5 6 
#
# 1 73.5278 0.1556 16.1314 0.0000 0.0000 0.0000
# 2 0.1556 47.4842 12.4600 0.0000 0.0000 0.0000
# 3 16.1314 12.4600 69.7489 0.0000 0.0000 0.0000
# 4 0.0000 0.0000 0.0000 24.5020 0.0000 0.0000
# 5 0.0000 0.0000 0.0000 0.0000 11.7769 0.0000
# 6 0.0000 0.0000 0.0000 0.0000 0.0000 -1.8066
#
#
#
# Elastic Compliance Matrix: (Units=1/GPa)
#
#
# Indices 1 2 3 4 5 6 
#
# 1 0.014361 0.000865 -0.003476 0.000000 0.000000 0.000000
# 2 0.000865 0.022147 -0.004157 0.000000 0.000000 0.000000
# 3 -0.003476 -0.004157 0.015884 0.000000 0.000000 0.000000
# 4 0.000000 0.000000 0.000000 0.040813 0.000000 0.000000
# 5 0.000000 0.000000 0.000000 0.000000 0.084912 0.000000
# 6 0.000000 0.000000 0.000000 0.000000 0.000000 -0.553539
#
#
# Mechanical properties :
#
#
# Convention : Reuss Voigt Hill
#
# Bulk Modulus (GPa) = 25.73517 27.58387 26.65952
# Shear Modulus (GPa) = -14.32934 17.69540 1.68303
#
# Velocity S-wave (km/s) = -2.79878 3.11018 0.95918
# Velocity P-wave (km/s) = 1.90367 5.28927 3.97494
#
# Compressibility (1/GPa) = 0.03885734
#
# Stress axis : x y z
#
# Youngs Moduli (GPa) = 69.63275 45.15183 62.95808
#
# Poissons Ratio (x) = -0.03906 0.21884
# Poissons Ratio (y) = -0.06024 0.26169
# Poissons Ratio (z) = 0.24204 0.18767
#
# Static dielectric constant tensor:
#      x y z
#    x 1.708260 0.000000 0.000000 
#    y 0.000000 1.617260 0.000000 
#    z 0.000000 0.000000 1.699420 
# 
# From -- ./inp_files/28113.got.cif
#   From: 2010.05.17/outbox.cif.g08.bks.cpg/sg21_15_cif.got.tgz:28113.got - 2010.06.03 23:14:55.
