data_PCOD9323514
_publ_section_title
;
Structure prediction by ZEFSAII (Michael W. Deem and Ramdas Pophale) SiO2 
 PCOD9323514
Probable space group: C 2 2 2
;
_chemical_formula_sum "Si O2"
_cell_formula_units_Z 40
_cell_length_a 12.355500
_cell_length_b 12.686358
_cell_length_c 13.043126
_cell_angle_alpha 90.000000
_cell_angle_beta 90.000000
_cell_angle_gamma 90.000000
_cell_volume 2044.461692
_symmetry_space_group_name_H-M "C 2 2 2"
_symmetry_group_IT_number 21
_symmetry_cell_setting 'orthorhombic'
loop_
_space_group_symop_operation_xyz
x,y,z
-x,-y,z
x,-y,-z
-x,y,-z
1/2+x,1/2+y,z
1/2-x,1/2-y,z
1/2+x,1/2-y,-z
1/2-x,1/2+y,-z
loop_
_atom_site_type_symbol
_atom_site_label
_atom_site_fract_x
_atom_site_fract_y
_atom_site_fract_z
Si Si1 0.259660 0.000000 0.500000
Si Si2 0.127487 0.481248 0.290215
Si Si3 0.836026 0.333841 0.148715
Si Si4 0.250000 0.750000 0.949949
Si Si5 0.576058 0.242664 0.788090
Si Si6 0.061734 0.112937 0.407921
O O1 0.329961 0.978804 0.399713
O O2 0.179023 0.088915 0.455437
O O3 0.177776 0.554493 0.202596
O O4 0.137789 0.358746 0.260962
O O5 0.000000 0.500000 0.289698
O O6 0.750000 0.250000 0.194655
O O7 0.958668 0.293676 0.168533
O O8 0.803501 0.333575 0.028910
O O9 0.347928 0.713531 0.878080
O O10 0.561630 0.325187 0.696947
O O11 0.000000 0.171891 0.500000
O O12 0.000000 0.000000 0.393325
#
# Coordination Sequence:
#
# PCOD9323514 Si02
#       6
#     4   8   8   4   8   8
#     4  10  20  38  58  88 126 158 216 254 318 388
#     4  10  22  39  60  91 124 165 209 265 323 389
#     4   9  23  39  62  88 124 168 208 266 330 395
#     4  10  22  38  62  92 120 166 214 270 328 386
#     4  11  21  41  63  92 128 162 219 269 320 390
#     4   9  22  37  59  90 125 170 207 256 324 386
#
# _framework density 19.565052999999999
#
# number of rings (size 3 to 8) (size 9 to 14) (size 15 to 20)
#    0.600    1.800    0.000    2.100    5.600    4.000 
#    0.000    3.000    0.000    1.200    0.000    0.000 
#    0.000    0.000    0.000    0.000    0.000    0.000 
#
# Total GULP energy -111391.868391 kJ/mol
# GULP energy per Si atom -5569.593420 kJ/mol
# Density = 1.952052 g / cm^3
# Si number density = 19.565053 Si / 1000 Ang^3
#
#
#
# Elastic Constant Matrix: (Units=GPa)
#
#
# Indices 1 2 3 4 5 6 
#
# 1 68.3165 30.6098 43.2138 0.0000 0.0000 0.0000
# 2 30.6098 77.5140 62.2091 0.0000 0.0000 0.0000
# 3 43.2138 62.2091 174.8590 0.0000 0.0000 0.0000
# 4 0.0000 0.0000 0.0000 20.0872 0.0000 0.0000
# 5 0.0000 0.0000 0.0000 0.0000 39.9048 0.0000
# 6 0.0000 0.0000 0.0000 0.0000 0.0000 14.2037
#
#
#
# Elastic Compliance Matrix: (Units=1/GPa)
#
#
# Indices 1 2 3 4 5 6 
#
# 1 0.018711 -0.005147 -0.002793 0.000000 0.000000 0.000000
# 2 -0.005147 0.019472 -0.005656 0.000000 0.000000 0.000000
# 3 -0.002793 -0.005656 0.008421 0.000000 0.000000 0.000000
# 4 0.000000 0.000000 0.000000 0.049783 0.000000 0.000000
# 5 0.000000 0.000000 0.000000 0.000000 0.025060 0.000000
# 6 0.000000 0.000000 0.000000 0.000000 0.000000 0.070404
#
#
# Mechanical properties :
#
#
# Convention : Reuss Voigt Hill
#
# Bulk Modulus (GPa) = 51.51238 65.86168 58.68703
# Shear Modulus (GPa) = 22.17164 27.14960 24.66062
#
# Velocity S-wave (km/s) = 3.36999 3.72917 3.55412
# Velocity P-wave (km/s) = 6.44425 7.23037 6.84860
#
# Compressibility (1/GPa) = 0.01941281
#
# Stress axis : x y z
#
# Youngs Moduli (GPa) = 53.44546 51.35458 118.74843
#
# Poissons Ratio (x) = 0.26434 0.33164
# Poissons Ratio (y) = 0.27510 0.67159
# Poissons Ratio (z) = 0.14926 0.29044
#
# Static dielectric constant tensor:
#      x y z
#    x 1.734230 0.000000 0.000000 
#    y 0.000000 1.723900 0.000000 
#    z 0.000000 0.000000 1.696000 
# 
# From -- ./inp_files/23863.got.cif
#   From: 2010.05.17/outbox.cif.g08.bks.cpg/sg21_12_cif.got.tgz:23863.got - 2010.06.03 23:14:55.
