data_PCOD9323639
_publ_section_title
;
Structure prediction by ZEFSAII (Michael W. Deem and Ramdas Pophale) SiO2 
 PCOD9323639
Probable space group: C 2 2 2
;
_chemical_formula_sum "Si O2"
_cell_formula_units_Z 24
_cell_length_a 14.697518
_cell_length_b 4.929690
_cell_length_c 14.879173
_cell_angle_alpha 90.000000
_cell_angle_beta 90.000000
_cell_angle_gamma 90.000000
_cell_volume 1078.058688
_symmetry_space_group_name_H-M "C 2 2 2"
_symmetry_group_IT_number 21
_symmetry_cell_setting 'orthorhombic'
loop_
_space_group_symop_operation_xyz
x,y,z
-x,-y,z
x,-y,-z
-x,y,-z
1/2+x,1/2+y,z
1/2-x,1/2-y,z
1/2+x,1/2-y,-z
1/2-x,1/2+y,-z
loop_
_atom_site_type_symbol
_atom_site_label
_atom_site_fract_x
_atom_site_fract_y
_atom_site_fract_z
Si Si1 0.940644 0.240401 0.148773
Si Si2 0.310399 0.000000 0.000000
Si Si3 0.318628 0.500000 0.500000
Si Si4 0.681495 0.500344 0.695368
O O1 0.870961 0.369663 0.078100
O O2 0.889000 0.081105 0.227979
O O3 0.000000 0.500000 0.180706
O O4 0.000000 0.000000 0.105112
O O5 0.250000 0.750000 0.964087
O O6 0.250000 0.750000 0.497822
O O7 0.365990 0.525432 0.597032
O O8 0.750000 0.750000 0.689924
O O9 0.750000 0.250000 0.713666
#
# Coordination Sequence:
#
# PCOD9323639 Si02
#       4
#     8   4   4   8
#     4  12  26  44  65  97 136 171 207 269 338 387
#     4  12  27  48  71  94 122 172 228 270 313 388
#     4   8  16  32  61  94 125 162 216 270 308 358
#     4  10  20  39  66  96 127 171 222 265 310 381
#
# _framework density 22.262239999999998
#
# number of rings (size 3 to 8) (size 9 to 14) (size 15 to 20)
#    0.000    1.333    0.000    5.500    0.000    4.000 
#    0.000    0.833    0.000    2.000    0.000    0.000 
#    0.000    0.000    0.000    0.000    0.000    0.000 
#
# Total GULP energy -67037.770058 kJ/mol
# GULP energy per Si atom -5586.480838 kJ/mol
# Density = 2.221157 g / cm^3
# Si number density = 22.262240 Si / 1000 Ang^3
#
#
#
# Elastic Constant Matrix: (Units=GPa)
#
#
# Indices 1 2 3 4 5 6 
#
# 1 87.1136 62.0135 78.8448 0.0000 0.0000 0.0000
# 2 62.0135 210.7076 58.7230 0.0000 0.0000 0.0000
# 3 78.8448 58.7230 194.1426 0.0000 0.0000 0.0000
# 4 0.0000 0.0000 0.0000 31.3010 0.0000 0.0000
# 5 0.0000 0.0000 0.0000 0.0000-1941.3105 0.0000
# 6 0.0000 0.0000 0.0000 0.0000 0.0000 55.8748
#
#
#
# Elastic Compliance Matrix: (Units=1/GPa)
#
#
# Indices 1 2 3 4 5 6 
#
# 1 0.021033 -0.004160 -0.007283 0.000000 0.000000 0.000000
# 2 -0.004160 0.006006 -0.000127 0.000000 0.000000 0.000000
# 3 -0.007283 -0.000127 0.008147 0.000000 0.000000 0.000000
# 4 0.000000 0.000000 0.000000 0.031948 0.000000 0.000000
# 5 0.000000 0.000000 0.000000 0.000000 -0.000515 0.000000
# 6 0.000000 0.000000 0.000000 0.000000 0.000000 0.017897
#
#
# Mechanical properties :
#
#
# Convention : Reuss Voigt Hill
#
# Bulk Modulus (GPa) = 83.02673 99.01404 91.02038
# Shear Modulus (GPa) = 44.77382 -351.33477 -153.28047
#
# Velocity S-wave (km/s) = 4.48951 -12.57613 -8.30673
# Velocity P-wave (km/s) = 8.01561 12.89597 7.14339
#
# Compressibility (1/GPa) = 0.01204431
#
# Stress axis : x y z
#
# Youngs Moduli (GPa) = 47.54422 166.50729 122.74132
#
# Poissons Ratio (x) = 0.69273 0.89399
# Poissons Ratio (y) = 0.19780 0.01558
# Poissons Ratio (z) = 0.34629 0.02114
#
# Static dielectric constant tensor:
#      x y z
#    x 1.839050 0.000000 0.000000 
#    y 0.000000 1.756800 0.000000 
#    z 0.000000 0.000000 1.952310 
# 
# From -- ./inp_files/28449.got.cif
#   From: 2010.05.17/outbox.cif.g08.bks.cpg/sg21_15_cif.got.tgz:28449.got - 2010.06.03 23:14:55.
