data_PCOD9323495
_publ_section_title
;
Structure prediction by ZEFSAII (Michael W. Deem and Ramdas Pophale) SiO2 
 PCOD9323495
Probable space group: C 2 2 2
;
_chemical_formula_sum "Si O2"
_cell_formula_units_Z 56
_cell_length_a 20.321777
_cell_length_b 8.562026
_cell_length_c 15.218987
_cell_angle_alpha 90.000000
_cell_angle_beta 90.000000
_cell_angle_gamma 90.000000
_cell_volume 2648.036516
_symmetry_space_group_name_H-M "C 2 2 2"
_symmetry_group_IT_number 21
_symmetry_cell_setting 'orthorhombic'
loop_
_space_group_symop_operation_xyz
x,y,z
-x,-y,z
x,-y,-z
-x,y,-z
1/2+x,1/2+y,z
1/2-x,1/2-y,z
1/2+x,1/2-y,-z
1/2-x,1/2+y,-z
loop_
_atom_site_type_symbol
_atom_site_label
_atom_site_fract_x
_atom_site_fract_y
_atom_site_fract_z
Si Si1 0.697812 0.633406 0.686067
Si Si2 0.554178 0.878352 0.325438
Si Si3 0.996823 0.684575 0.133685
Si Si4 0.708783 0.116459 0.934145
Si Si5 0.174681 0.549736 0.235466
Si Si6 0.100162 0.182826 0.987390
Si Si7 0.926569 0.045903 0.602009
O O1 0.750000 0.750000 0.631878
O O2 0.750619 0.518047 0.730587
O O3 0.671660 0.762531 0.755351
O O4 0.635845 0.544531 0.645008
O O5 0.521550 0.808597 0.235861
O O6 0.575746 0.732584 0.384246
O O7 0.500000 0.000000 0.362856
O O8 0.618027 0.975325 0.294825
O O9 0.000000 0.500000 0.112956
O O10 0.943355 0.761342 0.070551
O O11 0.062579 0.770051 0.101428
O O12 0.750000 0.250000 0.886777
O O13 0.664235 0.215014 0.000258
O O14 0.669685 0.022059 0.860678
O O15 0.745774 0.000000 0.000000
O O16 0.107921 0.000000 0.000000
O O17 0.924789 0.000000 0.500000
O O18 0.000000 0.000000 0.635794
#
# Coordination Sequence:
#
# PCOD9323495 Si02
#       7
#     8   8   8   8   8   8   8
#     4   8  22  46  76 100 143 187 240 296 357 445
#     4  11  23  41  72 109 139 192 242 295 370 439
#     4  10  20  37  63  93 127 176 229 294 345 414
#     4  12  26  41  59  89 131 188 237 304 367 415
#     4   9  22  44  66 100 138 182 252 293 351 431
#     4  11  22  39  56  88 133 179 234 294 357 413
#     4  11  25  48  75 114 155 182 232 303 382 452
#
# _framework density 21.147743999999999
#
# number of rings (size 3 to 8) (size 9 to 14) (size 15 to 20)
#    0.857    0.714    1.429    3.857    6.000    1.143 
#    5.143    5.000    0.000    0.000    0.000    0.000 
#    0.000    0.000    0.000    0.000    0.000    0.000 
#
# Total GULP energy -156014.296609 kJ/mol
# GULP energy per Si atom -5571.939165 kJ/mol
# Density = 2.109961 g / cm^3
# Si number density = 21.147744 Si / 1000 Ang^3
#
#
#
# Elastic Constant Matrix: (Units=GPa)
#
#
# Indices 1 2 3 4 5 6 
#
# 1 119.9411 85.0000 29.6294 0.0000 0.0000 0.0000
# 2 85.0000 149.0254 60.4738 0.0000 0.0000 0.0000
# 3 29.6294 60.4738 47.8422 0.0000 0.0000 0.0000
# 4 0.0000 0.0000 0.0000 23.5177 0.0000 0.0000
# 5 0.0000 0.0000 0.0000 0.0000 31.1975 0.0000
# 6 0.0000 0.0000 0.0000 0.0000 0.0000 38.7314
#
#
#
# Elastic Compliance Matrix: (Units=1/GPa)
#
#
# Indices 1 2 3 4 5 6 
#
# 1 0.014196 -0.009299 0.002963 0.000000 0.000000 0.000000
# 2 -0.009299 0.019868 -0.019355 0.000000 0.000000 0.000000
# 3 0.002963 -0.019355 0.043533 0.000000 0.000000 0.000000
# 4 0.000000 0.000000 0.000000 0.042521 0.000000 0.000000
# 5 0.000000 0.000000 0.000000 0.000000 0.032054 0.000000
# 6 0.000000 0.000000 0.000000 0.000000 0.000000 0.025819
#
#
# Mechanical properties :
#
#
# Convention : Reuss Voigt Hill
#
# Bulk Modulus (GPa) = 38.14806 74.11279 56.13042
# Shear Modulus (GPa) = 20.99855 28.13635 24.56745
#
# Velocity S-wave (km/s) = 3.15452 3.65151 3.41208
# Velocity P-wave (km/s) = 5.59875 7.27320 6.49020
#
# Compressibility (1/GPa) = 0.02621365
#
# Stress axis : x y z
#
# Youngs Moduli (GPa) = 70.44451 50.33118 22.97118
#
# Poissons Ratio (x) = 0.46803 -0.06806
# Poissons Ratio (y) = 0.65506 0.44461
# Poissons Ratio (z) = -0.20870 0.97417
#
# Static dielectric constant tensor:
#      x y z
#    x 1.884740 0.000000 0.000000 
#    y 0.000000 1.839780 0.000000 
#    z 0.000000 0.000000 1.750660 
# 
# From -- ./inp_files/33291.got.cif
#   From: 2010.05.17/outbox.cif.g08.bks.cpg/sg21_17_cif.got.tgz:33291.got - 2010.06.03 23:14:55.
