data_PCOD9323551
_publ_section_title
;
Structure prediction by ZEFSAII (Michael W. Deem and Ramdas Pophale) SiO2 
 PCOD9323551
Probable space group: C 2 2 2
;
_chemical_formula_sum "Si O2"
_cell_formula_units_Z 48
_cell_length_a 27.013861
_cell_length_b 14.174583
_cell_length_c 5.982360
_cell_angle_alpha 90.000000
_cell_angle_beta 90.000000
_cell_angle_gamma 90.000000
_cell_volume 2290.706753
_symmetry_space_group_name_H-M "C 2 2 2"
_symmetry_group_IT_number 21
_symmetry_cell_setting 'orthorhombic'
loop_
_space_group_symop_operation_xyz
x,y,z
-x,-y,z
x,-y,-z
-x,y,-z
1/2+x,1/2+y,z
1/2-x,1/2-y,z
1/2+x,1/2-y,-z
1/2-x,1/2+y,-z
loop_
_atom_site_type_symbol
_atom_site_label
_atom_site_fract_x
_atom_site_fract_y
_atom_site_fract_z
Si Si1 0.379364 0.891972 0.548765
Si Si2 0.483341 0.890110 0.750048
Si Si3 0.691532 0.755204 0.199106
Si Si4 0.556645 0.396003 0.923136
Si Si5 0.120236 0.747286 0.178920
Si Si6 0.630563 0.605046 0.434618
O O1 0.423693 0.885090 0.728413
O O2 0.332750 0.832067 0.634940
O O3 0.397692 0.841815 0.320658
O O4 0.368207 0.000000 0.500000
O O5 0.500000 0.850811 0.500000
O O6 0.500000 0.000000 0.744654
O O7 0.500000 0.855354 0.000000
O O8 0.750000 0.750000 0.208161
O O9 0.667332 0.653507 0.258046
O O10 0.668463 0.780669 0.960157
O O11 0.574694 0.391858 0.666487
O O12 0.576408 0.500000 0.000000
O O13 0.500000 0.395379 0.000000
O O14 0.580985 0.303003 0.028487
O O15 0.133744 0.828150 0.354578
O O16 0.643456 0.500000 0.500000
#
# Coordination Sequence:
#
# PCOD9323551 Si02
#       6
#     8   8   8   8   8   8
#     4  11  24  45  67 100 141 189 237 296 362 444
#     4  10  21  40  67 100 140 191 241 284 355 432
#     4  10  25  45  67  97 131 175 237 306 368 434
#     4  10  20  38  62  97 136 177 225 274 341 422
#     4  10  23  42  62  94 135 175 228 292 352 423
#     4  10  20  41  68  91 129 171 219 282 351 423
#
# _framework density 20.954229999999999
#
# number of rings (size 3 to 8) (size 9 to 14) (size 15 to 20)
#    0.000    1.833    3.333    0.000    2.333    4.667 
#    9.000    2.500    0.000    0.000    0.000    0.000 
#    0.000    0.000    0.000    0.000    0.000    0.000 
#
# Total GULP energy -133826.936815 kJ/mol
# GULP energy per Si atom -5576.122367 kJ/mol
# Density = 2.090654 g / cm^3
# Si number density = 20.954230 Si / 1000 Ang^3
#
#
#
# Elastic Constant Matrix: (Units=GPa)
#
#
# Indices 1 2 3 4 5 6 
#
# 1 144.4122 38.9272 36.0517 0.0000 0.0000 0.0000
# 2 38.9272 146.1547 37.3344 0.0000 0.0000 0.0000
# 3 36.0517 37.3344 108.0406 0.0000 0.0000 0.0000
# 4 0.0000 0.0000 0.0000 16.0042 0.0000 0.0000
# 5 0.0000 0.0000 0.0000 0.0000 21.0597 0.0000
# 6 0.0000 0.0000 0.0000 0.0000 0.0000 19.4503
#
#
#
# Elastic Compliance Matrix: (Units=1/GPa)
#
#
# Indices 1 2 3 4 5 6 
#
# 1 0.007866 -0.001563 -0.002085 0.000000 0.000000 0.000000
# 2 -0.001563 0.007815 -0.002179 0.000000 0.000000 0.000000
# 3 -0.002085 -0.002179 0.010705 0.000000 0.000000 0.000000
# 4 0.000000 0.000000 0.000000 0.062484 0.000000 0.000000
# 5 0.000000 0.000000 0.000000 0.000000 0.047484 0.000000
# 6 0.000000 0.000000 0.000000 0.000000 0.000000 0.051413
#
#
# Mechanical properties :
#
#
# Convention : Reuss Voigt Hill
#
# Bulk Modulus (GPa) = 67.87699 69.24823 68.56261
# Shear Modulus (GPa) = 24.47016 30.38911 27.42963
#
# Velocity S-wave (km/s) = 3.42100 3.81236 3.62197
# Velocity P-wave (km/s) = 6.93308 7.24554 7.09104
#
# Compressibility (1/GPa) = 0.01473253
#
# Stress axis : x y z
#
# Youngs Moduli (GPa) = 127.12445 127.96108 93.41861
#
# Poissons Ratio (x) = 0.19995 0.19477
# Poissons Ratio (y) = 0.19864 0.20357
# Poissons Ratio (z) = 0.26505 0.27884
#
# Static dielectric constant tensor:
#      x y z
#    x 1.753420 0.000000 0.000000 
#    y 0.000000 1.741690 0.000000 
#    z 0.000000 0.000000 1.871310 
# 
# From -- ./inp_files/7326.got.cif
#   From: 2010.05.17/outbox.cif.g08.bks.cpg/sg21_4_cif.got.tgz:7326.got - 2010.06.03 23:14:55.
