data_PCOD9323889
_publ_section_title
;
Structure prediction by ZEFSAII (Michael W. Deem and Ramdas Pophale) SiO2 
 PCOD9323889
Probable space group: C 2 2 2
;
_chemical_formula_sum "Si O2"
_cell_formula_units_Z 40
_cell_length_a 16.131393
_cell_length_b 14.096104
_cell_length_c 8.538322
_cell_angle_alpha 90.000000
_cell_angle_beta 90.000000
_cell_angle_gamma 90.000000
_cell_volume 1941.527276
_symmetry_space_group_name_H-M "C 2 2 2"
_symmetry_group_IT_number 21
_symmetry_cell_setting 'orthorhombic'
loop_
_space_group_symop_operation_xyz
x,y,z
-x,-y,z
x,-y,-z
-x,y,-z
1/2+x,1/2+y,z
1/2-x,1/2-y,z
1/2+x,1/2-y,-z
1/2-x,1/2+y,-z
loop_
_atom_site_type_symbol
_atom_site_label
_atom_site_fract_x
_atom_site_fract_y
_atom_site_fract_z
Si Si1 0.114973 0.469940 0.320921
Si Si2 0.585317 0.407890 0.618997
Si Si3 0.597672 0.668448 0.682892
Si Si4 0.709110 0.505110 0.817661
Si Si5 0.477955 0.144482 0.819387
O O1 0.100030 0.500000 0.500000
O O2 0.211836 0.474775 0.284130
O O3 0.076283 0.550869 0.209429
O O4 0.062974 0.375839 0.277226
O O5 0.593971 0.500000 0.500000
O O6 0.492853 0.384109 0.676270
O O7 0.617678 0.326247 0.502631
O O8 0.638665 0.430153 0.769478
O O9 0.667577 0.606314 0.769784
O O10 0.576389 0.768441 0.757505
O O11 0.728970 0.500000 0.000000
O O12 0.500000 0.157638 0.000000
#
# Coordination Sequence:
#
# PCOD9323889 Si02
#       5
#     8   8   8   8   8
#     4  11  24  44  67  87 121 174 219 257 325 388
#     4   9  19  37  61  90 129 167 207 252 315 384
#     4  10  21  36  64  93 128 162 211 256 310 380
#     4  11  22  39  64  94 131 167 206 262 324 374
#     4  11  24  41  65  93 128 161 212 269 319 381
#
# _framework density 20.602336000000001
#
# number of rings (size 3 to 8) (size 9 to 14) (size 15 to 20)
#    0.000    1.600    0.000    9.600    8.400    1.600 
#    0.000    1.000    0.000    0.000    0.000    0.000 
#    0.000    0.000    0.000    0.000    0.000    0.000 
#
# Total GULP energy -111483.741896 kJ/mol
# GULP energy per Si atom -5574.187095 kJ/mol
# Density = 2.055544 g / cm^3
# Si number density = 20.602336 Si / 1000 Ang^3
#
#
#
# Elastic Constant Matrix: (Units=GPa)
#
#
# Indices 1 2 3 4 5 6 
#
# 1 55.9078 -1.2048 -18.1240 0.0000 0.0000 0.0000
# 2 -1.2048 46.6328 0.2553 0.0000 0.0000 0.0000
# 3 -18.1240 0.2553 67.4146 0.0000 0.0000 0.0000
# 4 0.0000 0.0000 0.0000 25.4071 0.0000 0.0000
# 5 0.0000 0.0000 0.0000 0.0000 49.2066 0.0000
# 6 0.0000 0.0000 0.0000 0.0000 0.0000 8.5524
#
#
#
# Elastic Compliance Matrix: (Units=1/GPa)
#
#
# Indices 1 2 3 4 5 6 
#
# 1 0.019605 0.000478 0.005269 0.000000 0.000000 0.000000
# 2 0.000478 0.021456 0.000047 0.000000 0.000000 0.000000
# 3 0.005269 0.000047 0.016250 0.000000 0.000000 0.000000
# 4 0.000000 0.000000 0.000000 0.039359 0.000000 0.000000
# 5 0.000000 0.000000 0.000000 0.000000 0.020322 0.000000
# 6 0.000000 0.000000 0.000000 0.000000 0.000000 0.116926
#
#
# Mechanical properties :
#
#
# Convention : Reuss Voigt Hill
#
# Bulk Modulus (GPa) = 14.51410 14.64533 14.57972
# Shear Modulus (GPa) = 20.38342 29.23513 24.80927
#
# Velocity S-wave (km/s) = 3.14884 3.77108 3.47392
# Velocity P-wave (km/s) = 4.50338 5.10738 4.81486
#
# Compressibility (1/GPa) = 0.06889851
#
# Stress axis : x y z
#
# Youngs Moduli (GPa) = 51.00755 46.60651 61.53876
#
# Poissons Ratio (x) = -0.02226 -0.32424
# Poissons Ratio (y) = -0.02437 -0.00290
# Poissons Ratio (z) = -0.26875 -0.00220
#
# Static dielectric constant tensor:
#      x y z
#    x 1.776770 0.000000 0.000000 
#    y 0.000000 1.803260 0.000000 
#    z 0.000000 0.000000 1.757610 
# 
# From -- ./inp_files/16295.got.cif
#   From: 2010.05.17/outbox.cif.g08.bks.cpg/sg21_9_cif.got.tgz:16295.got - 2010.06.03 23:14:55.
