data_PCOD9323280
_publ_section_title
;
Structure prediction by ZEFSAII (Michael W. Deem and Ramdas Pophale) SiO2 
 PCOD9323280
Probable space group: C 2 2 2
;
_chemical_formula_sum "Si O2"
_cell_formula_units_Z 56
_cell_length_a 8.032245
_cell_length_b 21.046616
_cell_length_c 15.291132
_cell_angle_alpha 90.000000
_cell_angle_beta 90.000000
_cell_angle_gamma 90.000000
_cell_volume 2584.989965
_symmetry_space_group_name_H-M "C 2 2 2"
_symmetry_group_IT_number 21
_symmetry_cell_setting 'orthorhombic'
loop_
_space_group_symop_operation_xyz
x,y,z
-x,-y,z
x,-y,-z
-x,y,-z
1/2+x,1/2+y,z
1/2-x,1/2-y,z
1/2+x,1/2-y,-z
1/2-x,1/2+y,-z
loop_
_atom_site_type_symbol
_atom_site_label
_atom_site_fract_x
_atom_site_fract_y
_atom_site_fract_z
Si Si1 0.198361 0.925832 0.999860
Si Si2 0.791939 0.643310 0.329618
Si Si3 0.301149 0.493980 0.397813
Si Si4 0.699099 0.176978 0.145959
Si Si5 0.312496 0.882373 0.325185
Si Si6 0.698823 0.820400 0.138848
Si Si7 0.301546 0.815116 0.489180
O O1 0.248839 0.881593 0.917636
O O2 0.248088 0.879736 0.080577
O O3 0.000000 0.930647 0.000000
O O4 0.262299 0.000000 0.000000
O O5 0.735978 0.573740 0.356285
O O6 0.733098 0.670194 0.237370
O O7 0.730614 0.682211 0.413756
O O8 0.993670 0.637986 0.326373
O O9 0.500000 0.500000 0.399465
O O10 0.240117 0.500000 0.500000
O O11 0.214920 0.542791 0.329876
O O12 0.750000 0.250000 0.126136
O O13 0.760038 0.154566 0.242242
O O14 0.499845 0.178433 0.142751
O O15 0.237721 0.865852 0.420441
O O16 0.750000 0.750000 0.105377
O O17 0.500000 0.820699 0.500000
O O18 0.250000 0.750000 0.445930
#
# Coordination Sequence:
#
# PCOD9323280 Si02
#       7
#     8   8   8   8   8   8   8
#     4  11  26  47  70  97 131 169 208 261 322 381
#     4  10  22  39  61  88 123 167 209 254 312 374
#     4  11  23  37  57  88 123 166 215 265 316 366
#     4  11  24  43  69  99 130 168 213 263 320 383
#     4  10  22  39  61  88 123 167 209 254 312 374
#     4  11  24  43  69  99 130 168 213 263 320 383
#     4  10  20  35  56  83 119 160 204 250 301 362
#
# _framework density 21.663526999999998
#
# number of rings (size 3 to 8) (size 9 to 14) (size 15 to 20)
#    0.000    1.429    1.429    3.000    2.000    5.143 
#    0.000    0.000    0.000    0.000    0.000    0.000 
#    0.000    0.000    0.000    0.000    0.000    0.000 
#
# Total GULP energy -156111.859204 kJ/mol
# GULP energy per Si atom -5575.423543 kJ/mol
# Density = 2.161422 g / cm^3
# Si number density = 21.663527 Si / 1000 Ang^3
#
#
#
# Elastic Constant Matrix: (Units=GPa)
#
#
# Indices 1 2 3 4 5 6 
#
# 1 27.7110 2.9947 23.4199 0.0000 0.0000 0.0000
# 2 2.9947 179.2327 60.3631 0.0000 0.0000 0.0000
# 3 23.4199 60.3631 125.1365 0.0000 0.0000 0.0000
# 4 0.0000 0.0000 0.0000 32.6022 0.0000 0.0000
# 5 0.0000 0.0000 0.0000 0.0000 12.0928 0.0000
# 6 0.0000 0.0000 0.0000 0.0000 0.0000 27.9222
#
#
#
# Elastic Compliance Matrix: (Units=1/GPa)
#
#
# Indices 1 2 3 4 5 6 
#
# 1 0.043728 0.002418 -0.009351 0.000000 0.000000 0.000000
# 2 0.002418 0.006795 -0.003731 0.000000 0.000000 0.000000
# 3 -0.009351 -0.003731 0.011541 0.000000 0.000000 0.000000
# 4 0.000000 0.000000 0.000000 0.030673 0.000000 0.000000
# 5 0.000000 0.000000 0.000000 0.000000 0.082694 0.000000
# 6 0.000000 0.000000 0.000000 0.000000 0.000000 0.035814
#
#
# Mechanical properties :
#
#
# Convention : Reuss Voigt Hill
#
# Bulk Modulus (GPa) = 24.54653 56.18173 40.36413
# Shear Modulus (GPa) = 20.31285 30.87692 25.59488
#
# Velocity S-wave (km/s) = 3.06543 3.77940 3.44099
# Velocity P-wave (km/s) = 4.88718 6.71083 5.87026
#
# Compressibility (1/GPa) = 0.04073895
#
# Stress axis : x y z
#
# Youngs Moduli (GPa) = 22.86865 147.15996 86.64911
#
# Poissons Ratio (x) = -0.35590 0.81021
# Poissons Ratio (y) = -0.05531 0.32325
# Poissons Ratio (z) = 0.21383 0.54899
#
# Static dielectric constant tensor:
#      x y z
#    x 1.634140 0.000000 0.000000 
#    y 0.000000 1.757910 0.000000 
#    z 0.000000 0.000000 1.849420 
# 
# From -- ./inp_files/30770.got.cif
#   From: 2010.05.17/outbox.cif.g08.bks.cpg/sg21_16_cif.got.tgz:30770.got - 2010.06.03 23:14:55.
