data_PCOD9323710
_publ_section_title
;
Structure prediction by ZEFSAII (Michael W. Deem and Ramdas Pophale) SiO2 
 PCOD9323710
Probable space group: C 2 2 2
;
_chemical_formula_sum "Si O2"
_cell_formula_units_Z 64
_cell_length_a 9.574969
_cell_length_b 23.182147
_cell_length_c 15.480321
_cell_angle_alpha 90.000000
_cell_angle_beta 90.000000
_cell_angle_gamma 90.000000
_cell_volume 3436.141138
_symmetry_space_group_name_H-M "C 2 2 2"
_symmetry_group_IT_number 21
_symmetry_cell_setting 'orthorhombic'
loop_
_space_group_symop_operation_xyz
x,y,z
-x,-y,z
x,-y,-z
-x,y,-z
1/2+x,1/2+y,z
1/2-x,1/2-y,z
1/2+x,1/2-y,-z
1/2-x,1/2+y,-z
loop_
_atom_site_type_symbol
_atom_site_label
_atom_site_fract_x
_atom_site_fract_y
_atom_site_fract_z
Si Si1 0.516799 0.359896 0.600689
Si Si2 0.408231 0.678114 0.914212
Si Si3 0.487389 0.560426 0.170169
Si Si4 0.421569 0.809518 0.907638
Si Si5 0.734632 0.576033 0.693578
Si Si6 0.781472 0.946417 0.319242
Si Si7 0.028849 0.366089 0.274686
Si Si8 0.411733 0.235979 0.411254
O O1 0.500000 0.351952 0.500000
O O2 0.380086 0.388260 0.640981
O O3 0.647659 0.402462 0.613955
O O4 0.538802 0.295321 0.635179
O O5 0.462047 0.621043 0.867085
O O6 0.431835 0.742462 0.877538
O O7 0.240987 0.675095 0.924600
O O8 0.500000 0.678861 0.000000
O O9 0.500000 0.500000 0.117710
O O10 0.334237 0.568733 0.211117
O O11 0.597159 0.549692 0.247576
O O12 0.473475 0.845138 0.824799
O O13 0.500000 0.816590 0.000000
O O14 0.747827 0.511895 0.653615
O O15 0.879765 0.608589 0.698705
O O16 0.644635 0.916039 0.282744
O O17 0.071616 0.315604 0.342381
O O18 0.500000 0.224951 0.500000
O O19 0.250000 0.250000 0.434028
#
# Coordination Sequence:
#
# PCOD9323710 Si02
#       8
#     8   8   8   8   8   8   8   8
#     4  10  22  41  64  89 127 165 209 261 316 381
#     4  10  21  38  63  86 121 152 207 260 312 367
#     4   9  19  38  60  85 119 160 206 253 305 368
#     4  10  24  41  61  94 127 162 205 265 320 376
#     4  10  24  37  60  94 124 157 216 261 310 366
#     4  10  20  41  62  88 120 166 209 262 306 378
#     4  12  24  39  69  91 128 173 209 252 336 372
#     4  11  26  43  66  96 132 167 210 260 313 384
#
# _framework density 18.625544999999999
#
# number of rings (size 3 to 8) (size 9 to 14) (size 15 to 20)
#    0.000    1.750    2.500    1.500   10.500    1.250 
#    0.000    0.000    0.000    3.750    0.000    0.000 
#    0.000    0.000    0.000    0.000    0.000    0.000 
#
# Total GULP energy -178293.752383 kJ/mol
# GULP energy per Si atom -5571.679762 kJ/mol
# Density = 1.858315 g / cm^3
# Si number density = 18.625545 Si / 1000 Ang^3
#
#
#
# Elastic Constant Matrix: (Units=GPa)
#
#
# Indices 1 2 3 4 5 6 
#
# 1 108.9296 43.2063 21.3475 0.0000 0.0000 0.0000
# 2 43.2063 112.3933 14.7725 0.0000 0.0000 0.0000
# 3 21.3475 14.7725 35.3892 0.0000 0.0000 0.0000
# 4 0.0000 0.0000 0.0000 1.3037 0.0000 0.0000
# 5 0.0000 0.0000 0.0000 0.0000 21.7159 0.0000
# 6 0.0000 0.0000 0.0000 0.0000 0.0000 28.5503
#
#
#
# Elastic Compliance Matrix: (Units=1/GPa)
#
#
# Indices 1 2 3 4 5 6 
#
# 1 0.011767 -0.003799 -0.005512 0.000000 0.000000 0.000000
# 2 -0.003799 0.010640 -0.002150 0.000000 0.000000 0.000000
# 3 -0.005512 -0.002150 0.032480 0.000000 0.000000 0.000000
# 4 0.000000 0.000000 0.000000 0.767039 0.000000 0.000000
# 5 0.000000 0.000000 0.000000 0.000000 0.046049 0.000000
# 6 0.000000 0.000000 0.000000 0.000000 0.000000 0.035026
#
#
# Mechanical properties :
#
#
# Convention : Reuss Voigt Hill
#
# Bulk Modulus (GPa) = 31.28455 46.15163 38.71809
# Shear Modulus (GPa) = 5.33858 22.13970 13.73914
#
# Velocity S-wave (km/s) = 1.69484 3.45146 2.71892
# Velocity P-wave (km/s) = 4.54566 6.38090 5.53981
#
# Compressibility (1/GPa) = 0.03196466
#
# Stress axis : x y z
#
# Youngs Moduli (GPa) = 84.98020 93.98185 30.78829
#
# Poissons Ratio (x) = 0.35705 0.16972
# Poissons Ratio (y) = 0.32285 0.06619
# Poissons Ratio (z) = 0.46845 0.20205
#
# Static dielectric constant tensor:
#      x y z
#    x 1.631950 0.000000 0.000000 
#    y 0.000000 1.731880 0.000000 
#    z 0.000000 0.000000 1.658430 
# 
# From -- ./inp_files/35908.got.cif
#   From: 2010.05.17/outbox.cif.g08.bks.cpg/sg21_18_cif.got.tgz:35908.got - 2010.06.03 23:14:55.
