data_PCOD9323725
_publ_section_title
;
Structure prediction by ZEFSAII (Michael W. Deem and Ramdas Pophale) SiO2 
 PCOD9323725
Probable space group: C 2 2 2
;
_chemical_formula_sum "Si O2"
_cell_formula_units_Z 48
_cell_length_a 7.557955
_cell_length_b 34.491060
_cell_length_c 8.732197
_cell_angle_alpha 90.000000
_cell_angle_beta 90.000000
_cell_angle_gamma 90.000000
_cell_volume 2276.325525
_symmetry_space_group_name_H-M "C 2 2 2"
_symmetry_group_IT_number 21
_symmetry_cell_setting 'orthorhombic'
loop_
_space_group_symop_operation_xyz
x,y,z
-x,-y,z
x,-y,-z
-x,y,-z
1/2+x,1/2+y,z
1/2-x,1/2-y,z
1/2+x,1/2-y,-z
1/2-x,1/2+y,-z
loop_
_atom_site_type_symbol
_atom_site_label
_atom_site_fract_x
_atom_site_fract_y
_atom_site_fract_z
Si Si1 0.500000 0.000000 0.000000
Si Si2 0.000000 0.253300 0.500000
Si Si3 0.761314 0.565361 0.092094
Si Si4 0.691515 0.691396 0.377498
Si Si5 0.417169 0.151235 0.151044
Si Si6 0.173041 0.373445 0.589926
Si Si7 0.000000 0.000000 0.500000
Si Si8 0.107858 0.940317 0.252952
O O1 0.608605 0.970889 0.109552
O O2 0.159453 0.282192 0.462148
O O3 0.022247 0.219803 0.368451
O O4 0.852976 0.607171 0.114515
O O5 0.598231 0.564384 0.208709
O O6 0.695337 0.557558 0.916755
O O7 0.757908 0.676774 0.214849
O O8 0.705733 0.652643 0.479557
O O9 0.570881 0.150344 0.278466
O O10 0.500000 0.168272 0.000000
O O11 0.297593 0.404358 0.668274
O O12 0.000000 0.390080 0.500000
O O13 0.886821 0.026055 0.380767
#
# Coordination Sequence:
#
# PCOD9323725 Si02
#       8
#     2   4   8   8   8   8   2   8
#     4  12  20  42  68  94 120 202 220 286 344 450
#     4  10  20  41  66  96 138 180 218 276 348 411
#     4  11  24  41  70  91 138 177 234 279 378 414
#     4  10  22  38  68  98 134 182 224 276 342 422
#     4  11  20  40  66 100 129 177 227 286 338 428
#     4  10  21  40  65  97 131 176 230 280 335 417
#     4  12  28  40  62  92 136 166 230 300 336 410
#     4  11  25  45  61  99 129 182 226 301 343 426
#
# _framework density 21.086614000000001
#
# number of rings (size 3 to 8) (size 9 to 14) (size 15 to 20)
#    0.000    1.333    5.000    1.000    7.000    1.333 
#    3.000    0.000    7.333    0.000    0.000    0.000 
#    0.000    0.000    0.000    0.000    0.000    0.000 
#
# Total GULP energy -133636.958151 kJ/mol
# GULP energy per Si atom -5568.206590 kJ/mol
# Density = 2.103862 g / cm^3
# Si number density = 21.086614 Si / 1000 Ang^3
#
#
#
# Elastic Constant Matrix: (Units=GPa)
#
#
# Indices 1 2 3 4 5 6 
#
# 1 73.7869 34.4763 22.1694 0.0000 0.0000 0.0000
# 2 34.4763 89.8182 26.4369 0.0000 0.0000 0.0000
# 3 22.1694 26.4369 109.0017 0.0000 0.0000 0.0000
# 4 0.0000 0.0000 0.0000 -8.3553 0.0000 0.0000
# 5 0.0000 0.0000 0.0000 0.0000 21.0130 0.0000
# 6 0.0000 0.0000 0.0000 0.0000 0.0000 10.2266
#
#
#
# Elastic Compliance Matrix: (Units=1/GPa)
#
#
# Indices 1 2 3 4 5 6 
#
# 1 0.016913 -0.005901 -0.002009 0.000000 0.000000 0.000000
# 2 -0.005901 0.014048 -0.002207 0.000000 0.000000 0.000000
# 3 -0.002009 -0.002207 0.010118 0.000000 0.000000 0.000000
# 4 0.000000 0.000000 0.000000 -0.119685 0.000000 0.000000
# 5 0.000000 0.000000 0.000000 0.000000 0.047590 0.000000
# 6 0.000000 0.000000 0.000000 0.000000 0.000000 0.097784
#
#
# Mechanical properties :
#
#
# Convention : Reuss Voigt Hill
#
# Bulk Modulus (GPa) = 47.97038 48.75243 48.36140
# Shear Modulus (GPa) = 53.22002 17.21182 35.21592
#
# Velocity S-wave (km/s) = 5.02927 2.86010 4.09107
# Velocity P-wave (km/s) = 7.51820 5.83756 6.73055
#
# Compressibility (1/GPa) = 0.02084620
#
# Stress axis : x y z
#
# Youngs Moduli (GPa) = 59.12550 71.18338 98.83363
#
# Poissons Ratio (x) = 0.42004 0.19853
# Poissons Ratio (y) = 0.34889 0.21813
# Poissons Ratio (z) = 0.11877 0.15711
#
# Static dielectric constant tensor:
#      x y z
#    x 1.917380 0.000000 0.000000 
#    y 0.000000 1.777620 0.000000 
#    z 0.000000 0.000000 1.842360 
# 
# From -- ./inp_files/11618.got.cif
#   From: 2010.05.17/outbox.cif.g08.bks.cpg/sg21_6_cif.got.tgz:11618.got - 2010.06.03 23:14:55.
