data_PCOD9323368
_publ_section_title
;
Structure prediction by ZEFSAII (Michael W. Deem and Ramdas Pophale) SiO2 
 PCOD9323368
Probable space group: C 2 2 2
;
_chemical_formula_sum "Si O2"
_cell_formula_units_Z 48
_cell_length_a 8.338689
_cell_length_b 15.539491
_cell_length_c 18.258247
_cell_angle_alpha 90.000000
_cell_angle_beta 90.000000
_cell_angle_gamma 90.000000
_cell_volume 2365.885072
_symmetry_space_group_name_H-M "C 2 2 2"
_symmetry_group_IT_number 21
_symmetry_cell_setting 'orthorhombic'
loop_
_space_group_symop_operation_xyz
x,y,z
-x,-y,z
x,-y,-z
-x,y,-z
1/2+x,1/2+y,z
1/2-x,1/2-y,z
1/2+x,1/2-y,-z
1/2-x,1/2+y,-z
loop_
_atom_site_type_symbol
_atom_site_label
_atom_site_fract_x
_atom_site_fract_y
_atom_site_fract_z
Si Si1 0.559318 0.765230 0.421623
Si Si2 0.560794 0.262882 0.923206
Si Si3 0.537243 0.595045 0.345610
Si Si4 0.914129 0.592043 0.304684
Si Si5 0.144154 0.162319 0.795999
Si Si6 0.952357 0.592811 0.856440
O O1 0.500000 0.796661 0.500000
O O2 0.750000 0.750000 0.423588
O O3 0.496748 0.670206 0.402797
O O4 0.518330 0.832324 0.356921
O O5 0.750000 0.250000 0.922279
O O6 0.493702 0.315171 0.854116
O O7 0.481928 0.169042 0.912499
O O8 0.500000 0.300250 0.000000
O O9 0.500000 0.500000 0.372948
O O10 0.724574 0.593087 0.321713
O O11 0.432205 0.620953 0.275327
O O12 0.000000 0.500000 0.319843
O O13 0.948185 0.610196 0.219023
O O14 0.250000 0.250000 0.782811
O O15 0.268787 0.095975 0.831271
O O16 0.000000 0.500000 0.884781
#
# Coordination Sequence:
#
# PCOD9323368 Si02
#       6
#     8   8   8   8   8   8
#     4  10  23  39  57  81 114 152 191 234 289 348
#     4  11  22  38  58  82 115 155 194 235 283 342
#     4  11  22  37  59  87 115 149 193 241 287 343
#     4  10  21  39  60  86 115 150 192 239 291 343
#     4  10  21  37  60  87 114 151 194 235 286 344
#     4  10  20  36  59  86 115 148 186 235 288 340
#
# _framework density 20.288392000000002
#
# number of rings (size 3 to 8) (size 9 to 14) (size 15 to 20)
#    0.000    1.667    0.000    6.500    0.000    5.667 
#    0.000    3.333    0.000    3.500    0.000    0.000 
#    0.000    0.000    0.000    0.000    0.000    0.000 
#
# Total GULP energy -134069.264771 kJ/mol
# GULP energy per Si atom -5586.219365 kJ/mol
# Density = 2.024221 g / cm^3
# Si number density = 20.288392 Si / 1000 Ang^3
#
#
#
# Elastic Constant Matrix: (Units=GPa)
#
#
# Indices 1 2 3 4 5 6 
#
# 1 69.5332 -13.1760 -16.0446 0.0000 0.0000 0.0000
# 2 -13.1760 75.7787 0.8140 0.0000 0.0000 0.0000
# 3 -16.0446 0.8140 32.9813 0.0000 0.0000 0.0000
# 4 0.0000 0.0000 0.0000 37.0204 0.0000 0.0000
# 5 0.0000 0.0000 0.0000 0.0000 15.0676 0.0000
# 6 0.0000 0.0000 0.0000 0.0000 0.0000 27.7246
#
#
#
# Elastic Compliance Matrix: (Units=1/GPa)
#
#
# Indices 1 2 3 4 5 6 
#
# 1 0.016786 0.002832 0.008096 0.000000 0.000000 0.000000
# 2 0.002832 0.013678 0.001040 0.000000 0.000000 0.000000
# 3 0.008096 0.001040 0.034233 0.000000 0.000000 0.000000
# 4 0.000000 0.000000 0.000000 0.027012 0.000000 0.000000
# 5 0.000000 0.000000 0.000000 0.000000 0.066368 0.000000
# 6 0.000000 0.000000 0.000000 0.000000 0.000000 0.036069
#
#
# Mechanical properties :
#
#
# Convention : Reuss Voigt Hill
#
# Bulk Modulus (GPa) = 11.28245 13.49779 12.39012
# Shear Modulus (GPa) = 25.03077 29.74251 27.38664
#
# Velocity S-wave (km/s) = 3.51629 3.83297 3.67804
# Velocity P-wave (km/s) = 4.69668 5.12409 4.91503
#
# Compressibility (1/GPa) = 0.08863324
#
# Stress axis : x y z
#
# Youngs Moduli (GPa) = 59.57195 73.11273 29.21142
#
# Poissons Ratio (x) = -0.20704 -0.23650
# Poissons Ratio (y) = -0.16869 -0.03038
# Poissons Ratio (z) = -0.48231 -0.07604
#
# Static dielectric constant tensor:
#      x y z
#    x 1.718750 0.000000 0.000000 
#    y 0.000000 1.734400 0.000000 
#    z 0.000000 0.000000 1.696810 
# 
# From -- ./inp_files/35656.got.cif
#   From: 2010.05.17/outbox.cif.g08.bks.cpg/sg21_18_cif.got.tgz:35656.got - 2010.06.03 23:14:55.
