data_PCOD9323083
_publ_section_title
;
Structure prediction by ZEFSAII (Michael W. Deem and Ramdas Pophale) SiO2 
 PCOD9323083
Probable space group: C 2 2 2
;
_chemical_formula_sum "Si O2"
_cell_formula_units_Z 32
_cell_length_a 5.496110
_cell_length_b 12.628281
_cell_length_c 20.452037
_cell_angle_alpha 90.000000
_cell_angle_beta 90.000000
_cell_angle_gamma 90.000000
_cell_volume 1419.502700
_symmetry_space_group_name_H-M "C 2 2 2"
_symmetry_group_IT_number 21
_symmetry_cell_setting 'orthorhombic'
loop_
_space_group_symop_operation_xyz
x,y,z
-x,-y,z
x,-y,-z
-x,y,-z
1/2+x,1/2+y,z
1/2-x,1/2-y,z
1/2+x,1/2-y,-z
1/2-x,1/2+y,-z
loop_
_atom_site_type_symbol
_atom_site_label
_atom_site_fract_x
_atom_site_fract_y
_atom_site_fract_z
Si Si1 0.750000 0.250000 0.278253
Si Si2 0.500000 0.818095 0.000000
Si Si3 0.132169 0.894485 0.649767
Si Si4 0.750000 0.250000 0.539987
Si Si5 0.500000 0.000000 0.896268
Si Si6 0.360842 0.132809 0.214603
O O1 0.553713 0.303660 0.325397
O O2 0.640549 0.161356 0.230304
O O3 0.250000 0.750000 0.987148
O O4 0.569000 0.900255 0.941525
O O5 0.278898 0.849331 0.588998
O O6 0.274003 0.914686 0.716861
O O7 0.000000 0.000000 0.629230
O O8 0.500000 0.262975 0.500000
O O9 0.684673 0.055350 0.845288
O O10 0.250000 0.250000 0.203544
#
# Coordination Sequence:
#
# PCOD9323083 Si02
#       6
#     4   4   8   4   4   8
#     4  10  19  40  66 102 147 176 224 312 370 431
#     4  11  28  55  74 106 160 203 252 299 356 440
#     4  11  23  44  70 100 140 186 239 303 373 437
#     4  12  27  50  72  98 145 196 246 302 370 449
#     4  11  24  44  76 110 141 204 250 300 367 442
#     4  10  21  40  68 109 142 183 237 310 374 428
#
# _framework density 22.543109000000001
#
# number of rings (size 3 to 8) (size 9 to 14) (size 15 to 20)
#    0.000    1.250    3.750    3.000    1.750    2.500 
#   13.500    3.750    0.000    0.000    0.000    0.000 
#    0.000    0.000    0.000    0.000    0.000    0.000 
#
# Total GULP energy -89224.879033 kJ/mol
# GULP energy per Si atom -5576.554940 kJ/mol
# Density = 2.249180 g / cm^3
# Si number density = 22.543109 Si / 1000 Ang^3
#
#
#
# Elastic Constant Matrix: (Units=GPa)
#
#
# Indices 1 2 3 4 5 6 
#
# 1 73.9427 25.9832 29.7376 0.0000 0.0000 0.0000
# 2 25.9832 130.8157 51.4011 0.0000 0.0000 0.0000
# 3 29.7376 51.4011 130.6078 0.0000 0.0000 0.0000
# 4 0.0000 0.0000 0.0000 -762.3173 0.0000 0.0000
# 5 0.0000 0.0000 0.0000 0.0000 27.3256 0.0000
# 6 0.0000 0.0000 0.0000 0.0000 0.0000 35.5688
#
#
#
# Elastic Compliance Matrix: (Units=1/GPa)
#
#
# Indices 1 2 3 4 5 6 
#
# 1 0.015307 -0.001977 -0.002707 0.000000 0.000000 0.000000
# 2 -0.001977 0.009298 -0.003209 0.000000 0.000000 0.000000
# 3 -0.002707 -0.003209 0.009536 0.000000 0.000000 0.000000
# 4 0.000000 0.000000 0.000000 -0.001312 0.000000 0.000000
# 5 0.000000 0.000000 0.000000 0.000000 0.036596 0.000000
# 6 0.000000 0.000000 0.000000 0.000000 0.000000 0.028115
#
#
# Mechanical properties :
#
#
# Convention : Reuss Voigt Hill
#
# Bulk Modulus (GPa) = 54.48138 61.06777 57.77457
# Shear Modulus (GPa) = 41.86050 -124.66829 -41.40390
#
# Velocity S-wave (km/s) = 4.31386 -7.44461 -4.29027
# Velocity P-wave (km/s) = 7.00233 6.83726 1.06875
#
# Compressibility (1/GPa) = 0.01835489
#
# Stress axis : x y z
#
# Youngs Moduli (GPa) = 65.32792 107.55088 104.86664
#
# Poissons Ratio (x) = 0.21259 0.28391
# Poissons Ratio (y) = 0.12913 0.33654
# Poissons Ratio (z) = 0.17687 0.34515
#
# Static dielectric constant tensor:
#      x y z
#    x 1.970400 0.000000 0.000000 
#    y 0.000000 1.865190 0.000000 
#    z 0.000000 0.000000 1.855840 
# 
# From -- ./inp_files/34521.got.cif
#   From: 2010.05.17/outbox.cif.g08.bks.cpg/sg21_18_cif.got.tgz:34521.got - 2010.06.03 23:14:55.
