data_PCOD9323529
_publ_section_title
;
Structure prediction by ZEFSAII (Michael W. Deem and Ramdas Pophale) SiO2 
 PCOD9323529
Probable space group: C 2 2 2
;
_chemical_formula_sum "Si O2"
_cell_formula_units_Z 30
_cell_length_a 20.012764
_cell_length_b 11.902262
_cell_length_c 3.916834
_cell_angle_alpha 90.000000
_cell_angle_beta 90.000000
_cell_angle_gamma 90.000000
_cell_volume 932.978737
_symmetry_space_group_name_H-M "C 2 2 2"
_symmetry_group_IT_number 21
_symmetry_cell_setting 'orthorhombic'
loop_
_space_group_symop_operation_xyz
x,y,z
-x,-y,z
x,-y,-z
-x,y,-z
1/2+x,1/2+y,z
1/2-x,1/2-y,z
1/2+x,1/2-y,-z
1/2-x,1/2+y,-z
loop_
_atom_site_type_symbol
_atom_site_label
_atom_site_fract_x
_atom_site_fract_y
_atom_site_fract_z
Si Si1 0.500000 0.000000 0.000000
Si Si2 0.198045 0.833800 0.575590
Si Si3 0.000000 0.181233 0.500000
Si Si4 0.293638 0.000000 0.000000
Si Si5 0.601860 0.174196 0.027028
Si Si6 0.596160 0.500000 0.500000
O O1 0.551577 0.912016 0.171625
O O2 0.250000 0.750000 0.396998
O O3 0.245746 0.918657 0.782578
O O4 0.149338 0.911467 0.346962
O O5 0.148568 0.754350 0.797207
O O6 0.050641 0.254020 0.734410
O O7 0.047972 0.088916 0.311533
O O8 0.344889 0.086470 0.813072
#
# Coordination Sequence:
#
# PCOD9323529 Si02
#       6
#     2   8   4   4   8   4
#     4  10  20  38  60  86 124 168 212 258 332 406
#     4  10  21  40  65  93 131 173 222 283 339 402
#     4  11  24  39  60  92 132 173 222 279 332 412
#     4   9  20  39  66  93 122 173 220 272 350 401
#     4  10  21  39  63  91 126 172 219 271 340 403
#     4  11  24  38  58  94 128 173 228 274 336 399
#
# _framework density 32.155073999999999
#
# number of rings (size 3 to 8) (size 9 to 14) (size 15 to 20)
#    0.000    1.867    0.000    3.200    0.000    2.667 
#    0.000    2.667    0.000    0.000    0.000    0.000 
#    0.000    0.000    0.000    0.000    0.000    0.000 
#
# Total GULP energy -83657.283379 kJ/mol
# GULP energy per Si atom -5577.152225 kJ/mol
# Density = 3.208189 g / cm^3
# Si number density = 32.155074 Si / 1000 Ang^3
#
#
#
# Elastic Constant Matrix: (Units=GPa)
#
#
# Indices 1 2 3 4 5 6 
#
# 1 292.6513 189.5008 98.3180 0.0000 0.0000 0.0000
# 2 189.5008 268.5605 101.5632 0.0000 0.0000 0.0000
# 3 98.3180 101.5632 83.6555 0.0000 0.0000 0.0000
# 4 0.0000 0.0000 0.0000 67.0636 0.0000 0.0000
# 5 0.0000 0.0000 0.0000 0.0000 92.8279 0.0000
# 6 0.0000 0.0000 0.0000 0.0000 0.0000 227.5863
#
#
#
# Elastic Compliance Matrix: (Units=1/GPa)
#
#
# Indices 1 2 3 4 5 6 
#
# 1 0.006981 -0.003371 -0.004113 0.000000 0.000000 0.000000
# 2 -0.003371 0.008512 -0.006372 0.000000 0.000000 0.000000
# 3 -0.004113 -0.006372 0.024524 0.000000 0.000000 0.000000
# 4 0.000000 0.000000 0.000000 0.014911 0.000000 0.000000
# 5 0.000000 0.000000 0.000000 0.000000 0.010773 0.000000
# 6 0.000000 0.000000 0.000000 0.000000 0.000000 0.004394
#
#
# Mechanical properties :
#
#
# Convention : Reuss Voigt Hill
#
# Bulk Modulus (GPa) = 81.26545 158.18125 119.72335
# Shear Modulus (GPa) = 49.06363 94.52792 71.79577
#
# Velocity S-wave (km/s) = 3.91044 5.42783 4.73038
# Velocity P-wave (km/s) = 6.76140 9.41179 8.19446
#
# Compressibility (1/GPa) = 0.01230535
#
# Stress axis : x y z
#
# Youngs Moduli (GPa) = 143.23581 117.48048 40.77706
#
# Poissons Ratio (x) = 0.39603 0.16770
# Poissons Ratio (y) = 0.48285 0.25985
# Poissons Ratio (z) = 0.58907 0.74863
#
# Static dielectric constant tensor:
#      x y z
#    x 2.460290 0.000000 0.000000 
#    y 0.000000 2.435980 0.000000 
#    z 0.000000 0.000000 2.656660 
# 
# From -- ./inp_files/2464.got.cif
#   From: 2010.05.17/outbox.cif.g08.bks.cpg/sg21_2_cif.got.tgz:2464.got - 2010.06.03 23:14:55.
