data_PCOD9323180
_publ_section_title
;
Structure prediction by ZEFSAII (Michael W. Deem and Ramdas Pophale) SiO2 
 PCOD9323180
Probable space group: C 2 2 2
;
_chemical_formula_sum "Si O2"
_cell_formula_units_Z 40
_cell_length_a 5.189702
_cell_length_b 19.005828
_cell_length_c 20.467016
_cell_angle_alpha 90.000000
_cell_angle_beta 90.000000
_cell_angle_gamma 90.000000
_cell_volume 2018.755600
_symmetry_space_group_name_H-M "C 2 2 2"
_symmetry_group_IT_number 21
_symmetry_cell_setting 'orthorhombic'
loop_
_space_group_symop_operation_xyz
x,y,z
-x,-y,z
x,-y,-z
-x,y,-z
1/2+x,1/2+y,z
1/2-x,1/2-y,z
1/2+x,1/2-y,-z
1/2-x,1/2+y,-z
loop_
_atom_site_type_symbol
_atom_site_label
_atom_site_fract_x
_atom_site_fract_y
_atom_site_fract_z
Si Si1 0.752361 0.164401 0.460832
Si Si2 0.750000 0.750000 0.239563
Si Si3 0.884510 0.642140 0.138647
Si Si4 0.133202 0.924638 0.191800
Si Si5 0.862690 0.170733 0.312152
Si Si6 0.500000 0.205139 0.000000
O O1 0.500000 0.140635 0.500000
O O2 0.750000 0.250000 0.462643
O O3 0.790915 0.147535 0.384744
O O4 0.000000 0.139348 0.500000
O O5 0.933289 0.708785 0.187649
O O6 0.654012 0.689602 0.289652
O O7 0.592796 0.620090 0.156257
O O8 0.910938 0.663021 0.063694
O O9 0.099916 0.583251 0.152920
O O10 0.204767 0.889399 0.260996
O O11 0.000000 0.000000 0.199620
O O12 0.750000 0.250000 0.303374
O O13 0.250000 0.250000 0.979763
#
# Coordination Sequence:
#
# PCOD9323180 Si02
#       6
#     8   4   8   8   8   4
#     4   9  19  30  47  78 119 148 183 238 303 366
#     4  10  20  34  58  92 122 154 204 264 314 366
#     4  11  23  40  61  91 123 161 205 264 312 380
#     4  11  24  42  62  89 125 165 210 261 316 377
#     4  10  20  33  60  86 117 157 204 252 313 368
#     4  12  24  38  65  96 129 160 210 262 324 376
#
# _framework density 19.814184999999998
#
# number of rings (size 3 to 8) (size 9 to 14) (size 15 to 20)
#    0.000    1.600    3.000    1.800    9.800    0.000 
#    0.000    3.000    0.000    0.600    0.000    1.400 
#    0.000    0.000    0.000    0.000    0.000    0.000 
#
# Total GULP energy -111360.242905 kJ/mol
# GULP energy per Si atom -5568.012145 kJ/mol
# Density = 1.976909 g / cm^3
# Si number density = 19.814185 Si / 1000 Ang^3
#
#
#
# Elastic Constant Matrix: (Units=GPa)
#
#
# Indices 1 2 3 4 5 6 
#
# 1 97.2509 11.8600 54.1224 0.0000 0.0000 0.0000
# 2 11.8600 57.1446 36.0467 0.0000 0.0000 0.0000
# 3 54.1224 36.0467 185.6639 0.0000 0.0000 0.0000
# 4 0.0000 0.0000 0.0000 -24.1798 0.0000 0.0000
# 5 0.0000 0.0000 0.0000 0.0000 29.2509 0.0000
# 6 0.0000 0.0000 0.0000 0.0000 0.0000 28.3774
#
#
#
# Elastic Compliance Matrix: (Units=1/GPa)
#
#
# Indices 1 2 3 4 5 6 
#
# 1 0.012279 -0.000331 -0.003515 0.000000 0.000000 0.000000
# 2 -0.000331 0.019951 -0.003777 0.000000 0.000000 0.000000
# 3 -0.003515 -0.003777 0.007144 0.000000 0.000000 0.000000
# 4 0.000000 0.000000 0.000000 -0.041357 0.000000 0.000000
# 5 0.000000 0.000000 0.000000 0.000000 0.034187 0.000000
# 6 0.000000 0.000000 0.000000 0.000000 0.000000 0.035239
#
#
# Mechanical properties :
#
#
# Convention : Reuss Voigt Hill
#
# Bulk Modulus (GPa) = 41.44627 60.45749 50.95188
# Shear Modulus (GPa) = 55.10697 22.55838 38.83268
#
# Velocity S-wave (km/s) = 5.27942 3.37782 4.43181
# Velocity P-wave (km/s) = 7.62403 6.76693 7.20823
#
# Compressibility (1/GPa) = 0.02412762
#
# Stress axis : x y z
#
# Youngs Moduli (GPa) = 81.43731 50.12369 139.97598
#
# Poissons Ratio (x) = 0.01660 0.49205
# Poissons Ratio (y) = 0.02696 0.52868
# Poissons Ratio (z) = 0.28627 0.18931
#
# Static dielectric constant tensor:
#      x y z
#    x 1.999330 0.000000 0.000000 
#    y 0.000000 1.726020 0.000000 
#    z 0.000000 0.000000 1.679400 
# 
# From -- ./inp_files/34893.got.cif
#   From: 2010.05.17/outbox.cif.g08.bks.cpg/sg21_18_cif.got.tgz:34893.got - 2010.06.03 23:14:55.
