data_PCOD9323161
_publ_section_title
;
Structure prediction by ZEFSAII (Michael W. Deem and Ramdas Pophale) SiO2 
 PCOD9323161
Probable space group: C 2 2 2
;
_chemical_formula_sum "Si O2"
_cell_formula_units_Z 34
_cell_length_a 5.424548
_cell_length_b 14.221124
_cell_length_c 20.177076
_cell_angle_alpha 90.000000
_cell_angle_beta 90.000000
_cell_angle_gamma 90.000000
_cell_volume 1556.523599
_symmetry_space_group_name_H-M "C 2 2 2"
_symmetry_group_IT_number 21
_symmetry_cell_setting 'orthorhombic'
loop_
_space_group_symop_operation_xyz
x,y,z
-x,-y,z
x,-y,-z
-x,y,-z
1/2+x,1/2+y,z
1/2-x,1/2-y,z
1/2+x,1/2-y,-z
1/2-x,1/2+y,-z
loop_
_atom_site_type_symbol
_atom_site_label
_atom_site_fract_x
_atom_site_fract_y
_atom_site_fract_z
Si Si1 0.000634 0.311766 0.572528
Si Si2 0.892612 0.106789 0.933480
Si Si3 0.500000 0.000000 0.000000
Si Si4 0.000600 0.115482 0.788204
Si Si5 0.001839 0.389150 0.282750
O O1 0.750000 0.250000 0.575783
O O2 0.009754 0.371852 0.638967
O O3 0.000000 0.360407 0.500000
O O4 0.250000 0.250000 0.573648
O O5 0.960178 0.149853 0.863533
O O6 0.000000 0.000000 0.933046
O O7 0.000000 0.153878 0.000000
O O8 0.615217 0.076472 0.948753
O O9 0.256699 0.145647 0.754835
O O10 0.762598 0.144908 0.745900
O O11 0.000000 0.000000 0.790054
O O12 0.000000 0.500000 0.270890
#
# Coordination Sequence:
#
# PCOD9323161 Si02
#       5
#     8   8   2   8   8
#     4  10  21  38  59  79 103 135 172 213 256 307
#     4   8  15  22  35  58  90 137 178 204 249 299
#     4   8  14  20  36  54  88 136 188 208 234 312
#     4   9  18  28  44  67 105 139 169 208 257 307
#     4  10  20  33  51  78 107 137 169 209 262 310
#
# _framework density 21.84355
#
# number of rings (size 3 to 8) (size 9 to 14) (size 15 to 20)
#    0.000    3.059    0.000    1.412   11.529    0.471 
#    0.000    0.000    0.000    8.471    0.000    0.000 
#    0.000   18.824    0.000    0.000    0.000    0.000 
#
# Total GULP energy -94654.154994 kJ/mol
# GULP energy per Si atom -5567.891470 kJ/mol
# Density = 2.179383 g / cm^3
# Si number density = 21.843550 Si / 1000 Ang^3
#
#
#
# Elastic Constant Matrix: (Units=GPa)
#
#
# Indices 1 2 3 4 5 6 
#
# 1 151.7595 11.9137 77.9684 0.0000 0.0000 0.0000
# 2 11.9137 47.4310 9.3278 0.0000 0.0000 0.0000
# 3 77.9684 9.3278 205.5709 0.0000 0.0000 0.0000
# 4 0.0000 0.0000 0.0000 295.6405 0.0000 0.0000
# 5 0.0000 0.0000 0.0000 0.0000 50.5161 0.0000
# 6 0.0000 0.0000 0.0000 0.0000 0.0000 -14.5122
#
#
#
# Elastic Compliance Matrix: (Units=1/GPa)
#
#
# Indices 1 2 3 4 5 6 
#
# 1 0.008285 -0.001476 -0.003075 0.000000 0.000000 0.000000
# 2 -0.001476 0.021536 -0.000417 0.000000 0.000000 0.000000
# 3 -0.003075 -0.000417 0.006050 0.000000 0.000000 0.000000
# 4 0.000000 0.000000 0.000000 0.003382 0.000000 0.000000
# 5 0.000000 0.000000 0.000000 0.000000 0.019796 0.000000
# 6 0.000000 0.000000 0.000000 0.000000 0.000000 -0.068907
#
#
# Mechanical properties :
#
#
# Convention : Reuss Voigt Hill
#
# Bulk Modulus (GPa) = 38.56042 67.02012 52.79027
# Shear Modulus (GPa) = 573.09847 86.69897 329.89872
#
# Velocity S-wave (km/s) = 16.21526 6.30690 12.30268
# Velocity P-wave (km/s) = 19.19038 9.15339 15.03422
#
# Compressibility (1/GPa) = 0.02593332
#
# Stress axis : x y z
#
# Youngs Moduli (GPa) = 120.69541 46.43354 165.29239
#
# Poissons Ratio (x) = 0.06855 0.50835
# Poissons Ratio (y) = 0.17818 0.06897
# Poissons Ratio (z) = 0.37119 0.01938
#
# Static dielectric constant tensor:
#      x y z
#    x 0.488810 0.000000 0.000000 
#    y 0.000000 1.805750 0.000000 
#    z 0.000000 0.000000 1.830470 
# 
# From -- ./inp_files/34618.got.cif
#   From: 2010.05.17/outbox.cif.g08.bks.cpg/sg21_18_cif.got.tgz:34618.got - 2010.06.03 23:14:55.
