data_PCOD9323774
_publ_section_title
;
Structure prediction by ZEFSAII (Michael W. Deem and Ramdas Pophale) SiO2 
 PCOD9323774
Probable space group: C 2 2 2
;
_chemical_formula_sum "Si O2"
_cell_formula_units_Z 40
_cell_length_a 10.129421
_cell_length_b 16.239240
_cell_length_c 9.809412
_cell_angle_alpha 90.000000
_cell_angle_beta 90.000000
_cell_angle_gamma 90.000000
_cell_volume 1613.590386
_symmetry_space_group_name_H-M "C 2 2 2"
_symmetry_group_IT_number 21
_symmetry_cell_setting 'orthorhombic'
loop_
_space_group_symop_operation_xyz
x,y,z
-x,-y,z
x,-y,-z
-x,y,-z
1/2+x,1/2+y,z
1/2-x,1/2-y,z
1/2+x,1/2-y,-z
1/2-x,1/2+y,-z
loop_
_atom_site_type_symbol
_atom_site_label
_atom_site_fract_x
_atom_site_fract_y
_atom_site_fract_z
Si Si1 0.937138 0.605894 0.170813
Si Si2 0.613791 0.285808 0.758818
Si Si3 0.159608 0.168851 0.700076
Si Si4 0.706310 0.595518 0.999156
Si Si5 0.332367 0.976783 0.349654
O O1 0.947237 0.702910 0.177812
O O2 0.866143 0.590657 0.024914
O O3 0.822340 0.561606 0.265865
O O4 0.063464 0.571832 0.252927
O O5 0.750000 0.250000 0.695096
O O6 0.494458 0.318313 0.668431
O O7 0.646782 0.347980 0.881460
O O8 0.250000 0.250000 0.674376
O O9 0.214016 0.086512 0.630477
O O10 0.173628 0.142447 0.859808
O O11 0.660850 0.500000 0.000000
O O12 0.373428 0.000000 0.500000
#
# Coordination Sequence:
#
# PCOD9323774 Si02
#       5
#     8   8   8   8   8
#     4  10  20  44  67 107 146 195 258 326 387 479
#     4  10  23  42  69 105 153 199 250 314 397 484
#     4  12  23  43  71 111 153 197 255 320 397 479
#     4  11  23  41  67 108 154 206 246 314 403 488
#     4  11  24  44  76 103 147 206 271 326 398 467
#
# _framework density 24.789437
#
# number of rings (size 3 to 8) (size 9 to 14) (size 15 to 20)
#    0.000    1.200    4.000    3.600    0.000    2.400 
#    0.000    3.000    0.000    9.600    0.000    0.000 
#    0.000    0.000    0.000    0.000    0.000    0.000 
#
# Total GULP energy -111528.961774 kJ/mol
# GULP energy per Si atom -5576.448089 kJ/mol
# Density = 2.473302 g / cm^3
# Si number density = 24.789437 Si / 1000 Ang^3
#
#
#
# Elastic Constant Matrix: (Units=GPa)
#
#
# Indices 1 2 3 4 5 6 
#
# 1 156.9069 23.5063 30.5681 0.0000 0.0000 0.0000
# 2 23.5063 167.0778 32.0263 0.0000 0.0000 0.0000
# 3 30.5681 32.0263 114.4146 0.0000 0.0000 0.0000
# 4 0.0000 0.0000 0.0000 -28.5859 0.0000 0.0000
# 5 0.0000 0.0000 0.0000 0.0000 6.0922 0.0000
# 6 0.0000 0.0000 0.0000 0.0000 0.0000 24.0299
#
#
#
# Elastic Compliance Matrix: (Units=1/GPa)
#
#
# Indices 1 2 3 4 5 6 
#
# 1 0.006788 -0.000642 -0.001634 0.000000 0.000000 0.000000
# 2 -0.000642 0.006385 -0.001616 0.000000 0.000000 0.000000
# 3 -0.001634 -0.001616 0.009629 0.000000 0.000000 0.000000
# 4 0.000000 0.000000 0.000000 -0.034982 0.000000 0.000000
# 5 0.000000 0.000000 0.000000 0.000000 0.164145 0.000000
# 6 0.000000 0.000000 0.000000 0.000000 0.000000 0.041615
#
#
# Mechanical properties :
#
#
# Convention : Reuss Voigt Hill
#
# Bulk Modulus (GPa) = 66.58253 67.84453 67.21353
# Shear Modulus (GPa) = 24.22851 23.79382 24.01117
#
# Velocity S-wave (km/s) = 3.12969 3.10149 3.11562
# Velocity P-wave (km/s) = 6.32277 6.34455 6.33367
#
# Compressibility (1/GPa) = 0.01501895
#
# Stress axis : x y z
#
# Youngs Moduli (GPa) = 147.32652 156.61056 103.85347
#
# Poissons Ratio (x) = 0.10051 0.16968
# Poissons Ratio (y) = 0.09455 0.16781
# Poissons Ratio (z) = 0.24070 0.25306
#
# Static dielectric constant tensor:
#      x y z
#    x 2.268600 0.000000 0.000000 
#    y 0.000000 1.815080 0.000000 
#    z 0.000000 0.000000 1.971980 
# 
# From -- ./inp_files/23788.got.cif
#   From: 2010.05.17/outbox.cif.g08.bks.cpg/sg21_12_cif.got.tgz:23788.got - 2010.06.03 23:14:55.
