data_PCOD9323009
_publ_section_title
;
Structure prediction by ZEFSAII (Michael W. Deem and Ramdas Pophale) SiO2 
 PCOD9323009
Probable space group: C 2 2 2
;
_chemical_formula_sum "Si O2"
_cell_formula_units_Z 64
_cell_length_a 11.198988
_cell_length_b 32.021168
_cell_length_c 8.553579
_cell_angle_alpha 90.000000
_cell_angle_beta 90.000000
_cell_angle_gamma 90.000000
_cell_volume 3067.353427
_symmetry_space_group_name_H-M "C 2 2 2"
_symmetry_group_IT_number 21
_symmetry_cell_setting 'orthorhombic'
loop_
_space_group_symop_operation_xyz
x,y,z
-x,-y,z
x,-y,-z
-x,y,-z
1/2+x,1/2+y,z
1/2-x,1/2-y,z
1/2+x,1/2-y,-z
1/2-x,1/2+y,-z
loop_
_atom_site_type_symbol
_atom_site_label
_atom_site_fract_x
_atom_site_fract_y
_atom_site_fract_z
Si Si1 0.998172 0.923770 0.688091
Si Si2 0.368710 0.140181 0.422142
Si Si3 0.237269 0.296085 0.646209
Si Si4 0.289904 0.478743 0.826099
Si Si5 0.274438 0.063348 0.267809
Si Si6 0.323112 0.898546 0.053004
Si Si7 0.015696 0.675838 0.167975
Si Si8 0.599055 0.655571 0.872912
O O1 0.912638 0.960380 0.755635
O O2 0.952929 0.879575 0.755317
O O3 0.000000 0.925079 0.500000
O O4 0.132543 0.929110 0.749512
O O5 0.500000 0.139581 0.500000
O O6 0.275057 0.167083 0.520462
O O7 0.321664 0.093457 0.402174
O O8 0.395649 0.164659 0.260184
O O9 0.250000 0.250000 0.578799
O O10 0.108967 0.298167 0.731703
O O11 0.339468 0.308194 0.770561
O O12 0.223594 0.513608 0.723141
O O13 0.306595 0.500000 0.000000
O O14 0.208624 0.437811 0.840193
O O15 0.343032 0.080136 0.114439
O O16 0.420118 0.868550 0.129839
O O17 0.206917 0.868865 0.040857
O O18 0.000000 0.696341 0.000000
O O19 0.500000 0.667981 0.000000
#
# Coordination Sequence:
#
# PCOD9323009 Si02
#       8
#     8   8   8   8   8   8   8   8
#     4  11  22  35  55  90 127 165 208 259 317 387
#     4  10  22  41  64  87 119 171 207 252 327 381
#     4  10  23  42  62  91 128 155 198 263 329 398
#     4   9  21  35  57  89 130 170 206 263 317 361
#     4  11  19  34  59  85 120 161 216 254 304 375
#     4   9  18  34  59  90 117 158 207 256 297 363
#     4  10  19  38  68  88 115 161 216 256 306 379
#     4  10  19  37  63  89 121 163 201 246 318 385
#
# _framework density 20.864892999999999
#
# number of rings (size 3 to 8) (size 9 to 14) (size 15 to 20)
#    0.000    2.000    2.500    1.125    0.000    4.000 
#    0.000    6.875    0.000    5.250    0.000    0.000 
#    0.000    0.000    0.000    0.000    0.000    0.000 
#
# Total GULP energy -178555.166875 kJ/mol
# GULP energy per Si atom -5579.848965 kJ/mol
# Density = 2.081740 g / cm^3
# Si number density = 20.864893 Si / 1000 Ang^3
#
#
#
# Elastic Constant Matrix: (Units=GPa)
#
#
# Indices 1 2 3 4 5 6 
#
# 1 48.9423 28.3626 12.9910 0.0000 0.0000 0.0000
# 2 28.3626 91.5647 16.2521 0.0000 0.0000 0.0000
# 3 12.9910 16.2521 69.2338 0.0000 0.0000 0.0000
# 4 0.0000 0.0000 0.0000 8.2805 0.0000 0.0000
# 5 0.0000 0.0000 0.0000 0.0000 24.5106 0.0000
# 6 0.0000 0.0000 0.0000 0.0000 0.0000 15.7190
#
#
#
# Elastic Compliance Matrix: (Units=1/GPa)
#
#
# Indices 1 2 3 4 5 6 
#
# 1 0.025508 -0.007358 -0.003059 0.000000 0.000000 0.000000
# 2 -0.007358 0.013519 -0.001793 0.000000 0.000000 0.000000
# 3 -0.003059 -0.001793 0.015439 0.000000 0.000000 0.000000
# 4 0.000000 0.000000 0.000000 0.120766 0.000000 0.000000
# 5 0.000000 0.000000 0.000000 0.000000 0.040799 0.000000
# 6 0.000000 0.000000 0.000000 0.000000 0.000000 0.063617
#
#
# Mechanical properties :
#
#
# Convention : Reuss Voigt Hill
#
# Bulk Modulus (GPa) = 33.28286 36.10581 34.69433
# Shear Modulus (GPa) = 15.91933 19.84435 17.88184
#
# Velocity S-wave (km/s) = 2.76519 3.08732 2.93068
# Velocity P-wave (km/s) = 5.11676 5.48186 5.30246
#
# Compressibility (1/GPa) = 0.03004550
#
# Stress axis : x y z
#
# Youngs Moduli (GPa) = 39.20267 73.97152 64.77258
#
# Poissons Ratio (x) = 0.54431 0.19814
# Poissons Ratio (y) = 0.28847 0.11612
# Poissons Ratio (z) = 0.11992 0.13261
#
# Static dielectric constant tensor:
#      x y z
#    x 1.764890 0.000000 0.000000 
#    y 0.000000 1.731340 0.000000 
#    z 0.000000 0.000000 1.839670 
# 
# From -- ./inp_files/13671.got.cif
#   From: 2010.05.17/outbox.cif.g08.bks.cpg/sg21_7_cif.got.tgz:13671.got - 2010.06.03 23:14:55.
