data_PCOD9323953
_publ_section_title
;
Structure prediction by ZEFSAII (Michael W. Deem and Ramdas Pophale) SiO2 
 PCOD9323953
Probable space group: C 2 2 2
;
_chemical_formula_sum "Si O2"
_cell_formula_units_Z 48
_cell_length_a 24.082474
_cell_length_b 10.183038
_cell_length_c 9.593976
_cell_angle_alpha 90.000000
_cell_angle_beta 90.000000
_cell_angle_gamma 90.000000
_cell_volume 2352.757098
_symmetry_space_group_name_H-M "C 2 2 2"
_symmetry_group_IT_number 21
_symmetry_cell_setting 'orthorhombic'
loop_
_space_group_symop_operation_xyz
x,y,z
-x,-y,z
x,-y,-z
-x,y,-z
1/2+x,1/2+y,z
1/2-x,1/2-y,z
1/2+x,1/2-y,-z
1/2-x,1/2+y,-z
loop_
_atom_site_type_symbol
_atom_site_label
_atom_site_fract_x
_atom_site_fract_y
_atom_site_fract_z
Si Si1 0.737366 0.045850 0.758418
Si Si2 0.934250 0.495196 0.828836
Si Si3 0.801955 0.152413 0.413939
Si Si4 0.157709 0.875020 0.917425
Si Si5 0.635545 0.228120 0.669975
Si Si6 0.155914 0.311388 0.835166
O O1 0.778868 0.099570 0.873729
O O2 0.693515 0.152845 0.705795
O O3 0.775515 0.989861 0.631617
O O4 0.701314 0.925807 0.818005
O O5 0.908998 0.381000 0.726565
O O6 0.901533 0.625986 0.785013
O O7 0.000000 0.500000 0.812292
O O8 0.923356 0.500000 0.000000
O O9 0.750000 0.250000 0.440982
O O10 0.849935 0.201675 0.522271
O O11 0.825981 0.194141 0.263514
O O12 0.125999 0.847392 0.775604
O O13 0.153342 0.745774 0.010900
O O14 0.136538 0.000000 0.000000
#
# Coordination Sequence:
#
# PCOD9323953 Si02
#       6
#     8   8   8   8   8   8
#     4  10  23  34  58  81 131 173 205 242 307 373
#     4  10  21  42  70  91 119 156 211 280 331 359
#     4  10  21  38  53  85 131 174 194 240 301 380
#     4  12  23  33  54  89 124 166 210 257 306 373
#     4  11  24  38  59  90 126 163 221 253 310 382
#     4  10  22  38  56  89 124 160 211 258 306 366
#
# _framework density 20.401596999999999
#
# number of rings (size 3 to 8) (size 9 to 14) (size 15 to 20)
#    0.000    1.500    3.333    1.500    4.667    9.333 
#    0.000    1.667    0.000    2.000    0.000    0.000 
#    5.000    0.000    0.000    0.000    0.000    0.000 
#
# Total GULP energy -133683.890155 kJ/mol
# GULP energy per Si atom -5570.162090 kJ/mol
# Density = 2.035516 g / cm^3
# Si number density = 20.401597 Si / 1000 Ang^3
#
#
#
# Elastic Constant Matrix: (Units=GPa)
#
#
# Indices 1 2 3 4 5 6 
#
# 1 91.3541 24.0950 17.7986 0.0000 0.0000 0.0000
# 2 24.0950 65.1332 1.6199 0.0000 0.0000 0.0000
# 3 17.7986 1.6199 58.3564 0.0000 0.0000 0.0000
# 4 0.0000 0.0000 0.0000 13.3264 0.0000 0.0000
# 5 0.0000 0.0000 0.0000 0.0000 19.7994 0.0000
# 6 0.0000 0.0000 0.0000 0.0000 0.0000 14.3434
#
#
#
# Elastic Compliance Matrix: (Units=1/GPa)
#
#
# Indices 1 2 3 4 5 6 
#
# 1 0.012925 -0.004687 -0.003812 0.000000 0.000000 0.000000
# 2 -0.004687 0.017063 0.000956 0.000000 0.000000 0.000000
# 3 -0.003812 0.000956 0.018272 0.000000 0.000000 0.000000
# 4 0.000000 0.000000 0.000000 0.075039 0.000000 0.000000
# 5 0.000000 0.000000 0.000000 0.000000 0.050507 0.000000
# 6 0.000000 0.000000 0.000000 0.000000 0.000000 0.069718
#
#
# Mechanical properties :
#
#
# Convention : Reuss Voigt Hill
#
# Bulk Modulus (GPa) = 30.14352 33.54120 31.84236
# Shear Modulus (GPa) = 18.54126 20.91586 19.72856
#
# Velocity S-wave (km/s) = 3.01792 3.20536 3.11305
# Velocity P-wave (km/s) = 5.19143 5.49320 5.34445
#
# Compressibility (1/GPa) = 0.03317463
#
# Stress axis : x y z
#
# Youngs Moduli (GPa) = 77.36788 58.60586 54.72788
#
# Poissons Ratio (x) = 0.27467 0.20863
# Poissons Ratio (y) = 0.36260 -0.05231
# Poissons Ratio (z) = 0.29493 -0.05601
#
# Static dielectric constant tensor:
#      x y z
#    x 1.701450 0.000000 0.000000 
#    y 0.000000 1.837140 0.000000 
#    z 0.000000 0.000000 1.811400 
# 
# From -- ./inp_files/18483.got.cif
#   From: 2010.05.17/outbox.cif.g08.bks.cpg/sg21_10_cif.got.tgz:18483.got - 2010.06.03 23:14:55.
