data_PCOD9323445
_publ_section_title
;
Structure prediction by ZEFSAII (Michael W. Deem and Ramdas Pophale) SiO2 
 PCOD9323445
Probable space group: C 2 2 2
;
_chemical_formula_sum "Si O2"
_cell_formula_units_Z 26
_cell_length_a 8.450442
_cell_length_b 20.229175
_cell_length_c 8.116500
_cell_angle_alpha 90.000000
_cell_angle_beta 90.000000
_cell_angle_gamma 90.000000
_cell_volume 1387.478908
_symmetry_space_group_name_H-M "C 2 2 2"
_symmetry_group_IT_number 21
_symmetry_cell_setting 'orthorhombic'
loop_
_space_group_symop_operation_xyz
x,y,z
-x,-y,z
x,-y,-z
-x,y,-z
1/2+x,1/2+y,z
1/2-x,1/2-y,z
1/2+x,1/2-y,-z
1/2-x,1/2+y,-z
loop_
_atom_site_type_symbol
_atom_site_label
_atom_site_fract_x
_atom_site_fract_y
_atom_site_fract_z
Si Si1 0.000000 0.500000 0.500000
Si Si2 0.815214 0.175600 0.034863
Si Si3 0.320714 0.176433 0.306112
Si Si4 0.667167 0.878236 0.649562
O O1 0.897777 0.548474 0.615198
O O2 0.750000 0.250000 0.063331
O O3 0.777743 0.132722 0.195345
O O4 0.732094 0.147828 0.869759
O O5 0.000000 0.180410 0.000000
O O6 0.250000 0.250000 0.305617
O O7 0.259858 0.143451 0.474489
O O8 0.510658 0.167550 0.317845
#
# Coordination Sequence:
#
# PCOD9323445 Si02
#       4
#     2   8   8   8
#     4   8  20  40  62  78 104 154 204 228 266 328
#     4  11  21  33  55  89 121 146 178 227 288 344
#     4   9  18  32  53  82 111 142 181 226 280 332
#     4  10  20  37  58  81 111 151 191 232 274 328
#
# _framework density 18.739025000000002
#
# number of rings (size 3 to 8) (size 9 to 14) (size 15 to 20)
#    0.000    2.462    0.000    5.538    0.000    6.154 
#    0.000   12.308    0.000   22.154    0.000    0.000 
#    0.000    0.000    0.000    0.000    0.000    0.000 
#
# Total GULP energy -72458.686150 kJ/mol
# GULP energy per Si atom -5573.745088 kJ/mol
# Density = 1.869637 g / cm^3
# Si number density = 18.739025 Si / 1000 Ang^3
#
#
#
# Elastic Constant Matrix: (Units=GPa)
#
#
# Indices 1 2 3 4 5 6 
#
# 1 64.9842 27.9829 27.0782 0.0000 0.0000 0.0000
# 2 27.9829 87.3227 42.3747 0.0000 0.0000 0.0000
# 3 27.0782 42.3747 171.2232 0.0000 0.0000 0.0000
# 4 0.0000 0.0000 0.0000 3.7677 0.0000 0.0000
# 5 0.0000 0.0000 0.0000 0.0000 25.0089 0.0000
# 6 0.0000 0.0000 0.0000 0.0000 0.0000 20.2522
#
#
#
# Elastic Compliance Matrix: (Units=1/GPa)
#
#
# Indices 1 2 3 4 5 6 
#
# 1 0.018246 -0.005054 -0.001635 0.000000 0.000000 0.000000
# 2 -0.005054 0.014414 -0.002768 0.000000 0.000000 0.000000
# 3 -0.001635 -0.002768 0.006784 0.000000 0.000000 0.000000
# 4 0.000000 0.000000 0.000000 0.265415 0.000000 0.000000
# 5 0.000000 0.000000 0.000000 0.000000 0.039986 0.000000
# 6 0.000000 0.000000 0.000000 0.000000 0.000000 0.049377
#
#
# Mechanical properties :
#
#
# Convention : Reuss Voigt Hill
#
# Bulk Modulus (GPa) = 48.70666 57.60019 53.15342
# Shear Modulus (GPa) = 11.90535 24.87872 18.39204
#
# Velocity S-wave (km/s) = 2.52330 3.64764 3.13626
# Velocity P-wave (km/s) = 5.87690 6.96743 6.44527
#
# Compressibility (1/GPa) = 0.02053107
#
# Stress axis : x y z
#
# Youngs Moduli (GPa) = 54.80749 69.37459 147.40728
#
# Poissons Ratio (x) = 0.35059 0.24098
# Poissons Ratio (y) = 0.27697 0.40804
# Poissons Ratio (z) = 0.08960 0.19204
#
# Static dielectric constant tensor:
#      x y z
#    x 1.689700 0.000000 0.000000 
#    y 0.000000 1.648840 0.000000 
#    z 0.000000 0.000000 1.691870 
# 
# From -- ./inp_files/10243.got.cif
#   From: 2010.05.17/outbox.cif.g08.bks.cpg/sg21_6_cif.got.tgz:10243.got - 2010.06.03 23:14:55.
