data_PCOD9323872
_publ_section_title
;
Structure prediction by ZEFSAII (Michael W. Deem and Ramdas Pophale) SiO2 
 PCOD9323872
Probable space group: C 2 2 2
;
_chemical_formula_sum "Si O2"
_cell_formula_units_Z 40
_cell_length_a 11.617860
_cell_length_b 12.168430
_cell_length_c 12.782671
_cell_angle_alpha 90.000000
_cell_angle_beta 90.000000
_cell_angle_gamma 90.000000
_cell_volume 1807.100467
_symmetry_space_group_name_H-M "C 2 2 2"
_symmetry_group_IT_number 21
_symmetry_cell_setting 'orthorhombic'
loop_
_space_group_symop_operation_xyz
x,y,z
-x,-y,z
x,-y,-z
-x,y,-z
1/2+x,1/2+y,z
1/2-x,1/2-y,z
1/2+x,1/2-y,-z
1/2-x,1/2+y,-z
loop_
_atom_site_type_symbol
_atom_site_label
_atom_site_fract_x
_atom_site_fract_y
_atom_site_fract_z
Si Si1 0.991243 0.162561 0.313754
Si Si2 0.436871 0.901816 0.612046
Si Si3 0.078092 0.777232 0.095908
Si Si4 0.216433 0.433428 0.898432
Si Si5 0.801137 0.998363 0.327181
O O1 0.986485 0.161501 0.188495
O O2 0.034155 0.283397 0.342773
O O3 0.091658 0.081197 0.347230
O O4 0.863540 0.117845 0.348122
O O5 0.500000 0.895737 0.500000
O O6 0.305733 0.944763 0.610621
O O7 0.500000 0.000000 0.674043
O O8 0.131357 0.663757 0.138180
O O9 0.175565 0.862197 0.059964
O O10 0.000000 0.747943 0.000000
O O11 0.257851 0.497647 0.794418
O O12 0.173404 0.500000 0.000000
#
# Coordination Sequence:
#
# PCOD9323872 Si02
#       5
#     8   8   8   8   8
#     4  10  22  44  72  99 136 180 229 289 340 419
#     4  11  25  46  67 100 133 175 227 288 355 415
#     4  10  21  36  59  94 133 180 225 269 332 394
#     4  10  21  36  59  93 135 180 223 275 325 404
#     4  10  22  44  71 100 136 181 230 283 352 411
#
# _framework density 22.134906000000001
#
# number of rings (size 3 to 8) (size 9 to 14) (size 15 to 20)
#    0.000    1.800    0.000    3.000    2.800    4.800 
#   14.400    1.000    0.000    0.000    0.000    0.000 
#    0.000    0.000    0.000    0.000    0.000    0.000 
#
# Total GULP energy -111428.765684 kJ/mol
# GULP energy per Si atom -5571.438284 kJ/mol
# Density = 2.208453 g / cm^3
# Si number density = 22.134906 Si / 1000 Ang^3
#
#
#
# Elastic Constant Matrix: (Units=GPa)
#
#
# Indices 1 2 3 4 5 6 
#
# 1 140.5837 40.4257 31.3386 0.0000 0.0000 0.0000
# 2 40.4257 112.7849 10.4595 0.0000 0.0000 0.0000
# 3 31.3386 10.4595 42.0855 0.0000 0.0000 0.0000
# 4 0.0000 0.0000 0.0000 109.6135 0.0000 0.0000
# 5 0.0000 0.0000 0.0000 0.0000 873.7614 0.0000
# 6 0.0000 0.0000 0.0000 0.0000 0.0000 13.8822
#
#
#
# Elastic Compliance Matrix: (Units=1/GPa)
#
#
# Indices 1 2 3 4 5 6 
#
# 1 0.009295 -0.002753 -0.006237 0.000000 0.000000 0.000000
# 2 -0.002753 0.009891 -0.000408 0.000000 0.000000 0.000000
# 3 -0.006237 -0.000408 0.028507 0.000000 0.000000 0.000000
# 4 0.000000 0.000000 0.000000 0.009123 0.000000 0.000000
# 5 0.000000 0.000000 0.000000 0.000000 0.001144 0.000000
# 6 0.000000 0.000000 0.000000 0.000000 0.000000 0.072035
#
#
# Mechanical properties :
#
#
# Convention : Reuss Voigt Hill
#
# Bulk Modulus (GPa) = 34.60666 51.10021 42.85344
# Shear Modulus (GPa) = 31.56057 213.66676 122.61366
#
# Velocity S-wave (km/s) = 3.78011 9.83559 7.45078
# Velocity P-wave (km/s) = 5.89243 12.33374 9.66545
#
# Compressibility (1/GPa) = 0.02889617
#
# Stress axis : x y z
#
# Youngs Moduli (GPa) = 107.58046 101.10045 35.07888
#
# Poissons Ratio (x) = 0.27836 0.21880
# Poissons Ratio (y) = 0.29620 0.01431
# Poissons Ratio (z) = 0.67103 0.04125
#
# Static dielectric constant tensor:
#      x y z
#    x 1.851400 0.000000 0.000000 
#    y 0.000000 1.758320 0.000000 
#    z 0.000000 0.000000 1.887870 
# 
# From -- ./inp_files/31363.got.cif
#   From: 2010.05.17/outbox.cif.g08.bks.cpg/sg21_16_cif.got.tgz:31363.got - 2010.06.03 23:14:55.
