data_PCOD9323305
_publ_section_title
;
Structure prediction by ZEFSAII (Michael W. Deem and Ramdas Pophale) SiO2 
 PCOD9323305
Probable space group: C 2 2 2
;
_chemical_formula_sum "Si O2"
_cell_formula_units_Z 48
_cell_length_a 24.224740
_cell_length_b 12.226667
_cell_length_c 8.508867
_cell_angle_alpha 90.000000
_cell_angle_beta 90.000000
_cell_angle_gamma 90.000000
_cell_volume 2520.222845
_symmetry_space_group_name_H-M "C 2 2 2"
_symmetry_group_IT_number 21
_symmetry_cell_setting 'orthorhombic'
loop_
_space_group_symop_operation_xyz
x,y,z
-x,-y,z
x,-y,-z
-x,y,-z
1/2+x,1/2+y,z
1/2-x,1/2-y,z
1/2+x,1/2-y,-z
1/2-x,1/2+y,-z
loop_
_atom_site_type_symbol
_atom_site_label
_atom_site_fract_x
_atom_site_fract_y
_atom_site_fract_z
Si Si1 0.312607 0.416936 0.834037
Si Si2 0.198266 0.326501 0.293608
Si Si3 0.348116 0.236637 0.619006
Si Si4 0.368165 0.642701 0.852514
Si Si5 0.688656 0.942958 0.849379
Si Si6 0.436672 0.621141 0.553290
O O1 0.316659 0.342490 0.683021
O O2 0.327878 0.542588 0.798030
O O3 0.250216 0.400687 0.898108
O O4 0.359381 0.375719 0.959956
O O5 0.250000 0.250000 0.258478
O O6 0.184201 0.314723 0.475173
O O7 0.152108 0.263705 0.190544
O O8 0.201909 0.453492 0.259269
O O9 0.346327 0.148374 0.759564
O O10 0.403722 0.285575 0.542806
O O11 0.422078 0.628261 0.740496
O O12 0.661425 0.000000 0.000000
O O13 0.417655 0.500000 0.500000
O O14 0.500000 0.629500 0.500000
#
# Coordination Sequence:
#
# PCOD9323305 Si02
#       6
#     8   8   8   8   8   8
#     4  11  19  36  53  87 126 161 193 237 308 375
#     4  11  20  34  51  81 119 164 204 240 289 360
#     4  11  24  35  57  86 119 156 210 258 301 374
#     4  10  20  35  58  83 120 157 196 244 300 371
#     4  12  22  35  54  84 129 173 200 234 299 382
#     4  10  21  41  65  87 115 155 206 270 326 361
#
# _framework density 19.045935
#
# number of rings (size 3 to 8) (size 9 to 14) (size 15 to 20)
#    0.000    1.167    5.000    3.000    0.000    0.000 
#    0.000    0.833    0.000    8.000    0.000    4.667 
#    0.000    0.000    0.000    0.000    0.000    0.000 
#
# Total GULP energy -133615.956802 kJ/mol
# GULP energy per Si atom -5567.331533 kJ/mol
# Density = 1.900259 g / cm^3
# Si number density = 19.045935 Si / 1000 Ang^3
#
#
#
# Elastic Constant Matrix: (Units=GPa)
#
#
# Indices 1 2 3 4 5 6 
#
# 1 55.5778 21.0334 27.1088 0.0000 0.0000 0.0000
# 2 21.0334 89.7719 22.3710 0.0000 0.0000 0.0000
# 3 27.1088 22.3710 75.2850 0.0000 0.0000 0.0000
# 4 0.0000 0.0000 0.0000 45.5224 0.0000 0.0000
# 5 0.0000 0.0000 0.0000 0.0000 21.0109 0.0000
# 6 0.0000 0.0000 0.0000 0.0000 0.0000 17.8096
#
#
#
# Elastic Compliance Matrix: (Units=1/GPa)
#
#
# Indices 1 2 3 4 5 6 
#
# 1 0.022836 -0.003565 -0.007163 0.000000 0.000000 0.000000
# 2 -0.003565 0.012587 -0.002456 0.000000 0.000000 0.000000
# 3 -0.007163 -0.002456 0.016592 0.000000 0.000000 0.000000
# 4 0.000000 0.000000 0.000000 0.021967 0.000000 0.000000
# 5 0.000000 0.000000 0.000000 0.000000 0.047594 0.000000
# 6 0.000000 0.000000 0.000000 0.000000 0.000000 0.056150
#
#
# Mechanical properties :
#
#
# Convention : Reuss Voigt Hill
#
# Bulk Modulus (GPa) = 38.99419 40.18458 39.58939
# Shear Modulus (GPa) = 23.51338 26.87668 25.19503
#
# Velocity S-wave (km/s) = 3.51744 3.76060 3.64105
# Velocity P-wave (km/s) = 6.08398 6.32462 6.20546
#
# Compressibility (1/GPa) = 0.02564484
#
# Stress axis : x y z
#
# Youngs Moduli (GPa) = 43.79010 79.44816 60.26924
#
# Poissons Ratio (x) = 0.28326 0.43174
# Poissons Ratio (y) = 0.15613 0.14804
# Poissons Ratio (z) = 0.31369 0.19515
#
# Static dielectric constant tensor:
#      x y z
#    x 1.665520 0.000000 0.000000 
#    y 0.000000 1.664910 0.000000 
#    z 0.000000 0.000000 1.761170 
# 
# From -- ./inp_files/13305.got.cif
#   From: 2010.05.17/outbox.cif.g08.bks.cpg/sg21_7_cif.got.tgz:13305.got - 2010.06.03 23:14:55.
