data_PCOD9323728
_publ_section_title
;
Structure prediction by ZEFSAII (Michael W. Deem and Ramdas Pophale) SiO2 
 PCOD9323728
Probable space group: C 2 2 2
;
_chemical_formula_sum "Si O2"
_cell_formula_units_Z 34
_cell_length_a 19.911318
_cell_length_b 9.493964
_cell_length_c 7.993607
_cell_angle_alpha 90.000000
_cell_angle_beta 90.000000
_cell_angle_gamma 90.000000
_cell_volume 1511.090175
_symmetry_space_group_name_H-M "C 2 2 2"
_symmetry_group_IT_number 21
_symmetry_cell_setting 'orthorhombic'
loop_
_space_group_symop_operation_xyz
x,y,z
-x,-y,z
x,-y,-z
-x,y,-z
1/2+x,1/2+y,z
1/2-x,1/2-y,z
1/2+x,1/2-y,-z
1/2-x,1/2+y,-z
loop_
_atom_site_type_symbol
_atom_site_label
_atom_site_fract_x
_atom_site_fract_y
_atom_site_fract_z
Si Si1 0.027855 0.774237 0.290449
Si Si2 0.500000 0.000000 0.500000
Si Si3 0.673467 0.000000 0.000000
Si Si4 0.217582 0.901889 0.776804
Si Si5 0.901840 0.780069 0.063493
Si Si6 0.887760 0.000000 0.500000
O O1 0.033579 0.616814 0.372742
O O2 0.064143 0.880968 0.417907
O O3 0.951158 0.797767 0.223299
O O4 0.063673 0.803204 0.113663
O O5 0.724376 0.006618 0.158971
O O6 0.623896 0.877916 0.052929
O O7 0.250000 0.750000 0.728729
O O8 0.166921 0.864385 0.926209
O O9 0.165861 0.951510 0.638688
#
# Coordination Sequence:
#
# PCOD9323728 Si02
#       6
#     8   2   4   8   8   4
#     4  11  25  43  69 100 138 182 232 293 361 424
#     4  12  24  40  62 100 138 172 216 284 364 426
#     4  10  20  41  68  93 130 178 238 288 342 434
#     4  10  23  41  65  98 135 180 233 291 357 428
#     4  10  22  43  68  95 131 184 237 285 343 429
#     4  12  26  45  69 106 147 183 234 306 374 431
#
# _framework density 22.500313999999999
#
# number of rings (size 3 to 8) (size 9 to 14) (size 15 to 20)
#    0.000    1.412    0.000    4.235    0.000    9.882 
#    0.000    9.412    0.000    0.000    0.000    0.000 
#    0.000    0.000    0.000    0.000    0.000    0.000 
#
# Total GULP energy -94681.048008 kJ/mol
# GULP energy per Si atom -5569.473412 kJ/mol
# Density = 2.244910 g / cm^3
# Si number density = 22.500314 Si / 1000 Ang^3
#
#
#
# Elastic Constant Matrix: (Units=GPa)
#
#
# Indices 1 2 3 4 5 6 
#
# 1 83.4489 35.3607 20.6950 0.0000 0.0000 0.0000
# 2 35.3607 108.0178 34.2714 0.0000 0.0000 0.0000
# 3 20.6950 34.2714 111.8001 0.0000 0.0000 0.0000
# 4 0.0000 0.0000 0.0000 -52.8897 0.0000 0.0000
# 5 0.0000 0.0000 0.0000 0.0000 66.9942 0.0000
# 6 0.0000 0.0000 0.0000 0.0000 0.0000 46.6339
#
#
#
# Elastic Compliance Matrix: (Units=1/GPa)
#
#
# Indices 1 2 3 4 5 6 
#
# 1 0.014088 -0.004192 -0.001323 0.000000 0.000000 0.000000
# 2 -0.004192 0.011503 -0.002750 0.000000 0.000000 0.000000
# 3 -0.001323 -0.002750 0.010032 0.000000 0.000000 0.000000
# 4 0.000000 0.000000 0.000000 -0.018907 0.000000 0.000000
# 5 0.000000 0.000000 0.000000 0.000000 0.014927 0.000000
# 6 0.000000 0.000000 0.000000 0.000000 0.000000 0.021444
#
#
# Mechanical properties :
#
#
# Convention : Reuss Voigt Hill
#
# Bulk Modulus (GPa) = 52.37507 53.76901 53.07204
# Shear Modulus (GPa) = 65.80699 26.34366 46.07532
#
# Velocity S-wave (km/s) = 5.41393 3.42543 4.53013
# Velocity P-wave (km/s) = 7.89993 6.29235 7.14152
#
# Compressibility (1/GPa) = 0.01909305
#
# Stress axis : x y z
#
# Youngs Moduli (GPa) = 70.98354 86.93700 99.67726
#
# Poissons Ratio (x) = 0.36445 0.13184
# Poissons Ratio (y) = 0.29757 0.27412
# Poissons Ratio (z) = 0.09389 0.23908
#
# Static dielectric constant tensor:
#      x y z
#    x 1.914950 0.000000 0.000000 
#    y 0.000000 0.872980 0.000000 
#    z 0.000000 0.000000 1.901290 
# 
# From -- ./inp_files/17206.got.cif
#   From: 2010.05.17/outbox.cif.g08.bks.cpg/sg21_9_cif.got.tgz:17206.got - 2010.06.03 23:14:55.
