data_PCOD9323746
_publ_section_title
;
Structure prediction by ZEFSAII (Michael W. Deem and Ramdas Pophale) SiO2 
 PCOD9323746
Probable space group: C 2 2 2
;
_chemical_formula_sum "Si O2"
_cell_formula_units_Z 54
_cell_length_a 14.879997
_cell_length_b 11.826391
_cell_length_c 14.027753
_cell_angle_alpha 90.000000
_cell_angle_beta 90.000000
_cell_angle_gamma 90.000000
_cell_volume 2468.557157
_symmetry_space_group_name_H-M "C 2 2 2"
_symmetry_group_IT_number 21
_symmetry_cell_setting 'orthorhombic'
loop_
_space_group_symop_operation_xyz
x,y,z
-x,-y,z
x,-y,-z
-x,y,-z
1/2+x,1/2+y,z
1/2-x,1/2-y,z
1/2+x,1/2-y,-z
1/2-x,1/2+y,-z
loop_
_atom_site_type_symbol
_atom_site_label
_atom_site_fract_x
_atom_site_fract_y
_atom_site_fract_z
Si Si1 0.880039 0.711817 0.796630
Si Si2 0.537286 0.127976 0.898065
Si Si3 0.000000 0.500000 0.500000
Si Si4 0.750000 0.750000 0.422601
Si Si5 0.828863 0.983762 0.391338
Si Si6 0.152895 0.360981 0.591843
Si Si7 0.600564 0.465805 0.193050
Si Si8 0.783360 0.512384 0.112667
O O1 0.856438 0.712905 0.685764
O O2 0.870841 0.838020 0.836555
O O3 0.825928 0.605562 0.843620
O O4 0.984970 0.687493 0.813479
O O5 0.500000 0.000000 0.899599
O O6 0.642112 0.111479 0.878456
O O7 0.500000 0.175644 0.000000
O O8 0.936271 0.570763 0.569447
O O9 0.795108 0.855999 0.371831
O O10 0.825274 0.704651 0.495551
O O11 0.863676 0.000000 0.500000
O O12 0.737152 0.056869 0.390163
O O13 0.893548 0.023758 0.307692
O O14 0.500000 0.500000 0.161520
O O15 0.685631 0.536958 0.155280
O O16 0.774067 0.500000 0.000000
#
# Coordination Sequence:
#
# PCOD9323746 Si02
#       8
#     8   8   2   4   8   8   8   8
#     4  11  22  42  74  98 134 182 224 280 345 410
#     4   9  17  38  68 103 124 154 226 276 322 400
#     4  12  24  36  56 112 138 156 224 304 332 388
#     4  10  20  42  64  94 134 190 214 274 348 400
#     4  10  21  43  69  93 137 180 228 277 333 410
#     4  11  22  38  66 101 137 172 226 280 344 400
#     4  12  28  47  63 102 142 180 233 276 337 417
#     4  11  22  44  72 100 134 174 227 288 340 402
#
# _framework density 21.875125000000001
#
# number of rings (size 3 to 8) (size 9 to 14) (size 15 to 20)
#    0.000    1.333    6.667    2.222    3.111    1.778 
#    5.333    0.000    0.000    0.000    0.000    0.000 
#    0.000    0.000    0.000    0.000    0.000    0.000 
#
# Total GULP energy -150616.691783 kJ/mol
# GULP energy per Si atom -5578.395992 kJ/mol
# Density = 2.182534 g / cm^3
# Si number density = 21.875125 Si / 1000 Ang^3
#
#
#
# Elastic Constant Matrix: (Units=GPa)
#
#
# Indices 1 2 3 4 5 6 
#
# 1 165.3317 15.3286 24.2395 0.0000 0.0000 0.0000
# 2 15.3286 58.7831 2.5709 0.0000 0.0000 0.0000
# 3 24.2395 2.5709 36.4811 0.0000 0.0000 0.0000
# 4 0.0000 0.0000 0.0000 -22.7200 0.0000 0.0000
# 5 0.0000 0.0000 0.0000 0.0000 27.9566 0.0000
# 6 0.0000 0.0000 0.0000 0.0000 0.0000 19.0781
#
#
#
# Elastic Compliance Matrix: (Units=1/GPa)
#
#
# Indices 1 2 3 4 5 6 
#
# 1 0.006846 -0.001591 -0.004437 0.000000 0.000000 0.000000
# 2 -0.001591 0.017434 -0.000171 0.000000 0.000000 0.000000
# 3 -0.004437 -0.000171 0.030372 0.000000 0.000000 0.000000
# 4 0.000000 0.000000 0.000000 -0.044014 0.000000 0.000000
# 5 0.000000 0.000000 0.000000 0.000000 0.035770 0.000000
# 6 0.000000 0.000000 0.000000 0.000000 0.000000 0.052416
#
#
# Mechanical properties :
#
#
# Convention : Reuss Voigt Hill
#
# Bulk Modulus (GPa) = 23.66687 38.31932 30.99310
# Shear Modulus (GPa) = 39.90184 19.42673 29.66429
#
# Velocity S-wave (km/s) = 4.27555 2.98329 3.68649
# Velocity P-wave (km/s) = 5.93434 5.42421 5.68500
#
# Compressibility (1/GPa) = 0.04225315
#
# Stress axis : x y z
#
# Youngs Moduli (GPa) = 146.06034 57.35879 32.92548
#
# Poissons Ratio (x) = 0.09127 0.14609
# Poissons Ratio (y) = 0.23242 0.00564
# Poissons Ratio (z) = 0.64806 0.00983
#
# Static dielectric constant tensor:
#      x y z
#    x 1.798260 0.000000 0.000000 
#    y 0.000000 1.937250 0.000000 
#    z 0.000000 0.000000 1.826210 
# 
# From -- ./inp_files/32371.got.cif
#   From: 2010.05.17/outbox.cif.g08.bks.cpg/sg21_17_cif.got.tgz:32371.got - 2010.06.03 23:14:55.
