data_PCOD9323815
_publ_section_title
;
Structure prediction by ZEFSAII (Michael W. Deem and Ramdas Pophale) SiO2 
 PCOD9323815
Probable space group: C 2 2 2
;
_chemical_formula_sum "Si O2"
_cell_formula_units_Z 48
_cell_length_a 5.975782
_cell_length_b 25.069118
_cell_length_c 17.247887
_cell_angle_alpha 90.000000
_cell_angle_beta 90.000000
_cell_angle_gamma 90.000000
_cell_volume 2583.864282
_symmetry_space_group_name_H-M "C 2 2 2"
_symmetry_group_IT_number 21
_symmetry_cell_setting 'orthorhombic'
loop_
_space_group_symop_operation_xyz
x,y,z
-x,-y,z
x,-y,-z
-x,y,-z
1/2+x,1/2+y,z
1/2-x,1/2-y,z
1/2+x,1/2-y,-z
1/2-x,1/2+y,-z
loop_
_atom_site_type_symbol
_atom_site_label
_atom_site_fract_x
_atom_site_fract_y
_atom_site_fract_z
Si Si1 0.250000 0.250000 0.147488
Si Si2 0.000000 0.781777 0.000000
Si Si3 0.320181 0.130594 0.943220
Si Si4 0.751378 0.061622 0.472577
Si Si5 0.868280 0.442948 0.295719
Si Si6 0.522828 0.560494 0.847678
Si Si7 0.628694 0.862310 0.203377
O O1 0.047845 0.243552 0.084599
O O2 0.264459 0.196793 0.200101
O O3 0.216399 0.818809 0.013605
O O4 0.125732 0.091881 0.918975
O O5 0.439171 0.143133 0.862252
O O6 0.500000 0.105229 0.000000
O O7 0.500000 0.082603 0.500000
O O8 0.742468 0.062117 0.379564
O O9 0.000000 0.083146 0.500000
O O10 0.750997 0.000000 0.500000
O O11 0.685974 0.441743 0.227254
O O12 0.000000 0.500000 0.292272
O O13 0.023203 0.390937 0.278587
O O14 0.500000 0.500000 0.871099
O O15 0.304146 0.593315 0.824869
#
# Coordination Sequence:
#
# PCOD9323815 Si02
#       7
#     4   4   8   8   8   8   8
#     4  12  22  40  64  86 112 158 220 282 338 382
#     4  12  22  40  65  82 115 148 212 308 330 366
#     4  11  21  41  57  84 111 155 220 267 341 376
#     4  10  21  34  60  99 133 172 207 251 307 380
#     4  11  22  38  62  91 136 171 201 254 316 396
#     4  11  23  38  61  83 123 171 206 256 327 398
#     4  11  24  39  59  90 120 165 213 262 331 387
#
# _framework density 18.576827999999999
#
# number of rings (size 3 to 8) (size 9 to 14) (size 15 to 20)
#    0.000    1.000    6.667    1.000    4.667    0.000 
#    0.000    6.250    0.000    0.000    0.000    0.000 
#    5.000    0.000    0.000    0.000    0.000    0.000 
#
# Total GULP energy -133684.517979 kJ/mol
# GULP energy per Si atom -5570.188249 kJ/mol
# Density = 1.853455 g / cm^3
# Si number density = 18.576828 Si / 1000 Ang^3
#
#
#
# Elastic Constant Matrix: (Units=GPa)
#
#
# Indices 1 2 3 4 5 6 
#
# 1 80.6387 10.4618 17.6802 0.0000 0.0000 0.0000
# 2 10.4618 91.1892 16.3219 0.0000 0.0000 0.0000
# 3 17.6802 16.3219 89.7442 0.0000 0.0000 0.0000
# 4 0.0000 0.0000 0.0000 15.1029 0.0000 0.0000
# 5 0.0000 0.0000 0.0000 0.0000 36.5453 0.0000
# 6 0.0000 0.0000 0.0000 0.0000 0.0000 15.6189
#
#
#
# Elastic Compliance Matrix: (Units=1/GPa)
#
#
# Indices 1 2 3 4 5 6 
#
# 1 0.013062 -0.001073 -0.002378 0.000000 0.000000 0.000000
# 2 -0.001073 0.011423 -0.001866 0.000000 0.000000 0.000000
# 3 -0.002378 -0.001866 0.011951 0.000000 0.000000 0.000000
# 4 0.000000 0.000000 0.000000 0.066212 0.000000 0.000000
# 5 0.000000 0.000000 0.000000 0.000000 0.027363 0.000000
# 6 0.000000 0.000000 0.000000 0.000000 0.000000 0.064025
#
#
# Mechanical properties :
#
#
# Convention : Reuss Voigt Hill
#
# Bulk Modulus (GPa) = 38.75779 38.94444 38.85111
# Shear Modulus (GPa) = 23.44433 27.92730 25.68582
#
# Velocity S-wave (km/s) = 3.55635 3.88150 3.72248
# Velocity P-wave (km/s) = 6.14591 6.41074 6.27972
#
# Compressibility (1/GPa) = 0.02580127
#
# Stress axis : x y z
#
# Youngs Moduli (GPa) = 76.56038 87.54017 83.67719
#
# Poissons Ratio (x) = 0.09392 0.19899
# Poissons Ratio (y) = 0.08214 0.15616
# Poissons Ratio (z) = 0.18207 0.16337
#
# Static dielectric constant tensor:
#      x y z
#    x 1.738220 0.000000 0.000000 
#    y 0.000000 1.711660 0.000000 
#    z 0.000000 0.000000 1.600160 
# 
# From -- ./inp_files/35043.got.cif
#   From: 2010.05.17/outbox.cif.g08.bks.cpg/sg21_18_cif.got.tgz:35043.got - 2010.06.03 23:14:55.
