data_PCOD9323620
_publ_section_title
;
Structure prediction by ZEFSAII (Michael W. Deem and Ramdas Pophale) SiO2 
 PCOD9323620
Probable space group: C 2 2 2
;
_chemical_formula_sum "Si O2"
_cell_formula_units_Z 52
_cell_length_a 8.121428
_cell_length_b 20.033438
_cell_length_c 15.833464
_cell_angle_alpha 90.000000
_cell_angle_beta 90.000000
_cell_angle_gamma 90.000000
_cell_volume 2576.106561
_symmetry_space_group_name_H-M "C 2 2 2"
_symmetry_group_IT_number 21
_symmetry_cell_setting 'orthorhombic'
loop_
_space_group_symop_operation_xyz
x,y,z
-x,-y,z
x,-y,-z
-x,y,-z
1/2+x,1/2+y,z
1/2-x,1/2-y,z
1/2+x,1/2-y,-z
1/2-x,1/2+y,-z
loop_
_atom_site_type_symbol
_atom_site_label
_atom_site_fract_x
_atom_site_fract_y
_atom_site_fract_z
Si Si1 0.006212 0.849893 0.313106
Si Si2 0.580539 0.715981 0.847827
Si Si3 0.246996 0.500000 0.000000
Si Si4 0.440772 0.771016 0.588011
Si Si5 0.635442 0.172106 0.760380
Si Si6 0.000000 0.119865 0.000000
Si Si7 0.500000 0.500000 0.283647
Si Si8 0.838546 0.474222 0.815228
O O1 0.033369 0.798519 0.389149
O O2 0.824921 0.829952 0.274587
O O3 0.012402 0.928588 0.331028
O O4 0.121334 0.828666 0.235089
O O5 0.750000 0.750000 0.876637
O O6 0.446287 0.771726 0.820217
O O7 0.512564 0.666723 0.918679
O O8 0.350177 0.568277 0.993165
O O9 0.163917 0.503910 0.091028
O O10 0.500000 0.800270 0.500000
O O11 0.250000 0.750000 0.578516
O O12 0.458474 0.817901 0.670594
O O13 0.632458 0.104538 0.812571
O O14 0.664315 0.507824 0.227037
O O15 0.000000 0.500000 0.766898
#
# Coordination Sequence:
#
# PCOD9323620 Si02
#       8
#     8   8   4   8   8   4   4   8
#     4   9  19  38  60  82 119 162 200 247 314 373
#     4  11  23  35  57  87 116 153 205 260 309 370
#     4  11  23  40  60  79 115 164 209 257 302 367
#     4   9  18  35  59  91 122 157 197 246 308 373
#     4   9  21  40  60  85 124 157 201 255 308 368
#     4  11  24  40  56  82 119 162 208 252 315 366
#     4  10  20  39  63  84 120 168 198 256 312 360
#     4  11  23  39  63  89 118 158 214 251 304 372
#
# _framework density 20.185499
#
# number of rings (size 3 to 8) (size 9 to 14) (size 15 to 20)
#    0.000    2.000    0.000    5.308    4.308    4.923 
#    0.000    0.385    0.000    0.462    0.000    0.000 
#    0.000    0.000    0.000    0.000    0.000    0.000 
#
# Total GULP energy -144793.722717 kJ/mol
# GULP energy per Si atom -5568.989335 kJ/mol
# Density = 2.013956 g / cm^3
# Si number density = 20.185499 Si / 1000 Ang^3
#
#
#
# Elastic Constant Matrix: (Units=GPa)
#
#
# Indices 1 2 3 4 5 6 
#
# 1 63.2414 38.2519 16.7676 0.0000 0.0000 0.0000
# 2 38.2519 111.5024 20.5864 0.0000 0.0000 0.0000
# 3 16.7676 20.5864 75.9140 0.0000 0.0000 0.0000
# 4 0.0000 0.0000 0.0000 12.2640 0.0000 0.0000
# 5 0.0000 0.0000 0.0000 0.0000 23.3279 0.0000
# 6 0.0000 0.0000 0.0000 0.0000 0.0000 10.0702
#
#
#
# Elastic Compliance Matrix: (Units=1/GPa)
#
#
# Indices 1 2 3 4 5 6 
#
# 1 0.020487 -0.006519 -0.002757 0.000000 0.000000 0.000000
# 2 -0.006519 0.011516 -0.001683 0.000000 0.000000 0.000000
# 3 -0.002757 -0.001683 0.014238 0.000000 0.000000 0.000000
# 4 0.000000 0.000000 0.000000 0.081540 0.000000 0.000000
# 5 0.000000 0.000000 0.000000 0.000000 0.042867 0.000000
# 6 0.000000 0.000000 0.000000 0.000000 0.000000 0.099303
#
#
# Mechanical properties :
#
#
# Convention : Reuss Voigt Hill
#
# Bulk Modulus (GPa) = 41.11492 44.65217 42.88355
# Shear Modulus (GPa) = 16.66802 20.80253 18.73527
#
# Velocity S-wave (km/s) = 2.87669 3.21373 3.04987
# Velocity P-wave (km/s) = 5.60772 5.99497 5.80458
#
# Compressibility (1/GPa) = 0.02432207
#
# Stress axis : x y z
#
# Youngs Moduli (GPa) = 48.81256 86.83913 70.23382
#
# Poissons Ratio (x) = 0.56611 0.19364
# Poissons Ratio (y) = 0.31821 0.11820
# Poissons Ratio (z) = 0.13458 0.14614
#
# Static dielectric constant tensor:
#      x y z
#    x 1.841420 0.000000 0.000000 
#    y 0.000000 1.754330 0.000000 
#    z 0.000000 0.000000 1.685940 
# 
# From -- ./inp_files/30719.got.cif
#   From: 2010.05.17/outbox.cif.g08.bks.cpg/sg21_16_cif.got.tgz:30719.got - 2010.06.03 23:14:55.
