data_PCOD9323087
_publ_section_title
;
Structure prediction by ZEFSAII (Michael W. Deem and Ramdas Pophale) SiO2 
 PCOD9323087
Probable space group: C 2 2 2
;
_chemical_formula_sum "Si O2"
_cell_formula_units_Z 64
_cell_length_a 27.780562
_cell_length_b 5.744402
_cell_length_c 18.025264
_cell_angle_alpha 90.000000
_cell_angle_beta 90.000000
_cell_angle_gamma 90.000000
_cell_volume 2876.520584
_symmetry_space_group_name_H-M "C 2 2 2"
_symmetry_group_IT_number 21
_symmetry_cell_setting 'orthorhombic'
loop_
_space_group_symop_operation_xyz
x,y,z
-x,-y,z
x,-y,-z
-x,y,-z
1/2+x,1/2+y,z
1/2-x,1/2-y,z
1/2+x,1/2-y,-z
1/2-x,1/2+y,-z
loop_
_atom_site_type_symbol
_atom_site_label
_atom_site_fract_x
_atom_site_fract_y
_atom_site_fract_z
Si Si1 0.202033 0.620123 0.077305
Si Si2 0.604553 0.001727 0.415194
Si Si3 0.021071 0.747283 0.348352
Si Si4 0.831381 0.532009 0.225965
Si Si5 0.904544 0.243809 0.042423
Si Si6 0.427141 0.254496 0.790707
Si Si7 0.371034 0.593966 0.683034
Si Si8 0.195975 0.277232 0.631933
O O1 0.250000 0.750000 0.100778
O O2 0.188729 0.450337 0.144245
O O3 0.152601 0.762819 0.063733
O O4 0.213222 0.500000 0.000000
O O5 0.575857 0.215227 0.377383
O O6 0.661962 0.037289 0.408902
O O7 0.589674 0.000000 0.500000
O O8 0.596673 0.771719 0.365402
O O9 0.025335 0.728756 0.259009
O O10 0.000000 0.500000 0.376765
O O11 0.000000 0.000000 0.369132
O O12 0.887249 0.448502 0.221299
O O13 0.831386 0.769090 0.269066
O O14 0.805550 0.349666 0.280662
O O15 0.932590 0.233765 0.121052
O O16 0.911260 0.500000 0.000000
O O17 0.915292 0.000000 0.000000
O O18 0.401856 0.471525 0.748309
O O19 0.337227 0.449220 0.628059
O O20 0.250000 0.250000 0.606127
#
# Coordination Sequence:
#
# PCOD9323087 Si02
#       8
#     8   8   8   8   8   8   8   8
#     4  10  20  34  47  82 131 175 229 288 342 405
#     4  11  25  46  67 103 145 185 226 296 368 432
#     4  12  26  46  76 109 137 180 237 284 354 440
#     4   9  19  35  61  87 123 177 234 282 350 404
#     4  10  23  37  62  94 127 179 230 278 353 418
#     4  10  21  40  67  94 132 175 227 289 344 416
#     4  10  19  40  70  90 133 186 231 296 350 422
#     4  10  21  41  64  99 132 179 242 287 345 423
#
# _framework density 22.249099999999999
#
# number of rings (size 3 to 8) (size 9 to 14) (size 15 to 20)
#    0.000    1.750    3.750    1.500    5.250    2.750 
#    6.750    1.875    0.000    2.250    0.000    0.000 
#    0.000    0.000    0.000    0.000    0.000    0.000 
#
# Total GULP energy -178224.286507 kJ/mol
# GULP energy per Si atom -5569.508953 kJ/mol
# Density = 2.219846 g / cm^3
# Si number density = 22.249100 Si / 1000 Ang^3
#
#
#
# Elastic Constant Matrix: (Units=GPa)
#
#
# Indices 1 2 3 4 5 6 
#
# 1 50.2433 28.1318 -3.7347 0.0000 0.0000 0.0000
# 2 28.1318 105.5090 30.2487 0.0000 0.0000 0.0000
# 3 -3.7347 30.2487 120.8545 0.0000 0.0000 0.0000
# 4 0.0000 0.0000 0.0000 11.6924 0.0000 0.0000
# 5 0.0000 0.0000 0.0000 0.0000 15.0717 0.0000
# 6 0.0000 0.0000 0.0000 0.0000 0.0000 10.1699
#
#
#
# Elastic Compliance Matrix: (Units=1/GPa)
#
#
# Indices 1 2 3 4 5 6 
#
# 1 0.024096 -0.007151 0.002535 0.000000 0.000000 0.000000
# 2 -0.007151 0.012333 -0.003308 0.000000 0.000000 0.000000
# 3 0.002535 -0.003308 0.009181 0.000000 0.000000 0.000000
# 4 0.000000 0.000000 0.000000 0.085526 0.000000 0.000000
# 5 0.000000 0.000000 0.000000 0.000000 0.066349 0.000000
# 6 0.000000 0.000000 0.000000 0.000000 0.000000 0.098330
#
#
# Mechanical properties :
#
#
# Convention : Reuss Voigt Hill
#
# Bulk Modulus (GPa) = 33.60202 42.87760 38.23981
# Shear Modulus (GPa) = 15.54808 22.18420 18.86614
#
# Velocity S-wave (km/s) = 2.64638 3.16109 2.91512
# Velocity P-wave (km/s) = 4.94704 5.71286 5.34369
#
# Compressibility (1/GPa) = 0.02976012
#
# Stress axis : x y z
#
# Youngs Moduli (GPa) = 41.50133 81.08384 108.92486
#
# Poissons Ratio (x) = 0.57985 -0.27607
# Poissons Ratio (y) = 0.29679 0.36030
# Poissons Ratio (z) = -0.10519 0.26821
#
# Static dielectric constant tensor:
#      x y z
#    x 1.879120 0.000000 0.000000 
#    y 0.000000 1.942270 0.000000 
#    z 0.000000 0.000000 1.812850 
# 
# From -- ./inp_files/37193.got.cif
#   From: 2010.05.17/outbox.cif.g08.bks.cpg/sg21_19_cif.got.tgz:37193.got - 2010.06.03 23:14:55.
