data_PCOD9323051
_publ_section_title
;
Structure prediction by ZEFSAII (Michael W. Deem and Ramdas Pophale) SiO2 
 PCOD9323051
Probable space group: C 2 2 2
;
_chemical_formula_sum "Si O2"
_cell_formula_units_Z 56
_cell_length_a 10.969893
_cell_length_b 15.172576
_cell_length_c 13.100873
_cell_angle_alpha 90.000000
_cell_angle_beta 90.000000
_cell_angle_gamma 90.000000
_cell_volume 2180.529415
_symmetry_space_group_name_H-M "C 2 2 2"
_symmetry_group_IT_number 21
_symmetry_cell_setting 'orthorhombic'
loop_
_space_group_symop_operation_xyz
x,y,z
-x,-y,z
x,-y,-z
-x,y,-z
1/2+x,1/2+y,z
1/2-x,1/2-y,z
1/2+x,1/2-y,-z
1/2-x,1/2+y,-z
loop_
_atom_site_type_symbol
_atom_site_label
_atom_site_fract_x
_atom_site_fract_y
_atom_site_fract_z
Si Si1 0.623950 0.556616 0.621384
Si Si2 0.051180 0.301756 0.274929
Si Si3 0.742041 0.858071 0.915850
Si Si4 0.518350 0.641309 0.822082
Si Si5 0.877918 0.442088 0.283049
Si Si6 0.130378 0.796825 0.535669
Si Si7 0.247091 0.643067 0.858708
O O1 0.500000 0.500000 0.621743
O O2 0.586193 0.622552 0.714389
O O3 0.759375 0.526475 0.653832
O O4 0.637405 0.606062 0.512770
O O5 0.062738 0.649535 0.325606
O O6 0.119000 0.229390 0.345551
O O7 0.000000 0.500000 0.284953
O O8 0.000856 0.246457 0.179357
O O9 0.750000 0.750000 0.902765
O O10 0.884476 0.885677 0.905742
O O11 0.669040 0.911470 0.829146
O O12 0.701776 0.882862 0.029619
O O13 0.381446 0.604901 0.834420
O O14 0.848993 0.630224 0.231508
O O15 0.250000 0.750000 0.496054
O O16 0.000000 0.763439 0.500000
O O17 0.250000 0.750000 0.864033
#
# Coordination Sequence:
#
# PCOD9323051 Si02
#       7
#     8   8   8   8   8   8   8
#     4  11  27  46  73 107 150 194 252 311 382 452
#     4  11  22  42  70 106 146 187 253 311 375 439
#     4  10  19  38  68 104 142 192 254 309 363 445
#     4  10  19  38  68  99 141 194 246 309 367 433
#     4  11  26  46  74 105 155 206 244 310 388 449
#     4  12  25  44  76 112 140 191 252 312 369 452
#     4   9  20  34  64 108 148 182 243 321 371 421
#
# _framework density 25.681836000000001
#
# number of rings (size 3 to 8) (size 9 to 14) (size 15 to 20)
#    0.000    1.429    2.857    2.571    2.000    0.857 
#    0.000    1.429    0.000    3.857    0.000    0.000 
#    0.000    0.000    0.000    0.000    0.000    0.000 
#
# Total GULP energy -156147.081810 kJ/mol
# GULP energy per Si atom -5576.681493 kJ/mol
# Density = 2.562338 g / cm^3
# Si number density = 25.681836 Si / 1000 Ang^3
#
#
#
# Elastic Constant Matrix: (Units=GPa)
#
#
# Indices 1 2 3 4 5 6 
#
# 1 220.9052 61.1318 61.8766 0.0000 0.0000 0.0000
# 2 61.1318 51.5419 27.7386 0.0000 0.0000 0.0000
# 3 61.8766 27.7386 123.0794 0.0000 0.0000 0.0000
# 4 0.0000 0.0000 0.0000 22.0415 0.0000 0.0000
# 5 0.0000 0.0000 0.0000 0.0000 35.4668 0.0000
# 6 0.0000 0.0000 0.0000 0.0000 0.0000 51.6012
#
#
#
# Elastic Compliance Matrix: (Units=1/GPa)
#
#
# Indices 1 2 3 4 5 6 
#
# 1 0.007111 -0.007408 -0.001905 0.000000 0.000000 0.000000
# 2 -0.007408 0.029798 -0.002991 0.000000 0.000000 0.000000
# 3 -0.001905 -0.002991 0.009757 0.000000 0.000000 0.000000
# 4 0.000000 0.000000 0.000000 0.045369 0.000000 0.000000
# 5 0.000000 0.000000 0.000000 0.000000 0.028195 0.000000
# 6 0.000000 0.000000 0.000000 0.000000 0.000000 0.019379
#
#
# Mechanical properties :
#
#
# Convention : Reuss Voigt Hill
#
# Bulk Modulus (GPa) = 45.33875 77.44671 61.39273
# Shear Modulus (GPa) = 29.14254 38.14054 33.64154
#
# Velocity S-wave (km/s) = 3.37226 3.85790 3.62323
# Velocity P-wave (km/s) = 5.73195 7.07575 6.43900
#
# Compressibility (1/GPa) = 0.02205619
#
# Stress axis : x y z
#
# Youngs Moduli (GPa) = 140.63553 33.55916 102.49304
#
# Poissons Ratio (x) = 0.24862 0.19526
# Poissons Ratio (y) = 1.04187 0.30658
# Poissons Ratio (z) = 0.26793 0.10038
#
# Static dielectric constant tensor:
#      x y z
#    x 2.042240 0.000000 0.000000 
#    y 0.000000 2.178780 0.000000 
#    z 0.000000 0.000000 2.107630 
# 
# From -- ./inp_files/31617.got.cif
#   From: 2010.05.17/outbox.cif.g08.bks.cpg/sg21_16_cif.got.tgz:31617.got - 2010.06.03 23:14:55.
