data_PCOD9323897
_publ_section_title
;
Structure prediction by ZEFSAII (Michael W. Deem and Ramdas Pophale) SiO2 
 PCOD9323897
Probable space group: C 2 2 2
;
_chemical_formula_sum "Si O2"
_cell_formula_units_Z 64
_cell_length_a 8.787320
_cell_length_b 35.247357
_cell_length_c 12.852841
_cell_angle_alpha 90.000000
_cell_angle_beta 90.000000
_cell_angle_gamma 90.000000
_cell_volume 3980.907938
_symmetry_space_group_name_H-M "C 2 2 2"
_symmetry_group_IT_number 21
_symmetry_cell_setting 'orthorhombic'
loop_
_space_group_symop_operation_xyz
x,y,z
-x,-y,z
x,-y,-z
-x,y,-z
1/2+x,1/2+y,z
1/2-x,1/2-y,z
1/2+x,1/2-y,-z
1/2-x,1/2+y,-z
loop_
_atom_site_type_symbol
_atom_site_label
_atom_site_fract_x
_atom_site_fract_y
_atom_site_fract_z
Si Si1 0.182626 0.578540 0.621574
Si Si2 0.681492 0.291485 0.877982
Si Si3 0.681492 0.291485 0.122018
Si Si4 0.316969 0.838743 0.305484
Si Si5 0.680278 0.500000 0.623975
Si Si6 0.817374 0.421460 0.378426
Si Si7 0.816969 0.661257 0.305484
Si Si8 0.682636 0.707633 0.500000
O O1 0.251872 0.539505 0.664246
O O2 0.228978 0.582994 0.500000
O O3 0.225513 0.617127 0.679801
O O4 0.000000 0.575195 0.623295
O O5 0.750000 0.250000 0.854303
O O6 0.500000 0.290761 0.861432
O O7 0.758832 0.321574 0.802289
O O8 0.710547 0.299237 0.000000
O O9 0.750000 0.250000 0.145697
O O10 0.758832 0.321574 0.197711
O O11 0.274487 0.882873 0.320199
O O12 0.500000 0.835749 0.313470
O O13 0.242836 0.814658 0.398805
O O14 0.500000 0.500000 0.635928
O O15 0.717109 0.500000 0.500000
O O16 0.748128 0.539505 0.664246
O O17 0.742836 0.685342 0.398805
O O18 0.500000 0.709041 0.500000
O O19 0.750000 0.750000 0.500000
#
# Coordination Sequence:
#
# PCOD9323897 Si02
#       8
#     8   8   8   8   8   8   8   8
#     4   9  17  31  48  68  98 134 166 199 242 295
#     4  10  21  37  55  75  99 130 170 214 258 301
#     4  10  21  37  55  75  99 130 170 214 258 301
#     4  11  21  35  53  75 102 132 170 209 251 300
#     4   9  17  27  43  69  98 129 166 203 239 285
#     4   9  17  31  48  68  98 134 166 199 242 295
#     4  11  21  35  53  75 102 132 170 209 251 300
#     4  12  24  36  50  69 100 137 170 204 249 302
#
# _framework density 16.076734999999999
#
# number of rings (size 3 to 8) (size 9 to 14) (size 15 to 20)
#    0.000    1.875    1.250    3.750    0.000    5.000 
#    0.000    0.000    0.000    0.000    0.000    0.875 
#    0.000    7.000    0.000    0.000    0.000    0.000 
#
# Total GULP energy -178610.848754 kJ/mol
# GULP energy per Si atom -5581.589024 kJ/mol
# Density = 1.604014 g / cm^3
# Si number density = 16.076735 Si / 1000 Ang^3
#
#
#
# Elastic Constant Matrix: (Units=GPa)
#
#
# Indices 1 2 3 4 5 6 
#
# 1 64.0058 64.4166 35.5652 0.0000 0.0000 0.0000
# 2 64.4166 184.6381 65.7180 0.0000 0.0000 0.0000
# 3 35.5652 65.7180 55.7960 0.0000 0.0000 0.0000
# 4 0.0000 0.0000 0.0000 13.1437 0.0000 0.0000
# 5 0.0000 0.0000 0.0000 0.0000 21.5446 0.0000
# 6 0.0000 0.0000 0.0000 0.0000 0.0000 28.3603
#
#
#
# Elastic Compliance Matrix: (Units=1/GPa)
#
#
# Indices 1 2 3 4 5 6 
#
# 1 0.027320 -0.005739 -0.010654 0.000000 0.000000 0.000000
# 2 -0.005739 0.010531 -0.008746 0.000000 0.000000 0.000000
# 3 -0.010654 -0.008746 0.035014 0.000000 0.000000 0.000000
# 4 0.000000 0.000000 0.000000 0.076082 0.000000 0.000000
# 5 0.000000 0.000000 0.000000 0.000000 0.046415 0.000000
# 6 0.000000 0.000000 0.000000 0.000000 0.000000 0.035260
#
#
# Mechanical properties :
#
#
# Convention : Reuss Voigt Hill
#
# Bulk Modulus (GPa) = 44.27289 70.64885 57.46087
# Shear Modulus (GPa) = 17.33522 21.85907 19.59714
#
# Velocity S-wave (km/s) = 3.28728 3.69137 3.49517
# Velocity P-wave (km/s) = 6.48125 7.88724 7.21855
#
# Compressibility (1/GPa) = 0.02258718
#
# Stress axis : x y z
#
# Youngs Moduli (GPa) = 36.60368 94.95719 28.55969
#
# Poissons Ratio (x) = 0.54497 0.30428
# Poissons Ratio (y) = 0.21007 0.24977
# Poissons Ratio (z) = 0.38999 0.83045
#
# Static dielectric constant tensor:
#      x y z
#    x 1.537380 0.000000 0.000000 
#    y 0.000000 1.537590 0.000000 
#    z 0.000000 0.000000 1.519350 
# 
# From -- ./inp_files/23126.got.cif
#   From: 2010.05.17/outbox.cif.g08.bks.cpg/sg21_12_cif.got.tgz:23126.got - 2010.06.03 23:14:55.
