data_PCOD9323263
_publ_section_title
;
Structure prediction by ZEFSAII (Michael W. Deem and Ramdas Pophale) SiO2 
 PCOD9323263
Probable space group: C 2 2 2
;
_chemical_formula_sum "Si O2"
_cell_formula_units_Z 40
_cell_length_a 26.485707
_cell_length_b 16.826453
_cell_length_c 5.306023
_cell_angle_alpha 90.000000
_cell_angle_beta 90.000000
_cell_angle_gamma 90.000000
_cell_volume 2364.684884
_symmetry_space_group_name_H-M "C 2 2 2"
_symmetry_group_IT_number 21
_symmetry_cell_setting 'orthorhombic'
loop_
_space_group_symop_operation_xyz
x,y,z
-x,-y,z
x,-y,-z
-x,y,-z
1/2+x,1/2+y,z
1/2-x,1/2-y,z
1/2+x,1/2-y,-z
1/2-x,1/2+y,-z
loop_
_atom_site_type_symbol
_atom_site_label
_atom_site_fract_x
_atom_site_fract_y
_atom_site_fract_z
Si Si1 0.978226 0.408717 0.747130
Si Si2 0.730886 0.907315 0.434572
Si Si3 0.133198 0.410032 0.087239
Si Si4 0.170185 0.712369 0.267961
Si Si5 0.196230 0.795160 0.759108
O O1 0.918082 0.406924 0.754574
O O2 0.000000 0.500000 0.747951
O O3 0.000000 0.369486 0.500000
O O4 0.000000 0.371651 0.000000
O O5 0.683400 0.892527 0.247136
O O6 0.717619 0.847787 0.668853
O O7 0.783919 0.882884 0.308675
O O8 0.729766 0.000000 0.500000
O O9 0.137793 0.500000 0.000000
O O10 0.130717 0.350685 0.848928
O O11 0.162717 0.760252 0.528618
O O12 0.177506 0.774110 0.037773
O O13 0.250000 0.750000 0.742204
#
# Coordination Sequence:
#
# PCOD9323263 Si02
#       5
#     8   8   8   8   8
#     4  10  22  35  47  61  94 131 156 218 258 292
#     4  11  23  31  52  74  97 127 178 227 245 304
#     4  12  22  32  51  74  96 127 186 219 252 289
#     4  11  21  34  49  67  95 129 162 219 252 310
#     4  10  20  35  47  64  98 126 157 211 273 290
#
# _framework density 16.915571
#
# number of rings (size 3 to 8) (size 9 to 14) (size 15 to 20)
#    0.000    1.200    8.000    1.800    5.600    0.000 
#    0.000    0.000    0.000    0.000    0.000    0.000 
#    0.000    0.000    0.000    0.000    0.000   15.000 
#
# Total GULP energy -111337.247445 kJ/mol
# GULP energy per Si atom -5566.862372 kJ/mol
# Density = 1.687707 g / cm^3
# Si number density = 16.915571 Si / 1000 Ang^3
#
#
#
# Elastic Constant Matrix: (Units=GPa)
#
#
# Indices 1 2 3 4 5 6 
#
# 1 50.8147 25.9411 30.5247 0.0000 0.0000 0.0000
# 2 25.9411 49.5244 31.5449 0.0000 0.0000 0.0000
# 3 30.5247 31.5449 138.6911 0.0000 0.0000 0.0000
# 4 0.0000 0.0000 0.0000 10.0386 0.0000 0.0000
# 5 0.0000 0.0000 0.0000 0.0000 29.6389 0.0000
# 6 0.0000 0.0000 0.0000 0.0000 0.0000 8.2548
#
#
#
# Elastic Compliance Matrix: (Units=1/GPa)
#
#
# Indices 1 2 3 4 5 6 
#
# 1 0.028111 -0.012611 -0.003319 0.000000 0.000000 0.000000
# 2 -0.012611 0.029270 -0.003882 0.000000 0.000000 0.000000
# 3 -0.003319 -0.003882 0.008824 0.000000 0.000000 0.000000
# 4 0.000000 0.000000 0.000000 0.099616 0.000000 0.000000
# 5 0.000000 0.000000 0.000000 0.000000 0.033739 0.000000
# 6 0.000000 0.000000 0.000000 0.000000 0.000000 0.121141
#
#
# Mechanical properties :
#
#
# Convention : Reuss Voigt Hill
#
# Bulk Modulus (GPa) = 37.61941 46.11682 41.86811
# Shear Modulus (GPa) = 13.54338 19.65442 16.59890
#
# Velocity S-wave (km/s) = 2.83264 3.41238 3.13594
# Velocity P-wave (km/s) = 5.74336 6.54583 6.15769
#
# Compressibility (1/GPa) = 0.02658202
#
# Stress axis : x y z
#
# Youngs Moduli (GPa) = 35.57367 34.16440 113.33236
#
# Poissons Ratio (x) = 0.43084 0.37611
# Poissons Ratio (y) = 0.44861 0.43995
# Poissons Ratio (z) = 0.11806 0.13262
#
# Static dielectric constant tensor:
#      x y z
#    x 1.599420 0.000000 0.000000 
#    y 0.000000 1.645070 0.000000 
#    z 0.000000 0.000000 1.657350 
# 
# From -- ./inp_files/5812.got.cif
#   From: 2010.05.17/outbox.cif.g08.bks.cpg/sg21_3_cif.got.tgz:5812.got - 2010.06.03 23:14:55.
