data_PCOD9323104
_publ_section_title
;
Structure prediction by ZEFSAII (Michael W. Deem and Ramdas Pophale) SiO2 
 PCOD9323104
Probable space group: C 2 2 2
;
_chemical_formula_sum "Si O2"
_cell_formula_units_Z 40
_cell_length_a 8.952397
_cell_length_b 11.772469
_cell_length_c 16.794017
_cell_angle_alpha 90.000000
_cell_angle_beta 90.000000
_cell_angle_gamma 90.000000
_cell_volume 1769.951952
_symmetry_space_group_name_H-M "C 2 2 2"
_symmetry_group_IT_number 21
_symmetry_cell_setting 'orthorhombic'
loop_
_space_group_symop_operation_xyz
x,y,z
-x,-y,z
x,-y,-z
-x,y,-z
1/2+x,1/2+y,z
1/2-x,1/2-y,z
1/2+x,1/2-y,-z
1/2-x,1/2+y,-z
loop_
_atom_site_type_symbol
_atom_site_label
_atom_site_fract_x
_atom_site_fract_y
_atom_site_fract_z
Si Si1 0.390118 0.838282 0.074218
Si Si2 0.175977 0.016750 0.129070
Si Si3 0.328881 0.624487 0.468695
Si Si4 0.104813 0.766998 0.801458
Si Si5 0.333235 0.630683 0.280702
O O1 0.250000 0.750000 0.075298
O O2 0.301258 0.956186 0.077858
O O3 0.494906 0.817477 0.152070
O O4 0.500000 0.824082 0.000000
O O5 0.212298 0.964108 0.216554
O O6 0.182213 0.150626 0.133119
O O7 0.000000 0.000000 0.106812
O O8 0.269870 0.500000 0.500000
O O9 0.500000 0.634140 0.500000
O O10 0.250000 0.750000 0.484711
O O11 0.323799 0.606667 0.373293
O O12 0.250000 0.750000 0.747601
O O13 0.999778 0.843325 0.747024
O O14 0.250000 0.750000 0.267178
#
# Coordination Sequence:
#
# PCOD9323104 Si02
#       5
#     8   8   8   8   8
#     4  12  23  45  69 100 140 177 234 302 361 434
#     4  10  20  41  73  91 126 177 239 275 356 434
#     4  10  24  42  69 108 153 193 242 299 378 435
#     4  11  23  40  67 103 132 174 243 290 358 436
#     4  10  19  43  71  93 136 185 232 297 343 438
#
# _framework density 22.599482999999999
#
# number of rings (size 3 to 8) (size 9 to 14) (size 15 to 20)
#    0.000    1.400    6.000    0.600    8.400    2.000 
#    0.000    8.000    0.000    0.000    0.000    0.000 
#    0.000    0.000    0.000    0.000    0.000    0.000 
#
# Total GULP energy -111361.681312 kJ/mol
# GULP energy per Si atom -5568.084066 kJ/mol
# Density = 2.254805 g / cm^3
# Si number density = 22.599483 Si / 1000 Ang^3
#
#
#
# Elastic Constant Matrix: (Units=GPa)
#
#
# Indices 1 2 3 4 5 6 
#
# 1 127.0993 57.6489 39.8694 0.0000 0.0000 0.0000
# 2 57.6489 148.6917 44.6068 0.0000 0.0000 0.0000
# 3 39.8694 44.6068 117.1415 0.0000 0.0000 0.0000
# 4 0.0000 0.0000 0.0000 28.7952 0.0000 0.0000
# 5 0.0000 0.0000 0.0000 0.0000 22.8115 0.0000
# 6 0.0000 0.0000 0.0000 0.0000 0.0000 50.2904
#
#
#
# Elastic Compliance Matrix: (Units=1/GPa)
#
#
# Indices 1 2 3 4 5 6 
#
# 1 0.010016 -0.003230 -0.002179 0.000000 0.000000 0.000000
# 2 -0.003230 0.008634 -0.002189 0.000000 0.000000 0.000000
# 3 -0.002179 -0.002189 0.010112 0.000000 0.000000 0.000000
# 4 0.000000 0.000000 0.000000 0.034728 0.000000 0.000000
# 5 0.000000 0.000000 0.000000 0.000000 0.043837 0.000000
# 6 0.000000 0.000000 0.000000 0.000000 0.000000 0.019885
#
#
# Mechanical properties :
#
#
# Convention : Reuss Voigt Hill
#
# Bulk Modulus (GPa) = 73.70700 75.24251 74.47475
# Shear Modulus (GPa) = 34.02992 37.09993 35.56493
#
# Velocity S-wave (km/s) = 3.88465 4.05610 3.97130
# Velocity P-wave (km/s) = 7.26677 7.43654 7.35214
#
# Compressibility (1/GPa) = 0.01356723
#
# Stress axis : x y z
#
# Youngs Moduli (GPa) = 99.83678 115.82050 98.89435
#
# Poissons Ratio (x) = 0.37406 0.21552
# Poissons Ratio (y) = 0.32244 0.21644
# Poissons Ratio (z) = 0.21757 0.25348
#
# Static dielectric constant tensor:
#      x y z
#    x 1.570460 0.000000 0.000000 
#    y 0.000000 1.570690 0.000000 
#    z 0.000000 0.000000 1.870540 
# 
# From -- ./inp_files/35468.got.cif
#   From: 2010.05.17/outbox.cif.g08.bks.cpg/sg21_18_cif.got.tgz:35468.got - 2010.06.03 23:14:55.
