data_PCOD9323933
_publ_section_title
;
Structure prediction by ZEFSAII (Michael W. Deem and Ramdas Pophale) SiO2 
 PCOD9323933
Probable space group: C 2 2 2
;
_chemical_formula_sum "Si O2"
_cell_formula_units_Z 60
_cell_length_a 19.007626
_cell_length_b 5.558583
_cell_length_c 29.355078
_cell_angle_alpha 90.000000
_cell_angle_beta 90.000000
_cell_angle_gamma 90.000000
_cell_volume 3101.524468
_symmetry_space_group_name_H-M "C 2 2 2"
_symmetry_group_IT_number 21
_symmetry_cell_setting 'orthorhombic'
loop_
_space_group_symop_operation_xyz
x,y,z
-x,-y,z
x,-y,-z
-x,y,-z
1/2+x,1/2+y,z
1/2-x,1/2-y,z
1/2+x,1/2-y,-z
1/2-x,1/2+y,-z
loop_
_atom_site_type_symbol
_atom_site_label
_atom_site_fract_x
_atom_site_fract_y
_atom_site_fract_z
Si Si1 0.164105 0.749632 0.475651
Si Si2 0.665061 0.242834 0.370723
Si Si3 0.665038 0.259991 0.680374
Si Si4 0.321980 0.907261 0.900530
Si Si5 0.292647 0.000000 0.000000
Si Si6 0.070330 0.131780 0.151486
Si Si7 0.672609 0.760687 0.810784
Si Si8 0.428796 0.910072 0.757397
O O1 0.142343 0.500000 0.500000
O O2 0.250000 0.750000 0.476243
O O3 0.140788 0.744983 0.423086
O O4 0.142422 0.000000 0.500000
O O5 0.750000 0.250000 0.371873
O O6 0.646300 0.494231 0.346167
O O7 0.646538 0.990696 0.345907
O O8 0.750000 0.250000 0.688246
O O9 0.619492 0.256382 0.726265
O O10 0.250000 0.750000 0.899356
O O11 0.393209 0.764460 0.890158
O O12 0.328955 0.019682 0.950589
O O13 0.318127 0.082212 0.856912
O O14 0.250000 0.250000 0.002954
O O15 0.048254 0.287787 0.195181
O O16 0.134455 0.975710 0.171674
O O17 0.000000 0.000000 0.136681
O O18 0.750000 0.750000 0.790140
O O19 0.621504 0.877039 0.773996
O O20 0.500000 0.000000 0.733921
#
# Coordination Sequence:
#
# PCOD9323933 Si02
#       8
#     8   8   8   8   4   8   8   8
#     4   9  15  24  44  71 105 148 190 234 291 356
#     4   9  18  33  48  76 114 152 196 243 297 354
#     4  10  22  35  55  78 113 157 197 246 297 355
#     4  10  21  37  62  98 119 158 202 248 298 359
#     4  10  22  38  66 101 131 158 202 254 300 356
#     4  11  23  40  61  88 124 160 196 256 312 356
#     4  11  22  37  63  86 119 151 204 251 298 359
#     4  11  25  39  56  86 114 156 206 252 309 362
#
# _framework density 19.345327000000001
#
# number of rings (size 3 to 8) (size 9 to 14) (size 15 to 20)
#    0.000    1.867    2.667    1.200    5.600    3.733 
#    0.000    0.000    0.000    2.400    0.000    0.000 
#    0.000    8.000    0.000    0.000    0.000    0.000 
#
# Total GULP energy -167209.821194 kJ/mol
# GULP energy per Si atom -5573.660706 kJ/mol
# Density = 1.930130 g / cm^3
# Si number density = 19.345327 Si / 1000 Ang^3
#
#
#
# Elastic Constant Matrix: (Units=GPa)
#
#
# Indices 1 2 3 4 5 6 
#
# 1 78.9716 24.9160 25.8359 0.0000 0.0000 0.0000
# 2 24.9160 106.1412 42.6584 0.0000 0.0000 0.0000
# 3 25.8359 42.6584 108.3250 0.0000 0.0000 0.0000
# 4 0.0000 0.0000 0.0000 -27.3205 0.0000 0.0000
# 5 0.0000 0.0000 0.0000 0.0000 6.9656 0.0000
# 6 0.0000 0.0000 0.0000 0.0000 0.0000 26.7894
#
#
#
# Elastic Compliance Matrix: (Units=1/GPa)
#
#
# Indices 1 2 3 4 5 6 
#
# 1 0.014209 -0.002345 -0.002466 0.000000 0.000000 0.000000
# 2 -0.002345 0.011580 -0.004001 0.000000 0.000000 0.000000
# 3 -0.002466 -0.004001 0.011395 0.000000 0.000000 0.000000
# 4 0.000000 0.000000 0.000000 -0.036603 0.000000 0.000000
# 5 0.000000 0.000000 0.000000 0.000000 0.143562 0.000000
# 6 0.000000 0.000000 0.000000 0.000000 0.000000 0.037328
#
#
# Mechanical properties :
#
#
# Convention : Reuss Voigt Hill
#
# Bulk Modulus (GPa) = 51.12013 53.36203 52.24108
# Shear Modulus (GPa) = 24.31735 14.62208 19.46971
#
# Velocity S-wave (km/s) = 3.54929 2.75225 3.17587
# Velocity P-wave (km/s) = 6.57868 6.14358 6.36485
#
# Compressibility (1/GPa) = 0.01956176
#
# Stress axis : x y z
#
# Youngs Moduli (GPa) = 70.37719 86.35751 87.75693
#
# Poissons Ratio (x) = 0.20247 0.21638
# Poissons Ratio (y) = 0.16500 0.35111
# Poissons Ratio (z) = 0.17353 0.34551
#
# Static dielectric constant tensor:
#      x y z
#    x 1.684330 0.000000 0.000000 
#    y 0.000000 1.737520 0.000000 
#    z 0.000000 0.000000 1.683020 
# 
# From -- ./inp_files/39420.got.cif
#   From: 2010.05.17/outbox.cif.g08.bks.cpg/sg21_20_cif.got.tgz:39420.got - 2010.06.03 23:14:55.
