data_PCOD9323627
_publ_section_title
;
Structure prediction by ZEFSAII (Michael W. Deem and Ramdas Pophale) SiO2 
 PCOD9323627
Probable space group: C 2 2 2
;
_chemical_formula_sum "Si O2"
_cell_formula_units_Z 56
_cell_length_a 23.247082
_cell_length_b 13.964470
_cell_length_c 8.423600
_cell_angle_alpha 90.000000
_cell_angle_beta 90.000000
_cell_angle_gamma 90.000000
_cell_volume 2734.580048
_symmetry_space_group_name_H-M "C 2 2 2"
_symmetry_group_IT_number 21
_symmetry_cell_setting 'orthorhombic'
loop_
_space_group_symop_operation_xyz
x,y,z
-x,-y,z
x,-y,-z
-x,y,-z
1/2+x,1/2+y,z
1/2-x,1/2-y,z
1/2+x,1/2-y,-z
1/2-x,1/2+y,-z
loop_
_atom_site_type_symbol
_atom_site_label
_atom_site_fract_x
_atom_site_fract_y
_atom_site_fract_z
Si Si1 0.567357 0.313158 0.022160
Si Si2 0.863698 0.000000 0.000000
Si Si3 0.892253 0.745753 0.313521
Si Si4 0.187363 0.216048 0.576145
Si Si5 0.841326 0.532904 0.317584
Si Si6 0.403448 0.143230 0.737996
Si Si7 0.500000 0.176763 0.500000
Si Si8 0.207430 0.014011 0.689809
O O1 0.596979 0.413233 0.064632
O O2 0.576126 0.222736 0.137746
O O3 0.500000 0.328356 0.000000
O O4 0.596774 0.285123 0.858011
O O5 0.826213 0.973683 0.156742
O O6 0.850322 0.809035 0.422104
O O7 0.863907 0.640336 0.300836
O O8 0.953972 0.737437 0.400036
O O9 0.250000 0.250000 0.523179
O O10 0.149710 0.301442 0.651888
O O11 0.198846 0.129603 0.696669
O O12 0.852192 0.500000 0.500000
O O13 0.877227 0.457989 0.210856
O O14 0.773422 0.519828 0.292303
O O15 0.457814 0.122933 0.622164
O O16 0.193287 0.000000 0.500000
#
# Coordination Sequence:
#
# PCOD9323627 Si02
#       8
#     8   4   8   8   8   8   4   8
#     4  12  26  47  62  94 131 170 225 282 333 398
#     4  12  27  46  70  92 126 177 224 286 350 394
#     4  11  24  39  68  99 132 173 221 270 328 399
#     4  11  19  40  67  94 130 174 214 265 330 392
#     4  11  21  40  65 100 135 171 215 268 324 409
#     4  11  22  39  68  91 131 174 214 264 331 393
#     4  10  20  39  64  97 124 174 224 259 314 397
#     4  11  23  41  65  98 133 167 223 276 329 405
#
# _framework density 20.478465
#
# number of rings (size 3 to 8) (size 9 to 14) (size 15 to 20)
#    0.000    0.857    7.143    1.929    0.000    2.857 
#    0.000    2.857    0.000    1.714    0.000    0.000 
#    0.000    0.000    0.000    0.000    0.000    0.000 
#
# Total GULP energy -156172.270322 kJ/mol
# GULP energy per Si atom -5577.581083 kJ/mol
# Density = 2.043186 g / cm^3
# Si number density = 20.478465 Si / 1000 Ang^3
#
#
#
# Elastic Constant Matrix: (Units=GPa)
#
#
# Indices 1 2 3 4 5 6 
#
# 1 155.0487 40.7053 45.4688 0.0000 0.0000 0.0000
# 2 40.7053 74.1613 7.4759 0.0000 0.0000 0.0000
# 3 45.4688 7.4759 59.0126 0.0000 0.0000 0.0000
# 4 0.0000 0.0000 0.0000 93.0389 0.0000 0.0000
# 5 0.0000 0.0000 0.0000 0.0000 24.7157 0.0000
# 6 0.0000 0.0000 0.0000 0.0000 0.0000 53.4441
#
#
#
# Elastic Compliance Matrix: (Units=1/GPa)
#
#
# Indices 1 2 3 4 5 6 
#
# 1 0.009677 -0.004619 -0.006871 0.000000 0.000000 0.000000
# 2 -0.004619 0.015863 0.001549 0.000000 0.000000 0.000000
# 3 -0.006871 0.001549 0.022043 0.000000 0.000000 0.000000
# 4 0.000000 0.000000 0.000000 0.010748 0.000000 0.000000
# 5 0.000000 0.000000 0.000000 0.000000 0.040460 0.000000
# 6 0.000000 0.000000 0.000000 0.000000 0.000000 0.018711
#
#
# Mechanical properties :
#
#
# Convention : Reuss Voigt Hill
#
# Bulk Modulus (GPa) = 36.09818 52.83585 44.46701
# Shear Modulus (GPa) = 34.10210 47.21125 40.65668
#
# Velocity S-wave (km/s) = 4.08519 4.80668 4.46055
# Velocity P-wave (km/s) = 6.31802 7.52743 6.94909
#
# Compressibility (1/GPa) = 0.02770223
#
# Stress axis : x y z
#
# Youngs Moduli (GPa) = 103.33604 63.03921 45.36517
#
# Poissons Ratio (x) = 0.29117 0.31171
# Poissons Ratio (y) = 0.47730 -0.07028
# Poissons Ratio (z) = 0.71003 -0.09766
#
# Static dielectric constant tensor:
#      x y z
#    x 1.692570 0.000000 0.000000 
#    y 0.000000 1.782080 0.000000 
#    z 0.000000 0.000000 1.727630 
# 
# From -- ./inp_files/17746.got.cif
#   From: 2010.05.17/outbox.cif.g08.bks.cpg/sg21_9_cif.got.tgz:17746.got - 2010.06.03 23:14:55.
