data_PCOD9323804
_publ_section_title
;
Structure prediction by ZEFSAII (Michael W. Deem and Ramdas Pophale) SiO2 
 PCOD9323804
Probable space group: C 2 2 2
;
_chemical_formula_sum "Si O2"
_cell_formula_units_Z 34
_cell_length_a 5.331256
_cell_length_b 25.420728
_cell_length_c 12.557797
_cell_angle_alpha 90.000000
_cell_angle_beta 90.000000
_cell_angle_gamma 90.000000
_cell_volume 1701.888013
_symmetry_space_group_name_H-M "C 2 2 2"
_symmetry_group_IT_number 21
_symmetry_cell_setting 'orthorhombic'
loop_
_space_group_symop_operation_xyz
x,y,z
-x,-y,z
x,-y,-z
-x,y,-z
1/2+x,1/2+y,z
1/2-x,1/2-y,z
1/2+x,1/2-y,-z
1/2-x,1/2+y,-z
loop_
_atom_site_type_symbol
_atom_site_label
_atom_site_fract_x
_atom_site_fract_y
_atom_site_fract_z
Si Si1 0.000000 0.000000 0.500000
Si Si2 0.856108 0.449880 0.319915
Si Si3 0.257900 0.837455 0.250267
Si Si4 0.500000 0.886300 0.500000
Si Si5 0.236589 0.810242 0.616518
Si Si6 0.250000 0.250000 0.929350
O O1 0.839905 0.033441 0.413140
O O2 0.762938 0.401928 0.246067
O O3 0.000000 0.500000 0.271119
O O4 0.052543 0.422097 0.398543
O O5 0.513930 0.821161 0.311625
O O6 0.254911 0.802412 0.144087
O O7 0.006262 0.821990 0.313396
O O8 0.270125 0.846232 0.512074
O O9 0.250000 0.750000 0.583901
O O10 0.500000 0.250864 0.000000
#
# Coordination Sequence:
#
# PCOD9323804 Si02
#       6
#     2   8   8   4   8   4
#     4  12  18  36  62  90 128 180 238 248 292 352
#     4  11  22  37  56  87 131 177 226 264 295 375
#     4  11  24  41  63  97 126 167 212 277 345 395
#     4  10  21  34  53  84 129 180 227 252 292 356
#     4  11  21  38  58  87 137 173 215 267 322 394
#     4  12  24  46  76 100 124 154 214 288 368 442
#
# _framework density 19.977812
#
# number of rings (size 3 to 8) (size 9 to 14) (size 15 to 20)
#    0.000    0.941    4.706    2.824    3.294    6.588 
#    0.000    0.000    0.000    0.706    0.000    0.000 
#    0.000    0.000    0.000    0.000    0.000    0.000 
#
# Total GULP energy -94650.487172 kJ/mol
# GULP energy per Si atom -5567.675716 kJ/mol
# Density = 1.993234 g / cm^3
# Si number density = 19.977812 Si / 1000 Ang^3
#
#
#
# Elastic Constant Matrix: (Units=GPa)
#
#
# Indices 1 2 3 4 5 6 
#
# 1 142.6904 30.1405 49.7014 0.0000 0.0000 0.0000
# 2 30.1405 167.7934 39.6054 0.0000 0.0000 0.0000
# 3 49.7014 39.6054 92.4602 0.0000 0.0000 0.0000
# 4 0.0000 0.0000 0.0000 1.4853 0.0000 0.0000
# 5 0.0000 0.0000 0.0000 0.0000 35.0008 0.0000
# 6 0.0000 0.0000 0.0000 0.0000 0.0000 23.5125
#
#
#
# Elastic Compliance Matrix: (Units=1/GPa)
#
#
# Indices 1 2 3 4 5 6 
#
# 1 0.008661 -0.000508 -0.004438 0.000000 0.000000 0.000000
# 2 -0.000508 0.006660 -0.002580 0.000000 0.000000 0.000000
# 3 -0.004438 -0.002580 0.014306 0.000000 0.000000 0.000000
# 4 0.000000 0.000000 0.000000 0.673268 0.000000 0.000000
# 5 0.000000 0.000000 0.000000 0.000000 0.028571 0.000000
# 6 0.000000 0.000000 0.000000 0.000000 0.000000 0.042531
#
#
# Mechanical properties :
#
#
# Convention : Reuss Voigt Hill
#
# Bulk Modulus (GPa) = 68.60853 71.31540 69.96197
# Shear Modulus (GPa) = 6.29796 30.89949 18.59872
#
# Velocity S-wave (km/s) = 1.77745 3.93706 3.05449
# Velocity P-wave (km/s) = 6.21525 7.51280 6.89462
#
# Compressibility (1/GPa) = 0.01457545
#
# Stress axis : x y z
#
# Youngs Moduli (GPa) = 115.45431 150.15289 69.90005
#
# Poissons Ratio (x) = 0.07632 0.31023
# Poissons Ratio (y) = 0.05868 0.18031
# Poissons Ratio (z) = 0.51241 0.38733
#
# Static dielectric constant tensor:
#      x y z
#    x 1.981900 0.000000 0.000000 
#    y 0.000000 1.879700 0.000000 
#    z 0.000000 0.000000 1.751440 
# 
# From -- ./inp_files/20985.got.cif
#   From: 2010.05.17/outbox.cif.g08.bks.cpg/sg21_11_cif.got.tgz:20985.got - 2010.06.03 23:14:55.
