data_PCOD9323695
_publ_section_title
;
Structure prediction by ZEFSAII (Michael W. Deem and Ramdas Pophale) SiO2 
 PCOD9323695
Probable space group: C 2 2 2
;
_chemical_formula_sum "Si O2"
_cell_formula_units_Z 58
_cell_length_a 9.208227
_cell_length_b 16.570224
_cell_length_c 18.591180
_cell_angle_alpha 90.000000
_cell_angle_beta 90.000000
_cell_angle_gamma 90.000000
_cell_volume 2836.686566
_symmetry_space_group_name_H-M "C 2 2 2"
_symmetry_group_IT_number 21
_symmetry_cell_setting 'orthorhombic'
loop_
_space_group_symop_operation_xyz
x,y,z
-x,-y,z
x,-y,-z
-x,y,-z
1/2+x,1/2+y,z
1/2-x,1/2-y,z
1/2+x,1/2-y,-z
1/2-x,1/2+y,-z
loop_
_atom_site_type_symbol
_atom_site_label
_atom_site_fract_x
_atom_site_fract_y
_atom_site_fract_z
Si Si1 0.127522 0.132554 0.602760
Si Si2 0.652267 0.100743 0.857737
Si Si3 0.313216 0.911640 0.121572
Si Si4 0.046388 0.311573 0.579418
Si Si5 0.673583 0.665665 0.010067
Si Si6 0.000000 0.000000 0.500000
Si Si7 0.613695 0.200566 0.719835
Si Si8 0.136589 0.818591 0.245459
O O1 0.036849 0.213739 0.584709
O O2 0.291265 0.158114 0.587975
O O3 0.087842 0.058542 0.552889
O O4 0.111627 0.120391 0.688542
O O5 0.482990 0.115218 0.880951
O O6 0.662470 0.136207 0.778329
O O7 0.681776 0.005460 0.858228
O O8 0.766625 0.143119 0.911082
O O9 0.239543 0.899658 0.044554
O O10 0.214436 0.860815 0.177971
O O11 0.000000 0.336695 0.500000
O O12 0.961847 0.339211 0.650791
O O13 0.750000 0.750000 0.989541
O O14 0.500000 0.670282 0.000000
O O15 0.750000 0.250000 0.692056
O O16 0.508466 0.264836 0.761268
O O17 0.250000 0.750000 0.271471
#
# Coordination Sequence:
#
# PCOD9323695 Si02
#       8
#     8   8   8   8   8   2   8   8
#     4  10  21  40  65  95 134 175 227 285 349 409
#     4  11  24  45  66 101 142 175 225 290 356 416
#     4  11  24  43  70  97 136 185 218 287 362 413
#     4  10  20  40  69  94 129 185 230 276 340 423
#     4  12  27  44  70 100 133 182 239 289 342 424
#     4  12  24  40  66 104 140 170 234 306 352 424
#     4  11  24  40  70 103 133 178 241 287 334 419
#     4  11  20  44  72  92 128 184 231 276 343 416
#
# _framework density 20.446390000000001
#
# number of rings (size 3 to 8) (size 9 to 14) (size 15 to 20)
#    0.000    1.103    4.828    2.483    5.793    2.207 
#    7.448    0.345    0.000    0.000    0.000    0.000 
#    0.000    0.000    0.000    0.000    0.000    0.000 
#
# Total GULP energy -161919.874541 kJ/mol
# GULP energy per Si atom -5583.443950 kJ/mol
# Density = 2.039985 g / cm^3
# Si number density = 20.446390 Si / 1000 Ang^3
#
#
#
# Elastic Constant Matrix: (Units=GPa)
#
#
# Indices 1 2 3 4 5 6 
#
# 1 79.1893 26.4081 32.6454 0.0000 0.0000 0.0000
# 2 26.4081 74.7938 41.7618 0.0000 0.0000 0.0000
# 3 32.6454 41.7618 150.1754 0.0000 0.0000 0.0000
# 4 0.0000 0.0000 0.0000 29.0982 0.0000 0.0000
# 5 0.0000 0.0000 0.0000 0.0000 30.9161 0.0000
# 6 0.0000 0.0000 0.0000 0.0000 0.0000 17.3536
#
#
#
# Elastic Compliance Matrix: (Units=1/GPa)
#
#
# Indices 1 2 3 4 5 6 
#
# 1 0.014850 -0.004073 -0.002095 0.000000 0.000000 0.000000
# 2 -0.004073 0.016945 -0.003827 0.000000 0.000000 0.000000
# 3 -0.002095 -0.003827 0.008179 0.000000 0.000000 0.000000
# 4 0.000000 0.000000 0.000000 0.034366 0.000000 0.000000
# 5 0.000000 0.000000 0.000000 0.000000 0.032346 0.000000
# 6 0.000000 0.000000 0.000000 0.000000 0.000000 0.057625
#
#
# Mechanical properties :
#
#
# Convention : Reuss Voigt Hill
#
# Bulk Modulus (GPa) = 50.04293 56.19876 53.12085
# Shear Modulus (GPa) = 26.18317 29.02979 27.60648
#
# Velocity S-wave (km/s) = 3.58240 3.77211 3.67848
# Velocity P-wave (km/s) = 6.45289 6.82036 6.63917
#
# Compressibility (1/GPa) = 0.01998284
#
# Stress axis : x y z
#
# Youngs Moduli (GPa) = 67.33934 59.01460 122.27116
#
# Poissons Ratio (x) = 0.24038 0.25621
# Poissons Ratio (y) = 0.27429 0.46790
# Poissons Ratio (z) = 0.14110 0.22583
#
# Static dielectric constant tensor:
#      x y z
#    x 1.756230 0.000000 0.000000 
#    y 0.000000 1.722790 0.000000 
#    z 0.000000 0.000000 1.763650 
# 
# From -- ./inp_files/35809.got.cif
#   From: 2010.05.17/outbox.cif.g08.bks.cpg/sg21_18_cif.got.tgz:35809.got - 2010.06.03 23:14:55.
