data_PCOD9323134
_publ_section_title
;
Structure prediction by ZEFSAII (Michael W. Deem and Ramdas Pophale) SiO2 
 PCOD9323134
Probable space group: C 2 2 2
;
_chemical_formula_sum "Si O2"
_cell_formula_units_Z 48
_cell_length_a 13.562315
_cell_length_b 15.131428
_cell_length_c 12.427238
_cell_angle_alpha 90.000000
_cell_angle_beta 90.000000
_cell_angle_gamma 90.000000
_cell_volume 2550.282898
_symmetry_space_group_name_H-M "C 2 2 2"
_symmetry_group_IT_number 21
_symmetry_cell_setting 'orthorhombic'
loop_
_space_group_symop_operation_xyz
x,y,z
-x,-y,z
x,-y,-z
-x,y,-z
1/2+x,1/2+y,z
1/2-x,1/2-y,z
1/2+x,1/2-y,-z
1/2-x,1/2+y,-z
loop_
_atom_site_type_symbol
_atom_site_label
_atom_site_fract_x
_atom_site_fract_y
_atom_site_fract_z
Si Si1 0.750000 0.750000 0.734275
Si Si2 0.223906 0.531678 0.824887
Si Si3 0.117593 0.594243 0.316331
Si Si4 0.841763 0.193115 0.853051
Si Si5 0.162028 0.125295 0.910082
Si Si6 0.500000 0.000000 0.500000
Si Si7 0.000000 0.000000 0.000000
Si Si8 0.467843 0.147155 0.125197
O O1 0.817560 0.681832 0.670334
O O2 0.820777 0.808893 0.811541
O O3 0.188613 0.486783 0.715527
O O4 0.319527 0.594497 0.812339
O O5 0.252489 0.448259 0.898667
O O6 0.132277 0.589188 0.867429
O O7 0.059794 0.563845 0.420414
O O8 0.046204 0.609855 0.211698
O O9 0.750000 0.250000 0.810073
O O10 0.938164 0.252828 0.839488
O O11 0.830663 0.180929 0.981334
O O12 0.064992 0.065622 0.926505
O O13 0.500000 0.146633 0.000000
#
# Coordination Sequence:
#
# PCOD9323134 Si02
#       8
#     4   8   8   8   8   2   2   8
#     4  10  24  40  60  88 120 162 208 252 312 368
#     4  10  21  37  53  84 118 170 202 243 298 357
#     4  11  24  43  67  91 118 159 200 268 313 370
#     4  10  20  32  48  77 126 163 192 235 281 354
#     4  11  21  34  51  78 131 172 208 233 283 370
#     4  12  24  52  66  88 116 140 220 278 328 368
#     4  12  24  28  52  84 122 200 200 228 296 340
#     4  11  23  33  58  94 126 160 207 244 304 369
#
# _framework density 18.821441
#
# number of rings (size 3 to 8) (size 9 to 14) (size 15 to 20)
#    0.000    1.333    4.167    1.000   12.833    0.667 
#    0.000    1.667    0.000    0.000    0.000    0.000 
#    0.000    0.000    0.000    0.000    0.000    0.000 
#
# Total GULP energy -133862.626477 kJ/mol
# GULP energy per Si atom -5577.609437 kJ/mol
# Density = 1.877860 g / cm^3
# Si number density = 18.821441 Si / 1000 Ang^3
#
#
#
# Elastic Constant Matrix: (Units=GPa)
#
#
# Indices 1 2 3 4 5 6 
#
# 1 81.4535 49.6436 37.7934 0.0000 0.0000 0.0000
# 2 49.6436 124.5880 38.4073 0.0000 0.0000 0.0000
# 3 37.7934 38.4073 83.9856 0.0000 0.0000 0.0000
# 4 0.0000 0.0000 0.0000 5.4460 0.0000 0.0000
# 5 0.0000 0.0000 0.0000 0.0000 15.4560 0.0000
# 6 0.0000 0.0000 0.0000 0.0000 0.0000 52.6944
#
#
#
# Elastic Compliance Matrix: (Units=1/GPa)
#
#
# Indices 1 2 3 4 5 6 
#
# 1 0.018294 -0.005532 -0.005703 0.000000 0.000000 0.000000
# 2 -0.005532 0.011016 -0.002549 0.000000 0.000000 0.000000
# 3 -0.005703 -0.002549 0.015639 0.000000 0.000000 0.000000
# 4 0.000000 0.000000 0.000000 0.183619 0.000000 0.000000
# 5 0.000000 0.000000 0.000000 0.000000 0.064700 0.000000
# 6 0.000000 0.000000 0.000000 0.000000 0.000000 0.018977
#
#
# Mechanical properties :
#
#
# Convention : Reuss Voigt Hill
#
# Bulk Modulus (GPa) = 57.52692 60.19064 58.85878
# Shear Modulus (GPa) = 14.46733 25.66480 20.06607
#
# Velocity S-wave (km/s) = 2.77548 3.69669 3.26870
# Velocity P-wave (km/s) = 6.39547 7.09013 6.75174
#
# Compressibility (1/GPa) = 0.01738317
#
# Stress axis : x y z
#
# Youngs Moduli (GPa) = 54.66184 90.77499 63.94451
#
# Poissons Ratio (x) = 0.50213 0.36466
# Poissons Ratio (y) = 0.30237 0.16297
# Poissons Ratio (z) = 0.31172 0.23135
#
# Static dielectric constant tensor:
#      x y z
#    x 1.722740 0.000000 0.000000 
#    y 0.000000 1.710110 0.000000 
#    z 0.000000 0.000000 1.620270 
# 
# From -- ./inp_files/25256.got.cif
#   From: 2010.05.17/outbox.cif.g08.bks.cpg/sg21_13_cif.got.tgz:25256.got - 2010.06.03 23:14:55.
