data_PCOD9323334
_publ_section_title
;
Structure prediction by ZEFSAII (Michael W. Deem and Ramdas Pophale) SiO2 
 PCOD9323334
Probable space group: C 2 2 2
;
_chemical_formula_sum "Si O2"
_cell_formula_units_Z 36
_cell_length_a 19.261726
_cell_length_b 14.410799
_cell_length_c 7.480959
_cell_angle_alpha 90.000000
_cell_angle_beta 90.000000
_cell_angle_gamma 90.000000
_cell_volume 2076.541122
_symmetry_space_group_name_H-M "C 2 2 2"
_symmetry_group_IT_number 21
_symmetry_cell_setting 'orthorhombic'
loop_
_space_group_symop_operation_xyz
x,y,z
-x,-y,z
x,-y,-z
-x,y,-z
1/2+x,1/2+y,z
1/2-x,1/2-y,z
1/2+x,1/2-y,-z
1/2-x,1/2+y,-z
loop_
_atom_site_type_symbol
_atom_site_label
_atom_site_fract_x
_atom_site_fract_y
_atom_site_fract_z
Si Si1 0.675612 0.202698 0.711569
Si Si2 0.348257 0.500000 0.000000
Si Si3 0.227555 0.500000 0.288094
Si Si4 0.824388 0.297302 0.288432
Si Si5 0.582401 0.300328 0.000000
O O1 0.750000 0.250000 0.753749
O O2 0.663214 0.214769 0.500000
O O3 0.685096 0.093624 0.750397
O O4 0.617161 0.250436 0.829402
O O5 0.296933 0.500000 0.170711
O O6 0.393632 0.592729 0.999999
O O7 0.244386 0.500000 0.500000
O O8 0.185096 0.593624 0.249604
O O9 0.750000 0.250000 0.246252
O O10 0.882839 0.249563 0.170599
O O11 0.500000 0.292442 0.000000
#
# Coordination Sequence:
#
# PCOD9323334 Si02
#       5
#     8   4   8   8   8
#     4  10  20  38  62  85 112 149 194 241 282 329
#     4  12  21  36  58  84 119 150 184 236 285 338
#     4  10  20  35  63  93 109 135 194 252 286 322
#     4  10  20  38  62  85 112 149 194 241 282 329
#     4  12  25  38  55  85 123 158 187 224 285 352
#
# _framework density 17.336521000000001
#
# number of rings (size 3 to 8) (size 9 to 14) (size 15 to 20)
#    0.000    1.333    4.444    2.333    0.000    0.889 
#    0.000    2.222    0.000    8.000    0.000    0.000 
#    0.000    0.000    0.000    0.000    0.000    0.000 
#
# Total GULP energy -100584.534179 kJ/mol
# GULP energy per Si atom -5588.029677 kJ/mol
# Density = 1.729706 g / cm^3
# Si number density = 17.336521 Si / 1000 Ang^3
#
#
#
# Elastic Constant Matrix: (Units=GPa)
#
#
# Indices 1 2 3 4 5 6 
#
# 1 164.5293 90.1617 84.5316 0.0000 0.0000 0.0000
# 2 90.1617 181.5380 66.9914 0.0000 0.0000 0.0000
# 3 84.5316 66.9914 86.4826 0.0000 0.0000 0.0000
# 4 0.0000 0.0000 0.0000 4.4282 0.0000 0.0000
# 5 0.0000 0.0000 0.0000 0.0000 6.4838 0.0000
# 6 0.0000 0.0000 0.0000 0.0000 0.0000 13.6774
#
#
#
# Elastic Compliance Matrix: (Units=1/GPa)
#
#
# Indices 1 2 3 4 5 6 
#
# 1 0.012952 -0.002466 -0.010750 0.000000 0.000000 0.000000
# 2 -0.002466 0.008183 -0.003928 0.000000 0.000000 0.000000
# 3 -0.010750 -0.003928 0.025114 0.000000 0.000000 0.000000
# 4 0.000000 0.000000 0.000000 0.225823 0.000000 0.000000
# 5 0.000000 0.000000 0.000000 0.000000 0.154231 0.000000
# 6 0.000000 0.000000 0.000000 0.000000 0.000000 0.073113
#
#
# Mechanical properties :
#
#
# Convention : Reuss Voigt Hill
#
# Bulk Modulus (GPa) = 83.61080 101.76882 92.68981
# Shear Modulus (GPa) = 9.29901 17.64223 13.47062
#
# Velocity S-wave (km/s) = 2.31851 3.19350 2.79051
# Velocity P-wave (km/s) = 7.44984 8.51042 7.99773
#
# Compressibility (1/GPa) = 0.01196018
#
# Stress axis : x y z
#
# Youngs Moduli (GPa) = 77.20588 122.20721 39.81911
#
# Poissons Ratio (x) = 0.30135 0.42806
# Poissons Ratio (y) = 0.19038 0.15642
# Poissons Ratio (z) = 0.82997 0.48008
#
# Static dielectric constant tensor:
#      x y z
#    x 1.526180 0.000000 0.000000 
#    y 0.000000 1.599340 0.000000 
#    z 0.000000 0.000000 1.605210 
# 
# From -- ./inp_files/14377.got.cif
#   From: 2010.05.17/outbox.cif.g08.bks.cpg/sg21_8_cif.got.tgz:14377.got - 2010.06.03 23:14:55.
