data_PCOD9323559
_publ_section_title
;
Structure prediction by ZEFSAII (Michael W. Deem and Ramdas Pophale) SiO2 
 PCOD9323559
Probable space group: C 2 2 2
;
_chemical_formula_sum "Si O2"
_cell_formula_units_Z 32
_cell_length_a 24.080927
_cell_length_b 4.875586
_cell_length_c 11.760821
_cell_angle_alpha 90.000000
_cell_angle_beta 90.000000
_cell_angle_gamma 90.000000
_cell_volume 1380.821888
_symmetry_space_group_name_H-M "C 2 2 2"
_symmetry_group_IT_number 21
_symmetry_cell_setting 'orthorhombic'
loop_
_space_group_symop_operation_xyz
x,y,z
-x,-y,z
x,-y,-z
-x,y,-z
1/2+x,1/2+y,z
1/2-x,1/2-y,z
1/2+x,1/2-y,-z
1/2-x,1/2+y,-z
loop_
_atom_site_type_symbol
_atom_site_label
_atom_site_fract_x
_atom_site_fract_y
_atom_site_fract_z
Si Si1 0.129342 0.750468 0.217750
Si Si2 0.072650 0.000000 0.000000
Si Si3 0.902259 0.764155 0.362875
Si Si4 0.688495 0.000000 0.500000
Si Si5 0.000000 0.500000 0.500000
Si Si6 0.500000 0.000000 0.000000
Si Si7 0.750000 0.250000 0.298887
O O1 0.116302 0.445041 0.261606
O O2 0.195173 0.815162 0.227277
O O3 0.098035 0.938113 0.309659
O O4 0.106798 0.841908 0.096185
O O5 0.038483 0.739819 0.942885
O O6 0.854765 0.729080 0.458548
O O7 0.959667 0.677537 0.419756
O O8 0.726763 0.963983 0.609226
#
# Coordination Sequence:
#
# PCOD9323559 Si02
#       7
#     8   4   8   4   2   2   4
#     4  11  24  41  64  94 127 165 217 259 312 381
#     4  11  24  46  69  96 125 166 220 267 310 378
#     4  10  23  39  61  95 128 168 212 258 316 384
#     4   9  18  35  60  86 126 167 212 247 312 394
#     4  10  24  40  64  96 136 166 204 278 324 354
#     4  10  24  44  70  86 118 168 204 260 328 364
#     4  10  20  38  64  92 126 172 206 264 320 370
#
# _framework density 23.174605
#
# number of rings (size 3 to 8) (size 9 to 14) (size 15 to 20)
#    0.000    1.750    0.000    3.000    0.000   19.000 
#    0.000    6.250    0.000    0.000    0.000    0.000 
#    0.000    0.000    0.000    0.000    0.000    0.000 
#
# Total GULP energy -89236.356605 kJ/mol
# GULP energy per Si atom -5577.272288 kJ/mol
# Density = 2.312186 g / cm^3
# Si number density = 23.174605 Si / 1000 Ang^3
#
#
#
# Elastic Constant Matrix: (Units=GPa)
#
#
# Indices 1 2 3 4 5 6 
#
# 1 148.2044 17.3314 29.3161 0.0000 0.0000 0.0000
# 2 17.3314 99.3323 15.7319 0.0000 0.0000 0.0000
# 3 29.3161 15.7319 87.3845 0.0000 0.0000 0.0000
# 4 0.0000 0.0000 0.0000 35.0992 0.0000 0.0000
# 5 0.0000 0.0000 0.0000 0.0000 0.0677 0.0000
# 6 0.0000 0.0000 0.0000 0.0000 0.0000 6.0310
#
#
#
# Elastic Compliance Matrix: (Units=1/GPa)
#
#
# Indices 1 2 3 4 5 6 
#
# 1 0.007307 -0.000913 -0.002287 0.000000 0.000000 0.000000
# 2 -0.000913 0.010477 -0.001580 0.000000 0.000000 0.000000
# 3 -0.002287 -0.001580 0.012495 0.000000 0.000000 0.000000
# 4 0.000000 0.000000 0.000000 0.028491 0.000000 0.000000
# 5 0.000000 0.000000 0.000000 0.000000 14.768164 0.000000
# 6 0.000000 0.000000 0.000000 0.000000 0.000000 0.165809
#
#
# Mechanical properties :
#
#
# Convention : Reuss Voigt Hill
#
# Bulk Modulus (GPa) = 48.26364 51.07556 49.66960
# Shear Modulus (GPa) = 0.33313 26.40904 13.37108
#
# Velocity S-wave (km/s) = 0.37955 3.37941 2.40463
# Velocity P-wave (km/s) = 4.58949 6.10856 5.40268
#
# Compressibility (1/GPa) = 0.02071953
#
# Stress axis : x y z
#
# Youngs Moduli (GPa) = 136.86372 95.45008 80.02982
#
# Poissons Ratio (x) = 0.08711 0.18302
# Poissons Ratio (y) = 0.12491 0.12644
# Poissons Ratio (z) = 0.31300 0.15081
#
# Static dielectric constant tensor:
#      x y z
#    x 1.927790 0.000000 0.000000 
#    y 0.000000 1.977620 0.000000 
#    z 0.000000 0.000000 1.879600 
# 
# From -- ./inp_files/20930.got.cif
#   From: 2010.05.17/outbox.cif.g08.bks.cpg/sg21_11_cif.got.tgz:20930.got - 2010.06.03 23:14:55.
