data_PCOD9323412
_publ_section_title
;
Structure prediction by ZEFSAII (Michael W. Deem and Ramdas Pophale) SiO2 
 PCOD9323412
Probable space group: C 2 2 2
;
_chemical_formula_sum "Si O2"
_cell_formula_units_Z 38
_cell_length_a 5.250547
_cell_length_b 19.356691
_cell_length_c 18.742605
_cell_angle_alpha 90.000000
_cell_angle_beta 90.000000
_cell_angle_gamma 90.000000
_cell_volume 1904.871220
_symmetry_space_group_name_H-M "C 2 2 2"
_symmetry_group_IT_number 21
_symmetry_cell_setting 'orthorhombic'
loop_
_space_group_symop_operation_xyz
x,y,z
-x,-y,z
x,-y,-z
-x,y,-z
1/2+x,1/2+y,z
1/2-x,1/2-y,z
1/2+x,1/2-y,-z
1/2-x,1/2+y,-z
loop_
_atom_site_type_symbol
_atom_site_label
_atom_site_fract_x
_atom_site_fract_y
_atom_site_fract_z
Si Si1 0.926905 0.923684 0.217827
Si Si2 0.065451 0.650800 0.266494
Si Si3 0.250000 0.250000 0.837677
Si Si4 0.500223 0.202349 0.422317
Si Si5 0.360006 0.387131 0.927472
Si Si6 0.500000 0.000000 0.000000
O O1 0.146971 0.874942 0.251327
O O2 0.954866 0.917983 0.132550
O O3 0.355331 0.098144 0.238089
O O4 0.000000 0.000000 0.241027
O O5 0.041362 0.721214 0.219529
O O6 0.017163 0.659670 0.349981
O O7 0.270211 0.316231 0.889776
O O8 0.500000 0.165875 0.500000
O O9 0.750000 0.250000 0.421924
O O10 0.250000 0.250000 0.418350
O O11 0.163023 0.447220 0.950552
O O12 0.500000 0.368101 0.000000
#
# Coordination Sequence:
#
# PCOD9323412 Si02
#       6
#     8   8   4   8   8   2
#     4  11  25  42  67  91 127 176 224 270 322 399
#     4  11  23  41  65  98 134 165 215 274 332 393
#     4  10  26  40  68  98 130 166 212 288 342 380
#     4  10  20  36  62  95 133 171 208 260 330 400
#     4  11  27  42  66  91 127 172 226 275 339 400
#     4  12  26  48  64  90 132 178 228 280 330 420
#
# _framework density 19.948853
#
# number of rings (size 3 to 8) (size 9 to 14) (size 15 to 20)
#    0.000    1.263    1.053    3.474   16.211    0.000 
#    0.000    0.000    0.000    3.789    0.000    0.000 
#    0.000    0.000    0.000    0.000    0.000    0.000 
#
# Total GULP energy -105955.299177 kJ/mol
# GULP energy per Si atom -5576.594694 kJ/mol
# Density = 1.990345 g / cm^3
# Si number density = 19.948853 Si / 1000 Ang^3
#
#
#
# Elastic Constant Matrix: (Units=GPa)
#
#
# Indices 1 2 3 4 5 6 
#
# 1 35.2720 4.3542 -4.5303 0.0000 0.0000 0.0000
# 2 4.3542 110.2100 28.9547 0.0000 0.0000 0.0000
# 3 -4.5303 28.9547 161.3681 0.0000 0.0000 0.0000
# 4 0.0000 0.0000 0.0000 -5.0808 0.0000 0.0000
# 5 0.0000 0.0000 0.0000 0.0000 1.1175 0.0000
# 6 0.0000 0.0000 0.0000 0.0000 0.0000 28.6374
#
#
#
# Elastic Compliance Matrix: (Units=1/GPa)
#
#
# Indices 1 2 3 4 5 6 
#
# 1 0.028661 -0.001410 0.001058 0.000000 0.000000 0.000000
# 2 -0.001410 0.009592 -0.001761 0.000000 0.000000 0.000000
# 3 0.001058 -0.001761 0.006543 0.000000 0.000000 0.000000
# 4 0.000000 0.000000 0.000000 -0.196821 0.000000 0.000000
# 5 0.000000 0.000000 0.000000 0.000000 0.894846 0.000000
# 6 0.000000 0.000000 0.000000 0.000000 0.000000 0.034919
#
#
# Mechanical properties :
#
#
# Convention : Reuss Voigt Hill
#
# Bulk Modulus (GPa) = 24.64929 40.48969 32.56949
# Shear Modulus (GPa) = 6.28544 23.47294 14.87919
#
# Velocity S-wave (km/s) = 1.77697 3.43396 2.73402
# Velocity P-wave (km/s) = 4.07348 6.00530 5.13112
#
# Compressibility (1/GPa) = 0.04056912
#
# Stress axis : x y z
#
# Youngs Moduli (GPa) = 34.89054 104.25492 152.84374
#
# Poissons Ratio (x) = 0.14702 -0.16166
# Poissons Ratio (y) = 0.04920 0.26911
# Poissons Ratio (z) = -0.03690 0.18356
#
# Static dielectric constant tensor:
#      x y z
#    x 1.730970 0.000000 0.000000 
#    y 0.000000 1.752170 0.000000 
#    z 0.000000 0.000000 1.719720 
# 
# From -- ./inp_files/34702.got.cif
#   From: 2010.05.17/outbox.cif.g08.bks.cpg/sg21_18_cif.got.tgz:34702.got - 2010.06.03 23:14:55.
