data_PCOD9323937
_publ_section_title
;
Structure prediction by ZEFSAII (Michael W. Deem and Ramdas Pophale) SiO2 
 PCOD9323937
Probable space group: C 2 2 2
;
_chemical_formula_sum "Si O2"
_cell_formula_units_Z 64
_cell_length_a 31.980089
_cell_length_b 7.158071
_cell_length_c 11.542352
_cell_angle_alpha 90.000000
_cell_angle_beta 90.000000
_cell_angle_gamma 90.000000
_cell_volume 2642.226138
_symmetry_space_group_name_H-M "C 2 2 2"
_symmetry_group_IT_number 21
_symmetry_cell_setting 'orthorhombic'
loop_
_space_group_symop_operation_xyz
x,y,z
-x,-y,z
x,-y,-z
-x,y,-z
1/2+x,1/2+y,z
1/2-x,1/2-y,z
1/2+x,1/2-y,-z
1/2-x,1/2+y,-z
loop_
_atom_site_type_symbol
_atom_site_label
_atom_site_fract_x
_atom_site_fract_y
_atom_site_fract_z
Si Si1 0.764670 0.535393 0.133849
Si Si2 0.925850 0.243989 0.757611
Si Si3 0.838440 0.689050 0.272250
Si Si4 0.410509 0.674531 0.249979
Si Si5 0.182427 0.096247 0.751016
Si Si6 0.702544 0.777906 0.502934
Si Si7 0.507937 0.274719 0.368094
Si Si8 0.951918 0.276027 0.008311
O O1 0.750000 0.750000 0.140531
O O2 0.804409 0.543050 0.222058
O O3 0.725836 0.406249 0.175854
O O4 0.776464 0.500000 0.000000
O O5 0.886182 0.374863 0.734088
O O6 0.928608 0.211000 0.894072
O O7 0.971095 0.307168 0.712598
O O8 0.914486 0.041125 0.706510
O O9 0.828693 0.769331 0.400168
O O10 0.832860 0.887598 0.208209
O O11 0.361137 0.709550 0.238568
O O12 0.444680 0.772460 0.332961
O O13 0.430940 0.707246 0.124851
O O14 0.196658 0.162126 0.620837
O O15 0.750000 0.750000 0.461851
O O16 0.696732 0.000000 0.500000
O O17 0.500000 0.500000 0.356499
O O18 0.500000 0.223814 0.500000
O O19 0.951018 0.500000 0.000000
O O20 0.000000 0.215579 0.000000
#
# Coordination Sequence:
#
# PCOD9323937 Si02
#       8
#     8   8   8   8   8   8   8   8
#     4  10  22  41  65  95 138 179 220 277 340 403
#     4  10  21  37  63  94 123 166 217 265 314 383
#     4  10  22  40  63  95 131 171 219 272 333 394
#     4  10  21  38  65  94 123 165 218 263 317 384
#     4  10  23  41  64  96 127 170 222 273 332 396
#     4  12  24  41  66  92 128 171 217 272 332 400
#     4   9  18  33  58  91 126 157 204 266 318 364
#     4  11  23  39  60  87 130 172 209 264 327 388
#
# _framework density 24.222000999999999
#
# number of rings (size 3 to 8) (size 9 to 14) (size 15 to 20)
#    0.000    1.750    1.250    3.375    1.750    6.500 
#    0.000    0.000    0.000    0.750    0.000    0.000 
#    0.000    0.000    0.000    0.000    0.000    0.000 
#
# Total GULP energy -178474.029326 kJ/mol
# GULP energy per Si atom -5577.313416 kJ/mol
# Density = 2.416687 g / cm^3
# Si number density = 24.222001 Si / 1000 Ang^3
#
#
#
# Elastic Constant Matrix: (Units=GPa)
#
#
# Indices 1 2 3 4 5 6 
#
# 1 156.4063 50.4204 56.2503 0.0000 0.0000 0.0000
# 2 50.4204 84.5728 -6.2978 0.0000 0.0000 0.0000
# 3 56.2503 -6.2978 124.9191 0.0000 0.0000 0.0000
# 4 0.0000 0.0000 0.0000 -5.4849 0.0000 0.0000
# 5 0.0000 0.0000 0.0000 0.0000 14.8853 0.0000
# 6 0.0000 0.0000 0.0000 0.0000 0.0000 42.1579
#
#
#
# Elastic Compliance Matrix: (Units=1/GPa)
#
#
# Indices 1 2 3 4 5 6 
#
# 1 0.010265 -0.006489 -0.004950 0.000000 0.000000 0.000000
# 2 -0.006489 0.015970 0.003727 0.000000 0.000000 0.000000
# 3 -0.004950 0.003727 0.010422 0.000000 0.000000 0.000000
# 4 0.000000 0.000000 0.000000 -0.182318 0.000000 0.000000
# 5 0.000000 0.000000 0.000000 0.000000 0.067180 0.000000
# 6 0.000000 0.000000 0.000000 0.000000 0.000000 0.023720
#
#
# Mechanical properties :
#
#
# Convention : Reuss Voigt Hill
#
# Bulk Modulus (GPa) = 47.09265 62.96043 55.02654
# Shear Modulus (GPa) = -154.99334 28.01334 -63.49000
#
# Velocity S-wave (km/s) = -8.00797 3.40446 -5.12529
# Velocity P-wave (km/s) = 8.12522 6.44231 3.50113
#
# Compressibility (1/GPa) = 0.02123474
#
# Stress axis : x y z
#
# Youngs Moduli (GPa) = 97.41488 62.61743 95.95251
#
# Poissons Ratio (x) = 0.40630 0.47492
# Poissons Ratio (y) = 0.63208 -0.35760
# Poissons Ratio (z) = 0.48216 -0.23337
#
# Static dielectric constant tensor:
#      x y z
#    x 1.956530 0.000000 0.000000 
#    y 0.000000 2.323280 0.000000 
#    z 0.000000 0.000000 1.888540 
# 
# From -- ./inp_files/28101.got.cif
#   From: 2010.05.17/outbox.cif.g08.bks.cpg/sg21_15_cif.got.tgz:28101.got - 2010.06.03 23:14:55.
