data_PCOD9323497
_publ_section_title
;
Structure prediction by ZEFSAII (Michael W. Deem and Ramdas Pophale) SiO2 
 PCOD9323497
Probable space group: C 2 2 2
;
_chemical_formula_sum "Si O2"
_cell_formula_units_Z 64
_cell_length_a 25.880050
_cell_length_b 7.533304
_cell_length_c 15.088849
_cell_angle_alpha 90.000000
_cell_angle_beta 90.000000
_cell_angle_gamma 90.000000
_cell_volume 2941.756467
_symmetry_space_group_name_H-M "C 2 2 2"
_symmetry_group_IT_number 21
_symmetry_cell_setting 'orthorhombic'
loop_
_space_group_symop_operation_xyz
x,y,z
-x,-y,z
x,-y,-z
-x,y,-z
1/2+x,1/2+y,z
1/2-x,1/2-y,z
1/2+x,1/2-y,-z
1/2-x,1/2+y,-z
loop_
_atom_site_type_symbol
_atom_site_label
_atom_site_fract_x
_atom_site_fract_y
_atom_site_fract_z
Si Si1 0.489810 0.287783 0.283613
Si Si2 0.692964 0.283840 0.312406
Si Si3 0.945918 0.297602 0.533271
Si Si4 0.094482 0.228721 0.790342
Si Si5 0.899863 0.811353 0.168506
Si Si6 0.191280 0.209367 0.298105
Si Si7 0.441348 0.209445 0.988715
Si Si8 0.668434 0.296733 0.505237
O O1 0.500000 0.500000 0.292835
O O2 0.454293 0.218592 0.362467
O O3 0.547333 0.213428 0.273374
O O4 0.455931 0.238920 0.198251
O O5 0.750000 0.250000 0.277965
O O6 0.647822 0.206710 0.251359
O O7 0.685696 0.496810 0.311350
O O8 0.688200 0.213892 0.413510
O O9 0.943242 0.500000 0.500000
O O10 0.893853 0.205774 0.502068
O O11 0.000000 0.217807 0.500000
O O12 0.097307 0.014637 0.798609
O O13 0.080528 0.273931 0.890178
O O14 0.851378 0.735557 0.224494
O O15 0.902685 0.790927 0.062815
O O16 0.250000 0.250000 0.270693
O O17 0.182862 0.282114 0.398700
O O18 0.500000 0.283970 0.000000
O O19 0.444388 0.000000 0.000000
O O20 0.687080 0.500000 0.500000
#
# Coordination Sequence:
#
# PCOD9323497 Si02
#       8
#     8   8   8   8   8   8   8   8
#     4  10  20  37  64  88 117 162 203 249 299 357
#     4  10  22  39  58  89 120 155 207 248 299 354
#     4  11  24  37  49  87 127 159 203 245 302 356
#     4  10  21  39  65  91 116 158 206 249 296 360
#     4  10  20  39  64  91 118 152 207 248 291 364
#     4  10  21  38  62  88 117 157 206 251 297 353
#     4  11  23  39  58  94 128 158 187 240 313 374
#     4  10  21  38  60  84 116 160 209 251 290 360
#
# _framework density 21.755710000000001
#
# number of rings (size 3 to 8) (size 9 to 14) (size 15 to 20)
#    0.000    1.750    2.500    1.500    3.500    2.500 
#    6.750    0.625    0.000    0.750    0.000    0.000 
#    0.000    0.000    0.000    0.000    0.000    0.000 
#
# Total GULP energy -178597.495467 kJ/mol
# GULP energy per Si atom -5581.171733 kJ/mol
# Density = 2.170619 g / cm^3
# Si number density = 21.755710 Si / 1000 Ang^3
#
#
#
# Elastic Constant Matrix: (Units=GPa)
#
#
# Indices 1 2 3 4 5 6 
#
# 1 154.5058 3.2721 50.6800 0.0000 0.0000 0.0000
# 2 3.2721 52.7863 4.3210 0.0000 0.0000 0.0000
# 3 50.6800 4.3210 93.5529 0.0000 0.0000 0.0000
# 4 0.0000 0.0000 0.0000 1.9051 0.0000 0.0000
# 5 0.0000 0.0000 0.0000 0.0000 22.7592 0.0000
# 6 0.0000 0.0000 0.0000 0.0000 0.0000 13.8066
#
#
#
# Elastic Compliance Matrix: (Units=1/GPa)
#
#
# Indices 1 2 3 4 5 6 
#
# 1 0.007872 -0.000139 -0.004258 0.000000 0.000000 0.000000
# 2 -0.000139 0.019019 -0.000803 0.000000 0.000000 0.000000
# 3 -0.004258 -0.000803 0.013033 0.000000 0.000000 0.000000
# 4 0.000000 0.000000 0.000000 0.524912 0.000000 0.000000
# 5 0.000000 0.000000 0.000000 0.000000 0.043938 0.000000
# 6 0.000000 0.000000 0.000000 0.000000 0.000000 0.072429
#
#
# Mechanical properties :
#
#
# Convention : Reuss Voigt Hill
#
# Bulk Modulus (GPa) = 33.87206 46.37680 40.12443
# Shear Modulus (GPa) = 7.12815 23.86563 15.49689
#
# Velocity S-wave (km/s) = 1.81206 3.31567 2.67182
# Velocity P-wave (km/s) = 4.47003 6.00179 5.29163
#
# Compressibility (1/GPa) = 0.02952286
#
# Stress axis : x y z
#
# Youngs Moduli (GPa) = 127.03464 52.57992 76.72907
#
# Poissons Ratio (x) = 0.00733 0.32671
# Poissons Ratio (y) = 0.01771 0.06161
# Poissons Ratio (z) = 0.54091 0.04222
#
# Static dielectric constant tensor:
#      x y z
#    x 1.802550 0.000000 0.000000 
#    y 0.000000 1.822780 0.000000 
#    z 0.000000 0.000000 1.926860 
# 
# From -- ./inp_files/33613.got.cif
#   From: 2010.05.17/outbox.cif.g08.bks.cpg/sg21_17_cif.got.tgz:33613.got - 2010.06.03 23:14:55.
