data_PCOD9323760
_publ_section_title
;
Structure prediction by ZEFSAII (Michael W. Deem and Ramdas Pophale) SiO2 
 PCOD9323760
Probable space group: C 2 2 2
;
_chemical_formula_sum "Si O2"
_cell_formula_units_Z 26
_cell_length_a 8.699361
_cell_length_b 15.512986
_cell_length_c 9.291053
_cell_angle_alpha 90.000000
_cell_angle_beta 90.000000
_cell_angle_gamma 90.000000
_cell_volume 1253.856083
_symmetry_space_group_name_H-M "C 2 2 2"
_symmetry_group_IT_number 21
_symmetry_cell_setting 'orthorhombic'
loop_
_space_group_symop_operation_xyz
x,y,z
-x,-y,z
x,-y,-z
-x,y,-z
1/2+x,1/2+y,z
1/2-x,1/2-y,z
1/2+x,1/2-y,-z
1/2-x,1/2+y,-z
loop_
_atom_site_type_symbol
_atom_site_label
_atom_site_fract_x
_atom_site_fract_y
_atom_site_fract_z
Si Si1 0.060960 0.096200 0.657911
Si Si2 0.410533 0.916791 0.274869
Si Si3 0.500000 0.000000 0.000000
Si Si4 0.933384 0.748168 0.160641
O O1 0.245507 0.096626 0.657597
O O2 0.000000 0.119828 0.500000
O O3 0.998806 0.164088 0.772604
O O4 0.000000 0.000000 0.689699
O O5 0.510260 0.830461 0.262850
O O6 0.500000 0.000000 0.336510
O O7 0.394152 0.945094 0.106539
O O8 0.750000 0.750000 0.155062
O O9 0.000000 0.737096 0.000000
#
# Coordination Sequence:
#
# PCOD9323760 Si02
#       4
#     8   8   2   8
#     4  11  26  45  64  96 136 180 226 267 331 399
#     4  10  20  42  71 101 134 168 221 279 336 392
#     4   8  20  36  74 102 130 160 222 270 340 380
#     4  12  24  40  68 102 133 171 224 279 336 391
#
# _framework density 20.736032999999999
#
# number of rings (size 3 to 8) (size 9 to 14) (size 15 to 20)
#    0.923    0.308    1.538    4.615    0.000    3.077 
#    0.000    9.231    0.000    0.000    0.000    0.000 
#    0.000    0.000    0.000    0.000    0.000    0.000 
#
# Total GULP energy -72614.791422 kJ/mol
# GULP energy per Si atom -5585.753186 kJ/mol
# Density = 2.068884 g / cm^3
# Si number density = 20.736033 Si / 1000 Ang^3
#
#
#
# Elastic Constant Matrix: (Units=GPa)
#
#
# Indices 1 2 3 4 5 6 
#
# 1 224.3389 57.6510 52.7351 0.0000 0.0000 0.0000
# 2 57.6510 116.2459 35.7827 0.0000 0.0000 0.0000
# 3 52.7351 35.7827 78.6371 0.0000 0.0000 0.0000
# 4 0.0000 0.0000 0.0000 57.3644 0.0000 0.0000
# 5 0.0000 0.0000 0.0000 0.0000 35.4097 0.0000
# 6 0.0000 0.0000 0.0000 0.0000 0.0000 37.0111
#
#
#
# Elastic Compliance Matrix: (Units=1/GPa)
#
#
# Indices 1 2 3 4 5 6 
#
# 1 0.005629 -0.001895 -0.002913 0.000000 0.000000 0.000000
# 2 -0.001895 0.010642 -0.003571 0.000000 0.000000 0.000000
# 3 -0.002913 -0.003571 0.016295 0.000000 0.000000 0.000000
# 4 0.000000 0.000000 0.000000 0.017432 0.000000 0.000000
# 5 0.000000 0.000000 0.000000 0.000000 0.028241 0.000000
# 6 0.000000 0.000000 0.000000 0.000000 0.000000 0.027019
#
#
# Mechanical properties :
#
#
# Convention : Reuss Voigt Hill
#
# Bulk Modulus (GPa) = 63.26138 79.06218 71.16178
# Shear Modulus (GPa) = 39.28167 44.16059 41.72113
#
# Velocity S-wave (km/s) = 4.35716 4.61982 4.49041
# Velocity P-wave (km/s) = 7.47578 8.16503 7.82799
#
# Compressibility (1/GPa) = 0.01580743
#
# Stress axis : x y z
#
# Youngs Moduli (GPa) = 177.64349 93.96987 61.36840
#
# Poissons Ratio (x) = 0.17809 0.17875
# Poissons Ratio (y) = 0.33667 0.21917
# Poissons Ratio (z) = 0.51742 0.33561
#
# Static dielectric constant tensor:
#      x y z
#    x 1.683960 0.000000 0.000000 
#    y 0.000000 1.756630 0.000000 
#    z 0.000000 0.000000 1.756230 
# 
# From -- ./inp_files/21733.got.cif
#   From: 2010.05.17/outbox.cif.g08.bks.cpg/sg21_11_cif.got.tgz:21733.got - 2010.06.03 23:14:55.
