data_PCOD9323269
_publ_section_title
;
Structure prediction by ZEFSAII (Michael W. Deem and Ramdas Pophale) SiO2 
 PCOD9323269
Probable space group: C 2 2 2
;
_chemical_formula_sum "Si O2"
_cell_formula_units_Z 64
_cell_length_a 24.049595
_cell_length_b 11.843315
_cell_length_c 11.838705
_cell_angle_alpha 90.000000
_cell_angle_beta 90.000000
_cell_angle_gamma 90.000000
_cell_volume 3371.981991
_symmetry_space_group_name_H-M "C 2 2 2"
_symmetry_group_IT_number 21
_symmetry_cell_setting 'orthorhombic'
loop_
_space_group_symop_operation_xyz
x,y,z
-x,-y,z
x,-y,-z
-x,y,-z
1/2+x,1/2+y,z
1/2-x,1/2-y,z
1/2+x,1/2-y,-z
1/2-x,1/2+y,-z
loop_
_atom_site_type_symbol
_atom_site_label
_atom_site_fract_x
_atom_site_fract_y
_atom_site_fract_z
Si Si1 0.772275 0.465609 0.132906
Si Si2 0.077427 0.767557 0.607271
Si Si3 0.946508 0.734808 0.641852
Si Si4 0.353216 0.554181 0.122499
Si Si5 0.934841 0.006213 0.306126
Si Si6 0.648206 0.850036 0.203892
Si Si7 0.863150 0.299184 0.049036
Si Si8 0.938815 0.548649 0.833044
O O1 0.709737 0.438637 0.168318
O O2 0.796896 0.570105 0.205264
O O3 0.814559 0.360090 0.122551
O O4 0.771265 0.500000 0.000000
O O5 0.077436 0.712021 0.483332
O O6 0.125866 0.723943 0.691329
O O7 0.014163 0.739505 0.646831
O O8 0.077087 0.905008 0.605960
O O9 0.926023 0.863094 0.662384
O O10 0.931816 0.638542 0.730972
O O11 0.394349 0.485131 0.201418
O O12 0.375670 0.679630 0.102784
O O13 0.350272 0.500000 0.000000
O O14 0.000000 0.000000 0.276105
O O15 0.600623 0.943637 0.189937
O O16 0.652644 0.786180 0.082893
O O17 0.915709 0.382019 0.060016
O O18 0.000000 0.500000 0.843311
#
# Coordination Sequence:
#
# PCOD9323269 Si02
#       8
#     8   8   8   8   8   8   8   8
#     4   8  18  34  55  82 113 149 194 238 291 354
#     4  10  20  36  57  81 113 152 195 247 287 335
#     4  10  20  37  56  82 110 152 201 239 284 348
#     4  11  20  34  57  85 114 155 197 242 293 351
#     4  10  21  37  55  82 116 150 201 242 294 351
#     4  10  20  35  53  86 119 148 190 242 298 347
#     4  10  20  35  55  82 119 153 192 232 292 363
#     4  11  20  35  54  84 114 153 190 229 292 357
#
# _framework density 18.979935000000001
#
# number of rings (size 3 to 8) (size 9 to 14) (size 15 to 20)
#    0.000    2.000    2.500    2.625    0.000    3.250 
#    0.000    3.125    0.000    0.000   19.500    0.000 
#    0.000    0.000    0.000    0.000    0.000    0.000 
#
# Total GULP energy -178225.922801 kJ/mol
# GULP energy per Si atom -5569.560088 kJ/mol
# Density = 1.893674 g / cm^3
# Si number density = 18.979935 Si / 1000 Ang^3
#
#
#
# Elastic Constant Matrix: (Units=GPa)
#
#
# Indices 1 2 3 4 5 6 
#
# 1 57.0292 16.1122 17.3525 0.0000 0.0000 0.0000
# 2 16.1122 66.5726 12.8338 0.0000 0.0000 0.0000
# 3 17.3525 12.8338 68.6410 0.0000 0.0000 0.0000
# 4 0.0000 0.0000 0.0000 30.3008 0.0000 0.0000
# 5 0.0000 0.0000 0.0000 0.0000 12.0913 0.0000
# 6 0.0000 0.0000 0.0000 0.0000 0.0000 12.9518
#
#
#
# Elastic Compliance Matrix: (Units=1/GPa)
#
#
# Indices 1 2 3 4 5 6 
#
# 1 0.019975 -0.004005 -0.004301 0.000000 0.000000 0.000000
# 2 -0.004005 0.016386 -0.002051 0.000000 0.000000 0.000000
# 3 -0.004301 -0.002051 0.016039 0.000000 0.000000 0.000000
# 4 0.000000 0.000000 0.000000 0.033002 0.000000 0.000000
# 5 0.000000 0.000000 0.000000 0.000000 0.082704 0.000000
# 6 0.000000 0.000000 0.000000 0.000000 0.000000 0.077209
#
#
# Mechanical properties :
#
#
# Convention : Reuss Voigt Hill
#
# Bulk Modulus (GPa) = 31.55991 31.64887 31.60439
# Shear Modulus (GPa) = 18.07709 20.79838 19.43773
#
# Velocity S-wave (km/s) = 3.08950 3.31389 3.20366
# Velocity P-wave (km/s) = 5.42133 5.59943 5.51110
#
# Compressibility (1/GPa) = 0.03168577
#
# Stress axis : x y z
#
# Youngs Moduli (GPa) = 50.06220 61.02769 62.34680
#
# Poissons Ratio (x) = 0.24444 0.26814
# Poissons Ratio (y) = 0.20052 0.12788
# Poissons Ratio (z) = 0.21531 0.12518
#
# Static dielectric constant tensor:
#      x y z
#    x 1.677990 0.000000 0.000000 
#    y 0.000000 1.683610 0.000000 
#    z 0.000000 0.000000 1.682970 
# 
# From -- ./inp_files/27494.got.cif
#   From: 2010.05.17/outbox.cif.g08.bks.cpg/sg21_14_cif.got.tgz:27494.got - 2010.06.03 23:14:55.
