data_PCOD9323507
_publ_section_title
;
Structure prediction by ZEFSAII (Michael W. Deem and Ramdas Pophale) SiO2 
 PCOD9323507
Probable space group: C 2 2 2
;
_chemical_formula_sum "Si O2"
_cell_formula_units_Z 44
_cell_length_a 24.375879
_cell_length_b 14.577942
_cell_length_c 5.500085
_cell_angle_alpha 90.000000
_cell_angle_beta 90.000000
_cell_angle_gamma 90.000000
_cell_volume 1954.456031
_symmetry_space_group_name_H-M "C 2 2 2"
_symmetry_group_IT_number 21
_symmetry_cell_setting 'orthorhombic'
loop_
_space_group_symop_operation_xyz
x,y,z
-x,-y,z
x,-y,-z
-x,y,-z
1/2+x,1/2+y,z
1/2-x,1/2-y,z
1/2+x,1/2-y,-z
1/2-x,1/2+y,-z
loop_
_atom_site_type_symbol
_atom_site_label
_atom_site_fract_x
_atom_site_fract_y
_atom_site_fract_z
Si Si1 0.361266 0.897865 0.102110
Si Si2 0.132466 0.796601 0.935468
Si Si3 0.750000 0.750000 0.174655
Si Si4 0.021874 0.394898 0.741610
Si Si5 0.369378 0.395463 0.566455
Si Si6 0.237022 0.396770 0.565378
O O1 0.379090 0.811719 0.939150
O O2 0.412577 0.900248 0.283833
O O3 0.302205 0.872188 0.211688
O O4 0.357565 0.000000 0.000000
O O5 0.111338 0.849892 0.177860
O O6 0.199271 0.800699 0.949570
O O7 0.116521 0.838564 0.676285
O O8 0.776291 0.673980 0.352808
O O9 0.000000 0.500000 0.744073
O O10 0.000000 0.347141 0.500000
O O11 0.000000 0.356708 0.000000
O O12 0.385734 0.500000 0.500000
O O13 0.302627 0.396033 0.589904
O O14 0.220828 0.500000 0.500000
#
# Coordination Sequence:
#
# PCOD9323507 Si02
#       6
#     8   8   4   8   8   8
#     4  12  23  36  59  91 125 165 215 256 300 387
#     4  11  22  36  58  85 112 159 204 248 300 367
#     4  10  20  38  52  78 126 156 200 268 310 336
#     4  10  22  41  58  79 115 171 196 250 318 354
#     4  10  22  41  58  80 119 157 202 256 315 343
#     4  10  21  33  53  80 111 162 208 249 294 360
#
# _framework density 22.512657000000001
#
# number of rings (size 3 to 8) (size 9 to 14) (size 15 to 20)
#    0.000    1.455    1.818    4.909    2.545    6.545 
#    0.000    0.000    0.000    0.000    0.000    0.000 
#    0.000   10.909    0.000    0.000    0.000    0.364 
#
# Total GULP energy -122742.403140 kJ/mol
# GULP energy per Si atom -5579.200143 kJ/mol
# Density = 2.246142 g / cm^3
# Si number density = 22.512657 Si / 1000 Ang^3
#
#
#
# Elastic Constant Matrix: (Units=GPa)
#
#
# Indices 1 2 3 4 5 6 
#
# 1 33.9041 -13.0283 -2.9660 0.0000 0.0000 0.0000
# 2 -13.0283 146.4401 70.9964 0.0000 0.0000 0.0000
# 3 -2.9660 70.9964 159.2397 0.0000 0.0000 0.0000
# 4 0.0000 0.0000 0.0000 10.6252 0.0000 0.0000
# 5 0.0000 0.0000 0.0000 0.0000 16.8011 0.0000
# 6 0.0000 0.0000 0.0000 0.0000 0.0000 -9.7776
#
#
#
# Elastic Compliance Matrix: (Units=1/GPa)
#
#
# Indices 1 2 3 4 5 6 
#
# 1 0.030623 0.003123 -0.000822 0.000000 0.000000 0.000000
# 2 0.003123 0.009030 -0.003968 0.000000 0.000000 0.000000
# 3 -0.000822 -0.003968 0.008034 0.000000 0.000000 0.000000
# 4 0.000000 0.000000 0.000000 0.094116 0.000000 0.000000
# 5 0.000000 0.000000 0.000000 0.000000 0.059520 0.000000
# 6 0.000000 0.000000 0.000000 0.000000 0.000000 -0.102274
#
#
# Mechanical properties :
#
#
# Convention : Reuss Voigt Hill
#
# Bulk Modulus (GPa) = 22.54639 49.95426 36.25032
# Shear Modulus (GPa) = 42.67428 22.50186 32.58807
#
# Velocity S-wave (km/s) = 4.35854 3.16495 3.80879
# Velocity P-wave (km/s) = 5.94692 5.96602 5.95648
#
# Compressibility (1/GPa) = 0.04435301
#
# Stress axis : x y z
#
# Youngs Moduli (GPa) = 32.65512 110.73845 124.47679
#
# Poissons Ratio (x) = -0.34583 0.10232
# Poissons Ratio (y) = -0.10198 0.49392
# Poissons Ratio (z) = 0.02684 0.43940
#
# Static dielectric constant tensor:
#      x y z
#    x 1.841850 0.000000 0.000000 
#    y 0.000000 1.821410 0.000000 
#    z 0.000000 0.000000 1.947010 
# 
# From -- ./inp_files/7261.got.cif
#   From: 2010.05.17/outbox.cif.g08.bks.cpg/sg21_4_cif.got.tgz:7261.got - 2010.06.03 23:14:55.
