data_PCOD9323589
_publ_section_title
;
Structure prediction by ZEFSAII (Michael W. Deem and Ramdas Pophale) SiO2 
 PCOD9323589
Probable space group: C 2 2 2
;
_chemical_formula_sum "Si O2"
_cell_formula_units_Z 38
_cell_length_a 9.329304
_cell_length_b 11.527143
_cell_length_c 17.118018
_cell_angle_alpha 90.000000
_cell_angle_beta 90.000000
_cell_angle_gamma 90.000000
_cell_volume 1840.875444
_symmetry_space_group_name_H-M "C 2 2 2"
_symmetry_group_IT_number 21
_symmetry_cell_setting 'orthorhombic'
loop_
_space_group_symop_operation_xyz
x,y,z
-x,-y,z
x,-y,-z
-x,y,-z
1/2+x,1/2+y,z
1/2-x,1/2-y,z
1/2+x,1/2-y,-z
1/2-x,1/2+y,-z
loop_
_atom_site_type_symbol
_atom_site_label
_atom_site_fract_x
_atom_site_fract_y
_atom_site_fract_z
Si Si1 0.023720 0.303488 0.251681
Si Si2 0.500000 0.000000 0.000000
Si Si3 0.500000 0.500000 0.367017
Si Si4 0.200797 0.623639 0.124015
Si Si5 0.318380 0.435989 0.226931
Si Si6 0.577136 0.251961 0.423525
O O1 0.160688 0.383528 0.236521
O O2 0.074380 0.174806 0.223639
O O3 0.893822 0.348017 0.200205
O O4 0.976738 0.302548 0.341874
O O5 0.398119 0.927658 0.056820
O O6 0.365433 0.495707 0.307634
O O7 0.519159 0.383764 0.415286
O O8 0.250000 0.750000 0.096841
O O9 0.313147 0.526798 0.155389
O O10 0.500000 0.200030 0.500000
O O11 0.750000 0.250000 0.429526
#
# Coordination Sequence:
#
# PCOD9323589 Si02
#       6
#     8   2   4   8   8   8
#     4  10  21  40  69  96 132 178 229 278 332 394
#     4  12  28  44  60 108 134 172 208 284 336 416
#     4  10  21  38  64  93 134 178 234 279 336 386
#     4  12  24  44  70  96 135 172 219 273 338 403
#     4  10  20  38  69  98 126 174 231 271 329 402
#     4  11  24  39  62  94 137 180 233 286 339 395
#
# _framework density 20.642351000000001
#
# number of rings (size 3 to 8) (size 9 to 14) (size 15 to 20)
#    0.000    1.263    2.105    4.737    5.895    1.684 
#    0.000    0.000    0.000    0.000    0.000    0.000 
#    0.000    0.000    0.000    0.000    0.000    0.000 
#
# Total GULP energy -106124.275315 kJ/mol
# GULP energy per Si atom -5585.488174 kJ/mol
# Density = 2.059537 g / cm^3
# Si number density = 20.642351 Si / 1000 Ang^3
#
#
#
# Elastic Constant Matrix: (Units=GPa)
#
#
# Indices 1 2 3 4 5 6 
#
# 1 70.2440 33.8633 20.0878 0.0000 0.0000 0.0000
# 2 33.8633 92.6196 64.1220 0.0000 0.0000 0.0000
# 3 20.0878 64.1220 118.3163 0.0000 0.0000 0.0000
# 4 0.0000 0.0000 0.0000 31.3448 0.0000 0.0000
# 5 0.0000 0.0000 0.0000 0.0000 -46.3817 0.0000
# 6 0.0000 0.0000 0.0000 0.0000 0.0000 30.9747
#
#
#
# Elastic Compliance Matrix: (Units=1/GPa)
#
#
# Indices 1 2 3 4 5 6 
#
# 1 0.017328 -0.006880 0.000787 0.000000 0.000000 0.000000
# 2 -0.006880 0.020012 -0.009678 0.000000 0.000000 0.000000
# 3 0.000787 -0.009678 0.013563 0.000000 0.000000 0.000000
# 4 0.000000 0.000000 0.000000 0.031903 0.000000 0.000000
# 5 0.000000 0.000000 0.000000 0.000000 -0.021560 0.000000
# 6 0.000000 0.000000 0.000000 0.000000 0.000000 0.032284
#
#
# Mechanical properties :
#
#
# Convention : Reuss Voigt Hill
#
# Bulk Modulus (GPa) = 51.64907 57.48069 54.56488
# Shear Modulus (GPa) = 38.01517 14.06134 26.03825
#
# Velocity S-wave (km/s) = 4.29605 2.61279 3.55547
# Velocity P-wave (km/s) = 7.04864 6.08348 6.58377
#
# Compressibility (1/GPa) = 0.01936143
#
# Stress axis : x y z
#
# Youngs Moduli (GPa) = 57.71062 49.96925 73.72894
#
# Poissons Ratio (x) = 0.34379 -0.05800
# Poissons Ratio (y) = 0.39705 0.71352
# Poissons Ratio (z) = -0.04540 0.48359
#
# Static dielectric constant tensor:
#      x y z
#    x 1.743550 0.000000 0.000000 
#    y 0.000000 1.834120 0.000000 
#    z 0.000000 0.000000 1.690790 
# 
# From -- ./inp_files/35489.got.cif
#   From: 2010.05.17/outbox.cif.g08.bks.cpg/sg21_18_cif.got.tgz:35489.got - 2010.06.03 23:14:55.
