data_PCOD9323840
_publ_section_title
;
Structure prediction by ZEFSAII (Michael W. Deem and Ramdas Pophale) SiO2 
 PCOD9323840
Probable space group: C 2 2 2
;
_chemical_formula_sum "Si O2"
_cell_formula_units_Z 58
_cell_length_a 11.378439
_cell_length_b 24.915174
_cell_length_c 9.320204
_cell_angle_alpha 90.000000
_cell_angle_beta 90.000000
_cell_angle_gamma 90.000000
_cell_volume 2642.238573
_symmetry_space_group_name_H-M "C 2 2 2"
_symmetry_group_IT_number 21
_symmetry_cell_setting 'orthorhombic'
loop_
_space_group_symop_operation_xyz
x,y,z
-x,-y,z
x,-y,-z
-x,y,-z
1/2+x,1/2+y,z
1/2-x,1/2-y,z
1/2+x,1/2-y,-z
1/2-x,1/2+y,-z
loop_
_atom_site_type_symbol
_atom_site_label
_atom_site_fract_x
_atom_site_fract_y
_atom_site_fract_z
Si Si1 0.714586 0.444590 0.139841
Si Si2 0.105959 0.156596 0.809467
Si Si3 0.875873 0.223735 0.446252
Si Si4 0.500000 0.500000 0.000000
Si Si5 0.691150 0.968071 0.354857
Si Si6 0.258631 0.686549 0.915766
Si Si7 0.132297 0.127694 0.344127
Si Si8 0.110550 0.590309 0.907659
O O1 0.707332 0.387270 0.217971
O O2 0.775730 0.485253 0.244918
O O3 0.585125 0.464470 0.097792
O O4 0.778520 0.437158 0.987252
O O5 0.116485 0.211955 0.722868
O O6 0.988660 0.128645 0.746621
O O7 0.136240 0.169314 0.975376
O O8 0.750000 0.250000 0.480260
O O9 0.876997 0.164301 0.515960
O O10 0.000000 0.249389 0.500000
O O11 0.805422 0.929003 0.375615
O O12 0.605656 0.929695 0.257476
O O13 0.655577 0.000000 0.500000
O O14 0.250000 0.750000 0.919111
O O15 0.288255 0.663728 0.760093
O O16 0.138802 0.652997 0.940579
O O17 0.000000 0.573128 0.000000
#
# Coordination Sequence:
#
# PCOD9323840 Si02
#       8
#     8   8   8   2   8   8   8   8
#     4  11  22  37  63  90 123 169 213 268 320 401
#     4  10  21  35  59  88 124 158 210 264 321 387
#     4  10  21  40  61  85 119 166 212 262 330 399
#     4  12  20  36  64  92 120 164 222 250 340 368
#     4  11  22  40  63  94 128 164 220 271 327 383
#     4  10  21  37  61  92 123 162 219 270 320 378
#     4  10  21  37  59  90 124 161 203 269 333 386
#     4  10  23  43  63  89 131 178 217 265 325 394
#
# _framework density 21.951084000000002
#
# number of rings (size 3 to 8) (size 9 to 14) (size 15 to 20)
#    0.000    1.655    1.379    2.897    3.862    2.207 
#    0.000   12.069    0.000    1.655    0.000    0.000 
#    0.000    0.000    0.000    0.000    0.000    0.000 
#
# Total GULP energy -161478.668158 kJ/mol
# GULP energy per Si atom -5568.229936 kJ/mol
# Density = 2.190112 g / cm^3
# Si number density = 21.951084 Si / 1000 Ang^3
#
#
#
# Elastic Constant Matrix: (Units=GPa)
#
#
# Indices 1 2 3 4 5 6 
#
# 1 84.7901 20.4281 20.8785 0.0000 0.0000 0.0000
# 2 20.4281 101.0804 20.7245 0.0000 0.0000 0.0000
# 3 20.8785 20.7245 105.6141 0.0000 0.0000 0.0000
# 4 0.0000 0.0000 0.0000 21.8526 0.0000 0.0000
# 5 0.0000 0.0000 0.0000 0.0000 13.7771 0.0000
# 6 0.0000 0.0000 0.0000 0.0000 0.0000 15.9579
#
#
#
# Elastic Compliance Matrix: (Units=1/GPa)
#
#
# Indices 1 2 3 4 5 6 
#
# 1 0.012835 -0.002161 -0.002113 0.000000 0.000000 0.000000
# 2 -0.002161 0.010672 -0.001667 0.000000 0.000000 0.000000
# 3 -0.002113 -0.001667 0.010213 0.000000 0.000000 0.000000
# 4 0.000000 0.000000 0.000000 0.045761 0.000000 0.000000
# 5 0.000000 0.000000 0.000000 0.000000 0.072584 0.000000
# 6 0.000000 0.000000 0.000000 0.000000 0.000000 0.062665
#
#
# Mechanical properties :
#
#
# Convention : Reuss Voigt Hill
#
# Bulk Modulus (GPa) = 45.79181 46.17184 45.98183
# Shear Modulus (GPa) = 21.37747 25.61441 23.49594
#
# Velocity S-wave (km/s) = 3.12407 3.41968 3.27521
# Velocity P-wave (km/s) = 5.82402 6.05573 5.94101
#
# Compressibility (1/GPa) = 0.02183797
#
# Stress axis : x y z
#
# Youngs Moduli (GPa) = 77.91355 93.70719 97.91157
#
# Poissons Ratio (x) = 0.20246 0.20691
# Poissons Ratio (y) = 0.16834 0.16321
# Poissons Ratio (z) = 0.16465 0.15620
#
# Static dielectric constant tensor:
#      x y z
#    x 1.968700 0.000000 0.000000 
#    y 0.000000 1.852240 0.000000 
#    z 0.000000 0.000000 1.882920 
# 
# From -- ./inp_files/13539.got.cif
#   From: 2010.05.17/outbox.cif.g08.bks.cpg/sg21_7_cif.got.tgz:13539.got - 2010.06.03 23:14:55.
