data_PCOD9323183
_publ_section_title
;
Structure prediction by ZEFSAII (Michael W. Deem and Ramdas Pophale) SiO2 
 PCOD9323183
Probable space group: C 2 2 2
;
_chemical_formula_sum "Si O2"
_cell_formula_units_Z 30
_cell_length_a 5.562650
_cell_length_b 18.042034
_cell_length_c 11.906547
_cell_angle_alpha 90.000000
_cell_angle_beta 90.000000
_cell_angle_gamma 90.000000
_cell_volume 1194.959160
_symmetry_space_group_name_H-M "C 2 2 2"
_symmetry_group_IT_number 21
_symmetry_cell_setting 'orthorhombic'
loop_
_space_group_symop_operation_xyz
x,y,z
-x,-y,z
x,-y,-z
-x,y,-z
1/2+x,1/2+y,z
1/2-x,1/2-y,z
1/2+x,1/2-y,-z
1/2-x,1/2+y,-z
loop_
_atom_site_type_symbol
_atom_site_label
_atom_site_fract_x
_atom_site_fract_y
_atom_site_fract_z
Si Si1 0.249704 0.490962 0.171101
Si Si2 0.229064 0.646018 0.286083
Si Si3 0.500000 0.500000 0.500000
Si Si4 0.272158 0.374036 0.353333
Si Si5 0.750000 0.250000 0.072909
O O1 0.500000 0.500000 0.111840
O O2 0.246375 0.556921 0.265261
O O3 0.254374 0.411455 0.229509
O O4 0.000000 0.500000 0.111507
O O5 0.476775 0.669877 0.346627
O O6 0.222702 0.682318 0.162192
O O7 0.991310 0.660783 0.359543
O O8 0.325449 0.442289 0.435809
O O9 0.500000 0.255646 0.000000
#
# Coordination Sequence:
#
# PCOD9323183 Si02
#       5
#     8   8   2   8   4
#     4   8  14  29  50  79 111 159 183 226 321 375
#     4  10  20  39  57  87 130 161 206 258 352 346
#     4  12  20  34  64 114 130 162 244 226 306 410
#     4  10  20  33  60  95 132 167 196 261 304 399
#     4  12  26  44  70  92 110 168 248 284 300 400
#
# _framework density 25.105460000000001
#
# number of rings (size 3 to 8) (size 9 to 14) (size 15 to 20)
#    0.000    2.133    4.000    1.600    0.000    2.133 
#    0.000    0.000    0.000   46.400    0.000    0.000 
#    0.000    0.000    0.000    0.000    0.000    0.000 
#
# Total GULP energy -83572.460402 kJ/mol
# GULP energy per Si atom -5571.497360 kJ/mol
# Density = 2.504832 g / cm^3
# Si number density = 25.105460 Si / 1000 Ang^3
#
#
#
# Elastic Constant Matrix: (Units=GPa)
#
#
# Indices 1 2 3 4 5 6 
#
# 1 344.0369 25.6539 55.9227 0.0000 0.0000 0.0000
# 2 25.6539 98.1338 20.2703 0.0000 0.0000 0.0000
# 3 55.9227 20.2703 83.8251 0.0000 0.0000 0.0000
# 4 0.0000 0.0000 0.0000 47.7594 0.0000 0.0000
# 5 0.0000 0.0000 0.0000 0.0000 52.1271 0.0000
# 6 0.0000 0.0000 0.0000 0.0000 0.0000 2.6843
#
#
#
# Elastic Compliance Matrix: (Units=1/GPa)
#
#
# Indices 1 2 3 4 5 6 
#
# 1 0.003277 -0.000426 -0.002083 0.000000 0.000000 0.000000
# 2 -0.000426 0.010781 -0.002323 0.000000 0.000000 0.000000
# 3 -0.002083 -0.002323 0.013881 0.000000 0.000000 0.000000
# 4 0.000000 0.000000 0.000000 0.020938 0.000000 0.000000
# 5 0.000000 0.000000 0.000000 0.000000 0.019184 0.000000
# 6 0.000000 0.000000 0.000000 0.000000 0.000000 0.372531
#
#
# Mechanical properties :
#
#
# Convention : Reuss Voigt Hill
#
# Bulk Modulus (GPa) = 54.71934 81.07664 67.89799
# Shear Modulus (GPa) = 10.95653 48.79077 29.87365
#
# Velocity S-wave (km/s) = 2.09133 4.41322 3.45327
# Velocity P-wave (km/s) = 5.26067 7.63762 6.55774
#
# Compressibility (1/GPa) = 0.01827508
#
# Stress axis : x y z
#
# Youngs Moduli (GPa) = 305.15040 92.75234 72.04097
#
# Poissons Ratio (x) = 0.03955 0.15007
# Poissons Ratio (y) = 0.13012 0.16733
# Poissons Ratio (z) = 0.63567 0.21543
#
# Static dielectric constant tensor:
#      x y z
#    x 2.173920 0.000000 0.000000 
#    y 0.000000 1.970630 0.000000 
#    z 0.000000 0.000000 1.936740 
# 
# From -- ./inp_files/20707.got.cif
#   From: 2010.05.17/outbox.cif.g08.bks.cpg/sg21_11_cif.got.tgz:20707.got - 2010.06.03 23:14:55.
