data_PCOD9323795
_publ_section_title
;
Structure prediction by ZEFSAII (Michael W. Deem and Ramdas Pophale) SiO2 
 PCOD9323795
Probable space group: C 2 2 2
;
_chemical_formula_sum "Si O2"
_cell_formula_units_Z 52
_cell_length_a 20.909273
_cell_length_b 5.254088
_cell_length_c 24.171470
_cell_angle_alpha 90.000000
_cell_angle_beta 90.000000
_cell_angle_gamma 90.000000
_cell_volume 2655.457399
_symmetry_space_group_name_H-M "C 2 2 2"
_symmetry_group_IT_number 21
_symmetry_cell_setting 'orthorhombic'
loop_
_space_group_symop_operation_xyz
x,y,z
-x,-y,z
x,-y,-z
-x,y,-z
1/2+x,1/2+y,z
1/2-x,1/2-y,z
1/2+x,1/2-y,-z
1/2-x,1/2+y,-z
loop_
_atom_site_type_symbol
_atom_site_label
_atom_site_fract_x
_atom_site_fract_y
_atom_site_fract_z
Si Si1 0.672569 0.253137 0.032567
Si Si2 0.422444 0.997071 0.436691
Si Si3 0.577480 0.501590 0.631584
Si Si4 0.349148 0.916600 0.150155
Si Si5 0.250000 0.750000 0.797969
Si Si6 0.624795 0.484113 0.245925
Si Si7 0.460055 0.740659 0.837194
O O1 0.750000 0.250000 0.033207
O O2 0.650395 0.252230 0.095828
O O3 0.650558 0.500000 0.000000
O O4 0.651818 0.000000 0.000000
O O5 0.404196 0.237031 0.398382
O O6 0.500000 0.000000 0.438982
O O7 0.399288 0.000000 0.500000
O O8 0.404815 0.733039 0.408376
O O9 0.500000 0.500000 0.639088
O O10 0.610760 0.554701 0.690184
O O11 0.371325 0.760054 0.204660
O O12 0.280116 0.031121 0.164064
O O13 0.394032 0.159740 0.136449
O O14 0.308756 0.634947 0.763349
O O15 0.565673 0.648448 0.222278
O O16 0.500000 0.500000 0.860317
O O17 0.500000 0.000000 0.835090
#
# Coordination Sequence:
#
# PCOD9323795 Si02
#       7
#     8   8   8   8   4   8   8
#     4  10  23  38  62  93 123 154 201 257 313 371
#     4   9  18  34  53  80 120 161 195 244 307 364
#     4  10  21  32  56  88 122 155 201 249 299 371
#     4  11  24  41  66  91 132 166 202 262 317 386
#     4  10  24  38  62  90 132 168 208 244 332 380
#     4  11  23  38  61  90 129 164 205 258 311 373
#     4  11  23  39  61  92 122 166 206 242 302 372
#
# _framework density 19.582312999999999
#
# number of rings (size 3 to 8) (size 9 to 14) (size 15 to 20)
#    0.000    1.692    1.538    2.308   11.846    2.462 
#    0.000    0.000    0.000    0.462    4.000    2.154 
#    0.000    0.000    0.000    0.000    0.000    0.000 
#
# Total GULP energy -145073.969067 kJ/mol
# GULP energy per Si atom -5579.768041 kJ/mol
# Density = 1.953774 g / cm^3
# Si number density = 19.582313 Si / 1000 Ang^3
#
#
#
# Elastic Constant Matrix: (Units=GPa)
#
#
# Indices 1 2 3 4 5 6 
#
# 1 50.6747 30.7749 23.6193 0.0000 0.0000 0.0000
# 2 30.7749 154.6303 68.6268 0.0000 0.0000 0.0000
# 3 23.6193 68.6268 151.6515 0.0000 0.0000 0.0000
# 4 0.0000 0.0000 0.0000 28.7405 0.0000 0.0000
# 5 0.0000 0.0000 0.0000 0.0000 -134.2590 0.0000
# 6 0.0000 0.0000 0.0000 0.0000 0.0000 31.8923
#
#
#
# Elastic Compliance Matrix: (Units=1/GPa)
#
#
# Indices 1 2 3 4 5 6 
#
# 1 0.022867 -0.003717 -0.001879 0.000000 0.000000 0.000000
# 2 -0.003717 0.008696 -0.003356 0.000000 0.000000 0.000000
# 3 -0.001879 -0.003356 0.008406 0.000000 0.000000 0.000000
# 4 0.000000 0.000000 0.000000 0.034794 0.000000 0.000000
# 5 0.000000 0.000000 0.000000 0.000000 -0.007448 0.000000
# 6 0.000000 0.000000 0.000000 0.000000 0.000000 0.031355
#
#
# Mechanical properties :
#
#
# Convention : Reuss Voigt Hill
#
# Bulk Modulus (GPa) = 45.32389 66.99982 56.16185
# Shear Modulus (GPa) = 40.34513 0.87047 20.60780
#
# Velocity S-wave (km/s) = 4.54396 0.66745 3.24754
# Velocity P-wave (km/s) = 7.12219 5.90616 6.54249
#
# Compressibility (1/GPa) = 0.02206342
#
# Stress axis : x y z
#
# Youngs Moduli (GPa) = 43.73108 114.98954 118.96688
#
# Poissons Ratio (x) = 0.42741 0.22359
# Poissons Ratio (y) = 0.16255 0.39931
# Poissons Ratio (z) = 0.08219 0.38596
#
# Static dielectric constant tensor:
#      x y z
#    x 1.733660 0.000000 0.000000 
#    y 0.000000 1.818530 0.000000 
#    z 0.000000 0.000000 1.675060 
# 
# From -- ./inp_files/37825.got.cif
#   From: 2010.05.17/outbox.cif.g08.bks.cpg/sg21_19_cif.got.tgz:37825.got - 2010.06.03 23:14:55.
