data_PCOD9323373
_publ_section_title
;
Structure prediction by ZEFSAII (Michael W. Deem and Ramdas Pophale) SiO2 
 PCOD9323373
Probable space group: C 2 2 2
;
_chemical_formula_sum "Si O2"
_cell_formula_units_Z 64
_cell_length_a 29.251990
_cell_length_b 13.065880
_cell_length_c 7.722993
_cell_angle_alpha 90.000000
_cell_angle_beta 90.000000
_cell_angle_gamma 90.000000
_cell_volume 2951.751025
_symmetry_space_group_name_H-M "C 2 2 2"
_symmetry_group_IT_number 21
_symmetry_cell_setting 'orthorhombic'
loop_
_space_group_symop_operation_xyz
x,y,z
-x,-y,z
x,-y,-z
-x,y,-z
1/2+x,1/2+y,z
1/2-x,1/2-y,z
1/2+x,1/2-y,-z
1/2-x,1/2+y,-z
loop_
_atom_site_type_symbol
_atom_site_label
_atom_site_fract_x
_atom_site_fract_y
_atom_site_fract_z
Si Si1 0.704269 0.735466 0.198942
Si Si2 0.906178 0.500309 0.697379
Si Si3 0.554994 0.211242 0.284676
Si Si4 0.727421 0.645239 0.817176
Si Si5 0.615892 0.614265 0.299536
Si Si6 0.449334 0.210579 0.290264
Si Si7 0.623016 0.388734 0.288894
Si Si8 0.690907 0.021895 0.809268
O O1 0.750000 0.750000 0.311030
O O2 0.664392 0.668148 0.272656
O O3 0.692069 0.854872 0.187042
O O4 0.718208 0.674943 0.020756
O O5 0.923519 0.500000 0.500000
O O6 0.926408 0.602304 0.778807
O O7 0.924624 0.393439 0.770920
O O8 0.851299 0.509947 0.690782
O O9 0.501943 0.219577 0.238301
O O10 0.554806 0.212142 0.497594
O O11 0.589825 0.299299 0.222484
O O12 0.750000 0.750000 0.746950
O O13 0.677076 0.629422 0.739776
O O14 0.762576 0.548260 0.791552
O O15 0.578213 0.690904 0.228505
O O16 0.613373 0.502087 0.219444
O O17 0.612374 0.606629 0.506721
O O18 0.673621 0.000000 0.000000
#
# Coordination Sequence:
#
# PCOD9323373 Si02
#       8
#     8   8   8   8   8   8   8   8
#     4  11  22  38  59  78 110 154 198 238 282 352
#     4  10  20  36  59  89 120 147 190 243 295 346
#     4   9  18  32  58  87 116 152 185 237 293 347
#     4  11  23  39  56  80 112 153 197 238 285 347
#     4  10  21  38  56  84 117 150 188 240 291 336
#     4   9  17  34  57  86 118 149 190 231 292 356
#     4  10  22  37  56  85 118 147 190 242 288 341
#     4  12  22  39  58  84 113 154 200 235 289 351
#
# _framework density 21.682046
#
# number of rings (size 3 to 8) (size 9 to 14) (size 15 to 20)
#    0.000    1.750    3.750    1.875    0.000    2.500 
#    4.500    2.500    0.000    3.750    0.000    1.750 
#    0.000    0.000    0.000    0.000    0.000    0.000 
#
# Total GULP energy -178306.069797 kJ/mol
# GULP energy per Si atom -5572.064681 kJ/mol
# Density = 2.163270 g / cm^3
# Si number density = 21.682046 Si / 1000 Ang^3
#
#
#
# Elastic Constant Matrix: (Units=GPa)
#
#
# Indices 1 2 3 4 5 6 
#
# 1 167.0433 113.1274 3.6185 0.0000 0.0000 0.0000
# 2 113.1274 221.5661 8.5795 0.0000 0.0000 0.0000
# 3 3.6185 8.5795 26.8346 0.0000 0.0000 0.0000
# 4 0.0000 0.0000 0.0000 0.4063 0.0000 0.0000
# 5 0.0000 0.0000 0.0000 0.0000 95.1074 0.0000
# 6 0.0000 0.0000 0.0000 0.0000 0.0000 43.0690
#
#
#
# Elastic Compliance Matrix: (Units=1/GPa)
#
#
# Indices 1 2 3 4 5 6 
#
# 1 0.009152 -0.004683 0.000263 0.000000 0.000000 0.000000
# 2 -0.004683 0.006966 -0.001596 0.000000 0.000000 0.000000
# 3 0.000263 -0.001596 0.037740 0.000000 0.000000 0.000000
# 4 0.000000 0.000000 0.000000 2.461451 0.000000 0.000000
# 5 0.000000 0.000000 0.000000 0.000000 0.010514 0.000000
# 6 0.000000 0.000000 0.000000 0.000000 0.000000 0.023219
#
#
# Mechanical properties :
#
#
# Convention : Reuss Voigt Hill
#
# Bulk Modulus (GPa) = 23.90794 74.01053 48.95923
# Shear Modulus (GPa) = 1.94174 47.05779 24.49976
#
# Velocity S-wave (km/s) = 0.94736 4.66376 3.36513
# Velocity P-wave (km/s) = 3.49960 7.95044 6.14234
#
# Compressibility (1/GPa) = 0.04182710
#
# Stress axis : x y z
#
# Youngs Moduli (GPa) = 109.26077 143.54852 26.49707
#
# Poissons Ratio (x) = 0.67227 -0.00697
# Poissons Ratio (y) = 0.51169 0.04228
# Poissons Ratio (z) = -0.02875 0.22907
#
# Static dielectric constant tensor:
#      x y z
#    x 1.809860 0.000000 0.000000 
#    y 0.000000 1.755180 0.000000 
#    z 0.000000 0.000000 1.833520 
# 
# From -- ./inp_files/19831.got.cif
#   From: 2010.05.17/outbox.cif.g08.bks.cpg/sg21_10_cif.got.tgz:19831.got - 2010.06.03 23:14:55.
