data_PCOD9323311
_publ_section_title
;
Structure prediction by ZEFSAII (Michael W. Deem and Ramdas Pophale) SiO2 
 PCOD9323311
Probable space group: C 2 2 2
;
_chemical_formula_sum "Si O2"
_cell_formula_units_Z 64
_cell_length_a 27.645053
_cell_length_b 11.943274
_cell_length_c 9.025590
_cell_angle_alpha 90.000000
_cell_angle_beta 90.000000
_cell_angle_gamma 90.000000
_cell_volume 2980.001097
_symmetry_space_group_name_H-M "C 2 2 2"
_symmetry_group_IT_number 21
_symmetry_cell_setting 'orthorhombic'
loop_
_space_group_symop_operation_xyz
x,y,z
-x,-y,z
x,-y,-z
-x,y,-z
1/2+x,1/2+y,z
1/2-x,1/2-y,z
1/2+x,1/2-y,-z
1/2-x,1/2+y,-z
loop_
_atom_site_type_symbol
_atom_site_label
_atom_site_fract_x
_atom_site_fract_y
_atom_site_fract_z
Si Si1 0.846240 0.234356 0.883649
Si Si2 0.362169 0.652449 0.211973
Si Si3 0.305323 0.738986 0.472234
Si Si4 0.314862 0.066390 0.283132
Si Si5 0.704868 0.444638 0.712847
Si Si6 0.439199 0.764567 0.685315
Si Si7 0.582104 0.984822 0.673445
Si Si8 0.548870 0.741876 0.670520
O O1 0.827588 0.360850 0.862092
O O2 0.802633 0.155311 0.829821
O O3 0.893022 0.216049 0.774536
O O4 0.858512 0.200250 0.048524
O O5 0.339280 0.736080 0.332392
O O6 0.331684 0.540284 0.237358
O O7 0.417871 0.647860 0.257110
O O8 0.250000 0.750000 0.425285
O O9 0.316385 0.838909 0.586570
O O10 0.307835 0.620302 0.560254
O O11 0.260898 0.018581 0.287240
O O12 0.360025 0.986655 0.308141
O O13 0.493164 0.719952 0.709134
O O14 0.436856 0.749514 0.505483
O O15 0.437372 0.896193 0.732758
O O16 0.560760 0.867954 0.727727
O O17 0.570348 0.000000 0.500000
#
# Coordination Sequence:
#
# PCOD9323311 Si02
#       8
#     8   8   8   8   8   8   8   8
#     4  10  21  39  59  79 112 154 191 232 287 345
#     4  12  23  34  55  88 118 145 186 238 285 341
#     4   9  19  35  57  83 113 150 192 235 277 326
#     4   9  19  38  60  81 113 155 187 225 283 342
#     4  10  21  39  58  79 114 157 192 225 277 338
#     4   9  19  38  61  81 111 152 188 233 293 345
#     4   9  16  31  58  89 114 140 182 230 279 338
#     4  10  20  35  58  87 112 142 192 244 285 336
#
# _framework density 21.476503000000001
#
# number of rings (size 3 to 8) (size 9 to 14) (size 15 to 20)
#    0.000    2.250    0.000    5.250    0.000    6.000 
#    0.000    4.375    0.000    6.000    0.000    0.000 
#    0.000    0.000    0.000    0.000    0.000    0.000 
#
# Total GULP energy -178593.497657 kJ/mol
# GULP energy per Si atom -5581.046802 kJ/mol
# Density = 2.142762 g / cm^3
# Si number density = 21.476503 Si / 1000 Ang^3
#
#
#
# Elastic Constant Matrix: (Units=GPa)
#
#
# Indices 1 2 3 4 5 6 
#
# 1 94.0470 6.1981 40.3389 0.0000 0.0000 0.0000
# 2 6.1981 49.3324 1.1931 0.0000 0.0000 0.0000
# 3 40.3389 1.1931 59.3128 0.0000 0.0000 0.0000
# 4 0.0000 0.0000 0.0000 9.2135 0.0000 0.0000
# 5 0.0000 0.0000 0.0000 0.0000 12.2888 0.0000
# 6 0.0000 0.0000 0.0000 0.0000 0.0000 30.1459
#
#
#
# Elastic Compliance Matrix: (Units=1/GPa)
#
#
# Indices 1 2 3 4 5 6 
#
# 1 0.015146 -0.001655 -0.010268 0.000000 0.000000 0.000000
# 2 -0.001655 0.020461 0.000714 0.000000 0.000000 0.000000
# 3 -0.010268 0.000714 0.023828 0.000000 0.000000 0.000000
# 4 0.000000 0.000000 0.000000 0.108536 0.000000 0.000000
# 5 0.000000 0.000000 0.000000 0.000000 0.081375 0.000000
# 6 0.000000 0.000000 0.000000 0.000000 0.000000 0.033172
#
#
# Mechanical properties :
#
#
# Convention : Reuss Voigt Hill
#
# Bulk Modulus (GPa) = 27.01331 33.12805 30.07068
# Shear Modulus (GPa) = 15.75918 20.66045 18.20982
#
# Velocity S-wave (km/s) = 2.71179 3.10498 2.91502
# Velocity P-wave (km/s) = 4.73397 5.32102 5.03606
#
# Compressibility (1/GPa) = 0.03701878
#
# Stress axis : x y z
#
# Youngs Moduli (GPa) = 66.02382 48.87281 41.96662
#
# Poissons Ratio (x) = 0.08087 0.43090
# Poissons Ratio (y) = 0.10924 -0.02995
# Poissons Ratio (z) = 0.67791 -0.03488
#
# Static dielectric constant tensor:
#      x y z
#    x 1.860880 0.000000 0.000000 
#    y 0.000000 1.831460 0.000000 
#    z 0.000000 0.000000 1.797820 
# 
# From -- ./inp_files/19804.got.cif
#   From: 2010.05.17/outbox.cif.g08.bks.cpg/sg21_10_cif.got.tgz:19804.got - 2010.06.03 23:14:55.
