data_PCOD9323538
_publ_section_title
;
Structure prediction by ZEFSAII (Michael W. Deem and Ramdas Pophale) SiO2 
 PCOD9323538
Probable space group: C 2 2 2
;
_chemical_formula_sum "Si O2"
_cell_formula_units_Z 48
_cell_length_a 6.062288
_cell_length_b 23.592562
_cell_length_c 14.689735
_cell_angle_alpha 90.000000
_cell_angle_beta 90.000000
_cell_angle_gamma 90.000000
_cell_volume 2100.997960
_symmetry_space_group_name_H-M "C 2 2 2"
_symmetry_group_IT_number 21
_symmetry_cell_setting 'orthorhombic'
loop_
_space_group_symop_operation_xyz
x,y,z
-x,-y,z
x,-y,-z
-x,y,-z
1/2+x,1/2+y,z
1/2-x,1/2-y,z
1/2+x,1/2-y,-z
1/2-x,1/2+y,-z
loop_
_atom_site_type_symbol
_atom_site_label
_atom_site_fract_x
_atom_site_fract_y
_atom_site_fract_z
Si Si1 0.000000 0.576781 0.500000
Si Si2 0.888296 0.847429 0.411244
Si Si3 0.000000 0.000000 0.807329
Si Si4 0.870927 0.668925 0.244964
Si Si5 0.372952 0.805586 0.090454
Si Si6 0.517886 0.382368 0.893129
Si Si7 0.720405 0.076415 0.323143
O O1 0.196411 0.614070 0.544444
O O2 0.124067 0.549103 0.415149
O O3 0.766099 0.812601 0.332829
O O4 0.000000 0.818785 0.500000
O O5 0.070536 0.885294 0.356996
O O6 0.189168 0.027510 0.743359
O O7 0.943593 0.052259 0.871683
O O8 0.703966 0.646103 0.167875
O O9 0.999646 0.713566 0.182137
O O10 0.032143 0.618035 0.281413
O O11 0.250000 0.750000 0.055436
O O12 0.216227 0.854440 0.130869
O O13 0.500000 0.827031 0.000000
O O14 0.500000 0.371737 0.000000
#
# Coordination Sequence:
#
# PCOD9323538 Si02
#       7
#     4   8   4   8   8   8   8
#     4   8  18  34  61  88 132 186 234 290 348 409
#     4   9  17  36  63  96 137 178 236 290 353 428
#     4  12  23  40  65  92 144 188 239 294 353 432
#     4  11  21  41  69  95 144 181 228 300 365 433
#     4  12  26  45  71 104 141 182 240 310 378 438
#     4  12  25  45  66  97 139 187 242 290 359 450
#     4  10  20  38  61  95 139 188 230 294 348 431
#
# _framework density 22.846285000000002
#
# number of rings (size 3 to 8) (size 9 to 14) (size 15 to 20)
#    0.000    1.333    5.000    0.750    0.000    0.667 
#    0.000    4.583    0.000    0.000    0.000    0.000 
#  405.000    0.000    0.000    0.000    0.000    0.000 
#
# Total GULP energy -133695.506872 kJ/mol
# GULP energy per Si atom -5570.646120 kJ/mol
# Density = 2.279429 g / cm^3
# Si number density = 22.846285 Si / 1000 Ang^3
#
#
#
# Elastic Constant Matrix: (Units=GPa)
#
#
# Indices 1 2 3 4 5 6 
#
# 1 105.0290 26.1546 57.1106 0.0000 0.0000 0.0000
# 2 26.1546 66.0822 7.8059 0.0000 0.0000 0.0000
# 3 57.1106 7.8059 152.9993 0.0000 0.0000 0.0000
# 4 0.0000 0.0000 0.0000 -86.2031 0.0000 0.0000
# 5 0.0000 0.0000 0.0000 0.0000 71.3727 0.0000
# 6 0.0000 0.0000 0.0000 0.0000 0.0000 17.1694
#
#
#
# Elastic Compliance Matrix: (Units=1/GPa)
#
#
# Indices 1 2 3 4 5 6 
#
# 1 0.013247 -0.004687 -0.004706 0.000000 0.000000 0.000000
# 2 -0.004687 0.016883 0.000888 0.000000 0.000000 0.000000
# 3 -0.004706 0.000888 0.008247 0.000000 0.000000 0.000000
# 4 0.000000 0.000000 0.000000 -0.011601 0.000000 0.000000
# 5 0.000000 0.000000 0.000000 0.000000 0.014011 0.000000
# 6 0.000000 0.000000 0.000000 0.000000 0.000000 0.058243
#
#
# Mechanical properties :
#
#
# Convention : Reuss Voigt Hill
#
# Bulk Modulus (GPa) = 46.79905 56.25027 51.52466
# Shear Modulus (GPa) = 40.59665 16.00377 28.30021
#
# Velocity S-wave (km/s) = 4.21996 2.64956 3.52337
# Velocity P-wave (km/s) = 6.65379 5.83394 6.25731
#
# Compressibility (1/GPa) = 0.02136795
#
# Stress axis : x y z
#
# Youngs Moduli (GPa) = 75.48786 59.23159 121.25379
#
# Poissons Ratio (x) = 0.27763 0.57058
# Poissons Ratio (y) = 0.35383 -0.10771
# Poissons Ratio (z) = 0.35522 -0.05261
#
# Static dielectric constant tensor:
#      x y z
#    x 3.339410 0.000000 0.000000 
#    y 0.000000 1.805270 0.000000 
#    z 0.000000 0.000000 1.901040 
# 
# From -- ./inp_files/29390.got.cif
#   From: 2010.05.17/outbox.cif.g08.bks.cpg/sg21_15_cif.got.tgz:29390.got - 2010.06.03 23:14:55.
