data_PCOD9323046
_publ_section_title
;
Structure prediction by ZEFSAII (Michael W. Deem and Ramdas Pophale) SiO2 
 PCOD9323046
Probable space group: C 2 2 2
;
_chemical_formula_sum "Si O2"
_cell_formula_units_Z 58
_cell_length_a 17.013037
_cell_length_b 18.568698
_cell_length_c 8.548018
_cell_angle_alpha 90.000000
_cell_angle_beta 90.000000
_cell_angle_gamma 90.000000
_cell_volume 2700.403906
_symmetry_space_group_name_H-M "C 2 2 2"
_symmetry_group_IT_number 21
_symmetry_cell_setting 'orthorhombic'
loop_
_space_group_symop_operation_xyz
x,y,z
-x,-y,z
x,-y,-z
-x,y,-z
1/2+x,1/2+y,z
1/2-x,1/2-y,z
1/2+x,1/2-y,-z
1/2-x,1/2+y,-z
loop_
_atom_site_type_symbol
_atom_site_label
_atom_site_fract_x
_atom_site_fract_y
_atom_site_fract_z
Si Si1 0.288033 0.675655 0.326722
Si Si2 0.500000 0.500000 0.000000
Si Si3 0.180332 0.450477 0.645444
Si Si4 0.243169 0.332705 0.040827
Si Si5 0.046473 0.206783 0.785851
Si Si6 0.382576 0.944219 0.869997
Si Si7 0.519575 0.865490 0.682118
Si Si8 0.407481 0.630950 0.882326
O O1 0.250000 0.750000 0.388362
O O2 0.251744 0.602786 0.395053
O O3 0.381693 0.684841 0.326267
O O4 0.259899 0.668154 0.145090
O O5 0.444124 0.447539 0.096912
O O6 0.161652 0.500000 0.500000
O O7 0.184783 0.507122 0.786552
O O8 0.103607 0.403771 0.683271
O O9 0.250000 0.250000 0.092721
O O10 0.161672 0.373122 0.068273
O O11 0.314790 0.370842 0.130764
O O12 0.031148 0.291479 0.776883
O O13 0.962277 0.170036 0.756335
O O14 0.075945 0.176712 0.955695
O O15 0.452068 0.915706 0.757790
O O16 0.412892 0.000000 0.000000
O O17 0.500000 0.850011 0.500000
#
# Coordination Sequence:
#
# PCOD9323046 Si02
#       8
#     8   2   8   8   8   8   8   8
#     4  10  19  38  65  93 123 172 225 262 318 407
#     4   8  16  28  52  92 126 176 196 260 340 406
#     4  12  25  44  63  94 135 179 216 265 336 402
#     4  10  21  38  59  93 136 163 209 279 335 382
#     4   9  19  37  66  95 120 172 221 272 316 407
#     4  12  26  41  65 103 130 172 219 282 333 392
#     4  12  25  43  65  88 139 177 222 266 338 412
#     4   9  19  34  63  98 133 162 219 279 352 377
#
# _framework density 21.478269000000001
#
# number of rings (size 3 to 8) (size 9 to 14) (size 15 to 20)
#    0.000    1.655    4.138    1.241    0.966    5.517 
#    0.000    3.448    0.000    0.000    0.000    0.966 
#    0.000    0.000    0.000    0.000    0.000    0.000 
#
# Total GULP energy -161830.236362 kJ/mol
# GULP energy per Si atom -5580.352978 kJ/mol
# Density = 2.142938 g / cm^3
# Si number density = 21.478269 Si / 1000 Ang^3
#
#
#
# Elastic Constant Matrix: (Units=GPa)
#
#
# Indices 1 2 3 4 5 6 
#
# 1 100.6931 41.4158 9.4527 0.0000 0.0000 0.0000
# 2 41.4158 151.5927 22.9482 0.0000 0.0000 0.0000
# 3 9.4527 22.9482 31.7043 0.0000 0.0000 0.0000
# 4 0.0000 0.0000 0.0000 18.8623 0.0000 0.0000
# 5 0.0000 0.0000 0.0000 0.0000 1.5763 0.0000
# 6 0.0000 0.0000 0.0000 0.0000 0.0000 13.1500
#
#
#
# Elastic Compliance Matrix: (Units=1/GPa)
#
#
# Indices 1 2 3 4 5 6 
#
# 1 0.011234 -0.002877 -0.001267 0.000000 0.000000 0.000000
# 2 -0.002877 0.008145 -0.005038 0.000000 0.000000 0.000000
# 3 -0.001267 -0.005038 0.035566 0.000000 0.000000 0.000000
# 4 0.000000 0.000000 0.000000 0.053016 0.000000 0.000000
# 5 0.000000 0.000000 0.000000 0.000000 0.634399 0.000000
# 6 0.000000 0.000000 0.000000 0.000000 0.000000 0.076046
#
#
# Mechanical properties :
#
#
# Convention : Reuss Voigt Hill
#
# Bulk Modulus (GPa) = 27.33671 47.95816 37.64744
# Shear Modulus (GPa) = 5.88954 20.72927 13.30941
#
# Velocity S-wave (km/s) = 1.65772 3.11002 2.49201
# Velocity P-wave (km/s) = 4.05207 5.93915 5.08393
#
# Compressibility (1/GPa) = 0.03658084
#
# Stress axis : x y z
#
# Youngs Moduli (GPa) = 89.01921 122.76930 28.11700
#
# Poissons Ratio (x) = 0.35324 0.03561
# Poissons Ratio (y) = 0.25614 0.14165
# Poissons Ratio (z) = 0.11276 0.61850
#
# Static dielectric constant tensor:
#      x y z
#    x 1.808740 0.000000 0.000000 
#    y 0.000000 1.791660 0.000000 
#    z 0.000000 0.000000 1.859570 
# 
# From -- ./inp_files/16696.got.cif
#   From: 2010.05.17/outbox.cif.g08.bks.cpg/sg21_9_cif.got.tgz:16696.got - 2010.06.03 23:14:55.
