data_PCOD9323888
_publ_section_title
;
Structure prediction by ZEFSAII (Michael W. Deem and Ramdas Pophale) SiO2 
 PCOD9323888
Probable space group: C 2 2 2
;
_chemical_formula_sum "Si O2"
_cell_formula_units_Z 40
_cell_length_a 7.867204
_cell_length_b 26.533763
_cell_length_c 8.146975
_cell_angle_alpha 90.000000
_cell_angle_beta 90.000000
_cell_angle_gamma 90.000000
_cell_volume 1700.652732
_symmetry_space_group_name_H-M "C 2 2 2"
_symmetry_group_IT_number 21
_symmetry_cell_setting 'orthorhombic'
loop_
_space_group_symop_operation_xyz
x,y,z
-x,-y,z
x,-y,-z
-x,y,-z
1/2+x,1/2+y,z
1/2-x,1/2-y,z
1/2+x,1/2-y,-z
1/2-x,1/2+y,-z
loop_
_atom_site_type_symbol
_atom_site_label
_atom_site_fract_x
_atom_site_fract_y
_atom_site_fract_z
Si Si1 0.181191 0.380212 0.790076
Si Si2 0.516664 0.667325 0.303709
Si Si3 0.250000 0.250000 0.349166
Si Si4 0.796467 0.009590 0.318740
Si Si5 0.000000 0.670903 0.500000
Si Si6 0.179658 0.919116 0.898853
O O1 0.331709 0.339385 0.771567
O O2 0.249717 0.433650 0.722160
O O3 0.038099 0.361633 0.663556
O O4 0.184804 0.392109 0.983405
O O5 0.500000 0.666508 0.500000
O O6 0.609846 0.718440 0.251823
O O7 0.624326 0.619379 0.243177
O O8 0.154279 0.291720 0.457316
O O9 0.727416 0.000000 0.500000
O O10 0.743367 0.969332 0.181048
O O11 0.000000 0.000000 0.324011
O O12 0.000000 0.929192 0.000000
#
# Coordination Sequence:
#
# PCOD9323888 Si02
#       6
#     8   8   4   8   4   8
#     4  11  23  39  66 103 141 181 236 300 359 439
#     4  11  20  39  67  98 128 179 233 299 361 432
#     4  12  24  42  70  92 128 184 250 308 362 440
#     4  11  20  33  66 106 136 183 230 278 349 442
#     4  12  24  44  69 102 134 191 248 310 372 428
#     4  10  21  36  64 107 145 178 232 299 357 426
#
# _framework density 23.520379999999999
#
# number of rings (size 3 to 8) (size 9 to 14) (size 15 to 20)
#    0.000    1.000    7.000    1.800    0.000    0.000 
#    0.000    8.500    0.000    0.000    5.200    0.000 
#    0.000    0.000    0.000    0.000    0.000    0.000 
#
# Total GULP energy -111774.492661 kJ/mol
# GULP energy per Si atom -5588.724633 kJ/mol
# Density = 2.346685 g / cm^3
# Si number density = 23.520380 Si / 1000 Ang^3
#
#
#
# Elastic Constant Matrix: (Units=GPa)
#
#
# Indices 1 2 3 4 5 6 
#
# 1 84.7160 38.9586 37.4653 0.0000 0.0000 0.0000
# 2 38.9586 130.5529 48.4628 0.0000 0.0000 0.0000
# 3 37.4653 48.4628 101.7049 0.0000 0.0000 0.0000
# 4 0.0000 0.0000 0.0000 97.5000 0.0000 0.0000
# 5 0.0000 0.0000 0.0000 0.0000 19.7354 0.0000
# 6 0.0000 0.0000 0.0000 0.0000 0.0000 7.1825
#
#
#
# Elastic Compliance Matrix: (Units=1/GPa)
#
#
# Indices 1 2 3 4 5 6 
#
# 1 0.014977 -0.002942 -0.004115 0.000000 0.000000 0.000000
# 2 -0.002942 0.009884 -0.003626 0.000000 0.000000 0.000000
# 3 -0.004115 -0.003626 0.013076 0.000000 0.000000 0.000000
# 4 0.000000 0.000000 0.000000 0.010256 0.000000 0.000000
# 5 0.000000 0.000000 0.000000 0.000000 0.050670 0.000000
# 6 0.000000 0.000000 0.000000 0.000000 0.000000 0.139227
#
#
# Mechanical properties :
#
#
# Convention : Reuss Voigt Hill
#
# Bulk Modulus (GPa) = 60.34746 62.97193 61.65970
# Shear Modulus (GPa) = 18.86937 37.68939 28.27938
#
# Velocity S-wave (km/s) = 2.83549 4.00736 3.47123
# Velocity P-wave (km/s) = 6.03599 6.94575 6.50679
#
# Compressibility (1/GPa) = 0.01657070
#
# Stress axis : x y z
#
# Youngs Moduli (GPa) = 66.76930 101.17830 76.47513
#
# Poissons Ratio (x) = 0.29763 0.31473
# Poissons Ratio (y) = 0.19641 0.27729
# Poissons Ratio (z) = 0.27478 0.36687
#
# Static dielectric constant tensor:
#      x y z
#    x 2.021400 0.000000 0.000000 
#    y 0.000000 1.869160 0.000000 
#    z 0.000000 0.000000 1.944050 
# 
# From -- ./inp_files/10977.got.cif
#   From: 2010.05.17/outbox.cif.g08.bks.cpg/sg21_6_cif.got.tgz:10977.got - 2010.06.03 23:14:55.
