data_PCOD9323276
_publ_section_title
;
Structure prediction by ZEFSAII (Michael W. Deem and Ramdas Pophale) SiO2 
 PCOD9323276
Probable space group: C 2 2 2
;
_chemical_formula_sum "Si O2"
_cell_formula_units_Z 48
_cell_length_a 7.852797
_cell_length_b 25.180179
_cell_length_c 12.521530
_cell_angle_alpha 90.000000
_cell_angle_beta 90.000000
_cell_angle_gamma 90.000000
_cell_volume 2475.942657
_symmetry_space_group_name_H-M "C 2 2 2"
_symmetry_group_IT_number 21
_symmetry_cell_setting 'orthorhombic'
loop_
_space_group_symop_operation_xyz
x,y,z
-x,-y,z
x,-y,-z
-x,y,-z
1/2+x,1/2+y,z
1/2-x,1/2-y,z
1/2+x,1/2-y,-z
1/2-x,1/2+y,-z
loop_
_atom_site_type_symbol
_atom_site_label
_atom_site_fract_x
_atom_site_fract_y
_atom_site_fract_z
Si Si1 0.455480 0.867681 0.623217
Si Si2 0.873385 0.155916 0.748150
Si Si3 0.953316 0.438923 0.183244
Si Si4 0.954906 0.752028 0.378544
Si Si5 0.841743 0.346718 0.941203
Si Si6 0.104308 0.907470 0.093734
O O1 0.500000 0.878408 0.500000
O O2 0.253918 0.866285 0.656197
O O3 0.538234 0.909552 0.702982
O O4 0.519652 0.807207 0.644944
O O5 0.997872 0.200297 0.700395
O O6 0.746250 0.179505 0.838990
O O7 0.980643 0.112411 0.812829
O O8 0.762648 0.438218 0.139858
O O9 0.000000 0.500000 0.188870
O O10 0.075618 0.401771 0.108130
O O11 0.750000 0.750000 0.372895
O O12 0.000000 0.765258 0.500000
O O13 0.697605 0.359496 0.028454
O O14 0.000000 0.319204 0.000000
O O15 0.000000 0.935681 0.000000
#
# Coordination Sequence:
#
# PCOD9323276 Si02
#       6
#     8   8   8   8   8   8
#     4   9  19  36  54  75 107 145 181 220 267 327
#     4   9  17  31  53  81 110 136 176 227 266 310
#     4  10  20  35  56  80 104 141 184 220 270 328
#     4   9  18  32  53  78 105 140 181 219 263 316
#     4   8  16  32  52  74 106 142 175 211 262 324
#     4   9  18  33  54  82 110 135 172 224 269 311
#
# _framework density 19.386557
#
# number of rings (size 3 to 8) (size 9 to 14) (size 15 to 20)
#    0.000    3.000    0.000    0.000    0.000    7.333 
#    0.000   11.667    0.000  102.000    0.000    7.000 
#    0.000    0.000    0.000    0.000    0.000    0.000 
#
# Total GULP energy -133639.855073 kJ/mol
# GULP energy per Si atom -5568.327295 kJ/mol
# Density = 1.934243 g / cm^3
# Si number density = 19.386557 Si / 1000 Ang^3
#
#
#
# Elastic Constant Matrix: (Units=GPa)
#
#
# Indices 1 2 3 4 5 6 
#
# 1 84.0378 32.1345 48.1352 0.0000 0.0000 0.0000
# 2 32.1345 82.5761 57.5109 0.0000 0.0000 0.0000
# 3 48.1352 57.5109 122.1970 0.0000 0.0000 0.0000
# 4 0.0000 0.0000 0.0000 9.4995 0.0000 0.0000
# 5 0.0000 0.0000 0.0000 0.0000 42.2756 0.0000
# 6 0.0000 0.0000 0.0000 0.0000 0.0000 10.7101
#
#
#
# Elastic Compliance Matrix: (Units=1/GPa)
#
#
# Indices 1 2 3 4 5 6 
#
# 1 0.015759 -0.002691 -0.004941 0.000000 0.000000 0.000000
# 2 -0.002691 0.018475 -0.007635 0.000000 0.000000 0.000000
# 3 -0.004941 -0.007635 0.013723 0.000000 0.000000 0.000000
# 4 0.000000 0.000000 0.000000 0.105269 0.000000 0.000000
# 5 0.000000 0.000000 0.000000 0.000000 0.023654 0.000000
# 6 0.000000 0.000000 0.000000 0.000000 0.000000 0.093370
#
#
# Mechanical properties :
#
#
# Convention : Reuss Voigt Hill
#
# Bulk Modulus (GPa) = 57.39771 62.70801 60.05286
# Shear Modulus (GPa) = 16.30840 22.56573 19.43706
#
# Velocity S-wave (km/s) = 2.90353 3.41543 3.16983
# Velocity P-wave (km/s) = 6.39624 6.92603 6.66640
#
# Compressibility (1/GPa) = 0.01742230
#
# Stress axis : x y z
#
# Youngs Moduli (GPa) = 63.45760 54.12806 72.87012
#
# Poissons Ratio (x) = 0.14568 0.36004
# Poissons Ratio (y) = 0.17078 0.55635
# Poissons Ratio (z) = 0.31354 0.41326
#
# Static dielectric constant tensor:
#      x y z
#    x 1.715050 0.000000 0.000000 
#    y 0.000000 1.689880 0.000000 
#    z 0.000000 0.000000 1.708070 
# 
# From -- ./inp_files/22890.got.cif
#   From: 2010.05.17/outbox.cif.g08.bks.cpg/sg21_12_cif.got.tgz:22890.got - 2010.06.03 23:14:55.
