data_PCOD9323011
_publ_section_title
;
Structure prediction by ZEFSAII (Michael W. Deem and Ramdas Pophale) SiO2 
 PCOD9323011
Probable space group: C 2 2 2
;
_chemical_formula_sum "Si O2"
_cell_formula_units_Z 64
_cell_length_a 11.315093
_cell_length_b 14.341607
_cell_length_c 18.260625
_cell_angle_alpha 90.000000
_cell_angle_beta 90.000000
_cell_angle_gamma 90.000000
_cell_volume 2963.272449
_symmetry_space_group_name_H-M "C 2 2 2"
_symmetry_group_IT_number 21
_symmetry_cell_setting 'orthorhombic'
loop_
_space_group_symop_operation_xyz
x,y,z
-x,-y,z
x,-y,-z
-x,y,-z
1/2+x,1/2+y,z
1/2-x,1/2-y,z
1/2+x,1/2-y,-z
1/2-x,1/2+y,-z
loop_
_atom_site_type_symbol
_atom_site_label
_atom_site_fract_x
_atom_site_fract_y
_atom_site_fract_z
Si Si1 0.804596 0.575380 0.946639
Si Si2 0.129406 0.493959 0.684969
Si Si3 0.883358 0.281148 0.287474
Si Si4 0.965537 0.719007 0.874784
Si Si5 0.157076 0.832853 0.937416
Si Si6 0.176389 0.419616 0.166850
Si Si7 0.762991 0.079086 0.564872
Si Si8 0.934096 0.253858 0.576825
O O1 0.868240 0.670082 0.924629
O O2 0.804682 0.519580 0.870849
O O3 0.867935 0.500000 0.000000
O O4 0.689614 0.599422 0.995563
O O5 0.127223 0.392225 0.718515
O O6 0.144721 0.568272 0.749260
O O7 0.238171 0.511486 0.632686
O O8 0.000000 0.500000 0.647537
O O9 0.750000 0.250000 0.306618
O O10 0.921816 0.249400 0.205621
O O11 0.978456 0.259760 0.352385
O O12 0.026684 0.800017 0.920915
O O13 0.067671 0.640237 0.864873
O O14 0.250000 0.750000 0.949565
O O15 0.203987 0.870412 0.858434
O O16 0.870881 0.151734 0.573810
O O17 0.655417 0.156494 0.571783
O O18 0.766736 0.000000 0.500000
O O19 0.000000 0.260603 0.500000
#
# Coordination Sequence:
#
# PCOD9323011 Si02
#       8
#     8   8   8   8   8   8   8   8
#     4  10  20  37  62  97 125 169 229 291 349 415
#     4  12  21  42  71 105 132 181 244 300 346 420
#     4  12  27  45  71 109 146 188 239 311 364 436
#     4  11  21  40  65 101 133 175 232 295 363 422
#     4   9  22  34  58  96 129 169 218 288 350 428
#     4  10  19  37  64  97 125 168 232 289 348 412
#     4  11  26  44  75 109 143 195 245 297 356 436
#     4  11  26  47  72 107 154 194 238 299 367 429
#
# _framework density 21.597745
#
# number of rings (size 3 to 8) (size 9 to 14) (size 15 to 20)
#    0.000    1.250    3.750    1.125    5.250    7.750 
#    0.000    0.000    0.000    0.000   16.250    0.000 
#    0.000    0.000    0.000    0.000    0.000    0.000 
#
# Total GULP energy -178208.992740 kJ/mol
# GULP energy per Si atom -5569.031023 kJ/mol
# Density = 2.154859 g / cm^3
# Si number density = 21.597745 Si / 1000 Ang^3
#
#
#
# Elastic Constant Matrix: (Units=GPa)
#
#
# Indices 1 2 3 4 5 6 
#
# 1 68.7280 37.3201 58.4445 0.0000 0.0000 0.0000
# 2 37.3201 65.0231 36.2464 0.0000 0.0000 0.0000
# 3 58.4445 36.2464 144.6522 0.0000 0.0000 0.0000
# 4 0.0000 0.0000 0.0000 30.5593 0.0000 0.0000
# 5 0.0000 0.0000 0.0000 0.0000 29.5359 0.0000
# 6 0.0000 0.0000 0.0000 0.0000 0.0000 25.6727
#
#
#
# Elastic Compliance Matrix: (Units=1/GPa)
#
#
# Indices 1 2 3 4 5 6 
#
# 1 0.027837 -0.011284 -0.008420 0.000000 0.000000 0.000000
# 2 -0.011284 0.022450 -0.001066 0.000000 0.000000 0.000000
# 3 -0.008420 -0.001066 0.010582 0.000000 0.000000 0.000000
# 4 0.000000 0.000000 0.000000 0.032723 0.000000 0.000000
# 5 0.000000 0.000000 0.000000 0.000000 0.033857 0.000000
# 6 0.000000 0.000000 0.000000 0.000000 0.000000 0.038952
#
#
# Mechanical properties :
#
#
# Convention : Reuss Voigt Hill
#
# Bulk Modulus (GPa) = 51.73417 60.26949 56.00183
# Shear Modulus (GPa) = 23.32256 26.91307 25.11782
#
# Velocity S-wave (km/s) = 3.28969 3.53385 3.41395
# Velocity P-wave (km/s) = 6.19959 6.67958 6.44406
#
# Compressibility (1/GPa) = 0.01932958
#
# Stress axis : x y z
#
# Youngs Moduli (GPa) = 35.92307 44.54361 94.49809
#
# Poissons Ratio (x) = 0.50262 0.79565
# Poissons Ratio (y) = 0.40535 0.10077
# Poissons Ratio (z) = 0.30246 0.04750
#
# Static dielectric constant tensor:
#      x y z
#    x 1.896700 0.000000 0.000000 
#    y 0.000000 3.294050 0.000000 
#    z 0.000000 0.000000 1.796050 
# 
# From -- ./inp_files/36263.got.cif
#   From: 2010.05.17/outbox.cif.g08.bks.cpg/sg21_19_cif.got.tgz:36263.got - 2010.06.03 23:14:55.
