data_PCOD9323089
_publ_section_title
;
Structure prediction by ZEFSAII (Michael W. Deem and Ramdas Pophale) SiO2 
 PCOD9323089
Probable space group: C 2 2 2
;
_chemical_formula_sum "Si O2"
_cell_formula_units_Z 54
_cell_length_a 14.926049
_cell_length_b 14.179960
_cell_length_c 11.848701
_cell_angle_alpha 90.000000
_cell_angle_beta 90.000000
_cell_angle_gamma 90.000000
_cell_volume 2507.786782
_symmetry_space_group_name_H-M "C 2 2 2"
_symmetry_group_IT_number 21
_symmetry_cell_setting 'orthorhombic'
loop_
_space_group_symop_operation_xyz
x,y,z
-x,-y,z
x,-y,-z
-x,y,-z
1/2+x,1/2+y,z
1/2-x,1/2-y,z
1/2+x,1/2-y,-z
1/2-x,1/2+y,-z
loop_
_atom_site_type_symbol
_atom_site_label
_atom_site_fract_x
_atom_site_fract_y
_atom_site_fract_z
Si Si1 0.027333 0.266696 0.713701
Si Si2 0.250000 0.750000 0.056169
Si Si3 0.663905 0.693230 0.319661
Si Si4 0.000000 0.500000 0.000000
Si Si5 0.865549 0.411680 0.173959
Si Si6 0.191865 0.993102 0.233352
Si Si7 0.323174 0.670563 0.416230
Si Si8 0.086093 0.858323 0.070755
O O1 0.073440 0.368735 0.726917
O O2 0.080394 0.210983 0.617603
O O3 0.051247 0.212552 0.830709
O O4 0.922880 0.258809 0.691427
O O5 0.203049 0.669620 0.132265
O O6 0.164898 0.803021 0.001748
O O7 0.750000 0.750000 0.278513
O O8 0.652130 0.594931 0.256221
O O9 0.681677 0.662837 0.449684
O O10 0.065255 0.438211 0.923051
O O11 0.797491 0.496044 0.202204
O O12 0.189065 0.924022 0.342984
O O13 0.134111 0.943828 0.135214
O O14 0.250000 0.750000 0.381585
O O15 0.000000 0.884390 0.000000
#
# Coordination Sequence:
#
# PCOD9323089 Si02
#       8
#     8   4   8   2   8   8   8   8
#     4  10  21  40  66  94 126 171 215 270 328 395
#     4   8  18  38  66  92 116 172 220 264 322 388
#     4  11  25  40  60 101 137 168 218 282 331 386
#     4  12  28  40  64 100 128 186 228 280 316 392
#     4  10  22  43  68  91 130 175 233 262 331 396
#     4  10  21  43  67  95 133 179 218 271 335 396
#     4  10  19  40  72  97 128 170 220 267 339 407
#     4   9  19  37  64  95 125 166 223 266 323 392
#
# _framework density 21.53293
#
# number of rings (size 3 to 8) (size 9 to 14) (size 15 to 20)
#    0.000    2.074    1.481    1.778    8.296    2.370 
#    6.667    3.704    0.000    0.000    0.000    0.000 
#    0.000    0.000    0.000    0.000    0.000    0.000 
#
# Total GULP energy -150798.781394 kJ/mol
# GULP energy per Si atom -5585.140052 kJ/mol
# Density = 2.148392 g / cm^3
# Si number density = 21.532930 Si / 1000 Ang^3
#
#
#
# Elastic Constant Matrix: (Units=GPa)
#
#
# Indices 1 2 3 4 5 6 
#
# 1 152.4522 22.3407 17.2206 0.0000 0.0000 0.0000
# 2 22.3407 43.5563 15.5441 0.0000 0.0000 0.0000
# 3 17.2206 15.5441 43.9954 0.0000 0.0000 0.0000
# 4 0.0000 0.0000 0.0000 11.4528 0.0000 0.0000
# 5 0.0000 0.0000 0.0000 0.0000 25.2635 0.0000
# 6 0.0000 0.0000 0.0000 0.0000 0.0000 19.8852
#
#
#
# Elastic Compliance Matrix: (Units=1/GPa)
#
#
# Indices 1 2 3 4 5 6 
#
# 1 0.007206 -0.003078 -0.001733 0.000000 0.000000 0.000000
# 2 -0.003078 0.027586 -0.008542 0.000000 0.000000 0.000000
# 3 -0.001733 -0.008542 0.026426 0.000000 0.000000 0.000000
# 4 0.000000 0.000000 0.000000 0.087315 0.000000 0.000000
# 5 0.000000 0.000000 0.000000 0.000000 0.039583 0.000000
# 6 0.000000 0.000000 0.000000 0.000000 0.000000 0.050289
#
#
# Mechanical properties :
#
#
# Convention : Reuss Voigt Hill
#
# Bulk Modulus (GPa) = 28.97489 38.91274 33.94382
# Shear Modulus (GPa) = 18.07575 23.64688 20.86132
#
# Velocity S-wave (km/s) = 2.90046 3.31746 3.11595
# Velocity P-wave (km/s) = 4.97013 5.72578 5.36129
#
# Compressibility (1/GPa) = 0.03451264
#
# Stress axis : x y z
#
# Youngs Moduli (GPa) = 138.76897 36.25078 37.84154
#
# Poissons Ratio (x) = 0.11157 0.06559
# Poissons Ratio (y) = 0.42708 0.32323
# Poissons Ratio (z) = 0.24053 0.30964
#
# Static dielectric constant tensor:
#      x y z
#    x 1.773520 0.000000 0.000000 
#    y 0.000000 1.870780 0.000000 
#    z 0.000000 0.000000 1.800810 
# 
# From -- ./inp_files/25326.got.cif
#   From: 2010.05.17/outbox.cif.g08.bks.cpg/sg21_13_cif.got.tgz:25326.got - 2010.06.03 23:14:55.
