data_PCOD9323687
_publ_section_title
;
Structure prediction by ZEFSAII (Michael W. Deem and Ramdas Pophale) SiO2 
 PCOD9323687
Probable space group: C 2 2 2
;
_chemical_formula_sum "Si O2"
_cell_formula_units_Z 58
_cell_length_a 14.548683
_cell_length_b 11.615229
_cell_length_c 19.126397
_cell_angle_alpha 90.000000
_cell_angle_beta 90.000000
_cell_angle_gamma 90.000000
_cell_volume 3232.098769
_symmetry_space_group_name_H-M "C 2 2 2"
_symmetry_group_IT_number 21
_symmetry_cell_setting 'orthorhombic'
loop_
_space_group_symop_operation_xyz
x,y,z
-x,-y,z
x,-y,-z
-x,y,-z
1/2+x,1/2+y,z
1/2-x,1/2-y,z
1/2+x,1/2-y,-z
1/2-x,1/2+y,-z
loop_
_atom_site_type_symbol
_atom_site_label
_atom_site_fract_x
_atom_site_fract_y
_atom_site_fract_z
Si Si1 0.510335 0.864087 0.230796
Si Si2 0.500000 0.000000 0.000000
Si Si3 0.001421 0.861723 0.419352
Si Si4 0.854566 0.213388 0.303305
Si Si5 0.609822 0.509195 0.214024
Si Si6 0.886975 0.320651 0.909786
Si Si7 0.311951 0.422381 0.069727
Si Si8 0.354433 0.723667 0.686164
O O1 0.417149 0.804438 0.259181
O O2 0.550291 0.810467 0.159165
O O3 0.589925 0.834050 0.286185
O O4 0.500000 0.000000 0.221249
O O5 0.437565 0.085737 0.043800
O O6 0.086953 0.815166 0.373331
O O7 0.000000 0.825070 0.500000
O O8 0.910015 0.821292 0.380059
O O9 0.000000 0.000000 0.416559
O O10 0.750000 0.250000 0.317258
O O11 0.851185 0.098454 0.256488
O O12 0.500000 0.500000 0.218271
O O13 0.641438 0.510768 0.133887
O O14 0.639108 0.625975 0.253599
O O15 0.785714 0.376027 0.900506
O O16 0.870492 0.194693 0.942907
O O17 0.302527 0.500000 0.000000
O O18 0.250000 0.750000 0.671321
#
# Coordination Sequence:
#
# PCOD9323687 Si02
#       8
#     8   2   8   8   8   8   8   8
#     4  11  23  39  62  92 122 164 209 250 312 368
#     4  12  24  40  66  80 122 156 202 250 324 380
#     4  10  20  40  67  94 128 166 207 251 306 372
#     4  11  24  39  62  98 133 162 203 268 310 360
#     4  12  21  42  64  91 121 160 215 261 310 368
#     4  11  23  43  62  86 120 162 204 259 313 380
#     4  11  25  42  63  89 122 159 209 266 322 373
#     4  11  21  38  67  93 123 166 207 256 300 366
#
# _framework density 17.944996
#
# number of rings (size 3 to 8) (size 9 to 14) (size 15 to 20)
#    0.000    0.966    6.897    0.828    3.862    3.034 
#    2.483    0.000    0.000    6.621    0.000    0.000 
#    0.000    0.000    0.000    0.000    0.000    0.000 
#
# Total GULP energy -161867.469783 kJ/mol
# GULP energy per Si atom -5581.636889 kJ/mol
# Density = 1.790415 g / cm^3
# Si number density = 17.944996 Si / 1000 Ang^3
#
#
#
# Elastic Constant Matrix: (Units=GPa)
#
#
# Indices 1 2 3 4 5 6 
#
# 1 148.7220 41.3040 52.8641 0.0000 0.0000 0.0000
# 2 41.3040 85.1926 33.2481 0.0000 0.0000 0.0000
# 3 52.8641 33.2481 117.7189 0.0000 0.0000 0.0000
# 4 0.0000 0.0000 0.0000 -46.9724 0.0000 0.0000
# 5 0.0000 0.0000 0.0000 0.0000 -17.2565 0.0000
# 6 0.0000 0.0000 0.0000 0.0000 0.0000 16.3149
#
#
#
# Elastic Compliance Matrix: (Units=1/GPa)
#
#
# Indices 1 2 3 4 5 6 
#
# 1 0.008635 -0.003004 -0.003029 0.000000 0.000000 0.000000
# 2 -0.003004 0.014238 -0.002672 0.000000 0.000000 0.000000
# 3 -0.003029 -0.002672 0.010610 0.000000 0.000000 0.000000
# 4 0.000000 0.000000 0.000000 -0.021289 0.000000 0.000000
# 5 0.000000 0.000000 0.000000 0.000000 -0.057949 0.000000
# 6 0.000000 0.000000 0.000000 0.000000 0.000000 0.061294
#
#
# Mechanical properties :
#
#
# Convention : Reuss Voigt Hill
#
# Bulk Modulus (GPa) = 62.22297 67.38509 64.80403
# Shear Modulus (GPa) = 130.52816 5.36503 67.94660
#
# Velocity S-wave (km/s) = 8.53791 1.73095 6.16003
# Velocity P-wave (km/s) = 11.48669 6.45193 9.31588
#
# Compressibility (1/GPa) = 0.01607124
#
# Stress axis : x y z
#
# Youngs Moduli (GPa) = 115.80639 70.23693 94.25227
#
# Poissons Ratio (x) = 0.21102 0.28551
# Poissons Ratio (y) = 0.34792 0.25184
# Poissons Ratio (z) = 0.35080 0.18767
#
# Static dielectric constant tensor:
#      x y z
#    x 1.769860 0.000000 0.000000 
#    y 0.000000 1.574730 0.000000 
#    z 0.000000 0.000000 1.629720 
# 
# From -- ./inp_files/36705.got.cif
#   From: 2010.05.17/outbox.cif.g08.bks.cpg/sg21_19_cif.got.tgz:36705.got - 2010.06.03 23:14:55.
