data_PCOD9323856
_publ_section_title
;
Structure prediction by ZEFSAII (Michael W. Deem and Ramdas Pophale) SiO2 
 PCOD9323856
Probable space group: C 2 2 2
;
_chemical_formula_sum "Si O2"
_cell_formula_units_Z 56
_cell_length_a 14.534680
_cell_length_b 22.942298
_cell_length_c 8.938287
_cell_angle_alpha 90.000000
_cell_angle_beta 90.000000
_cell_angle_gamma 90.000000
_cell_volume 2980.551886
_symmetry_space_group_name_H-M "C 2 2 2"
_symmetry_group_IT_number 21
_symmetry_cell_setting 'orthorhombic'
loop_
_space_group_symop_operation_xyz
x,y,z
-x,-y,z
x,-y,-z
-x,y,-z
1/2+x,1/2+y,z
1/2-x,1/2-y,z
1/2+x,1/2-y,-z
1/2-x,1/2+y,-z
loop_
_atom_site_type_symbol
_atom_site_label
_atom_site_fract_x
_atom_site_fract_y
_atom_site_fract_z
Si Si1 0.284519 0.392154 0.821087
Si Si2 0.608116 0.274331 0.174696
Si Si3 0.893679 0.349911 0.678008
Si Si4 0.715481 0.607846 0.178913
Si Si5 0.606321 0.150089 0.321992
Si Si6 0.108116 0.225669 0.174696
Si Si7 0.391979 0.500000 0.320610
O O1 0.331727 0.330014 0.783458
O O2 0.180787 0.389449 0.760654
O O3 0.342219 0.443426 0.746082
O O4 0.286190 0.398441 0.000000
O O5 0.624161 0.216854 0.271644
O O6 0.500000 0.289681 0.186692
O O7 0.626836 0.259837 0.000000
O O8 0.819213 0.389449 0.760654
O O9 0.883705 0.355130 0.500000
O O10 0.875839 0.283146 0.728356
O O11 0.000000 0.362794 0.718195
O O12 0.668273 0.669986 0.216542
O O13 0.657780 0.556574 0.253918
O O14 0.500000 0.500000 0.280748
O O15 0.384346 0.500000 0.500000
#
# Coordination Sequence:
#
# PCOD9323856 Si02
#       7
#     8   8   8   8   8   8   8
#     4  11  22  37  59  84 112 149 191 234 279 329
#     4   9  18  33  54  82 115 149 185 227 278 335
#     4  10  21  36  55  82 116 151 187 231 282 334
#     4  11  22  37  59  84 112 149 191 234 279 329
#     4  10  21  36  55  82 116 151 187 231 282 334
#     4   9  18  33  54  82 115 149 185 227 278 335
#     4  11  25  43  62  85 114 147 183 226 276 331
#
# _framework density 18.788467000000001
#
# number of rings (size 3 to 8) (size 9 to 14) (size 15 to 20)
#    0.000    1.857    0.000    3.857    0.000    9.714 
#    0.000    3.571    0.000    4.286    0.000    0.000 
#    0.000    0.000    0.000    0.000    0.000    0.000 
#
# Total GULP energy -156488.424396 kJ/mol
# GULP energy per Si atom -5588.872300 kJ/mol
# Density = 1.874570 g / cm^3
# Si number density = 18.788467 Si / 1000 Ang^3
#
#
#
# Elastic Constant Matrix: (Units=GPa)
#
#
# Indices 1 2 3 4 5 6 
#
# 1 158.3894 84.2184 70.6706 0.0000 0.0000 0.0000
# 2 84.2184 62.6308 43.8332 0.0000 0.0000 0.0000
# 3 70.6706 43.8332 58.2779 0.0000 0.0000 0.0000
# 4 0.0000 0.0000 0.0000 36.6153 0.0000 0.0000
# 5 0.0000 0.0000 0.0000 0.0000 27.1351 0.0000
# 6 0.0000 0.0000 0.0000 0.0000 0.0000 33.6451
#
#
#
# Elastic Compliance Matrix: (Units=1/GPa)
#
#
# Indices 1 2 3 4 5 6 
#
# 1 0.024901 -0.026078 -0.010582 0.000000 0.000000 0.000000
# 2 -0.026078 0.061024 -0.014275 0.000000 0.000000 0.000000
# 3 -0.010582 -0.014275 0.040728 0.000000 0.000000 0.000000
# 4 0.000000 0.000000 0.000000 0.027311 0.000000 0.000000
# 5 0.000000 0.000000 0.000000 0.000000 0.036853 0.000000
# 6 0.000000 0.000000 0.000000 0.000000 0.000000 0.029722
#
#
# Mechanical properties :
#
#
# Convention : Reuss Voigt Hill
#
# Bulk Modulus (GPa) = 40.34992 75.19361 57.77177
# Shear Modulus (GPa) = 15.12077 24.85081 19.98579
#
# Velocity S-wave (km/s) = 2.83996 3.64079 3.26502
# Velocity P-wave (km/s) = 5.68123 7.60144 6.71037
#
# Compressibility (1/GPa) = 0.02478319
#
# Stress axis : x y z
#
# Youngs Moduli (GPa) = 40.15835 16.38694 24.55307
#
# Poissons Ratio (x) = 0.42735 0.25982
# Poissons Ratio (y) = 1.04727 0.35049
# Poissons Ratio (z) = 0.42496 0.23392
#
# Static dielectric constant tensor:
#      x y z
#    x 1.664490 0.000000 0.000000 
#    y 0.000000 1.615400 0.000000 
#    z 0.000000 0.000000 1.625610 
# 
# From -- ./inp_files/15269.got.cif
#   From: 2010.05.17/outbox.cif.g08.bks.cpg/sg21_8_cif.got.tgz:15269.got - 2010.06.03 23:14:55.
