data_PCOD9323534
_publ_section_title
;
Structure prediction by ZEFSAII (Michael W. Deem and Ramdas Pophale) SiO2 
 PCOD9323534
Probable space group: C 2 2 2
;
_chemical_formula_sum "Si O2"
_cell_formula_units_Z 64
_cell_length_a 15.564463
_cell_length_b 8.959225
_cell_length_c 24.547525
_cell_angle_alpha 90.000000
_cell_angle_beta 90.000000
_cell_angle_gamma 90.000000
_cell_volume 3423.042536
_symmetry_space_group_name_H-M "C 2 2 2"
_symmetry_group_IT_number 21
_symmetry_cell_setting 'orthorhombic'
loop_
_space_group_symop_operation_xyz
x,y,z
-x,-y,z
x,-y,-z
-x,y,-z
1/2+x,1/2+y,z
1/2-x,1/2-y,z
1/2+x,1/2-y,-z
1/2-x,1/2+y,-z
loop_
_atom_site_type_symbol
_atom_site_label
_atom_site_fract_x
_atom_site_fract_y
_atom_site_fract_z
Si Si1 0.500000 0.320144 0.917327
Si Si2 0.500000 0.819870 0.201650
Si Si3 0.343399 0.676723 0.500000
Si Si4 0.837427 0.319966 0.274504
Si Si5 0.337427 0.180034 0.274504
Si Si6 0.600266 0.171189 0.390861
Si Si7 0.847184 0.180643 0.000000
Si Si8 0.600266 0.828811 0.390861
O O1 0.500000 0.500000 0.915325
O O2 0.500000 0.251270 0.857666
O O3 0.588442 0.278450 0.949560
O O4 0.411558 0.278450 0.949560
O O5 0.416775 0.776276 0.236697
O O6 0.583225 0.776276 0.236697
O O7 0.500000 0.000000 0.196829
O O8 0.338483 0.500000 0.500000
O O9 0.250000 0.750000 0.500000
O O10 0.387830 0.733979 0.445003
O O11 0.387830 0.733980 0.554997
O O12 0.750000 0.250000 0.253624
O O13 0.833521 0.500000 0.275486
O O14 0.852152 0.271121 0.337177
O O15 0.250000 0.250000 0.253624
O O16 0.352152 0.228879 0.337177
O O17 0.500000 0.166072 0.376259
O O18 0.628279 0.000000 0.402309
O O19 0.750000 0.250000 0.000000
O O20 0.837350 0.000000 0.000000
#
# Coordination Sequence:
#
# PCOD9323534 Si02
#       8
#     8   8   8   8   8   8   8   8
#     4   9  20  38  58  84 119 157 193 236 286 333
#     4  10  21  39  59  83 117 154 194 238 283 336
#     4  12  25  38  53  79 111 141 181 235 288 347
#     4  10  21  38  59  83 112 149 191 236 285 341
#     4  10  21  38  59  83 112 149 191 236 285 341
#     4  10  20  38  61  81 107 145 184 227 287 352
#     4   9  19  37  60  86 120 157 195 237 282 332
#     4  10  20  38  61  81 107 145 184 227 287 352
#
# _framework density 18.696816999999999
#
# number of rings (size 3 to 8) (size 9 to 14) (size 15 to 20)
#    0.000    2.000    1.250    3.000    0.000    8.000 
#    0.000    6.250    0.000    0.000    0.000    0.000 
#    0.000    0.000    0.000    0.000    0.000    0.000 
#
# Total GULP energy -178551.703617 kJ/mol
# GULP energy per Si atom -5579.740738 kJ/mol
# Density = 1.865426 g / cm^3
# Si number density = 18.696817 Si / 1000 Ang^3
#
#
#
# Elastic Constant Matrix: (Units=GPa)
#
#
# Indices 1 2 3 4 5 6 
#
# 1 162.3149 34.5662 74.2473 0.0000 0.0000 0.0000
# 2 34.5662 40.6047 43.6476 0.0000 0.0000 0.0000
# 3 74.2473 43.6476 146.3471 0.0000 0.0000 0.0000
# 4 0.0000 0.0000 0.0000 25.9290 0.0000 0.0000
# 5 0.0000 0.0000 0.0000 0.0000 -126.2343 0.0000
# 6 0.0000 0.0000 0.0000 0.0000 0.0000 32.9717
#
#
#
# Elastic Compliance Matrix: (Units=1/GPa)
#
#
# Indices 1 2 3 4 5 6 
#
# 1 0.008400 -0.003782 -0.003133 0.000000 0.000000 0.000000
# 2 -0.003782 0.037952 -0.009400 0.000000 0.000000 0.000000
# 3 -0.003133 -0.009400 0.011226 0.000000 0.000000 0.000000
# 4 0.000000 0.000000 0.000000 0.038567 0.000000 0.000000
# 5 0.000000 0.000000 0.000000 0.000000 -0.007922 0.000000
# 6 0.000000 0.000000 0.000000 0.000000 0.000000 0.030329
#
#
# Mechanical properties :
#
#
# Convention : Reuss Voigt Hill
#
# Bulk Modulus (GPa) = 40.08601 72.68764 56.38682
# Shear Modulus (GPa) = 31.34804 -0.34634 15.50085
#
# Velocity S-wave (km/s) = 4.09914 -0.43086 2.88247
# Velocity P-wave (km/s) = 6.62499 6.22205 6.42668
#
# Compressibility (1/GPa) = 0.02494636
#
# Stress axis : x y z
#
# Youngs Moduli (GPa) = 119.05289 26.34894 89.07610
#
# Poissons Ratio (x) = 0.09966 0.27911
# Poissons Ratio (y) = 0.45029 0.83734
# Poissons Ratio (z) = 0.37304 0.24769
#
# Static dielectric constant tensor:
#      x y z
#    x 1.665420 0.000000 0.000000 
#    y 0.000000 1.632720 0.000000 
#    z 0.000000 0.000000 1.666640 
# 
# From -- ./inp_files/38766.got.cif
#   From: 2010.05.17/outbox.cif.g08.bks.cpg/sg21_20_cif.got.tgz:38766.got - 2010.06.03 23:14:55.
