data_PCOD9323390
_publ_section_title
;
Structure prediction by ZEFSAII (Michael W. Deem and Ramdas Pophale) SiO2 
 PCOD9323390
Probable space group: C 2 2 2
;
_chemical_formula_sum "Si O2"
_cell_formula_units_Z 26
_cell_length_a 16.239736
_cell_length_b 8.711865
_cell_length_c 9.725647
_cell_angle_alpha 90.000000
_cell_angle_beta 90.000000
_cell_angle_gamma 90.000000
_cell_volume 1375.968857
_symmetry_space_group_name_H-M "C 2 2 2"
_symmetry_group_IT_number 21
_symmetry_cell_setting 'orthorhombic'
loop_
_space_group_symop_operation_xyz
x,y,z
-x,-y,z
x,-y,-z
-x,y,-z
1/2+x,1/2+y,z
1/2-x,1/2-y,z
1/2+x,1/2-y,-z
1/2-x,1/2+y,-z
loop_
_atom_site_type_symbol
_atom_site_label
_atom_site_fract_x
_atom_site_fract_y
_atom_site_fract_z
Si Si1 0.244408 0.067225 0.345595
Si Si2 0.413968 0.060903 0.657503
Si Si3 0.078620 0.091018 0.735305
Si Si4 0.000000 0.000000 0.000000
O O1 0.250000 0.250000 0.350353
O O2 0.239742 0.000000 0.500000
O O3 0.329039 0.003124 0.280637
O O4 0.161370 0.007030 0.276158
O O5 0.412128 0.244321 0.665695
O O6 0.500000 0.000000 0.719027
O O7 0.413577 0.000000 0.500000
O O8 0.053946 0.102091 0.896157
O O9 0.000000 0.000000 0.673828
#
# Coordination Sequence:
#
# PCOD9323390 Si02
#       4
#     8   8   8   2
#     4  11  21  35  59  96 128 157 196 253 320 375
#     4  10  20  36  60  96 129 154 196 250 319 376
#     4  10  21  41  63  82 128 164 208 254 294 357
#     4   8  24  44  64  80 122 168 230 238 288 356
#
# _framework density 18.895776000000001
#
# number of rings (size 3 to 8) (size 9 to 14) (size 15 to 20)
#    0.923    0.923    0.000    6.462    0.000    3.077 
#    0.000    3.846    0.000    0.000    0.000    0.000 
#    0.000    0.000    0.000    0.000    0.000    0.000 
#
# Total GULP energy -72441.350472 kJ/mol
# GULP energy per Si atom -5572.411575 kJ/mol
# Density = 1.885277 g / cm^3
# Si number density = 18.895776 Si / 1000 Ang^3
#
#
#
# Elastic Constant Matrix: (Units=GPa)
#
#
# Indices 1 2 3 4 5 6 
#
# 1 207.7513 83.4092 23.0014 0.0000 0.0000 0.0000
# 2 83.4092 204.6360 30.3513 0.0000 0.0000 0.0000
# 3 23.0014 30.3513 61.1207 0.0000 0.0000 0.0000
# 4 0.0000 0.0000 0.0000 8.0879 0.0000 0.0000
# 5 0.0000 0.0000 0.0000 0.0000 100.8724 0.0000
# 6 0.0000 0.0000 0.0000 0.0000 0.0000 54.9522
#
#
#
# Elastic Compliance Matrix: (Units=1/GPa)
#
#
# Indices 1 2 3 4 5 6 
#
# 1 0.005822 -0.002211 -0.001093 0.000000 0.000000 0.000000
# 2 -0.002211 0.006115 -0.002204 0.000000 0.000000 0.000000
# 3 -0.001093 -0.002204 0.017867 0.000000 0.000000 0.000000
# 4 0.000000 0.000000 0.000000 0.123642 0.000000 0.000000
# 5 0.000000 0.000000 0.000000 0.000000 0.009914 0.000000
# 6 0.000000 0.000000 0.000000 0.000000 0.000000 0.018198
#
#
# Mechanical properties :
#
#
# Convention : Reuss Voigt Hill
#
# Bulk Modulus (GPa) = 53.22814 83.00352 68.11583
# Shear Modulus (GPa) = 25.14628 55.23223 40.18926
#
# Velocity S-wave (km/s) = 3.65195 5.41234 4.61683
# Velocity P-wave (km/s) = 6.78328 9.11484 8.03409
#
# Compressibility (1/GPa) = 0.01878706
#
# Stress axis : x y z
#
# Youngs Moduli (GPa) = 171.75807 163.53562 55.96863
#
# Poissons Ratio (x) = 0.36157 0.06118
# Poissons Ratio (y) = 0.37975 0.12338
# Poissons Ratio (z) = 0.18775 0.36051
#
# Static dielectric constant tensor:
#      x y z
#    x 1.728880 0.000000 0.000000 
#    y 0.000000 1.619150 0.000000 
#    z 0.000000 0.000000 1.656960 
# 
# From -- ./inp_files/21725.got.cif
#   From: 2010.05.17/outbox.cif.g08.bks.cpg/sg21_11_cif.got.tgz:21725.got - 2010.06.03 23:14:55.
