data_PCOD9323255
_publ_section_title
;
Structure prediction by ZEFSAII (Michael W. Deem and Ramdas Pophale) SiO2 
 PCOD9323255
Probable space group: C 2 2 2
;
_chemical_formula_sum "Si O2"
_cell_formula_units_Z 24
_cell_length_a 14.745169
_cell_length_b 4.845178
_cell_length_c 14.499808
_cell_angle_alpha 90.000000
_cell_angle_beta 90.000000
_cell_angle_gamma 90.000000
_cell_volume 1035.909325
_symmetry_space_group_name_H-M "C 2 2 2"
_symmetry_group_IT_number 21
_symmetry_cell_setting 'orthorhombic'
loop_
_space_group_symop_operation_xyz
x,y,z
-x,-y,z
x,-y,-z
-x,y,-z
1/2+x,1/2+y,z
1/2-x,1/2-y,z
1/2+x,1/2-y,-z
1/2-x,1/2+y,-z
loop_
_atom_site_type_symbol
_atom_site_label
_atom_site_fract_x
_atom_site_fract_y
_atom_site_fract_z
Si Si1 0.316925 0.500000 0.000000
Si Si2 0.585488 0.829316 0.303556
Si Si3 0.250000 0.750000 0.563156
Si Si4 0.142136 0.196452 0.806538
O O1 0.250000 0.250000 0.027068
O O2 0.370821 0.588874 0.090419
O O3 0.668834 0.861052 0.373671
O O4 0.597762 0.513647 0.267769
O O5 0.500000 0.000000 0.345191
O O6 0.601658 0.005181 0.211166
O O7 0.284029 0.500000 0.500000
O O8 0.250000 0.250000 0.792947
#
# Coordination Sequence:
#
# PCOD9323255 Si02
#       4
#     4   8   4   8
#     4  10  20  34  63 104 133 186 244 284 333 412
#     4  12  25  44  70 104 138 183 231 295 363 438
#     4  12  26  48  76 100 134 184 236 302 376 446
#     4  11  20  41  67  98 143 188 237 284 349 418
#
# _framework density 23.168049
#
# number of rings (size 3 to 8) (size 9 to 14) (size 15 to 20)
#    0.000    0.667    3.333    7.000    0.000    0.667 
#    0.000    6.667    0.000    0.000    0.000    0.000 
#    0.000    0.000    0.000    0.000    0.000    0.000 
#
# Total GULP energy -66967.722159 kJ/mol
# GULP energy per Si atom -5580.643513 kJ/mol
# Density = 2.311532 g / cm^3
# Si number density = 23.168049 Si / 1000 Ang^3
#
#
#
# Elastic Constant Matrix: (Units=GPa)
#
#
# Indices 1 2 3 4 5 6 
#
# 1 147.1532 7.0196 34.8962 0.0000 0.0000 0.0000
# 2 7.0196 116.6068 19.3682 0.0000 0.0000 0.0000
# 3 34.8962 19.3682 98.4185 0.0000 0.0000 0.0000
# 4 0.0000 0.0000 0.0000 28.4296 0.0000 0.0000
# 5 0.0000 0.0000 0.0000 0.0000 -8.3597 0.0000
# 6 0.0000 0.0000 0.0000 0.0000 0.0000 34.7618
#
#
#
# Elastic Compliance Matrix: (Units=1/GPa)
#
#
# Indices 1 2 3 4 5 6 
#
# 1 0.007420 -0.000010 -0.002629 0.000000 0.000000 0.000000
# 2 -0.000010 0.008866 -0.001741 0.000000 0.000000 0.000000
# 3 -0.002629 -0.001741 0.011435 0.000000 0.000000 0.000000
# 4 0.000000 0.000000 0.000000 0.035175 0.000000 0.000000
# 5 0.000000 0.000000 0.000000 0.000000 -0.119622 0.000000
# 6 0.000000 0.000000 0.000000 0.000000 0.000000 0.028767
#
#
# Mechanical properties :
#
#
# Convention : Reuss Voigt Hill
#
# Bulk Modulus (GPa) = 52.74068 53.86073 53.30070
# Shear Modulus (GPa) = -388.21750 31.02597 -178.59576
#
# Velocity S-wave (km/s) = -12.95877 3.66344 -8.78945
# Velocity P-wave (km/s) = 14.18071 6.41815 8.94147
#
# Compressibility (1/GPa) = 0.01896070
#
# Stress axis : x y z
#
# Youngs Moduli (GPa) = 134.77982 112.79508 87.44757
#
# Poissons Ratio (x) = 0.00113 0.22988
# Poissons Ratio (y) = 0.00135 0.15226
# Poissons Ratio (z) = 0.35430 0.19639
#
# Static dielectric constant tensor:
#      x y z
#    x 1.975670 0.000000 0.000000 
#    y 0.000000 2.207840 0.000000 
#    z 0.000000 0.000000 1.847090 
# 
# From -- ./inp_files/31878.got.cif
#   From: 2010.05.17/outbox.cif.g08.bks.cpg/sg21_16_cif.got.tgz:31878.got - 2010.06.03 23:14:55.
