data_PCOD9323155
_publ_section_title
;
Structure prediction by ZEFSAII (Michael W. Deem and Ramdas Pophale) SiO2 
 PCOD9323155
Probable space group: C 2 2 2
;
_chemical_formula_sum "Si O2"
_cell_formula_units_Z 44
_cell_length_a 14.194926
_cell_length_b 30.850752
_cell_length_c 4.984518
_cell_angle_alpha 90.000000
_cell_angle_beta 90.000000
_cell_angle_gamma 90.000000
_cell_volume 2182.840767
_symmetry_space_group_name_H-M "C 2 2 2"
_symmetry_group_IT_number 21
_symmetry_cell_setting 'orthorhombic'
loop_
_space_group_symop_operation_xyz
x,y,z
-x,-y,z
x,-y,-z
-x,y,-z
1/2+x,1/2+y,z
1/2-x,1/2-y,z
1/2+x,1/2-y,-z
1/2-x,1/2+y,-z
loop_
_atom_site_type_symbol
_atom_site_label
_atom_site_fract_x
_atom_site_fract_y
_atom_site_fract_z
Si Si1 0.223251 0.452677 0.092082
Si Si2 0.250000 0.750000 0.548581
Si Si3 0.683301 0.368456 0.808522
Si Si4 0.605131 0.923211 0.592697
Si Si5 0.791588 0.340560 0.305486
Si Si6 0.062064 0.790861 0.766993
O O1 0.308670 0.418126 0.102416
O O2 0.174262 0.446313 0.379875
O O3 0.253516 0.500000 0.000000
O O4 0.141552 0.439140 0.880720
O O5 0.210671 0.709767 0.375826
O O6 0.161008 0.767122 0.715860
O O7 0.709952 0.361416 0.496645
O O8 0.592265 0.339433 0.853967
O O9 0.765237 0.347395 0.995881
O O10 0.500000 0.933025 0.500000
O O11 0.621555 0.871021 0.608690
O O12 0.000000 0.791669 0.500000
O O13 0.000000 0.770234 0.000000
#
# Coordination Sequence:
#
# PCOD9323155 Si02
#       6
#     8   4   8   8   8   8
#     4  10  20  34  55  78 102 145 191 228 285 342
#     4  10  22  40  60  86 120 148 196 250 278 330
#     4   9  19  37  54  76 108 139 180 227 270 330
#     4  10  20  33  48  76 114 146 182 231 285 342
#     4   9  19  34  54  73 105 151 182 220 278 324
#     4  11  23  38  60  88 115 153 193 231 290 346
#
# _framework density 20.157216999999999
#
# number of rings (size 3 to 8) (size 9 to 14) (size 15 to 20)
#    0.000    2.182    0.000    3.273    0.000    9.455 
#    0.000    5.455    0.000    0.545    0.000    6.364 
#    0.000    0.000    0.000    0.000    0.000    0.000 
#
# Total GULP energy -122629.080458 kJ/mol
# GULP energy per Si atom -5574.049112 kJ/mol
# Density = 2.011134 g / cm^3
# Si number density = 20.157217 Si / 1000 Ang^3
#
#
#
# Elastic Constant Matrix: (Units=GPa)
#
#
# Indices 1 2 3 4 5 6 
#
# 1 80.5110 22.1978 14.1434 0.0000 0.0000 0.0000
# 2 22.1978 137.6080 2.1500 0.0000 0.0000 0.0000
# 3 14.1434 2.1500 68.8796 0.0000 0.0000 0.0000
# 4 0.0000 0.0000 0.0000 17.5450 0.0000 0.0000
# 5 0.0000 0.0000 0.0000 0.0000 16.7504 0.0000
# 6 0.0000 0.0000 0.0000 0.0000 0.0000 11.0445
#
#
#
# Elastic Compliance Matrix: (Units=1/GPa)
#
#
# Indices 1 2 3 4 5 6 
#
# 1 0.013483 -0.002133 -0.002702 0.000000 0.000000 0.000000
# 2 -0.002133 0.007608 0.000200 0.000000 0.000000 0.000000
# 3 -0.002702 0.000200 0.015067 0.000000 0.000000 0.000000
# 4 0.000000 0.000000 0.000000 0.056996 0.000000 0.000000
# 5 0.000000 0.000000 0.000000 0.000000 0.059700 0.000000
# 6 0.000000 0.000000 0.000000 0.000000 0.000000 0.090542
#
#
# Mechanical properties :
#
#
# Convention : Reuss Voigt Hill
#
# Bulk Modulus (GPa) = 37.18964 40.44233 38.81598
# Shear Modulus (GPa) = 19.11105 25.63515 22.37310
#
# Velocity S-wave (km/s) = 3.08246 3.57004 3.33518
# Velocity P-wave (km/s) = 5.58199 6.09103 5.84206
#
# Compressibility (1/GPa) = 0.02688921
#
# Stress axis : x y z
#
# Youngs Moduli (GPa) = 74.16546 131.44173 66.37178
#
# Poissons Ratio (x) = 0.28034 0.17934
# Poissons Ratio (y) = 0.15818 -0.01331
# Poissons Ratio (z) = 0.20040 -0.02635
#
# Static dielectric constant tensor:
#      x y z
#    x 1.686830 0.000000 0.000000 
#    y 0.000000 1.786960 0.000000 
#    z 0.000000 0.000000 1.719270 
# 
# From -- ./inp_files/4021.got.cif
#   From: 2010.05.17/outbox.cif.g08.bks.cpg/sg21_3_cif.got.tgz:4021.got - 2010.06.03 23:14:55.
