data_PCOD9323131
_publ_section_title
;
Structure prediction by ZEFSAII (Michael W. Deem and Ramdas Pophale) SiO2 
 PCOD9323131
Probable space group: C 2 2 2
;
_chemical_formula_sum "Si O2"
_cell_formula_units_Z 52
_cell_length_a 26.976835
_cell_length_b 9.188338
_cell_length_c 11.360181
_cell_angle_alpha 90.000000
_cell_angle_beta 90.000000
_cell_angle_gamma 90.000000
_cell_volume 2815.873945
_symmetry_space_group_name_H-M "C 2 2 2"
_symmetry_group_IT_number 21
_symmetry_cell_setting 'orthorhombic'
loop_
_space_group_symop_operation_xyz
x,y,z
-x,-y,z
x,-y,-z
-x,y,-z
1/2+x,1/2+y,z
1/2-x,1/2-y,z
1/2+x,1/2-y,-z
1/2-x,1/2+y,-z
loop_
_atom_site_type_symbol
_atom_site_label
_atom_site_fract_x
_atom_site_fract_y
_atom_site_fract_z
Si Si1 0.362256 0.272158 0.814302
Si Si2 0.698659 0.331707 0.969481
Si Si3 0.163072 0.719124 0.533023
Si Si4 0.693240 0.441416 0.721935
Si Si5 0.063487 0.749578 0.381536
Si Si6 0.196844 0.454357 0.673636
Si Si7 0.000000 0.000000 0.500000
Si Si8 0.000000 0.500000 0.500000
O O1 0.339068 0.417280 0.753644
O O2 0.415718 0.254535 0.752260
O O3 0.330438 0.133270 0.774652
O O4 0.348810 0.287636 0.951788
O O5 0.750000 0.250000 0.998012
O O6 0.688451 0.328958 0.830497
O O7 0.708091 0.500000 0.000000
O O8 0.178106 0.862500 0.602309
O O9 0.111963 0.741023 0.464926
O O10 0.163149 0.585996 0.625443
O O11 0.200874 0.659798 0.434389
O O12 0.750183 0.488065 0.711636
O O13 0.032028 0.607409 0.417087
O O14 0.033035 0.892874 0.419081
#
# Coordination Sequence:
#
# PCOD9323131 Si02
#       8
#     8   8   8   8   8   8   2   2
#     4  10  20  34  52  74 105 139 181 226 257 303
#     4  10  20  34  51  73 106 150 192 219 244 285
#     4  10  21  33  49  76 110 140 176 217 260 311
#     4  11  21  33  49  75 113 152 187 216 245 294
#     4  10  20  35  54  81 103 130 169 215 280 340
#     4  10  20  32  48  72 107 151 183 209 248 295
#     4  10  20  34  56  78 104 130 164 222 296 356
#     4  10  20  38  60  78 104 130 160 218 288 360
#
# _framework density 18.466733999999999
#
# number of rings (size 3 to 8) (size 9 to 14) (size 15 to 20)
#    0.000    1.846    0.000    6.462    0.000   10.462 
#    0.000    0.000    0.000    0.000    0.000   24.231 
#    0.000    0.000    0.000    0.000    0.000    0.000 
#
# Total GULP energy -145089.246465 kJ/mol
# GULP energy per Si atom -5580.355633 kJ/mol
# Density = 1.842470 g / cm^3
# Si number density = 18.466734 Si / 1000 Ang^3
#
#
#
# Elastic Constant Matrix: (Units=GPa)
#
#
# Indices 1 2 3 4 5 6 
#
# 1 85.5928 37.5636 43.8946 0.0000 0.0000 0.0000
# 2 37.5636 67.7830 28.2234 0.0000 0.0000 0.0000
# 3 43.8946 28.2234 92.0716 0.0000 0.0000 0.0000
# 4 0.0000 0.0000 0.0000 26.6684 0.0000 0.0000
# 5 0.0000 0.0000 0.0000 0.0000 -3.7401 0.0000
# 6 0.0000 0.0000 0.0000 0.0000 0.0000 28.8601
#
#
#
# Elastic Compliance Matrix: (Units=1/GPa)
#
#
# Indices 1 2 3 4 5 6 
#
# 1 0.018236 -0.007435 -0.006415 0.000000 0.000000 0.000000
# 2 -0.007435 0.019943 -0.002569 0.000000 0.000000 0.000000
# 3 -0.006415 -0.002569 0.014707 0.000000 0.000000 0.000000
# 4 0.000000 0.000000 0.000000 0.037498 0.000000 0.000000
# 5 0.000000 0.000000 0.000000 0.000000 -0.267372 0.000000
# 6 0.000000 0.000000 0.000000 0.000000 0.000000 0.034650
#
#
# Mechanical properties :
#
#
# Convention : Reuss Voigt Hill
#
# Bulk Modulus (GPa) = 49.87865 51.64565 50.76215
# Shear Modulus (GPa) = -48.62877 19.40873 -14.61002
#
# Velocity S-wave (km/s) = -5.13715 3.24545 -2.81580
# Velocity P-wave (km/s) = 2.84929 6.48625 4.12025
#
# Compressibility (1/GPa) = 0.02004866
#
# Stress axis : x y z
#
# Youngs Moduli (GPa) = 54.83720 50.14369 67.99622
#
# Poissons Ratio (x) = 0.37281 0.43618
# Poissons Ratio (y) = 0.40771 0.17466
# Poissons Ratio (z) = 0.35177 0.12880
#
# Static dielectric constant tensor:
#      x y z
#    x 1.618960 0.000000 0.000000 
#    y 0.000000 1.683770 0.000000 
#    z 0.000000 0.000000 1.699130 
# 
# From -- ./inp_files/27780.got.cif
#   From: 2010.05.17/outbox.cif.g08.bks.cpg/sg21_14_cif.got.tgz:27780.got - 2010.06.03 23:14:55.
