data_PCOD9323767
_publ_section_title
;
Structure prediction by ZEFSAII (Michael W. Deem and Ramdas Pophale) SiO2 
 PCOD9323767
Probable space group: C 2 2 2
;
_chemical_formula_sum "Si O2"
_cell_formula_units_Z 38
_cell_length_a 22.360410
_cell_length_b 13.656948
_cell_length_c 5.190811
_cell_angle_alpha 90.000000
_cell_angle_beta 90.000000
_cell_angle_gamma 90.000000
_cell_volume 1585.143684
_symmetry_space_group_name_H-M "C 2 2 2"
_symmetry_group_IT_number 21
_symmetry_cell_setting 'orthorhombic'
loop_
_space_group_symop_operation_xyz
x,y,z
-x,-y,z
x,-y,-z
-x,y,-z
1/2+x,1/2+y,z
1/2-x,1/2-y,z
1/2+x,1/2-y,-z
1/2-x,1/2+y,-z
loop_
_atom_site_type_symbol
_atom_site_label
_atom_site_fract_x
_atom_site_fract_y
_atom_site_fract_z
Si Si1 0.000000 0.500000 0.000000
Si Si2 0.304751 0.201548 0.575010
Si Si3 0.081877 0.670099 0.169062
Si Si4 0.886121 0.829708 0.248488
Si Si5 0.000000 0.181593 0.500000
Si Si6 0.228061 0.061921 0.236205
O O1 0.957294 0.426443 0.150338
O O2 0.250000 0.250000 0.730427
O O3 0.353953 0.138828 0.718074
O O4 0.346543 0.291073 0.486882
O O5 0.273587 0.145565 0.338073
O O6 0.040286 0.746645 0.325223
O O7 0.097217 0.732557 0.912911
O O8 0.835679 0.898165 0.126718
O O9 0.949360 0.874670 0.336270
O O10 0.217611 0.000000 0.500000
O O11 0.254080 0.000000 0.000000
#
# Coordination Sequence:
#
# PCOD9323767 Si02
#       6
#     2   8   8   8   4   8
#     4  12  24  42  64 112 144 188 246 302 358 444
#     4   9  23  43  68  99 136 190 238 293 369 444
#     4  11  23  42  69  99 143 186 238 296 360 446
#     4  10  22  43  72  96 137 194 233 298 371 448
#     4  10  20  43  67  92 128 186 234 286 363 433
#     4  11  27  46  70 106 145 186 247 310 360 432
#
# _framework density 23.972587999999998
#
# number of rings (size 3 to 8) (size 9 to 14) (size 15 to 20)
#    0.000    1.684    2.105    0.000   11.789    2.947 
#    0.000    0.526    0.000    0.000    0.000    0.000 
#    0.000    0.000    0.000    0.000    0.000    0.000 
#
# Total GULP energy -105954.417242 kJ/mol
# GULP energy per Si atom -5576.548276 kJ/mol
# Density = 2.391803 g / cm^3
# Si number density = 23.972588 Si / 1000 Ang^3
#
#
#
# Elastic Constant Matrix: (Units=GPa)
#
#
# Indices 1 2 3 4 5 6 
#
# 1 222.6509 31.2387 43.2899 0.0000 0.0000 0.0000
# 2 31.2387 49.8494 6.0942 0.0000 0.0000 0.0000
# 3 43.2899 6.0942 54.5204 0.0000 0.0000 0.0000
# 4 0.0000 0.0000 0.0000 18.7753 0.0000 0.0000
# 5 0.0000 0.0000 0.0000 0.0000 32.4422 0.0000
# 6 0.0000 0.0000 0.0000 0.0000 0.0000 46.3447
#
#
#
# Elastic Compliance Matrix: (Units=1/GPa)
#
#
# Indices 1 2 3 4 5 6 
#
# 1 0.005744 -0.003084 -0.004216 0.000000 0.000000 0.000000
# 2 -0.003084 0.021994 -0.000010 0.000000 0.000000 0.000000
# 3 -0.004216 -0.000010 0.021690 0.000000 0.000000 0.000000
# 4 0.000000 0.000000 0.000000 0.053262 0.000000 0.000000
# 5 0.000000 0.000000 0.000000 0.000000 0.030824 0.000000
# 6 0.000000 0.000000 0.000000 0.000000 0.000000 0.021577
#
#
# Mechanical properties :
#
#
# Convention : Reuss Voigt Hill
#
# Bulk Modulus (GPa) = 28.72818 54.25180 41.48999
# Shear Modulus (GPa) = 27.57656 35.93897 31.75777
#
# Velocity S-wave (km/s) = 3.39534 3.87611 3.64366
# Velocity P-wave (km/s) = 5.23268 6.53546 5.92001
#
# Compressibility (1/GPa) = 0.03480903
#
# Stress axis : x y z
#
# Youngs Moduli (GPa) = 174.10337 45.46654 46.10360
#
# Poissons Ratio (x) = 0.14022 0.19437
# Poissons Ratio (y) = 0.53693 0.00045
# Poissons Ratio (z) = 0.73400 0.00044
#
# Static dielectric constant tensor:
#      x y z
#    x 2.055950 0.000000 0.000000 
#    y 0.000000 2.133030 0.000000 
#    z 0.000000 0.000000 2.090670 
# 
# From -- ./inp_files/6630.got.cif
#   From: 2010.05.17/outbox.cif.g08.bks.cpg/sg21_4_cif.got.tgz:6630.got - 2010.06.03 23:14:55.
