data_PCOD9323515
_publ_section_title
;
Structure prediction by ZEFSAII (Michael W. Deem and Ramdas Pophale) SiO2 
 PCOD9323515
Probable space group: C 2 2 2
;
_chemical_formula_sum "Si O2"
_cell_formula_units_Z 40
_cell_length_a 19.608340
_cell_length_b 10.368260
_cell_length_c 10.171913
_cell_angle_alpha 90.000000
_cell_angle_beta 90.000000
_cell_angle_gamma 90.000000
_cell_volume 2067.994337
_symmetry_space_group_name_H-M "C 2 2 2"
_symmetry_group_IT_number 21
_symmetry_cell_setting 'orthorhombic'
loop_
_space_group_symop_operation_xyz
x,y,z
-x,-y,z
x,-y,-z
-x,y,-z
1/2+x,1/2+y,z
1/2-x,1/2-y,z
1/2+x,1/2-y,-z
1/2-x,1/2+y,-z
loop_
_atom_site_type_symbol
_atom_site_label
_atom_site_fract_x
_atom_site_fract_y
_atom_site_fract_z
Si Si1 0.000000 0.500000 0.000000
Si Si2 0.651203 0.148364 0.648994
Si Si3 0.250000 0.750000 0.857383
Si Si4 0.000000 0.000000 0.500000
Si Si5 0.776303 0.500000 0.000000
Si Si6 0.614519 0.319168 0.403769
Si Si7 0.891346 0.590343 0.800261
Si Si8 0.730082 0.500000 0.500000
O O1 0.047471 0.415528 0.904343
O O2 0.682314 0.226899 0.770512
O O3 0.616890 0.235920 0.538757
O O4 0.719226 0.086622 0.585121
O O5 0.604574 0.031503 0.700329
O O6 0.262396 0.621430 0.940884
O O7 0.950891 0.910784 0.587695
O O8 0.824144 0.559196 0.885558
O O9 0.614115 0.220042 0.283538
O O10 0.681474 0.409774 0.412070
#
# Coordination Sequence:
#
# PCOD9323515 Si02
#       8
#     2   8   4   2   4   8   8   4
#     4  10  24  44  58  90 112 184 234 272 290 370
#     4  11  20  36  65  98 123 162 206 276 344 385
#     4  10  20  38  58  88 138 160 210 262 312 408
#     4  10  28  40  54  94 128 166 212 252 350 386
#     4   9  22  39  58  94 122 177 209 254 318 381
#     4  11  22  40  61  94 132 166 204 275 338 402
#     4  10  22  39  64  87 123 165 229 268 315 382
#     4  11  20  35  60 107 132 159 198 256 372 397
#
# _framework density 19.342411999999999
#
# number of rings (size 3 to 8) (size 9 to 14) (size 15 to 20)
#    0.000    1.600    4.000    0.000    2.800    3.200 
#    0.000    0.000    0.000    3.000    0.000    0.000 
#    0.000    0.000    0.000    0.000    0.000    0.000 
#
# Total GULP energy -111708.370460 kJ/mol
# GULP energy per Si atom -5585.418523 kJ/mol
# Density = 1.929839 g / cm^3
# Si number density = 19.342412 Si / 1000 Ang^3
#
#
#
# Elastic Constant Matrix: (Units=GPa)
#
#
# Indices 1 2 3 4 5 6 
#
# 1 72.2755 55.9585 36.7462 0.0000 0.0000 0.0000
# 2 55.9585 149.6363 76.3631 0.0000 0.0000 0.0000
# 3 36.7462 76.3631 85.0258 0.0000 0.0000 0.0000
# 4 0.0000 0.0000 0.0000 52.4310 0.0000 0.0000
# 5 0.0000 0.0000 0.0000 0.0000 14.2127 0.0000
# 6 0.0000 0.0000 0.0000 0.0000 0.0000 13.8029
#
#
#
# Elastic Compliance Matrix: (Units=1/GPa)
#
#
# Indices 1 2 3 4 5 6 
#
# 1 0.020043 -0.005677 -0.003564 0.000000 0.000000 0.000000
# 2 -0.005677 0.013945 -0.010071 0.000000 0.000000 0.000000
# 3 -0.003564 -0.010071 0.022346 0.000000 0.000000 0.000000
# 4 0.000000 0.000000 0.000000 0.019073 0.000000 0.000000
# 5 0.000000 0.000000 0.000000 0.000000 0.070359 0.000000
# 6 0.000000 0.000000 0.000000 0.000000 0.000000 0.072449
#
#
# Mechanical properties :
#
#
# Convention : Reuss Voigt Hill
#
# Bulk Modulus (GPa) = 56.46084 71.67479 64.06781
# Shear Modulus (GPa) = 19.03004 25.28066 22.15535
#
# Velocity S-wave (km/s) = 3.14004 3.61918 3.38809
# Velocity P-wave (km/s) = 6.51153 7.38924 6.96422
#
# Compressibility (1/GPa) = 0.01771139
#
# Stress axis : x y z
#
# Youngs Moduli (GPa) = 49.89297 71.70869 44.74981
#
# Poissons Ratio (x) = 0.40706 0.15948
# Poissons Ratio (y) = 0.28322 0.45069
# Poissons Ratio (z) = 0.17781 0.72219
#
# Static dielectric constant tensor:
#      x y z
#    x 1.673350 0.000000 0.000000 
#    y 0.000000 1.701980 0.000000 
#    z 0.000000 0.000000 1.737540 
# 
# From -- ./inp_files/26738.got.cif
#   From: 2010.05.17/outbox.cif.g08.bks.cpg/sg21_14_cif.got.tgz:26738.got - 2010.06.03 23:14:55.
