data_PCOD9323533
_publ_section_title
;
Structure prediction by ZEFSAII (Michael W. Deem and Ramdas Pophale) SiO2 
 PCOD9323533
Probable space group: C 2 2 2
;
_chemical_formula_sum "Si O2"
_cell_formula_units_Z 32
_cell_length_a 19.337976
_cell_length_b 7.704042
_cell_length_c 10.399192
_cell_angle_alpha 90.000000
_cell_angle_beta 90.000000
_cell_angle_gamma 90.000000
_cell_volume 1549.277648
_symmetry_space_group_name_H-M "C 2 2 2"
_symmetry_group_IT_number 21
_symmetry_cell_setting 'orthorhombic'
loop_
_space_group_symop_operation_xyz
x,y,z
-x,-y,z
x,-y,-z
-x,y,-z
1/2+x,1/2+y,z
1/2-x,1/2-y,z
1/2+x,1/2-y,-z
1/2-x,1/2+y,-z
loop_
_atom_site_type_symbol
_atom_site_label
_atom_site_fract_x
_atom_site_fract_y
_atom_site_fract_z
Si Si1 0.750000 0.750000 0.389324
Si Si2 0.170479 0.244937 0.896046
Si Si3 0.849632 0.118381 0.815036
Si Si4 0.360784 0.000000 0.500000
Si Si5 0.078321 0.467597 0.227580
O O1 0.788978 0.878000 0.290649
O O2 0.808646 0.658338 0.471951
O O3 0.250000 0.250000 0.850471
O O4 0.130837 0.420714 0.860526
O O5 0.130505 0.081299 0.833318
O O6 0.173924 0.193012 0.046344
O O7 0.905227 0.262476 0.774977
O O8 0.406040 0.027458 0.626781
O O9 0.000000 0.500000 0.188438
#
# Coordination Sequence:
#
# PCOD9323533 Si02
#       5
#     4   8   8   4   8
#     4  10  20  38  60  96 124 152 216 276 316 368
#     4  11  22  37  68  94 127 164 206 271 337 376
#     4  10  22  38  61  98 125 157 215 268 319 398
#     4  10  23  38  66  88 127 168 220 262 318 383
#     4  11  25  43  61  90 133 176 213 262 326 391
#
# _framework density 20.654786000000001
#
# number of rings (size 3 to 8) (size 9 to 14) (size 15 to 20)
#    0.000    1.500    1.250    4.125    8.750    3.000 
#    0.000    2.500    0.000    3.000    0.000    0.000 
#    0.000    0.000    0.000    0.000    0.000    0.000 
#
# Total GULP energy -89305.798999 kJ/mol
# GULP energy per Si atom -5581.612437 kJ/mol
# Density = 2.060777 g / cm^3
# Si number density = 20.654786 Si / 1000 Ang^3
#
#
#
# Elastic Constant Matrix: (Units=GPa)
#
#
# Indices 1 2 3 4 5 6 
#
# 1 100.8155 23.1298 3.5234 0.0000 0.0000 0.0000
# 2 23.1298 94.9870 19.0150 0.0000 0.0000 0.0000
# 3 3.5234 19.0150 64.4780 0.0000 0.0000 0.0000
# 4 0.0000 0.0000 0.0000 25.5458 0.0000 0.0000
# 5 0.0000 0.0000 0.0000 0.0000 31.3524 0.0000
# 6 0.0000 0.0000 0.0000 0.0000 0.0000 13.8427
#
#
#
# Elastic Compliance Matrix: (Units=1/GPa)
#
#
# Indices 1 2 3 4 5 6 
#
# 1 0.010508 -0.002597 0.000192 0.000000 0.000000 0.000000
# 2 -0.002597 0.011830 -0.003347 0.000000 0.000000 0.000000
# 3 0.000192 -0.003347 0.016486 0.000000 0.000000 0.000000
# 4 0.000000 0.000000 0.000000 0.039145 0.000000 0.000000
# 5 0.000000 0.000000 0.000000 0.000000 0.031895 0.000000
# 6 0.000000 0.000000 0.000000 0.000000 0.000000 0.072240
#
#
# Mechanical properties :
#
#
# Convention : Reuss Voigt Hill
#
# Bulk Modulus (GPa) = 36.60398 39.06854 37.83626
# Shear Modulus (GPa) = 24.66498 28.45567 26.56033
#
# Velocity S-wave (km/s) = 3.45940 3.71574 3.58986
# Velocity P-wave (km/s) = 5.80662 6.11269 5.96162
#
# Compressibility (1/GPa) = 0.02731943
#
# Stress axis : x y z
#
# Youngs Moduli (GPa) = 95.16314 84.52964 60.65861
#
# Poissons Ratio (x) = 0.21954 -0.01163
# Poissons Ratio (y) = 0.24716 0.20302
# Poissons Ratio (z) = -0.01824 0.28291
#
# Static dielectric constant tensor:
#      x y z
#    x 1.709740 0.000000 0.000000 
#    y 0.000000 1.733870 0.000000 
#    z 0.000000 0.000000 1.769150 
# 
# From -- ./inp_files/10503.got.cif
#   From: 2010.05.17/outbox.cif.g08.bks.cpg/sg21_6_cif.got.tgz:10503.got - 2010.06.03 23:14:55.
