data_PCOD9323082
_publ_section_title
;
Structure prediction by ZEFSAII (Michael W. Deem and Ramdas Pophale) SiO2 
 PCOD9323082
Probable space group: C 2 2 2
;
_chemical_formula_sum "Si O2"
_cell_formula_units_Z 64
_cell_length_a 27.249437
_cell_length_b 10.320860
_cell_length_c 11.745373
_cell_angle_alpha 90.000000
_cell_angle_beta 90.000000
_cell_angle_gamma 90.000000
_cell_volume 3303.240800
_symmetry_space_group_name_H-M "C 2 2 2"
_symmetry_group_IT_number 21
_symmetry_cell_setting 'orthorhombic'
loop_
_space_group_symop_operation_xyz
x,y,z
-x,-y,z
x,-y,-z
-x,y,-z
1/2+x,1/2+y,z
1/2-x,1/2-y,z
1/2+x,1/2-y,-z
1/2-x,1/2+y,-z
loop_
_atom_site_type_symbol
_atom_site_label
_atom_site_fract_x
_atom_site_fract_y
_atom_site_fract_z
Si Si1 0.777695 0.615319 0.593079
Si Si2 0.900163 0.597456 0.325789
Si Si3 0.198117 0.480049 0.196010
Si Si4 0.432895 0.617938 0.252709
Si Si5 0.701899 0.815386 0.988121
Si Si6 0.953296 0.171383 0.797223
Si Si7 0.609058 0.649765 0.987550
Si Si8 0.892654 0.325738 0.411941
O O1 0.773272 0.500000 0.500000
O O2 0.750000 0.750000 0.568941
O O3 0.765714 0.545473 0.712982
O O4 0.834535 0.656801 0.606673
O O5 0.846682 0.585936 0.265137
O O6 0.933467 0.695839 0.255755
O O7 0.916672 0.448195 0.345036
O O8 0.898291 0.654495 0.453395
O O9 0.220924 0.384029 0.103299
O O10 0.179983 0.590627 0.108769
O O11 0.429011 0.461199 0.253764
O O12 0.489439 0.652616 0.226924
O O13 0.403334 0.671279 0.144005
O O14 0.413683 0.692712 0.363241
O O15 0.750000 0.750000 0.936247
O O16 0.656572 0.728017 0.024082
O O17 0.937177 0.173343 0.929534
O O18 0.621341 0.500000 0.000000
#
# Coordination Sequence:
#
# PCOD9323082 Si02
#       8
#     8   8   8   8   8   8   8   8
#     4  11  22  43  65  93 126 170 213 262 315 381
#     4  10  19  40  65  83 121 162 204 249 323 368
#     4  10  21  40  60  85 125 166 195 263 316 373
#     4  10  22  39  61  92 125 162 208 262 323 379
#     4  11  23  37  61  92 125 164 208 257 323 382
#     4  10  21  39  62  90 125 163 209 262 318 386
#     4  10  20  37  61  87 124 163 207 257 317 380
#     4  10  21  41  63  86 124 162 204 264 312 374
#
# _framework density 19.374911999999998
#
# number of rings (size 3 to 8) (size 9 to 14) (size 15 to 20)
#    0.000    1.750    3.750    2.250    1.750    3.500 
#    4.500    2.500    0.000    1.500    0.000    0.000 
#    0.000    0.000    0.000    0.000    0.000    0.000 
#
# Total GULP energy -178284.540722 kJ/mol
# GULP energy per Si atom -5571.391898 kJ/mol
# Density = 1.933081 g / cm^3
# Si number density = 19.374912 Si / 1000 Ang^3
#
#
#
# Elastic Constant Matrix: (Units=GPa)
#
#
# Indices 1 2 3 4 5 6 
#
# 1 41.2147 32.1955 1.5202 0.0000 0.0000 0.0000
# 2 32.1955 68.0451 31.0402 0.0000 0.0000 0.0000
# 3 1.5202 31.0402 84.2426 0.0000 0.0000 0.0000
# 4 0.0000 0.0000 0.0000 21.1104 0.0000 0.0000
# 5 0.0000 0.0000 0.0000 0.0000 11.6292 0.0000
# 6 0.0000 0.0000 0.0000 0.0000 0.0000 26.4757
#
#
#
# Elastic Compliance Matrix: (Units=1/GPa)
#
#
# Indices 1 2 3 4 5 6 
#
# 1 0.042539 -0.023773 0.007992 0.000000 0.000000 0.000000
# 2 -0.023773 0.030951 -0.010975 0.000000 0.000000 0.000000
# 3 0.007992 -0.010975 0.015770 0.000000 0.000000 0.000000
# 4 0.000000 0.000000 0.000000 0.047370 0.000000 0.000000
# 5 0.000000 0.000000 0.000000 0.000000 0.085991 0.000000
# 6 0.000000 0.000000 0.000000 0.000000 0.000000 0.037770
#
#
# Mechanical properties :
#
#
# Convention : Reuss Voigt Hill
#
# Bulk Modulus (GPa) = 27.97407 35.89045 31.93226
# Shear Modulus (GPa) = 15.34590 20.42617 17.88603
#
# Velocity S-wave (km/s) = 2.81739 3.25046 3.04164
# Velocity P-wave (km/s) = 5.00532 5.71417 5.37145
#
# Compressibility (1/GPa) = 0.03574739
#
# Stress axis : x y z
#
# Youngs Moduli (GPa) = 23.50776 32.30918 63.41062
#
# Poissons Ratio (x) = 0.76809 -0.50677
# Poissons Ratio (y) = 0.55885 0.69595
# Poissons Ratio (z) = -0.18787 0.35460
#
# Static dielectric constant tensor:
#      x y z
#    x 1.671320 0.000000 0.000000 
#    y 0.000000 1.739060 0.000000 
#    z 0.000000 0.000000 1.709480 
# 
# From -- ./inp_files/28120.got.cif
#   From: 2010.05.17/outbox.cif.g08.bks.cpg/sg21_15_cif.got.tgz:28120.got - 2010.06.03 23:14:55.
