data_PCOD9323042
_publ_section_title
;
Structure prediction by ZEFSAII (Michael W. Deem and Ramdas Pophale) SiO2 
 PCOD9323042
Probable space group: C 2 2 2
;
_chemical_formula_sum "Si O2"
_cell_formula_units_Z 48
_cell_length_a 10.874688
_cell_length_b 15.030179
_cell_length_c 12.995697
_cell_angle_alpha 90.000000
_cell_angle_beta 90.000000
_cell_angle_gamma 90.000000
_cell_volume 2124.127275
_symmetry_space_group_name_H-M "C 2 2 2"
_symmetry_group_IT_number 21
_symmetry_cell_setting 'orthorhombic'
loop_
_space_group_symop_operation_xyz
x,y,z
-x,-y,z
x,-y,-z
-x,y,-z
1/2+x,1/2+y,z
1/2-x,1/2-y,z
1/2+x,1/2-y,-z
1/2-x,1/2+y,-z
loop_
_atom_site_type_symbol
_atom_site_label
_atom_site_fract_x
_atom_site_fract_y
_atom_site_fract_z
Si Si1 0.390151 0.935039 0.231082
Si Si2 0.879584 0.301509 0.055545
Si Si3 0.628166 0.702566 0.473613
Si Si4 0.267084 0.436434 0.083522
Si Si5 0.415011 0.378193 0.268082
Si Si6 0.342608 0.573369 0.347693
O O1 0.422554 0.850165 0.160719
O O2 0.298610 0.908992 0.322094
O O3 0.500000 0.000000 0.263453
O O4 0.306411 0.997060 0.157467
O O5 0.750000 0.250000 0.074822
O O6 0.831907 0.376806 0.975648
O O7 0.000000 0.258771 0.000000
O O8 0.500000 0.749671 0.500000
O O9 0.750000 0.750000 0.509142
O O10 0.630751 0.692135 0.350924
O O11 0.625419 0.611224 0.540332
O O12 0.356234 0.379575 0.156128
O O13 0.332586 0.500000 0.000000
O O14 0.373763 0.470993 0.323363
O O15 0.562971 0.376502 0.269989
#
# Coordination Sequence:
#
# PCOD9323042 Si02
#       6
#     8   8   8   8   8   8
#     4  10  19  38  64  86 113 165 218 264 322 388
#     4  11  23  38  58  88 125 169 211 264 334 397
#     4  10  21  40  61  87 129 173 209 259 326 393
#     4   9  19  36  63  87 118 159 216 268 318 389
#     4   9  18  37  63  90 118 158 209 265 319 377
#     4   9  19  36  62  91 115 154 216 265 314 372
#
# _framework density 22.597515999999999
#
# number of rings (size 3 to 8) (size 9 to 14) (size 15 to 20)
#    0.000    2.333    1.667    0.500    0.000    4.667 
#    6.000   18.333    0.000    0.000    0.000    0.000 
#    0.000    0.000    0.000    0.000    0.000    0.000 
#
# Total GULP energy -133805.386132 kJ/mol
# GULP energy per Si atom -5575.224422 kJ/mol
# Density = 2.254608 g / cm^3
# Si number density = 22.597516 Si / 1000 Ang^3
#
#
#
# Elastic Constant Matrix: (Units=GPa)
#
#
# Indices 1 2 3 4 5 6 
#
# 1 154.9673 24.4180 48.8107 0.0000 0.0000 0.0000
# 2 24.4180 21.4909 -3.6970 0.0000 0.0000 0.0000
# 3 48.8107 -3.6970 82.0250 0.0000 0.0000 0.0000
# 4 0.0000 0.0000 0.0000 -4.8711 0.0000 0.0000
# 5 0.0000 0.0000 0.0000 0.0000 29.6883 0.0000
# 6 0.0000 0.0000 0.0000 0.0000 0.0000 26.5498
#
#
#
# Elastic Compliance Matrix: (Units=1/GPa)
#
#
# Indices 1 2 3 4 5 6 
#
# 1 0.010788 -0.013466 -0.007027 0.000000 0.000000 0.000000
# 2 -0.013466 0.063704 0.010885 0.000000 0.000000 0.000000
# 3 -0.007027 0.010885 0.016863 0.000000 0.000000 0.000000
# 4 0.000000 0.000000 0.000000 -0.205293 0.000000 0.000000
# 5 0.000000 0.000000 0.000000 0.000000 0.033683 0.000000
# 6 0.000000 0.000000 0.000000 0.000000 0.000000 0.037665
#
#
# Mechanical properties :
#
#
# Convention : Reuss Voigt Hill
#
# Bulk Modulus (GPa) = 13.86212 44.17183 29.01697
# Shear Modulus (GPa) = 7425.11722 22.87018 3723.99370
#
# Velocity S-wave (km/s) = 57.38418 3.18475 40.63919
# Velocity P-wave (km/s) = 66.30792 5.75440 47.06301
#
# Compressibility (1/GPa) = 0.07213906
#
# Stress axis : x y z
#
# Youngs Moduli (GPa) = 92.69559 15.69761 59.30029
#
# Poissons Ratio (x) = 0.21139 0.41668
# Poissons Ratio (y) = 1.24825 -0.64546
# Poissons Ratio (z) = 0.65133 -0.17086
#
# Static dielectric constant tensor:
#      x y z
#    x 1.875350 0.000000 0.000000 
#    y 0.000000 1.895720 0.000000 
#    z 0.000000 0.000000 1.846910 
# 
# From -- ./inp_files/24040.got.cif
#   From: 2010.05.17/outbox.cif.g08.bks.cpg/sg21_13_cif.got.tgz:24040.got - 2010.06.03 23:14:55.
