data_PCOD9323013
_publ_section_title
;
Structure prediction by ZEFSAII (Michael W. Deem and Ramdas Pophale) SiO2 
 PCOD9323013
Probable space group: C 2 2 2
;
_chemical_formula_sum "Si O2"
_cell_formula_units_Z 40
_cell_length_a 11.041458
_cell_length_b 17.079895
_cell_length_c 9.768776
_cell_angle_alpha 90.000000
_cell_angle_beta 90.000000
_cell_angle_gamma 90.000000
_cell_volume 1842.263605
_symmetry_space_group_name_H-M "C 2 2 2"
_symmetry_group_IT_number 21
_symmetry_cell_setting 'orthorhombic'
loop_
_space_group_symop_operation_xyz
x,y,z
-x,-y,z
x,-y,-z
-x,y,-z
1/2+x,1/2+y,z
1/2-x,1/2-y,z
1/2+x,1/2-y,-z
1/2-x,1/2+y,-z
loop_
_atom_site_type_symbol
_atom_site_label
_atom_site_fract_x
_atom_site_fract_y
_atom_site_fract_z
Si Si1 0.233277 0.593910 0.168258
Si Si2 0.361977 0.417249 0.553922
Si Si3 0.006948 0.703938 0.158076
Si Si4 0.648418 0.688415 0.323092
Si Si5 0.784251 0.583649 0.140460
O O1 0.333148 0.591915 0.286706
O O2 0.179257 0.505764 0.166175
O O3 0.133380 0.661225 0.189676
O O4 0.269807 0.600820 0.009866
O O5 0.306050 0.500000 0.500000
O O6 0.500000 0.420158 0.500000
O O7 0.322965 0.338012 0.476647
O O8 0.972321 0.769373 0.270333
O O9 0.904032 0.636040 0.159241
O O10 0.000000 0.734305 0.000000
O O11 0.750000 0.750000 0.278839
O O12 0.677855 0.609407 0.241667
#
# Coordination Sequence:
#
# PCOD9323013 Si02
#       5
#     8   8   8   8   8
#     4  10  19  37  66  93 124 168 226 271 330 398
#     4  11  24  41  59  82 124 175 218 268 322 389
#     4   9  19  35  63  99 130 164 215 281 346 396
#     4  10  21  39  60  86 130 167 203 264 335 392
#     4   9  18  36  64  97 127 163 211 280 333 401
#
# _framework density 21.712419000000001
#
# number of rings (size 3 to 8) (size 9 to 14) (size 15 to 20)
#    0.000    2.200    2.000    0.600    0.000    5.600 
#    0.000    8.000    0.000    0.000    0.000    0.000 
#    0.000    0.000    0.000    0.000    0.000    0.000 
#
# Total GULP energy -111359.259588 kJ/mol
# GULP energy per Si atom -5567.962979 kJ/mol
# Density = 2.166300 g / cm^3
# Si number density = 21.712419 Si / 1000 Ang^3
#
#
#
# Elastic Constant Matrix: (Units=GPa)
#
#
# Indices 1 2 3 4 5 6 
#
# 1 44.9282 13.6492 29.1013 0.0000 0.0000 0.0000
# 2 13.6492 70.0723 16.3796 0.0000 0.0000 0.0000
# 3 29.1013 16.3796 95.6856 0.0000 0.0000 0.0000
# 4 0.0000 0.0000 0.0000 30.7906 0.0000 0.0000
# 5 0.0000 0.0000 0.0000 0.0000 30.3638 0.0000
# 6 0.0000 0.0000 0.0000 0.0000 0.0000 28.1107
#
#
#
# Elastic Compliance Matrix: (Units=1/GPa)
#
#
# Indices 1 2 3 4 5 6 
#
# 1 0.028604 -0.003686 -0.008068 0.000000 0.000000 0.000000
# 2 -0.003686 0.015341 -0.001505 0.000000 0.000000 0.000000
# 3 -0.008068 -0.001505 0.013162 0.000000 0.000000 0.000000
# 4 0.000000 0.000000 0.000000 0.032477 0.000000 0.000000
# 5 0.000000 0.000000 0.000000 0.000000 0.032934 0.000000
# 6 0.000000 0.000000 0.000000 0.000000 0.000000 0.035574
#
#
# Mechanical properties :
#
#
# Convention : Reuss Voigt Hill
#
# Bulk Modulus (GPa) = 32.69214 36.54960 34.62087
# Shear Modulus (GPa) = 25.66653 27.95675 26.81164
#
# Velocity S-wave (km/s) = 3.44192 3.59220 3.51786
# Velocity P-wave (km/s) = 5.55745 5.83740 5.69915
#
# Compressibility (1/GPa) = 0.03058839
#
# Stress axis : x y z
#
# Youngs Moduli (GPa) = 34.96067 65.18599 75.97385
#
# Poissons Ratio (x) = 0.24025 0.61299
# Poissons Ratio (y) = 0.12885 0.11435
# Poissons Ratio (z) = 0.28208 0.09811
#
# Static dielectric constant tensor:
#      x y z
#    x 1.891270 0.000000 0.000000 
#    y 0.000000 1.869630 0.000000 
#    z 0.000000 0.000000 1.810410 
# 
# From -- ./inp_files/12701.got.cif
#   From: 2010.05.17/outbox.cif.g08.bks.cpg/sg21_7_cif.got.tgz:12701.got - 2010.06.03 23:14:55.
