data_PCOD9323759
_publ_section_title
;
Structure prediction by ZEFSAII (Michael W. Deem and Ramdas Pophale) SiO2 
 PCOD9323759
Probable space group: C 2 2 2
;
_chemical_formula_sum "Si O2"
_cell_formula_units_Z 36
_cell_length_a 11.975925
_cell_length_b 23.430710
_cell_length_c 5.160463
_cell_angle_alpha 90.000000
_cell_angle_beta 90.000000
_cell_angle_gamma 90.000000
_cell_volume 1448.048756
_symmetry_space_group_name_H-M "C 2 2 2"
_symmetry_group_IT_number 21
_symmetry_cell_setting 'orthorhombic'
loop_
_space_group_symop_operation_xyz
x,y,z
-x,-y,z
x,-y,-z
-x,y,-z
1/2+x,1/2+y,z
1/2-x,1/2-y,z
1/2+x,1/2-y,-z
1/2-x,1/2+y,-z
loop_
_atom_site_type_symbol
_atom_site_label
_atom_site_fract_x
_atom_site_fract_y
_atom_site_fract_z
Si Si1 0.798347 0.635872 0.063333
Si Si2 0.323593 0.034937 0.743379
Si Si3 0.128859 0.088389 0.479802
Si Si4 0.500000 0.795235 0.000000
Si Si5 0.343685 0.712187 0.299002
O O1 0.719520 0.594738 0.240487
O O2 0.851386 0.599700 0.821879
O O3 0.717712 0.684315 0.951039
O O4 0.908534 0.667740 0.158640
O O5 0.193254 0.046789 0.678007
O O6 0.370550 0.000000 0.500000
O O7 0.347994 0.000000 0.000000
O O8 0.122903 0.155195 0.554721
O O9 0.000000 0.070025 0.500000
O O10 0.561215 0.753667 0.798358
O O11 0.250000 0.750000 0.440183
#
# Coordination Sequence:
#
# PCOD9323759 Si02
#       5
#     8   8   8   4   8
#     4  10  22  42  68 101 144 187 251 300 367 457
#     4  11  23  47  72  98 138 181 240 313 372 439
#     4  11  23  39  65 101 139 183 236 297 363 452
#     4  10  20  42  71 100 149 196 246 298 378 448
#     4   9  20  36  59  98 141 186 228 286 353 431
#
# _framework density 24.861041
#
# number of rings (size 3 to 8) (size 9 to 14) (size 15 to 20)
#    0.000    1.778    2.222    1.333    0.000    7.556 
#    4.000   11.667    4.889    0.000    0.000    0.000 
#    0.000    0.000    0.000    0.000    0.000    0.000 
#
# Total GULP energy -100267.850875 kJ/mol
# GULP energy per Si atom -5570.436160 kJ/mol
# Density = 2.480446 g / cm^3
# Si number density = 24.861041 Si / 1000 Ang^3
#
#
#
# Elastic Constant Matrix: (Units=GPa)
#
#
# Indices 1 2 3 4 5 6 
#
# 1 106.0261 37.6452 33.5732 0.0000 0.0000 0.0000
# 2 37.6452 85.0052 32.6017 0.0000 0.0000 0.0000
# 3 33.5732 32.6017 108.1776 0.0000 0.0000 0.0000
# 4 0.0000 0.0000 0.0000 54.3497 0.0000 0.0000
# 5 0.0000 0.0000 0.0000 0.0000 16.1530 0.0000
# 6 0.0000 0.0000 0.0000 0.0000 0.0000 -22.5448
#
#
#
# Elastic Compliance Matrix: (Units=1/GPa)
#
#
# Indices 1 2 3 4 5 6 
#
# 1 0.011692 -0.004281 -0.002338 0.000000 0.000000 0.000000
# 2 -0.004281 0.014869 -0.003152 0.000000 0.000000 0.000000
# 3 -0.002338 -0.003152 0.010920 0.000000 0.000000 0.000000
# 4 0.000000 0.000000 0.000000 0.018399 0.000000 0.000000
# 5 0.000000 0.000000 0.000000 0.000000 0.061908 0.000000
# 6 0.000000 0.000000 0.000000 0.000000 0.000000 -0.044356
#
#
# Mechanical properties :
#
#
# Convention : Reuss Voigt Hill
#
# Bulk Modulus (GPa) = 55.75086 56.31654 56.03370
# Shear Modulus (GPa) = 50.52796 22.61750 36.57273
#
# Velocity S-wave (km/s) = 4.51312 3.01949 3.83964
# Velocity P-wave (km/s) = 7.04495 5.90408 6.49960
#
# Compressibility (1/GPa) = 0.01793694
#
# Stress axis : x y z
#
# Youngs Moduli (GPa) = 85.52744 67.25431 91.57616
#
# Poissons Ratio (x) = 0.28792 0.21415
# Poissons Ratio (y) = 0.36615 0.28869
# Poissons Ratio (z) = 0.20001 0.21201
#
# Static dielectric constant tensor:
#      x y z
#    x 2.021380 0.000000 0.000000 
#    y 0.000000 2.104620 0.000000 
#    z 0.000000 0.000000 2.135270 
# 
# From -- ./inp_files/2661.got.cif
#   From: 2010.05.17/outbox.cif.g08.bks.cpg/sg21_2_cif.got.tgz:2661.got - 2010.06.03 23:14:55.
