data_PCOD9323544
_publ_section_title
;
Structure prediction by ZEFSAII (Michael W. Deem and Ramdas Pophale) SiO2 
 PCOD9323544
Probable space group: C 2 2 2
;
_chemical_formula_sum "Si O2"
_cell_formula_units_Z 48
_cell_length_a 28.031792
_cell_length_b 8.705016
_cell_length_c 9.924794
_cell_angle_alpha 90.000000
_cell_angle_beta 90.000000
_cell_angle_gamma 90.000000
_cell_volume 2421.820421
_symmetry_space_group_name_H-M "C 2 2 2"
_symmetry_group_IT_number 21
_symmetry_cell_setting 'orthorhombic'
loop_
_space_group_symop_operation_xyz
x,y,z
-x,-y,z
x,-y,-z
-x,y,-z
1/2+x,1/2+y,z
1/2-x,1/2-y,z
1/2+x,1/2-y,-z
1/2-x,1/2+y,-z
loop_
_atom_site_type_symbol
_atom_site_label
_atom_site_fract_x
_atom_site_fract_y
_atom_site_fract_z
Si Si1 0.250000 0.250000 0.345324
Si Si2 0.792511 0.961148 0.150401
Si Si3 0.626748 0.000000 0.000000
Si Si4 0.338263 0.831506 0.513290
Si Si5 0.881153 0.256874 0.789027
Si Si6 0.054728 0.977012 0.160626
Si Si7 0.860979 0.754259 0.785159
O O1 0.249203 0.101895 0.246405
O O2 0.295182 0.275338 0.440072
O O3 0.831920 0.822072 0.155275
O O4 0.821902 0.110668 0.196878
O O5 0.776040 0.000000 0.000000
O O6 0.650490 0.115657 0.110534
O O7 0.601466 0.879839 0.101103
O O8 0.372544 0.829254 0.642841
O O9 0.360001 0.791110 0.370772
O O10 0.316674 0.000000 0.500000
O O11 0.916470 0.116011 0.773698
O O12 0.086338 0.824921 0.186285
O O13 0.000000 0.000000 0.202386
O O14 0.056696 0.000000 0.000000
#
# Coordination Sequence:
#
# PCOD9323544 Si02
#       7
#     4   8   4   8   8   8   8
#     4  10  26  40  58  88 122 158 216 266 316 378
#     4  10  20  42  61  86 119 159 210 263 309 366
#     4  12  18  36  65  92 120 160 214 238 302 380
#     4  11  24  40  60  88 125 160 204 260 320 380
#     4  10  20  38  62  90 123 160 207 247 306 381
#     4  10  20  39  66  98 127 161 212 261 303 368
#     4  11  22  39  69  90 123 174 205 250 323 376
#
# _framework density 19.819800000000001
#
# number of rings (size 3 to 8) (size 9 to 14) (size 15 to 20)
#    0.000    1.500    5.000    1.000    2.333    5.333 
#    9.000    3.333    0.000    1.000    0.000    0.000 
#    0.000    0.000    0.000    0.000    0.000    0.000 
#
# Total GULP energy -133704.651795 kJ/mol
# GULP energy per Si atom -5571.027158 kJ/mol
# Density = 1.977469 g / cm^3
# Si number density = 19.819800 Si / 1000 Ang^3
#
#
#
# Elastic Constant Matrix: (Units=GPa)
#
#
# Indices 1 2 3 4 5 6 
#
# 1 64.4345 11.1817 30.1905 0.0000 0.0000 0.0000
# 2 11.1817 83.5939 39.1941 0.0000 0.0000 0.0000
# 3 30.1905 39.1941 155.8918 0.0000 0.0000 0.0000
# 4 0.0000 0.0000 0.0000 32.6473 0.0000 0.0000
# 5 0.0000 0.0000 0.0000 0.0000 32.3114 0.0000
# 6 0.0000 0.0000 0.0000 0.0000 0.0000 10.6253
#
#
#
# Elastic Compliance Matrix: (Units=1/GPa)
#
#
# Indices 1 2 3 4 5 6 
#
# 1 0.017120 -0.000834 -0.003106 0.000000 0.000000 0.000000
# 2 -0.000834 0.013602 -0.003258 0.000000 0.000000 0.000000
# 3 -0.003106 -0.003258 0.007835 0.000000 0.000000 0.000000
# 4 0.000000 0.000000 0.000000 0.030630 0.000000 0.000000
# 5 0.000000 0.000000 0.000000 0.000000 0.030949 0.000000
# 6 0.000000 0.000000 0.000000 0.000000 0.000000 0.094115
#
#
# Mechanical properties :
#
#
# Convention : Reuss Voigt Hill
#
# Bulk Modulus (GPa) = 41.38892 51.67253 46.53072
# Shear Modulus (GPa) = 23.07331 30.00705 26.54018
#
# Velocity S-wave (km/s) = 3.41567 3.89523 3.66331
# Velocity P-wave (km/s) = 6.04017 6.80868 6.43591
#
# Compressibility (1/GPa) = 0.02416106
#
# Stress axis : x y z
#
# Youngs Moduli (GPa) = 58.41276 73.51969 127.62622
#
# Poissons Ratio (x) = 0.06130 0.39638
# Poissons Ratio (y) = 0.04870 0.41584
# Poissons Ratio (z) = 0.18142 0.23955
#
# Static dielectric constant tensor:
#      x y z
#    x 1.709980 0.000000 0.000000 
#    y 0.000000 1.699540 0.000000 
#    z 0.000000 0.000000 1.708420 
# 
# From -- ./inp_files/11593.got.cif
#   From: 2010.05.17/outbox.cif.g08.bks.cpg/sg21_6_cif.got.tgz:11593.got - 2010.06.03 23:14:55.
