data_PCOD9323153
_publ_section_title
;
Structure prediction by ZEFSAII (Michael W. Deem and Ramdas Pophale) SiO2 
 PCOD9323153
Probable space group: C 2 2 2
;
_chemical_formula_sum "Si O2"
_cell_formula_units_Z 52
_cell_length_a 19.958788
_cell_length_b 5.968753
_cell_length_c 21.166999
_cell_angle_alpha 90.000000
_cell_angle_beta 90.000000
_cell_angle_gamma 90.000000
_cell_volume 2521.605027
_symmetry_space_group_name_H-M "C 2 2 2"
_symmetry_group_IT_number 21
_symmetry_cell_setting 'orthorhombic'
loop_
_space_group_symop_operation_xyz
x,y,z
-x,-y,z
x,-y,-z
-x,y,-z
1/2+x,1/2+y,z
1/2-x,1/2-y,z
1/2+x,1/2-y,-z
1/2-x,1/2+y,-z
loop_
_atom_site_type_symbol
_atom_site_label
_atom_site_fract_x
_atom_site_fract_y
_atom_site_fract_z
Si Si1 0.320386 0.653377 0.167505
Si Si2 0.813120 0.910697 0.570480
Si Si3 0.671458 0.250086 0.020918
Si Si4 0.565729 0.598950 0.740213
Si Si5 0.434763 0.871573 0.385259
Si Si6 0.158837 0.266180 0.325280
Si Si7 0.250000 0.750000 0.783102
O O1 0.250000 0.750000 0.191331
O O2 0.330806 0.737490 0.096891
O O3 0.383294 0.710673 0.211007
O O4 0.301014 0.390118 0.173740
O O5 0.750000 0.750000 0.582476
O O6 0.887796 0.799770 0.575747
O O7 0.805686 0.000000 0.500000
O O8 0.808129 0.100328 0.623878
O O9 0.750000 0.250000 0.000371
O O10 0.644463 0.500000 0.000000
O O11 0.645181 0.000000 0.000000
O O12 0.500000 0.500000 0.772475
O O13 0.544581 0.749078 0.680239
O O14 0.607527 0.394679 0.711255
O O15 0.500000 0.000000 0.412501
O O16 0.381266 0.055095 0.364671
O O17 0.204005 0.372815 0.269998
#
# Coordination Sequence:
#
# PCOD9323153 Si02
#       7
#     8   8   8   8   8   8   4
#     4  10  21  33  57  91 130 164 215 271 325 396
#     4  11  27  43  67  91 123 165 223 269 332 407
#     4   9  19  34  55  84 128 175 220 273 333 388
#     4  10  20  38  60  94 128 166 209 260 325 408
#     4  11  22  41  69  90 125 167 206 266 338 392
#     4  10  21  39  62  90 125 164 203 267 329 400
#     4  10  20  32  58  94 126 154 206 262 340 388
#
# _framework density 20.621784000000002
#
# number of rings (size 3 to 8) (size 9 to 14) (size 15 to 20)
#    0.000    1.846    1.538    1.846    8.615    4.308 
#    0.000    2.308    0.000    0.462    0.000    1.077 
#    0.000    0.000    0.000    0.000    0.000    0.000 
#
# Total GULP energy -144808.954893 kJ/mol
# GULP energy per Si atom -5569.575188 kJ/mol
# Density = 2.057485 g / cm^3
# Si number density = 20.621784 Si / 1000 Ang^3
#
#
#
# Elastic Constant Matrix: (Units=GPa)
#
#
# Indices 1 2 3 4 5 6 
#
# 1 92.3524 18.8511 35.9430 0.0000 0.0000 0.0000
# 2 18.8511 85.6933 40.9251 0.0000 0.0000 0.0000
# 3 35.9430 40.9251 76.4130 0.0000 0.0000 0.0000
# 4 0.0000 0.0000 0.0000 11.4759 0.0000 0.0000
# 5 0.0000 0.0000 0.0000 0.0000 14.6086 0.0000
# 6 0.0000 0.0000 0.0000 0.0000 0.0000 40.0138
#
#
#
# Elastic Compliance Matrix: (Units=1/GPa)
#
#
# Indices 1 2 3 4 5 6 
#
# 1 0.013255 0.000083 -0.006279 0.000000 0.000000 0.000000
# 2 0.000083 0.015681 -0.008437 0.000000 0.000000 0.000000
# 3 -0.006279 -0.008437 0.020559 0.000000 0.000000 0.000000
# 4 0.000000 0.000000 0.000000 0.087139 0.000000 0.000000
# 5 0.000000 0.000000 0.000000 0.000000 0.068453 0.000000
# 6 0.000000 0.000000 0.000000 0.000000 0.000000 0.024991
#
#
# Mechanical properties :
#
#
# Convention : Reuss Voigt Hill
#
# Bulk Modulus (GPa) = 49.43701 49.54412 49.49057
# Shear Modulus (GPa) = 18.79079 23.80230 21.29654
#
# Velocity S-wave (km/s) = 3.02190 3.40108 3.21708
# Velocity P-wave (km/s) = 6.01673 6.28494 6.15230
#
# Compressibility (1/GPa) = 0.02022776
#
# Stress axis : x y z
#
# Youngs Moduli (GPa) = 75.44314 63.77269 48.64001
#
# Poissons Ratio (x) = -0.00529 0.30543
# Poissons Ratio (y) = -0.00626 0.41039
# Poissons Ratio (z) = 0.47373 0.53807
#
# Static dielectric constant tensor:
#      x y z
#    x 1.765450 0.000000 0.000000 
#    y 0.000000 1.904630 0.000000 
#    z 0.000000 0.000000 1.716090 
# 
# From -- ./inp_files/37833.got.cif
#   From: 2010.05.17/outbox.cif.g08.bks.cpg/sg21_19_cif.got.tgz:37833.got - 2010.06.03 23:14:55.
