data_PCOD9323370
_publ_section_title
;
Structure prediction by ZEFSAII (Michael W. Deem and Ramdas Pophale) SiO2 
 PCOD9323370
Probable space group: C 2 2 2
;
_chemical_formula_sum "Si O2"
_cell_formula_units_Z 56
_cell_length_a 15.621935
_cell_length_b 8.824182
_cell_length_c 17.969117
_cell_angle_alpha 90.000000
_cell_angle_beta 90.000000
_cell_angle_gamma 90.000000
_cell_volume 2477.057111
_symmetry_space_group_name_H-M "C 2 2 2"
_symmetry_group_IT_number 21
_symmetry_cell_setting 'orthorhombic'
loop_
_space_group_symop_operation_xyz
x,y,z
-x,-y,z
x,-y,-z
-x,y,-z
1/2+x,1/2+y,z
1/2-x,1/2-y,z
1/2+x,1/2-y,-z
1/2-x,1/2+y,-z
loop_
_atom_site_type_symbol
_atom_site_label
_atom_site_fract_x
_atom_site_fract_y
_atom_site_fract_z
Si Si1 0.715998 0.104946 0.163616
Si Si2 0.927982 0.615079 0.207898
Si Si3 0.898511 0.673784 0.977793
Si Si4 0.075535 0.599956 0.622743
Si Si5 0.758441 0.569646 0.583512
Si Si6 0.833886 0.151935 0.886809
Si Si7 0.087273 0.063088 0.415981
O O1 0.750000 0.250000 0.208045
O O2 0.650116 0.173482 0.101470
O O3 0.658024 0.984937 0.206511
O O4 0.798074 0.013939 0.130634
O O5 0.950156 0.646679 0.293199
O O6 0.908984 0.768620 0.162262
O O7 0.000000 0.500000 0.175314
O O8 0.876585 0.500000 0.000000
O O9 0.857142 0.804227 0.028939
O O10 0.000000 0.686380 0.000000
O O11 0.158244 0.494407 0.623197
O O12 0.090186 0.756425 0.580702
O O13 0.000000 0.500000 0.589727
O O14 0.764708 0.500000 0.500000
O O15 0.750000 0.750000 0.579860
O O16 0.673168 0.500298 0.620440
O O17 0.750000 0.250000 0.869957
O O18 0.088172 0.000000 0.500000
O O19 0.000000 0.000000 0.380929
#
# Coordination Sequence:
#
# PCOD9323370 Si02
#       7
#     8   8   8   8   8   8   8
#     4  11  24  38  61  91 126 164 216 273 326 380
#     4  10  22  43  63  83 117 163 212 253 317 392
#     4  11  20  34  60  89 121 166 209 262 329 386
#     4  11  24  41  64  93 125 168 212 261 320 396
#     4  11  22  38  61  90 124 160 203 252 307 374
#     4  10  20  36  59  88 117 158 209 258 313 376
#     4  10  21  40  63  93 127 162 204 258 322 383
#
# _framework density 22.607474
#
# number of rings (size 3 to 8) (size 9 to 14) (size 15 to 20)
#    0.000    1.429    2.857    4.286    0.000    5.429 
#    0.000    6.429    0.000    0.000    0.000    0.000 
#    0.000    0.000    0.000    0.000    0.000    0.000 
#
# Total GULP energy -156159.806812 kJ/mol
# GULP energy per Si atom -5577.135958 kJ/mol
# Density = 2.255602 g / cm^3
# Si number density = 22.607474 Si / 1000 Ang^3
#
#
#
# Elastic Constant Matrix: (Units=GPa)
#
#
# Indices 1 2 3 4 5 6 
#
# 1 128.7163 45.9154 -1.8152 0.0000 0.0000 0.0000
# 2 45.9154 163.7778 12.8224 0.0000 0.0000 0.0000
# 3 -1.8152 12.8224 53.9599 0.0000 0.0000 0.0000
# 4 0.0000 0.0000 0.0000 -0.2410 0.0000 0.0000
# 5 0.0000 0.0000 0.0000 0.0000 15.7833 0.0000
# 6 0.0000 0.0000 0.0000 0.0000 0.0000 24.9600
#
#
#
# Elastic Compliance Matrix: (Units=1/GPa)
#
#
# Indices 1 2 3 4 5 6 
#
# 1 0.008674 -0.002501 0.000886 0.000000 0.000000 0.000000
# 2 -0.002501 0.006943 -0.001734 0.000000 0.000000 0.000000
# 3 0.000886 -0.001734 0.018974 0.000000 0.000000 0.000000
# 4 0.000000 0.000000 0.000000 -4.149493 0.000000 0.000000
# 5 0.000000 0.000000 0.000000 0.000000 0.063358 0.000000
# 6 0.000000 0.000000 0.000000 0.000000 0.000000 0.040064
#
#
# Mechanical properties :
#
#
# Convention : Reuss Voigt Hill
#
# Bulk Modulus (GPa) = 35.85153 51.14435 43.49794
# Shear Modulus (GPa) = -1.25141 27.40254 13.07556
#
# Velocity S-wave (km/s) = -0.74481 3.48530 2.40755
# Velocity P-wave (km/s) = 3.89269 6.23445 5.19718
#
# Compressibility (1/GPa) = 0.02789281
#
# Stress axis : x y z
#
# Youngs Moduli (GPa) = 115.29110 144.03482 52.70335
#
# Poissons Ratio (x) = 0.36024 -0.04670
# Poissons Ratio (y) = 0.28835 0.09138
# Poissons Ratio (z) = -0.10216 0.24975
#
# Static dielectric constant tensor:
#      x y z
#    x 2.091360 0.000000 0.000000 
#    y 0.000000 1.808860 0.000000 
#    z 0.000000 0.000000 1.913370 
# 
# From -- ./inp_files/37583.got.cif
#   From: 2010.05.17/outbox.cif.g08.bks.cpg/sg21_19_cif.got.tgz:37583.got - 2010.06.03 23:14:55.
