data_PCOD9323605
_publ_section_title
;
Structure prediction by ZEFSAII (Michael W. Deem and Ramdas Pophale) SiO2 
 PCOD9323605
Probable space group: C 2 2 2
;
_chemical_formula_sum "Si O2"
_cell_formula_units_Z 48
_cell_length_a 8.824008
_cell_length_b 18.230950
_cell_length_c 16.584161
_cell_angle_alpha 90.000000
_cell_angle_beta 90.000000
_cell_angle_gamma 90.000000
_cell_volume 2667.894787
_symmetry_space_group_name_H-M "C 2 2 2"
_symmetry_group_IT_number 21
_symmetry_cell_setting 'orthorhombic'
loop_
_space_group_symop_operation_xyz
x,y,z
-x,-y,z
x,-y,-z
-x,y,-z
1/2+x,1/2+y,z
1/2-x,1/2-y,z
1/2+x,1/2-y,-z
1/2-x,1/2+y,-z
loop_
_atom_site_type_symbol
_atom_site_label
_atom_site_fract_x
_atom_site_fract_y
_atom_site_fract_z
Si Si1 0.793703 0.448099 0.250498
Si Si2 0.575730 0.773929 0.413138
Si Si3 0.620111 0.899018 0.297676
Si Si4 0.177208 0.020446 0.088046
Si Si5 0.109074 0.195382 0.729532
Si Si6 0.177557 0.823411 0.835823
O O1 0.799015 0.522142 0.304192
O O2 0.754687 0.476541 0.161074
O O3 0.676809 0.386374 0.279386
O O4 0.961522 0.414222 0.252890
O O5 0.500000 0.768800 0.500000
O O6 0.750000 0.750000 0.417162
O O7 0.579165 0.856687 0.378736
O O8 0.481862 0.725575 0.348164
O O9 0.724247 0.846583 0.243078
O O10 0.187062 0.106759 0.106431
O O11 0.000000 0.000000 0.090609
O O12 0.237599 0.000000 0.000000
O O13 0.250000 0.250000 0.744022
O O14 0.990931 0.192234 0.803381
O O15 0.250000 0.750000 0.870677
#
# Coordination Sequence:
#
# PCOD9323605 Si02
#       6
#     8   8   8   8   8   8
#     4  10  21  36  63  91 113 166 208 246 294 375
#     4  12  24  40  62  89 124 160 198 259 317 361
#     4  10  20  39  60  89 121 154 209 249 300 364
#     4  10  21  37  61  90 128 163 199 258 320 365
#     4  12  20  36  63  92 118 159 216 252 298 377
#     4  11  19  37  62  90 121 164 207 256 299 368
#
# _framework density 17.991713000000001
#
# number of rings (size 3 to 8) (size 9 to 14) (size 15 to 20)
#    0.000    1.167    6.667    0.500    0.000    0.000 
#    0.000    9.167    3.667    1.000    0.000    0.000 
#    0.000    0.000    0.000    0.000    0.000    0.000 
#
# Total GULP energy -133957.633423 kJ/mol
# GULP energy per Si atom -5581.568059 kJ/mol
# Density = 1.795076 g / cm^3
# Si number density = 17.991713 Si / 1000 Ang^3
#
#
#
# Elastic Constant Matrix: (Units=GPa)
#
#
# Indices 1 2 3 4 5 6 
#
# 1 103.0022 56.8563 41.7398 0.0000 0.0000 0.0000
# 2 56.8563 151.9246 66.5815 0.0000 0.0000 0.0000
# 3 41.7398 66.5815 101.8184 0.0000 0.0000 0.0000
# 4 0.0000 0.0000 0.0000 17.6439 0.0000 0.0000
# 5 0.0000 0.0000 0.0000 0.0000 17.2749 0.0000
# 6 0.0000 0.0000 0.0000 0.0000 0.0000 43.2852
#
#
#
# Elastic Compliance Matrix: (Units=1/GPa)
#
#
# Indices 1 2 3 4 5 6 
#
# 1 0.012849 -0.003504 -0.002976 0.000000 0.000000 0.000000
# 2 -0.003504 0.010182 -0.005222 0.000000 0.000000 0.000000
# 3 -0.002976 -0.005222 0.014456 0.000000 0.000000 0.000000
# 4 0.000000 0.000000 0.000000 0.056677 0.000000 0.000000
# 5 0.000000 0.000000 0.000000 0.000000 0.057887 0.000000
# 6 0.000000 0.000000 0.000000 0.000000 0.000000 0.023103
#
#
# Mechanical properties :
#
#
# Convention : Reuss Voigt Hill
#
# Bulk Modulus (GPa) = 71.00667 76.34448 73.67557
# Shear Modulus (GPa) = 24.60003 28.41196 26.50599
#
# Velocity S-wave (km/s) = 3.70171 3.97819 3.84244
# Velocity P-wave (km/s) = 7.60409 7.97663 7.79259
#
# Compressibility (1/GPa) = 0.01408318
#
# Stress axis : x y z
#
# Youngs Moduli (GPa) = 77.82839 98.21090 69.17603
#
# Poissons Ratio (x) = 0.34418 0.20584
# Poissons Ratio (y) = 0.27275 0.36122
# Poissons Ratio (z) = 0.23159 0.51283
#
# Static dielectric constant tensor:
#      x y z
#    x 1.629800 0.000000 0.000000 
#    y 0.000000 1.644960 0.000000 
#    z 0.000000 0.000000 1.589700 
# 
# From -- ./inp_files/30533.got.cif
#   From: 2010.05.17/outbox.cif.g08.bks.cpg/sg21_16_cif.got.tgz:30533.got - 2010.06.03 23:14:55.
