data_PCOD9323796
_publ_section_title
;
Structure prediction by ZEFSAII (Michael W. Deem and Ramdas Pophale) SiO2 
 PCOD9323796
Probable space group: C 2 2 2
;
_chemical_formula_sum "Si O2"
_cell_formula_units_Z 44
_cell_length_a 23.719349
_cell_length_b 18.140418
_cell_length_c 6.239620
_cell_angle_alpha 90.000000
_cell_angle_beta 90.000000
_cell_angle_gamma 90.000000
_cell_volume 2684.776865
_symmetry_space_group_name_H-M "C 2 2 2"
_symmetry_group_IT_number 21
_symmetry_cell_setting 'orthorhombic'
loop_
_space_group_symop_operation_xyz
x,y,z
-x,-y,z
x,-y,-z
-x,y,-z
1/2+x,1/2+y,z
1/2-x,1/2-y,z
1/2+x,1/2-y,-z
1/2-x,1/2+y,-z
loop_
_atom_site_type_symbol
_atom_site_label
_atom_site_fract_x
_atom_site_fract_y
_atom_site_fract_z
Si Si1 0.180427 0.500000 0.000000
Si Si2 0.058546 0.299153 0.382026
Si Si3 0.410664 0.936017 0.327153
Si Si4 0.000000 0.381324 0.000000
Si Si5 0.669774 0.729364 0.362171
Si Si6 0.250000 0.750000 0.255145
Si Si7 0.761538 0.644004 0.128245
O O1 0.141800 0.457562 0.824547
O O2 0.217991 0.560991 0.880862
O O3 0.088979 0.360817 0.533076
O O4 0.102917 0.233399 0.357125
O O5 0.000000 0.280156 0.500000
O O6 0.041441 0.333460 0.152078
O O7 0.419162 0.000000 0.500000
O O8 0.462587 0.927284 0.164727
O O9 0.696122 0.735300 0.597245
O O10 0.702370 0.662777 0.244132
O O11 0.692879 0.803618 0.245974
O O12 0.241729 0.679042 0.107159
#
# Coordination Sequence:
#
# PCOD9323796 Si02
#       7
#     4   8   8   4   8   4   8
#     4  12  22  33  46  72 102 131 168 202 238 294
#     4  10  21  33  49  70  95 129 167 205 243 282
#     4  11  22  31  45  64  96 137 169 201 238 279
#     4  10  22  35  44  66  96 129 170 206 234 283
#     4   9  17  34  49  68  93 124 164 204 240 290
#     4   8  16  32  52  68  92 128 160 198 246 286
#     4   9  19  30  49  69  93 128 161 199 245 284
#
# _framework density 16.388698999999999
#
# number of rings (size 3 to 8) (size 9 to 14) (size 15 to 20)
#    0.000    2.545    0.000    4.364    0.000   14.545 
#    0.000    0.000    0.000    0.000    0.000    0.000 
#    0.000   10.909    0.000    0.000    0.000    0.000 
#
# Total GULP energy -122687.847264 kJ/mol
# GULP energy per Si atom -5576.720330 kJ/mol
# Density = 1.635140 g / cm^3
# Si number density = 16.388699 Si / 1000 Ang^3
#
#
#
# Elastic Constant Matrix: (Units=GPa)
#
#
# Indices 1 2 3 4 5 6 
#
# 1 109.3154 39.0320 38.1022 0.0000 0.0000 0.0000
# 2 39.0320 38.3771 10.3653 0.0000 0.0000 0.0000
# 3 38.1022 10.3653 91.9239 0.0000 0.0000 0.0000
# 4 0.0000 0.0000 0.0000 1.7057 0.0000 0.0000
# 5 0.0000 0.0000 0.0000 0.0000 4.3550 0.0000
# 6 0.0000 0.0000 0.0000 0.0000 0.0000 31.9543
#
#
#
# Elastic Compliance Matrix: (Units=1/GPa)
#
#
# Indices 1 2 3 4 5 6 
#
# 1 0.016368 -0.015280 -0.005061 0.000000 0.000000 0.000000
# 2 -0.015280 0.041140 0.001695 0.000000 0.000000 0.000000
# 3 -0.005061 0.001695 0.012785 0.000000 0.000000 0.000000
# 4 0.000000 0.000000 0.000000 0.586266 0.000000 0.000000
# 5 0.000000 0.000000 0.000000 0.000000 0.229619 0.000000
# 6 0.000000 0.000000 0.000000 0.000000 0.000000 0.031295
#
#
# Mechanical properties :
#
#
# Convention : Reuss Voigt Hill
#
# Bulk Modulus (GPa) = 30.30331 46.06839 38.18585
# Shear Modulus (GPa) = 5.17723 17.74415 11.46069
#
# Velocity S-wave (km/s) = 1.77929 3.29402 2.64731
# Velocity P-wave (km/s) = 4.76987 6.52980 5.71795
#
# Compressibility (1/GPa) = 0.03299969
#
# Stress axis : x y z
#
# Youngs Moduli (GPa) = 61.09502 24.30699 78.21399
#
# Poissons Ratio (x) = 0.37142 0.39588
# Poissons Ratio (y) = 0.93354 -0.13254
# Poissons Ratio (z) = 0.30923 -0.04119
#
# Static dielectric constant tensor:
#      x y z
#    x 1.576000 0.000000 0.000000 
#    y 0.000000 1.546420 0.000000 
#    z 0.000000 0.000000 1.597440 
# 
# From -- ./inp_files/7295.got.cif
#   From: 2010.05.17/outbox.cif.g08.bks.cpg/sg21_4_cif.got.tgz:7295.got - 2010.06.03 23:14:55.
