data_PCOD9323520
_publ_section_title
;
Structure prediction by ZEFSAII (Michael W. Deem and Ramdas Pophale) SiO2 
 PCOD9323520
Probable space group: C 2 2 2
;
_chemical_formula_sum "Si O2"
_cell_formula_units_Z 32
_cell_length_a 34.167123
_cell_length_b 8.221711
_cell_length_c 5.406387
_cell_angle_alpha 90.000000
_cell_angle_beta 90.000000
_cell_angle_gamma 90.000000
_cell_volume 1518.720126
_symmetry_space_group_name_H-M "C 2 2 2"
_symmetry_group_IT_number 21
_symmetry_cell_setting 'orthorhombic'
loop_
_space_group_symop_operation_xyz
x,y,z
-x,-y,z
x,-y,-z
-x,y,-z
1/2+x,1/2+y,z
1/2-x,1/2-y,z
1/2+x,1/2-y,-z
1/2-x,1/2+y,-z
loop_
_atom_site_type_symbol
_atom_site_label
_atom_site_fract_x
_atom_site_fract_y
_atom_site_fract_z
Si Si1 0.544873 0.194729 0.013474
Si Si2 0.173388 0.183970 0.611677
Si Si3 0.250000 0.250000 0.351592
Si Si4 0.288586 0.500000 0.000000
Si Si5 0.912687 0.804908 0.488436
O O1 0.569626 0.255670 0.776686
O O2 0.500000 0.254203 0.000000
O O3 0.562253 0.244908 0.278042
O O4 0.544592 0.000000 0.000000
O O5 0.211101 0.276929 0.511572
O O6 0.131761 0.255130 0.538054
O O7 0.174026 0.000000 0.500000
O O8 0.182979 0.141325 0.895342
O O9 0.260602 0.407653 0.190487
O O10 0.911821 0.000000 0.500000
#
# Coordination Sequence:
#
# PCOD9323520 Si02
#       5
#     8   8   4   4   8
#     4  11  25  46  67  95 137 176 209 266 343 402
#     4   9  21  37  60  89 125 166 212 263 324 369
#     4  10  20  38  58  92 120 168 214 250 324 378
#     4  10  20  38  64  82 127 174 203 270 318 378
#     4  11  24  41  71 101 129 170 225 276 320 388
#
# _framework density 21.070374999999999
#
# number of rings (size 3 to 8) (size 9 to 14) (size 15 to 20)
#    0.000    1.750    0.000    3.000   10.500    5.000 
#    2.250    7.500    0.000    0.000    0.000    0.000 
#    0.000    0.000    0.000    0.000    0.000    0.000 
#
# Total GULP energy -89306.625264 kJ/mol
# GULP energy per Si atom -5581.664079 kJ/mol
# Density = 2.102242 g / cm^3
# Si number density = 21.070375 Si / 1000 Ang^3
#
#
#
# Elastic Constant Matrix: (Units=GPa)
#
#
# Indices 1 2 3 4 5 6 
#
# 1 105.2510 -3.7826 -8.0833 0.0000 0.0000 0.0000
# 2 -3.7826 31.3661 -7.1255 0.0000 0.0000 0.0000
# 3 -8.0833 -7.1255 51.3858 0.0000 0.0000 0.0000
# 4 0.0000 0.0000 0.0000 39.0184 0.0000 0.0000
# 5 0.0000 0.0000 0.0000 0.0000 49.0636 0.0000
# 6 0.0000 0.0000 0.0000 0.0000 0.0000 26.2351
#
#
#
# Elastic Compliance Matrix: (Units=1/GPa)
#
#
# Indices 1 2 3 4 5 6 
#
# 1 0.009691 0.001564 0.001741 0.000000 0.000000 0.000000
# 2 0.001564 0.033171 0.004846 0.000000 0.000000 0.000000
# 3 0.001741 0.004846 0.020407 0.000000 0.000000 0.000000
# 4 0.000000 0.000000 0.000000 0.025629 0.000000 0.000000
# 5 0.000000 0.000000 0.000000 0.000000 0.020382 0.000000
# 6 0.000000 0.000000 0.000000 0.000000 0.000000 0.038117
#
#
# Mechanical properties :
#
#
# Convention : Reuss Voigt Hill
#
# Bulk Modulus (GPa) = 12.56730 16.66888 14.61809
# Shear Modulus (GPa) = 31.72246 36.66305 34.19275
#
# Velocity S-wave (km/s) = 3.88435 4.17589 4.03275
# Velocity P-wave (km/s) = 5.10832 5.58381 5.35135
#
# Compressibility (1/GPa) = 0.07957162
#
# Stress axis : x y z
#
# Youngs Moduli (GPa) = 103.18792 30.14676 49.00395
#
# Poissons Ratio (x) = -0.04716 -0.08533
# Poissons Ratio (y) = -0.16142 -0.23746
# Poissons Ratio (z) = -0.17969 -0.14609
#
# Static dielectric constant tensor:
#      x y z
#    x 1.781750 0.000000 0.000000 
#    y 0.000000 1.587510 0.000000 
#    z 0.000000 0.000000 1.916210 
# 
# From -- ./inp_files/1520.got.cif
#   From: 2010.05.17/outbox.cif.g08.bks.cpg/sg21_1_cif.got.tgz:1520.got - 2010.06.03 23:14:55.
