data_PCOD9323483
_publ_section_title
;
Structure prediction by ZEFSAII (Michael W. Deem and Ramdas Pophale) SiO2 
 PCOD9323483
Probable space group: C 2 2 2
;
_chemical_formula_sum "Si O2"
_cell_formula_units_Z 56
_cell_length_a 11.441342
_cell_length_b 14.246934
_cell_length_c 15.923309
_cell_angle_alpha 90.000000
_cell_angle_beta 90.000000
_cell_angle_gamma 90.000000
_cell_volume 2595.563766
_symmetry_space_group_name_H-M "C 2 2 2"
_symmetry_group_IT_number 21
_symmetry_cell_setting 'orthorhombic'
loop_
_space_group_symop_operation_xyz
x,y,z
-x,-y,z
x,-y,-z
-x,y,-z
1/2+x,1/2+y,z
1/2-x,1/2-y,z
1/2+x,1/2-y,-z
1/2-x,1/2+y,-z
loop_
_atom_site_type_symbol
_atom_site_label
_atom_site_fract_x
_atom_site_fract_y
_atom_site_fract_z
Si Si1 0.874484 0.961454 0.134050
Si Si2 0.929115 0.158752 0.699721
Si Si3 0.868523 0.779254 0.035177
Si Si4 0.869447 0.888961 0.480344
Si Si5 0.937811 0.657096 0.195474
Si Si6 0.298038 0.651013 0.345987
Si Si7 0.829367 0.450668 0.208798
O O1 0.889942 0.906419 0.223029
O O2 0.842615 0.883891 0.066745
O O3 0.780701 0.043173 0.146596
O O4 0.000000 0.000000 0.111789
O O5 0.853537 0.135667 0.616903
O O6 0.924207 0.266875 0.730007
O O7 0.065826 0.137055 0.678793
O O8 0.750000 0.750000 0.986802
O O9 0.882863 0.709447 0.115416
O O10 0.000000 0.778061 0.000000
O O11 0.787352 0.850914 0.553491
O O12 0.000000 0.851741 0.500000
O O13 0.871336 0.000000 0.500000
O O14 0.877992 0.556646 0.209641
O O15 0.072783 0.625284 0.183953
O O16 0.250000 0.750000 0.314115
O O17 0.220055 0.574432 0.300071
#
# Coordination Sequence:
#
# PCOD9323483 Si02
#       7
#     8   8   8   8   8   8   8
#     4  11  22  38  69  98 127 168 229 280 329 407
#     4  10  20  37  62  90 125 168 222 284 336 399
#     4  11  25  48  70 102 145 181 221 277 349 420
#     4   9  19  34  54  81 124 167 217 275 346 398
#     4  10  23  42  67  97 130 180 226 274 342 416
#     4  11  20  36  58  92 127 167 222 284 341 398
#     4  11  21  39  67  95 131 167 233 279 330 411
#
# _framework density 21.575274
#
# number of rings (size 3 to 8) (size 9 to 14) (size 15 to 20)
#    0.000    1.571    4.286    0.857    2.000    1.429 
#    5.143    1.429    0.000    0.000    0.000    0.000 
#    0.000    0.000    0.000    0.000    0.000    0.000 
#
# Total GULP energy -156325.593249 kJ/mol
# GULP energy per Si atom -5583.056902 kJ/mol
# Density = 2.152617 g / cm^3
# Si number density = 21.575274 Si / 1000 Ang^3
#
#
#
# Elastic Constant Matrix: (Units=GPa)
#
#
# Indices 1 2 3 4 5 6 
#
# 1 106.9605 4.9158 12.9529 0.0000 0.0000 0.0000
# 2 4.9158 66.6188 7.9775 0.0000 0.0000 0.0000
# 3 12.9529 7.9775 42.1473 0.0000 0.0000 0.0000
# 4 0.0000 0.0000 0.0000 18.5032 0.0000 0.0000
# 5 0.0000 0.0000 0.0000 0.0000 16.5516 0.0000
# 6 0.0000 0.0000 0.0000 0.0000 0.0000 28.3975
#
#
#
# Elastic Compliance Matrix: (Units=1/GPa)
#
#
# Indices 1 2 3 4 5 6 
#
# 1 0.009719 -0.000368 -0.002917 0.000000 0.000000 0.000000
# 2 -0.000368 0.015373 -0.002797 0.000000 0.000000 0.000000
# 3 -0.002917 -0.002797 0.025152 0.000000 0.000000 0.000000
# 4 0.000000 0.000000 0.000000 0.054045 0.000000 0.000000
# 5 0.000000 0.000000 0.000000 0.000000 0.060417 0.000000
# 6 0.000000 0.000000 0.000000 0.000000 0.000000 0.035214
#
#
# Mechanical properties :
#
#
# Convention : Reuss Voigt Hill
#
# Bulk Modulus (GPa) = 26.26003 29.71321 27.98662
# Shear Modulus (GPa) = 22.24416 25.34915 23.79665
#
# Velocity S-wave (km/s) = 3.21441 3.43142 3.32469
# Velocity P-wave (km/s) = 5.09650 5.43151 5.26667
#
# Compressibility (1/GPa) = 0.03808069
#
# Stress axis : x y z
#
# Youngs Moduli (GPa) = 102.88648 65.04990 39.75792
#
# Poissons Ratio (x) = 0.02393 0.11599
# Poissons Ratio (y) = 0.03785 0.11119
# Poissons Ratio (z) = 0.30016 0.18192
#
# Static dielectric constant tensor:
#      x y z
#    x 1.847840 0.000000 0.000000 
#    y 0.000000 1.798540 0.000000 
#    z 0.000000 0.000000 1.798360 
# 
# From -- ./inp_files/31571.got.cif
#   From: 2010.05.17/outbox.cif.g08.bks.cpg/sg21_16_cif.got.tgz:31571.got - 2010.06.03 23:14:55.
