data_PCOD9323436
_publ_section_title
;
Structure prediction by ZEFSAII (Michael W. Deem and Ramdas Pophale) SiO2 
 PCOD9323436
Probable space group: C 2 2 2
;
_chemical_formula_sum "Si O2"
_cell_formula_units_Z 58
_cell_length_a 24.820329
_cell_length_b 8.568928
_cell_length_c 13.249815
_cell_angle_alpha 90.000000
_cell_angle_beta 90.000000
_cell_angle_gamma 90.000000
_cell_volume 2818.018514
_symmetry_space_group_name_H-M "C 2 2 2"
_symmetry_group_IT_number 21
_symmetry_cell_setting 'orthorhombic'
loop_
_space_group_symop_operation_xyz
x,y,z
-x,-y,z
x,-y,-z
-x,y,-z
1/2+x,1/2+y,z
1/2-x,1/2-y,z
1/2+x,1/2-y,-z
1/2-x,1/2+y,-z
loop_
_atom_site_type_symbol
_atom_site_label
_atom_site_fract_x
_atom_site_fract_y
_atom_site_fract_z
Si Si1 0.578866 0.433515 0.609641
Si Si2 0.789791 0.610700 0.921592
Si Si3 0.352139 0.163994 0.444292
Si Si4 0.592794 0.244051 0.031879
Si Si5 0.060553 0.961489 0.848118
Si Si6 0.000000 0.500000 0.000000
Si Si7 0.317748 0.651275 0.373471
Si Si8 0.794555 0.471470 0.291212
O O1 0.556731 0.500000 0.500000
O O2 0.594451 0.256978 0.582741
O O3 0.557415 0.435199 0.726057
O O4 0.632893 0.534838 0.625646
O O5 0.750000 0.750000 0.892993
O O6 0.796253 0.502385 0.825471
O O7 0.760542 0.500000 0.000000
O O8 0.847917 0.667812 0.960887
O O9 0.316183 0.275344 0.514807
O O10 0.362328 0.000000 0.500000
O O11 0.319872 0.116068 0.346718
O O12 0.582067 0.321691 0.920698
O O13 0.543724 0.120014 0.051397
O O14 0.591939 0.382815 0.115336
O O15 0.000000 0.000000 0.881035
O O16 0.263762 0.568340 0.337267
O O17 0.326596 0.807659 0.307793
#
# Coordination Sequence:
#
# PCOD9323436 Si02
#       8
#     8   8   8   8   8   2   8   8
#     4  10  22  37  60  94 126 170 212 268 333 400
#     4  12  27  42  61  94 138 184 211 262 343 417
#     4   9  20  34  57  87 122 164 221 267 312 369
#     4  11  24  44  71 100 131 167 230 292 334 400
#     4  11  23  43  71  98 126 168 220 284 341 399
#     4  12  20  46  72 104 126 162 244 294 340 384
#     4   9  18  35  56  81 117 166 217 261 309 375
#     4  10  20  37  55  82 122 169 210 270 315 379
#
# _framework density 20.581835999999999
#
# number of rings (size 3 to 8) (size 9 to 14) (size 15 to 20)
#    0.000    1.655    3.448    1.241    3.862   10.207 
#    0.000    0.000    0.000    0.000    0.000    0.000 
#    0.000    0.000    0.000    0.000    0.000    0.000 
#
# Total GULP energy -161469.916461 kJ/mol
# GULP energy per Si atom -5567.928154 kJ/mol
# Density = 2.053499 g / cm^3
# Si number density = 20.581836 Si / 1000 Ang^3
#
#
#
# Elastic Constant Matrix: (Units=GPa)
#
#
# Indices 1 2 3 4 5 6 
#
# 1 78.2676 22.1131 13.2604 0.0000 0.0000 0.0000
# 2 22.1131 32.9656 22.1427 0.0000 0.0000 0.0000
# 3 13.2604 22.1427 156.5689 0.0000 0.0000 0.0000
# 4 0.0000 0.0000 0.0000 -6.1015 0.0000 0.0000
# 5 0.0000 0.0000 0.0000 0.0000 9.2145 0.0000
# 6 0.0000 0.0000 0.0000 0.0000 0.0000 2.0824
#
#
#
# Elastic Compliance Matrix: (Units=1/GPa)
#
#
# Indices 1 2 3 4 5 6 
#
# 1 0.015769 -0.010697 0.000177 0.000000 0.000000 0.000000
# 2 -0.010697 0.040775 -0.004861 0.000000 0.000000 0.000000
# 3 0.000177 -0.004861 0.007059 0.000000 0.000000 0.000000
# 4 0.000000 0.000000 0.000000 -0.163893 0.000000 0.000000
# 5 0.000000 0.000000 0.000000 0.000000 0.108525 0.000000
# 6 0.000000 0.000000 0.000000 0.000000 0.000000 0.480206
#
#
# Mechanical properties :
#
#
# Convention : Reuss Voigt Hill
#
# Bulk Modulus (GPa) = 30.44805 42.53716 36.49260
# Shear Modulus (GPa) = 9.43134 15.05814 12.24474
#
# Velocity S-wave (km/s) = 2.14297 2.70779 2.44176
# Velocity P-wave (km/s) = 4.57699 5.52163 5.07135
#
# Compressibility (1/GPa) = 0.03284283
#
# Stress axis : x y z
#
# Youngs Moduli (GPa) = 63.41640 24.52505 141.65585
#
# Poissons Ratio (x) = 0.26234 -0.02511
# Poissons Ratio (y) = 0.67834 0.68853
# Poissons Ratio (z) = -0.01124 0.11921
#
# Static dielectric constant tensor:
#      x y z
#    x 1.740530 0.000000 0.000000 
#    y 0.000000 1.776390 0.000000 
#    z 0.000000 0.000000 1.816100 
# 
# From -- ./inp_files/27795.got.cif
#   From: 2010.05.17/outbox.cif.g08.bks.cpg/sg21_14_cif.got.tgz:27795.got - 2010.06.03 23:14:55.
