data_PCOD9323054
_publ_section_title
;
Structure prediction by ZEFSAII (Michael W. Deem and Ramdas Pophale) SiO2 
 PCOD9323054
Probable space group: C 2 2 2
;
_chemical_formula_sum "Si O2"
_cell_formula_units_Z 42
_cell_length_a 9.489833
_cell_length_b 26.578180
_cell_length_c 8.979249
_cell_angle_alpha 90.000000
_cell_angle_beta 90.000000
_cell_angle_gamma 90.000000
_cell_volume 2264.768538
_symmetry_space_group_name_H-M "C 2 2 2"
_symmetry_group_IT_number 21
_symmetry_cell_setting 'orthorhombic'
loop_
_space_group_symop_operation_xyz
x,y,z
-x,-y,z
x,-y,-z
-x,y,-z
1/2+x,1/2+y,z
1/2-x,1/2-y,z
1/2+x,1/2-y,-z
1/2-x,1/2+y,-z
loop_
_atom_site_type_symbol
_atom_site_label
_atom_site_fract_x
_atom_site_fract_y
_atom_site_fract_z
Si Si1 0.679576 0.407650 0.133137
Si Si2 0.302017 0.865521 0.821564
Si Si3 0.500000 0.500000 0.000000
Si Si4 0.981432 0.166664 0.674646
Si Si5 0.980345 0.556527 0.818611
Si Si6 0.417390 0.239493 0.148226
O O1 0.597276 0.460000 0.092318
O O2 0.585583 0.369098 0.229298
O O3 0.825828 0.422219 0.212294
O O4 0.727776 0.380443 0.978662
O O5 0.176070 0.849838 0.716157
O O6 0.390450 0.911506 0.759558
O O7 0.415352 0.820479 0.835318
O O8 0.985072 0.225224 0.725817
O O9 0.000000 0.161498 0.500000
O O10 0.000000 0.500000 0.769728
O O11 0.000000 0.558167 0.000000
O O12 0.250000 0.250000 0.133855
O O13 0.500000 0.253860 0.000000
#
# Coordination Sequence:
#
# PCOD9323054 Si02
#       6
#     8   8   2   8   8   8
#     4  11  20  36  64  91 118 154 199 258 307 362
#     4  10  19  39  59  88 118 153 198 256 305 359
#     4  12  20  32  68  96 116 148 208 260 310 364
#     4  11  23  39  57  84 122 161 203 244 301 372
#     4   9  18  32  58  89 116 145 188 247 309 363
#     4  10  20  36  61  87 115 152 199 255 306 358
#
# _framework density 18.54494
#
# number of rings (size 3 to 8) (size 9 to 14) (size 15 to 20)
#    0.000    1.714    1.905    6.286    0.000    0.000 
#    0.000   15.714    0.000    1.143    0.000    0.000 
#    0.000    0.000    0.000    0.000    0.000    0.000 
#
# Total GULP energy -117050.756883 kJ/mol
# GULP energy per Si atom -5573.845566 kJ/mol
# Density = 1.850273 g / cm^3
# Si number density = 18.544940 Si / 1000 Ang^3
#
#
#
# Elastic Constant Matrix: (Units=GPa)
#
#
# Indices 1 2 3 4 5 6 
#
# 1 79.8255 36.7275 40.3261 0.0000 0.0000 0.0000
# 2 36.7275 130.8083 47.2781 0.0000 0.0000 0.0000
# 3 40.3261 47.2781 80.9718 0.0000 0.0000 0.0000
# 4 0.0000 0.0000 0.0000 -0.2898 0.0000 0.0000
# 5 0.0000 0.0000 0.0000 0.0000 3.8606 0.0000
# 6 0.0000 0.0000 0.0000 0.0000 0.0000 28.8886
#
#
#
# Elastic Compliance Matrix: (Units=1/GPa)
#
#
# Indices 1 2 3 4 5 6 
#
# 1 0.017224 -0.002200 -0.007293 0.000000 0.000000 0.000000
# 2 -0.002200 0.009971 -0.004726 0.000000 0.000000 0.000000
# 3 -0.007293 -0.004726 0.018742 0.000000 0.000000 0.000000
# 4 0.000000 0.000000 0.000000 -3.450924 0.000000 0.000000
# 5 0.000000 0.000000 0.000000 0.000000 0.259026 0.000000
# 6 0.000000 0.000000 0.000000 0.000000 0.000000 0.034616
#
#
# Mechanical properties :
#
#
# Convention : Reuss Voigt Hill
#
# Bulk Modulus (GPa) = 57.15122 60.02987 58.59055
# Shear Modulus (GPa) = -1.62492 17.64349 8.00928
#
# Velocity S-wave (km/s) = -0.93707 3.08781 2.08044
# Velocity P-wave (km/s) = 5.45103 6.71960 6.11828
#
# Compressibility (1/GPa) = 0.01749744
#
# Stress axis : x y z
#
# Youngs Moduli (GPa) = 58.05841 100.29497 53.35676
#
# Poissons Ratio (x) = 0.22064 0.38916
# Poissons Ratio (y) = 0.12773 0.25217
# Poissons Ratio (z) = 0.42345 0.47400
#
# Static dielectric constant tensor:
#      x y z
#    x 1.638690 0.000000 0.000000 
#    y 0.000000 1.731010 0.000000 
#    z 0.000000 0.000000 1.619330 
# 
# From -- ./inp_files/11218.got.cif
#   From: 2010.05.17/outbox.cif.g08.bks.cpg/sg21_6_cif.got.tgz:11218.got - 2010.06.03 23:14:55.
