data_PCOD9323926
_publ_section_title
;
Structure prediction by ZEFSAII (Michael W. Deem and Ramdas Pophale) SiO2 
 PCOD9323926
Probable space group: C 2 2 2
;
_chemical_formula_sum "Si O2"
_cell_formula_units_Z 26
_cell_length_a 8.214605
_cell_length_b 17.359230
_cell_length_c 9.267635
_cell_angle_alpha 90.000000
_cell_angle_beta 90.000000
_cell_angle_gamma 90.000000
_cell_volume 1321.557500
_symmetry_space_group_name_H-M "C 2 2 2"
_symmetry_group_IT_number 21
_symmetry_cell_setting 'orthorhombic'
loop_
_space_group_symop_operation_xyz
x,y,z
-x,-y,z
x,-y,-z
-x,y,-z
1/2+x,1/2+y,z
1/2-x,1/2-y,z
1/2+x,1/2-y,-z
1/2-x,1/2+y,-z
loop_
_atom_site_type_symbol
_atom_site_label
_atom_site_fract_x
_atom_site_fract_y
_atom_site_fract_z
Si Si1 0.916460 0.923963 0.725512
Si Si2 0.500000 0.500000 0.000000
Si Si3 0.861315 0.322022 0.385768
Si Si4 0.437646 0.727299 0.836762
O O1 0.757545 0.892488 0.648553
O O2 0.035635 0.850934 0.744481
O O3 0.000000 0.000000 0.661216
O O4 0.889183 0.950620 0.891841
O O5 0.750000 0.250000 0.438305
O O6 0.000000 0.339945 0.500000
O O7 0.949513 0.290744 0.241445
O O8 0.250000 0.750000 0.836806
O O9 0.500000 0.716697 0.000000
#
# Coordination Sequence:
#
# PCOD9323926 Si02
#       4
#     8   2   8   8
#     4   9  18  35  63  89 126 158 201 261 318 361
#     4   8  16  32  64  94 126 148 200 258 320 356
#     4  10  21  37  61  91 125 166 208 255 306 370
#     4  11  20  33  59  92 122 160 209 256 306 364
#
# _framework density 19.673755
#
# number of rings (size 3 to 8) (size 9 to 14) (size 15 to 20)
#    0.923    1.231    1.538    3.692    0.000    0.000 
#    0.000    1.538    0.000   53.538    0.000    0.000 
#    0.000    0.000    0.000    0.000    0.000    0.000 
#
# Total GULP energy -72485.936169 kJ/mol
# GULP energy per Si atom -5575.841244 kJ/mol
# Density = 1.962898 g / cm^3
# Si number density = 19.673755 Si / 1000 Ang^3
#
#
#
# Elastic Constant Matrix: (Units=GPa)
#
#
# Indices 1 2 3 4 5 6 
#
# 1 171.3632 93.6751 58.1465 0.0000 0.0000 0.0000
# 2 93.6751 128.8955 50.5311 0.0000 0.0000 0.0000
# 3 58.1465 50.5311 90.9989 0.0000 0.0000 0.0000
# 4 0.0000 0.0000 0.0000 -2.8318 0.0000 0.0000
# 5 0.0000 0.0000 0.0000 0.0000 37.3440 0.0000
# 6 0.0000 0.0000 0.0000 0.0000 0.0000 32.1797
#
#
#
# Elastic Compliance Matrix: (Units=1/GPa)
#
#
# Indices 1 2 3 4 5 6 
#
# 1 0.010327 -0.006287 -0.003108 0.000000 0.000000 0.000000
# 2 -0.006287 0.013744 -0.003615 0.000000 0.000000 0.000000
# 3 -0.003108 -0.003615 0.014982 0.000000 0.000000 0.000000
# 4 0.000000 0.000000 0.000000 -0.353129 0.000000 0.000000
# 5 0.000000 0.000000 0.000000 0.000000 0.026778 0.000000
# 6 0.000000 0.000000 0.000000 0.000000 0.000000 0.031075
#
#
# Mechanical properties :
#
#
# Convention : Reuss Voigt Hill
#
# Bulk Modulus (GPa) = 76.71900 88.44032 82.57966
# Shear Modulus (GPa) = -22.13772 25.93204 1.89716
#
# Velocity S-wave (km/s) = -3.35810 3.63451 0.98306
# Velocity P-wave (km/s) = 4.90352 7.91605 6.58439
#
# Compressibility (1/GPa) = 0.01303458
#
# Stress axis : x y z
#
# Youngs Moduli (GPa) = 96.83785 72.75778 66.74566
#
# Poissons Ratio (x) = 0.45740 0.20742
# Poissons Ratio (y) = 0.60878 0.24129
# Poissons Ratio (z) = 0.30093 0.26303
#
# Static dielectric constant tensor:
#      x y z
#    x 1.644410 0.000000 0.000000 
#    y 0.000000 1.724150 0.000000 
#    z 0.000000 0.000000 1.721890 
# 
# From -- ./inp_files/10027.got.cif
#   From: 2010.05.17/outbox.cif.g08.bks.cpg/sg21_6_cif.got.tgz:10027.got - 2010.06.03 23:14:55.
