data_PCOD9323446
_publ_section_title
;
Structure prediction by ZEFSAII (Michael W. Deem and Ramdas Pophale) SiO2 
 PCOD9323446
Probable space group: C 2 2 2
;
_chemical_formula_sum "Si O2"
_cell_formula_units_Z 48
_cell_length_a 10.452482
_cell_length_b 14.799713
_cell_length_c 13.582977
_cell_angle_alpha 90.000000
_cell_angle_beta 90.000000
_cell_angle_gamma 90.000000
_cell_volume 2101.201427
_symmetry_space_group_name_H-M "C 2 2 2"
_symmetry_group_IT_number 21
_symmetry_cell_setting 'orthorhombic'
loop_
_space_group_symop_operation_xyz
x,y,z
-x,-y,z
x,-y,-z
-x,y,-z
1/2+x,1/2+y,z
1/2-x,1/2-y,z
1/2+x,1/2-y,-z
1/2-x,1/2+y,-z
loop_
_atom_site_type_symbol
_atom_site_label
_atom_site_fract_x
_atom_site_fract_y
_atom_site_fract_z
Si Si1 0.758541 0.095188 0.946863
Si Si2 0.893599 0.641428 0.423340
Si Si3 0.750457 0.850317 0.840825
Si Si4 0.525405 0.633935 0.207212
Si Si5 0.108789 0.861993 0.574895
Si Si6 0.033173 0.646006 0.798443
O O1 0.884326 0.099908 0.879924
O O2 0.637304 0.117698 0.878984
O O3 0.770049 0.157962 0.042279
O O4 0.742946 0.000000 0.000000
O O5 0.893657 0.751700 0.425284
O O6 0.752087 0.610683 0.452527
O O7 0.924488 0.617165 0.310636
O O8 0.000000 0.610516 0.500000
O O9 0.750000 0.750000 0.794689
O O10 0.610009 0.889263 0.820447
O O11 0.878340 0.897086 0.801400
O O12 0.579641 0.609733 0.313711
O O13 0.528530 0.743983 0.198986
O O14 0.000000 0.892474 0.500000
#
# Coordination Sequence:
#
# PCOD9323446 Si02
#       6
#     8   8   8   8   8   8
#     4  12  24  38  57  82 114 160 211 250 298 355
#     4   9  17  29  51  84 121 154 187 236 296 361
#     4  10  22  36  57  84 113 154 201 246 303 373
#     4  10  20  37  58  85 123 160 195 246 307 361
#     4   9  17  29  51  84 121 154 187 236 296 361
#     4  10  20  37  58  85 123 160 195 246 307 361
#
# _framework density 22.844073999999999
#
# number of rings (size 3 to 8) (size 9 to 14) (size 15 to 20)
#    0.000    2.000    1.667    2.500    2.333    5.333 
#    0.000    0.000    0.000    0.000    0.000    7.000 
#    0.000    0.000    0.000    0.000    0.000    1.333 
#
# Total GULP energy -134217.161882 kJ/mol
# GULP energy per Si atom -5592.381745 kJ/mol
# Density = 2.279208 g / cm^3
# Si number density = 22.844074 Si / 1000 Ang^3
#
#
#
# Elastic Constant Matrix: (Units=GPa)
#
#
# Indices 1 2 3 4 5 6 
#
# 1 193.1491 -12.0020 60.7504 0.0000 0.0000 0.0000
# 2 -12.0020 54.9378 -3.4306 0.0000 0.0000 0.0000
# 3 60.7504 -3.4306 106.5681 0.0000 0.0000 0.0000
# 4 0.0000 0.0000 0.0000 2.2830 0.0000 0.0000
# 5 0.0000 0.0000 0.0000 0.0000 46.6494 0.0000
# 6 0.0000 0.0000 0.0000 0.0000 0.0000 -3.3571
#
#
#
# Elastic Compliance Matrix: (Units=1/GPa)
#
#
# Indices 1 2 3 4 5 6 
#
# 1 0.006383 0.001170 -0.003601 0.000000 0.000000 0.000000
# 2 0.001170 0.018453 -0.000073 0.000000 0.000000 0.000000
# 3 -0.003601 -0.000073 0.011434 0.000000 0.000000 0.000000
# 4 0.000000 0.000000 0.000000 0.438021 0.000000 0.000000
# 5 0.000000 0.000000 0.000000 0.000000 0.021437 0.000000
# 6 0.000000 0.000000 0.000000 0.000000 0.000000 -0.297872
#
#
# Mechanical properties :
#
#
# Convention : Reuss Voigt Hill
#
# Bulk Modulus (GPa) = 31.98767 49.47675 40.73221
# Shear Modulus (GPa) = 23.44295 29.73752 26.59024
#
# Velocity S-wave (km/s) = 3.20694 3.61191 3.41543
# Velocity P-wave (km/s) = 5.26741 6.25300 5.78124
#
# Compressibility (1/GPa) = 0.03126204
#
# Stress axis : x y z
#
# Youngs Moduli (GPa) = 156.67672 54.19066 87.45830
#
# Poissons Ratio (x) = -0.06338 0.31492
# Poissons Ratio (y) = -0.18324 0.00635
# Poissons Ratio (z) = 0.56416 0.00394
#
# Static dielectric constant tensor:
#      x y z
#    x 1.826860 0.000000 0.000000 
#    y 0.000000 1.996270 0.000000 
#    z 0.000000 0.000000 1.779350 
# 
# From -- ./inp_files/30529.got.cif
#   From: 2010.05.17/outbox.cif.g08.bks.cpg/sg21_16_cif.got.tgz:30529.got - 2010.06.03 23:14:55.
