data_PCOD9323343
_publ_section_title
;
Structure prediction by ZEFSAII (Michael W. Deem and Ramdas Pophale) SiO2 
 PCOD9323343
Probable space group: C 2 2 2
;
_chemical_formula_sum "Si O2"
_cell_formula_units_Z 48
_cell_length_a 7.456975
_cell_length_b 38.720875
_cell_length_c 8.143147
_cell_angle_alpha 90.000000
_cell_angle_beta 90.000000
_cell_angle_gamma 90.000000
_cell_volume 2351.257125
_symmetry_space_group_name_H-M "C 2 2 2"
_symmetry_group_IT_number 21
_symmetry_cell_setting 'orthorhombic'
loop_
_space_group_symop_operation_xyz
x,y,z
-x,-y,z
x,-y,-z
-x,y,-z
1/2+x,1/2+y,z
1/2-x,1/2-y,z
1/2+x,1/2-y,-z
1/2-x,1/2+y,-z
loop_
_atom_site_type_symbol
_atom_site_label
_atom_site_fract_x
_atom_site_fract_y
_atom_site_fract_z
Si Si1 0.208866 0.406611 0.194798
Si Si2 0.718788 0.831944 0.681659
Si Si3 0.500000 0.539611 0.697088
Si Si4 0.214537 0.709455 1.000000
Si Si5 0.708866 0.093389 0.194798
Si Si6 0.281212 0.168056 0.318341
O O1 0.328831 0.439051 0.241069
O O2 0.269134 0.371746 0.286002
O O3 1.000000 0.412701 0.234369
O O4 0.222198 0.399828 1.000000
O O5 0.769134 0.871746 0.713998
O O6 0.776771 0.820761 0.500000
O O7 0.500000 0.831235 0.683608
O O8 0.782044 0.808765 0.833740
O O9 0.500000 0.500000 0.754145
O O10 0.500000 0.539785 0.500000
O O11 0.671169 0.560949 0.758931
O O12 0.250000 0.750000 1.000000
O O13 0.282044 0.691235 0.833740
O O14 0.000000 0.704365 0.000000
#
# Coordination Sequence:
#
# PCOD9323343 Si02
#       6
#     8   8   8   8   8   8
#     4  10  20  38  64  90 116 155 208 257 305 364
#     4   9  17  33  58  82 110 152 198 244 293 353
#     4  11  25  41  57  87 129 165 203 256 311 367
#     4  10  20  36  54  80 114 147 189 238 298 363
#     4  10  20  38  64  90 116 155 208 257 305 364
#     4   9  17  33  58  82 110 152 198 244 293 353
#
# _framework density 20.414612999999999
#
# number of rings (size 3 to 8) (size 9 to 14) (size 15 to 20)
#    0.000    2.167    1.667    1.500    0.000    4.667 
#    3.000    3.333    0.000    0.000    0.000    0.000 
#    0.000    0.000    0.000    0.000    0.000    0.000 
#
# Total GULP energy -134122.377907 kJ/mol
# GULP energy per Si atom -5588.432413 kJ/mol
# Density = 2.036815 g / cm^3
# Si number density = 20.414613 Si / 1000 Ang^3
#
#
#
# Elastic Constant Matrix: (Units=GPa)
#
#
# Indices 1 2 3 4 5 6 
#
# 1 70.2836 32.7601 35.0290 0.0000 0.0000 0.0000
# 2 32.7601 156.5592 85.8057 0.0000 0.0000 0.0000
# 3 35.0290 85.8057 150.9474 0.0000 0.0000 0.0000
# 4 0.0000 0.0000 0.0000 6.9959 0.0000 0.0000
# 5 0.0000 0.0000 0.0000 0.0000 10.6274 0.0000
# 6 0.0000 0.0000 0.0000 0.0000 0.0000 30.2211
#
#
#
# Elastic Compliance Matrix: (Units=1/GPa)
#
#
# Indices 1 2 3 4 5 6 
#
# 1 0.016495 -0.001966 -0.002710 0.000000 0.000000 0.000000
# 2 -0.001966 0.009512 -0.004951 0.000000 0.000000 0.000000
# 3 -0.002710 -0.004951 0.010068 0.000000 0.000000 0.000000
# 4 0.000000 0.000000 0.000000 0.142940 0.000000 0.000000
# 5 0.000000 0.000000 0.000000 0.000000 0.094096 0.000000
# 6 0.000000 0.000000 0.000000 0.000000 0.000000 0.033089
#
#
# Mechanical properties :
#
#
# Convention : Reuss Voigt Hill
#
# Bulk Modulus (GPa) = 59.44990 76.10886 67.77938
# Shear Modulus (GPa) = 15.10286 24.51527 19.80906
#
# Velocity S-wave (km/s) = 2.72289 3.46911 3.11840
# Velocity P-wave (km/s) = 6.25060 7.30813 6.79996
#
# Compressibility (1/GPa) = 0.01682089
#
# Stress axis : x y z
#
# Youngs Moduli (GPa) = 60.62329 105.12739 99.32365
#
# Poissons Ratio (x) = 0.20671 0.26919
# Poissons Ratio (y) = 0.11920 0.49174
# Poissons Ratio (z) = 0.16430 0.52048
#
# Static dielectric constant tensor:
#      x y z
#    x 1.747750 0.000000 0.000000 
#    y 0.000000 1.666810 0.000000 
#    z 0.000000 0.000000 1.735230 
# 
# From -- ./inp_files/11538.got.cif
#   From: 2010.05.17/outbox.cif.g08.bks.cpg/sg21_6_cif.got.tgz:11538.got - 2010.06.03 23:14:55.
