data_PCOD9323632
_publ_section_title
;
Structure prediction by ZEFSAII (Michael W. Deem and Ramdas Pophale) SiO2 
 PCOD9323632
Probable space group: C 2 2 2
;
_chemical_formula_sum "Si O2"
_cell_formula_units_Z 40
_cell_length_a 20.631134
_cell_length_b 6.256259
_cell_length_c 13.331138
_cell_angle_alpha 90.000000
_cell_angle_beta 90.000000
_cell_angle_gamma 90.000000
_cell_volume 1720.699544
_symmetry_space_group_name_H-M "C 2 2 2"
_symmetry_group_IT_number 21
_symmetry_cell_setting 'orthorhombic'
loop_
_space_group_symop_operation_xyz
x,y,z
-x,-y,z
x,-y,-z
-x,y,-z
1/2+x,1/2+y,z
1/2-x,1/2-y,z
1/2+x,1/2-y,-z
1/2-x,1/2+y,-z
loop_
_atom_site_type_symbol
_atom_site_label
_atom_site_fract_x
_atom_site_fract_y
_atom_site_fract_z
Si Si1 0.933612 0.098179 0.703836
Si Si2 0.292323 0.425260 0.099336
Si Si3 0.182324 0.618007 0.604390
Si Si4 0.912582 0.365307 0.900608
Si Si5 0.843258 0.284536 0.234377
O O1 0.881077 0.245128 0.642777
O O2 0.949350 0.227936 0.810450
O O3 0.894847 0.879878 0.721321
O O4 0.000000 0.000000 0.658967
O O5 0.250000 0.250000 0.154939
O O6 0.358754 0.309265 0.067175
O O7 0.303271 0.623394 0.167462
O O8 0.255869 0.500000 0.000000
O O9 0.168056 0.500000 0.500000
O O10 0.250000 0.750000 0.597290
O O11 0.191146 0.425121 0.682548
O O12 0.878190 0.548585 0.837577
O O13 0.935520 0.500000 0.000000
#
# Coordination Sequence:
#
# PCOD9323632 Si02
#       5
#     8   8   8   8   8
#     4  10  25  48  77 112 152 197 259 323 382 471
#     4  11  22  35  58  97 145 196 252 311 372 458
#     4  11  28  51  80 110 149 201 261 331 409 488
#     4  10  20  39  65  96 147 202 253 300 372 456
#     4  10  24  45  68  99 148 193 251 315 382 457
#
# _framework density 23.246359999999999
#
# number of rings (size 3 to 8) (size 9 to 14) (size 15 to 20)
#    0.000    1.600    2.000    0.600    2.800   12.000 
#    0.000    6.000    0.000    0.000    0.000    0.000 
#    0.000    0.000    0.000    0.000    0.000    0.000 
#
# Total GULP energy -111527.115940 kJ/mol
# GULP energy per Si atom -5576.355797 kJ/mol
# Density = 2.319345 g / cm^3
# Si number density = 23.246360 Si / 1000 Ang^3
#
#
#
# Elastic Constant Matrix: (Units=GPa)
#
#
# Indices 1 2 3 4 5 6 
#
# 1 125.3964 67.5936 46.4414 0.0000 0.0000 0.0000
# 2 67.5936 186.1739 64.9861 0.0000 0.0000 0.0000
# 3 46.4414 64.9861 125.7921 0.0000 0.0000 0.0000
# 4 0.0000 0.0000 0.0000 38.9068 0.0000 0.0000
# 5 0.0000 0.0000 0.0000 0.0000 0.9991 0.0000
# 6 0.0000 0.0000 0.0000 0.0000 0.0000 27.8585
#
#
#
# Elastic Compliance Matrix: (Units=1/GPa)
#
#
# Indices 1 2 3 4 5 6 
#
# 1 0.010439 -0.002983 -0.002313 0.000000 0.000000 0.000000
# 2 -0.002983 0.007405 -0.002724 0.000000 0.000000 0.000000
# 3 -0.002313 -0.002724 0.010211 0.000000 0.000000 0.000000
# 4 0.000000 0.000000 0.000000 0.025702 0.000000 0.000000
# 5 0.000000 0.000000 0.000000 0.000000 1.000930 0.000000
# 6 0.000000 0.000000 0.000000 0.000000 0.000000 0.035896
#
#
# Mechanical properties :
#
#
# Convention : Reuss Voigt Hill
#
# Bulk Modulus (GPa) = 83.22990 88.37828 85.80409
# Shear Modulus (GPa) = 4.50195 30.77561 17.63878
#
# Velocity S-wave (km/s) = 1.39314 3.64248 2.75758
# Velocity P-wave (km/s) = 6.20233 7.46933 6.86512
#
# Compressibility (1/GPa) = 0.01201491
#
# Stress axis : x y z
#
# Youngs Moduli (GPa) = 95.79277 135.03931 97.93230
#
# Poissons Ratio (x) = 0.40278 0.22653
# Poissons Ratio (y) = 0.28572 0.26681
# Poissons Ratio (z) = 0.22158 0.36791
#
# Static dielectric constant tensor:
#      x y z
#    x 2.197730 0.000000 0.000000 
#    y 0.000000 1.860330 0.000000 
#    z 0.000000 0.000000 1.943190 
# 
# From -- ./inp_files/33468.got.cif
#   From: 2010.05.17/outbox.cif.g08.bks.cpg/sg21_17_cif.got.tgz:33468.got - 2010.06.03 23:14:55.
