data_PCOD9323893
_publ_section_title
;
Structure prediction by ZEFSAII (Michael W. Deem and Ramdas Pophale) SiO2 
 PCOD9323893
Probable space group: C 2 2 2
;
_chemical_formula_sum "Si O2"
_cell_formula_units_Z 58
_cell_length_a 25.302516
_cell_length_b 14.015015
_cell_length_c 8.438289
_cell_angle_alpha 90.000000
_cell_angle_beta 90.000000
_cell_angle_gamma 90.000000
_cell_volume 2992.345046
_symmetry_space_group_name_H-M "C 2 2 2"
_symmetry_group_IT_number 21
_symmetry_cell_setting 'orthorhombic'
loop_
_space_group_symop_operation_xyz
x,y,z
-x,-y,z
x,-y,-z
-x,y,-z
1/2+x,1/2+y,z
1/2-x,1/2-y,z
1/2+x,1/2-y,-z
1/2-x,1/2+y,-z
loop_
_atom_site_type_symbol
_atom_site_label
_atom_site_fract_x
_atom_site_fract_y
_atom_site_fract_z
Si Si1 0.439477 0.638404 0.051740
Si Si2 0.143587 0.274469 0.914147
Si Si3 0.808787 0.663616 0.253119
Si Si4 0.219955 0.851481 0.263819
Si Si5 0.819599 0.464567 0.178510
Si Si6 0.500000 0.500000 0.500000
Si Si7 0.088863 0.965300 0.736724
Si Si8 0.691283 0.361713 0.621580
O O1 0.416644 0.743972 0.067543
O O2 0.426118 0.571870 0.202940
O O3 0.500000 0.633287 0.000000
O O4 0.411691 0.594380 0.897878
O O5 0.171489 0.179343 0.845774
O O6 0.149290 0.365940 0.800749
O O7 0.173906 0.301868 0.077079
O O8 0.831486 0.557607 0.282756
O O9 0.745571 0.644916 0.275183
O O10 0.827150 0.750505 0.364252
O O11 0.250000 0.750000 0.274805
O O12 0.258917 0.930237 0.193831
O O13 0.206110 0.880159 0.440867
O O14 0.828920 0.500000 0.000000
O O15 0.541530 0.442858 0.612588
O O16 0.146061 0.936455 0.669073
#
# Coordination Sequence:
#
# PCOD9323893 Si02
#       8
#     8   8   8   8   8   2   8   8
#     4  11  22  43  62  88 115 163 208 260 311 372
#     4  10  22  38  59  84 115 159 207 253 301 370
#     4  10  21  39  57  82 121 163 200 242 311 374
#     4  10  21  37  52  85 125 153 207 247 291 373
#     4   9  21  35  58  80 114 164 201 248 299 359
#     4  12  24  42  60  92 124 156 204 264 304 376
#     4  11  24  39  62  85 125 158 203 251 314 370
#     4  11  23  37  55  90 124 165 199 251 309 380
#
# _framework density 19.382791000000001
#
# number of rings (size 3 to 8) (size 9 to 14) (size 15 to 20)
#    0.000    1.655    4.138    0.414   13.517    0.552 
#    2.483    0.000    0.000    3.724    0.000    0.000 
#    0.000    0.000    0.000    0.000    0.000    0.000 
#
# Total GULP energy -161534.984959 kJ/mol
# GULP energy per Si atom -5570.171895 kJ/mol
# Density = 1.933867 g / cm^3
# Si number density = 19.382791 Si / 1000 Ang^3
#
#
#
# Elastic Constant Matrix: (Units=GPa)
#
#
# Indices 1 2 3 4 5 6 
#
# 1 74.0187 28.4137 6.6688 0.0000 0.0000 0.0000
# 2 28.4137 100.3413 -3.3313 0.0000 0.0000 0.0000
# 3 6.6688 -3.3313 19.9658 0.0000 0.0000 0.0000
# 4 0.0000 0.0000 0.0000 12.5062 0.0000 0.0000
# 5 0.0000 0.0000 0.0000 0.0000 23.3108 0.0000
# 6 0.0000 0.0000 0.0000 0.0000 0.0000 21.8436
#
#
#
# Elastic Compliance Matrix: (Units=1/GPa)
#
#
# Indices 1 2 3 4 5 6 
#
# 1 0.015859 -0.004693 -0.006080 0.000000 0.000000 0.000000
# 2 -0.004693 0.011410 0.003471 0.000000 0.000000 0.000000
# 3 -0.006080 0.003471 0.052696 0.000000 0.000000 0.000000
# 4 0.000000 0.000000 0.000000 0.079961 0.000000 0.000000
# 5 0.000000 0.000000 0.000000 0.000000 0.042899 0.000000
# 6 0.000000 0.000000 0.000000 0.000000 0.000000 0.045780
#
#
# Mechanical properties :
#
#
# Convention : Reuss Voigt Hill
#
# Bulk Modulus (GPa) = 15.29947 28.64756 21.97351
# Shear Modulus (GPa) = 17.54417 22.37042 19.95729
#
# Velocity S-wave (km/s) = 3.01182 3.40095 3.21228
# Velocity P-wave (km/s) = 4.47272 5.49854 5.01194
#
# Compressibility (1/GPa) = 0.06536173
#
# Stress axis : x y z
#
# Youngs Moduli (GPa) = 63.05442 87.64178 18.97686
#
# Poissons Ratio (x) = 0.41128 0.11538
# Poissons Ratio (y) = 0.29590 -0.06587
# Poissons Ratio (z) = 0.38338 -0.30422
#
# Static dielectric constant tensor:
#      x y z
#    x 1.743240 0.000000 0.000000 
#    y 0.000000 1.743620 0.000000 
#    z 0.000000 0.000000 1.712050 
# 
# From -- ./inp_files/18616.got.cif
#   From: 2010.05.17/outbox.cif.g08.bks.cpg/sg21_10_cif.got.tgz:18616.got - 2010.06.03 23:14:55.
