data_PCOD9323243
_publ_section_title
;
Structure prediction by ZEFSAII (Michael W. Deem and Ramdas Pophale) SiO2 
 PCOD9323243
Probable space group: C 2 2 2
;
_chemical_formula_sum "Si O2"
_cell_formula_units_Z 32
_cell_length_a 5.121221
_cell_length_b 20.245177
_cell_length_c 16.087931
_cell_angle_alpha 90.000000
_cell_angle_beta 90.000000
_cell_angle_gamma 90.000000
_cell_volume 1667.997098
_symmetry_space_group_name_H-M "C 2 2 2"
_symmetry_group_IT_number 21
_symmetry_cell_setting 'orthorhombic'
loop_
_space_group_symop_operation_xyz
x,y,z
-x,-y,z
x,-y,-z
-x,y,-z
1/2+x,1/2+y,z
1/2-x,1/2-y,z
1/2+x,1/2-y,-z
1/2-x,1/2+y,-z
loop_
_atom_site_type_symbol
_atom_site_label
_atom_site_fract_x
_atom_site_fract_y
_atom_site_fract_z
Si Si1 0.500000 0.643609 0.500000
Si Si2 0.501052 0.797340 0.907689
Si Si3 0.393263 0.426096 0.336372
Si Si4 0.406440 0.858973 0.265547
Si Si5 0.750000 0.250000 0.378934
O O1 0.636247 0.597794 0.431839
O O2 0.337361 0.692790 0.441849
O O3 0.250000 0.750000 0.897478
O O4 0.537609 0.845745 0.830587
O O5 0.750000 0.750000 0.905807
O O6 0.500000 0.828519 0.000000
O O7 0.500000 0.500000 0.333795
O O8 0.612829 0.382191 0.288104
O O9 0.113394 0.412496 0.296618
O O10 0.443250 0.789750 0.316782
#
# Coordination Sequence:
#
# PCOD9323243 Si02
#       5
#     4   8   8   8   4
#     4  10  21  36  56  84 115 152 192 254 284 346
#     4  10  20  35  59  92 123 146 177 228 297 363
#     4  11  24  40  58  80 114 163 206 238 279 334
#     4  11  22  37  62  86 119 151 187 247 290 357
#     4  10  20  34  60  90 118 144 196 234 332 334
#
# _framework density 19.184688000000001
#
# number of rings (size 3 to 8) (size 9 to 14) (size 15 to 20)
#    0.000    1.500    1.250    4.125    3.500    3.000 
#    0.000    5.000    0.000    4.500    0.000    0.000 
#    0.000    0.000    0.000    0.000    0.000    0.000 
#
# Total GULP energy -89226.607708 kJ/mol
# GULP energy per Si atom -5576.662982 kJ/mol
# Density = 1.914102 g / cm^3
# Si number density = 19.184688 Si / 1000 Ang^3
#
#
#
# Elastic Constant Matrix: (Units=GPa)
#
#
# Indices 1 2 3 4 5 6 
#
# 1 68.9279 -1.8895 -1.2826 0.0000 0.0000 0.0000
# 2 -1.8895 71.5640 31.7844 0.0000 0.0000 0.0000
# 3 -1.2826 31.7844 146.7381 0.0000 0.0000 0.0000
# 4 0.0000 0.0000 0.0000 14.6335 0.0000 0.0000
# 5 0.0000 0.0000 0.0000 0.0000 18.2888 0.0000
# 6 0.0000 0.0000 0.0000 0.0000 0.0000 29.3213
#
#
#
# Elastic Compliance Matrix: (Units=1/GPa)
#
#
# Indices 1 2 3 4 5 6 
#
# 1 0.014519 0.000362 0.000049 0.000000 0.000000 0.000000
# 2 0.000362 0.015470 -0.003348 0.000000 0.000000 0.000000
# 3 0.000049 -0.003348 0.007540 0.000000 0.000000 0.000000
# 4 0.000000 0.000000 0.000000 0.068336 0.000000 0.000000
# 5 0.000000 0.000000 0.000000 0.000000 0.054678 0.000000
# 6 0.000000 0.000000 0.000000 0.000000 0.000000 0.034105
#
#
# Mechanical properties :
#
#
# Convention : Reuss Voigt Hill
#
# Bulk Modulus (GPa) = 31.59130 38.27272 34.93201
# Shear Modulus (GPa) = 23.68829 29.68991 26.68910
#
# Velocity S-wave (km/s) = 3.51771 3.93820 3.73388
# Velocity P-wave (km/s) = 5.74472 6.37747 6.06935
#
# Compressibility (1/GPa) = 0.03165428
#
# Stress axis : x y z
#
# Youngs Moduli (GPa) = 68.87651 64.64159 132.61855
#
# Poissons Ratio (x) = -0.02339 -0.00644
# Poissons Ratio (y) = -0.02492 0.44397
# Poissons Ratio (z) = -0.00334 0.21640
#
# Static dielectric constant tensor:
#      x y z
#    x 1.687570 0.000000 0.000000 
#    y 0.000000 1.686200 0.000000 
#    z 0.000000 0.000000 1.700770 
# 
# From -- ./inp_files/28759.got.cif
#   From: 2010.05.17/outbox.cif.g08.bks.cpg/sg21_15_cif.got.tgz:28759.got - 2010.06.03 23:14:55.
