data_PCOD9323229
_publ_section_title
;
Structure prediction by ZEFSAII (Michael W. Deem and Ramdas Pophale) SiO2 
 PCOD9323229
Probable space group: C 2 2 2
;
_chemical_formula_sum "Si O2"
_cell_formula_units_Z 64
_cell_length_a 24.865089
_cell_length_b 9.259523
_cell_length_c 14.713296
_cell_angle_alpha 90.000000
_cell_angle_beta 90.000000
_cell_angle_gamma 90.000000
_cell_volume 3387.572549
_symmetry_space_group_name_H-M "C 2 2 2"
_symmetry_group_IT_number 21
_symmetry_cell_setting 'orthorhombic'
loop_
_space_group_symop_operation_xyz
x,y,z
-x,-y,z
x,-y,-z
-x,y,-z
1/2+x,1/2+y,z
1/2-x,1/2-y,z
1/2+x,1/2-y,-z
1/2-x,1/2+y,-z
loop_
_atom_site_type_symbol
_atom_site_label
_atom_site_fract_x
_atom_site_fract_y
_atom_site_fract_z
Si Si1 0.062896 0.472056 0.271025
Si Si2 0.367898 0.208182 0.634476
Si Si3 0.223034 0.503572 0.605574
Si Si4 0.842481 0.965237 0.333876
Si Si5 0.621064 0.202845 0.577340
Si Si6 0.239918 0.580366 0.096507
Si Si7 0.807074 0.169568 0.834245
Si Si8 0.134991 0.435732 0.099191
O O1 0.093518 0.617688 0.301234
O O2 0.077251 0.361194 0.353539
O O3 0.088267 0.428319 0.173836
O O4 0.000000 0.500000 0.264471
O O5 0.364698 0.374079 0.662690
O O6 0.386271 0.176352 0.529947
O O7 0.307758 0.140756 0.635465
O O8 0.238845 0.500000 0.500000
O O9 0.277818 0.528532 0.657326
O O10 0.177117 0.626348 0.609276
O O11 0.869237 0.872360 0.412983
O O12 0.848590 0.862449 0.246287
O O13 0.250000 0.750000 0.092090
O O14 0.289149 0.490770 0.137369
O O15 0.182486 0.539214 0.140337
O O16 0.234165 0.500000 0.000000
O O17 0.750000 0.250000 0.812399
O O18 0.836511 0.277193 0.904774
O O19 0.119765 0.500000 0.000000
#
# Coordination Sequence:
#
# PCOD9323229 Si02
#       8
#     8   8   8   8   8   8   8   8
#     4  11  24  43  64  83 107 145 201 263 311 350
#     4  10  23  35  55  88 118 156 203 240 286 345
#     4   9  18  31  49  79 121 165 199 226 269 337
#     4  12  20  31  55  86 127 160 191 231 284 347
#     4  10  20  38  57  81 119 161 199 238 289 346
#     4  10  20  34  58  91 127 160 194 231 279 351
#     4  10  21  34  54  89 126 170 194 227 285 347
#     4  10  21  41  63  86 120 152 195 238 296 363
#
# _framework density 18.892583999999999
#
# number of rings (size 3 to 8) (size 9 to 14) (size 15 to 20)
#    0.000    1.750    1.250    5.625    7.000    3.250 
#    0.000    0.625    0.000    1.500    0.000    0.000 
#    0.000    0.000    0.000    0.000    0.000    0.000 
#
# Total GULP energy -178425.187609 kJ/mol
# GULP energy per Si atom -5575.787113 kJ/mol
# Density = 1.884958 g / cm^3
# Si number density = 18.892584 Si / 1000 Ang^3
#
#
#
# Elastic Constant Matrix: (Units=GPa)
#
#
# Indices 1 2 3 4 5 6 
#
# 1 80.2041 19.1212 33.4216 0.0000 0.0000 0.0000
# 2 19.1212 136.2346 25.1395 0.0000 0.0000 0.0000
# 3 33.4216 25.1395 83.3386 0.0000 0.0000 0.0000
# 4 0.0000 0.0000 0.0000 29.0433 0.0000 0.0000
# 5 0.0000 0.0000 0.0000 0.0000 11.0451 0.0000
# 6 0.0000 0.0000 0.0000 0.0000 0.0000 5.2786
#
#
#
# Elastic Compliance Matrix: (Units=1/GPa)
#
#
# Indices 1 2 3 4 5 6 
#
# 1 0.015114 -0.001062 -0.005741 0.000000 0.000000 0.000000
# 2 -0.001062 0.007848 -0.001941 0.000000 0.000000 0.000000
# 3 -0.005741 -0.001941 0.014887 0.000000 0.000000 0.000000
# 4 0.000000 0.000000 0.000000 0.034431 0.000000 0.000000
# 5 0.000000 0.000000 0.000000 0.000000 0.090538 0.000000
# 6 0.000000 0.000000 0.000000 0.000000 0.000000 0.189443
#
#
# Mechanical properties :
#
#
# Convention : Reuss Voigt Hill
#
# Bulk Modulus (GPa) = 49.11553 50.57134 49.84344
# Shear Modulus (GPa) = 13.27897 23.87975 18.57936
#
# Velocity S-wave (km/s) = 2.65404 3.55910 3.13936
# Velocity P-wave (km/s) = 5.95362 6.61177 6.29131
#
# Compressibility (1/GPa) = 0.02036016
#
# Stress axis : x y z
#
# Youngs Moduli (GPa) = 66.16574 127.42793 67.17230
#
# Poissons Ratio (x) = 0.13532 0.38562
# Poissons Ratio (y) = 0.07026 0.13041
# Poissons Ratio (z) = 0.37984 0.24739
#
# Static dielectric constant tensor:
#      x y z
#    x 1.642000 0.000000 0.000000 
#    y 0.000000 1.689050 0.000000 
#    z 0.000000 0.000000 1.769690 
# 
# From -- ./inp_files/33633.got.cif
#   From: 2010.05.17/outbox.cif.g08.bks.cpg/sg21_17_cif.got.tgz:33633.got - 2010.06.03 23:14:55.
