data_PCOD9323548
_publ_section_title
;
Structure prediction by ZEFSAII (Michael W. Deem and Ramdas Pophale) SiO2 
 PCOD9323548
Probable space group: C 2 2 2
;
_chemical_formula_sum "Si O2"
_cell_formula_units_Z 34
_cell_length_a 14.735164
_cell_length_b 5.479582
_cell_length_c 18.798591
_cell_angle_alpha 90.000000
_cell_angle_beta 90.000000
_cell_angle_gamma 90.000000
_cell_volume 1517.845975
_symmetry_space_group_name_H-M "C 2 2 2"
_symmetry_group_IT_number 21
_symmetry_cell_setting 'orthorhombic'
loop_
_space_group_symop_operation_xyz
x,y,z
-x,-y,z
x,-y,-z
-x,y,-z
1/2+x,1/2+y,z
1/2-x,1/2-y,z
1/2+x,1/2-y,-z
1/2-x,1/2+y,-z
loop_
_atom_site_type_symbol
_atom_site_label
_atom_site_fract_x
_atom_site_fract_y
_atom_site_fract_z
Si Si1 0.641214 0.777363 0.768180
Si Si2 0.000000 0.000000 0.000000
Si Si3 0.360764 0.731762 0.694644
Si Si4 0.355142 0.174446 0.931803
Si Si5 0.896805 0.754547 0.470678
O O1 0.750000 0.750000 0.760943
O O2 0.610386 0.506419 0.741843
O O3 0.628085 0.876839 0.848981
O O4 0.607482 0.003681 0.721965
O O5 0.069794 0.872586 0.052325
O O6 0.250000 0.750000 0.695541
O O7 0.393554 0.716672 0.613857
O O8 0.250000 0.250000 0.936542
O O9 0.369056 0.000000 0.000000
O O10 0.857601 0.500000 0.500000
O O11 0.000000 0.754140 0.500000
O O12 0.851760 0.000000 0.500000
#
# Coordination Sequence:
#
# PCOD9323548 Si02
#       5
#     8   2   8   8   8
#     4   9  21  38  65  95 130 172 220 274 350 417
#     4  12  26  44  68 104 140 180 252 292 362 438
#     4  10  20  38  62  93 126 164 217 276 333 411
#     4  11  24  44  74 102 142 192 239 307 367 423
#     4  10  21  37  58  83 118 161 202 259 317 397
#
# _framework density 22.400165999999999
#
# number of rings (size 3 to 8) (size 9 to 14) (size 15 to 20)
#    0.000    1.882    1.176    1.765    3.294    1.882 
#    0.000    7.059    0.000    0.000    0.000    0.000 
#    0.000    0.000    0.000    0.000    0.000    0.000 
#
# Total GULP energy -94703.188736 kJ/mol
# GULP energy per Si atom -5570.775808 kJ/mol
# Density = 2.234918 g / cm^3
# Si number density = 22.400166 Si / 1000 Ang^3
#
#
#
# Elastic Constant Matrix: (Units=GPa)
#
#
# Indices 1 2 3 4 5 6 
#
# 1 106.3534 10.6556 11.7437 0.0000 0.0000 0.0000
# 2 10.6556 167.4403 76.5047 0.0000 0.0000 0.0000
# 3 11.7437 76.5047 173.8019 0.0000 0.0000 0.0000
# 4 0.0000 0.0000 0.0000 47.3199 0.0000 0.0000
# 5 0.0000 0.0000 0.0000 0.0000 32.9257 0.0000
# 6 0.0000 0.0000 0.0000 0.0000 0.0000 -8.5897
#
#
#
# Elastic Compliance Matrix: (Units=1/GPa)
#
#
# Indices 1 2 3 4 5 6 
#
# 1 0.009494 -0.000389 -0.000470 0.000000 0.000000 0.000000
# 2 -0.000389 0.007492 -0.003271 0.000000 0.000000 0.000000
# 3 -0.000470 -0.003271 0.007225 0.000000 0.000000 0.000000
# 4 0.000000 0.000000 0.000000 0.021133 0.000000 0.000000
# 5 0.000000 0.000000 0.000000 0.000000 0.030371 0.000000
# 6 0.000000 0.000000 0.000000 0.000000 0.000000 -0.116419
#
#
# Mechanical properties :
#
#
# Convention : Reuss Voigt Hill
#
# Bulk Modulus (GPa) = 62.69983 71.71151 67.20567
# Shear Modulus (GPa) = -184.32679 37.57729 -73.37475
#
# Velocity S-wave (km/s) = -9.08112 4.10023 -5.72952
# Velocity P-wave (km/s) = 9.05009 7.38235 3.70169
#
# Compressibility (1/GPa) = 0.01594901
#
# Stress axis : x y z
#
# Youngs Moduli (GPa) = 105.33485 133.47908 138.39907
#
# Poissons Ratio (x) = 0.05197 0.06506
# Poissons Ratio (y) = 0.04101 0.45277
# Poissons Ratio (z) = 0.04952 0.43667
#
# Static dielectric constant tensor:
#      x y z
#    x 1.790010 0.000000 0.000000 
#    y 0.000000 2.126070 0.000000 
#    z 0.000000 0.000000 2.180710 
# 
# From -- ./inp_files/36457.got.cif
#   From: 2010.05.17/outbox.cif.g08.bks.cpg/sg21_19_cif.got.tgz:36457.got - 2010.06.03 23:14:55.
