data_PCOD9323240
_publ_section_title
;
Structure prediction by ZEFSAII (Michael W. Deem and Ramdas Pophale) SiO2 
 PCOD9323240
Probable space group: C 2 2 2
;
_chemical_formula_sum "Si O2"
_cell_formula_units_Z 34
_cell_length_a 21.617326
_cell_length_b 8.563916
_cell_length_c 8.230436
_cell_angle_alpha 90.000000
_cell_angle_beta 90.000000
_cell_angle_gamma 90.000000
_cell_volume 1523.692090
_symmetry_space_group_name_H-M "C 2 2 2"
_symmetry_group_IT_number 21
_symmetry_cell_setting 'orthorhombic'
loop_
_space_group_symop_operation_xyz
x,y,z
-x,-y,z
x,-y,-z
-x,y,-z
1/2+x,1/2+y,z
1/2-x,1/2-y,z
1/2+x,1/2-y,-z
1/2-x,1/2+y,-z
loop_
_atom_site_type_symbol
_atom_site_label
_atom_site_fract_x
_atom_site_fract_y
_atom_site_fract_z
Si Si1 0.065543 0.241200 0.741909
Si Si2 0.000000 0.000000 0.000000
Si Si3 0.814677 0.319415 0.051570
Si Si4 0.394107 0.500000 0.500000
Si Si5 0.677030 0.744044 0.314551
Si Si6 0.091308 0.500000 0.500000
O O1 0.032295 0.130438 0.878677
O O2 0.131408 0.284264 0.822785
O O3 0.054046 0.404275 0.641167
O O4 0.066758 0.125822 0.591401
O O5 0.750000 0.250000 0.111879
O O6 0.807593 0.500000 0.000000
O O7 0.830845 0.245020 0.878457
O O8 0.350260 0.417899 0.372028
O O9 0.750000 0.750000 0.351657
O O10 0.637062 0.878710 0.403987
#
# Coordination Sequence:
#
# PCOD9323240 Si02
#       6
#     8   2   8   4   8   4
#     4  11  25  47  75 103 144 185 250 295 374 429
#     4  12  28  50  86 104 140 196 252 314 360 460
#     4  11  24  40  69 105 148 191 239 294 358 434
#     4  10  23  39  68  94 138 176 231 301 352 438
#     4  10  20  34  60 101 143 187 229 278 360 425
#     4  10  21  42  68 103 146 184 233 317 350 444
#
# _framework density 22.314219999999999
#
# number of rings (size 3 to 8) (size 9 to 14) (size 15 to 20)
#    0.000    1.412    2.353    2.118    8.235    4.235 
#    0.000    0.588    5.176    0.000    0.000    0.000 
#    0.000    0.000    0.000    0.000    0.000    0.000 
#
# Total GULP energy -94688.980015 kJ/mol
# GULP energy per Si atom -5569.940001 kJ/mol
# Density = 2.226343 g / cm^3
# Si number density = 22.314220 Si / 1000 Ang^3
#
#
#
# Elastic Constant Matrix: (Units=GPa)
#
#
# Indices 1 2 3 4 5 6 
#
# 1 89.8482 69.1375 67.6579 0.0000 0.0000 0.0000
# 2 69.1375 134.8537 49.8186 0.0000 0.0000 0.0000
# 3 67.6579 49.8186 102.4388 0.0000 0.0000 0.0000
# 4 0.0000 0.0000 0.0000 56.6793 0.0000 0.0000
# 5 0.0000 0.0000 0.0000 0.0000 118.0818 0.0000
# 6 0.0000 0.0000 0.0000 0.0000 0.0000 22.6759
#
#
#
# Elastic Compliance Matrix: (Units=1/GPa)
#
#
# Indices 1 2 3 4 5 6 
#
# 1 0.030035 -0.009838 -0.015053 0.000000 0.000000 0.000000
# 2 -0.009838 0.012262 0.000534 0.000000 0.000000 0.000000
# 3 -0.015053 0.000534 0.019444 0.000000 0.000000 0.000000
# 4 0.000000 0.000000 0.000000 0.017643 0.000000 0.000000
# 5 0.000000 0.000000 0.000000 0.000000 0.008469 0.000000
# 6 0.000000 0.000000 0.000000 0.000000 0.000000 0.044100
#
#
# Mechanical properties :
#
#
# Convention : Reuss Voigt Hill
#
# Bulk Modulus (GPa) = 76.75621 77.81874 77.28747
# Shear Modulus (GPa) = 27.02584 48.85586 37.94085
#
# Velocity S-wave (km/s) = 3.48393 4.68423 4.12794
# Velocity P-wave (km/s) = 7.11732 8.01285 7.57833
#
# Compressibility (1/GPa) = 0.01302826
#
# Stress axis : x y z
#
# Youngs Moduli (GPa) = 33.29426 81.55518 51.42905
#
# Poissons Ratio (x) = 0.80230 0.77417
# Poissons Ratio (y) = 0.32753 -0.02748
# Poissons Ratio (z) = 0.50118 -0.04357
#
# Static dielectric constant tensor:
#      x y z
#    x 1.825800 0.000000 0.000000 
#    y 0.000000 0.991900 0.000000 
#    z 0.000000 0.000000 1.802490 
# 
# From -- ./inp_files/10620.got.cif
#   From: 2010.05.17/outbox.cif.g08.bks.cpg/sg21_6_cif.got.tgz:10620.got - 2010.06.03 23:14:55.
