data_PCOD9323671
_publ_section_title
;
Structure prediction by ZEFSAII (Michael W. Deem and Ramdas Pophale) SiO2 
 PCOD9323671
Probable space group: C 2 2 2
;
_chemical_formula_sum "Si O2"
_cell_formula_units_Z 48
_cell_length_a 9.638105
_cell_length_b 16.556637
_cell_length_c 15.306615
_cell_angle_alpha 90.000000
_cell_angle_beta 90.000000
_cell_angle_gamma 90.000000
_cell_volume 2442.547056
_symmetry_space_group_name_H-M "C 2 2 2"
_symmetry_group_IT_number 21
_symmetry_cell_setting 'orthorhombic'
loop_
_space_group_symop_operation_xyz
x,y,z
-x,-y,z
x,-y,-z
-x,y,-z
1/2+x,1/2+y,z
1/2-x,1/2-y,z
1/2+x,1/2-y,-z
1/2-x,1/2+y,-z
loop_
_atom_site_type_symbol
_atom_site_label
_atom_site_fract_x
_atom_site_fract_y
_atom_site_fract_z
Si Si1 0.940127 0.316948 0.249152
Si Si2 0.916111 0.763899 0.089736
Si Si3 0.216962 0.345523 0.322806
Si Si4 0.056469 0.080223 0.208935
Si Si5 0.324601 0.646828 0.316488
Si Si6 0.165591 0.402661 0.506943
O O1 0.794997 0.361898 0.242987
O O2 0.895105 0.234889 0.301311
O O3 0.014626 0.298061 0.158538
O O4 0.054973 0.360100 0.306481
O O5 0.750000 0.750000 0.080333
O O6 0.945344 0.848584 0.138108
O O7 0.000000 0.759316 0.000000
O O8 0.250000 0.250000 0.303462
O O9 0.298884 0.404362 0.258068
O O10 0.242777 0.363948 0.423571
O O11 0.948031 0.089274 0.289388
O O12 0.000000 0.000000 0.164488
O O13 0.245914 0.629073 0.406733
O O14 0.175261 0.500000 0.500000
O O15 0.000000 0.382012 0.500000
#
# Coordination Sequence:
#
# PCOD9323671 Si02
#       6
#     8   8   8   8   8   8
#     4  10  20  40  62  89 118 155 212 261 310 373
#     4  11  23  41  69  98 124 157 205 267 323 380
#     4  12  21  40  65  86 126 172 215 268 317 374
#     4  11  23  42  64  93 131 168 207 255 326 394
#     4  10  21  38  59  88 122 161 218 256 308 372
#     4  11  24  37  54  87 129 172 216 268 328 376
#
# _framework density 19.651616000000001
#
# number of rings (size 3 to 8) (size 9 to 14) (size 15 to 20)
#    0.000    1.167    6.667    1.000    7.000    1.000 
#    0.000    1.667    0.000    0.000    0.000    0.000 
#    0.000    0.000    0.000    0.000    0.000    0.000 
#
# Total GULP energy -133702.612390 kJ/mol
# GULP energy per Si atom -5570.942183 kJ/mol
# Density = 1.960689 g / cm^3
# Si number density = 19.651616 Si / 1000 Ang^3
#
#
#
# Elastic Constant Matrix: (Units=GPa)
#
#
# Indices 1 2 3 4 5 6 
#
# 1 130.6282 22.2446 42.8715 0.0000 0.0000 0.0000
# 2 22.2446 34.7772 11.1621 0.0000 0.0000 0.0000
# 3 42.8715 11.1621 132.7779 0.0000 0.0000 0.0000
# 4 0.0000 0.0000 0.0000 8.8878 0.0000 0.0000
# 5 0.0000 0.0000 0.0000 0.0000 33.3476 0.0000
# 6 0.0000 0.0000 0.0000 0.0000 0.0000 16.5015
#
#
#
# Elastic Compliance Matrix: (Units=1/GPa)
#
#
# Indices 1 2 3 4 5 6 
#
# 1 0.009388 -0.005172 -0.002597 0.000000 0.000000 0.000000
# 2 -0.005172 0.032401 -0.001054 0.000000 0.000000 0.000000
# 3 -0.002597 -0.001054 0.008458 0.000000 0.000000 0.000000
# 4 0.000000 0.000000 0.000000 0.112514 0.000000 0.000000
# 5 0.000000 0.000000 0.000000 0.000000 0.029987 0.000000
# 6 0.000000 0.000000 0.000000 0.000000 0.000000 0.060601
#
#
# Mechanical properties :
#
#
# Convention : Reuss Voigt Hill
#
# Bulk Modulus (GPa) = 30.67200 50.08219 40.37710
# Shear Modulus (GPa) = 17.73925 26.54104 22.14015
#
# Velocity S-wave (km/s) = 3.00773 3.67901 3.36018
# Velocity P-wave (km/s) = 5.26343 6.60206 5.97038
#
# Compressibility (1/GPa) = 0.03260302
#
# Stress axis : x y z
#
# Youngs Moduli (GPa) = 106.51738 30.86355 118.22648
#
# Poissons Ratio (x) = 0.15961 0.30698
# Poissons Ratio (y) = 0.55086 0.12461
# Poissons Ratio (z) = 0.27657 0.03253
#
# Static dielectric constant tensor:
#      x y z
#    x 1.705800 0.000000 0.000000 
#    y 0.000000 1.858790 0.000000 
#    z 0.000000 0.000000 1.698910 
# 
# From -- ./inp_files/30455.got.cif
#   From: 2010.05.17/outbox.cif.g08.bks.cpg/sg21_16_cif.got.tgz:30455.got - 2010.06.03 23:14:55.
