data_PCOD9323763
_publ_section_title
;
Structure prediction by ZEFSAII (Michael W. Deem and Ramdas Pophale) SiO2 
 PCOD9323763
Probable space group: C 2 2 2
;
_chemical_formula_sum "Si O2"
_cell_formula_units_Z 38
_cell_length_a 10.340332
_cell_length_b 27.126453
_cell_length_c 5.910453
_cell_angle_alpha 90.000000
_cell_angle_beta 90.000000
_cell_angle_gamma 90.000000
_cell_volume 1657.861557
_symmetry_space_group_name_H-M "C 2 2 2"
_symmetry_group_IT_number 21
_symmetry_cell_setting 'orthorhombic'
loop_
_space_group_symop_operation_xyz
x,y,z
-x,-y,z
x,-y,-z
-x,y,-z
1/2+x,1/2+y,z
1/2-x,1/2-y,z
1/2+x,1/2-y,-z
1/2-x,1/2+y,-z
loop_
_atom_site_type_symbol
_atom_site_label
_atom_site_fract_x
_atom_site_fract_y
_atom_site_fract_z
Si Si1 0.823211 0.089096 0.888125
Si Si2 0.000000 0.000000 0.000000
Si Si3 0.119452 0.818009 0.647303
Si Si4 0.534067 0.076629 0.746066
Si Si5 0.812053 0.345780 0.260272
Si Si6 0.250000 0.750000 0.988539
O O1 0.909207 0.130522 0.769309
O O2 0.687641 0.082597 0.757891
O O3 0.777998 0.113739 0.127272
O O4 0.901486 0.038476 0.884490
O O5 0.244003 0.829690 0.492433
O O6 0.148149 0.777074 0.830052
O O7 0.000000 0.802072 0.500000
O O8 0.500000 0.053326 0.500000
O O9 0.450171 0.127281 0.735587
O O10 0.500000 0.055734 0.000000
O O11 0.813785 0.294633 0.125013
#
# Coordination Sequence:
#
# PCOD9323763 Si02
#       6
#     8   2   8   8   8   4
#     4  10  23  43  72 105 139 195 245 320 395 453
#     4  12  24  48  80 108 148 190 268 328 404 472
#     4  11  22  43  65  96 146 187 247 307 380 453
#     4  10  20  42  76 102 143 195 245 302 380 450
#     4  10  21  44  65 100 148 191 246 307 375 456
#     4  10  24  42  60 108 136 196 246 306 364 450
#
# _framework density 22.921095000000001
#
# number of rings (size 3 to 8) (size 9 to 14) (size 15 to 20)
#    0.000    1.684    2.105    1.895    0.000    2.526 
#   34.105    9.474    0.000    5.053    0.000    0.000 
#    0.000    0.000    0.000    0.000    0.000    0.000 
#
# Total GULP energy -106046.268966 kJ/mol
# GULP energy per Si atom -5581.382577 kJ/mol
# Density = 2.286893 g / cm^3
# Si number density = 22.921095 Si / 1000 Ang^3
#
#
#
# Elastic Constant Matrix: (Units=GPa)
#
#
# Indices 1 2 3 4 5 6 
#
# 1 135.4147 63.8421 29.3853 0.0000 0.0000 0.0000
# 2 63.8421 181.6321 51.8397 0.0000 0.0000 0.0000
# 3 29.3853 51.8397 122.3346 0.0000 0.0000 0.0000
# 4 0.0000 0.0000 0.0000 126.9178 0.0000 0.0000
# 5 0.0000 0.0000 0.0000 0.0000 20.1734 0.0000
# 6 0.0000 0.0000 0.0000 0.0000 0.0000 -4.5025
#
#
#
# Elastic Compliance Matrix: (Units=1/GPa)
#
#
# Indices 1 2 3 4 5 6 
#
# 1 0.008943 -0.002879 -0.000928 0.000000 0.000000 0.000000
# 2 -0.002879 0.007190 -0.002355 0.000000 0.000000 0.000000
# 3 -0.000928 -0.002355 0.009395 0.000000 0.000000 0.000000
# 4 0.000000 0.000000 0.000000 0.007879 0.000000 0.000000
# 5 0.000000 0.000000 0.000000 0.000000 0.049570 0.000000
# 6 0.000000 0.000000 0.000000 0.000000 0.000000 -0.222098
#
#
# Mechanical properties :
#
#
# Convention : Reuss Voigt Hill
#
# Bulk Modulus (GPa) = 75.73485 81.05729 78.39607
# Shear Modulus (GPa) = -40.85150 48.13869 3.64360
#
# Velocity S-wave (km/s) = -4.22627 4.58776 1.26217
# Velocity P-wave (km/s) = 3.04929 7.96892 6.03332
#
# Compressibility (1/GPa) = 0.01320396
#
# Stress axis : x y z
#
# Youngs Moduli (GPa) = 111.81573 139.08981 106.43580
#
# Poissons Ratio (x) = 0.40037 0.09882
# Poissons Ratio (y) = 0.32186 0.25068
# Poissons Ratio (z) = 0.10381 0.32758
#
# Static dielectric constant tensor:
#      x y z
#    x 1.824720 0.000000 0.000000 
#    y 0.000000 1.885780 0.000000 
#    z 0.000000 0.000000 1.961320 
# 
# From -- ./inp_files/2893.got.cif
#   From: 2010.05.17/outbox.cif.g08.bks.cpg/sg21_2_cif.got.tgz:2893.got - 2010.06.03 23:14:55.
