data_PCOD9323869
_publ_section_title
;
Structure prediction by ZEFSAII (Michael W. Deem and Ramdas Pophale) SiO2 
 PCOD9323869
Probable space group: C 2 2 2
;
_chemical_formula_sum "Si O2"
_cell_formula_units_Z 48
_cell_length_a 25.508333
_cell_length_b 15.489457
_cell_length_c 5.089886
_cell_angle_alpha 90.000000
_cell_angle_beta 90.000000
_cell_angle_gamma 90.000000
_cell_volume 2011.066014
_symmetry_space_group_name_H-M "C 2 2 2"
_symmetry_group_IT_number 21
_symmetry_cell_setting 'orthorhombic'
loop_
_space_group_symop_operation_xyz
x,y,z
-x,-y,z
x,-y,-z
-x,y,-z
1/2+x,1/2+y,z
1/2-x,1/2-y,z
1/2+x,1/2-y,-z
1/2-x,1/2+y,-z
loop_
_atom_site_type_symbol
_atom_site_label
_atom_site_fract_x
_atom_site_fract_y
_atom_site_fract_z
Si Si1 0.561571 0.203587 0.915970
Si Si2 0.234652 0.349825 0.001631
Si Si3 0.891045 0.798012 0.588914
Si Si4 0.864503 0.437890 0.755294
Si Si5 0.976024 0.095469 0.254596
Si Si6 0.708322 0.597359 0.502205
O O1 0.584593 0.270363 0.692231
O O2 0.581509 0.114766 0.783523
O O3 0.500000 0.195747 0.000000
O O4 0.592186 0.229173 0.187958
O O5 0.250000 0.250000 0.978487
O O6 0.180915 0.368224 0.163548
O O7 0.275722 0.390574 0.202175
O O8 0.244322 0.393517 0.715843
O O9 0.915938 0.888229 0.704498
O O10 0.830977 0.823958 0.566225
O O11 0.859491 0.500000 0.500000
O O12 0.861142 0.500000 0.000000
O O13 0.000000 0.143039 0.500000
O O14 0.000000 0.000000 0.255020
O O15 0.000000 0.135945 0.000000
O O16 0.686411 0.500000 0.500000
#
# Coordination Sequence:
#
# PCOD9323869 Si02
#       6
#     8   8   8   8   8   8
#     4  12  27  49  73 105 143 190 249 318 375 438
#     4  12  25  47  75 107 147 189 239 297 374 453
#     4  12  24  44  68 101 147 200 243 297 366 443
#     4  12  26  48  80 109 143 190 246 306 384 464
#     4  10  21  36  58  86 126 178 247 284 329 405
#     4  12  26  43  68 108 152 189 239 305 356 435
#
# _framework density 23.867937999999999
#
# number of rings (size 3 to 8) (size 9 to 14) (size 15 to 20)
#    0.000    0.333    0.000   10.500    2.333    0.333 
#    3.000    0.833    0.000    0.000    0.000    0.000 
#    0.000    0.000    0.000    0.000    0.000    0.000 
#
# Total GULP energy -133713.522926 kJ/mol
# GULP energy per Si atom -5571.396789 kJ/mol
# Density = 2.381361 g / cm^3
# Si number density = 23.867938 Si / 1000 Ang^3
#
#
#
# Elastic Constant Matrix: (Units=GPa)
#
#
# Indices 1 2 3 4 5 6 
#
# 1 91.3456 36.6121 24.3571 0.0000 0.0000 0.0000
# 2 36.6121 105.6486 30.6506 0.0000 0.0000 0.0000
# 3 24.3571 30.6506 183.9677 0.0000 0.0000 0.0000
# 4 0.0000 0.0000 0.0000 37.4879 0.0000 0.0000
# 5 0.0000 0.0000 0.0000 0.0000 18.6753 0.0000
# 6 0.0000 0.0000 0.0000 0.0000 0.0000 39.1808
#
#
#
# Elastic Compliance Matrix: (Units=1/GPa)
#
#
# Indices 1 2 3 4 5 6 
#
# 1 0.012890 -0.004174 -0.001011 0.000000 0.000000 0.000000
# 2 -0.004174 0.011297 -0.001330 0.000000 0.000000 0.000000
# 3 -0.001011 -0.001330 0.005791 0.000000 0.000000 0.000000
# 4 0.000000 0.000000 0.000000 0.026675 0.000000 0.000000
# 5 0.000000 0.000000 0.000000 0.000000 0.053547 0.000000
# 6 0.000000 0.000000 0.000000 0.000000 0.000000 0.025523
#
#
# Mechanical properties :
#
#
# Convention : Reuss Voigt Hill
#
# Bulk Modulus (GPa) = 58.99877 62.68905 60.84391
# Shear Modulus (GPa) = 32.38305 38.35829 35.37067
#
# Velocity S-wave (km/s) = 3.68742 4.01322 3.85376
# Velocity P-wave (km/s) = 6.54995 6.91351 6.73418
#
# Compressibility (1/GPa) = 0.01694951
#
# Stress axis : x y z
#
# Youngs Moduli (GPa) = 77.58028 88.51569 172.67692
#
# Poissons Ratio (x) = 0.36942 0.17462
# Poissons Ratio (y) = 0.32379 0.22960
# Poissons Ratio (z) = 0.07845 0.11770
#
# Static dielectric constant tensor:
#      x y z
#    x 2.032420 0.000000 0.000000 
#    y 0.000000 2.037290 0.000000 
#    z 0.000000 0.000000 1.930680 
# 
# From -- ./inp_files/6706.got.cif
#   From: 2010.05.17/outbox.cif.g08.bks.cpg/sg21_4_cif.got.tgz:6706.got - 2010.06.03 23:14:55.
