data_PCOD9323136
_publ_section_title
;
Structure prediction by ZEFSAII (Michael W. Deem and Ramdas Pophale) SiO2 
 PCOD9323136
Probable space group: C 2 2 2
;
_chemical_formula_sum "Si O2"
_cell_formula_units_Z 40
_cell_length_a 34.984793
_cell_length_b 5.032121
_cell_length_c 11.924537
_cell_angle_alpha 90.000000
_cell_angle_beta 90.000000
_cell_angle_gamma 90.000000
_cell_volume 2099.287450
_symmetry_space_group_name_H-M "C 2 2 2"
_symmetry_group_IT_number 21
_symmetry_cell_setting 'orthorhombic'
loop_
_space_group_symop_operation_xyz
x,y,z
-x,-y,z
x,-y,-z
-x,y,-z
1/2+x,1/2+y,z
1/2-x,1/2-y,z
1/2+x,1/2-y,-z
1/2-x,1/2+y,-z
loop_
_atom_site_type_symbol
_atom_site_label
_atom_site_fract_x
_atom_site_fract_y
_atom_site_fract_z
Si Si1 0.860122 0.515107 0.730490
Si Si2 0.378650 0.484501 0.128856
Si Si3 0.559792 0.937078 0.626831
Si Si4 0.207262 0.746339 0.417463
Si Si5 0.041090 0.074919 0.230044
O O1 0.856443 0.230065 0.792278
O O2 0.894913 0.499935 0.641841
O O3 0.824396 0.659582 0.672177
O O4 0.873994 0.721431 0.823511
O O5 0.423529 0.415796 0.144632
O O6 0.366974 0.500000 0.000000
O O7 0.551660 0.642467 0.673219
O O8 0.548596 0.000000 0.500000
O O9 0.539374 0.143177 0.709112
O O10 0.208597 0.500000 0.500000
O O11 0.250000 0.750000 0.366145
O O12 0.199582 0.000000 0.500000
O O13 0.000000 0.000000 0.181480
#
# Coordination Sequence:
#
# PCOD9323136 Si02
#       5
#     8   8   8   8   8
#     4  10  20  35  55  79 108 138 177 223 261 317
#     4  10  21  37  56  76 100 138 185 230 275 312
#     4  10  20  32  49  73 103 139 171 206 261 324
#     4  10  20  34  56  87 118 146 173 207 261 325
#     4  10  21  34  49  73 101 133 177 223 267 318
#
# _framework density 19.054084
#
# number of rings (size 3 to 8) (size 9 to 14) (size 15 to 20)
#    0.000    2.000    0.000    3.600    0.000    6.000 
#    0.000    0.000    0.000    9.600    0.000    0.000 
#    0.000    0.000    0.000    0.000    0.000    0.000 
#
# Total GULP energy -111506.012858 kJ/mol
# GULP energy per Si atom -5575.300643 kJ/mol
# Density = 1.901072 g / cm^3
# Si number density = 19.054084 Si / 1000 Ang^3
#
#
#
# Elastic Constant Matrix: (Units=GPa)
#
#
# Indices 1 2 3 4 5 6 
#
# 1 90.6836 4.7214 15.6606 0.0000 0.0000 0.0000
# 2 4.7214 92.8952 -5.0430 0.0000 0.0000 0.0000
# 3 15.6606 -5.0430 34.6141 0.0000 0.0000 0.0000
# 4 0.0000 0.0000 0.0000 13.2824 0.0000 0.0000
# 5 0.0000 0.0000 0.0000 0.0000 -47.5495 0.0000
# 6 0.0000 0.0000 0.0000 0.0000 0.0000 27.7581
#
#
#
# Elastic Compliance Matrix: (Units=1/GPa)
#
#
# Indices 1 2 3 4 5 6 
#
# 1 0.012039 -0.000915 -0.005580 0.000000 0.000000 0.000000
# 2 -0.000915 0.010920 0.002005 0.000000 0.000000 0.000000
# 3 -0.005580 0.002005 0.031707 0.000000 0.000000 0.000000
# 4 0.000000 0.000000 0.000000 0.075288 0.000000 0.000000
# 5 0.000000 0.000000 0.000000 0.000000 -0.021031 0.000000
# 6 0.000000 0.000000 0.000000 0.000000 0.000000 0.036026
#
#
# Mechanical properties :
#
#
# Convention : Reuss Voigt Hill
#
# Bulk Modulus (GPa) = 21.88872 27.65233 24.77053
# Shear Modulus (GPa) = 29.55844 12.22178 20.89011
#
# Velocity S-wave (km/s) = 3.94292 2.53539 3.31472
# Velocity P-wave (km/s) = 5.67815 4.80780 5.26101
#
# Compressibility (1/GPa) = 0.04568562
#
# Stress axis : x y z
#
# Youngs Moduli (GPa) = 83.06601 91.57386 31.53914
#
# Poissons Ratio (x) = 0.08377 0.17599
# Poissons Ratio (y) = 0.07599 -0.06323
# Poissons Ratio (z) = 0.46351 -0.18359
#
# Static dielectric constant tensor:
#      x y z
#    x 1.785690 0.000000 0.000000 
#    y 0.000000 1.654770 0.000000 
#    z 0.000000 0.000000 1.625060 
# 
# From -- ./inp_files/27959.got.cif
#   From: 2010.05.17/outbox.cif.g08.bks.cpg/sg21_14_cif.got.tgz:27959.got - 2010.06.03 23:14:55.
