data_PCOD9323946
_publ_section_title
;
Structure prediction by ZEFSAII (Michael W. Deem and Ramdas Pophale) SiO2 
 PCOD9323946
Probable space group: C 2 2 2
;
_chemical_formula_sum "Si O2"
_cell_formula_units_Z 56
_cell_length_a 10.050479
_cell_length_b 17.947388
_cell_length_c 15.782076
_cell_angle_alpha 90.000000
_cell_angle_beta 90.000000
_cell_angle_gamma 90.000000
_cell_volume 2846.768442
_symmetry_space_group_name_H-M "C 2 2 2"
_symmetry_group_IT_number 21
_symmetry_cell_setting 'orthorhombic'
loop_
_space_group_symop_operation_xyz
x,y,z
-x,-y,z
x,-y,-z
-x,y,-z
1/2+x,1/2+y,z
1/2-x,1/2-y,z
1/2+x,1/2-y,-z
1/2-x,1/2+y,-z
loop_
_atom_site_type_symbol
_atom_site_label
_atom_site_fract_x
_atom_site_fract_y
_atom_site_fract_z
Si Si1 0.851060 0.030330 0.913552
Si Si2 0.102404 0.214472 0.752049
Si Si3 0.101266 0.280929 0.574107
Si Si4 0.252862 0.436134 0.762338
Si Si5 0.859649 0.540223 0.586306
Si Si6 0.712859 0.165548 0.959664
Si Si7 0.056686 0.658744 0.132628
O O1 0.837224 0.117251 0.929125
O O2 0.783043 0.999555 0.829953
O O3 0.000000 0.000000 0.911676
O O4 0.783524 0.000000 0.000000
O O5 0.250000 0.250000 0.753293
O O6 0.050064 0.242729 0.661314
O O7 0.130343 0.126892 0.761809
O O8 0.035128 0.258800 0.828381
O O9 0.250000 0.250000 0.559352
O O10 0.114775 0.370907 0.577887
O O11 0.000000 0.261774 0.500000
O O12 0.233053 0.466633 0.668217
O O13 0.118336 0.394220 0.794892
O O14 0.809803 0.500000 0.500000
O O15 0.000000 0.500000 0.603743
O O16 0.750000 0.250000 0.943783
O O17 0.583964 0.137074 0.907587
O O18 0.667275 0.159893 0.057994
#
# Coordination Sequence:
#
# PCOD9323946 Si02
#       7
#     8   8   8   8   8   8   8
#     4  11  26  42  63  93 132 179 216 263 335 396
#     4   9  18  36  66  91 119 171 216 255 327 388
#     4  11  20  40  65  98 126 164 220 269 332 403
#     4  11  21  41  67  91 130 171 223 264 323 391
#     4  11  22  38  67  97 129 170 220 278 330 393
#     4  11  24  40  60  97 130 168 217 275 321 382
#     4  10  21  37  66  93 122 163 222 274 311 378
#
# _framework density 19.671426
#
# number of rings (size 3 to 8) (size 9 to 14) (size 15 to 20)
#    0.000    1.429    7.143    1.286    4.000    1.143 
#    0.000    2.143    0.000    0.000    0.000    0.000 
#    0.000    0.000    0.000    0.000    0.000    0.000 
#
# Total GULP energy -156135.044030 kJ/mol
# GULP energy per Si atom -5576.251572 kJ/mol
# Density = 1.962665 g / cm^3
# Si number density = 19.671426 Si / 1000 Ang^3
#
#
#
# Elastic Constant Matrix: (Units=GPa)
#
#
# Indices 1 2 3 4 5 6 
#
# 1 48.1078 20.2872 24.5069 0.0000 0.0000 0.0000
# 2 20.2872 118.2715 41.3724 0.0000 0.0000 0.0000
# 3 24.5069 41.3724 145.5121 0.0000 0.0000 0.0000
# 4 0.0000 0.0000 0.0000 -11.1978 0.0000 0.0000
# 5 0.0000 0.0000 0.0000 0.0000 26.1228 0.0000
# 6 0.0000 0.0000 0.0000 0.0000 0.0000 24.1637
#
#
#
# Elastic Compliance Matrix: (Units=1/GPa)
#
#
# Indices 1 2 3 4 5 6 
#
# 1 0.023632 -0.002955 -0.003140 0.000000 0.000000 0.000000
# 2 -0.002955 0.009759 -0.002277 0.000000 0.000000 0.000000
# 3 -0.003140 -0.002277 0.008048 0.000000 0.000000 0.000000
# 4 0.000000 0.000000 0.000000 -0.089303 0.000000 0.000000
# 5 0.000000 0.000000 0.000000 0.000000 0.038281 0.000000
# 6 0.000000 0.000000 0.000000 0.000000 0.000000 0.041384
#
#
# Mechanical properties :
#
#
# Convention : Reuss Voigt Hill
#
# Bulk Modulus (GPa) = 40.49353 53.80271 47.14812
# Shear Modulus (GPa) = 88.06360 22.86606 55.46483
#
# Velocity S-wave (km/s) = 6.69809 3.41310 5.31572
# Velocity P-wave (km/s) = 8.96933 6.55304 7.85466
#
# Compressibility (1/GPa) = 0.02469530
#
# Stress axis : x y z
#
# Youngs Moduli (GPa) = 42.31478 102.47466 124.24758
#
# Poissons Ratio (x) = 0.30285 0.39012
# Poissons Ratio (y) = 0.12505 0.28289
# Poissons Ratio (z) = 0.13286 0.23332
#
# Static dielectric constant tensor:
#      x y z
#    x 1.691710 0.000000 0.000000 
#    y 0.000000 1.753340 0.000000 
#    z 0.000000 0.000000 1.754080 
# 
# From -- ./inp_files/31604.got.cif
#   From: 2010.05.17/outbox.cif.g08.bks.cpg/sg21_16_cif.got.tgz:31604.got - 2010.06.03 23:14:55.
