data_PCOD9323764
_publ_section_title
;
Structure prediction by ZEFSAII (Michael W. Deem and Ramdas Pophale) SiO2 
 PCOD9323764
Probable space group: C 2 2 2
;
_chemical_formula_sum "Si O2"
_cell_formula_units_Z 28
_cell_length_a 18.096839
_cell_length_b 13.296073
_cell_length_c 5.427098
_cell_angle_alpha 90.000000
_cell_angle_beta 90.000000
_cell_angle_gamma 90.000000
_cell_volume 1305.851456
_symmetry_space_group_name_H-M "C 2 2 2"
_symmetry_group_IT_number 21
_symmetry_cell_setting 'orthorhombic'
loop_
_space_group_symop_operation_xyz
x,y,z
-x,-y,z
x,-y,-z
-x,y,-z
1/2+x,1/2+y,z
1/2-x,1/2-y,z
1/2+x,1/2-y,-z
1/2-x,1/2+y,-z
loop_
_atom_site_type_symbol
_atom_site_label
_atom_site_fract_x
_atom_site_fract_y
_atom_site_fract_z
Si Si1 0.821206 0.675300 0.331052
Si Si2 0.046263 0.828823 0.750841
Si Si3 0.731488 0.869476 0.830714
Si Si4 0.861729 0.000000 0.000000
O O1 0.750000 0.750000 0.338201
O O2 0.893297 0.742994 0.301943
O O3 0.815894 0.616133 0.586265
O O4 0.809490 0.609783 0.087485
O O5 0.000000 0.841737 0.500000
O O6 0.000000 0.803695 0.000000
O O7 0.089148 0.930396 0.825824
O O8 0.750000 0.750000 0.838153
O O9 0.808210 0.929272 0.837868
#
# Coordination Sequence:
#
# PCOD9323764 Si02
#       4
#     8   8   8   4
#     4  10  20  43  64  84 134 178 234 260 308 407
#     4  12  27  43  64 103 149 181 210 273 363 428
#     4  10  21  39  67  89 129 175 231 274 309 390
#     4  12  25  44  68 104 145 176 216 288 343 412
#
# _framework density 21.441948
#
# number of rings (size 3 to 8) (size 9 to 14) (size 15 to 20)
#    0.000    1.143    5.714    2.143    4.000    5.714 
#    0.000    0.000    0.000    0.000    0.000   15.000 
#    0.000    0.000    0.000    0.000    0.000    0.000 
#
# Total GULP energy -78278.876191 kJ/mol
# GULP energy per Si atom -5591.348299 kJ/mol
# Density = 2.139315 g / cm^3
# Si number density = 21.441948 Si / 1000 Ang^3
#
#
#
# Elastic Constant Matrix: (Units=GPa)
#
#
# Indices 1 2 3 4 5 6 
#
# 1 142.1871 43.8720 84.1152 0.0000 0.0000 0.0000
# 2 43.8720 38.7046 24.0711 0.0000 0.0000 0.0000
# 3 84.1152 24.0711 246.3963 0.0000 0.0000 0.0000
# 4 0.0000 0.0000 0.0000 5.7009 0.0000 0.0000
# 5 0.0000 0.0000 0.0000 0.0000 56.9063 0.0000
# 6 0.0000 0.0000 0.0000 0.0000 0.0000 81.5530
#
#
#
# Elastic Compliance Matrix: (Units=1/GPa)
#
#
# Indices 1 2 3 4 5 6 
#
# 1 0.012738 -0.012494 -0.003128 0.000000 0.000000 0.000000
# 2 -0.012494 0.039762 0.000381 0.000000 0.000000 0.000000
# 3 -0.003128 0.000381 0.005089 0.000000 0.000000 0.000000
# 4 0.000000 0.000000 0.000000 0.175411 0.000000 0.000000
# 5 0.000000 0.000000 0.000000 0.000000 0.017573 0.000000
# 6 0.000000 0.000000 0.000000 0.000000 0.000000 0.012262
#
#
# Mechanical properties :
#
#
# Convention : Reuss Voigt Hill
#
# Bulk Modulus (GPa) = 36.89078 81.26718 59.07898
# Shear Modulus (GPa) = 16.53695 47.18068 31.85881
#
# Velocity S-wave (km/s) = 2.78014 4.69592 3.85881
# Velocity P-wave (km/s) = 5.24861 8.20887 6.88961
#
# Compressibility (1/GPa) = 0.02710704
#
# Stress axis : x y z
#
# Youngs Moduli (GPa) = 78.50220 25.14983 196.49449
#
# Poissons Ratio (x) = 0.31422 0.61466
# Poissons Ratio (y) = 0.98079 -0.07481
# Poissons Ratio (z) = 0.24557 -0.00957
#
# Static dielectric constant tensor:
#      x y z
#    x 1.779150 0.000000 0.000000 
#    y 0.000000 1.796790 0.000000 
#    z 0.000000 0.000000 1.299940 
# 
# From -- ./inp_files/3348.got.cif
#   From: 2010.05.17/outbox.cif.g08.bks.cpg/sg21_2_cif.got.tgz:3348.got - 2010.06.03 23:14:55.
