data_PCOD9323666
_publ_section_title
;
Structure prediction by ZEFSAII (Michael W. Deem and Ramdas Pophale) SiO2 
 PCOD9323666
Probable space group: C 2 2 2
;
_chemical_formula_sum "Si O2"
_cell_formula_units_Z 26
_cell_length_a 7.021120
_cell_length_b 16.868397
_cell_length_c 11.032982
_cell_angle_alpha 90.000000
_cell_angle_beta 90.000000
_cell_angle_gamma 90.000000
_cell_volume 1306.691659
_symmetry_space_group_name_H-M "C 2 2 2"
_symmetry_group_IT_number 21
_symmetry_cell_setting 'orthorhombic'
loop_
_space_group_symop_operation_xyz
x,y,z
-x,-y,z
x,-y,-z
-x,y,-z
1/2+x,1/2+y,z
1/2-x,1/2-y,z
1/2+x,1/2-y,-z
1/2-x,1/2+y,-z
loop_
_atom_site_type_symbol
_atom_site_label
_atom_site_fract_x
_atom_site_fract_y
_atom_site_fract_z
Si Si1 0.500000 0.359595 0.500000
Si Si2 0.250000 0.250000 0.322829
Si Si3 0.698783 0.532319 0.693700
Si Si4 0.000000 0.500000 0.000000
Si Si5 0.935603 0.602210 0.216761
O O1 0.385973 0.302789 0.408276
O O2 0.363387 0.417801 0.576734
O O3 0.130354 0.309806 0.239633
O O4 0.500000 0.500000 0.747909
O O5 0.827872 0.453168 0.683695
O O6 0.838107 0.590200 0.768179
O O7 0.112913 0.558962 0.909958
#
# Coordination Sequence:
#
# PCOD9323666 Si02
#       5
#     4   4   8   2   8
#     4  12  23  38  58  95 134 168 200 235 324 378
#     4  12  24  38  60 100 132 164 202 268 314 374
#     4  10  20  40  61  88 125 171 212 239 294 399
#     4   8  20  48  66  82 116 168 216 272 310 370
#     4  10  23  42  66  89 126 159 222 267 307 367
#
# _framework density 19.897576999999998
#
# number of rings (size 3 to 8) (size 9 to 14) (size 15 to 20)
#    0.000    1.846    3.077    2.308    0.000    0.000 
#    5.538   18.462    0.000    0.000    0.000    0.000 
#    0.000    0.000    0.000    0.000    0.000    0.000 
#
# Total GULP energy -72373.809609 kJ/mol
# GULP energy per Si atom -5567.216124 kJ/mol
# Density = 1.985229 g / cm^3
# Si number density = 19.897577 Si / 1000 Ang^3
#
#
#
# Elastic Constant Matrix: (Units=GPa)
#
#
# Indices 1 2 3 4 5 6 
#
# 1 116.0330 54.0286 38.0260 0.0000 0.0000 0.0000
# 2 54.0286 158.7090 65.7932 0.0000 0.0000 0.0000
# 3 38.0260 65.7932 100.2042 0.0000 0.0000 0.0000
# 4 0.0000 0.0000 0.0000 39.0407 0.0000 0.0000
# 5 0.0000 0.0000 0.0000 0.0000 13.3409 0.0000
# 6 0.0000 0.0000 0.0000 0.0000 0.0000 41.7284
#
#
#
# Elastic Compliance Matrix: (Units=1/GPa)
#
#
# Indices 1 2 3 4 5 6 
#
# 1 0.010605 -0.002668 -0.002273 0.000000 0.000000 0.000000
# 2 -0.002668 0.009329 -0.005113 0.000000 0.000000 0.000000
# 3 -0.002273 -0.005113 0.014199 0.000000 0.000000 0.000000
# 4 0.000000 0.000000 0.000000 0.025614 0.000000 0.000000
# 5 0.000000 0.000000 0.000000 0.000000 0.074957 0.000000
# 6 0.000000 0.000000 0.000000 0.000000 0.000000 0.023964
#
#
# Mechanical properties :
#
#
# Convention : Reuss Voigt Hill
#
# Bulk Modulus (GPa) = 71.29563 76.73796 74.01679
# Shear Modulus (GPa) = 27.25521 33.29524 30.27522
#
# Velocity S-wave (km/s) = 3.70506 4.09508 3.90494
# Velocity P-wave (km/s) = 7.36291 7.81087 7.59020
#
# Compressibility (1/GPa) = 0.01402611
#
# Stress axis : x y z
#
# Youngs Moduli (GPa) = 94.29124 107.19753 70.42795
#
# Poissons Ratio (x) = 0.28603 0.16006
# Poissons Ratio (y) = 0.25159 0.36006
# Poissons Ratio (z) = 0.21429 0.54805
#
# Static dielectric constant tensor:
#      x y z
#    x 1.751410 0.000000 0.000000 
#    y 0.000000 1.707380 0.000000 
#    z 0.000000 0.000000 1.750920 
# 
# From -- ./inp_files/20507.got.cif
#   From: 2010.05.17/outbox.cif.g08.bks.cpg/sg21_11_cif.got.tgz:20507.got - 2010.06.03 23:14:55.
