data_PCOD9323274
_publ_section_title
;
Structure prediction by ZEFSAII (Michael W. Deem and Ramdas Pophale) SiO2 
 PCOD9323274
Probable space group: C 2 2 2
;
_chemical_formula_sum "Si O2"
_cell_formula_units_Z 38
_cell_length_a 14.283460
_cell_length_b 21.516396
_cell_length_c 5.245959
_cell_angle_alpha 90.000000
_cell_angle_beta 90.000000
_cell_angle_gamma 90.000000
_cell_volume 1612.233139
_symmetry_space_group_name_H-M "C 2 2 2"
_symmetry_group_IT_number 21
_symmetry_cell_setting 'orthorhombic'
loop_
_space_group_symop_operation_xyz
x,y,z
-x,-y,z
x,-y,-z
-x,y,-z
1/2+x,1/2+y,z
1/2-x,1/2-y,z
1/2+x,1/2-y,-z
1/2-x,1/2+y,-z
loop_
_atom_site_type_symbol
_atom_site_label
_atom_site_fract_x
_atom_site_fract_y
_atom_site_fract_z
Si Si1 0.500000 0.000000 0.000000
Si Si2 0.904547 0.430209 0.612520
Si Si3 0.057417 0.255752 0.762080
Si Si4 0.201439 0.120684 0.373051
Si Si5 0.750000 0.250000 0.433902
Si Si6 0.907030 0.890802 0.867954
O O1 0.426411 0.948542 0.898920
O O2 0.901447 0.500000 0.500000
O O3 0.807562 0.397979 0.574978
O O4 0.000000 0.400965 0.500000
O O5 0.164688 0.277908 0.731497
O O6 0.069209 0.181957 0.819006
O O7 0.000000 0.262323 0.500000
O O8 0.000000 0.283086 0.000000
O O9 0.202134 0.195687 0.402026
O O10 0.134264 0.090986 0.591496
O O11 0.169760 0.103764 0.089850
O O12 0.000000 0.918859 0.000000
#
# Coordination Sequence:
#
# PCOD9323274 Si02
#       6
#     2   8   8   8   4   8
#     4   8  18  40  72  82 126 164 198 268 306 390
#     4   9  21  40  65  93 123 159 209 253 317 365
#     4  10  20  35  56  76 113 165 203 240 294 359
#     4  11  23  36  63  89 122 162 204 257 309 372
#     4  10  22  38  56  90 126 156 206 250 310 368
#     4  10  20  37  58  83 116 160 206 242 296 360
#
# _framework density 23.569793000000001
#
# number of rings (size 3 to 8) (size 9 to 14) (size 15 to 20)
#    0.000    2.316    0.000    5.684    5.895    8.421 
#    0.000    0.000    9.263    3.789    0.000    0.000 
#    0.000    0.000    0.000    0.000    0.000    0.000 
#
# Total GULP energy -105890.484738 kJ/mol
# GULP energy per Si atom -5573.183407 kJ/mol
# Density = 2.351615 g / cm^3
# Si number density = 23.569793 Si / 1000 Ang^3
#
#
#
# Elastic Constant Matrix: (Units=GPa)
#
#
# Indices 1 2 3 4 5 6 
#
# 1 133.8372 16.7651 35.3479 0.0000 0.0000 0.0000
# 2 16.7651 30.4916 -2.7515 0.0000 0.0000 0.0000
# 3 35.3479 -2.7515 108.6511 0.0000 0.0000 0.0000
# 4 0.0000 0.0000 0.0000 -14.7164 0.0000 0.0000
# 5 0.0000 0.0000 0.0000 0.0000 49.0752 0.0000
# 6 0.0000 0.0000 0.0000 0.0000 0.0000 30.0566
#
#
#
# Elastic Compliance Matrix: (Units=1/GPa)
#
#
# Indices 1 2 3 4 5 6 
#
# 1 0.008922 -0.005179 -0.003034 0.000000 0.000000 0.000000
# 2 -0.005179 0.035878 0.002594 0.000000 0.000000 0.000000
# 3 -0.003034 0.002594 0.010256 0.000000 0.000000 0.000000
# 4 0.000000 0.000000 0.000000 -0.067952 0.000000 0.000000
# 5 0.000000 0.000000 0.000000 0.000000 0.020377 0.000000
# 6 0.000000 0.000000 0.000000 0.000000 0.000000 0.033271
#
#
# Mechanical properties :
#
#
# Convention : Reuss Voigt Hill
#
# Bulk Modulus (GPa) = 22.82214 41.30032 32.06123
# Shear Modulus (GPa) = 75.07942 27.79098 51.43520
#
# Velocity S-wave (km/s) = 5.65007 3.43752 4.67652
# Velocity P-wave (km/s) = 7.22967 5.77200 6.54156
#
# Compressibility (1/GPa) = 0.04381710
#
# Stress axis : x y z
#
# Youngs Moduli (GPa) = 112.08539 27.87251 97.49987
#
# Poissons Ratio (x) = 0.14436 0.29579
# Poissons Ratio (y) = 0.58051 -0.25287
# Poissons Ratio (z) = 0.34003 -0.07229
#
# Static dielectric constant tensor:
#      x y z
#    x 1.907430 0.000000 0.000000 
#    y 0.000000 1.914800 0.000000 
#    z 0.000000 0.000000 1.665140 
# 
# From -- ./inp_files/2889.got.cif
#   From: 2010.05.17/outbox.cif.g08.bks.cpg/sg21_2_cif.got.tgz:2889.got - 2010.06.03 23:14:55.
