data_PCOD9323121
_publ_section_title
;
Structure prediction by ZEFSAII (Michael W. Deem and Ramdas Pophale) SiO2 
 PCOD9323121
Probable space group: C 2 2 2
;
_chemical_formula_sum "Si O2"
_cell_formula_units_Z 44
_cell_length_a 8.600358
_cell_length_b 26.818396
_cell_length_c 8.858617
_cell_angle_alpha 90.000000
_cell_angle_beta 90.000000
_cell_angle_gamma 90.000000
_cell_volume 2043.220580
_symmetry_space_group_name_H-M "C 2 2 2"
_symmetry_group_IT_number 21
_symmetry_cell_setting 'orthorhombic'
loop_
_space_group_symop_operation_xyz
x,y,z
-x,-y,z
x,-y,-z
-x,y,-z
1/2+x,1/2+y,z
1/2-x,1/2-y,z
1/2+x,1/2-y,-z
1/2-x,1/2+y,-z
loop_
_atom_site_type_symbol
_atom_site_label
_atom_site_fract_x
_atom_site_fract_y
_atom_site_fract_z
Si Si1 0.500000 0.083749 0.500000
Si Si2 0.000000 0.000000 0.000000
Si Si3 0.682523 0.300155 0.449368
Si Si4 0.310265 0.154330 0.273159
Si Si5 0.218815 0.401306 0.735564
Si Si6 0.429437 0.430661 0.241390
Si Si7 0.500000 0.137565 0.000000
Si Si8 0.000000 0.000000 0.500000
O O1 0.416290 0.117458 0.373352
O O2 0.367696 0.063040 0.611816
O O3 0.109416 0.034244 0.102592
O O4 0.500000 0.301211 0.500000
O O5 0.750000 0.250000 0.373765
O O6 0.771907 0.303420 0.608984
O O7 0.736500 0.348545 0.350791
O O8 0.158550 0.121238 0.239984
O O9 0.394999 0.167740 0.118811
O O10 0.386547 0.422841 0.772183
O O11 0.116194 0.392435 0.886686
O O12 0.405169 0.462614 0.392270
#
# Coordination Sequence:
#
# PCOD9323121 Si02
#       8
#     4   2   8   8   8   8   4   2
#     4   8  18  30  58  86 112 152 206 237 298 361
#     4  10  24  34  60  94 112 154 204 266 304 362
#     4  11  23  38  65  92 122 159 210 260 302 360
#     4  10  20  39  61  87 121 166 203 249 310 374
#     4  10  20  39  61  87 121 166 203 249 310 374
#     4  11  20  38  61  86 120 156 212 254 310 368
#     4  10  22  36  62  86 118 156 204 237 302 373
#     4  10  20  30  60  94 116 146 208 282 296 350
#
# _framework density 21.53463
#
# number of rings (size 3 to 8) (size 9 to 14) (size 15 to 20)
#    0.000    1.818    1.818    3.273    7.636    0.000 
#    0.000    0.909    0.000   76.364    0.000    0.000 
#    0.000    0.000    0.000    0.000    0.000    0.000 
#
# Total GULP energy -122502.517924 kJ/mol
# GULP energy per Si atom -5568.296269 kJ/mol
# Density = 2.148562 g / cm^3
# Si number density = 21.534630 Si / 1000 Ang^3
#
#
#
# Elastic Constant Matrix: (Units=GPa)
#
#
# Indices 1 2 3 4 5 6 
#
# 1 105.5988 -2.8654 32.6555 0.0000 0.0000 0.0000
# 2 -2.8654 53.8294 11.5904 0.0000 0.0000 0.0000
# 3 32.6555 11.5904 132.6163 0.0000 0.0000 0.0000
# 4 0.0000 0.0000 0.0000 -27.6844 0.0000 0.0000
# 5 0.0000 0.0000 0.0000 0.0000 36.0153 0.0000
# 6 0.0000 0.0000 0.0000 0.0000 0.0000 20.1022
#
#
#
# Elastic Compliance Matrix: (Units=1/GPa)
#
#
# Indices 1 2 3 4 5 6 
#
# 1 0.010316 0.001117 -0.002638 0.000000 0.000000 0.000000
# 2 0.001117 0.019054 -0.001940 0.000000 0.000000 0.000000
# 3 -0.002638 -0.001940 0.008360 0.000000 0.000000 0.000000
# 4 0.000000 0.000000 0.000000 -0.036121 0.000000 0.000000
# 5 0.000000 0.000000 0.000000 0.000000 0.027766 0.000000
# 6 0.000000 0.000000 0.000000 0.000000 0.000000 0.049746
#
#
# Mechanical properties :
#
#
# Convention : Reuss Voigt Hill
#
# Bulk Modulus (GPa) = 32.45936 41.64505 37.05220
# Shear Modulus (GPa) = 51.91472 22.39756 37.15614
#
# Velocity S-wave (km/s) = 4.91527 3.22851 4.15832
# Velocity P-wave (km/s) = 6.87888 5.76874 6.34812
#
# Compressibility (1/GPa) = 0.03080776
#
# Stress axis : x y z
#
# Youngs Moduli (GPa) = 96.93838 52.48110 119.62196
#
# Poissons Ratio (x) = -0.05863 0.31554
# Poissons Ratio (y) = -0.10829 0.23211
# Poissons Ratio (z) = 0.25570 0.10183
#
# Static dielectric constant tensor:
#      x y z
#    x 3.394710 0.000000 0.000000 
#    y 0.000000 1.753370 0.000000 
#    z 0.000000 0.000000 1.798870 
# 
# From -- ./inp_files/11463.got.cif
#   From: 2010.05.17/outbox.cif.g08.bks.cpg/sg21_6_cif.got.tgz:11463.got - 2010.06.03 23:14:55.
