data_PCOD9323336
_publ_section_title
;
Structure prediction by ZEFSAII (Michael W. Deem and Ramdas Pophale) SiO2 
 PCOD9323336
Probable space group: C 2 2 2
;
_chemical_formula_sum "Si O2"
_cell_formula_units_Z 64
_cell_length_a 18.176007
_cell_length_b 8.756903
_cell_length_c 21.014907
_cell_angle_alpha 90.000000
_cell_angle_beta 90.000000
_cell_angle_gamma 90.000000
_cell_volume 3344.848815
_symmetry_space_group_name_H-M "C 2 2 2"
_symmetry_group_IT_number 21
_symmetry_cell_setting 'orthorhombic'
loop_
_space_group_symop_operation_xyz
x,y,z
-x,-y,z
x,-y,-z
-x,y,-z
1/2+x,1/2+y,z
1/2-x,1/2-y,z
1/2+x,1/2-y,-z
1/2-x,1/2+y,-z
loop_
_atom_site_type_symbol
_atom_site_label
_atom_site_fract_x
_atom_site_fract_y
_atom_site_fract_z
Si Si1 0.582256 0.064097 0.064792
Si Si2 0.650109 0.087905 0.565021
Si Si3 0.415543 0.952744 0.307115
Si Si4 0.827692 0.062344 0.568849
Si Si5 0.671248 0.446248 0.815800
Si Si6 0.655763 0.097673 0.815773
Si Si7 0.081258 0.928305 0.067033
Si Si8 0.828849 0.154460 0.309874
O O1 0.578333 0.246133 0.061737
O O2 0.500000 0.000000 0.066061
O O3 0.618935 0.997378 0.127796
O O4 0.618489 0.000000 0.000000
O O5 0.738714 0.075286 0.568758
O O6 0.637061 0.269305 0.572202
O O7 0.628136 0.000000 0.500000
O O8 0.612439 0.007339 0.624366
O O9 0.394708 0.775321 0.303192
O O10 0.500000 0.000000 0.298240
O O11 0.368020 0.031394 0.251919
O O12 0.849772 0.000000 0.500000
O O13 0.841192 0.946359 0.626777
O O14 0.636416 0.276964 0.814189
O O15 0.757632 0.421059 0.825945
O O16 0.633458 0.531541 0.874285
O O17 0.667717 0.542253 0.750635
O O18 0.000000 0.000000 0.077868
O O19 0.107497 0.000000 0.000000
O O20 0.750000 0.250000 0.312526
#
# Coordination Sequence:
#
# PCOD9323336 Si02
#       8
#     8   8   8   8   8   8   8   8
#     4  11  22  39  63  87 123 165 207 257 318 383
#     4  10  20  37  61  91 128 163 212 267 326 386
#     4  12  25  40  61  89 127 170 212 262 334 394
#     4  10  20  35  65  95 121 166 218 272 321 384
#     4  11  24  40  66  90 126 164 211 270 329 383
#     4  11  23  42  62  91 122 164 215 263 322 390
#     4  11  23  41  65  95 130 166 214 267 326 393
#     4  12  22  40  64  94 129 164 218 277 329 386
#
# _framework density 19.133899
#
# number of rings (size 3 to 8) (size 9 to 14) (size 15 to 20)
#    0.000    1.000    2.500    5.625    1.750    3.750 
#    0.000    1.875    0.000    0.750    0.000    0.000 
#    0.000    0.000    0.000    0.000    0.000    0.000 
#
# Total GULP energy -178710.379782 kJ/mol
# GULP energy per Si atom -5584.699368 kJ/mol
# Density = 1.909035 g / cm^3
# Si number density = 19.133899 Si / 1000 Ang^3
#
#
#
# Elastic Constant Matrix: (Units=GPa)
#
#
# Indices 1 2 3 4 5 6 
#
# 1 43.7495 32.3288 34.6598 0.0000 0.0000 0.0000
# 2 32.3288 191.6741 76.0681 0.0000 0.0000 0.0000
# 3 34.6598 76.0681 151.6064 0.0000 0.0000 0.0000
# 4 0.0000 0.0000 0.0000 43.9839 0.0000 0.0000
# 5 0.0000 0.0000 0.0000 0.0000 6.8639 0.0000
# 6 0.0000 0.0000 0.0000 0.0000 0.0000 27.7509
#
#
#
# Elastic Compliance Matrix: (Units=1/GPa)
#
#
# Indices 1 2 3 4 5 6 
#
# 1 0.029093 -0.002831 -0.005231 0.000000 0.000000 0.000000
# 2 -0.002831 0.006790 -0.002760 0.000000 0.000000 0.000000
# 3 -0.005231 -0.002760 0.009176 0.000000 0.000000 0.000000
# 4 0.000000 0.000000 0.000000 0.022736 0.000000 0.000000
# 5 0.000000 0.000000 0.000000 0.000000 0.145690 0.000000
# 6 0.000000 0.000000 0.000000 0.000000 0.000000 0.036035
#
#
# Mechanical properties :
#
#
# Convention : Reuss Voigt Hill
#
# Bulk Modulus (GPa) = 42.70425 74.79371 58.74898
# Shear Modulus (GPa) = 17.92318 31.98464 24.95391
#
# Velocity S-wave (km/s) = 3.06391 4.09298 3.61525
# Velocity P-wave (km/s) = 5.90626 7.84291 6.94244
#
# Compressibility (1/GPa) = 0.02341687
#
# Stress axis : x y z
#
# Youngs Moduli (GPa) = 34.37202 147.27835 108.97466
#
# Poissons Ratio (x) = 0.41697 0.57002
# Poissons Ratio (y) = 0.09731 0.30072
# Poissons Ratio (z) = 0.17979 0.40642
#
# Static dielectric constant tensor:
#      x y z
#    x 1.654980 0.000000 0.000000 
#    y 0.000000 1.720760 0.000000 
#    z 0.000000 0.000000 1.631160 
# 
# From -- ./inp_files/37714.got.cif
#   From: 2010.05.17/outbox.cif.g08.bks.cpg/sg21_19_cif.got.tgz:37714.got - 2010.06.03 23:14:55.
