data_PCOD9323484
_publ_section_title
;
Structure prediction by ZEFSAII (Michael W. Deem and Ramdas Pophale) SiO2 
 PCOD9323484
Probable space group: C 2 2 2
;
_chemical_formula_sum "Si O2"
_cell_formula_units_Z 32
_cell_length_a 8.578866
_cell_length_b 16.229479
_cell_length_c 10.527523
_cell_angle_alpha 90.000000
_cell_angle_beta 90.000000
_cell_angle_gamma 90.000000
_cell_volume 1465.752560
_symmetry_space_group_name_H-M "C 2 2 2"
_symmetry_group_IT_number 21
_symmetry_cell_setting 'orthorhombic'
loop_
_space_group_symop_operation_xyz
x,y,z
-x,-y,z
x,-y,-z
-x,y,-z
1/2+x,1/2+y,z
1/2-x,1/2-y,z
1/2+x,1/2-y,-z
1/2-x,1/2+y,-z
loop_
_atom_site_type_symbol
_atom_site_label
_atom_site_fract_x
_atom_site_fract_y
_atom_site_fract_z
Si Si1 0.920897 0.852464 0.626864
Si Si2 0.874285 0.327796 0.887036
Si Si3 0.572226 0.843805 0.631164
Si Si4 0.422709 0.410704 0.122523
O O1 0.744177 0.881580 0.651521
O O2 0.908810 0.754341 0.609965
O O3 0.000000 0.887532 0.500000
O O4 0.029953 0.868014 0.746916
O O5 0.750000 0.250000 0.882514
O O6 0.759653 0.405688 0.902990
O O7 0.963939 0.344770 0.755142
O O8 0.000000 0.319537 0.000000
O O9 0.500000 0.877594 0.500000
O O10 0.500000 0.500000 0.131071
O O11 0.500000 0.368572 0.000000
#
# Coordination Sequence:
#
# PCOD9323484 Si02
#       4
#     8   8   8   8
#     4  10  20  37  62  90 127 167 212 260 319 379
#     4  12  24  39  66  99 130 168 221 275 321 381
#     4  10  21  35  62  96 127 164 210 267 322 375
#     4  11  24  43  62  87 128 173 212 260 328 389
#
# _framework density 21.831790999999999
#
# number of rings (size 3 to 8) (size 9 to 14) (size 15 to 20)
#    0.000    1.250    2.500    3.750    7.000    0.500 
#    0.000    8.750    0.000    1.500    0.000    0.000 
#    0.000    0.000    0.000    0.000    0.000    0.000 
#
# Total GULP energy -89260.359692 kJ/mol
# GULP energy per Si atom -5578.772481 kJ/mol
# Density = 2.178210 g / cm^3
# Si number density = 21.831791 Si / 1000 Ang^3
#
#
#
# Elastic Constant Matrix: (Units=GPa)
#
#
# Indices 1 2 3 4 5 6 
#
# 1 192.2728 29.0353 96.7289 0.0000 0.0000 0.0000
# 2 29.0353 41.3143 2.4916 0.0000 0.0000 0.0000
# 3 96.7289 2.4916 198.9568 0.0000 0.0000 0.0000
# 4 0.0000 0.0000 0.0000 -5.3702 0.0000 0.0000
# 5 0.0000 0.0000 0.0000 0.0000 9.0211 0.0000
# 6 0.0000 0.0000 0.0000 0.0000 0.0000 23.7212
#
#
#
# Elastic Compliance Matrix: (Units=1/GPa)
#
#
# Indices 1 2 3 4 5 6 
#
# 1 0.007906 -0.005328 -0.003777 0.000000 0.000000 0.000000
# 2 -0.005328 0.027814 0.002242 0.000000 0.000000 0.000000
# 3 -0.003777 0.002242 0.006834 0.000000 0.000000 0.000000
# 4 0.000000 0.000000 0.000000 -0.186211 0.000000 0.000000
# 5 0.000000 0.000000 0.000000 0.000000 0.110852 0.000000
# 6 0.000000 0.000000 0.000000 0.000000 0.000000 0.042156
#
#
# Mechanical properties :
#
#
# Convention : Reuss Voigt Hill
#
# Bulk Modulus (GPa) = 34.68814 76.56173 55.62494
# Shear Modulus (GPa) = 152.97038 25.76028 89.36533
#
# Velocity S-wave (km/s) = 8.37973 3.43876 6.40488
# Velocity P-wave (km/s) = 10.46660 7.13525 8.95716
#
# Compressibility (1/GPa) = 0.02882829
#
# Stress axis : x y z
#
# Youngs Moduli (GPa) = 126.49231 35.95297 146.31947
#
# Poissons Ratio (x) = 0.19157 0.55262
# Poissons Ratio (y) = 0.67398 -0.32807
# Poissons Ratio (z) = 0.47774 -0.08061
#
# Static dielectric constant tensor:
#      x y z
#    x 1.838050 0.000000 0.000000 
#    y 0.000000 1.888470 0.000000 
#    z 0.000000 0.000000 1.768180 
# 
# From -- ./inp_files/10436.got.cif
#   From: 2010.05.17/outbox.cif.g08.bks.cpg/sg21_6_cif.got.tgz:10436.got - 2010.06.03 23:14:55.
