data_PCOD9323449
_publ_section_title
;
Structure prediction by ZEFSAII (Michael W. Deem and Ramdas Pophale) SiO2 
 PCOD9323449
Probable space group: C 2 2 2
;
_chemical_formula_sum "Si O2"
_cell_formula_units_Z 64
_cell_length_a 24.603068
_cell_length_b 15.310937
_cell_length_c 7.561391
_cell_angle_alpha 90.000000
_cell_angle_beta 90.000000
_cell_angle_gamma 90.000000
_cell_volume 2848.345927
_symmetry_space_group_name_H-M "C 2 2 2"
_symmetry_group_IT_number 21
_symmetry_cell_setting 'orthorhombic'
loop_
_space_group_symop_operation_xyz
x,y,z
-x,-y,z
x,-y,-z
-x,y,-z
1/2+x,1/2+y,z
1/2-x,1/2-y,z
1/2+x,1/2-y,-z
1/2-x,1/2+y,-z
loop_
_atom_site_type_symbol
_atom_site_label
_atom_site_fract_x
_atom_site_fract_y
_atom_site_fract_z
Si Si1 0.296493 0.472303 0.699141
Si Si2 0.877480 0.685533 0.142229
Si Si3 0.980861 0.093086 0.703001
Si Si4 0.324113 0.983604 0.788402
Si Si5 0.504062 0.787199 0.206412
Si Si6 0.188484 0.214680 0.605058
Si Si7 0.645080 0.633713 0.240610
Si Si8 0.894553 0.361525 0.264043
O O1 0.314188 0.500000 0.500000
O O2 0.231947 0.482290 0.709571
O O3 0.314013 0.372795 0.725892
O O4 0.321720 0.549060 0.816806
O O5 0.835920 0.619022 0.233991
O O6 0.933484 0.692432 0.253437
O O7 0.857868 0.784015 0.111473
O O8 0.889839 0.648327 0.948936
O O9 0.004898 0.182723 0.781449
O O10 0.915964 0.102149 0.716819
O O11 0.000000 0.093676 0.500000
O O12 0.000000 0.000000 0.779766
O O13 0.372538 0.041233 0.705775
O O14 0.320305 0.000000 0.000000
O O15 0.456569 0.837420 0.308217
O O16 0.500000 0.810681 0.000000
O O17 0.250000 0.250000 0.608631
O O18 0.172547 0.178789 0.411789
O O19 0.146488 0.290004 0.657098
#
# Coordination Sequence:
#
# PCOD9323449 Si02
#       8
#     8   8   8   8   8   8   8   8
#     4  10  23  37  55  79 112 145 187 224 274 330
#     4   9  21  38  57  83 112 143 186 226 279 330
#     4  10  21  34  57  83 109 145 181 227 276 328
#     4  10  21  37  56  82 111 143 185 230 274 326
#     4   9  19  37  57  80 110 144 181 225 276 330
#     4  11  22  37  58  83 111 148 187 229 274 329
#     4  10  23  38  56  84 112 147 188 225 276 331
#     4  10  20  37  59  82 112 146 181 231 276 327
#
# _framework density 22.469182
#
# number of rings (size 3 to 8) (size 9 to 14) (size 15 to 20)
#    0.000    2.125    1.250    0.750   10.500    1.750 
#    0.000    2.500    0.000    0.000    0.000    3.500 
#    0.000    0.000    0.000    0.000    0.000    0.000 
#
# Total GULP energy -178661.888586 kJ/mol
# GULP energy per Si atom -5583.184018 kJ/mol
# Density = 2.241804 g / cm^3
# Si number density = 22.469182 Si / 1000 Ang^3
#
#
#
# Elastic Constant Matrix: (Units=GPa)
#
#
# Indices 1 2 3 4 5 6 
#
# 1 52.7156 20.9384 -1.1962 0.0000 0.0000 0.0000
# 2 20.9384 98.1536 11.0504 0.0000 0.0000 0.0000
# 3 -1.1962 11.0504 32.0674 0.0000 0.0000 0.0000
# 4 0.0000 0.0000 0.0000 -29.0431 0.0000 0.0000
# 5 0.0000 0.0000 0.0000 0.0000 6.2362 0.0000
# 6 0.0000 0.0000 0.0000 0.0000 0.0000 41.6418
#
#
#
# Elastic Compliance Matrix: (Units=1/GPa)
#
#
# Indices 1 2 3 4 5 6 
#
# 1 0.020903 -0.004730 0.002410 0.000000 0.000000 0.000000
# 2 -0.004730 0.011670 -0.004198 0.000000 0.000000 0.000000
# 3 0.002410 -0.004198 0.032721 0.000000 0.000000 0.000000
# 4 0.000000 0.000000 0.000000 -0.034432 0.000000 0.000000
# 5 0.000000 0.000000 0.000000 0.000000 0.160353 0.000000
# 6 0.000000 0.000000 0.000000 0.000000 0.000000 0.024014
#
#
# Mechanical properties :
#
#
# Convention : Reuss Voigt Hill
#
# Bulk Modulus (GPa) = 19.13621 27.16910 23.15266
# Shear Modulus (GPa) = 20.35119 13.90992 17.13055
#
# Velocity S-wave (km/s) = 3.01281 2.49080 2.76416
# Velocity P-wave (km/s) = 4.54289 4.51554 4.52924
#
# Compressibility (1/GPa) = 0.05225694
#
# Stress axis : x y z
#
# Youngs Moduli (GPa) = 47.83930 85.69098 30.56163
#
# Poissons Ratio (x) = 0.40536 -0.07365
# Poissons Ratio (y) = 0.22630 0.12829
# Poissons Ratio (z) = -0.11529 0.35972
#
# Static dielectric constant tensor:
#      x y z
#    x 1.830450 0.000000 0.000000 
#    y 0.000000 1.857610 0.000000 
#    z 0.000000 0.000000 1.872680 
# 
# From -- ./inp_files/15499.got.cif
#   From: 2010.05.17/outbox.cif.g08.bks.cpg/sg21_8_cif.got.tgz:15499.got - 2010.06.03 23:14:55.
