data_PCOD9323365
_publ_section_title
;
Structure prediction by ZEFSAII (Michael W. Deem and Ramdas Pophale) SiO2 
 PCOD9323365
Probable space group: C 2 2 2
;
_chemical_formula_sum "Si O2"
_cell_formula_units_Z 64
_cell_length_a 18.205771
_cell_length_b 9.045998
_cell_length_c 21.279024
_cell_angle_alpha 90.000000
_cell_angle_beta 90.000000
_cell_angle_gamma 90.000000
_cell_volume 3504.429015
_symmetry_space_group_name_H-M "C 2 2 2"
_symmetry_group_IT_number 21
_symmetry_cell_setting 'orthorhombic'
loop_
_space_group_symop_operation_xyz
x,y,z
-x,-y,z
x,-y,-z
-x,y,-z
1/2+x,1/2+y,z
1/2-x,1/2-y,z
1/2+x,1/2-y,-z
1/2-x,1/2+y,-z
loop_
_atom_site_type_symbol
_atom_site_label
_atom_site_fract_x
_atom_site_fract_y
_atom_site_fract_z
Si Si1 0.589423 0.169923 0.255400
Si Si2 0.587311 0.676049 0.127169
Si Si3 0.412689 0.676049 0.127169
Si Si4 0.088571 0.173297 0.615772
Si Si5 0.911429 0.173297 0.615772
Si Si6 0.170521 0.821499 1.000000
Si Si7 0.330053 0.823391 0.500000
Si Si8 0.410577 0.169923 0.255400
O O1 0.613639 0.239248 0.189304
O O2 0.611228 0.265089 0.315984
O O3 0.500000 0.172303 0.254292
O O4 0.612751 1.000000 0.261811
O O5 0.500000 0.701424 0.119879
O O6 0.597480 0.500000 0.136420
O O7 0.613639 0.760752 0.189304
O O8 0.627507 0.721495 0.063329
O O9 0.372493 0.721495 0.063329
O O10 0.126565 0.265952 0.561115
O O11 1.000000 0.187535 0.610661
O O12 0.106661 0.000000 0.609638
O O13 0.873435 0.265952 0.561115
O O14 0.888772 0.234911 0.684016
O O15 0.250000 0.750000 1.000000
O O16 0.175420 0.000000 0.000000
O O17 0.250000 0.750000 0.500000
O O18 0.324934 0.000000 0.500000
#
# Coordination Sequence:
#
# PCOD9323365 Si02
#       8
#     8   8   8   8   8   8   8   8
#     4   9  17  30  51  81 111 136 169 217 269 316
#     4   9  17  32  54  77 101 133 174 217 261 311
#     4   9  17  32  54  77 101 133 174 217 261 311
#     4  10  20  36  59  85 112 143 180 221 266 318
#     4  10  20  36  59  85 112 143 180 221 266 318
#     4  10  21  35  51  73 103 138 174 214 260 312
#     4  12  25  40  57  79 111 147 183 224 269 318
#     4   9  17  30  51  81 111 136 169 217 269 316
#
# _framework density 18.262604
#
# number of rings (size 3 to 8) (size 9 to 14) (size 15 to 20)
#    0.000    2.250    0.000    3.375    0.000    8.500 
#    0.000    1.250    0.000    6.750    0.000    0.000 
#    0.000    0.000    0.000    0.000    0.000    0.000 
#
# Total GULP energy -178636.514264 kJ/mol
# GULP energy per Si atom -5582.391071 kJ/mol
# Density = 1.822104 g / cm^3
# Si number density = 18.262604 Si / 1000 Ang^3
#
#
#
# Elastic Constant Matrix: (Units=GPa)
#
#
# Indices 1 2 3 4 5 6 
#
# 1 34.0610 48.0777 48.8760 0.0000 0.0000 0.0000
# 2 48.0777 128.3223 92.9143 0.0000 0.0000 0.0000
# 3 48.8760 92.9143 184.3202 0.0000 0.0000 0.0000
# 4 0.0000 0.0000 0.0000 27.2255 0.0000 0.0000
# 5 0.0000 0.0000 0.0000 0.0000 -10.3400 0.0000
# 6 0.0000 0.0000 0.0000 0.0000 0.0000 24.9741
#
#
#
# Elastic Compliance Matrix: (Units=1/GPa)
#
#
# Indices 1 2 3 4 5 6 
#
# 1 0.069647 -0.020035 -0.008369 0.000000 0.000000 0.000000
# 2 -0.020035 0.018035 -0.003779 0.000000 0.000000 0.000000
# 3 -0.008369 -0.003779 0.009549 0.000000 0.000000 0.000000
# 4 0.000000 0.000000 0.000000 0.036730 0.000000 0.000000
# 5 0.000000 0.000000 0.000000 0.000000 -0.096712 0.000000
# 6 0.000000 0.000000 0.000000 0.000000 0.000000 0.040042
#
#
# Mechanical properties :
#
#
# Convention : Reuss Voigt Hill
#
# Bulk Modulus (GPa) = 30.42552 80.71548 55.57050
# Shear Modulus (GPa) = 32.76258 18.82762 25.79510
#
# Velocity S-wave (km/s) = 4.24012 3.21431 3.76234
# Velocity P-wave (km/s) = 6.37712 7.62029 7.02625
#
# Compressibility (1/GPa) = 0.03286714
#
# Stress axis : x y z
#
# Youngs Moduli (GPa) = 14.35803 55.44696 104.71785
#
# Poissons Ratio (x) = 1.11085 0.87639
# Poissons Ratio (y) = 0.28766 0.39572
# Poissons Ratio (z) = 0.12016 0.20953
#
# Static dielectric constant tensor:
#      x y z
#    x 1.609450 0.000000 0.000000 
#    y 0.000000 1.613200 0.000000 
#    z 0.000000 0.000000 1.609620 
# 
# From -- ./inp_files/37695.got.cif
#   From: 2010.05.17/outbox.cif.g08.bks.cpg/sg21_19_cif.got.tgz:37695.got - 2010.06.03 23:14:55.
