data_PCOD9323048
_publ_section_title
;
Structure prediction by ZEFSAII (Michael W. Deem and Ramdas Pophale) SiO2 
 PCOD9323048
Probable space group: C 2 2 2
;
_chemical_formula_sum "Si O2"
_cell_formula_units_Z 26
_cell_length_a 7.981890
_cell_length_b 13.392017
_cell_length_c 9.294762
_cell_angle_alpha 90.000000
_cell_angle_beta 90.000000
_cell_angle_gamma 90.000000
_cell_volume 993.550632
_symmetry_space_group_name_H-M "C 2 2 2"
_symmetry_group_IT_number 21
_symmetry_cell_setting 'orthorhombic'
loop_
_space_group_symop_operation_xyz
x,y,z
-x,-y,z
x,-y,-z
-x,y,-z
1/2+x,1/2+y,z
1/2-x,1/2-y,z
1/2+x,1/2-y,-z
1/2-x,1/2+y,-z
loop_
_atom_site_type_symbol
_atom_site_label
_atom_site_fract_x
_atom_site_fract_y
_atom_site_fract_z
Si Si1 0.094402 0.824773 0.807588
Si Si2 0.000000 0.000000 0.000000
Si Si3 0.568014 0.130828 0.162650
Si Si4 0.770540 0.527984 0.336514
O O1 0.250000 0.750000 0.833240
O O2 0.107520 0.918215 0.915042
O O3 0.118246 0.891328 0.665520
O O4 0.938672 0.750890 0.825778
O O5 0.424898 0.092340 0.273216
O O6 0.725034 0.069267 0.229384
O O7 0.500000 0.108268 0.000000
O O8 0.797653 0.500000 0.500000
#
# Coordination Sequence:
#
# PCOD9323048 Si02
#       4
#     8   2   8   8
#     4  10  24  40  63  93 127 158 215 261 315 382
#     4  12  24  40  62  96 120 160 210 272 316 368
#     4  10  19  38  67  96 124 166 217 268 311 373
#     4  10  21  39  65  94 132 172 208 259 323 392
#
# _framework density 26.168773000000002
#
# number of rings (size 3 to 8) (size 9 to 14) (size 15 to 20)
#    0.000    1.846    1.538    3.692    8.615    0.000 
#    0.000   16.154    0.000    0.000    0.000    0.000 
#    0.000    0.000    0.000    0.000    0.000    0.000 
#
# Total GULP energy -72405.719233 kJ/mol
# GULP energy per Si atom -5569.670710 kJ/mol
# Density = 2.610921 g / cm^3
# Si number density = 26.168773 Si / 1000 Ang^3
#
#
#
# Elastic Constant Matrix: (Units=GPa)
#
#
# Indices 1 2 3 4 5 6 
#
# 1 72.8360 63.5967 26.2646 0.0000 0.0000 0.0000
# 2 63.5967 299.5139 87.0575 0.0000 0.0000 0.0000
# 3 26.2646 87.0575 197.3144 0.0000 0.0000 0.0000
# 4 0.0000 0.0000 0.0000 25.8848 0.0000 0.0000
# 5 0.0000 0.0000 0.0000 0.0000 13.9956 0.0000
# 6 0.0000 0.0000 0.0000 0.0000 0.0000 62.0212
#
#
#
# Elastic Compliance Matrix: (Units=1/GPa)
#
#
# Indices 1 2 3 4 5 6 
#
# 1 0.016955 -0.003377 -0.000767 0.000000 0.000000 0.000000
# 2 -0.003377 0.004503 -0.001537 0.000000 0.000000 0.000000
# 3 -0.000767 -0.001537 0.005848 0.000000 0.000000 0.000000
# 4 0.000000 0.000000 0.000000 0.038633 0.000000 0.000000
# 5 0.000000 0.000000 0.000000 0.000000 0.071451 0.000000
# 6 0.000000 0.000000 0.000000 0.000000 0.000000 0.016124
#
#
# Mechanical properties :
#
#
# Convention : Reuss Voigt Hill
#
# Bulk Modulus (GPa) = 62.72123 102.61132 82.66628
# Shear Modulus (GPa) = 29.37905 46.56337 37.97121
#
# Velocity S-wave (km/s) = 3.35427 4.22281 3.81335
# Velocity P-wave (km/s) = 6.24672 7.94183 7.14472
#
# Compressibility (1/GPa) = 0.01594356
#
# Stress axis : x y z
#
# Youngs Moduli (GPa) = 58.98048 222.09410 170.99005
#
# Poissons Ratio (x) = 0.75005 0.13112
# Poissons Ratio (y) = 0.19919 0.26282
# Poissons Ratio (z) = 0.04523 0.34137
#
# Static dielectric constant tensor:
#      x y z
#    x 2.459040 0.000000 0.000000 
#    y 0.000000 2.145090 0.000000 
#    z 0.000000 0.000000 2.192860 
# 
# From -- ./inp_files/11895.got.cif
#   From: 2010.05.17/outbox.cif.g08.bks.cpg/sg21_6_cif.got.tgz:11895.got - 2010.06.03 23:14:55.
