data_PCOD9323458
_publ_section_title
;
Structure prediction by ZEFSAII (Michael W. Deem and Ramdas Pophale) SiO2 
 PCOD9323458
Probable space group: C 2 2 2
;
_chemical_formula_sum "Si O2"
_cell_formula_units_Z 64
_cell_length_a 32.491714
_cell_length_b 13.043212
_cell_length_c 7.741900
_cell_angle_alpha 90.000000
_cell_angle_beta 90.000000
_cell_angle_gamma 90.000000
_cell_volume 3280.988683
_symmetry_space_group_name_H-M "C 2 2 2"
_symmetry_group_IT_number 21
_symmetry_cell_setting 'orthorhombic'
loop_
_space_group_symop_operation_xyz
x,y,z
-x,-y,z
x,-y,-z
-x,y,-z
1/2+x,1/2+y,z
1/2-x,1/2-y,z
1/2+x,1/2-y,-z
1/2-x,1/2+y,-z
loop_
_atom_site_type_symbol
_atom_site_label
_atom_site_fract_x
_atom_site_fract_y
_atom_site_fract_z
Si Si1 0.803439 0.663871 0.989564
Si Si2 0.098728 0.823620 0.726625
Si Si3 0.355280 0.881126 0.699014
Si Si4 0.640002 0.529123 0.702462
Si Si5 0.493579 0.615025 0.796834
Si Si6 0.211811 0.107421 0.907686
Si Si7 0.422656 0.698162 0.323862
Si Si8 0.869318 0.388873 0.299723
O O1 0.801519 0.787246 0.999389
O O2 0.761000 0.622670 0.906285
O O3 0.838225 0.635688 0.853233
O O4 0.814936 0.618821 0.178172
O O5 0.118271 0.714106 0.770117
O O6 0.052591 0.844987 0.784620
O O7 0.091368 0.818726 0.520514
O O8 0.128295 0.917775 0.781358
O O9 0.349569 0.868412 0.491407
O O10 0.377989 0.990233 0.713247
O O11 0.639563 0.500000 0.500000
O O12 0.682673 0.588466 0.741838
O O13 0.604028 0.607267 0.764248
O O14 0.500000 0.500000 0.724545
O O15 0.529345 0.681822 0.708795
O O16 0.500000 0.610911 0.000000
O O17 0.204223 0.000000 0.000000
O O18 0.407156 0.811315 0.278081
#
# Coordination Sequence:
#
# PCOD9323458 Si02
#       8
#     8   8   8   8   8   8   8   8
#     4  11  23  42  63  88 126 163 210 264 318 380
#     4  10  21  37  62  89 121 163 205 253 316 374
#     4  10  22  40  64  90 120 163 220 257 308 381
#     4  10  20  37  60  87 121 161 204 255 315 377
#     4  11  23  35  54  92 127 161 200 254 317 383
#     4  11  23  39  58  92 125 159 207 261 325 377
#     4  10  20  37  61  87 120 161 209 252 310 378
#     4  10  21  41  65  89 117 168 215 256 311 373
#
# _framework density 19.506316000000002
#
# number of rings (size 3 to 8) (size 9 to 14) (size 15 to 20)
#    0.000    1.625    2.500    2.250    1.750    1.500 
#    4.500    1.875    0.000    3.750    0.000    0.000 
#    0.000    0.000    0.000    0.000    0.000    0.000 
#
# Total GULP energy -178258.462850 kJ/mol
# GULP energy per Si atom -5570.576964 kJ/mol
# Density = 1.946192 g / cm^3
# Si number density = 19.506316 Si / 1000 Ang^3
#
#
#
# Elastic Constant Matrix: (Units=GPa)
#
#
# Indices 1 2 3 4 5 6 
#
# 1 103.0797 39.9253 22.5995 0.0000 0.0000 0.0000
# 2 39.9253 132.9071 27.1786 0.0000 0.0000 0.0000
# 3 22.5995 27.1786 29.0564 0.0000 0.0000 0.0000
# 4 0.0000 0.0000 0.0000 21.0314 0.0000 0.0000
# 5 0.0000 0.0000 0.0000 0.0000 22.0677 0.0000
# 6 0.0000 0.0000 0.0000 0.0000 0.0000 29.0725
#
#
#
# Elastic Compliance Matrix: (Units=1/GPa)
#
#
# Indices 1 2 3 4 5 6 
#
# 1 0.012163 -0.002126 -0.007471 0.000000 0.000000 0.000000
# 2 -0.002126 0.009675 -0.007397 0.000000 0.000000 0.000000
# 3 -0.007471 -0.007397 0.047146 0.000000 0.000000 0.000000
# 4 0.000000 0.000000 0.000000 0.047548 0.000000 0.000000
# 5 0.000000 0.000000 0.000000 0.000000 0.045315 0.000000
# 6 0.000000 0.000000 0.000000 0.000000 0.000000 0.034397
#
#
# Mechanical properties :
#
#
# Convention : Reuss Voigt Hill
#
# Bulk Modulus (GPa) = 28.57485 49.38332 38.97909
# Shear Modulus (GPa) = 20.67004 26.12364 23.39684
#
# Velocity S-wave (km/s) = 3.25877 3.66353 3.46706
# Velocity P-wave (km/s) = 5.37032 6.57775 6.00446
#
# Compressibility (1/GPa) = 0.03499581
#
# Stress axis : x y z
#
# Youngs Moduli (GPa) = 82.21874 103.35721 21.21092
#
# Poissons Ratio (x) = 0.21972 0.15848
# Poissons Ratio (y) = 0.17478 0.15689
# Poissons Ratio (z) = 0.61430 0.76448
#
# Static dielectric constant tensor:
#      x y z
#    x 1.780010 0.000000 0.000000 
#    y 0.000000 1.730800 0.000000 
#    z 0.000000 0.000000 1.698770 
# 
# From -- ./inp_files/19828.got.cif
#   From: 2010.05.17/outbox.cif.g08.bks.cpg/sg21_10_cif.got.tgz:19828.got - 2010.06.03 23:14:55.
