data_PCOD9323505
_publ_section_title
;
Structure prediction by ZEFSAII (Michael W. Deem and Ramdas Pophale) SiO2 
 PCOD9323505
Probable space group: C 2 2 2
;
_chemical_formula_sum "Si O2"
_cell_formula_units_Z 48
_cell_length_a 7.873746
_cell_length_b 17.296214
_cell_length_c 15.626163
_cell_angle_alpha 90.000000
_cell_angle_beta 90.000000
_cell_angle_gamma 90.000000
_cell_volume 2128.064569
_symmetry_space_group_name_H-M "C 2 2 2"
_symmetry_group_IT_number 21
_symmetry_cell_setting 'orthorhombic'
loop_
_space_group_symop_operation_xyz
x,y,z
-x,-y,z
x,-y,-z
-x,y,-z
1/2+x,1/2+y,z
1/2-x,1/2-y,z
1/2+x,1/2-y,-z
1/2-x,1/2+y,-z
loop_
_atom_site_type_symbol
_atom_site_label
_atom_site_fract_x
_atom_site_fract_y
_atom_site_fract_z
Si Si1 0.712371 0.841759 0.915482
Si Si2 0.193925 0.661987 0.530158
Si Si3 0.379892 0.573047 0.242370
Si Si4 0.200680 0.159320 0.285503
Si Si5 0.309172 0.160270 0.101870
Si Si6 0.813763 0.039904 0.418206
O O1 0.750000 0.750000 0.907054
O O2 0.797066 0.891163 0.841114
O O3 0.510285 0.846707 0.906307
O O4 0.764379 0.868915 0.011245
O O5 0.250000 0.750000 0.537348
O O6 0.222837 0.627578 0.625813
O O7 0.313911 0.624874 0.458328
O O8 0.000000 0.655268 0.500000
O O9 0.500000 0.500000 0.222548
O O10 0.501616 0.639535 0.283164
O O11 0.256408 0.546900 0.320203
O O12 0.250000 0.250000 0.283243
O O13 0.261175 0.126137 0.193872
O O14 0.250000 0.250000 0.103743
O O15 0.720613 0.000000 0.500000
O O16 0.000000 0.000000 0.412638
#
# Coordination Sequence:
#
# PCOD9323505 Si02
#       6
#     8   8   8   8   8   8
#     4  10  20  37  67  99 129 175 222 271 335 400
#     4  11  26  39  65 104 136 172 227 292 343 385
#     4  11  24  41  67  96 128 177 224 274 338 405
#     4  10  21  38  61  92 130 168 217 274 326 392
#     4   9  19  37  62  96 136 170 215 275 333 404
#     4  10  22  42  69  84 128 182 219 264 335 411
#
# _framework density 22.555706000000001
#
# number of rings (size 3 to 8) (size 9 to 14) (size 15 to 20)
#    0.000    1.833    0.000    5.000    9.333    3.000 
#    0.000    2.500    0.000    2.000    0.000    0.000 
#    0.000    0.000    0.000    0.000    0.000    0.000 
#
# Total GULP energy -133824.010619 kJ/mol
# GULP energy per Si atom -5576.000442 kJ/mol
# Density = 2.250437 g / cm^3
# Si number density = 22.555706 Si / 1000 Ang^3
#
#
#
# Elastic Constant Matrix: (Units=GPa)
#
#
# Indices 1 2 3 4 5 6 
#
# 1 76.3720 18.9583 61.8494 0.0000 0.0000 0.0000
# 2 18.9583 68.8196 50.2392 0.0000 0.0000 0.0000
# 3 61.8494 50.2392 283.8407 0.0000 0.0000 0.0000
# 4 0.0000 0.0000 0.0000 53.9764 0.0000 0.0000
# 5 0.0000 0.0000 0.0000 0.0000 32.7924 0.0000
# 6 0.0000 0.0000 0.0000 0.0000 0.0000 32.3257
#
#
#
# Elastic Compliance Matrix: (Units=1/GPa)
#
#
# Indices 1 2 3 4 5 6 
#
# 1 0.016175 -0.002162 -0.003142 0.000000 0.000000 0.000000
# 2 -0.002162 0.016976 -0.002534 0.000000 0.000000 0.000000
# 3 -0.003142 -0.002534 0.004656 0.000000 0.000000 0.000000
# 4 0.000000 0.000000 0.000000 0.018527 0.000000 0.000000
# 5 0.000000 0.000000 0.000000 0.000000 0.030495 0.000000
# 6 0.000000 0.000000 0.000000 0.000000 0.000000 0.030935
#
#
# Mechanical properties :
#
#
# Convention : Reuss Voigt Hill
#
# Bulk Modulus (GPa) = 45.18402 76.79177 60.98790
# Shear Modulus (GPa) = 35.50729 43.68461 39.59595
#
# Velocity S-wave (km/s) = 3.97193 4.40562 4.19438
# Velocity P-wave (km/s) = 6.41176 7.74588 7.11018
#
# Compressibility (1/GPa) = 0.02213172
#
# Stress axis : x y z
#
# Youngs Moduli (GPa) = 61.82395 58.90700 214.77001
#
# Poissons Ratio (x) = 0.12737 0.67477
# Poissons Ratio (y) = 0.13368 0.54413
# Poissons Ratio (z) = 0.19424 0.14924
#
# Static dielectric constant tensor:
#      x y z
#    x 1.805000 0.000000 0.000000 
#    y 0.000000 1.875490 0.000000 
#    z 0.000000 0.000000 1.913130 
# 
# From -- ./inp_files/30511.got.cif
#   From: 2010.05.17/outbox.cif.g08.bks.cpg/sg21_16_cif.got.tgz:30511.got - 2010.06.03 23:14:55.
