data_PCOD9323479
_publ_section_title
;
Structure prediction by ZEFSAII (Michael W. Deem and Ramdas Pophale) SiO2 
 PCOD9323479
Probable space group: C 2 2 2
;
_chemical_formula_sum "Si O2"
_cell_formula_units_Z 64
_cell_length_a 21.598039
_cell_length_b 11.827982
_cell_length_c 11.047169
_cell_angle_alpha 90.000000
_cell_angle_beta 90.000000
_cell_angle_gamma 90.000000
_cell_volume 2822.123232
_symmetry_space_group_name_H-M "C 2 2 2"
_symmetry_group_IT_number 21
_symmetry_cell_setting 'orthorhombic'
loop_
_space_group_symop_operation_xyz
x,y,z
-x,-y,z
x,-y,-z
-x,y,-z
1/2+x,1/2+y,z
1/2-x,1/2-y,z
1/2+x,1/2-y,-z
1/2-x,1/2+y,-z
loop_
_atom_site_type_symbol
_atom_site_label
_atom_site_fract_x
_atom_site_fract_y
_atom_site_fract_z
Si Si1 0.002291 0.802422 0.708375
Si Si2 0.121532 0.718063 0.593800
Si Si3 0.941078 0.675997 0.926949
Si Si4 0.416945 0.398706 0.084080
Si Si5 0.699753 0.010009 0.635317
Si Si6 0.183752 0.697764 0.184855
Si Si7 0.125786 0.129589 0.637435
Si Si8 0.318516 0.592854 0.737253
O O1 0.049770 0.740889 0.619535
O O2 0.041814 0.882864 0.796450
O O3 0.969992 0.710896 0.797303
O O4 0.948192 0.870369 0.643833
O O5 0.139913 0.587546 0.607543
O O6 0.141470 0.785795 0.472863
O O7 0.158511 0.785396 0.696400
O O8 0.869755 0.637679 0.898476
O O9 0.926656 0.785988 0.008030
O O10 0.000000 0.621460 0.000000
O O11 0.347809 0.422481 0.131151
O O12 0.435737 0.500000 0.000000
O O13 0.746351 0.078545 0.720569
O O14 0.727683 0.000000 0.500000
O O15 0.693677 0.891448 0.704883
O O16 0.250000 0.750000 0.139137
O O17 0.151470 0.807994 0.243054
O O18 0.151845 0.003523 0.648825
#
# Coordination Sequence:
#
# PCOD9323479 Si02
#       8
#     8   8   8   8   8   8   8   8
#     4   9  21  36  61  91 128 170 221 284 333 412
#     4  11  23  39  59  93 138 180 224 271 345 425
#     4   9  20  40  66  93 129 176 224 286 351 403
#     4  10  20  37  61  93 128 171 219 272 352 414
#     4  12  24  42  66  95 135 186 228 275 347 416
#     4  11  22  39  69 102 131 172 237 289 336 413
#     4  11  20  38  61  96 133 173 221 281 347 404
#     4  11  24  37  63  95 134 175 221 282 346 428
#
# _framework density 22.677961
#
# number of rings (size 3 to 8) (size 9 to 14) (size 15 to 20)
#    0.000    1.500    2.500    3.375    0.000    8.250 
#    0.000    8.750    0.000    3.750    0.000    0.000 
#    0.000    0.000    0.000    0.000    0.000    0.000 
#
# Total GULP energy -178398.720117 kJ/mol
# GULP energy per Si atom -5574.960004 kJ/mol
# Density = 2.262634 g / cm^3
# Si number density = 22.677961 Si / 1000 Ang^3
#
#
#
# Elastic Constant Matrix: (Units=GPa)
#
#
# Indices 1 2 3 4 5 6 
#
# 1 126.4861 29.9884 22.7906 0.0000 0.0000 0.0000
# 2 29.9884 76.1015 11.7787 0.0000 0.0000 0.0000
# 3 22.7906 11.7787 51.8156 0.0000 0.0000 0.0000
# 4 0.0000 0.0000 0.0000 12.6340 0.0000 0.0000
# 5 0.0000 0.0000 0.0000 0.0000 60.9316 0.0000
# 6 0.0000 0.0000 0.0000 0.0000 0.0000 21.5534
#
#
#
# Elastic Compliance Matrix: (Units=1/GPa)
#
#
# Indices 1 2 3 4 5 6 
#
# 1 0.009252 -0.003126 -0.003359 0.000000 0.000000 0.000000
# 2 -0.003126 0.014676 -0.001961 0.000000 0.000000 0.000000
# 3 -0.003359 -0.001961 0.021222 0.000000 0.000000 0.000000
# 4 0.000000 0.000000 0.000000 0.079152 0.000000 0.000000
# 5 0.000000 0.000000 0.000000 0.000000 0.016412 0.000000
# 6 0.000000 0.000000 0.000000 0.000000 0.000000 0.046396
#
#
# Mechanical properties :
#
#
# Convention : Reuss Voigt Hill
#
# Bulk Modulus (GPa) = 35.38789 42.61317 39.00053
# Shear Modulus (GPa) = 23.42775 31.68016 27.55395
#
# Velocity S-wave (km/s) = 3.21762 3.74164 3.48948
# Velocity P-wave (km/s) = 5.42609 6.12355 5.78534
#
# Compressibility (1/GPa) = 0.02825825
#
# Stress axis : x y z
#
# Youngs Moduli (GPa) = 108.08005 68.13965 47.12001
#
# Poissons Ratio (x) = 0.21301 0.15827
# Poissons Ratio (y) = 0.33787 0.09241
# Poissons Ratio (z) = 0.36304 0.13363
#
# Static dielectric constant tensor:
#      x y z
#    x 1.937390 0.000000 0.000000 
#    y 0.000000 1.790640 0.000000 
#    z 0.000000 0.000000 1.837220 
# 
# From -- ./inp_files/27500.got.cif
#   From: 2010.05.17/outbox.cif.g08.bks.cpg/sg21_14_cif.got.tgz:27500.got - 2010.06.03 23:14:55.
