data_PCOD9323372
_publ_section_title
;
Structure prediction by ZEFSAII (Michael W. Deem and Ramdas Pophale) SiO2 
 PCOD9323372
Probable space group: C 2 2 2
;
_chemical_formula_sum "Si O2"
_cell_formula_units_Z 64
_cell_length_a 15.008111
_cell_length_b 18.254253
_cell_length_c 11.346789
_cell_angle_alpha 90.000000
_cell_angle_beta 90.000000
_cell_angle_gamma 90.000000
_cell_volume 3108.587366
_symmetry_space_group_name_H-M "C 2 2 2"
_symmetry_group_IT_number 21
_symmetry_cell_setting 'orthorhombic'
loop_
_space_group_symop_operation_xyz
x,y,z
-x,-y,z
x,-y,-z
-x,y,-z
1/2+x,1/2+y,z
1/2-x,1/2-y,z
1/2+x,1/2-y,-z
1/2-x,1/2+y,-z
loop_
_atom_site_type_symbol
_atom_site_label
_atom_site_fract_x
_atom_site_fract_y
_atom_site_fract_z
Si Si1 0.337295 0.294692 0.921139
Si Si2 0.395262 0.660128 0.397654
Si Si3 0.966985 0.718573 0.747172
Si Si4 0.845408 0.219275 0.799533
Si Si5 0.789923 0.974263 0.627375
Si Si6 0.548570 0.922069 0.883370
Si Si7 0.921557 0.898977 0.346006
Si Si8 0.754417 0.049028 0.110440
O O1 0.250000 0.250000 0.879326
O O2 0.422701 0.262490 0.856149
O O3 0.316299 0.378942 0.892555
O O4 0.347016 0.280707 0.059626
O O5 0.412620 0.743336 0.359417
O O6 0.306810 0.613234 0.373794
O O7 0.473926 0.615053 0.329259
O O8 0.405955 0.648632 0.536215
O O9 0.956260 0.633401 0.774479
O O10 0.071660 0.736031 0.746174
O O11 0.750000 0.250000 0.760617
O O12 0.864072 0.137134 0.756368
O O13 0.751213 0.986849 0.758525
O O14 0.748915 0.000000 0.500000
O O15 0.882392 0.021335 0.628731
O O16 0.651993 0.930026 0.914822
O O17 0.500000 0.000000 0.861381
O O18 0.500000 0.890462 0.000000
O O19 0.784209 0.000000 0.000000
#
# Coordination Sequence:
#
# PCOD9323372 Si02
#       8
#     8   8   8   8   8   8   8   8
#     4  11  21  36  59  89 123 163 211 271 339 393
#     4   9  18  35  59  87 116 162 214 256 317 398
#     4  11  21  38  62  88 126 164 215 275 328 401
#     4  10  22  35  56  88 123 164 211 262 328 390
#     4  10  20  36  59  88 126 166 206 260 327 396
#     4  11  23  40  62  92 118 170 226 274 337 408
#     4   9  18  35  58  84 120 164 210 255 314 397
#     4  12  23  38  62  94 129 163 222 280 333 412
#
# _framework density 20.58813
#
# number of rings (size 3 to 8) (size 9 to 14) (size 15 to 20)
#    0.000    1.625    3.750    2.250    1.750    2.500 
#    0.000    3.125    0.000    3.375    0.000    0.000 
#    0.000    0.000    0.000    0.000    0.000    0.000 
#
# Total GULP energy -178268.522383 kJ/mol
# GULP energy per Si atom -5570.891324 kJ/mol
# Density = 2.054127 g / cm^3
# Si number density = 20.588130 Si / 1000 Ang^3
#
#
#
# Elastic Constant Matrix: (Units=GPa)
#
#
# Indices 1 2 3 4 5 6 
#
# 1 56.5536 4.3451 10.9845 0.0000 0.0000 0.0000
# 2 4.3451 84.3912 13.9287 0.0000 0.0000 0.0000
# 3 10.9845 13.9287 85.5869 0.0000 0.0000 0.0000
# 4 0.0000 0.0000 0.0000 32.2494 0.0000 0.0000
# 5 0.0000 0.0000 0.0000 0.0000 5.4556 0.0000
# 6 0.0000 0.0000 0.0000 0.0000 0.0000 19.6188
#
#
#
# Elastic Compliance Matrix: (Units=1/GPa)
#
#
# Indices 1 2 3 4 5 6 
#
# 1 0.018161 -0.000566 -0.002239 0.000000 0.000000 0.000000
# 2 -0.000566 0.012194 -0.001912 0.000000 0.000000 0.000000
# 3 -0.002239 -0.001912 0.012283 0.000000 0.000000 0.000000
# 4 0.000000 0.000000 0.000000 0.031008 0.000000 0.000000
# 5 0.000000 0.000000 0.000000 0.000000 0.183297 0.000000
# 6 0.000000 0.000000 0.000000 0.000000 0.000000 0.050971
#
#
# Mechanical properties :
#
#
# Convention : Reuss Voigt Hill
#
# Bulk Modulus (GPa) = 30.11603 31.67204 30.89403
# Shear Modulus (GPa) = 15.22465 24.61634 19.92049
#
# Velocity S-wave (km/s) = 2.72230 3.46158 3.11396
# Velocity P-wave (km/s) = 4.95387 5.60301 5.28841
#
# Compressibility (1/GPa) = 0.03320491
#
# Stress axis : x y z
#
# Youngs Moduli (GPa) = 55.06416 82.00579 81.41655
#
# Poissons Ratio (x) = 0.04638 0.18227
# Poissons Ratio (y) = 0.03114 0.15566
# Poissons Ratio (z) = 0.12328 0.15679
#
# Static dielectric constant tensor:
#      x y z
#    x 1.732560 0.000000 0.000000 
#    y 0.000000 1.800890 0.000000 
#    z 0.000000 0.000000 1.773750 
# 
# From -- ./inp_files/25492.got.cif
#   From: 2010.05.17/outbox.cif.g08.bks.cpg/sg21_13_cif.got.tgz:25492.got - 2010.06.03 23:14:55.
