data_PCOD9323829
_publ_section_title
;
Structure prediction by ZEFSAII (Michael W. Deem and Ramdas Pophale) SiO2 
 PCOD9323829
Probable space group: C 2 2 2
;
_chemical_formula_sum "Si O2"
_cell_formula_units_Z 60
_cell_length_a 17.810072
_cell_length_b 16.140452
_cell_length_c 11.431776
_cell_angle_alpha 90.000000
_cell_angle_beta 90.000000
_cell_angle_gamma 90.000000
_cell_volume 3286.208191
_symmetry_space_group_name_H-M "C 2 2 2"
_symmetry_group_IT_number 21
_symmetry_cell_setting 'orthorhombic'
loop_
_space_group_symop_operation_xyz
x,y,z
-x,-y,z
x,-y,-z
-x,y,-z
1/2+x,1/2+y,z
1/2-x,1/2-y,z
1/2+x,1/2-y,-z
1/2-x,1/2+y,-z
loop_
_atom_site_type_symbol
_atom_site_label
_atom_site_fract_x
_atom_site_fract_y
_atom_site_fract_z
Si Si1 0.809077 0.177372 0.500001
Si Si2 0.312102 0.500000 0.500000
Si Si3 0.358565 0.500000 0.240397
Si Si4 0.809143 0.500000 0.142013
Si Si5 0.586310 0.846294 0.859594
Si Si6 0.913690 0.653707 0.140405
Si Si7 0.087837 0.824909 0.270343
Si Si8 0.587836 0.324910 0.729658
O O1 0.750000 0.250000 0.500001
O O2 0.860775 0.181149 0.385171
O O3 0.860775 0.181149 0.614830
O O4 0.769504 0.086927 0.500000
O O5 0.361306 0.500000 0.382398
O O6 0.272377 0.500000 0.199885
O O7 0.394862 0.587699 0.206081
O O8 0.394863 0.412302 0.206081
O O9 0.856300 0.418302 0.176400
O O10 0.856300 0.581699 0.176400
O O11 0.801859 0.500000 0.000000
O O12 0.500000 0.868071 0.827564
O O13 0.603532 0.756373 0.806823
O O14 0.589253 0.841229 1.000000
O O15 0.896469 0.743628 0.193175
O O16 0.000000 0.824472 0.301828
#
# Coordination Sequence:
#
# PCOD9323829 Si02
#       8
#     8   4   8   8   8   8   8   8
#     4  10  21  35  58  83 112 143 180 228 275 319
#     4   8  20  36  49  76 105 148 170 210 268 322
#     4  10  21  35  56  79 110 142 186 228 270 314
#     4  10  21  35  55  81 111 145 185 229 275 329
#     4   9  19  36  57  80 109 146 184 225 276 334
#     4   9  19  36  57  80 109 146 184 225 276 334
#     4  10  21  37  57  81 111 148 186 223 270 330
#     4  10  21  37  57  81 111 148 186 223 270 330
#
# _framework density 18.258126000000001
#
# number of rings (size 3 to 8) (size 9 to 14) (size 15 to 20)
#    0.000    2.400    0.000    1.200    7.467    2.667 
#    0.000    6.667    0.000    4.000    0.000    5.600 
#    0.000    0.000    0.000    0.000    0.000    0.000 
#
# Total GULP energy -167229.296035 kJ/mol
# GULP energy per Si atom -5574.309868 kJ/mol
# Density = 1.821657 g / cm^3
# Si number density = 18.258126 Si / 1000 Ang^3
#
#
#
# Elastic Constant Matrix: (Units=GPa)
#
#
# Indices 1 2 3 4 5 6 
#
# 1 98.4134 83.1421 26.5593 0.0000 0.0000 0.0000
# 2 83.1421 178.2380 23.3608 0.0000 0.0000 0.0000
# 3 26.5593 23.3608 20.4977 0.0000 0.0000 0.0000
# 4 0.0000 0.0000 0.0000 28.0893 0.0000 0.0000
# 5 0.0000 0.0000 0.0000 0.0000 3.2391 0.0000
# 6 0.0000 0.0000 0.0000 0.0000 0.0000 34.6837
#
#
#
# Elastic Compliance Matrix: (Units=1/GPa)
#
#
# Indices 1 2 3 4 5 6 
#
# 1 0.021948 -0.007654 -0.019716 0.000000 0.000000 0.000000
# 2 -0.007654 0.009265 -0.000641 0.000000 0.000000 0.000000
# 3 -0.019716 -0.000641 0.075063 0.000000 0.000000 0.000000
# 4 0.000000 0.000000 0.000000 0.035601 0.000000 0.000000
# 5 0.000000 0.000000 0.000000 0.000000 0.308731 0.000000
# 6 0.000000 0.000000 0.000000 0.000000 0.000000 0.028832
#
#
# Mechanical properties :
#
#
# Convention : Reuss Voigt Hill
#
# Bulk Modulus (GPa) = 19.89897 62.58596 41.24247
# Shear Modulus (GPa) = 9.05445 24.14155 16.59800
#
# Velocity S-wave (km/s) = 2.22933 3.64020 3.01836
# Velocity P-wave (km/s) = 4.18914 7.21255 5.89787
#
# Compressibility (1/GPa) = 0.05025385
#
# Stress axis : x y z
#
# Youngs Moduli (GPa) = 45.56133 107.93359 13.32211
#
# Poissons Ratio (x) = 0.82614 0.26266
# Poissons Ratio (y) = 0.34873 0.00855
# Poissons Ratio (z) = 0.89828 0.06923
#
# Static dielectric constant tensor:
#      x y z
#    x 1.607400 0.000000 0.000000 
#    y 0.000000 1.658640 0.000000 
#    z 0.000000 0.000000 1.620790 
# 
# From -- ./inp_files/26197.got.cif
#   From: 2010.05.17/outbox.cif.g08.bks.cpg/sg21_14_cif.got.tgz:26197.got - 2010.06.03 23:14:55.
