data_PCOD9323504
_publ_section_title
;
Structure prediction by ZEFSAII (Michael W. Deem and Ramdas Pophale) SiO2 
 PCOD9323504
Probable space group: C 2 2 2
;
_chemical_formula_sum "Si O2"
_cell_formula_units_Z 52
_cell_length_a 7.367650
_cell_length_b 20.377852
_cell_length_c 18.272167
_cell_angle_alpha 90.000000
_cell_angle_beta 90.000000
_cell_angle_gamma 90.000000
_cell_volume 2743.326168
_symmetry_space_group_name_H-M "C 2 2 2"
_symmetry_group_IT_number 21
_symmetry_cell_setting 'orthorhombic'
loop_
_space_group_symop_operation_xyz
x,y,z
-x,-y,z
x,-y,-z
-x,y,-z
1/2+x,1/2+y,z
1/2-x,1/2-y,z
1/2+x,1/2-y,-z
1/2-x,1/2+y,-z
loop_
_atom_site_type_symbol
_atom_site_label
_atom_site_fract_x
_atom_site_fract_y
_atom_site_fract_z
Si Si1 0.203936 0.475738 0.306052
Si Si2 0.727255 0.398166 0.209814
Si Si3 0.452699 0.575310 0.585432
Si Si4 0.250000 0.250000 0.245811
Si Si5 0.954379 0.077283 0.919482
Si Si6 0.393729 0.301530 0.672429
Si Si7 0.361845 0.883301 0.827417
O O1 0.294299 0.540594 0.266818
O O2 0.255241 0.431618 0.377688
O O3 0.217709 0.424378 0.240451
O O4 0.000000 0.500000 0.318912
O O5 0.577657 0.396121 0.146695
O O6 0.709561 0.333628 0.258785
O O7 0.925528 0.400180 0.173330
O O8 0.500000 0.500000 0.607993
O O9 0.500000 0.578473 0.500000
O O10 0.552840 0.637158 0.620938
O O11 0.419809 0.270586 0.297114
O O12 0.318646 0.191188 0.193993
O O13 0.747677 0.092818 0.897999
O O14 0.000000 0.000000 0.919843
O O15 0.000000 0.103483 0.000000
O O16 0.250000 0.250000 0.638912
#
# Coordination Sequence:
#
# PCOD9323504 Si02
#       7
#     8   8   8   4   8   8   8
#     4  10  20  37  67  95 119 158 220 280 313 361
#     4  11  21  38  66  92 120 162 216 271 314 371
#     4  11  23  42  67  94 132 175 216 265 330 399
#     4  12  22  36  66  92 120 162 222 264 314 384
#     4  11  23  38  61  94 131 165 201 264 336 387
#     4  12  24  41  67  96 129 168 219 275 326 385
#     4  11  22  37  63  95 119 162 217 265 315 378
#
# _framework density 18.955090999999999
#
# number of rings (size 3 to 8) (size 9 to 14) (size 15 to 20)
#    0.000    0.923    7.692    0.000    0.000    0.615 
#    1.385    3.077    5.077    0.000    0.000    0.000 
#    0.000    0.000    0.000    0.000    0.000    0.000 
#
# Total GULP energy -144743.985818 kJ/mol
# GULP energy per Si atom -5567.076378 kJ/mol
# Density = 1.891195 g / cm^3
# Si number density = 18.955091 Si / 1000 Ang^3
#
#
#
# Elastic Constant Matrix: (Units=GPa)
#
#
# Indices 1 2 3 4 5 6 
#
# 1 96.5471 24.4407 53.4722 0.0000 0.0000 0.0000
# 2 24.4407 88.2840 24.5572 0.0000 0.0000 0.0000
# 3 53.4722 24.5572 100.0645 0.0000 0.0000 0.0000
# 4 0.0000 0.0000 0.0000 9.4040 0.0000 0.0000
# 5 0.0000 0.0000 0.0000 0.0000 9.9861 0.0000
# 6 0.0000 0.0000 0.0000 0.0000 0.0000 34.0226
#
#
#
# Elastic Compliance Matrix: (Units=1/GPa)
#
#
# Indices 1 2 3 4 5 6 
#
# 1 0.015057 -0.002072 -0.007538 0.000000 0.000000 0.000000
# 2 -0.002072 0.012442 -0.001946 0.000000 0.000000 0.000000
# 3 -0.007538 -0.001946 0.014499 0.000000 0.000000 0.000000
# 4 0.000000 0.000000 0.000000 0.106338 0.000000 0.000000
# 5 0.000000 0.000000 0.000000 0.000000 0.100139 0.000000
# 6 0.000000 0.000000 0.000000 0.000000 0.000000 0.029392
#
#
# Mechanical properties :
#
#
# Convention : Reuss Voigt Hill
#
# Bulk Modulus (GPa) = 52.94749 54.42619 53.68684
# Shear Modulus (GPa) = 16.27212 22.84424 19.55818
#
# Velocity S-wave (km/s) = 2.93312 3.47533 3.21568
# Velocity P-wave (km/s) = 6.28209 6.69921 6.49400
#
# Compressibility (1/GPa) = 0.01888664
#
# Stress axis : x y z
#
# Youngs Moduli (GPa) = 66.41558 80.37285 68.96975
#
# Poissons Ratio (x) = 0.16651 0.51986
# Poissons Ratio (y) = 0.13759 0.13424
# Poissons Ratio (z) = 0.50061 0.15644
#
# Static dielectric constant tensor:
#      x y z
#    x 1.618480 0.000000 0.000000 
#    y 0.000000 1.784470 0.000000 
#    z 0.000000 0.000000 1.649080 
# 
# From -- ./inp_files/30690.got.cif
#   From: 2010.05.17/outbox.cif.g08.bks.cpg/sg21_16_cif.got.tgz:30690.got - 2010.06.03 23:14:55.
