data_PCOD9323302
_publ_section_title
;
Structure prediction by ZEFSAII (Michael W. Deem and Ramdas Pophale) SiO2 
 PCOD9323302
Probable space group: C 2 2 2
;
_chemical_formula_sum "Si O2"
_cell_formula_units_Z 60
_cell_length_a 15.182432
_cell_length_b 16.246478
_cell_length_c 13.497279
_cell_angle_alpha 90.000000
_cell_angle_beta 90.000000
_cell_angle_gamma 90.000000
_cell_volume 3329.252976
_symmetry_space_group_name_H-M "C 2 2 2"
_symmetry_group_IT_number 21
_symmetry_cell_setting 'orthorhombic'
loop_
_space_group_symop_operation_xyz
x,y,z
-x,-y,z
x,-y,-z
-x,y,-z
1/2+x,1/2+y,z
1/2-x,1/2-y,z
1/2+x,1/2-y,-z
1/2-x,1/2+y,-z
loop_
_atom_site_type_symbol
_atom_site_label
_atom_site_fract_x
_atom_site_fract_y
_atom_site_fract_z
Si Si1 0.907459 0.250000 0.945311
Si Si2 0.352847 0.429870 0.078164
Si Si3 0.647153 0.070130 0.921836
Si Si4 0.567740 0.750000 0.290487
Si Si5 0.068402 0.429579 0.296297
Si Si6 0.750000 0.250000 0.591774
Si Si7 0.750000 0.430185 0.581577
Si Si8 0.068402 0.070421 0.296297
O O1 0.861496 0.162459 0.966223
O O2 0.861495 0.337541 0.966223
O O3 0.921848 0.250000 0.827352
O O4 0.000000 0.250000 0.000000
O O5 0.250000 0.443273 0.102966
O O6 0.408731 0.434529 0.179121
O O7 0.379750 0.500000 0.000000
O O8 0.591269 0.065471 0.820879
O O9 0.620250 0.000000 0.000000
O O10 0.528832 0.838557 0.318549
O O11 0.665087 0.750000 0.337450
O O12 0.528832 0.661443 0.318549
O O13 0.161443 0.437501 0.352901
O O14 0.000000 0.500000 0.323795
O O15 0.750000 0.337236 0.536939
O O16 0.750000 0.500000 0.500000
O O17 0.661443 0.437500 0.647099
O O18 0.000000 0.000000 0.323795
#
# Coordination Sequence:
#
# PCOD9323302 Si02
#       8
#     8   8   8   8   8   4   8   8
#     4  10  21  29  48  78 107 140 186 225 265 305
#     4  10  21  35  53  75 108 149 186 220 266 327
#     4  10  21  35  53  75 108 149 186 220 266 327
#     4   8  18  32  54  76 104 143 183 222 260 327
#     4  10  20  35  58  82 109 142 186 229 275 330
#     4   8  16  36  62  82  98 140 188 224 270 342
#     4  10  20  38  61  85 109 136 183 233 284 337
#     4  10  20  35  58  82 109 142 186 229 275 330
#
# _framework density 18.02206
#
# number of rings (size 3 to 8) (size 9 to 14) (size 15 to 20)
#    0.000    2.400    1.333    0.400   13.067    0.533 
#    0.000    1.333    0.000    4.800    0.000    0.000 
#    0.000    0.000    0.000    0.000    0.000    0.000 
#
# Total GULP energy -167128.950846 kJ/mol
# GULP energy per Si atom -5570.965028 kJ/mol
# Density = 1.798104 g / cm^3
# Si number density = 18.022060 Si / 1000 Ang^3
#
#
#
# Elastic Constant Matrix: (Units=GPa)
#
#
# Indices 1 2 3 4 5 6 
#
# 1 51.5960 53.7763 0.4864 0.0000 0.0000 0.0000
# 2 53.7763 205.4655 50.9936 0.0000 0.0000 0.0000
# 3 0.4864 50.9936 38.5178 0.0000 0.0000 0.0000
# 4 0.0000 0.0000 0.0000 27.9443 0.0000 0.0000
# 5 0.0000 0.0000 0.0000 0.0000 -7.9692 0.0000
# 6 0.0000 0.0000 0.0000 0.0000 0.0000 34.7303
#
#
#
# Elastic Compliance Matrix: (Units=1/GPa)
#
#
# Indices 1 2 3 4 5 6 
#
# 1 0.032127 -0.012374 0.015976 0.000000 0.000000 0.000000
# 2 -0.012374 0.012014 -0.015749 0.000000 0.000000 0.000000
# 3 0.015976 -0.015749 0.046611 0.000000 0.000000 0.000000
# 4 0.000000 0.000000 0.000000 0.035786 0.000000 0.000000
# 5 0.000000 0.000000 0.000000 0.000000 -0.125484 0.000000
# 6 0.000000 0.000000 0.000000 0.000000 0.000000 0.028793
#
#
# Mechanical properties :
#
#
# Convention : Reuss Voigt Hill
#
# Bulk Modulus (GPa) = 15.04715 56.23242 35.63978
# Shear Modulus (GPa) = 65.53494 23.62927 44.58211
#
# Velocity S-wave (km/s) = 6.03678 3.62488 4.97908
# Velocity P-wave (km/s) = 7.54703 6.98494 7.27142
#
# Compressibility (1/GPa) = 0.06645778
#
# Stress axis : x y z
#
# Youngs Moduli (GPa) = 31.12629 83.23403 21.45414
#
# Poissons Ratio (x) = 1.02990 -0.34274
# Poissons Ratio (y) = 0.38514 0.33789
# Poissons Ratio (z) = -0.49726 1.31089
#
# Static dielectric constant tensor:
#      x y z
#    x 1.607150 0.000000 0.000000 
#    y 0.000000 1.678170 0.000000 
#    z 0.000000 0.000000 1.586500 
# 
# From -- ./inp_files/32427.got.cif
#   From: 2010.05.17/outbox.cif.g08.bks.cpg/sg21_17_cif.got.tgz:32427.got - 2010.06.03 23:14:55.
