data_PCOD9323272
_publ_section_title
;
Structure prediction by ZEFSAII (Michael W. Deem and Ramdas Pophale) SiO2 
 PCOD9323272
Probable space group: C 2 2 2
;
_chemical_formula_sum "Si O2"
_cell_formula_units_Z 44
_cell_length_a 28.591378
_cell_length_b 15.474695
_cell_length_c 5.150156
_cell_angle_alpha 90.000000
_cell_angle_beta 90.000000
_cell_angle_gamma 90.000000
_cell_volume 2278.649720
_symmetry_space_group_name_H-M "C 2 2 2"
_symmetry_group_IT_number 21
_symmetry_cell_setting 'orthorhombic'
loop_
_space_group_symop_operation_xyz
x,y,z
-x,-y,z
x,-y,-z
-x,y,-z
1/2+x,1/2+y,z
1/2-x,1/2-y,z
1/2+x,1/2-y,-z
1/2-x,1/2+y,-z
loop_
_atom_site_type_symbol
_atom_site_label
_atom_site_fract_x
_atom_site_fract_y
_atom_site_fract_z
Si Si1 0.602729 0.000000 0.500000
Si Si2 0.552205 0.906117 0.896040
Si Si3 0.372836 0.233986 0.878701
Si Si4 0.169776 0.101838 0.017931
Si Si5 0.167834 0.655290 0.635909
Si Si6 0.269765 0.397349 0.518583
O O1 0.565356 0.927594 0.599857
O O2 0.640497 0.936840 0.357555
O O3 0.581182 0.820483 0.954841
O O4 0.500000 0.899170 0.000000
O O5 0.570574 0.000000 0.000000
O O6 0.358511 0.211559 0.584986
O O7 0.372488 0.335004 0.941788
O O8 0.334831 0.194486 0.077701
O O9 0.191363 0.121272 0.299439
O O10 0.209489 0.120793 0.801531
O O11 0.158624 0.000000 0.000000
O O12 0.220985 0.646997 0.544518
O O13 0.260915 0.500000 0.500000
#
# Coordination Sequence:
#
# PCOD9323272 Si02
#       6
#     4   8   8   8   8   8
#     4  10  20  37  54  84 118 158 180 222 281 338
#     4  10  21  38  58  83 114 145 181 224 283 351
#     4  11  23  37  55  82 110 146 189 231 282 334
#     4  10  22  38  55  76 109 149 194 236 280 320
#     4  11  21  34  56  79 117 146 187 227 275 332
#     4  10  20  35  55  80 108 152 192 232 274 327
#
# _framework density 19.309683
#
# number of rings (size 3 to 8) (size 9 to 14) (size 15 to 20)
#    0.000    1.636    2.727    2.182    0.000    5.818 
#    0.000    0.000    0.000    0.545    0.000    0.000 
#    0.000    7.636    0.000    0.000    0.000    1.273 
#
# Total GULP energy -122531.983686 kJ/mol
# GULP energy per Si atom -5569.635622 kJ/mol
# Density = 1.926573 g / cm^3
# Si number density = 19.309683 Si / 1000 Ang^3
#
#
#
# Elastic Constant Matrix: (Units=GPa)
#
#
# Indices 1 2 3 4 5 6 
#
# 1 76.0318 65.8311 3.5422 0.0000 0.0000 0.0000
# 2 65.8311 85.6107 9.0344 0.0000 0.0000 0.0000
# 3 3.5422 9.0344 58.8932 0.0000 0.0000 0.0000
# 4 0.0000 0.0000 0.0000 22.6895 0.0000 0.0000
# 5 0.0000 0.0000 0.0000 0.0000 16.3986 0.0000
# 6 0.0000 0.0000 0.0000 0.0000 0.0000 13.6468
#
#
#
# Elastic Compliance Matrix: (Units=1/GPa)
#
#
# Indices 1 2 3 4 5 6 
#
# 1 0.039666 -0.030748 0.002331 0.000000 0.000000 0.000000
# 2 -0.030748 0.035707 -0.003628 0.000000 0.000000 0.000000
# 3 0.002331 -0.003628 0.017396 0.000000 0.000000 0.000000
# 4 0.000000 0.000000 0.000000 0.044073 0.000000 0.000000
# 5 0.000000 0.000000 0.000000 0.000000 0.060981 0.000000
# 6 0.000000 0.000000 0.000000 0.000000 0.000000 0.073277
#
#
# Mechanical properties :
#
#
# Convention : Reuss Voigt Hill
#
# Bulk Modulus (GPa) = 34.86747 41.92789 38.39768
# Shear Modulus (GPa) = 14.50322 20.02218 17.26270
#
# Velocity S-wave (km/s) = 2.74357 3.22358 2.99321
# Velocity P-wave (km/s) = 5.30400 5.96790 5.64572
#
# Compressibility (1/GPa) = 0.02868003
#
# Stress axis : x y z
#
# Youngs Moduli (GPa) = 25.21038 28.00545 57.48352
#
# Poissons Ratio (x) = 0.86110 -0.13400
# Poissons Ratio (y) = 0.77516 0.20857
# Poissons Ratio (z) = -0.05877 0.10161
#
# Static dielectric constant tensor:
#      x y z
#    x 1.660610 0.000000 0.000000 
#    y 0.000000 1.759060 0.000000 
#    z 0.000000 0.000000 2.391560 
# 
# From -- ./inp_files/4017.got.cif
#   From: 2010.05.17/outbox.cif.g08.bks.cpg/sg21_3_cif.got.tgz:4017.got - 2010.06.03 23:14:55.
