data_PCOD9323387
_publ_section_title
;
Structure prediction by ZEFSAII (Michael W. Deem and Ramdas Pophale) SiO2 
 PCOD9323387
Probable space group: C 2 2 2
;
_chemical_formula_sum "Si O2"
_cell_formula_units_Z 40
_cell_length_a 13.643836
_cell_length_b 12.171048
_cell_length_c 11.919294
_cell_angle_alpha 90.000000
_cell_angle_beta 90.000000
_cell_angle_gamma 90.000000
_cell_volume 1979.315373
_symmetry_space_group_name_H-M "C 2 2 2"
_symmetry_group_IT_number 21
_symmetry_cell_setting 'orthorhombic'
loop_
_space_group_symop_operation_xyz
x,y,z
-x,-y,z
x,-y,-z
-x,y,-z
1/2+x,1/2+y,z
1/2-x,1/2-y,z
1/2+x,1/2-y,-z
1/2-x,1/2+y,-z
loop_
_atom_site_type_symbol
_atom_site_label
_atom_site_fract_x
_atom_site_fract_y
_atom_site_fract_z
Si Si1 0.636927 0.230914 0.234334
Si Si2 0.393230 0.027854 0.630764
Si Si3 0.246507 0.621253 0.778453
Si Si4 0.540397 0.382470 0.849765
Si Si5 0.391902 0.168453 0.014365
O O1 0.750000 0.250000 0.258615
O O2 0.609976 0.154923 0.338511
O O3 0.549756 0.319661 0.212920
O O4 0.645026 0.172246 0.112176
O O5 0.500000 0.000000 0.677498
O O6 0.388338 0.000000 0.500000
O O7 0.312611 0.956929 0.695550
O O8 0.250000 0.750000 0.744555
O O9 0.360032 0.588133 0.783594
O O10 0.185571 0.619238 0.897149
O O11 0.500000 0.500000 0.887541
O O12 0.584820 0.292198 0.937663
O O13 0.500000 0.117814 0.000000
#
# Coordination Sequence:
#
# PCOD9323387 Si02
#       5
#     8   8   8   8   8
#     4  11  22  38  59  89 124 156 197 246 300 363
#     4  11  24  41  61  85 114 157 207 254 305 354
#     4  10  20  39  62  86 118 157 201 248 300 361
#     4  10  20  36  60  91 126 161 194 239 301 368
#     4   9  19  35  58  88 121 155 193 237 293 361
#
# _framework density 20.209008000000001
#
# number of rings (size 3 to 8) (size 9 to 14) (size 15 to 20)
#    0.000    1.800    0.000    6.600    0.000    5.200 
#    0.000   16.000    0.000    4.200    0.000    0.000 
#    0.000    0.000    0.000    0.000    0.000    0.000 
#
# Total GULP energy -111336.345108 kJ/mol
# GULP energy per Si atom -5566.817255 kJ/mol
# Density = 2.016301 g / cm^3
# Si number density = 20.209008 Si / 1000 Ang^3
#
#
#
# Elastic Constant Matrix: (Units=GPa)
#
#
# Indices 1 2 3 4 5 6 
#
# 1 170.3008 36.1483 27.5677 0.0000 0.0000 0.0000
# 2 36.1483 90.8976 37.3962 0.0000 0.0000 0.0000
# 3 27.5677 37.3962 52.6032 0.0000 0.0000 0.0000
# 4 0.0000 0.0000 0.0000 -11.3404 0.0000 0.0000
# 5 0.0000 0.0000 0.0000 0.0000 -19.1459 0.0000
# 6 0.0000 0.0000 0.0000 0.0000 0.0000 -21.2483
#
#
#
# Elastic Compliance Matrix: (Units=1/GPa)
#
#
# Indices 1 2 3 4 5 6 
#
# 1 0.006597 -0.001698 -0.002250 0.000000 0.000000 0.000000
# 2 -0.001698 0.015986 -0.010475 0.000000 0.000000 0.000000
# 3 -0.002250 -0.010475 0.027636 0.000000 0.000000 0.000000
# 4 0.000000 0.000000 0.000000 -0.088180 0.000000 0.000000
# 5 0.000000 0.000000 0.000000 0.000000 -0.052231 0.000000
# 6 0.000000 0.000000 0.000000 0.000000 0.000000 -0.047063
#
#
# Mechanical properties :
#
#
# Convention : Reuss Voigt Hill
#
# Bulk Modulus (GPa) = 46.78735 57.33622 52.06178
# Shear Modulus (GPa) = -49.36572 3.83238 -22.76667
#
# Velocity S-wave (km/s) = -4.94779 1.37858 -3.36007
# Velocity P-wave (km/s) = 3.07227 5.56482 3.28088
#
# Compressibility (1/GPa) = 0.02137330
#
# Stress axis : x y z
#
# Youngs Moduli (GPa) = 151.59442 62.55478 36.18431
#
# Poissons Ratio (x) = 0.10619 0.08142
# Poissons Ratio (y) = 0.25734 0.37903
# Poissons Ratio (z) = 0.34112 0.65526
#
# Static dielectric constant tensor:
#      x y z
#    x 1.731710 0.000000 0.000000 
#    y 0.000000 2.153470 0.000000 
#    z 0.000000 0.000000 1.721790 
# 
# From -- ./inp_files/24975.got.cif
#   From: 2010.05.17/outbox.cif.g08.bks.cpg/sg21_13_cif.got.tgz:24975.got - 2010.06.03 23:14:55.
