data_PCOD9323993
_publ_section_title
;
Structure prediction by ZEFSAII (Michael W. Deem and Ramdas Pophale) SiO2 
 PCOD9323993
Probable space group: C 2 2 2
;
_chemical_formula_sum "Si O2"
_cell_formula_units_Z 32
_cell_length_a 8.686816
_cell_length_b 15.970473
_cell_length_c 11.184660
_cell_angle_alpha 90.000000
_cell_angle_beta 90.000000
_cell_angle_gamma 90.000000
_cell_volume 1551.676519
_symmetry_space_group_name_H-M "C 2 2 2"
_symmetry_group_IT_number 21
_symmetry_cell_setting 'orthorhombic'
loop_
_space_group_symop_operation_xyz
x,y,z
-x,-y,z
x,-y,-z
-x,y,-z
1/2+x,1/2+y,z
1/2-x,1/2-y,z
1/2+x,1/2-y,-z
1/2-x,1/2+y,-z
loop_
_atom_site_type_symbol
_atom_site_label
_atom_site_fract_x
_atom_site_fract_y
_atom_site_fract_z
Si Si1 0.753762 0.000000 0.500000
Si Si2 0.430676 0.254518 0.269199
Si Si3 0.000000 0.140362 0.500000
Si Si4 0.441971 0.413372 0.135523
Si Si5 0.111381 0.569517 0.748367
O O1 0.664428 0.964784 0.383188
O O2 0.862543 0.922069 0.537421
O O3 0.250000 0.250000 0.239817
O O4 0.444723 0.298605 0.396473
O O5 0.503851 0.324879 0.184743
O O6 0.477793 0.157906 0.266271
O O7 0.500000 0.500000 0.194950
O O8 0.260611 0.417521 0.167487
O O9 0.500000 0.415956 0.000000
O O10 0.000000 0.500000 0.801303
#
# Coordination Sequence:
#
# PCOD9323993 Si02
#       5
#     4   8   4   8   8
#     4  11  21  36  62  94 144 184 218 262 344 418
#     4  10  21  38  61  95 135 174 226 274 331 401
#     4  11  20  34  63  96 132 188 223 264 321 414
#     4  10  21  45  71  92 126 181 232 279 331 414
#     4  11  24  41  63 101 143 174 221 292 347 397
#
# _framework density 20.622855000000001
#
# number of rings (size 3 to 8) (size 9 to 14) (size 15 to 20)
#    0.000    1.500    5.000    1.875    3.500    0.000 
#    0.000   21.250    0.000    0.000    0.000    0.000 
#    0.000    0.000    0.000    0.000    0.000    0.000 
#
# Total GULP energy -89122.976078 kJ/mol
# GULP energy per Si atom -5570.186005 kJ/mol
# Density = 2.057592 g / cm^3
# Si number density = 20.622855 Si / 1000 Ang^3
#
#
#
# Elastic Constant Matrix: (Units=GPa)
#
#
# Indices 1 2 3 4 5 6 
#
# 1 41.8003 43.8369 16.6962 0.0000 0.0000 0.0000
# 2 43.8369 232.3294 44.8875 0.0000 0.0000 0.0000
# 3 16.6962 44.8875 83.3158 0.0000 0.0000 0.0000
# 4 0.0000 0.0000 0.0000 -13.3093 0.0000 0.0000
# 5 0.0000 0.0000 0.0000 0.0000 7.3071 0.0000
# 6 0.0000 0.0000 0.0000 0.0000 0.0000 48.8131
#
#
#
# Elastic Compliance Matrix: (Units=1/GPa)
#
#
# Indices 1 2 3 4 5 6 
#
# 1 0.030654 -0.005131 -0.003378 0.000000 0.000000 0.000000
# 2 -0.005131 0.005663 -0.002023 0.000000 0.000000 0.000000
# 3 -0.003378 -0.002023 0.013769 0.000000 0.000000 0.000000
# 4 0.000000 0.000000 0.000000 -0.075136 0.000000 0.000000
# 5 0.000000 0.000000 0.000000 0.000000 0.136854 0.000000
# 6 0.000000 0.000000 0.000000 0.000000 0.000000 0.020486
#
#
# Mechanical properties :
#
#
# Convention : Reuss Voigt Hill
#
# Bulk Modulus (GPa) = 34.45716 63.14297 48.80006
# Shear Modulus (GPa) = 30.66925 25.36385 28.01655
#
# Velocity S-wave (km/s) = 3.86054 3.51078 3.68981
# Velocity P-wave (km/s) = 6.05113 6.86430 6.47050
#
# Compressibility (1/GPa) = 0.02902155
#
# Stress axis : x y z
#
# Youngs Moduli (GPa) = 32.62230 176.57749 72.62475
#
# Poissons Ratio (x) = 0.90605 0.24536
# Poissons Ratio (y) = 0.16739 0.14691
# Poissons Ratio (z) = 0.11021 0.35719
#
# Static dielectric constant tensor:
#      x y z
#    x 1.795310 0.000000 0.000000 
#    y 0.000000 1.823510 0.000000 
#    z 0.000000 0.000000 1.608520 
# 
# From -- ./inp_files/21986.got.cif
#   From: 2010.05.17/outbox.cif.g08.bks.cpg/sg21_11_cif.got.tgz:21986.got - 2010.06.03 23:14:55.
