data_PCOD9323461
_publ_section_title
;
Structure prediction by ZEFSAII (Michael W. Deem and Ramdas Pophale) SiO2 
 PCOD9323461
Probable space group: C 2 2 2
;
_chemical_formula_sum "Si O2"
_cell_formula_units_Z 48
_cell_length_a 5.211517
_cell_length_b 28.645545
_cell_length_c 14.417994
_cell_angle_alpha 90.000000
_cell_angle_beta 90.000000
_cell_angle_gamma 90.000000
_cell_volume 2152.415390
_symmetry_space_group_name_H-M "C 2 2 2"
_symmetry_group_IT_number 21
_symmetry_cell_setting 'orthorhombic'
loop_
_space_group_symop_operation_xyz
x,y,z
-x,-y,z
x,-y,-z
-x,y,-z
1/2+x,1/2+y,z
1/2-x,1/2-y,z
1/2+x,1/2-y,-z
1/2-x,1/2+y,-z
loop_
_atom_site_type_symbol
_atom_site_label
_atom_site_fract_x
_atom_site_fract_y
_atom_site_fract_z
Si Si1 0.918643 0.071134 0.242826
Si Si2 0.094674 0.548578 0.645491
Si Si3 0.743280 0.340811 0.764613
Si Si4 0.068919 0.212073 0.899831
Si Si5 0.239699 0.353743 0.440631
Si Si6 0.142437 0.386245 0.904781
O O1 0.670809 0.063138 0.305541
O O2 0.821630 0.072386 0.136171
O O3 0.170586 0.043299 0.279098
O O4 0.000425 0.125232 0.252349
O O5 0.199030 0.590498 0.581800
O O6 0.000000 0.500000 0.602227
O O7 0.664995 0.300239 0.833593
O O8 0.800640 0.328799 0.659112
O O9 0.941686 0.372170 0.823444
O O10 0.250000 0.250000 0.852584
O O11 0.204899 0.162267 0.920718
O O12 0.000000 0.231916 0.000000
O O13 0.500000 0.347608 0.500000
O O14 0.000000 0.338354 0.500000
O O15 0.000000 0.398355 0.000000
#
# Coordination Sequence:
#
# PCOD9323461 Si02
#       6
#     8   8   8   8   8   8
#     4  10  20  37  60  91 126 169 217 255 313 395
#     4  11  22  40  63  93 130 167 206 274 352 399
#     4  10  22  40  61  92 130 174 217 263 325 384
#     4  11  23  36  60 102 142 171 204 266 336 402
#     4  11  23  40  65  94 127 165 227 277 319 384
#     4  11  20  37  64  92 129 173 223 263 320 390
#
# _framework density 22.300528
#
# number of rings (size 3 to 8) (size 9 to 14) (size 15 to 20)
#    0.000    1.333    5.000    3.000    2.333    0.333 
#    0.000    2.500    0.000    0.500    8.667    0.000 
#    0.000    0.000    0.000    0.000    0.000    0.000 
#
# Total GULP energy -133761.675705 kJ/mol
# GULP energy per Si atom -5573.403154 kJ/mol
# Density = 2.224977 g / cm^3
# Si number density = 22.300528 Si / 1000 Ang^3
#
#
#
# Elastic Constant Matrix: (Units=GPa)
#
#
# Indices 1 2 3 4 5 6 
#
# 1 149.8451 11.9141 64.9654 0.0000 0.0000 0.0000
# 2 11.9141 29.5728 7.9075 0.0000 0.0000 0.0000
# 3 64.9654 7.9075 152.6017 0.0000 0.0000 0.0000
# 4 0.0000 0.0000 0.0000 33.2471 0.0000 0.0000
# 5 0.0000 0.0000 0.0000 0.0000 40.9689 0.0000
# 6 0.0000 0.0000 0.0000 0.0000 0.0000 42.2113
#
#
#
# Elastic Compliance Matrix: (Units=1/GPa)
#
#
# Indices 1 2 3 4 5 6 
#
# 1 0.008355 -0.002449 -0.003430 0.000000 0.000000 0.000000
# 2 -0.002449 0.035008 -0.000771 0.000000 0.000000 0.000000
# 3 -0.003430 -0.000771 0.008053 0.000000 0.000000 0.000000
# 4 0.000000 0.000000 0.000000 0.030078 0.000000 0.000000
# 5 0.000000 0.000000 0.000000 0.000000 0.024409 0.000000
# 6 0.000000 0.000000 0.000000 0.000000 0.000000 0.023690
#
#
# Mechanical properties :
#
#
# Convention : Reuss Voigt Hill
#
# Bulk Modulus (GPa) = 26.23622 55.73261 40.98442
# Shear Modulus (GPa) = 32.13376 39.76764 35.95070
#
# Velocity S-wave (km/s) = 3.80009 4.22745 4.01945
# Velocity P-wave (km/s) = 5.57177 6.99101 6.32135
#
# Compressibility (1/GPa) = 0.03811524
#
# Stress axis : x y z
#
# Youngs Moduli (GPa) = 119.68275 28.56513 124.17321
#
# Poissons Ratio (x) = 0.06996 0.42593
# Poissons Ratio (y) = 0.29310 0.09579
# Poissons Ratio (z) = 0.41053 0.02204
#
# Static dielectric constant tensor:
#      x y z
#    x 1.916120 0.000000 0.000000 
#    y 0.000000 1.848150 0.000000 
#    z 0.000000 0.000000 2.005930 
# 
# From -- ./inp_files/29531.got.cif
#   From: 2010.05.17/outbox.cif.g08.bks.cpg/sg21_15_cif.got.tgz:29531.got - 2010.06.03 23:14:55.
