data_PCOD9323661
_publ_section_title
;
Structure prediction by ZEFSAII (Michael W. Deem and Ramdas Pophale) SiO2 
 PCOD9323661
Probable space group: C 2 2 2
;
_chemical_formula_sum "Si O2"
_cell_formula_units_Z 40
_cell_length_a 10.664608
_cell_length_b 17.004091
_cell_length_c 11.324338
_cell_angle_alpha 90.000000
_cell_angle_beta 90.000000
_cell_angle_gamma 90.000000
_cell_volume 2053.577704
_symmetry_space_group_name_H-M "C 2 2 2"
_symmetry_group_IT_number 21
_symmetry_cell_setting 'orthorhombic'
loop_
_space_group_symop_operation_xyz
x,y,z
-x,-y,z
x,-y,-z
-x,y,-z
1/2+x,1/2+y,z
1/2-x,1/2-y,z
1/2+x,1/2-y,-z
1/2-x,1/2+y,-z
loop_
_atom_site_type_symbol
_atom_site_label
_atom_site_fract_x
_atom_site_fract_y
_atom_site_fract_z
Si Si1 0.023723 0.089384 0.762885
Si Si2 0.749046 0.880469 0.290401
Si Si3 0.638109 0.805937 0.524627
Si Si4 0.750000 0.250000 0.905183
Si Si5 0.768712 0.455977 0.373819
Si Si6 0.500000 0.690225 0.000000
O O1 0.145420 0.085394 0.680179
O O2 0.899372 0.113985 0.691437
O O3 0.027698 0.140397 0.881393
O O4 0.000000 0.000000 0.802150
O O5 0.687079 0.835612 0.398314
O O6 0.732955 0.827360 0.175603
O O7 0.699440 0.970257 0.289300
O O8 0.500000 0.771752 0.500000
O O9 0.750000 0.750000 0.570886
O O10 0.632821 0.885947 0.603092
O O11 0.624337 0.260319 0.978141
O O12 0.744498 0.500000 0.500000
#
# Coordination Sequence:
#
# PCOD9323661 Si02
#       6
#     8   8   8   4   8   4
#     4   9  18  35  60  90 115 158 201 260 298 357
#     4   9  19  36  60  80 121 165 193 241 315 353
#     4  11  24  37  57  88 124 161 198 247 304 378
#     4  10  20  40  60  86 118 162 200 258 312 362
#     4   9  20  36  59  92 124 161 203 245 303 380
#     4  10  21  36  60  86 121 150 212 256 310 355
#
# _framework density 19.478202
#
# number of rings (size 3 to 8) (size 9 to 14) (size 15 to 20)
#    0.000    2.400    1.000    0.300    2.800   12.000 
#    5.400    0.000    0.000    0.000    0.000    0.000 
#    0.000    0.000    0.000    0.000    0.000    0.000 
#
# Total GULP energy -111453.046599 kJ/mol
# GULP energy per Si atom -5572.652330 kJ/mol
# Density = 1.943387 g / cm^3
# Si number density = 19.478202 Si / 1000 Ang^3
#
#
#
# Elastic Constant Matrix: (Units=GPa)
#
#
# Indices 1 2 3 4 5 6 
#
# 1 80.6583 60.9461 26.9469 0.0000 0.0000 0.0000
# 2 60.9461 85.0055 20.5596 0.0000 0.0000 0.0000
# 3 26.9469 20.5596 32.7879 0.0000 0.0000 0.0000
# 4 0.0000 0.0000 0.0000 17.8058 0.0000 0.0000
# 5 0.0000 0.0000 0.0000 0.0000 27.9638 0.0000
# 6 0.0000 0.0000 0.0000 0.0000 0.0000 30.8415
#
#
#
# Elastic Compliance Matrix: (Units=1/GPa)
#
#
# Indices 1 2 3 4 5 6 
#
# 1 0.031640 -0.019327 -0.013885 0.000000 0.000000 0.000000
# 2 -0.019327 0.025672 -0.000214 0.000000 0.000000 0.000000
# 3 -0.013885 -0.000214 0.042045 0.000000 0.000000 0.000000
# 4 0.000000 0.000000 0.000000 0.056162 0.000000 0.000000
# 5 0.000000 0.000000 0.000000 0.000000 0.035761 0.000000
# 6 0.000000 0.000000 0.000000 0.000000 0.000000 0.032424
#
#
# Mechanical properties :
#
#
# Convention : Reuss Voigt Hill
#
# Bulk Modulus (GPa) = 30.76368 46.15078 38.45723
# Shear Modulus (GPa) = 16.58986 21.32217 18.95601
#
# Velocity S-wave (km/s) = 2.92158 3.31217 3.12299
# Velocity P-wave (km/s) = 5.21623 6.19453 5.72631
#
# Compressibility (1/GPa) = 0.03250587
#
# Stress axis : x y z
#
# Youngs Moduli (GPa) = 31.60552 38.95251 23.78432
#
# Poissons Ratio (x) = 0.75282 0.33024
# Poissons Ratio (y) = 0.61083 0.00509
# Poissons Ratio (z) = 0.43883 0.00834
#
# Static dielectric constant tensor:
#      x y z
#    x 1.699090 0.000000 0.000000 
#    y 0.000000 1.743630 0.000000 
#    z 0.000000 0.000000 1.666950 
# 
# From -- ./inp_files/22320.got.cif
#   From: 2010.05.17/outbox.cif.g08.bks.cpg/sg21_12_cif.got.tgz:22320.got - 2010.06.03 23:14:55.
