data_PCOD9323409
_publ_section_title
;
Structure prediction by ZEFSAII (Michael W. Deem and Ramdas Pophale) SiO2 
 PCOD9323409
Probable space group: C 2 2 2
;
_chemical_formula_sum "Si O2"
_cell_formula_units_Z 44
_cell_length_a 15.992904
_cell_length_b 7.513531
_cell_length_c 18.296634
_cell_angle_alpha 90.000000
_cell_angle_beta 90.000000
_cell_angle_gamma 90.000000
_cell_volume 2198.581724
_symmetry_space_group_name_H-M "C 2 2 2"
_symmetry_group_IT_number 21
_symmetry_cell_setting 'orthorhombic'
loop_
_space_group_symop_operation_xyz
x,y,z
-x,-y,z
x,-y,-z
-x,y,-z
1/2+x,1/2+y,z
1/2-x,1/2-y,z
1/2+x,1/2-y,-z
1/2-x,1/2+y,-z
loop_
_atom_site_type_symbol
_atom_site_label
_atom_site_fract_x
_atom_site_fract_y
_atom_site_fract_z
Si Si1 0.312837 0.085472 0.577932
Si Si2 0.594536 0.671736 0.224125
Si Si3 0.154952 0.221544 0.822591
Si Si4 0.497643 0.282850 0.916671
Si Si5 0.750000 0.250000 0.673604
Si Si6 0.444076 0.172930 0.693048
O O1 0.250000 0.250000 0.569583
O O2 0.395805 0.166740 0.616588
O O3 0.334033 0.000000 0.500000
O O4 0.267525 0.926860 0.624644
O O5 0.629873 0.479913 0.199009
O O6 0.564967 0.763533 0.147322
O O7 0.669257 0.741615 0.274088
O O8 0.511231 0.684195 0.275481
O O9 0.250000 0.250000 0.842452
O O10 0.091377 0.275485 0.885407
O O11 0.131408 0.331416 0.750769
O O12 0.500000 0.500000 0.918491
O O13 0.500000 0.220745 0.000000
O O14 0.500000 0.000000 0.696712
#
# Coordination Sequence:
#
# PCOD9323409 Si02
#       6
#     8   8   8   8   4   8
#     4  12  26  45  66  95 135 173 218 281 351 408
#     4  10  21  37  63  95 122 171 222 271 332 400
#     4  10  20  36  62  93 125 168 221 271 332 403
#     4   8  16  34  59  88 130 171 214 273 338 396
#     4  12  22  42  66  98 132 170 232 282 334 410
#     4  11  21  38  62  90 121 163 210 270 325 400
#
# _framework density 20.012903000000001
#
# number of rings (size 3 to 8) (size 9 to 14) (size 15 to 20)
#    0.000    1.636    2.727    4.364    0.000    0.364 
#    1.636    0.000    0.000    9.818    0.000    0.000 
#    0.000    0.000    0.000    0.000    0.000    0.000 
#
# Total GULP energy -122528.340249 kJ/mol
# GULP energy per Si atom -5569.470011 kJ/mol
# Density = 1.996735 g / cm^3
# Si number density = 20.012903 Si / 1000 Ang^3
#
#
#
# Elastic Constant Matrix: (Units=GPa)
#
#
# Indices 1 2 3 4 5 6 
#
# 1 111.4025 21.3967 72.1696 0.0000 0.0000 0.0000
# 2 21.3967 51.6382 37.2992 0.0000 0.0000 0.0000
# 3 72.1696 37.2992 178.7175 0.0000 0.0000 0.0000
# 4 0.0000 0.0000 0.0000 7.1738 0.0000 0.0000
# 5 0.0000 0.0000 0.0000 0.0000 23.9424 0.0000
# 6 0.0000 0.0000 0.0000 0.0000 0.0000 26.8926
#
#
#
# Elastic Compliance Matrix: (Units=1/GPa)
#
#
# Indices 1 2 3 4 5 6 
#
# 1 0.012293 -0.001776 -0.004594 0.000000 0.000000 0.000000
# 2 -0.001776 0.023060 -0.004096 0.000000 0.000000 0.000000
# 3 -0.004594 -0.004096 0.008305 0.000000 0.000000 0.000000
# 4 0.000000 0.000000 0.000000 0.139397 0.000000 0.000000
# 5 0.000000 0.000000 0.000000 0.000000 0.041767 0.000000
# 6 0.000000 0.000000 0.000000 0.000000 0.000000 0.037185
#
#
# Mechanical properties :
#
#
# Convention : Reuss Voigt Hill
#
# Bulk Modulus (GPa) = 43.99820 67.05434 55.52627
# Shear Modulus (GPa) = 17.21095 25.66128 21.43611
#
# Velocity S-wave (km/s) = 2.93574 3.58472 3.27634
# Velocity P-wave (km/s) = 5.79000 7.12123 6.48984
#
# Compressibility (1/GPa) = 0.02272820
#
# Stress axis : x y z
#
# Youngs Moduli (GPa) = 81.34402 43.36584 120.40610
#
# Poissons Ratio (x) = 0.07701 0.55311
# Poissons Ratio (y) = 0.14445 0.49313
# Poissons Ratio (z) = 0.37367 0.17761
#
# Static dielectric constant tensor:
#      x y z
#    x 1.707090 0.000000 0.000000 
#    y 0.000000 1.825460 0.000000 
#    z 0.000000 0.000000 1.731260 
# 
# From -- ./inp_files/36588.got.cif
#   From: 2010.05.17/outbox.cif.g08.bks.cpg/sg21_19_cif.got.tgz:36588.got - 2010.06.03 23:14:55.
