data_PCOD9323173
_publ_section_title
;
Structure prediction by ZEFSAII (Michael W. Deem and Ramdas Pophale) SiO2 
 PCOD9323173
Probable space group: C 2 2 2
;
_chemical_formula_sum "Si O2"
_cell_formula_units_Z 64
_cell_length_a 23.466857
_cell_length_b 9.052175
_cell_length_c 16.651305
_cell_angle_alpha 90.000000
_cell_angle_beta 90.000000
_cell_angle_gamma 90.000000
_cell_volume 3537.171719
_symmetry_space_group_name_H-M "C 2 2 2"
_symmetry_group_IT_number 21
_symmetry_cell_setting 'orthorhombic'
loop_
_space_group_symop_operation_xyz
x,y,z
-x,-y,z
x,-y,-z
-x,y,-z
1/2+x,1/2+y,z
1/2-x,1/2-y,z
1/2+x,1/2-y,-z
1/2-x,1/2+y,-z
loop_
_atom_site_type_symbol
_atom_site_label
_atom_site_fract_x
_atom_site_fract_y
_atom_site_fract_z
Si Si1 0.503912 0.676042 0.596838
Si Si2 0.322239 0.522093 0.911788
Si Si3 0.311413 0.045693 0.914875
Si Si4 0.113069 0.316299 0.354926
Si Si5 0.817456 0.218040 0.199448
Si Si6 0.311178 0.321244 0.494892
Si Si7 0.684411 0.215632 0.802925
Si Si8 0.376791 0.827226 0.358887
O O1 0.500000 0.500000 0.614271
O O2 0.500000 0.692038 0.500000
O O3 0.451854 0.763502 0.637461
O O4 0.562652 0.749910 0.624901
O O5 0.256845 0.468428 0.921605
O O6 0.336201 0.446169 0.825307
O O7 0.324145 0.691211 0.884751
O O8 0.349443 0.500000 0.000000
O O9 0.328597 0.206565 0.887153
O O10 0.323720 0.948342 0.836758
O O11 0.336304 0.000000 0.000000
O O12 0.146120 0.230819 0.425492
O O13 0.142400 0.268401 0.271432
O O14 0.119266 0.494292 0.365964
O O15 0.750000 0.250000 0.216833
O O16 0.853275 0.281875 0.271937
O O17 0.308996 0.500000 0.500000
O O18 0.250000 0.250000 0.476918
O O19 0.333987 0.245623 0.576412
O O20 0.750000 0.250000 0.777846
#
# Coordination Sequence:
#
# PCOD9323173 Si02
#       8
#     8   8   8   8   8   8   8   8
#     4  11  25  45  67  87 109 150 205 260 307 358
#     4   9  18  30  52  84 121 166 202 234 285 351
#     4   9  16  32  52  80 121 162 196 236 287 351
#     4  12  24  41  63  89 120 157 201 250 305 356
#     4  10  20  33  55  87 127 159 196 241 293 353
#     4  12  26  41  62  89 124 164 198 238 296 362
#     4  10  20  33  55  87 127 159 196 241 293 353
#     4  12  24  41  63  89 120 157 201 250 305 356
#
# _framework density 18.093553
#
# number of rings (size 3 to 8) (size 9 to 14) (size 15 to 20)
#    0.000    1.375    2.500    3.750    3.500    3.500 
#    0.000    0.000    0.000    0.000    0.000    5.250 
#    0.000    0.000    0.000    0.000    0.000    0.000 
#
# Total GULP energy -178278.955740 kJ/mol
# GULP energy per Si atom -5571.217367 kJ/mol
# Density = 1.805237 g / cm^3
# Si number density = 18.093553 Si / 1000 Ang^3
#
#
#
# Elastic Constant Matrix: (Units=GPa)
#
#
# Indices 1 2 3 4 5 6 
#
# 1 47.6234 15.2864 14.3265 0.0000 0.0000 0.0000
# 2 15.2864 80.2771 15.1912 0.0000 0.0000 0.0000
# 3 14.3265 15.1912 83.8237 0.0000 0.0000 0.0000
# 4 0.0000 0.0000 0.0000 0.5649 0.0000 0.0000
# 5 0.0000 0.0000 0.0000 0.0000 -4.3267 0.0000
# 6 0.0000 0.0000 0.0000 0.0000 0.0000 22.7932
#
#
#
# Elastic Compliance Matrix: (Units=1/GPa)
#
#
# Indices 1 2 3 4 5 6 
#
# 1 0.023203 -0.003798 -0.003277 0.000000 0.000000 0.000000
# 2 -0.003798 0.013521 -0.001801 0.000000 0.000000 0.000000
# 3 -0.003277 -0.001801 0.012816 0.000000 0.000000 0.000000
# 4 0.000000 0.000000 0.000000 1.770121 0.000000 0.000000
# 5 0.000000 0.000000 0.000000 0.000000 -0.231123 0.000000
# 6 0.000000 0.000000 0.000000 0.000000 0.000000 0.043873
#
#
# Mechanical properties :
#
#
# Convention : Reuss Voigt Hill
#
# Bulk Modulus (GPa) = 31.45944 33.48140 32.47042
# Shear Modulus (GPa) = 3.01067 14.93429 8.97248
#
# Velocity S-wave (km/s) = 1.29134 2.87608 2.22928
# Velocity P-wave (km/s) = 4.43264 5.43819 4.96096
#
# Compressibility (1/GPa) = 0.03178696
#
# Stress axis : x y z
#
# Youngs Moduli (GPa) = 43.09760 73.95931 78.02523
#
# Poissons Ratio (x) = 0.28091 0.25572
# Poissons Ratio (y) = 0.16369 0.14054
# Poissons Ratio (z) = 0.14125 0.13322
#
# Static dielectric constant tensor:
#      x y z
#    x 1.616860 0.000000 0.000000 
#    y 0.000000 1.653500 0.000000 
#    z 0.000000 0.000000 1.626860 
# 
# From -- ./inp_files/33608.got.cif
#   From: 2010.05.17/outbox.cif.g08.bks.cpg/sg21_17_cif.got.tgz:33608.got - 2010.06.03 23:14:55.
