data_PCOD9323032
_publ_section_title
;
Structure prediction by ZEFSAII (Michael W. Deem and Ramdas Pophale) SiO2 
 PCOD9323032
Probable space group: C 2 2 2
;
_chemical_formula_sum "Si O2"
_cell_formula_units_Z 64
_cell_length_a 15.170264
_cell_length_b 25.539179
_cell_length_c 8.256775
_cell_angle_alpha 90.000000
_cell_angle_beta 90.000000
_cell_angle_gamma 90.000000
_cell_volume 3198.972604
_symmetry_space_group_name_H-M "C 2 2 2"
_symmetry_group_IT_number 21
_symmetry_cell_setting 'orthorhombic'
loop_
_space_group_symop_operation_xyz
x,y,z
-x,-y,z
x,-y,-z
-x,y,-z
1/2+x,1/2+y,z
1/2-x,1/2-y,z
1/2+x,1/2-y,-z
1/2-x,1/2+y,-z
loop_
_atom_site_type_symbol
_atom_site_label
_atom_site_fract_x
_atom_site_fract_y
_atom_site_fract_z
Si Si1 0.841043 0.108381 0.778996
Si Si2 0.719761 0.503128 0.809986
Si Si3 0.511732 0.667696 0.804042
Si Si4 0.806203 0.119797 0.165576
Si Si5 0.294818 0.806704 0.646914
Si Si6 0.092922 0.478456 0.681327
Si Si7 0.972304 0.716129 0.187180
Si Si8 0.625447 0.144569 0.322503
O O1 0.777440 0.150648 0.697518
O O2 0.941283 0.125098 0.745794
O O3 0.820820 0.048621 0.730518
O O4 0.820990 0.113812 0.972447
O O5 0.691209 0.561356 0.757528
O O6 0.824800 0.501927 0.785479
O O7 0.698177 0.500000 0.000000
O O8 0.612376 0.653415 0.768348
O O9 0.485787 0.725245 0.744867
O O10 0.500000 0.668210 0.000000
O O11 0.711102 0.144353 0.204652
O O12 0.250000 0.750000 0.621176
O O13 0.371805 0.800217 0.780898
O O14 0.341507 0.829918 0.488519
O O15 0.104187 0.500000 0.500000
O O16 0.096459 0.415899 0.668128
O O17 0.000000 0.500000 0.744319
O O18 0.041336 0.677002 0.266840
O O19 0.000000 0.717372 0.000000
#
# Coordination Sequence:
#
# PCOD9323032 Si02
#       8
#     8   8   8   8   8   8   8   8
#     4  10  19  38  62  87 121 158 197 248 295 355
#     4   9  19  35  59  88 116 148 196 250 295 348
#     4   9  19  36  59  86 118 155 197 240 292 354
#     4   9  20  39  60  89 120 156 201 242 301 353
#     4  12  25  40  60  92 122 159 199 246 301 354
#     4  10  22  38  58  82 112 160 195 235 303 362
#     4  11  24  42  63  89 118 157 202 245 296 358
#     4  11  25  41  60  90 121 157 200 248 300 356
#
# _framework density 20.006423999999999
#
# number of rings (size 3 to 8) (size 9 to 14) (size 15 to 20)
#    0.000    1.875    1.250    1.875    7.000    0.750 
#    0.000    3.125    0.000    0.000    0.000    2.625 
#    0.000    0.000    0.000    0.000    0.000    0.000 
#
# Total GULP energy -178660.801624 kJ/mol
# GULP energy per Si atom -5583.150051 kJ/mol
# Density = 1.996089 g / cm^3
# Si number density = 20.006424 Si / 1000 Ang^3
#
#
#
# Elastic Constant Matrix: (Units=GPa)
#
#
# Indices 1 2 3 4 5 6 
#
# 1 82.9978 29.9410 -4.7482 0.0000 0.0000 0.0000
# 2 29.9410 98.0642 -1.4488 0.0000 0.0000 0.0000
# 3 -4.7482 -1.4488 16.3956 0.0000 0.0000 0.0000
# 4 0.0000 0.0000 0.0000 15.5812 0.0000 0.0000
# 5 0.0000 0.0000 0.0000 0.0000 0.8044 0.0000
# 6 0.0000 0.0000 0.0000 0.0000 0.0000 34.0630
#
#
#
# Elastic Compliance Matrix: (Units=1/GPa)
#
#
# Indices 1 2 3 4 5 6 
#
# 1 0.013751 -0.004145 0.003616 0.000000 0.000000 0.000000
# 2 -0.004145 0.011460 -0.000188 0.000000 0.000000 0.000000
# 3 0.003616 -0.000188 0.062023 0.000000 0.000000 0.000000
# 4 0.000000 0.000000 0.000000 0.064180 0.000000 0.000000
# 5 0.000000 0.000000 0.000000 0.000000 1.243191 0.000000
# 6 0.000000 0.000000 0.000000 0.000000 0.000000 0.029357
#
#
# Mechanical properties :
#
#
# Convention : Reuss Voigt Hill
#
# Bulk Modulus (GPa) = 11.65500 27.21615 19.43557
# Shear Modulus (GPa) = 3.43880 21.67062 12.55471
#
# Velocity S-wave (km/s) = 1.31247 3.29475 2.50778
# Velocity P-wave (km/s) = 2.85220 5.30161 4.25688
#
# Compressibility (1/GPa) = 0.08580012
#
# Stress axis : x y z
#
# Youngs Moduli (GPa) = 72.72390 87.25881 16.12315
#
# Poissons Ratio (x) = 0.36168 -0.05830
# Poissons Ratio (y) = 0.30143 0.00303
# Poissons Ratio (z) = -0.26297 0.01638
#
# Static dielectric constant tensor:
#      x y z
#    x 1.690530 0.000000 0.000000 
#    y 0.000000 1.710160 0.000000 
#    z 0.000000 0.000000 1.725700 
# 
# From -- ./inp_files/15498.got.cif
#   From: 2010.05.17/outbox.cif.g08.bks.cpg/sg21_8_cif.got.tgz:15498.got - 2010.06.03 23:14:55.
