data_PCOD9323813
_publ_section_title
;
Structure prediction by ZEFSAII (Michael W. Deem and Ramdas Pophale) SiO2 
 PCOD9323813
Probable space group: C 2 2 2
;
_chemical_formula_sum "Si O2"
_cell_formula_units_Z 40
_cell_length_a 19.127807
_cell_length_b 5.895342
_cell_length_c 17.438376
_cell_angle_alpha 90.000000
_cell_angle_beta 90.000000
_cell_angle_gamma 90.000000
_cell_volume 1966.437841
_symmetry_space_group_name_H-M "C 2 2 2"
_symmetry_group_IT_number 21
_symmetry_cell_setting 'orthorhombic'
loop_
_space_group_symop_operation_xyz
x,y,z
-x,-y,z
x,-y,-z
-x,y,-z
1/2+x,1/2+y,z
1/2-x,1/2-y,z
1/2+x,1/2-y,-z
1/2-x,1/2+y,-z
loop_
_atom_site_type_symbol
_atom_site_label
_atom_site_fract_x
_atom_site_fract_y
_atom_site_fract_z
Si Si1 0.677183 0.334691 0.438479
Si Si2 0.080682 0.746975 0.027634
Si Si3 0.822137 0.131907 0.710768
Si Si4 0.428589 0.353367 0.797325
Si Si5 0.921960 0.522252 0.650632
O O1 0.642956 0.500000 0.500000
O O2 0.750000 0.250000 0.473427
O O3 0.695432 0.465023 0.359695
O O4 0.626237 0.138456 0.412536
O O5 0.079529 0.743926 0.119720
O O6 0.110567 0.500000 0.000000
O O7 0.000000 0.747669 0.000000
O O8 0.108279 0.000000 0.000000
O O9 0.750000 0.250000 0.733290
O O10 0.881033 0.300140 0.677488
O O11 0.860683 0.005319 0.779621
O O12 0.500000 0.500000 0.796460
O O13 0.430039 0.178245 0.726751
O O14 0.000000 0.500000 0.620356
#
# Coordination Sequence:
#
# PCOD9323813 Si02
#       5
#     8   8   8   8   8
#     4  11  24  42  69  93 124 175 230 274 338 417
#     4  10  21  34  59  99 140 169 228 285 338 409
#     4  11  23  42  65  97 130 171 228 271 340 416
#     4  11  22  37  64 101 133 174 219 283 344 399
#     4  11  24  40  67  95 134 169 217 284 339 403
#
# _framework density 20.341349000000001
#
# number of rings (size 3 to 8) (size 9 to 14) (size 15 to 20)
#    0.000    1.200    6.000    0.600    5.600    0.000 
#    0.000    3.000    0.000    0.000    5.200    0.000 
#    0.000    0.000    0.000    0.000    0.000    0.000 
#
# Total GULP energy -111671.839485 kJ/mol
# GULP energy per Si atom -5583.591974 kJ/mol
# Density = 2.029505 g / cm^3
# Si number density = 20.341349 Si / 1000 Ang^3
#
#
#
# Elastic Constant Matrix: (Units=GPa)
#
#
# Indices 1 2 3 4 5 6 
#
# 1 92.4697 13.6128 2.4723 0.0000 0.0000 0.0000
# 2 13.6128 85.8720 9.4028 0.0000 0.0000 0.0000
# 3 2.4723 9.4028 80.3486 0.0000 0.0000 0.0000
# 4 0.0000 0.0000 0.0000 38.2198 0.0000 0.0000
# 5 0.0000 0.0000 0.0000 0.0000 -7.1358 0.0000
# 6 0.0000 0.0000 0.0000 0.0000 0.0000 22.8010
#
#
#
# Elastic Compliance Matrix: (Units=1/GPa)
#
#
# Indices 1 2 3 4 5 6 
#
# 1 0.011074 -0.001741 -0.000137 0.000000 0.000000 0.000000
# 2 -0.001741 0.012070 -0.001359 0.000000 0.000000 0.000000
# 3 -0.000137 -0.001359 0.012609 0.000000 0.000000 0.000000
# 4 0.000000 0.000000 0.000000 0.026164 0.000000 0.000000
# 5 0.000000 0.000000 0.000000 0.000000 -0.140139 0.000000
# 6 0.000000 0.000000 0.000000 0.000000 0.000000 0.043858
#
#
# Mechanical properties :
#
#
# Convention : Reuss Voigt Hill
#
# Bulk Modulus (GPa) = 34.15282 34.40735 34.28008
# Shear Modulus (GPa) = -275.77808 26.32384 -124.72712
#
# Velocity S-wave (km/s) = -11.65630 3.60127 -7.83901
# Velocity P-wave (km/s) = 12.81924 5.85183 8.06502
#
# Compressibility (1/GPa) = 0.02928016
#
# Stress axis : x y z
#
# Youngs Moduli (GPa) = 90.29957 82.85030 79.30834
#
# Poissons Ratio (x) = 0.14420 0.01087
# Poissons Ratio (y) = 0.15717 0.10777
# Poissons Ratio (z) = 0.01238 0.11259
#
# Static dielectric constant tensor:
#      x y z
#    x 1.685330 0.000000 0.000000 
#    y 0.000000 1.836610 0.000000 
#    z 0.000000 0.000000 1.673830 
# 
# From -- ./inp_files/34651.got.cif
#   From: 2010.05.17/outbox.cif.g08.bks.cpg/sg21_18_cif.got.tgz:34651.got - 2010.06.03 23:14:55.
