data_PCOD9323749
_publ_section_title
;
Structure prediction by ZEFSAII (Michael W. Deem and Ramdas Pophale) SiO2 
 PCOD9323749
Probable space group: C 2 2 2
;
_chemical_formula_sum "Si O2"
_cell_formula_units_Z 36
_cell_length_a 7.870142
_cell_length_b 25.833465
_cell_length_c 8.659009
_cell_angle_alpha 90.000000
_cell_angle_beta 90.000000
_cell_angle_gamma 90.000000
_cell_volume 1760.489425
_symmetry_space_group_name_H-M "C 2 2 2"
_symmetry_group_IT_number 21
_symmetry_cell_setting 'orthorhombic'
loop_
_space_group_symop_operation_xyz
x,y,z
-x,-y,z
x,-y,-z
-x,y,-z
1/2+x,1/2+y,z
1/2-x,1/2-y,z
1/2+x,1/2-y,-z
1/2-x,1/2+y,-z
loop_
_atom_site_type_symbol
_atom_site_label
_atom_site_fract_x
_atom_site_fract_y
_atom_site_fract_z
Si Si1 0.063810 0.075157 0.257579
Si Si2 0.513965 0.785335 0.818219
Si Si3 0.325038 0.857713 0.593539
Si Si4 0.500000 0.500000 0.000000
Si Si5 0.500000 0.500000 0.500000
Si Si6 0.631501 0.678011 0.702930
O O1 0.237571 0.090446 0.343224
O O2 0.940437 0.042147 0.372022
O O3 0.971862 0.129571 0.231228
O O4 0.098892 0.039537 0.110877
O O5 0.370634 0.819924 0.736023
O O6 0.532005 0.731404 0.726871
O O7 0.692317 0.814757 0.794015
O O8 0.500000 0.775537 0.000000
O O9 0.500000 0.866039 0.500000
O O10 0.191834 0.832610 0.472735
#
# Coordination Sequence:
#
# PCOD9323749 Si02
#       6
#     8   8   8   2   2   8
#     4  11  22  42  67  92 123 160 219 267 323 376
#     4  10  24  39  61  98 138 164 205 257 330 396
#     4  10  22  41  67  94 128 169 213 262 318 391
#     4  10  28  38  68  96 120 162 220 284 324 384
#     4  10  20  42  66  86 116 158 222 270 300 372
#     4  10  22  40  64  93 128 171 211 256 320 393
#
# _framework density 20.448858000000001
#
# number of rings (size 3 to 8) (size 9 to 14) (size 15 to 20)
#    0.000    1.778    2.222    0.000    4.667   13.333 
#    0.000    0.556    0.000    5.333    0.000    0.000 
#    0.000    0.000    0.000    0.000    0.000    0.000 
#
# Total GULP energy -100300.050924 kJ/mol
# GULP energy per Si atom -5572.225051 kJ/mol
# Density = 2.040232 g / cm^3
# Si number density = 20.448858 Si / 1000 Ang^3
#
#
#
# Elastic Constant Matrix: (Units=GPa)
#
#
# Indices 1 2 3 4 5 6 
#
# 1 80.9883 41.2663 32.7722 0.0000 0.0000 0.0000
# 2 41.2663 114.6523 55.1066 0.0000 0.0000 0.0000
# 3 32.7722 55.1066 135.5291 0.0000 0.0000 0.0000
# 4 0.0000 0.0000 0.0000 46.8653 0.0000 0.0000
# 5 0.0000 0.0000 0.0000 0.0000 12.4481 0.0000
# 6 0.0000 0.0000 0.0000 0.0000 0.0000 -2.2070
#
#
#
# Elastic Compliance Matrix: (Units=1/GPa)
#
#
# Indices 1 2 3 4 5 6 
#
# 1 0.015480 -0.004689 -0.001837 0.000000 0.000000 0.000000
# 2 -0.004689 0.012261 -0.003852 0.000000 0.000000 0.000000
# 3 -0.001837 -0.003852 0.009389 0.000000 0.000000 0.000000
# 4 0.000000 0.000000 0.000000 0.021338 0.000000 0.000000
# 5 0.000000 0.000000 0.000000 0.000000 0.080334 0.000000
# 6 0.000000 0.000000 0.000000 0.000000 0.000000 -0.453105
#
#
# Mechanical properties :
#
#
# Convention : Reuss Voigt Hill
#
# Bulk Modulus (GPa) = 61.06750 65.49555 63.28152
# Shear Modulus (GPa) = -17.35558 24.88957 3.76700
#
# Velocity S-wave (km/s) = -2.91646 3.49257 1.35873
# Velocity P-wave (km/s) = 4.31131 6.95432 5.78575
#
# Compressibility (1/GPa) = 0.01637532
#
# Stress axis : x y z
#
# Youngs Moduli (GPa) = 64.60039 81.56060 106.51155
#
# Poissons Ratio (x) = 0.38242 0.19563
# Poissons Ratio (y) = 0.30290 0.41023
# Poissons Ratio (z) = 0.11865 0.31413
#
# Static dielectric constant tensor:
#      x y z
#    x 1.761030 0.000000 0.000000 
#    y 0.000000 1.715370 0.000000 
#    z 0.000000 0.000000 1.783200 
# 
# From -- ./inp_files/10992.got.cif
#   From: 2010.05.17/outbox.cif.g08.bks.cpg/sg21_6_cif.got.tgz:10992.got - 2010.06.03 23:14:55.
