data_PCOD9323788
_publ_section_title
;
Structure prediction by ZEFSAII (Michael W. Deem and Ramdas Pophale) SiO2 
 PCOD9323788
Probable space group: C 2 2 2
;
_chemical_formula_sum "Si O2"
_cell_formula_units_Z 32
_cell_length_a 8.210519
_cell_length_b 28.183952
_cell_length_c 5.709421
_cell_angle_alpha 90.000000
_cell_angle_beta 90.000000
_cell_angle_gamma 90.000000
_cell_volume 1321.187844
_symmetry_space_group_name_H-M "C 2 2 2"
_symmetry_group_IT_number 21
_symmetry_cell_setting 'orthorhombic'
loop_
_space_group_symop_operation_xyz
x,y,z
-x,-y,z
x,-y,-z
-x,y,-z
1/2+x,1/2+y,z
1/2-x,1/2-y,z
1/2+x,1/2-y,-z
1/2-x,1/2+y,-z
loop_
_atom_site_type_symbol
_atom_site_label
_atom_site_fract_x
_atom_site_fract_y
_atom_site_fract_z
Si Si1 0.500000 0.500000 0.500000
Si Si2 0.250000 0.250000 0.333882
Si Si3 0.267494 0.341779 0.649606
Si Si4 0.000000 0.500000 0.500000
Si Si5 0.500000 0.199036 0.000000
Si Si6 0.000000 0.119622 0.000000
Si Si7 0.252886 0.929082 0.708221
O O1 0.610191 0.465307 0.644838
O O2 0.282869 0.294608 0.498086
O O3 0.394863 0.232419 0.168038
O O4 0.438713 0.350785 0.779888
O O5 0.230742 0.386303 0.478913
O O6 0.121984 0.331967 0.837518
O O7 0.905665 0.463704 0.673946
O O8 0.830464 0.092479 0.940275
#
# Coordination Sequence:
#
# PCOD9323788 Si02
#       7
#     2   4   8   2   4   4   8
#     4  10  20  52  72 108 154 210 260 328 380 456
#     4  12  30  52  78 112 158 202 264 328 390 486
#     4  12  28  49  79 117 159 203 263 326 387 488
#     4  10  28  50  82 112 164 212 268 348 400 444
#     4  12  30  49  80 114 156 212 262 316 415 464
#     4  12  26  48  84 113 162 213 262 313 419 466
#     4  11  25  49  78 114 160 208 265 333 387 479
#
# _framework density 24.220627
#
# number of rings (size 3 to 8) (size 9 to 14) (size 15 to 20)
#    0.000    0.500    2.500    3.000    7.000   15.500 
#    0.000    1.250    0.000    0.000    0.000    0.000 
#    0.000    0.000    0.000    0.000    0.000    0.000 
#
# Total GULP energy -89509.884833 kJ/mol
# GULP energy per Si atom -5594.367802 kJ/mol
# Density = 2.416550 g / cm^3
# Si number density = 24.220627 Si / 1000 Ang^3
#
#
#
# Elastic Constant Matrix: (Units=GPa)
#
#
# Indices 1 2 3 4 5 6 
#
# 1 117.7058 64.6857 40.4904 0.0000 0.0000 0.0000
# 2 64.6857 201.8096 72.6950 0.0000 0.0000 0.0000
# 3 40.4904 72.6950 99.9180 0.0000 0.0000 0.0000
# 4 0.0000 0.0000 0.0000 25.2159 0.0000 0.0000
# 5 0.0000 0.0000 0.0000 0.0000 56.4189 0.0000
# 6 0.0000 0.0000 0.0000 0.0000 0.0000 190.0035
#
#
#
# Elastic Compliance Matrix: (Units=1/GPa)
#
#
# Indices 1 2 3 4 5 6 
#
# 1 0.010757 -0.002545 -0.002508 0.000000 0.000000 0.000000
# 2 -0.002545 0.007317 -0.004292 0.000000 0.000000 0.000000
# 3 -0.002508 -0.004292 0.014147 0.000000 0.000000 0.000000
# 4 0.000000 0.000000 0.000000 0.039658 0.000000 0.000000
# 5 0.000000 0.000000 0.000000 0.000000 0.017725 0.000000
# 6 0.000000 0.000000 0.000000 0.000000 0.000000 0.005263
#
#
# Mechanical properties :
#
#
# Convention : Reuss Voigt Hill
#
# Bulk Modulus (GPa) = 73.89976 86.13060 80.01518
# Shear Modulus (GPa) = 42.34926 70.43180 56.39053
#
# Velocity S-wave (km/s) = 4.18602 5.39837 4.83038
# Velocity P-wave (km/s) = 7.34445 8.63102 8.01360
#
# Compressibility (1/GPa) = 0.01353184
#
# Stress axis : x y z
#
# Youngs Moduli (GPa) = 92.96470 136.67006 70.68501
#
# Poissons Ratio (x) = 0.34776 0.17726
# Poissons Ratio (y) = 0.23655 0.30340
# Poissons Ratio (z) = 0.23314 0.58662
#
# Static dielectric constant tensor:
#      x y z
#    x 1.965680 0.000000 0.000000 
#    y 0.000000 1.784480 0.000000 
#    z 0.000000 0.000000 1.565220 
# 
# From -- ./inp_files/1667.got.cif
#   From: 2010.05.17/outbox.cif.g08.bks.cpg/sg21_1_cif.got.tgz:1667.got - 2010.06.03 23:14:55.
