data_PCOD9323658
_publ_section_title
;
Structure prediction by ZEFSAII (Michael W. Deem and Ramdas Pophale) SiO2 
 PCOD9323658
Probable space group: C 2 2 2
;
_chemical_formula_sum "Si O2"
_cell_formula_units_Z 30
_cell_length_a 19.610864
_cell_length_b 8.045319
_cell_length_c 9.122807
_cell_angle_alpha 90.000000
_cell_angle_beta 90.000000
_cell_angle_gamma 90.000000
_cell_volume 1439.356866
_symmetry_space_group_name_H-M "C 2 2 2"
_symmetry_group_IT_number 21
_symmetry_cell_setting 'orthorhombic'
loop_
_space_group_symop_operation_xyz
x,y,z
-x,-y,z
x,-y,-z
-x,y,-z
1/2+x,1/2+y,z
1/2-x,1/2-y,z
1/2+x,1/2-y,-z
1/2-x,1/2+y,-z
loop_
_atom_site_type_symbol
_atom_site_label
_atom_site_fract_x
_atom_site_fract_y
_atom_site_fract_z
Si Si1 0.277835 0.435796 0.841884
Si Si2 0.750000 0.750000 0.372361
Si Si3 0.898357 0.248103 0.529115
Si Si4 0.000000 0.500000 0.500000
Si Si5 0.072847 0.945429 0.252388
O O1 0.250000 0.250000 0.810854
O O2 0.259044 0.582449 0.725972
O O3 0.360459 0.424183 0.845402
O O4 0.252865 0.500000 0.000000
O O5 0.817831 0.724506 0.468219
O O6 0.926646 0.208434 0.366872
O O7 0.945479 0.393264 0.590512
O O8 0.910664 0.094505 0.635414
O O9 0.000000 0.000000 0.187047
#
# Coordination Sequence:
#
# PCOD9323658 Si02
#       5
#     8   4   8   2   8
#     4  11  24  42  64  88 120 168 215 264 306 362
#     4  10  24  40  60  92 128 158 212 254 316 376
#     4  10  21  35  58  90 128 160 195 251 314 382
#     4  12  20  30  60  92 130 156 192 248 312 380
#     4  10  20  40  59  86 123 165 201 248 315 382
#
# _framework density 20.842642000000001
#
# number of rings (size 3 to 8) (size 9 to 14) (size 15 to 20)
#    0.000    1.600    4.000    0.800    5.600    2.667 
#    0.000    0.000    0.000    0.000    0.000    0.000 
#    0.000    0.000    0.000    0.000    0.000    0.000 
#
# Total GULP energy -83568.856435 kJ/mol
# GULP energy per Si atom -5571.257096 kJ/mol
# Density = 2.079520 g / cm^3
# Si number density = 20.842642 Si / 1000 Ang^3
#
#
#
# Elastic Constant Matrix: (Units=GPa)
#
#
# Indices 1 2 3 4 5 6 
#
# 1 196.8560 58.2864 19.4304 0.0000 0.0000 0.0000
# 2 58.2864 128.9049 23.9879 0.0000 0.0000 0.0000
# 3 19.4304 23.9879 44.4333 0.0000 0.0000 0.0000
# 4 0.0000 0.0000 0.0000 9.3609 0.0000 0.0000
# 5 0.0000 0.0000 0.0000 0.0000 11.3452 0.0000
# 6 0.0000 0.0000 0.0000 0.0000 0.0000 34.3668
#
#
#
# Elastic Compliance Matrix: (Units=1/GPa)
#
#
# Indices 1 2 3 4 5 6 
#
# 1 0.005929 -0.002444 -0.001273 0.000000 0.000000 0.000000
# 2 -0.002444 0.009631 -0.004131 0.000000 0.000000 0.000000
# 3 -0.001273 -0.004131 0.025293 0.000000 0.000000 0.000000
# 4 0.000000 0.000000 0.000000 0.106827 0.000000 0.000000
# 5 0.000000 0.000000 0.000000 0.000000 0.088143 0.000000
# 6 0.000000 0.000000 0.000000 0.000000 0.000000 0.029098
#
#
# Mechanical properties :
#
#
# Convention : Reuss Voigt Hill
#
# Bulk Modulus (GPa) = 39.75092 63.73374 51.74233
# Shear Modulus (GPa) = 17.30083 28.91387 23.10735
#
# Velocity S-wave (km/s) = 2.88422 3.72862 3.33326
# Velocity P-wave (km/s) = 5.49590 7.01297 6.30026
#
# Compressibility (1/GPa) = 0.02515665
#
# Stress axis : x y z
#
# Youngs Moduli (GPa) = 168.65737 103.82616 39.53725
#
# Poissons Ratio (x) = 0.25375 0.05035
# Poissons Ratio (y) = 0.41220 0.16333
# Poissons Ratio (z) = 0.21476 0.42890
#
# Static dielectric constant tensor:
#      x y z
#    x 1.793910 0.000000 0.000000 
#    y 0.000000 2.070690 0.000000 
#    z 0.000000 0.000000 1.742430 
# 
# From -- ./inp_files/10345.got.cif
#   From: 2010.05.17/outbox.cif.g08.bks.cpg/sg21_6_cif.got.tgz:10345.got - 2010.06.03 23:14:55.
