data_PCOD9323086
_publ_section_title
;
Structure prediction by ZEFSAII (Michael W. Deem and Ramdas Pophale) SiO2 
 PCOD9323086
Probable space group: C 2 2 2
;
_chemical_formula_sum "Si O2"
_cell_formula_units_Z 64
_cell_length_a 10.799410
_cell_length_b 27.901522
_cell_length_c 9.152053
_cell_angle_alpha 90.000000
_cell_angle_beta 90.000000
_cell_angle_gamma 90.000000
_cell_volume 2757.696388
_symmetry_space_group_name_H-M "C 2 2 2"
_symmetry_group_IT_number 21
_symmetry_cell_setting 'orthorhombic'
loop_
_space_group_symop_operation_xyz
x,y,z
-x,-y,z
x,-y,-z
-x,y,-z
1/2+x,1/2+y,z
1/2-x,1/2-y,z
1/2+x,1/2-y,-z
1/2-x,1/2+y,-z
loop_
_atom_site_type_symbol
_atom_site_label
_atom_site_fract_x
_atom_site_fract_y
_atom_site_fract_z
Si Si1 0.210458 0.801449 0.938418
Si Si2 0.194398 0.369803 0.463831
Si Si3 0.237834 0.482592 0.159126
Si Si4 0.664507 0.915693 0.771995
Si Si5 0.626926 0.543057 0.414175
Si Si6 0.573920 0.374841 0.138342
Si Si7 0.585200 0.684120 0.364751
Si Si8 0.408733 0.881708 0.840807
O O1 0.250000 0.750000 0.993533
O O2 0.133934 0.792202 0.787036
O O3 0.323550 0.838635 0.905670
O O4 0.128788 0.827198 0.061447
O O5 0.152299 0.388129 0.619282
O O6 0.292530 0.410663 0.421744
O O7 0.285217 0.324899 0.450204
O O8 0.098269 0.368636 0.332981
O O9 0.157286 0.526433 0.228770
O O10 0.363686 0.473530 0.248711
O O11 0.162262 0.432856 0.147296
O O12 0.266828 0.500000 0.000000
O O13 0.805886 0.905162 0.819218
O O14 0.554592 0.892615 0.869409
O O15 0.693050 0.500000 0.500000
O O16 0.500000 0.549301 0.500000
O O17 0.493314 0.359640 0.281569
O O18 0.500000 0.397058 0.000000
O O19 0.500000 0.702177 0.500000
#
# Coordination Sequence:
#
# PCOD9323086 Si02
#       8
#     8   8   8   8   8   8   8   8
#     4  10  23  47  69  96 136 176 226 294 356 418
#     4  10  20  37  65  96 133 176 226 278 338 397
#     4  11  24  41  61  98 140 181 230 284 344 405
#     4  12  22  40  66 102 139 187 227 278 345 414
#     4  10  20  36  57  87 124 177 234 269 319 402
#     4  10  23  41  67 101 136 179 227 270 348 421
#     4  10  19  40  69  97 131 176 214 285 350 401
#     4  10  24  42  67  98 136 179 234 286 344 422
#
# _framework density 23.207777
#
# number of rings (size 3 to 8) (size 9 to 14) (size 15 to 20)
#    0.000    1.625    2.500    1.875    0.000    3.500 
#    6.750    5.625    0.000    3.750    0.000    0.000 
#    0.000    0.000    0.000    0.000    0.000    0.000 
#
# Total GULP energy -178284.679067 kJ/mol
# GULP energy per Si atom -5571.396221 kJ/mol
# Density = 2.315496 g / cm^3
# Si number density = 23.207777 Si / 1000 Ang^3
#
#
#
# Elastic Constant Matrix: (Units=GPa)
#
#
# Indices 1 2 3 4 5 6 
#
# 1 130.4441 29.9522 28.6913 0.0000 0.0000 0.0000
# 2 29.9522 71.0336 10.0499 0.0000 0.0000 0.0000
# 3 28.6913 10.0499 96.7133 0.0000 0.0000 0.0000
# 4 0.0000 0.0000 0.0000 15.3128 0.0000 0.0000
# 5 0.0000 0.0000 0.0000 0.0000 83.6004 0.0000
# 6 0.0000 0.0000 0.0000 0.0000 0.0000 16.0192
#
#
#
# Elastic Compliance Matrix: (Units=1/GPa)
#
#
# Indices 1 2 3 4 5 6 
#
# 1 0.008965 -0.003455 -0.002301 0.000000 0.000000 0.000000
# 2 -0.003455 0.015619 -0.000598 0.000000 0.000000 0.000000
# 3 -0.002301 -0.000598 0.011085 0.000000 0.000000 0.000000
# 4 0.000000 0.000000 0.000000 0.065305 0.000000 0.000000
# 5 0.000000 0.000000 0.000000 0.000000 0.011962 0.000000
# 6 0.000000 0.000000 0.000000 0.000000 0.000000 0.062425
#
#
# Mechanical properties :
#
#
# Convention : Reuss Voigt Hill
#
# Bulk Modulus (GPa) = 43.55059 48.39753 45.97406
# Shear Modulus (GPa) = 25.54639 38.28631 31.91635
#
# Velocity S-wave (km/s) = 3.32138 4.06608 3.71245
# Velocity P-wave (km/s) = 5.78922 6.55311 6.18297
#
# Compressibility (1/GPa) = 0.02296180
#
# Stress axis : x y z
#
# Youngs Moduli (GPa) = 111.53909 64.02346 90.21585
#
# Poissons Ratio (x) = 0.22119 0.20756
# Poissons Ratio (y) = 0.38536 0.05396
# Poissons Ratio (z) = 0.25662 0.03829
#
# Static dielectric constant tensor:
#      x y z
#    x 1.955520 0.000000 0.000000 
#    y 0.000000 1.682720 0.000000 
#    z 0.000000 0.000000 1.951590 
# 
# From -- ./inp_files/17948.got.cif
#   From: 2010.05.17/outbox.cif.g08.bks.cpg/sg21_9_cif.got.tgz:17948.got - 2010.06.03 23:14:55.
