data_PCOD9323214
_publ_section_title
;
Structure prediction by ZEFSAII (Michael W. Deem and Ramdas Pophale) SiO2 
 PCOD9323214
Probable space group: C 2 2 2
;
_chemical_formula_sum "Si O2"
_cell_formula_units_Z 40
_cell_length_a 13.117434
_cell_length_b 13.035065
_cell_length_c 12.313805
_cell_angle_alpha 90.000000
_cell_angle_beta 90.000000
_cell_angle_gamma 90.000000
_cell_volume 2105.495709
_symmetry_space_group_name_H-M "C 2 2 2"
_symmetry_group_IT_number 21
_symmetry_cell_setting 'orthorhombic'
loop_
_space_group_symop_operation_xyz
x,y,z
-x,-y,z
x,-y,-z
-x,y,-z
1/2+x,1/2+y,z
1/2-x,1/2-y,z
1/2+x,1/2-y,-z
1/2-x,1/2+y,-z
loop_
_atom_site_type_symbol
_atom_site_label
_atom_site_fract_x
_atom_site_fract_y
_atom_site_fract_z
Si Si1 0.250473 0.000000 0.500000
Si Si2 0.114265 0.479525 0.292589
Si Si3 0.912677 0.627811 0.908924
Si Si4 0.250000 0.750000 0.962329
Si Si5 0.582028 0.246672 0.791211
Si Si6 0.062631 0.107744 0.408345
O O1 0.314287 0.017873 0.609905
O O2 0.172331 0.912295 0.538768
O O3 0.116897 0.540553 0.177860
O O4 0.125418 0.359412 0.261564
O O5 0.000000 0.500000 0.333069
O O6 0.972767 0.715447 0.841468
O O7 0.809907 0.667084 0.965429
O O8 0.000000 0.603254 0.000000
O O9 0.340735 0.713819 0.883184
O O10 0.570510 0.331383 0.700885
O O11 0.000000 0.167831 0.500000
O O12 0.000000 0.000000 0.391286
#
# Coordination Sequence:
#
# PCOD9323214 Si02
#       6
#     4   8   8   4   8   8
#     4  10  20  36  56  82 112 144 190 236 280 338
#     4  10  21  36  57  84 116 148 185 237 291 342
#     4   9  21  38  57  83 115 149 188 236 290 344
#     4  10  20  34  56  84 112 148 194 236 286 344
#     4  10  20  37  58  82 114 150 188 235 288 342
#     4   9  21  39  57  79 113 152 189 232 285 342
#
# _framework density 18.997903000000001
#
# number of rings (size 3 to 8) (size 9 to 14) (size 15 to 20)
#    0.000    2.600    0.000    1.500    0.000   15.600 
#    0.000    6.000    0.000    4.200    0.000    0.000 
#    0.000    0.000    0.000    0.000    0.000    0.000 
#
# Total GULP energy -111368.583358 kJ/mol
# GULP energy per Si atom -5568.429168 kJ/mol
# Density = 1.895466 g / cm^3
# Si number density = 18.997903 Si / 1000 Ang^3
#
#
#
# Elastic Constant Matrix: (Units=GPa)
#
#
# Indices 1 2 3 4 5 6 
#
# 1 103.1345 45.2099 64.7745 0.0000 0.0000 0.0000
# 2 45.2099 72.9104 68.0037 0.0000 0.0000 0.0000
# 3 64.7745 68.0037 155.9925 0.0000 0.0000 0.0000
# 4 0.0000 0.0000 0.0000 36.6822 0.0000 0.0000
# 5 0.0000 0.0000 0.0000 0.0000 30.0840 0.0000
# 6 0.0000 0.0000 0.0000 0.0000 0.0000 2.4835
#
#
#
# Elastic Compliance Matrix: (Units=1/GPa)
#
#
# Indices 1 2 3 4 5 6 
#
# 1 0.014372 -0.005638 -0.003510 0.000000 0.000000 0.000000
# 2 -0.005638 0.025325 -0.008699 0.000000 0.000000 0.000000
# 3 -0.003510 -0.008699 0.011660 0.000000 0.000000 0.000000
# 4 0.000000 0.000000 0.000000 0.027261 0.000000 0.000000
# 5 0.000000 0.000000 0.000000 0.000000 0.033240 0.000000
# 6 0.000000 0.000000 0.000000 0.000000 0.000000 0.402654
#
#
# Mechanical properties :
#
#
# Convention : Reuss Voigt Hill
#
# Bulk Modulus (GPa) = 63.84354 76.44595 70.14474
# Shear Modulus (GPa) = 9.00206 24.11992 16.56099
#
# Velocity S-wave (km/s) = 2.17916 3.56702 2.95571
# Velocity P-wave (km/s) = 6.32536 7.56911 6.97501
#
# Compressibility (1/GPa) = 0.01566329
#
# Stress axis : x y z
#
# Youngs Moduli (GPa) = 69.57971 39.48644 85.76002
#
# Poissons Ratio (x) = 0.22262 0.30102
# Poissons Ratio (y) = 0.39228 0.74605
# Poissons Ratio (z) = 0.24423 0.34350
#
# Static dielectric constant tensor:
#      x y z
#    x 1.687970 0.000000 0.000000 
#    y 0.000000 1.681860 0.000000 
#    z 0.000000 0.000000 1.681670 
# 
# From -- ./inp_files/23864.got.cif
#   From: 2010.05.17/outbox.cif.g08.bks.cpg/sg21_12_cif.got.tgz:23864.got - 2010.06.03 23:14:55.
