data_PCOD9323281
_publ_section_title
;
Structure prediction by ZEFSAII (Michael W. Deem and Ramdas Pophale) SiO2 
 PCOD9323281
Probable space group: C 2 2 2
;
_chemical_formula_sum "Si O2"
_cell_formula_units_Z 52
_cell_length_a 7.130176
_cell_length_b 22.513540
_cell_length_c 14.894704
_cell_angle_alpha 90.000000
_cell_angle_beta 90.000000
_cell_angle_gamma 90.000000
_cell_volume 2390.979845
_symmetry_space_group_name_H-M "C 2 2 2"
_symmetry_group_IT_number 21
_symmetry_cell_setting 'orthorhombic'
loop_
_space_group_symop_operation_xyz
x,y,z
-x,-y,z
x,-y,-z
-x,y,-z
1/2+x,1/2+y,z
1/2-x,1/2-y,z
1/2+x,1/2-y,-z
1/2-x,1/2+y,-z
loop_
_atom_site_type_symbol
_atom_site_label
_atom_site_fract_x
_atom_site_fract_y
_atom_site_fract_z
Si Si1 0.721954 0.509436 0.396799
Si Si2 0.790600 0.387252 0.322990
Si Si3 0.293076 0.819669 0.868904
Si Si4 0.500000 0.336348 0.000000
Si Si5 0.716506 0.857282 0.328685
Si Si6 0.721016 0.816028 0.514066
Si Si7 0.232468 0.686229 0.161379
O O1 0.500000 0.500000 0.397175
O O2 0.787836 0.500000 0.500000
O O3 0.808136 0.457292 0.335917
O O4 0.751832 0.574387 0.356343
O O5 0.699777 0.363230 0.415244
O O6 0.704416 0.365448 0.229908
O O7 0.990667 0.354306 0.321715
O O8 0.250000 0.750000 0.888349
O O9 0.223127 0.834801 0.768401
O O10 0.519112 0.826451 0.871288
O O11 0.172803 0.859996 0.937979
O O12 0.626346 0.307205 0.078059
O O13 0.796120 0.820542 0.412628
O O14 0.500000 0.828743 0.500000
O O15 0.750000 0.750000 0.548640
O O16 0.250000 0.750000 0.209976
#
# Coordination Sequence:
#
# PCOD9323281 Si02
#       7
#     8   8   8   4   8   8   8
#     4  11  23  37  61  91 120 163 214 254 296 354
#     4  10  22  39  59  87 122 163 205 248 298 368
#     4  11  23  38  62  95 127 162 209 251 318 378
#     4  12  24  40  66  89 128 163 200 276 314 372
#     4  10  22  39  59  87 122 163 205 248 298 368
#     4  10  20  35  56  83 123 166 194 234 303 358
#     4  11  23  38  62  95 127 162 209 251 318 378
#
# _framework density 21.748405000000002
#
# number of rings (size 3 to 8) (size 9 to 14) (size 15 to 20)
#    0.000    1.385    3.077    2.308    2.154    1.846 
#    0.000    0.000    0.000    1.846    0.000    4.308 
#    0.000    0.000    0.000    0.000    0.000    0.000 
#
# Total GULP energy -144965.771294 kJ/mol
# GULP energy per Si atom -5575.606588 kJ/mol
# Density = 2.169890 g / cm^3
# Si number density = 21.748405 Si / 1000 Ang^3
#
#
#
# Elastic Constant Matrix: (Units=GPa)
#
#
# Indices 1 2 3 4 5 6 
#
# 1 114.9132 -18.8060 13.4678 0.0000 0.0000 0.0000
# 2 -18.8060 82.2129 29.9884 0.0000 0.0000 0.0000
# 3 13.4678 29.9884 123.1451 0.0000 0.0000 0.0000
# 4 0.0000 0.0000 0.0000 11.6745 0.0000 0.0000
# 5 0.0000 0.0000 0.0000 0.0000 7.1965 0.0000
# 6 0.0000 0.0000 0.0000 0.0000 0.0000 21.1077
#
#
#
# Elastic Compliance Matrix: (Units=1/GPa)
#
#
# Indices 1 2 3 4 5 6 
#
# 1 0.009352 0.002757 -0.001694 0.000000 0.000000 0.000000
# 2 0.002757 0.014162 -0.003750 0.000000 0.000000 0.000000
# 3 -0.001694 -0.003750 0.009219 0.000000 0.000000 0.000000
# 4 0.000000 0.000000 0.000000 0.085657 0.000000 0.000000
# 5 0.000000 0.000000 0.000000 0.000000 0.138956 0.000000
# 6 0.000000 0.000000 0.000000 0.000000 0.000000 0.047376
#
#
# Mechanical properties :
#
#
# Convention : Reuss Voigt Hill
#
# Bulk Modulus (GPa) = 36.55148 41.06351 38.80749
# Shear Modulus (GPa) = 15.66334 27.70381 21.68358
#
# Velocity S-wave (km/s) = 2.68658 3.57295 3.16099
# Velocity P-wave (km/s) = 5.14457 5.99529 5.58615
#
# Compressibility (1/GPa) = 0.02735867
#
# Stress axis : x y z
#
# Youngs Moduli (GPa) = 106.92880 70.61027 108.47067
#
# Poissons Ratio (x) = -0.19469 0.18377
# Poissons Ratio (y) = -0.29483 0.40680
# Poissons Ratio (z) = 0.18116 0.26481
#
# Static dielectric constant tensor:
#      x y z
#    x 1.898290 0.000000 0.000000 
#    y 0.000000 1.751090 0.000000 
#    z 0.000000 0.000000 1.860640 
# 
# From -- ./inp_files/30837.got.cif
#   From: 2010.05.17/outbox.cif.g08.bks.cpg/sg21_16_cif.got.tgz:30837.got - 2010.06.03 23:14:55.
