data_PCOD9323145
_publ_section_title
;
Structure prediction by ZEFSAII (Michael W. Deem and Ramdas Pophale) SiO2 
 PCOD9323145
Probable space group: C 2 2 2
;
_chemical_formula_sum "Si O2"
_cell_formula_units_Z 60
_cell_length_a 11.978641
_cell_length_b 18.556258
_cell_length_c 13.633895
_cell_angle_alpha 90.000000
_cell_angle_beta 90.000000
_cell_angle_gamma 90.000000
_cell_volume 3030.525178
_symmetry_space_group_name_H-M "C 2 2 2"
_symmetry_group_IT_number 21
_symmetry_cell_setting 'orthorhombic'
loop_
_space_group_symop_operation_xyz
x,y,z
-x,-y,z
x,-y,-z
-x,y,-z
1/2+x,1/2+y,z
1/2-x,1/2-y,z
1/2+x,1/2-y,-z
1/2-x,1/2+y,-z
loop_
_atom_site_type_symbol
_atom_site_label
_atom_site_fract_x
_atom_site_fract_y
_atom_site_fract_z
Si Si1 0.083045 0.653395 0.189784
Si Si2 0.560654 0.569830 0.604793
Si Si3 0.729124 0.541906 0.745516
Si Si4 0.943588 0.894159 0.897343
Si Si5 0.836094 0.397145 0.821283
Si Si6 0.769289 0.327911 0.007872
Si Si7 0.515806 0.701208 0.272349
Si Si8 0.750000 0.750000 0.277432
O O1 0.181491 0.604959 0.234555
O O2 0.128036 0.675421 0.082879
O O3 0.969925 0.607116 0.181873
O O4 0.052281 0.726559 0.247525
O O5 0.500000 0.500000 0.650901
O O6 0.500000 0.575476 0.500000
O O7 0.686901 0.549220 0.633258
O O8 0.545089 0.645730 0.657217
O O9 0.624968 0.552537 0.823488
O O10 0.785098 0.465657 0.767877
O O11 0.843016 0.843576 0.933461
O O12 0.026011 0.845401 0.829585
O O13 0.000000 0.919387 0.000000
O O14 0.793647 0.322031 0.775988
O O15 0.793795 0.391791 0.932739
O O16 0.750000 0.250000 0.959895
O O17 0.633717 0.721436 0.321570
#
# Coordination Sequence:
#
# PCOD9323145 Si02
#       8
#     8   8   8   8   8   8   8   4
#     4  10  22  36  60  90 124 175 214 265 317 391
#     4  10  22  42  68  93 119 154 200 264 343 403
#     4  10  23  41  60  86 123 164 212 269 320 397
#     4  10  21  33  54  78 116 161 211 259 312 362
#     4  11  21  36  56  84 126 172 227 265 313 373
#     4  11  20  33  53  80 123 176 228 261 308 363
#     4  10  20  37  59  86 121 158 210 258 317 396
#     4  10  20  32  54  82 112 158 200 262 316 368
#
# _framework density 19.798548
#
# number of rings (size 3 to 8) (size 9 to 14) (size 15 to 20)
#    0.000    1.733    2.000    2.400    1.867    3.200 
#    0.000    8.667    0.000    0.000    0.000   11.200 
#    0.000    0.000    0.000    0.000    0.000    0.000 
#
# Total GULP energy -167027.170941 kJ/mol
# GULP energy per Si atom -5567.572365 kJ/mol
# Density = 1.975349 g / cm^3
# Si number density = 19.798548 Si / 1000 Ang^3
#
#
#
# Elastic Constant Matrix: (Units=GPa)
#
#
# Indices 1 2 3 4 5 6 
#
# 1 102.4577 40.0293 30.5852 0.0000 0.0000 0.0000
# 2 40.0293 101.1418 35.4654 0.0000 0.0000 0.0000
# 3 30.5852 35.4654 73.4933 0.0000 0.0000 0.0000
# 4 0.0000 0.0000 0.0000 11.1522 0.0000 0.0000
# 5 0.0000 0.0000 0.0000 0.0000 20.6882 0.0000
# 6 0.0000 0.0000 0.0000 0.0000 0.0000 28.7651
#
#
#
# Elastic Compliance Matrix: (Units=1/GPa)
#
#
# Indices 1 2 3 4 5 6 
#
# 1 0.012176 -0.003662 -0.003300 0.000000 0.000000 0.000000
# 2 -0.003662 0.013002 -0.004750 0.000000 0.000000 0.000000
# 3 -0.003300 -0.004750 0.017273 0.000000 0.000000 0.000000
# 4 0.000000 0.000000 0.000000 0.089668 0.000000 0.000000
# 5 0.000000 0.000000 0.000000 0.000000 0.048337 0.000000
# 6 0.000000 0.000000 0.000000 0.000000 0.000000 0.034764
#
#
# Mechanical properties :
#
#
# Convention : Reuss Voigt Hill
#
# Bulk Modulus (GPa) = 52.56024 54.36139 53.46082
# Shear Modulus (GPa) = 20.40931 23.52196 21.96564
#
# Velocity S-wave (km/s) = 3.21417 3.45057 3.33446
# Velocity P-wave (km/s) = 6.35450 6.58727 6.47193
#
# Compressibility (1/GPa) = 0.01902579
#
# Stress axis : x y z
#
# Youngs Moduli (GPa) = 82.12967 76.91078 57.89548
#
# Poissons Ratio (x) = 0.28162 0.19106
# Poissons Ratio (y) = 0.30073 0.27503
# Poissons Ratio (z) = 0.27104 0.36536
#
# Static dielectric constant tensor:
#      x y z
#    x 1.746890 0.000000 0.000000 
#    y 0.000000 1.895590 0.000000 
#    z 0.000000 0.000000 1.733620 
# 
# From -- ./inp_files/31715.got.cif
#   From: 2010.05.17/outbox.cif.g08.bks.cpg/sg21_16_cif.got.tgz:31715.got - 2010.06.03 23:14:55.
