data_PCOD9323970
_publ_section_title
;
Structure prediction by ZEFSAII (Michael W. Deem and Ramdas Pophale) SiO2 
 PCOD9323970
Probable space group: C 2 2 2
;
_chemical_formula_sum "Si O2"
_cell_formula_units_Z 28
_cell_length_a 22.408438
_cell_length_b 5.055351
_cell_length_c 13.343998
_cell_angle_alpha 90.000000
_cell_angle_beta 90.000000
_cell_angle_gamma 90.000000
_cell_volume 1511.641713
_symmetry_space_group_name_H-M "C 2 2 2"
_symmetry_group_IT_number 21
_symmetry_cell_setting 'orthorhombic'
loop_
_space_group_symop_operation_xyz
x,y,z
-x,-y,z
x,-y,-z
-x,y,-z
1/2+x,1/2+y,z
1/2-x,1/2-y,z
1/2+x,1/2-y,-z
1/2-x,1/2+y,-z
loop_
_atom_site_type_symbol
_atom_site_label
_atom_site_fract_x
_atom_site_fract_y
_atom_site_fract_z
Si Si1 0.136161 0.922970 0.808433
Si Si2 0.750000 0.750000 0.064454
Si Si3 0.792968 0.998822 0.615173
Si Si4 0.430179 0.064469 0.883676
O O1 0.197337 0.880720 0.870586
O O2 0.104823 0.640237 0.814102
O O3 0.155211 0.000615 0.696794
O O4 0.093160 0.142525 0.858028
O O5 0.773474 0.500000 0.000000
O O6 0.750000 0.750000 0.630258
O O7 0.814343 0.000000 0.500000
O O8 0.750000 0.250000 0.630166
O O9 0.500000 0.000000 0.870137
O O10 0.416875 0.000000 0.000000
#
# Coordination Sequence:
#
# PCOD9323970 Si02
#       4
#     8   4   8   8
#     4  12  22  38  61  85 119 153 192 244 291 347
#     4  12  24  34  54  90 128 152 182 236 310 360
#     4  10  21  38  59  86 118 151 189 231 290 361
#     4  11  24  41  59  82 115 162 207 236 275 341
#
# _framework density 18.522908000000001
#
# number of rings (size 3 to 8) (size 9 to 14) (size 15 to 20)
#    0.000    0.857    1.429    7.714    2.000    2.286 
#    0.000    0.000    0.000    5.143    0.000    0.000 
#    0.000    0.000    0.000    0.000    0.000    0.000 
#
# Total GULP energy -78255.764443 kJ/mol
# GULP energy per Si atom -5589.697460 kJ/mol
# Density = 1.848075 g / cm^3
# Si number density = 18.522908 Si / 1000 Ang^3
#
#
#
# Elastic Constant Matrix: (Units=GPa)
#
#
# Indices 1 2 3 4 5 6 
#
# 1 84.0578 7.0547 24.4955 0.0000 0.0000 0.0000
# 2 7.0547 102.7292 4.7355 0.0000 0.0000 0.0000
# 3 24.4955 4.7355 87.6000 0.0000 0.0000 0.0000
# 4 0.0000 0.0000 0.0000 30.0872 0.0000 0.0000
# 5 0.0000 0.0000 0.0000 0.0000 32.2701 0.0000
# 6 0.0000 0.0000 0.0000 0.0000 0.0000 27.8998
#
#
#
# Elastic Compliance Matrix: (Units=1/GPa)
#
#
# Indices 1 2 3 4 5 6 
#
# 1 0.013006 -0.000727 -0.003598 0.000000 0.000000 0.000000
# 2 -0.000727 0.009799 -0.000326 0.000000 0.000000 0.000000
# 3 -0.003598 -0.000326 0.012439 0.000000 0.000000 0.000000
# 4 0.000000 0.000000 0.000000 0.033237 0.000000 0.000000
# 5 0.000000 0.000000 0.000000 0.000000 0.030988 0.000000
# 6 0.000000 0.000000 0.000000 0.000000 0.000000 0.035843
#
#
# Mechanical properties :
#
#
# Convention : Reuss Voigt Hill
#
# Bulk Modulus (GPa) = 38.54749 38.55094 38.54921
# Shear Modulus (GPa) = 32.62388 33.92483 33.27436
#
# Velocity S-wave (km/s) = 4.20130 4.28425 4.24298
# Velocity P-wave (km/s) = 6.66262 6.73282 6.69781
#
# Compressibility (1/GPa) = 0.02594203
#
# Stress axis : x y z
#
# Youngs Moduli (GPa) = 76.88766 102.04792 80.39144
#
# Poissons Ratio (x) = 0.07422 0.28921
# Poissons Ratio (y) = 0.05592 0.02624
# Poissons Ratio (z) = 0.27661 0.03330
#
# Static dielectric constant tensor:
#      x y z
#    x 1.659220 0.000000 0.000000 
#    y 0.000000 1.570390 0.000000 
#    z 0.000000 0.000000 1.658050 
# 
# From -- ./inp_files/26396.got.cif
#   From: 2010.05.17/outbox.cif.g08.bks.cpg/sg21_14_cif.got.tgz:26396.got - 2010.06.03 23:14:55.
