data_PCOD9323865
_publ_section_title
;
Structure prediction by ZEFSAII (Michael W. Deem and Ramdas Pophale) SiO2 
 PCOD9323865
Probable space group: C 2 2 2
;
_chemical_formula_sum "Si O2"
_cell_formula_units_Z 32
_cell_length_a 9.594023
_cell_length_b 26.379633
_cell_length_c 5.342154
_cell_angle_alpha 90.000000
_cell_angle_beta 90.000000
_cell_angle_gamma 90.000000
_cell_volume 1352.028692
_symmetry_space_group_name_H-M "C 2 2 2"
_symmetry_group_IT_number 21
_symmetry_cell_setting 'orthorhombic'
loop_
_space_group_symop_operation_xyz
x,y,z
-x,-y,z
x,-y,-z
-x,y,-z
1/2+x,1/2+y,z
1/2-x,1/2-y,z
1/2+x,1/2-y,-z
1/2-x,1/2+y,-z
loop_
_atom_site_type_symbol
_atom_site_label
_atom_site_fract_x
_atom_site_fract_y
_atom_site_fract_z
Si Si1 0.160106 0.590568 0.017882
Si Si2 0.224763 0.810586 0.895754
Si Si3 0.165276 0.939094 0.518660
Si Si4 0.865604 0.791423 0.605952
O O1 0.154515 0.651933 0.979740
O O2 0.239006 0.579048 0.280610
O O3 0.256637 0.572125 0.784933
O O4 0.000000 0.571356 0.000000
O O5 0.250000 0.750000 0.863666
O O6 0.120244 0.816404 0.127823
O O7 0.175634 0.827238 0.621452
O O8 0.000000 0.922631 0.500000
O O9 0.161541 0.000000 0.500000
O O10 0.750000 0.750000 0.647269
O O11 0.000000 0.763818 0.500000
#
# Coordination Sequence:
#
# PCOD9323865 Si02
#       4
#     8   8   8   8
#     4  12  26  44  72 108 141 180 236 294 346 408
#     4  10  23  40  60  89 133 178 219 269 330 395
#     4  11  26  49  75 104 141 183 227 283 357 433
#     4  10  21  36  57  83 116 166 222 274 327 385
#
# _framework density 23.668134999999999
#
# number of rings (size 3 to 8) (size 9 to 14) (size 15 to 20)
#    0.000    1.250    0.000    4.500    0.000   19.000 
#    0.000    0.000    0.000    0.000    0.000    0.000 
#    0.000    0.000    0.000    0.000    0.000    0.000 
#
# Total GULP energy -89115.085184 kJ/mol
# GULP energy per Si atom -5569.692824 kJ/mol
# Density = 2.361426 g / cm^3
# Si number density = 23.668135 Si / 1000 Ang^3
#
#
#
# Elastic Constant Matrix: (Units=GPa)
#
#
# Indices 1 2 3 4 5 6 
#
# 1 193.8740 20.2979 87.2848 0.0000 0.0000 0.0000
# 2 20.2979 80.3652 7.8892 0.0000 0.0000 0.0000
# 3 87.2848 7.8892 252.5516 0.0000 0.0000 0.0000
# 4 0.0000 0.0000 0.0000 24.8008 0.0000 0.0000
# 5 0.0000 0.0000 0.0000 0.0000 32.8494 0.0000
# 6 0.0000 0.0000 0.0000 0.0000 0.0000 18.4478
#
#
#
# Elastic Compliance Matrix: (Units=1/GPa)
#
#
# Indices 1 2 3 4 5 6 
#
# 1 0.006256 -0.001372 -0.002119 0.000000 0.000000 0.000000
# 2 -0.001372 0.012782 0.000075 0.000000 0.000000 0.000000
# 3 -0.002119 0.000075 0.004690 0.000000 0.000000 0.000000
# 4 0.000000 0.000000 0.000000 0.040321 0.000000 0.000000
# 5 0.000000 0.000000 0.000000 0.000000 0.030442 0.000000
# 6 0.000000 0.000000 0.000000 0.000000 0.000000 0.054207
#
#
# Mechanical properties :
#
#
# Convention : Reuss Voigt Hill
#
# Bulk Modulus (GPa) = 59.18854 84.19275 71.69064
# Shear Modulus (GPa) = 31.02463 42.64086 36.83275
#
# Velocity S-wave (km/s) = 3.62445 4.24915 3.94917
# Velocity P-wave (km/s) = 6.52514 7.72807 7.15194
#
# Compressibility (1/GPa) = 0.01689516
#
# Stress axis : x y z
#
# Youngs Moduli (GPa) = 159.85366 78.23277 213.23477
#
# Poissons Ratio (x) = 0.10733 0.45189
# Poissons Ratio (y) = 0.21932 -0.01597
# Poissons Ratio (z) = 0.33876 -0.00586
#
# Static dielectric constant tensor:
#      x y z
#    x 1.966850 0.000000 0.000000 
#    y 0.000000 2.094780 0.000000 
#    z 0.000000 0.000000 1.960900 
# 
# From -- ./inp_files/1459.got.cif
#   From: 2010.05.17/outbox.cif.g08.bks.cpg/sg21_1_cif.got.tgz:1459.got - 2010.06.03 23:14:55.
