data_PCOD9323114
_publ_section_title
;
Structure prediction by ZEFSAII (Michael W. Deem and Ramdas Pophale) SiO2 
 PCOD9323114
Probable space group: C 2 2 2
;
_chemical_formula_sum "Si O2"
_cell_formula_units_Z 32
_cell_length_a 15.139982
_cell_length_b 12.886860
_cell_length_c 7.919619
_cell_angle_alpha 90.000000
_cell_angle_beta 90.000000
_cell_angle_gamma 90.000000
_cell_volume 1545.171746
_symmetry_space_group_name_H-M "C 2 2 2"
_symmetry_group_IT_number 21
_symmetry_cell_setting 'orthorhombic'
loop_
_space_group_symop_operation_xyz
x,y,z
-x,-y,z
x,-y,-z
-x,y,-z
1/2+x,1/2+y,z
1/2-x,1/2-y,z
1/2+x,1/2-y,-z
1/2-x,1/2+y,-z
loop_
_atom_site_type_symbol
_atom_site_label
_atom_site_fract_x
_atom_site_fract_y
_atom_site_fract_z
Si Si1 0.637839 0.135954 0.790406
Si Si2 0.793408 0.500000 0.500000
Si Si3 0.000000 0.000000 0.500000
Si Si4 0.660083 0.355390 0.906166
Si Si5 0.360312 0.572455 0.260137
Si Si6 0.000000 0.500000 0.000000
O O1 0.622700 0.258934 0.801390
O O2 0.734139 0.130991 0.882132
O O3 0.652074 0.083139 0.608583
O O4 0.563778 0.072147 0.888157
O O5 0.729984 0.439296 0.367252
O O6 0.061881 0.923674 0.392757
O O7 0.623663 0.461223 0.829572
O O8 0.642110 0.347435 0.106037
#
# Coordination Sequence:
#
# PCOD9323114 Si02
#       6
#     8   4   2   8   8   2
#     4  10  21  38  60  86 119 160 207 253 309 376
#     4   9  18  38  60  85 120 158 202 259 310 364
#     4  10  20  30  48  86 120 142 184 258 320 330
#     4   9  19  39  63  83 114 169 211 235 304 403
#     4   9  18  35  59  85 118 153 202 264 309 361
#     4  12  24  38  56  90 132 164 204 264 316 364
#
# _framework density 20.709672000000001
#
# number of rings (size 3 to 8) (size 9 to 14) (size 15 to 20)
#    0.000    2.500    0.000    3.000    0.000    4.500 
#    0.000   30.000    0.000    0.000    0.000    0.000 
#    0.000    0.000    0.000    0.000    0.000    0.000 
#
# Total GULP energy -89241.001977 kJ/mol
# GULP energy per Si atom -5577.562624 kJ/mol
# Density = 2.066254 g / cm^3
# Si number density = 20.709672 Si / 1000 Ang^3
#
#
#
# Elastic Constant Matrix: (Units=GPa)
#
#
# Indices 1 2 3 4 5 6 
#
# 1 53.6129 43.4563 37.3786 0.0000 0.0000 0.0000
# 2 43.4563 98.0440 55.6848 0.0000 0.0000 0.0000
# 3 37.3786 55.6848 145.5810 0.0000 0.0000 0.0000
# 4 0.0000 0.0000 0.0000 31.4266 0.0000 0.0000
# 5 0.0000 0.0000 0.0000 0.0000 8.5963 0.0000
# 6 0.0000 0.0000 0.0000 0.0000 0.0000 22.7886
#
#
#
# Elastic Compliance Matrix: (Units=1/GPa)
#
#
# Indices 1 2 3 4 5 6 
#
# 1 0.030361 -0.011536 -0.003383 0.000000 0.000000 0.000000
# 2 -0.011536 0.017413 -0.003699 0.000000 0.000000 0.000000
# 3 -0.003383 -0.003699 0.009152 0.000000 0.000000 0.000000
# 4 0.000000 0.000000 0.000000 0.031820 0.000000 0.000000
# 5 0.000000 0.000000 0.000000 0.000000 0.116329 0.000000
# 6 0.000000 0.000000 0.000000 0.000000 0.000000 0.043882
#
#
# Mechanical properties :
#
#
# Convention : Reuss Voigt Hill
#
# Bulk Modulus (GPa) = 50.78204 63.36415 57.07309
# Shear Modulus (GPa) = 17.07909 23.27686 20.17798
#
# Velocity S-wave (km/s) = 2.87486 3.35619 3.12481
# Velocity P-wave (km/s) = 5.96606 6.75881 6.37477
#
# Compressibility (1/GPa) = 0.01969200
#
# Stress axis : x y z
#
# Youngs Moduli (GPa) = 32.93687 57.42769 109.26126
#
# Poissons Ratio (x) = 0.66247 0.36963
# Poissons Ratio (y) = 0.37995 0.40413
# Poissons Ratio (z) = 0.11142 0.21241
#
# Static dielectric constant tensor:
#      x y z
#    x 1.759220 0.000000 0.000000 
#    y 0.000000 1.820250 0.000000 
#    z 0.000000 0.000000 1.808170 
# 
# From -- ./inp_files/14353.got.cif
#   From: 2010.05.17/outbox.cif.g08.bks.cpg/sg21_8_cif.got.tgz:14353.got - 2010.06.03 23:14:55.
