data_PCOD9323113
_publ_section_title
;
Structure prediction by ZEFSAII (Michael W. Deem and Ramdas Pophale) SiO2 
 PCOD9323113
Probable space group: C 2 2 2
;
_chemical_formula_sum "Si O2"
_cell_formula_units_Z 34
_cell_length_a 26.025803
_cell_length_b 5.410239
_cell_length_c 14.410853
_cell_angle_alpha 90.000000
_cell_angle_beta 90.000000
_cell_angle_gamma 90.000000
_cell_volume 2029.131893
_symmetry_space_group_name_H-M "C 2 2 2"
_symmetry_group_IT_number 21
_symmetry_cell_setting 'orthorhombic'
loop_
_space_group_symop_operation_xyz
x,y,z
-x,-y,z
x,-y,-z
-x,y,-z
1/2+x,1/2+y,z
1/2-x,1/2-y,z
1/2+x,1/2-y,-z
1/2-x,1/2+y,-z
loop_
_atom_site_type_symbol
_atom_site_label
_atom_site_fract_x
_atom_site_fract_y
_atom_site_fract_z
Si Si1 0.082480 0.343828 0.094310
Si Si2 0.562720 0.506051 0.391723
Si Si3 0.194511 0.247745 0.061685
Si Si4 0.439046 0.991585 0.294478
Si Si5 0.000000 0.000000 0.000000
O O1 0.139714 0.240386 0.112575
O O2 0.068417 0.500188 0.184316
O O3 0.085302 0.500000 0.000000
O O4 0.037892 0.150518 0.068413
O O5 0.500000 0.500000 0.387375
O O6 0.576565 0.500000 0.500000
O O7 0.580925 0.756230 0.341537
O O8 0.581242 0.259392 0.339822
O O9 0.250000 0.250000 0.112594
O O10 0.194340 0.500000 0.000000
O O11 0.194397 0.000000 0.000000
O O12 0.500000 0.000000 0.312187
#
# Coordination Sequence:
#
# PCOD9323113 Si02
#       5
#     8   8   8   8   2
#     4  11  23  33  47  73 107 143 179 207 250 309
#     4   9  18  32  48  66  90 126 169 209 247 294
#     4   9  18  34  52  68  91 132 181 223 254 283
#     4  10  20  30  47  67  97 130 169 200 247 300
#     4  12  22  32  48  66 118 148 182 202 250 308
#
# _framework density 16.755935000000001
#
# number of rings (size 3 to 8) (size 9 to 14) (size 15 to 20)
#    0.000    2.118    1.176    2.471    8.235    2.824 
#    0.000    0.000    0.000    0.000    0.000    0.000 
#    0.000    3.765    0.000    0.235    0.000    0.000 
#
# Total GULP energy -94644.304397 kJ/mol
# GULP energy per Si atom -5567.312023 kJ/mol
# Density = 1.671780 g / cm^3
# Si number density = 16.755935 Si / 1000 Ang^3
#
#
#
# Elastic Constant Matrix: (Units=GPa)
#
#
# Indices 1 2 3 4 5 6 
#
# 1 87.8672 23.8431 -2.3829 0.0000 0.0000 0.0000
# 2 23.8431 129.4161 66.7962 0.0000 0.0000 0.0000
# 3 -2.3829 66.7962 107.2330 0.0000 0.0000 0.0000
# 4 0.0000 0.0000 0.0000 29.5416 0.0000 0.0000
# 5 0.0000 0.0000 0.0000 0.0000 -4.8275 0.0000
# 6 0.0000 0.0000 0.0000 0.0000 0.0000 11.3391
#
#
#
# Elastic Compliance Matrix: (Units=1/GPa)
#
#
# Indices 1 2 3 4 5 6 
#
# 1 0.012421 -0.003583 0.002508 0.000000 0.000000 0.000000
# 2 -0.003583 0.012422 -0.007817 0.000000 0.000000 0.000000
# 3 0.002508 -0.007817 0.014251 0.000000 0.000000 0.000000
# 4 0.000000 0.000000 0.000000 0.033851 0.000000 0.000000
# 5 0.000000 0.000000 0.000000 0.000000 -0.207146 0.000000
# 6 0.000000 0.000000 0.000000 0.000000 0.000000 0.088191
#
#
# Mechanical properties :
#
#
# Convention : Reuss Voigt Hill
#
# Bulk Modulus (GPa) = 46.92862 55.66990 51.29926
# Shear Modulus (GPa) = -236.69782 22.96129 -106.86827
#
# Velocity S-wave (km/s) = -11.89827 3.70582 -7.99486
# Velocity P-wave (km/s) = 12.67637 7.18380 7.38524
#
# Compressibility (1/GPa) = 0.02130896
#
# Stress axis : x y z
#
# Youngs Moduli (GPa) = 80.50882 80.50328 70.17218
#
# Poissons Ratio (x) = 0.28842 -0.17597
# Poissons Ratio (y) = 0.28844 0.54856
# Poissons Ratio (z) = -0.20189 0.62932
#
# Static dielectric constant tensor:
#      x y z
#    x 1.602360 0.000000 0.000000 
#    y 0.000000 1.610340 0.000000 
#    z 0.000000 0.000000 1.558810 
# 
# From -- ./inp_files/27146.got.cif
#   From: 2010.05.17/outbox.cif.g08.bks.cpg/sg21_14_cif.got.tgz:27146.got - 2010.06.03 23:14:55.
