data_PCOD9323579
_publ_section_title
;
Structure prediction by ZEFSAII (Michael W. Deem and Ramdas Pophale) SiO2 
 PCOD9323579
Probable space group: C 2 2 2
;
_chemical_formula_sum "Si O2"
_cell_formula_units_Z 48
_cell_length_a 19.214005
_cell_length_b 14.824937
_cell_length_c 8.228544
_cell_angle_alpha 90.000000
_cell_angle_beta 90.000000
_cell_angle_gamma 90.000000
_cell_volume 2343.871248
_symmetry_space_group_name_H-M "C 2 2 2"
_symmetry_group_IT_number 21
_symmetry_cell_setting 'orthorhombic'
loop_
_space_group_symop_operation_xyz
x,y,z
-x,-y,z
x,-y,-z
-x,y,-z
1/2+x,1/2+y,z
1/2-x,1/2-y,z
1/2+x,1/2-y,-z
1/2-x,1/2+y,-z
loop_
_atom_site_type_symbol
_atom_site_label
_atom_site_fract_x
_atom_site_fract_y
_atom_site_fract_z
Si Si1 0.000000 0.165869 0.500000
Si Si2 0.143454 0.308521 0.187817
Si Si3 0.750000 0.250000 0.403588
Si Si4 0.223766 0.536946 0.675625
Si Si5 0.491030 0.202269 0.810355
Si Si6 0.658619 0.127029 0.168214
Si Si7 0.853097 0.130654 0.624262
O O1 0.983822 0.226692 0.338449
O O2 0.929173 0.114506 0.549387
O O3 0.194083 0.362802 0.304464
O O4 0.140076 0.203089 0.229246
O O5 0.065416 0.344806 0.215878
O O6 0.169134 0.330739 0.008945
O O7 0.701837 0.186268 0.294182
O O8 0.804888 0.185088 0.496223
O O9 0.203830 0.500000 0.500000
O O10 0.187979 0.473186 0.807848
O O11 0.307362 0.545767 0.681161
O O12 0.423994 0.138291 0.803417
O O13 0.500000 0.237368 0.000000
#
# Coordination Sequence:
#
# PCOD9323579 Si02
#       7
#     4   8   4   8   8   8   8
#     4  10  20  38  67  89 120 172 216 260 326 369
#     4  10  22  40  62  89 125 164 208 256 317 382
#     4  12  20  36  62  88 122 154 208 258 308 388
#     4  12  23  38  57  89 129 160 203 261 307 379
#     4   9  20  37  60  93 123 161 213 260 310 388
#     4  11  23  38  61  90 126 163 205 259 323 374
#     4  11  21  40  62  89 125 165 216 259 312 383
#
# _framework density 20.478940000000001
#
# number of rings (size 3 to 8) (size 9 to 14) (size 15 to 20)
#    0.000    1.333    5.000    0.500    4.667    0.667 
#    0.000    3.750    0.000    0.000    0.000    0.000 
#    5.000    0.000    0.000    0.000    0.000    0.000 
#
# Total GULP energy -133845.845179 kJ/mol
# GULP energy per Si atom -5576.910216 kJ/mol
# Density = 2.043233 g / cm^3
# Si number density = 20.478940 Si / 1000 Ang^3
#
#
#
# Elastic Constant Matrix: (Units=GPa)
#
#
# Indices 1 2 3 4 5 6 
#
# 1 138.4984 14.4125 40.5522 0.0000 0.0000 0.0000
# 2 14.4125 30.8750 15.8610 0.0000 0.0000 0.0000
# 3 40.5522 15.8610 85.8480 0.0000 0.0000 0.0000
# 4 0.0000 0.0000 0.0000 22.6318 0.0000 0.0000
# 5 0.0000 0.0000 0.0000 0.0000 30.9100 0.0000
# 6 0.0000 0.0000 0.0000 0.0000 0.0000 34.2017
#
#
#
# Elastic Compliance Matrix: (Units=1/GPa)
#
#
# Indices 1 2 3 4 5 6 
#
# 1 0.008501 -0.002105 -0.003627 0.000000 0.000000 0.000000
# 2 -0.002105 0.036306 -0.005713 0.000000 0.000000 0.000000
# 3 -0.003627 -0.005713 0.014417 0.000000 0.000000 0.000000
# 4 0.000000 0.000000 0.000000 0.044186 0.000000 0.000000
# 5 0.000000 0.000000 0.000000 0.000000 0.032352 0.000000
# 6 0.000000 0.000000 0.000000 0.000000 0.000000 0.029238
#
#
# Mechanical properties :
#
#
# Convention : Reuss Voigt Hill
#
# Bulk Modulus (GPa) = 27.52235 44.09697 35.80966
# Shear Modulus (GPa) = 24.99959 29.84175 27.42067
#
# Velocity S-wave (km/s) = 3.49771 3.82146 3.66316
# Velocity P-wave (km/s) = 5.45715 6.40710 5.95111
#
# Compressibility (1/GPa) = 0.03633411
#
# Stress axis : x y z
#
# Youngs Moduli (GPa) = 117.62898 27.54333 69.36122
#
# Poissons Ratio (x) = 0.05799 0.25156
# Poissons Ratio (y) = 0.24764 0.39629
# Poissons Ratio (z) = 0.42662 0.15737
#
# Static dielectric constant tensor:
#      x y z
#    x 1.754350 0.000000 0.000000 
#    y 0.000000 1.799830 0.000000 
#    z 0.000000 0.000000 1.771020 
# 
# From -- ./inp_files/16454.got.cif
#   From: 2010.05.17/outbox.cif.g08.bks.cpg/sg21_9_cif.got.tgz:16454.got - 2010.06.03 23:14:55.
