data_PCOD9323511
_publ_section_title
;
Structure prediction by ZEFSAII (Michael W. Deem and Ramdas Pophale) SiO2 
 PCOD9323511
Probable space group: C 2 2 2
;
_chemical_formula_sum "Si O2"
_cell_formula_units_Z 48
_cell_length_a 5.945880
_cell_length_b 27.180063
_cell_length_c 13.663978
_cell_angle_alpha 90.000000
_cell_angle_beta 90.000000
_cell_angle_gamma 90.000000
_cell_volume 2208.227190
_symmetry_space_group_name_H-M "C 2 2 2"
_symmetry_group_IT_number 21
_symmetry_cell_setting 'orthorhombic'
loop_
_space_group_symop_operation_xyz
x,y,z
-x,-y,z
x,-y,-z
-x,y,-z
1/2+x,1/2+y,z
1/2-x,1/2-y,z
1/2+x,1/2-y,-z
1/2-x,1/2+y,-z
loop_
_atom_site_type_symbol
_atom_site_label
_atom_site_fract_x
_atom_site_fract_y
_atom_site_fract_z
Si Si1 0.359544 0.606937 0.211981
Si Si2 0.586600 0.712977 0.596936
Si Si3 0.249200 0.943492 0.031867
Si Si4 0.735780 0.166138 0.740126
Si Si5 0.374619 0.879441 0.406415
Si Si6 0.398196 0.799856 0.108857
O O1 0.273164 0.562135 0.147867
O O2 0.621083 0.621723 0.212195
O O3 0.286992 0.596662 0.324364
O O4 0.245348 0.654578 0.156449
O O5 0.500000 0.739700 0.500000
O O6 0.750000 0.750000 0.651150
O O7 0.405535 0.696513 0.673669
O O8 0.722119 0.665957 0.556941
O O9 0.500000 0.923976 0.000000
O O10 0.000000 0.921812 0.000000
O O11 0.247471 0.000000 0.000000
O O12 0.561863 0.143238 0.664241
O O13 0.611958 0.199110 0.819372
O O14 0.500000 0.902984 0.500000
O O15 0.250000 0.750000 0.108306
O O16 0.500000 0.807829 0.000000
#
# Coordination Sequence:
#
# PCOD9323511 Si02
#       6
#     8   8   8   8   8   8
#     4  10  24  38  66  93 123 173 220 275 341 410
#     4  11  22  35  53  79 110 161 216 286 347 395
#     4  10  23  43  72 107 143 171 213 276 347 417
#     4  10  24  41  56  79 118 161 222 281 333 409
#     4  10  20  38  57  82 121 160 210 270 332 399
#     4  11  27  43  57  81 118 176 227 284 336 402
#
# _framework density 21.736892999999998
#
# number of rings (size 3 to 8) (size 9 to 14) (size 15 to 20)
#    0.000    1.667    1.667    1.000    9.333    7.333 
#    0.000    0.000    0.000    0.000    0.000    2.333 
#    0.000    0.000    0.000    0.000    0.000    0.000 
#
# Total GULP energy -133797.137420 kJ/mol
# GULP energy per Si atom -5574.880726 kJ/mol
# Density = 2.168742 g / cm^3
# Si number density = 21.736893 Si / 1000 Ang^3
#
#
#
# Elastic Constant Matrix: (Units=GPa)
#
#
# Indices 1 2 3 4 5 6 
#
# 1 126.2317 4.8039 30.8944 0.0000 0.0000 0.0000
# 2 4.8039 47.5636 23.2692 0.0000 0.0000 0.0000
# 3 30.8944 23.2692 130.2383 0.0000 0.0000 0.0000
# 4 0.0000 0.0000 0.0000 9.9872 0.0000 0.0000
# 5 0.0000 0.0000 0.0000 0.0000 34.4128 0.0000
# 6 0.0000 0.0000 0.0000 0.0000 0.0000 1.8553
#
#
#
# Elastic Compliance Matrix: (Units=1/GPa)
#
#
# Indices 1 2 3 4 5 6 
#
# 1 0.008411 0.000139 -0.002020 0.000000 0.000000 0.000000
# 2 0.000139 0.023040 -0.004149 0.000000 0.000000 0.000000
# 3 -0.002020 -0.004149 0.008899 0.000000 0.000000 0.000000
# 4 0.000000 0.000000 0.000000 0.100128 0.000000 0.000000
# 5 0.000000 0.000000 0.000000 0.000000 0.029059 0.000000
# 6 0.000000 0.000000 0.000000 0.000000 0.000000 0.539003
#
#
# Mechanical properties :
#
#
# Convention : Reuss Voigt Hill
#
# Bulk Modulus (GPa) = 35.34967 46.88541 41.11754
# Shear Modulus (GPa) = 6.84902 25.58880 16.21891
#
# Velocity S-wave (km/s) = 1.77700 3.43477 2.73453
# Velocity P-wave (km/s) = 4.52859 6.11118 5.37841
#
# Compressibility (1/GPa) = 0.02828881
#
# Stress axis : x y z
#
# Youngs Moduli (GPa) = 118.89125 43.40186 112.37497
#
# Poissons Ratio (x) = -0.00602 0.22700
# Poissons Ratio (y) = -0.01649 0.46630
# Poissons Ratio (z) = 0.24016 0.18009
#
# Static dielectric constant tensor:
#      x y z
#    x 1.929130 0.000000 0.000000 
#    y 0.000000 1.806780 0.000000 
#    z 0.000000 0.000000 1.826050 
# 
# From -- ./inp_files/29533.got.cif
#   From: 2010.05.17/outbox.cif.g08.bks.cpg/sg21_15_cif.got.tgz:29533.got - 2010.06.03 23:14:55.
