data_PCOD9323624
_publ_section_title
;
Structure prediction by ZEFSAII (Michael W. Deem and Ramdas Pophale) SiO2 
 PCOD9323624
Probable space group: C 2 2 2
;
_chemical_formula_sum "Si O2"
_cell_formula_units_Z 34
_cell_length_a 5.063808
_cell_length_b 19.851499
_cell_length_c 16.289974
_cell_angle_alpha 90.000000
_cell_angle_beta 90.000000
_cell_angle_gamma 90.000000
_cell_volume 1637.536270
_symmetry_space_group_name_H-M "C 2 2 2"
_symmetry_group_IT_number 21
_symmetry_cell_setting 'orthorhombic'
loop_
_space_group_symop_operation_xyz
x,y,z
-x,-y,z
x,-y,-z
-x,y,-z
1/2+x,1/2+y,z
1/2-x,1/2-y,z
1/2+x,1/2-y,-z
1/2-x,1/2+y,-z
loop_
_atom_site_type_symbol
_atom_site_label
_atom_site_fract_x
_atom_site_fract_y
_atom_site_fract_z
Si Si1 0.500000 0.500000 0.313113
Si Si2 0.500000 0.500000 0.000000
Si Si3 0.750838 0.103619 0.439959
Si Si4 0.500000 0.000000 0.205057
Si Si5 0.250000 0.750000 0.440432
Si Si6 0.250000 0.250000 0.060236
Si Si7 0.368534 0.893559 0.912453
O O1 0.339882 0.550951 0.371896
O O2 0.742700 0.523332 0.256049
O O3 0.657475 0.550074 0.060321
O O4 0.500000 0.088941 0.500000
O O5 0.719950 0.177483 0.398443
O O6 0.000000 0.106111 0.500000
O O7 0.443601 0.933885 0.149611
O O8 0.500000 0.746501 0.500000
O O9 0.277872 0.181073 0.112762
O O10 0.500000 0.261755 0.000000
O O11 0.500000 0.879580 0.000000
#
# Coordination Sequence:
#
# PCOD9323624 Si02
#       7
#     4   2   8   4   4   4   8
#     4  12  26  38  57  95 128 164 198 256 314 366
#     4  12  16  36  64  92 112 152 214 246 314 358
#     4  10  20  39  64  88 118 156 205 252 300 364
#     4  12  25  40  57  86 132 164 208 250 313 382
#     4   8  16  32  60  90 110 146 200 252 292 348
#     4  10  22  36  60  92 120 144 216 276 306 348
#     4  11  22  38  63  90 116 167 212 262 307 369
#
# _framework density 20.762898
#
# number of rings (size 3 to 8) (size 9 to 14) (size 15 to 20)
#    0.000    1.412    3.529    2.471    0.000    0.941 
#    0.000    2.353    0.000    0.000    0.000    0.000 
#    0.000    0.000    0.000    0.000    0.000    0.000 
#
# Total GULP energy -94634.460317 kJ/mol
# GULP energy per Si atom -5566.732960 kJ/mol
# Density = 2.071564 g / cm^3
# Si number density = 20.762898 Si / 1000 Ang^3
#
#
#
# Elastic Constant Matrix: (Units=GPa)
#
#
# Indices 1 2 3 4 5 6 
#
# 1 118.9277 19.2008 12.2988 0.0000 0.0000 0.0000
# 2 19.2008 176.5859 37.9884 0.0000 0.0000 0.0000
# 3 12.2988 37.9884 52.5143 0.0000 0.0000 0.0000
# 4 0.0000 0.0000 0.0000 -4.0293 0.0000 0.0000
# 5 0.0000 0.0000 0.0000 0.0000 23.8318 0.0000
# 6 0.0000 0.0000 0.0000 0.0000 0.0000 28.4931
#
#
#
# Elastic Compliance Matrix: (Units=1/GPa)
#
#
# Indices 1 2 3 4 5 6 
#
# 1 0.008670 -0.000599 -0.001597 0.000000 0.000000 0.000000
# 2 -0.000599 0.006748 -0.004741 0.000000 0.000000 0.000000
# 3 -0.001597 -0.004741 0.022846 0.000000 0.000000 0.000000
# 4 0.000000 0.000000 0.000000 -0.248183 0.000000 0.000000
# 5 0.000000 0.000000 0.000000 0.000000 0.041961 0.000000
# 6 0.000000 0.000000 0.000000 0.000000 0.000000 0.035096
#
#
# Mechanical properties :
#
#
# Convention : Reuss Voigt Hill
#
# Bulk Modulus (GPa) = 41.00097 54.11154 47.55626
# Shear Modulus (GPa) = -45.10324 28.22846 -8.43739
#
# Velocity S-wave (km/s) = -4.66585 3.69122 -2.01805
# Velocity P-wave (km/s) = 3.03921 6.65470 4.18619
#
# Compressibility (1/GPa) = 0.02438966
#
# Stress axis : x y z
#
# Youngs Moduli (GPa) = 115.33526 148.19055 43.77092
#
# Poissons Ratio (x) = 0.08879 0.06991
# Poissons Ratio (y) = 0.06911 0.20753
# Poissons Ratio (z) = 0.18421 0.70260
#
# Static dielectric constant tensor:
#      x y z
#    x 1.753010 0.000000 0.000000 
#    y 0.000000 1.960100 0.000000 
#    z 0.000000 0.000000 1.728510 
# 
# From -- ./inp_files/28989.got.cif
#   From: 2010.05.17/outbox.cif.g08.bks.cpg/sg21_15_cif.got.tgz:28989.got - 2010.06.03 23:14:55.
