data_PCOD9323600
_publ_section_title
;
Structure prediction by ZEFSAII (Michael W. Deem and Ramdas Pophale) SiO2 
 PCOD9323600
Probable space group: C 2 2 2
;
_chemical_formula_sum "Si O2"
_cell_formula_units_Z 40
_cell_length_a 14.340760
_cell_length_b 7.415104
_cell_length_c 19.233142
_cell_angle_alpha 90.000000
_cell_angle_beta 90.000000
_cell_angle_gamma 90.000000
_cell_volume 2045.218217
_symmetry_space_group_name_H-M "C 2 2 2"
_symmetry_group_IT_number 21
_symmetry_cell_setting 'orthorhombic'
loop_
_space_group_symop_operation_xyz
x,y,z
-x,-y,z
x,-y,-z
-x,y,-z
1/2+x,1/2+y,z
1/2-x,1/2-y,z
1/2+x,1/2-y,-z
1/2-x,1/2+y,-z
loop_
_atom_site_type_symbol
_atom_site_label
_atom_site_fract_x
_atom_site_fract_y
_atom_site_fract_z
Si Si1 0.294059 0.443731 0.077032
Si Si2 0.000000 0.000000 0.880759
Si Si3 0.858375 0.285423 0.500415
Si Si4 0.044275 0.699387 0.232325
Si Si5 0.002188 0.279870 0.385056
Si Si6 0.250000 0.250000 0.810539
O O1 0.250000 0.250000 0.092614
O O2 0.406528 0.451968 0.077676
O O3 0.265058 0.581919 0.137446
O O4 0.260857 0.500000 0.000000
O O5 0.017774 0.171536 0.831139
O O6 0.871811 0.500000 0.500000
O O7 0.750000 0.250000 0.496495
O O8 0.916565 0.218594 0.433916
O O9 0.906530 0.222341 0.571939
O O10 0.006156 0.775325 0.305466
O O11 0.157254 0.704994 0.233403
O O12 0.000000 0.500000 0.222426
O O13 0.000000 0.500000 0.382192
#
# Coordination Sequence:
#
# PCOD9323600 Si02
#       6
#     8   4   8   8   8   4
#     4  11  21  39  62  87 120 155 193 246 295 350
#     4  10  23  38  58  89 122 150 196 244 292 355
#     4   9  17  33  52  78 105 141 189 236 285 344
#     4  10  20  39  58  82 119 156 195 243 298 354
#     4   8  17  34  54  72 109 150 184 232 291 346
#     4  10  22  36  60  90 114 154 200 236 296 364
#
# _framework density 19.557815999999999
#
# number of rings (size 3 to 8) (size 9 to 14) (size 15 to 20)
#    0.000    2.400    1.000    2.700    1.400    0.000 
#    3.600    6.000    0.000    0.000    0.000    0.000 
#    0.000    0.000    0.000    0.000    0.000    0.000 
#
# Total GULP energy -111548.982296 kJ/mol
# GULP energy per Si atom -5577.449115 kJ/mol
# Density = 1.951330 g / cm^3
# Si number density = 19.557816 Si / 1000 Ang^3
#
#
#
# Elastic Constant Matrix: (Units=GPa)
#
#
# Indices 1 2 3 4 5 6 
#
# 1 102.5277 25.7892 22.7726 0.0000 0.0000 0.0000
# 2 25.7892 106.3268 19.4038 0.0000 0.0000 0.0000
# 3 22.7726 19.4038 79.4881 0.0000 0.0000 0.0000
# 4 0.0000 0.0000 0.0000 4.1522 0.0000 0.0000
# 5 0.0000 0.0000 0.0000 0.0000 18.6446 0.0000
# 6 0.0000 0.0000 0.0000 0.0000 0.0000 27.6036
#
#
#
# Elastic Compliance Matrix: (Units=1/GPa)
#
#
# Indices 1 2 3 4 5 6 
#
# 1 0.010873 -0.002165 -0.002586 0.000000 0.000000 0.000000
# 2 -0.002165 0.010275 -0.001888 0.000000 0.000000 0.000000
# 3 -0.002586 -0.001888 0.013782 0.000000 0.000000 0.000000
# 4 0.000000 0.000000 0.000000 0.240835 0.000000 0.000000
# 5 0.000000 0.000000 0.000000 0.000000 0.053635 0.000000
# 6 0.000000 0.000000 0.000000 0.000000 0.000000 0.036227
#
#
# Mechanical properties :
#
#
# Convention : Reuss Voigt Hill
#
# Bulk Modulus (GPa) = 46.18760 47.14154 46.66457
# Shear Modulus (GPa) = 12.94927 24.77186 18.86056
#
# Velocity S-wave (km/s) = 2.57593 3.56279 3.10877
# Velocity P-wave (km/s) = 5.70214 6.40942 6.06609
#
# Compressibility (1/GPa) = 0.02165083
#
# Stress axis : x y z
#
# Youngs Moduli (GPa) = 91.97497 97.32711 72.55673
#
# Poissons Ratio (x) = 0.21072 0.18766
# Poissons Ratio (y) = 0.19914 0.13698
# Poissons Ratio (z) = 0.23788 0.18374
#
# Static dielectric constant tensor:
#      x y z
#    x 1.702780 0.000000 0.000000 
#    y 0.000000 1.707610 0.000000 
#    z 0.000000 0.000000 1.660010 
# 
# From -- ./inp_files/32124.got.cif
#   From: 2010.05.17/outbox.cif.g08.bks.cpg/sg21_17_cif.got.tgz:32124.got - 2010.06.03 23:14:55.
