data_PCOD9323352
_publ_section_title
;
Structure prediction by ZEFSAII (Michael W. Deem and Ramdas Pophale) SiO2 
 PCOD9323352
Probable space group: C 2 2 2
;
_chemical_formula_sum "Si O2"
_cell_formula_units_Z 48
_cell_length_a 15.032383
_cell_length_b 15.186553
_cell_length_c 9.470661
_cell_angle_alpha 90.000000
_cell_angle_beta 90.000000
_cell_angle_gamma 90.000000
_cell_volume 2162.057968
_symmetry_space_group_name_H-M "C 2 2 2"
_symmetry_group_IT_number 21
_symmetry_cell_setting 'orthorhombic'
loop_
_space_group_symop_operation_xyz
x,y,z
-x,-y,z
x,-y,-z
-x,y,-z
1/2+x,1/2+y,z
1/2-x,1/2-y,z
1/2+x,1/2-y,-z
1/2-x,1/2+y,-z
loop_
_atom_site_type_symbol
_atom_site_label
_atom_site_fract_x
_atom_site_fract_y
_atom_site_fract_z
Si Si1 0.117435 0.086115 0.742024
Si Si2 0.686085 0.500000 0.000000
Si Si3 0.500000 0.000000 0.000000
Si Si4 0.603506 0.898522 0.453938
Si Si5 0.092070 0.736781 0.079016
Si Si6 0.300755 0.838645 0.294175
Si Si7 0.000000 0.000000 0.500000
Si Si8 0.843133 0.381740 0.870190
O O1 0.092827 0.178335 0.818808
O O2 0.223081 0.090516 0.706217
O O3 0.060291 0.058634 0.606873
O O4 0.119918 0.019258 0.871094
O O5 0.755252 0.427618 0.936722
O O6 0.430911 0.938123 0.915714
O O7 0.500000 0.885335 0.500000
O O8 0.657819 0.833286 0.553884
O O9 0.640467 0.881755 0.297455
O O10 0.622101 0.000000 0.500000
O O11 0.119252 0.655274 0.182701
O O12 0.154218 0.714179 0.944764
O O13 0.000000 0.737788 0.000000
O O14 0.250000 0.750000 0.251137
#
# Coordination Sequence:
#
# PCOD9323352 Si02
#       8
#     8   4   2   8   8   8   2   8
#     4  11  27  50  74 104 144 195 253 318 375 434
#     4  11  24  42  76 101 142 186 252 311 367 437
#     4  10  20  36  58 102 148 180 230 282 348 444
#     4  11  23  37  66 107 143 186 240 294 358 447
#     4  11  23  45  72 104 145 191 237 309 376 442
#     4  10  23  48  66  95 149 191 230 302 367 439
#     4  12  32  54  80 104 138 196 264 320 380 454
#     4  11  22  38  68 106 142 194 235 296 370 442
#
# _framework density 22.201070000000001
#
# number of rings (size 3 to 8) (size 9 to 14) (size 15 to 20)
#    0.000    1.167    2.500    3.000    8.167    0.000 
#   15.000    0.000    0.000    0.000    0.000    0.000 
#    0.000    0.000    0.000    0.000    0.000    0.000 
#
# Total GULP energy -133604.922475 kJ/mol
# GULP energy per Si atom -5566.871770 kJ/mol
# Density = 2.215054 g / cm^3
# Si number density = 22.201070 Si / 1000 Ang^3
#
#
#
# Elastic Constant Matrix: (Units=GPa)
#
#
# Indices 1 2 3 4 5 6 
#
# 1 103.3111 36.5381 68.1243 0.0000 0.0000 0.0000
# 2 36.5381 54.4686 41.4821 0.0000 0.0000 0.0000
# 3 68.1243 41.4821 209.4879 0.0000 0.0000 0.0000
# 4 0.0000 0.0000 0.0000 1.7724 0.0000 0.0000
# 5 0.0000 0.0000 0.0000 0.0000 252.1753 0.0000
# 6 0.0000 0.0000 0.0000 0.0000 0.0000 -3.7777
#
#
#
# Elastic Compliance Matrix: (Units=1/GPa)
#
#
# Indices 1 2 3 4 5 6 
#
# 1 0.014353 -0.007152 -0.003251 0.000000 0.000000 0.000000
# 2 -0.007152 0.025183 -0.002661 0.000000 0.000000 0.000000
# 3 -0.003251 -0.002661 0.006358 0.000000 0.000000 0.000000
# 4 0.000000 0.000000 0.000000 0.564220 0.000000 0.000000
# 5 0.000000 0.000000 0.000000 0.000000 0.003965 0.000000
# 6 0.000000 0.000000 0.000000 0.000000 0.000000 -0.264709
#
#
# Mechanical properties :
#
#
# Convention : Reuss Voigt Hill
#
# Bulk Modulus (GPa) = 50.59292 73.28406 61.93849
# Shear Modulus (GPa) = 13.08600 64.77553 38.93076
#
# Velocity S-wave (km/s) = 2.43045 5.40741 4.19209
# Velocity P-wave (km/s) = 5.54203 8.48927 7.16875
#
# Compressibility (1/GPa) = 0.01976561
#
# Stress axis : x y z
#
# Youngs Moduli (GPa) = 69.67262 39.70880 157.28844
#
# Poissons Ratio (x) = 0.28400 0.51139
# Poissons Ratio (y) = 0.49830 0.41854
# Poissons Ratio (z) = 0.22652 0.10566
#
# Static dielectric constant tensor:
#      x y z
#    x 1.891170 0.000000 0.000000 
#    y 0.000000 1.223500 0.000000 
#    z 0.000000 0.000000 1.832870 
# 
# From -- ./inp_files/15065.got.cif
#   From: 2010.05.17/outbox.cif.g08.bks.cpg/sg21_8_cif.got.tgz:15065.got - 2010.06.03 23:14:55.
