data_PCOD9323316
_publ_section_title
;
Structure prediction by ZEFSAII (Michael W. Deem and Ramdas Pophale) SiO2 
 PCOD9323316
Probable space group: C 2 2 2
;
_chemical_formula_sum "Si O2"
_cell_formula_units_Z 58
_cell_length_a 21.395125
_cell_length_b 15.509445
_cell_length_c 8.280028
_cell_angle_alpha 90.000000
_cell_angle_beta 90.000000
_cell_angle_gamma 90.000000
_cell_volume 2747.532831
_symmetry_space_group_name_H-M "C 2 2 2"
_symmetry_group_IT_number 21
_symmetry_cell_setting 'orthorhombic'
loop_
_space_group_symop_operation_xyz
x,y,z
-x,-y,z
x,-y,-z
-x,y,-z
1/2+x,1/2+y,z
1/2-x,1/2-y,z
1/2+x,1/2-y,-z
1/2-x,1/2+y,-z
loop_
_atom_site_type_symbol
_atom_site_label
_atom_site_fract_x
_atom_site_fract_y
_atom_site_fract_z
Si Si1 0.333122 0.064444 0.643580
Si Si2 0.358543 0.258351 0.529918
Si Si3 0.119595 0.767118 0.826100
Si Si4 0.812105 0.060620 0.350687
Si Si5 0.401055 0.877110 0.040733
Si Si6 0.500000 0.000000 0.000000
Si Si7 0.526894 0.732940 0.749653
Si Si8 0.094316 0.084233 0.926135
O O1 0.337530 0.162856 0.579625
O O2 0.260844 0.042396 0.671861
O O3 0.367445 0.068040 0.818317
O O4 0.357028 0.000000 0.500000
O O5 0.346116 0.273858 0.342358
O O6 0.323897 0.337589 0.616031
O O7 0.432156 0.263273 0.584907
O O8 0.046811 0.756389 0.770699
O O9 0.140261 0.682164 0.924981
O O10 0.122190 0.849500 0.942014
O O11 0.852422 0.047180 0.191592
O O12 0.833895 0.000000 0.500000
O O13 0.441122 0.806626 0.140502
O O14 0.449286 0.932646 0.932296
O O15 0.545520 0.641282 0.825792
O O16 0.065253 0.000000 0.000000
#
# Coordination Sequence:
#
# PCOD9323316 Si02
#       8
#     8   8   8   8   8   2   8   8
#     4  10  23  41  59  82 114 155 203 240 287 351
#     4  10  21  36  61  84 114 156 196 236 288 351
#     4  11  20  36  56  88 121 147 192 240 291 350
#     4  10  21  42  61  79 113 155 195 246 296 348
#     4  10  21  36  57  84 114 155 182 235 294 339
#     4  12  20  36  62  80 126 144 178 228 294 344
#     4   9  19  37  54  80 119 154 184 225 289 348
#     4  10  20  35  59  84 111 148 193 238 298 345
#
# _framework density 21.109848
#
# number of rings (size 3 to 8) (size 9 to 14) (size 15 to 20)
#    0.000    1.931    1.379    3.724    1.931    1.103 
#    1.241    3.103    0.000    2.483    0.000    0.000 
#    0.000    0.000    0.000    0.000    0.000    0.000 
#
# Total GULP energy -161540.669405 kJ/mol
# GULP energy per Si atom -5570.367911 kJ/mol
# Density = 2.106180 g / cm^3
# Si number density = 21.109848 Si / 1000 Ang^3
#
#
#
# Elastic Constant Matrix: (Units=GPa)
#
#
# Indices 1 2 3 4 5 6 
#
# 1 52.2172 13.5066 21.9531 0.0000 0.0000 0.0000
# 2 13.5066 106.8451 27.4058 0.0000 0.0000 0.0000
# 3 21.9531 27.4058 109.5341 0.0000 0.0000 0.0000
# 4 0.0000 0.0000 0.0000 39.7199 0.0000 0.0000
# 5 0.0000 0.0000 0.0000 0.0000 8.1611 0.0000
# 6 0.0000 0.0000 0.0000 0.0000 0.0000 15.8759
#
#
#
# Elastic Compliance Matrix: (Units=1/GPa)
#
#
# Indices 1 2 3 4 5 6 
#
# 1 0.021198 -0.001699 -0.003823 0.000000 0.000000 0.000000
# 2 -0.001699 0.010137 -0.002196 0.000000 0.000000 0.000000
# 3 -0.003823 -0.002196 0.010445 0.000000 0.000000 0.000000
# 4 0.000000 0.000000 0.000000 0.025176 0.000000 0.000000
# 5 0.000000 0.000000 0.000000 0.000000 0.122533 0.000000
# 6 0.000000 0.000000 0.000000 0.000000 0.000000 0.062989
#
#
# Mechanical properties :
#
#
# Convention : Reuss Voigt Hill
#
# Bulk Modulus (GPa) = 37.95956 43.81415 40.88686
# Shear Modulus (GPa) = 18.07037 26.46675 22.26856
#
# Velocity S-wave (km/s) = 2.92895 3.54469 3.25143
# Velocity P-wave (km/s) = 5.42764 6.12809 5.78847
#
# Compressibility (1/GPa) = 0.02634382
#
# Stress axis : x y z
#
# Youngs Moduli (GPa) = 47.17497 98.64502 95.73684
#
# Poissons Ratio (x) = 0.16759 0.36604
# Poissons Ratio (y) = 0.08015 0.21023
# Poissons Ratio (z) = 0.18037 0.21661
#
# Static dielectric constant tensor:
#      x y z
#    x 1.777170 0.000000 0.000000 
#    y 0.000000 1.780710 0.000000 
#    z 0.000000 0.000000 1.815830 
# 
# From -- ./inp_files/17740.got.cif
#   From: 2010.05.17/outbox.cif.g08.bks.cpg/sg21_9_cif.got.tgz:17740.got - 2010.06.03 23:14:55.
