data_PCOD9323556
_publ_section_title
;
Structure prediction by ZEFSAII (Michael W. Deem and Ramdas Pophale) SiO2 
 PCOD9323556
Probable space group: C 2 2 2
;
_chemical_formula_sum "Si O2"
_cell_formula_units_Z 32
_cell_length_a 6.592532
_cell_length_b 13.781645
_cell_length_c 17.280424
_cell_angle_alpha 90.000000
_cell_angle_beta 90.000000
_cell_angle_gamma 90.000000
_cell_volume 1570.029091
_symmetry_space_group_name_H-M "C 2 2 2"
_symmetry_group_IT_number 21
_symmetry_cell_setting 'orthorhombic'
loop_
_space_group_symop_operation_xyz
x,y,z
-x,-y,z
x,-y,-z
-x,y,-z
1/2+x,1/2+y,z
1/2-x,1/2-y,z
1/2+x,1/2-y,-z
1/2-x,1/2+y,-z
loop_
_atom_site_type_symbol
_atom_site_label
_atom_site_fract_x
_atom_site_fract_y
_atom_site_fract_z
Si Si1 0.500000 0.000000 0.500000
Si Si2 0.135534 0.654042 0.114116
Si Si3 0.750000 0.750000 0.175863
Si Si4 0.000000 0.500000 0.000000
Si Si5 0.622942 0.398564 0.429076
Si Si6 0.072142 0.112005 0.744587
O O1 0.651128 0.069618 0.452514
O O2 0.250000 0.750000 0.084968
O O3 0.242103 0.626500 0.195617
O O4 0.903012 0.684012 0.127103
O O5 0.138020 0.566780 0.054559
O O6 0.608510 0.679896 0.225860
O O7 0.500000 0.500000 0.421112
O O8 0.500000 0.347194 0.500000
O O9 0.621890 0.356661 0.343241
O O10 0.000000 0.000000 0.746800
#
# Coordination Sequence:
#
# PCOD9323556 Si02
#       6
#     2   8   4   2   8   8
#     4   8  14  26  44  82 124 150 194 268 306 360
#     4  10  24  42  62  94 125 169 216 266 328 390
#     4  10  22  42  62  84 130 162 208 276 314 382
#     4  12  24  42  70  94 128 172 216 268 338 380
#     4   8  16  29  52  88 119 156 211 258 311 381
#     4  10  20  38  63  91 123 165 215 261 327 394
#
# _framework density 20.381789000000001
#
# number of rings (size 3 to 8) (size 9 to 14) (size 15 to 20)
#    0.000    2.750    0.000    1.500    1.750    7.000 
#    0.000    5.000    8.250    0.000    0.000    0.000 
#    0.000    0.000    0.000    0.000    0.000    0.000 
#
# Total GULP energy -89261.866462 kJ/mol
# GULP energy per Si atom -5578.866654 kJ/mol
# Density = 2.033540 g / cm^3
# Si number density = 20.381789 Si / 1000 Ang^3
#
#
#
# Elastic Constant Matrix: (Units=GPa)
#
#
# Indices 1 2 3 4 5 6 
#
# 1 130.3557 22.3095 62.8447 0.0000 0.0000 0.0000
# 2 22.3095 80.0330 57.0127 0.0000 0.0000 0.0000
# 3 62.8447 57.0127 155.0022 0.0000 0.0000 0.0000
# 4 0.0000 0.0000 0.0000 47.1801 0.0000 0.0000
# 5 0.0000 0.0000 0.0000 0.0000 11.6030 0.0000
# 6 0.0000 0.0000 0.0000 0.0000 0.0000 12.9297
#
#
#
# Elastic Compliance Matrix: (Units=1/GPa)
#
#
# Indices 1 2 3 4 5 6 
#
# 1 0.009536 0.000130 -0.003914 0.000000 0.000000 0.000000
# 2 0.000130 0.016933 -0.006281 0.000000 0.000000 0.000000
# 3 -0.003914 -0.006281 0.010349 0.000000 0.000000 0.000000
# 4 0.000000 0.000000 0.000000 0.021195 0.000000 0.000000
# 5 0.000000 0.000000 0.000000 0.000000 0.086184 0.000000
# 6 0.000000 0.000000 0.000000 0.000000 0.000000 0.077342
#
#
# Mechanical properties :
#
#
# Convention : Reuss Voigt Hill
#
# Bulk Modulus (GPa) = 59.92464 72.19164 66.05814
# Shear Modulus (GPa) = 20.22392 29.22415 24.72403
#
# Velocity S-wave (km/s) = 3.15342 3.79071 3.48666
# Velocity P-wave (km/s) = 6.53634 7.39296 6.97781
#
# Compressibility (1/GPa) = 0.01668763
#
# Stress axis : x y z
#
# Youngs Moduli (GPa) = 104.86468 59.05648 96.62966
#
# Poissons Ratio (x) = -0.00768 0.37823
# Poissons Ratio (y) = -0.01365 0.60693
# Poissons Ratio (z) = 0.41046 0.37093
#
# Static dielectric constant tensor:
#      x y z
#    x 1.641970 0.000000 0.000000 
#    y 0.000000 1.780360 0.000000 
#    z 0.000000 0.000000 1.774840 
# 
# From -- ./inp_files/34529.got.cif
#   From: 2010.05.17/outbox.cif.g08.bks.cpg/sg21_18_cif.got.tgz:34529.got - 2010.06.03 23:14:55.
