data_PCOD9323242
_publ_section_title
;
Structure prediction by ZEFSAII (Michael W. Deem and Ramdas Pophale) SiO2 
 PCOD9323242
Probable space group: C 2 2 2
;
_chemical_formula_sum "Si O2"
_cell_formula_units_Z 40
_cell_length_a 15.786602
_cell_length_b 20.787633
_cell_length_c 5.404791
_cell_angle_alpha 90.000000
_cell_angle_beta 90.000000
_cell_angle_gamma 90.000000
_cell_volume 1773.669123
_symmetry_space_group_name_H-M "C 2 2 2"
_symmetry_group_IT_number 21
_symmetry_cell_setting 'orthorhombic'
loop_
_space_group_symop_operation_xyz
x,y,z
-x,-y,z
x,-y,-z
-x,y,-z
1/2+x,1/2+y,z
1/2-x,1/2-y,z
1/2+x,1/2-y,-z
1/2-x,1/2+y,-z
loop_
_atom_site_type_symbol
_atom_site_label
_atom_site_fract_x
_atom_site_fract_y
_atom_site_fract_z
Si Si1 0.750000 0.250000 0.111023
Si Si2 0.581915 0.248583 0.393824
Si Si3 0.500000 0.347119 0.000000
Si Si4 0.661516 0.652608 0.242909
Si Si5 0.803248 0.422907 0.497963
Si Si6 0.904712 0.577817 0.004666
O O1 0.668116 0.226435 0.264194
O O2 0.721347 0.312128 0.954420
O O3 0.500000 0.210252 0.500000
O O4 0.543260 0.300806 0.203349
O O5 0.619608 0.286817 0.623880
O O6 0.419157 0.383231 0.119262
O O7 0.715078 0.612171 0.439851
O O8 0.789981 0.500000 0.500000
O O9 0.861260 0.405297 0.735346
O O10 0.850834 0.408055 0.241724
O O11 0.911090 0.500000 0.000000
O O12 0.000000 0.605125 0.000000
#
# Coordination Sequence:
#
# PCOD9323242 Si02
#       6
#     4   8   4   8   8   8
#     4  10  20  34  60  88 116 164 210 256 308 378
#     4   9  18  35  59  84 111 154 208 248 311 377
#     4   8  18  34  58  83 108 158 200 249 308 382
#     4  10  20  35  60  87 120 159 208 254 317 377
#     4  10  21  35  61  92 119 160 207 260 311 378
#     4   9  18  35  59  85 117 161 203 244 307 377
#
# _framework density 22.552122000000001
#
# number of rings (size 3 to 8) (size 9 to 14) (size 15 to 20)
#    0.000    2.600    0.000    1.200    5.600    2.400 
#    0.000    0.000   17.600    6.600    0.000    0.000 
#    0.000    0.000    0.000    0.000    0.000    0.000 
#
# Total GULP energy -111536.580533 kJ/mol
# GULP energy per Si atom -5576.829027 kJ/mol
# Density = 2.250079 g / cm^3
# Si number density = 22.552122 Si / 1000 Ang^3
#
#
#
# Elastic Constant Matrix: (Units=GPa)
#
#
# Indices 1 2 3 4 5 6 
#
# 1 209.8915 46.4451 87.9563 0.0000 0.0000 0.0000
# 2 46.4451 53.0812 15.3015 0.0000 0.0000 0.0000
# 3 87.9563 15.3015 133.7045 0.0000 0.0000 0.0000
# 4 0.0000 0.0000 0.0000 -99.5970 0.0000 0.0000
# 5 0.0000 0.0000 0.0000 0.0000 56.6829 0.0000
# 6 0.0000 0.0000 0.0000 0.0000 0.0000 -89.9481
#
#
#
# Elastic Compliance Matrix: (Units=1/GPa)
#
#
# Indices 1 2 3 4 5 6 
#
# 1 0.007921 -0.005614 -0.004568 0.000000 0.000000 0.000000
# 2 -0.005614 0.023460 0.001008 0.000000 0.000000 0.000000
# 3 -0.004568 0.001008 0.010369 0.000000 0.000000 0.000000
# 4 0.000000 0.000000 0.000000 -0.010040 0.000000 0.000000
# 5 0.000000 0.000000 0.000000 0.000000 0.017642 0.000000
# 6 0.000000 0.000000 0.000000 0.000000 0.000000 -0.011118
#
#
# Mechanical properties :
#
#
# Convention : Reuss Voigt Hill
#
# Bulk Modulus (GPa) = 42.73052 77.34256 60.03654
# Shear Modulus (GPa) = 77.65996 -10.10750 33.77623
#
# Velocity S-wave (km/s) = 5.87457 -2.11933 3.87421
# Velocity P-wave (km/s) = 8.06242 5.32736 6.83313
#
# Compressibility (1/GPa) = 0.02340247
#
# Stress axis : x y z
#
# Youngs Moduli (GPa) = 126.24723 42.62491 96.44123
#
# Poissons Ratio (x) = 0.23929 0.44057
# Poissons Ratio (y) = 0.70873 -0.09722
# Poissons Ratio (z) = 0.57673 -0.04297
#
# Static dielectric constant tensor:
#      x y z
#    x 4.869910 0.000000 0.000000 
#    y 0.000000 1.894580 0.000000 
#    z 0.000000 0.000000 2.685300 
# 
# From -- ./inp_files/3890.got.cif
#   From: 2010.05.17/outbox.cif.g08.bks.cpg/sg21_2_cif.got.tgz:3890.got - 2010.06.03 23:14:55.
