data_PCOD9323978
_publ_section_title
;
Structure prediction by ZEFSAII (Michael W. Deem and Ramdas Pophale) SiO2 
 PCOD9323978
Probable space group: C 2 2 2
;
_chemical_formula_sum "Si O2"
_cell_formula_units_Z 48
_cell_length_a 35.319180
_cell_length_b 8.955715
_cell_length_c 7.642293
_cell_angle_alpha 90.000000
_cell_angle_beta 90.000000
_cell_angle_gamma 90.000000
_cell_volume 2417.322313
_symmetry_space_group_name_H-M "C 2 2 2"
_symmetry_group_IT_number 21
_symmetry_cell_setting 'orthorhombic'
loop_
_space_group_symop_operation_xyz
x,y,z
-x,-y,z
x,-y,-z
-x,y,-z
1/2+x,1/2+y,z
1/2-x,1/2-y,z
1/2+x,1/2-y,-z
1/2-x,1/2+y,-z
loop_
_atom_site_type_symbol
_atom_site_label
_atom_site_fract_x
_atom_site_fract_y
_atom_site_fract_z
Si Si1 0.921940 0.668366 0.291116
Si Si2 0.844141 0.177672 0.290849
Si Si3 1.000000 0.167764 0.207752
Si Si4 0.844141 0.822329 0.290848
Si Si5 0.791566 0.321051 0.000000
Si Si6 0.078060 0.668366 0.291115
O O1 0.961977 0.745176 0.256252
O O2 0.885856 0.765267 0.234898
O O3 0.920636 0.500000 0.218765
O O4 0.918618 0.657999 0.500000
O O5 0.839187 0.206358 0.500001
O O6 0.814074 0.262616 0.170756
O O7 0.885855 0.234735 0.234897
O O8 0.841275 0.000000 0.264049
O O9 0.961977 0.254823 0.256251
O O10 0.000000 0.000000 0.282938
O O11 0.000000 0.156279 0.000000
O O12 0.814075 0.737384 0.170754
O O13 0.750000 0.250000 0.999999
O O14 0.789849 0.500000 0.000000
#
# Coordination Sequence:
#
# PCOD9323978 Si02
#       6
#     8   8   8   8   8   8
#     4  10  21  38  60  86 117 156 203 254 307 364
#     4  10  22  42  68  96 128 167 210 258 312 373
#     4  11  24  37  52  80 118 161 206 255 305 359
#     4  10  22  42  68  96 128 167 210 258 312 373
#     4  12  26  44  68  97 130 167 206 256 312 374
#     4  10  21  38  60  86 117 156 203 254 307 364
#
# _framework density 19.856680000000001
#
# number of rings (size 3 to 8) (size 9 to 14) (size 15 to 20)
#    0.000    1.500    0.000    4.500    2.333    8.000 
#    0.000    0.000    0.000    0.000    0.000    0.000 
#    0.000    0.000    0.000    0.000    0.000    0.000 
#
# Total GULP energy -134145.983173 kJ/mol
# GULP energy per Si atom -5589.415966 kJ/mol
# Density = 1.981149 g / cm^3
# Si number density = 19.856680 Si / 1000 Ang^3
#
#
#
# Elastic Constant Matrix: (Units=GPa)
#
#
# Indices 1 2 3 4 5 6 
#
# 1 199.0572 104.2803 57.0850 0.0000 0.0000 0.0000
# 2 104.2803 194.9707 64.5885 0.0000 0.0000 0.0000
# 3 57.0850 64.5885 73.2475 0.0000 0.0000 0.0000
# 4 0.0000 0.0000 0.0000 29.4098 0.0000 0.0000
# 5 0.0000 0.0000 0.0000 0.0000 31.6628 0.0000
# 6 0.0000 0.0000 0.0000 0.0000 0.0000 41.8924
#
#
#
# Elastic Compliance Matrix: (Units=1/GPa)
#
#
# Indices 1 2 3 4 5 6 
#
# 1 0.007491 -0.002928 -0.003257 0.000000 0.000000 0.000000
# 2 -0.002928 0.008390 -0.005116 0.000000 0.000000 0.000000
# 3 -0.003257 -0.005116 0.020702 0.000000 0.000000 0.000000
# 4 0.000000 0.000000 0.000000 0.034002 0.000000 0.000000
# 5 0.000000 0.000000 0.000000 0.000000 0.031583 0.000000
# 6 0.000000 0.000000 0.000000 0.000000 0.000000 0.023871
#
#
# Mechanical properties :
#
#
# Convention : Reuss Voigt Hill
#
# Bulk Modulus (GPa) = 71.52264 102.13145 86.82705
# Shear Modulus (GPa) = 32.61564 36.68111 34.64838
#
# Velocity S-wave (km/s) = 4.05724 4.30268 4.18176
# Velocity P-wave (km/s) = 7.61878 8.73098 8.19377
#
# Compressibility (1/GPa) = 0.01398159
#
# Stress axis : x y z
#
# Youngs Moduli (GPa) = 133.48472 119.19151 48.30541
#
# Poissons Ratio (x) = 0.34900 0.15731
# Poissons Ratio (y) = 0.39085 0.24714
# Poissons Ratio (z) = 0.43470 0.60980
#
# Static dielectric constant tensor:
#      x y z
#    x 1.689860 0.000000 0.000000 
#    y 0.000000 1.704330 0.000000 
#    z 0.000000 0.000000 1.711690 
# 
# From -- ./inp_files/19646.got.cif
#   From: 2010.05.17/outbox.cif.g08.bks.cpg/sg21_10_cif.got.tgz:19646.got - 2010.06.03 23:14:55.
