data_PCOD9323683
_publ_section_title
;
Structure prediction by ZEFSAII (Michael W. Deem and Ramdas Pophale) SiO2 
 PCOD9323683
Probable space group: C 2 2 2
;
_chemical_formula_sum "Si O2"
_cell_formula_units_Z 56
_cell_length_a 27.239008
_cell_length_b 14.133097
_cell_length_c 6.868523
_cell_angle_alpha 90.000000
_cell_angle_beta 90.000000
_cell_angle_gamma 90.000000
_cell_volume 2644.185892
_symmetry_space_group_name_H-M "C 2 2 2"
_symmetry_group_IT_number 21
_symmetry_cell_setting 'orthorhombic'
loop_
_space_group_symop_operation_xyz
x,y,z
-x,-y,z
x,-y,-z
-x,y,-z
1/2+x,1/2+y,z
1/2-x,1/2-y,z
1/2+x,1/2-y,-z
1/2-x,1/2+y,-z
loop_
_atom_site_type_symbol
_atom_site_label
_atom_site_fract_x
_atom_site_fract_y
_atom_site_fract_z
Si Si1 0.628941 0.368051 0.679830
Si Si2 0.744518 0.642043 0.906628
Si Si3 0.315857 0.184452 0.243342
Si Si4 0.637224 0.411944 0.227745
Si Si5 0.444387 0.306583 0.031839
Si Si6 0.401470 0.892564 0.024961
Si Si7 0.673512 0.089855 0.366360
O O1 0.667735 0.293756 0.770420
O O2 0.635340 0.373073 0.448443
O O3 0.632845 0.474846 0.757232
O O4 0.576466 0.328390 0.752683
O O5 0.750000 0.750000 0.832318
O O6 0.689570 0.610460 0.868436
O O7 0.780677 0.577123 0.778143
O O8 0.768853 0.651038 0.120706
O O9 0.312293 0.165799 0.471040
O O10 0.360684 0.127171 0.142596
O O11 0.593413 0.362703 0.108242
O O12 0.438535 0.194565 0.990855
O O13 0.500000 0.336836 0.000000
O O14 0.371896 0.884423 0.228542
O O15 0.419898 0.000000 0.000000
O O16 0.663033 0.000000 0.500000
#
# Coordination Sequence:
#
# PCOD9323683 Si02
#       7
#     8   8   8   8   8   8   8
#     4  10  23  43  72  94 130 175 215 273 338 395
#     4  11  24  39  57  94 134 175 221 265 307 384
#     4  10  21  41  62  95 135 179 215 257 321 385
#     4  11  24  45  66  98 130 172 222 277 330 394
#     4  11  25  45  69  96 125 168 222 286 344 401
#     4  10  20  40  65  96 134 169 217 266 329 396
#     4  11  22  38  64  96 133 181 215 262 315 395
#
# _framework density 21.178539000000001
#
# number of rings (size 3 to 8) (size 9 to 14) (size 15 to 20)
#    0.000    1.429    1.429    4.714    2.000    4.857 
#    5.143    1.429    0.000    0.000    0.000    0.000 
#    0.000    0.000    0.000    0.000    0.000    0.000 
#
# Total GULP energy -156482.995389 kJ/mol
# GULP energy per Si atom -5588.678407 kJ/mol
# Density = 2.113034 g / cm^3
# Si number density = 21.178539 Si / 1000 Ang^3
#
#
#
# Elastic Constant Matrix: (Units=GPa)
#
#
# Indices 1 2 3 4 5 6 
#
# 1 119.6462 30.1917 32.9145 0.0000 0.0000 0.0000
# 2 30.1917 125.6394 42.7247 0.0000 0.0000 0.0000
# 3 32.9145 42.7247 124.6553 0.0000 0.0000 0.0000
# 4 0.0000 0.0000 0.0000 39.1502 0.0000 0.0000
# 5 0.0000 0.0000 0.0000 0.0000 9.0632 0.0000
# 6 0.0000 0.0000 0.0000 0.0000 0.0000 9.9071
#
#
#
# Elastic Compliance Matrix: (Units=1/GPa)
#
#
# Indices 1 2 3 4 5 6 
#
# 1 0.009282 -0.001581 -0.001909 0.000000 0.000000 0.000000
# 2 -0.001581 0.009279 -0.002763 0.000000 0.000000 0.000000
# 3 -0.001909 -0.002763 0.009473 0.000000 0.000000 0.000000
# 4 0.000000 0.000000 0.000000 0.025543 0.000000 0.000000
# 5 0.000000 0.000000 0.000000 0.000000 0.110336 0.000000
# 6 0.000000 0.000000 0.000000 0.000000 0.000000 0.100938
#
#
# Mechanical properties :
#
#
# Convention : Reuss Voigt Hill
#
# Bulk Modulus (GPa) = 64.39962 64.62252 64.51107
# Shear Modulus (GPa) = 17.69708 29.23143 23.46426
#
# Velocity S-wave (km/s) = 2.89383 3.71919 3.33216
# Velocity P-wave (km/s) = 6.45288 7.00161 6.73284
#
# Compressibility (1/GPa) = 0.01552804
#
# Stress axis : x y z
#
# Youngs Moduli (GPa) = 107.73348 107.77280 105.56276
#
# Poissons Ratio (x) = 0.17043 0.20151
# Poissons Ratio (y) = 0.17037 0.29164
# Poissons Ratio (z) = 0.20565 0.29774
#
# Static dielectric constant tensor:
#      x y z
#    x 1.720010 0.000000 0.000000 
#    y 0.000000 1.848170 0.000000 
#    z 0.000000 0.000000 1.794170 
# 
# From -- ./inp_files/7512.got.cif
#   From: 2010.05.17/outbox.cif.g08.bks.cpg/sg21_4_cif.got.tgz:7512.got - 2010.06.03 23:14:55.
