data_PCOD9323279
_publ_section_title
;
Structure prediction by ZEFSAII (Michael W. Deem and Ramdas Pophale) SiO2 
 PCOD9323279
Probable space group: C 2 2 2
;
_chemical_formula_sum "Si O2"
_cell_formula_units_Z 56
_cell_length_a 21.362251
_cell_length_b 14.874364
_cell_length_c 8.546330
_cell_angle_alpha 90.000000
_cell_angle_beta 90.000000
_cell_angle_gamma 90.000000
_cell_volume 2715.595479
_symmetry_space_group_name_H-M "C 2 2 2"
_symmetry_group_IT_number 21
_symmetry_cell_setting 'orthorhombic'
loop_
_space_group_symop_operation_xyz
x,y,z
-x,-y,z
x,-y,-z
-x,y,-z
1/2+x,1/2+y,z
1/2-x,1/2-y,z
1/2+x,1/2-y,-z
1/2-x,1/2+y,-z
loop_
_atom_site_type_symbol
_atom_site_label
_atom_site_fract_x
_atom_site_fract_y
_atom_site_fract_z
Si Si1 0.621313 0.321888 0.313589
Si Si2 0.381967 0.582434 0.617173
Si Si3 0.069954 0.639808 0.207801
Si Si4 0.208171 0.017048 0.814630
Si Si5 0.348093 0.978604 0.812419
Si Si6 0.067242 0.322203 0.165259
Si Si7 0.986660 0.873641 0.176668
O O1 0.621648 0.333398 0.501359
O O2 0.617426 0.217389 0.266712
O O3 0.673000 0.389419 0.236025
O O4 0.553104 0.352941 0.252637
O O5 0.374190 0.500000 0.500000
O O6 0.327603 0.567832 0.740365
O O7 0.445960 0.566447 0.709621
O O8 0.098521 0.544596 0.250378
O O9 0.996853 0.647922 0.252534
O O10 0.066066 0.652568 0.019272
O O11 0.279667 0.009008 0.757858
O O12 0.205556 0.000000 0.000000
O O13 0.371736 0.877136 0.779533
O O14 0.346694 0.000000 0.000000
O O15 0.058678 0.214795 0.168472
O O16 0.000000 0.902241 0.000000
#
# Coordination Sequence:
#
# PCOD9323279 Si02
#       7
#     8   8   8   8   8   8   8
#     4  10  20  35  56  83 118 153 192 237 294 353
#     4  10  23  39  57  80 120 158 193 239 298 362
#     4   9  16  31  57  89 118 147 187 237 299 351
#     4  10  21  36  55  81 114 155 201 244 285 348
#     4   9  18  32  56  87 119 151 191 245 292 340
#     4   9  16  31  56  91 120 142 183 245 298 344
#     4  11  19  35  61  90 117 145 191 246 299 354
#
# _framework density 20.621628999999999
#
# number of rings (size 3 to 8) (size 9 to 14) (size 15 to 20)
#    0.000    2.286    2.857    1.714    0.000    6.286 
#    0.000    4.286   15.714    0.000    0.000    4.000 
#    0.000    0.000    0.000    0.000    0.000    0.000 
#
# Total GULP energy -155883.781316 kJ/mol
# GULP energy per Si atom -5567.277904 kJ/mol
# Density = 2.057469 g / cm^3
# Si number density = 20.621629 Si / 1000 Ang^3
#
#
#
# Elastic Constant Matrix: (Units=GPa)
#
#
# Indices 1 2 3 4 5 6 
#
# 1 89.9119 28.4877 15.7415 0.0000 0.0000 0.0000
# 2 28.4877 75.7925 4.8838 0.0000 0.0000 0.0000
# 3 15.7415 4.8838 64.1606 0.0000 0.0000 0.0000
# 4 0.0000 0.0000 0.0000 -0.6408 0.0000 0.0000
# 5 0.0000 0.0000 0.0000 0.0000 -15.7026 0.0000
# 6 0.0000 0.0000 0.0000 0.0000 0.0000 20.1526
#
#
#
# Elastic Compliance Matrix: (Units=1/GPa)
#
#
# Indices 1 2 3 4 5 6 
#
# 1 0.013128 -0.004750 -0.002859 0.000000 0.000000 0.000000
# 2 -0.004750 0.014978 0.000025 0.000000 0.000000 0.000000
# 3 -0.002859 0.000025 0.016285 0.000000 0.000000 0.000000
# 4 0.000000 0.000000 0.000000 -1.560667 0.000000 0.000000
# 5 0.000000 0.000000 0.000000 0.000000 -0.063684 0.000000
# 6 0.000000 0.000000 0.000000 0.000000 0.000000 0.049622
#
#
# Mechanical properties :
#
#
# Convention : Reuss Voigt Hill
#
# Bulk Modulus (GPa) = 34.21974 36.45457 35.33715
# Shear Modulus (GPa) = -3.32131 12.81198 4.74534
#
# Velocity S-wave (km/s) = -1.27047 2.49527 1.51860
# Velocity P-wave (km/s) = 3.80500 5.10079 4.49978
#
# Compressibility (1/GPa) = 0.02922290
#
# Stress axis : x y z
#
# Youngs Moduli (GPa) = 76.17561 66.76630 61.40449
#
# Poissons Ratio (x) = 0.31714 0.17557
# Poissons Ratio (y) = 0.36183 -0.00155
# Poissons Ratio (z) = 0.21780 -0.00169
#
# Static dielectric constant tensor:
#      x y z
#    x 1.741190 0.000000 0.000000 
#    y 0.000000 1.941900 0.000000 
#    z 0.000000 0.000000 1.803190 
# 
# From -- ./inp_files/17677.got.cif
#   From: 2010.05.17/outbox.cif.g08.bks.cpg/sg21_9_cif.got.tgz:17677.got - 2010.06.03 23:14:55.
