data_PCOD9323216
_publ_section_title
;
Structure prediction by ZEFSAII (Michael W. Deem and Ramdas Pophale) SiO2 
 PCOD9323216
Probable space group: C 2 2 2
;
_chemical_formula_sum "Si O2"
_cell_formula_units_Z 48
_cell_length_a 22.310403
_cell_length_b 5.188598
_cell_length_c 22.016044
_cell_angle_alpha 90.000000
_cell_angle_beta 90.000000
_cell_angle_gamma 90.000000
_cell_volume 2548.570921
_symmetry_space_group_name_H-M "C 2 2 2"
_symmetry_group_IT_number 21
_symmetry_cell_setting 'orthorhombic'
loop_
_space_group_symop_operation_xyz
x,y,z
-x,-y,z
x,-y,-z
-x,y,-z
1/2+x,1/2+y,z
1/2-x,1/2-y,z
1/2+x,1/2-y,-z
1/2-x,1/2+y,-z
loop_
_atom_site_type_symbol
_atom_site_label
_atom_site_fract_x
_atom_site_fract_y
_atom_site_fract_z
Si Si1 0.708091 0.000958 0.067058
Si Si2 0.317122 0.856553 0.315750
Si Si3 0.932346 0.247617 0.527265
Si Si4 0.887542 0.853591 0.344096
Si Si5 0.628594 0.862058 0.818573
Si Si6 0.437214 0.640406 0.790862
O O1 0.750000 0.250000 0.066627
O O2 0.664408 0.041361 0.123252
O O3 0.750000 0.750000 0.074278
O O4 0.678347 0.000000 0.000000
O O5 0.250000 0.750000 0.322861
O O6 0.360124 0.640195 0.345766
O O7 0.332874 0.877223 0.243737
O O8 0.335010 0.137664 0.341054
O O9 0.902922 0.500000 0.500000
O O10 0.929283 0.220378 0.599230
O O11 0.000000 0.248294 0.500000
O O12 0.900614 0.000000 0.500000
O O13 0.923717 0.846724 0.281121
O O14 0.609021 0.563447 0.821147
O O15 0.574220 0.067544 0.812033
O O16 0.500000 0.500000 0.800792
#
# Coordination Sequence:
#
# PCOD9323216 Si02
#       6
#     8   8   8   8   8   8
#     4  10  20  34  56  85 115 149 187 236 288 333
#     4  10  20  35  57  81 109 145 179 222 273 330
#     4  10  21  36  55  81 105 138 171 221 278 330
#     4  10  21  36  55  83 110 137 181 224 277 326
#     4  10  20  35  54  83 111 147 186 228 281 333
#     4  10  21  35  55  80 112 148 181 232 284 329
#
# _framework density 18.834083
#
# number of rings (size 3 to 8) (size 9 to 14) (size 15 to 20)
#    0.000    2.000    0.000    3.500    2.333    2.667 
#    6.000    0.000    0.000   13.000    0.000    0.000 
#    0.000    0.000    0.000    0.000    0.000    0.000 
#
# Total GULP energy -133747.603420 kJ/mol
# GULP energy per Si atom -5572.816809 kJ/mol
# Density = 1.879122 g / cm^3
# Si number density = 18.834083 Si / 1000 Ang^3
#
#
#
# Elastic Constant Matrix: (Units=GPa)
#
#
# Indices 1 2 3 4 5 6 
#
# 1 45.2616 -2.0867 36.7562 0.0000 0.0000 0.0000
# 2 -2.0867 128.1675 33.5276 0.0000 0.0000 0.0000
# 3 36.7562 33.5276 111.2246 0.0000 0.0000 0.0000
# 4 0.0000 0.0000 0.0000 25.1465 0.0000 0.0000
# 5 0.0000 0.0000 0.0000 0.0000 24.5001 0.0000
# 6 0.0000 0.0000 0.0000 0.0000 0.0000 15.2178
#
#
#
# Elastic Compliance Matrix: (Units=1/GPa)
#
#
# Indices 1 2 3 4 5 6 
#
# 1 0.031599 0.003524 -0.011505 0.000000 0.000000 0.000000
# 2 0.003524 0.008863 -0.003836 0.000000 0.000000 0.000000
# 3 -0.011505 -0.003836 0.013949 0.000000 0.000000 0.000000
# 4 0.000000 0.000000 0.000000 0.039767 0.000000 0.000000
# 5 0.000000 0.000000 0.000000 0.000000 0.040816 0.000000
# 6 0.000000 0.000000 0.000000 0.000000 0.000000 0.065712
#
#
# Mechanical properties :
#
#
# Convention : Reuss Voigt Hill
#
# Bulk Modulus (GPa) = 32.49138 46.78311 39.63725
# Shear Modulus (GPa) = 21.31282 27.40331 24.35807
#
# Velocity S-wave (km/s) = 3.36759 3.81856 3.60015
# Velocity P-wave (km/s) = 5.69295 6.65849 6.19456
#
# Compressibility (1/GPa) = 0.03077739
#
# Stress axis : x y z
#
# Youngs Moduli (GPa) = 31.64643 112.82589 71.68868
#
# Poissons Ratio (x) = -0.39760 0.82476
# Poissons Ratio (y) = -0.11152 0.27502
# Poissons Ratio (z) = 0.36409 0.43284
#
# Static dielectric constant tensor:
#      x y z
#    x 1.654450 0.000000 0.000000 
#    y 0.000000 1.676320 0.000000 
#    z 0.000000 0.000000 1.661500 
# 
# From -- ./inp_files/37779.got.cif
#   From: 2010.05.17/outbox.cif.g08.bks.cpg/sg21_19_cif.got.tgz:37779.got - 2010.06.03 23:14:55.
