data_PCOD9323880
_publ_section_title
;
Structure prediction by ZEFSAII (Michael W. Deem and Ramdas Pophale) SiO2 
 PCOD9323880
Probable space group: C 2 2 2
;
_chemical_formula_sum "Si O2"
_cell_formula_units_Z 38
_cell_length_a 15.697487
_cell_length_b 5.183567
_cell_length_c 20.914958
_cell_angle_alpha 90.000000
_cell_angle_beta 90.000000
_cell_angle_gamma 90.000000
_cell_volume 1701.828707
_symmetry_space_group_name_H-M "C 2 2 2"
_symmetry_group_IT_number 21
_symmetry_cell_setting 'orthorhombic'
loop_
_space_group_symop_operation_xyz
x,y,z
-x,-y,z
x,-y,-z
-x,y,-z
1/2+x,1/2+y,z
1/2-x,1/2-y,z
1/2+x,1/2-y,-z
1/2-x,1/2+y,-z
loop_
_atom_site_type_symbol
_atom_site_label
_atom_site_fract_x
_atom_site_fract_y
_atom_site_fract_z
Si Si1 0.194686 0.500000 0.500000
Si Si2 0.896367 0.010704 0.723036
Si Si3 0.500000 0.500000 0.500000
Si Si4 0.102384 0.503295 0.203722
Si Si5 0.415596 0.149109 0.394806
Si Si6 0.809915 0.497520 0.070013
O O1 0.250000 0.250000 0.486704
O O2 0.143878 0.548300 0.433184
O O3 0.867737 0.728449 0.746871
O O4 0.867353 0.221846 0.774431
O O5 0.875841 0.155156 0.656406
O O6 0.000000 0.000000 0.721915
O O7 0.446152 0.321723 0.453822
O O8 0.130991 0.539826 0.131311
O O9 0.000000 0.500000 0.206408
O O10 0.500000 0.000000 0.368661
O O11 0.750000 0.250000 0.068426
O O12 0.750000 0.750000 0.076883
O O13 0.853826 0.500000 0.000000
#
# Coordination Sequence:
#
# PCOD9323880 Si02
#       6
#     4   8   2   8   8   8
#     4  12  28  44  61  93 138 166 200 278 352 386
#     4  10  21  36  62  92 123 155 203 264 304 372
#     4  12  20  36  72  96 116 150 236 282 306 358
#     4  10  21  38  60  92 127 160 196 251 321 364
#     4  12  23  41  68  95 117 167 228 266 314 391
#     4  10  21  39  64  92 124 166 214 257 298 364
#
# _framework density 22.328921000000001
#
# number of rings (size 3 to 8) (size 9 to 14) (size 15 to 20)
#    0.000    1.263    3.158    3.789    0.000    0.421 
#    0.000    4.211    0.000   10.105    0.000    0.000 
#    0.000    0.000    0.000    0.000    0.000    0.000 
#
# Total GULP energy -106108.818179 kJ/mol
# GULP energy per Si atom -5584.674641 kJ/mol
# Density = 2.227810 g / cm^3
# Si number density = 22.328921 Si / 1000 Ang^3
#
#
#
# Elastic Constant Matrix: (Units=GPa)
#
#
# Indices 1 2 3 4 5 6 
#
# 1 25.8905 8.0500 19.9243 0.0000 0.0000 0.0000
# 2 8.0500 119.6759 20.2610 0.0000 0.0000 0.0000
# 3 19.9243 20.2610 157.4221 0.0000 0.0000 0.0000
# 4 0.0000 0.0000 0.0000 34.1026 0.0000 0.0000
# 5 0.0000 0.0000 0.0000 0.0000 37.0746 0.0000
# 6 0.0000 0.0000 0.0000 0.0000 0.0000 18.7339
#
#
#
# Elastic Compliance Matrix: (Units=1/GPa)
#
#
# Indices 1 2 3 4 5 6 
#
# 1 0.043268 -0.002027 -0.005215 0.000000 0.000000 0.000000
# 2 -0.002027 0.008637 -0.000855 0.000000 0.000000 0.000000
# 3 -0.005215 -0.000855 0.007122 0.000000 0.000000 0.000000
# 4 0.000000 0.000000 0.000000 0.029323 0.000000 0.000000
# 5 0.000000 0.000000 0.000000 0.000000 0.026973 0.000000
# 6 0.000000 0.000000 0.000000 0.000000 0.000000 0.053379
#
#
# Mechanical properties :
#
#
# Convention : Reuss Voigt Hill
#
# Bulk Modulus (GPa) = 23.34705 44.38437 33.86571
# Shear Modulus (GPa) = 25.10345 34.96576 30.03460
#
# Velocity S-wave (km/s) = 3.35663 3.96149 3.67154
# Velocity P-wave (km/s) = 5.04988 6.39103 5.75962
#
# Compressibility (1/GPa) = 0.04283196
#
# Stress axis : x y z
#
# Youngs Moduli (GPa) = 23.11169 115.78052 140.40051
#
# Poissons Ratio (x) = 0.23474 0.73224
# Poissons Ratio (y) = 0.04686 0.12005
# Poissons Ratio (z) = 0.12054 0.09899
#
# Static dielectric constant tensor:
#      x y z
#    x 2.054430 0.000000 0.000000 
#    y 0.000000 1.860200 0.000000 
#    z 0.000000 0.000000 1.830320 
# 
# From -- ./inp_files/36833.got.cif
#   From: 2010.05.17/outbox.cif.g08.bks.cpg/sg21_19_cif.got.tgz:36833.got - 2010.06.03 23:14:55.
