data_PCOD9323531
_publ_section_title
;
Structure prediction by ZEFSAII (Michael W. Deem and Ramdas Pophale) SiO2 
 PCOD9323531
Probable space group: C 2 2 2
;
_chemical_formula_sum "Si O2"
_cell_formula_units_Z 48
_cell_length_a 19.686530
_cell_length_b 13.045141
_cell_length_c 10.563432
_cell_angle_alpha 90.000000
_cell_angle_beta 90.000000
_cell_angle_gamma 90.000000
_cell_volume 2712.832574
_symmetry_space_group_name_H-M "C 2 2 2"
_symmetry_group_IT_number 21
_symmetry_cell_setting 'orthorhombic'
loop_
_space_group_symop_operation_xyz
x,y,z
-x,-y,z
x,-y,-z
-x,y,-z
1/2+x,1/2+y,z
1/2-x,1/2-y,z
1/2+x,1/2-y,-z
1/2-x,1/2+y,-z
loop_
_atom_site_type_symbol
_atom_site_label
_atom_site_fract_x
_atom_site_fract_y
_atom_site_fract_z
Si Si1 0.502733 0.227307 0.148063
Si Si2 0.638012 0.881295 0.135520
Si Si3 0.646479 0.886090 0.835061
Si Si4 0.814546 0.886528 0.461135
Si Si5 0.750000 0.750000 0.260352
Si Si6 0.250000 0.250000 0.673882
Si Si7 0.030479 0.885129 0.630116
O O1 0.440403 0.147906 0.154861
O O2 0.573480 0.170502 0.181096
O O3 0.488059 0.317452 0.248271
O O4 0.500000 0.262829 0.000000
O O5 0.685035 0.789648 0.185433
O O6 0.648150 0.993027 0.197639
O O7 0.655246 0.885805 0.986808
O O8 0.704535 0.824844 0.760380
O O9 0.768372 0.843876 0.350153
O O10 0.801045 0.813186 0.581714
O O11 0.889978 0.889272 0.402757
O O12 0.795410 0.000000 0.500000
O O13 0.000000 0.839896 0.500000
O O14 0.000000 0.000000 0.644874
#
# Coordination Sequence:
#
# PCOD9323531 Si02
#       7
#     8   8   8   8   4   4   8
#     4  10  21  39  63  89 119 154 203 251 299 355
#     4  10  20  38  60  88 116 158 195 240 301 353
#     4  10  21  37  61  87 120 153 195 245 297 358
#     4  11  22  38  58  86 114 158 198 238 294 353
#     4  11  21  36  62  82 121 151 196 244 286 361
#     4  11  23  38  60  88 123 153 198 248 296 359
#     4  11  21  37  62  85 118 159 199 244 299 359
#
# _framework density 17.693681999999999
#
# number of rings (size 3 to 8) (size 9 to 14) (size 15 to 20)
#    0.000    1.500    3.333    3.000    0.000    2.333 
#    0.000    0.000    0.000    1.000    0.000    0.000 
#    0.000    0.000    0.000    0.000    0.000    0.000 
#
# Total GULP energy -133776.001737 kJ/mol
# GULP energy per Si atom -5574.000072 kJ/mol
# Density = 1.765341 g / cm^3
# Si number density = 17.693682 Si / 1000 Ang^3
#
#
#
# Elastic Constant Matrix: (Units=GPa)
#
#
# Indices 1 2 3 4 5 6 
#
# 1 90.6204 38.5243 41.4073 0.0000 0.0000 0.0000
# 2 38.5243 120.3540 64.9504 0.0000 0.0000 0.0000
# 3 41.4073 64.9504 84.7694 0.0000 0.0000 0.0000
# 4 0.0000 0.0000 0.0000 -3.2044 0.0000 0.0000
# 5 0.0000 0.0000 0.0000 0.0000 20.8457 0.0000
# 6 0.0000 0.0000 0.0000 0.0000 0.0000 26.0268
#
#
#
# Elastic Compliance Matrix: (Units=1/GPa)
#
#
# Indices 1 2 3 4 5 6 
#
# 1 0.014339 -0.001381 -0.005946 0.000000 0.000000 0.000000
# 2 -0.001381 0.014299 -0.010282 0.000000 0.000000 0.000000
# 3 -0.005946 -0.010282 0.022579 0.000000 0.000000 0.000000
# 4 0.000000 0.000000 0.000000 -0.312067 0.000000 0.000000
# 5 0.000000 0.000000 0.000000 0.000000 0.047971 0.000000
# 6 0.000000 0.000000 0.000000 0.000000 0.000000 0.038422
#
#
# Mechanical properties :
#
#
# Convention : Reuss Voigt Hill
#
# Bulk Modulus (GPa) = 62.49978 65.05641 63.77810
# Shear Modulus (GPa) = -37.34003 18.79107 -9.27448
#
# Velocity S-wave (km/s) = -4.59885 3.26240 -2.29196
# Velocity P-wave (km/s) = 2.68341 7.14416 5.39628
#
# Compressibility (1/GPa) = 0.01600006
#
# Stress axis : x y z
#
# Youngs Moduli (GPa) = 69.73954 69.93254 44.28870
#
# Poissons Ratio (x) = 0.09657 0.26335
# Poissons Ratio (y) = 0.09630 0.45537
# Poissons Ratio (z) = 0.41468 0.71903
#
# Static dielectric constant tensor:
#      x y z
#    x 1.675090 0.000000 0.000000 
#    y 0.000000 1.604130 0.000000 
#    z 0.000000 0.000000 1.598620 
# 
# From -- ./inp_files/16477.got.cif
#   From: 2010.05.17/outbox.cif.g08.bks.cpg/sg21_9_cif.got.tgz:16477.got - 2010.06.03 23:14:55.
