data_PCOD9323988
_publ_section_title
;
Structure prediction by ZEFSAII (Michael W. Deem and Ramdas Pophale) SiO2 
 PCOD9323988
Probable space group: C 2 2 2
;
_chemical_formula_sum "Si O2"
_cell_formula_units_Z 58
_cell_length_a 5.235128
_cell_length_b 19.201007
_cell_length_c 27.977708
_cell_angle_alpha 90.000000
_cell_angle_beta 90.000000
_cell_angle_gamma 90.000000
_cell_volume 2812.311637
_symmetry_space_group_name_H-M "C 2 2 2"
_symmetry_group_IT_number 21
_symmetry_cell_setting 'orthorhombic'
loop_
_space_group_symop_operation_xyz
x,y,z
-x,-y,z
x,-y,-z
-x,y,-z
1/2+x,1/2+y,z
1/2-x,1/2-y,z
1/2+x,1/2-y,-z
1/2-x,1/2+y,-z
loop_
_atom_site_type_symbol
_atom_site_label
_atom_site_fract_x
_atom_site_fract_y
_atom_site_fract_z
Si Si1 0.488610 0.794146 0.880087
Si Si2 0.499935 0.703632 0.443720
Si Si3 0.950411 0.923256 0.628100
Si Si4 0.000000 0.000000 0.000000
Si Si5 0.183774 0.565839 0.081602
Si Si6 0.729727 0.457349 0.186459
Si Si7 0.594349 0.820364 0.773051
Si Si8 0.554174 0.078777 0.692469
O O1 0.750000 0.750000 0.881319
O O2 0.529641 0.862879 0.911663
O O3 0.444418 0.811649 0.823561
O O4 0.250000 0.750000 0.897343
O O5 0.500000 0.684954 0.500000
O O6 0.250000 0.750000 0.434510
O O7 0.491065 0.636355 0.410593
O O8 0.750000 0.750000 0.434027
O O9 0.674452 0.914843 0.653470
O O10 0.170885 0.919694 0.668044
O O11 0.000000 0.000000 0.606469
O O12 0.846054 0.947999 0.965329
O O13 0.337050 0.561326 0.131393
O O14 0.000000 0.500000 0.081993
O O15 0.500000 0.500000 0.207960
O O16 0.725406 0.384565 0.213284
O O17 0.000000 0.500000 0.186017
O O18 0.750000 0.750000 0.762406
O O19 0.450017 0.856112 0.729002
O O20 0.500000 0.000000 0.713025
#
# Coordination Sequence:
#
# PCOD9323988 Si02
#       8
#     8   8   8   2   8   8   8   8
#     4  10  24  44  68  93 131 169 208 255 312 371
#     4  10  21  38  61  90 122 157 205 262 319 374
#     4  10  22  40  61  85 120 166 209 256 310 371
#     4  12  22  40  72 102 132 152 220 264 318 368
#     4  10  23  39  68  96 127 161 203 258 306 369
#     4  10  21  39  62  89 121 162 203 243 309 367
#     4  10  23  38  61  93 123 161 211 260 303 363
#     4  10  22  39  58  86 127 165 207 255 312 373
#
# _framework density 20.623602000000002
#
# number of rings (size 3 to 8) (size 9 to 14) (size 15 to 20)
#    0.000    1.931    0.690    1.448    1.931   14.069 
#    0.000    0.000    3.034    4.966    0.000    0.000 
#    0.000    0.000    0.000    0.000    0.000    0.000 
#
# Total GULP energy -161872.948943 kJ/mol
# GULP energy per Si atom -5581.825826 kJ/mol
# Density = 2.057666 g / cm^3
# Si number density = 20.623602 Si / 1000 Ang^3
#
#
#
# Elastic Constant Matrix: (Units=GPa)
#
#
# Indices 1 2 3 4 5 6 
#
# 1 80.7301 40.0791 7.8464 0.0000 0.0000 0.0000
# 2 40.0791 171.6074 55.1672 0.0000 0.0000 0.0000
# 3 7.8464 55.1672 63.7282 0.0000 0.0000 0.0000
# 4 0.0000 0.0000 0.0000 47.4113 0.0000 0.0000
# 5 0.0000 0.0000 0.0000 0.0000 -5.6566 0.0000
# 6 0.0000 0.0000 0.0000 0.0000 0.0000 33.0620
#
#
#
# Elastic Compliance Matrix: (Units=1/GPa)
#
#
# Indices 1 2 3 4 5 6 
#
# 1 0.014121 -0.003795 0.001547 0.000000 0.000000 0.000000
# 2 -0.003795 0.009094 -0.007405 0.000000 0.000000 0.000000
# 3 0.001547 -0.007405 0.021912 0.000000 0.000000 0.000000
# 4 0.000000 0.000000 0.000000 0.021092 0.000000 0.000000
# 5 0.000000 0.000000 0.000000 0.000000 -0.176785 0.000000
# 6 0.000000 0.000000 0.000000 0.000000 0.000000 0.030246
#
#
# Mechanical properties :
#
#
# Convention : Reuss Voigt Hill
#
# Bulk Modulus (GPa) = 38.73074 58.02792 48.37933
# Shear Modulus (GPa) = -95.40747 29.16155 -33.12296
#
# Velocity S-wave (km/s) = -6.80895 3.76438 -4.01193
# Velocity P-wave (km/s) = 6.55706 6.86235 1.43122
#
# Compressibility (1/GPa) = 0.02581928
#
# Stress axis : x y z
#
# Youngs Moduli (GPa) = 70.81779 109.96004 45.63773
#
# Poissons Ratio (x) = 0.41731 -0.07059
# Poissons Ratio (y) = 0.26876 0.33796
# Poissons Ratio (z) = -0.10954 0.81428
#
# Static dielectric constant tensor:
#      x y z
#    x 1.800530 0.000000 0.000000 
#    y 0.000000 1.779150 0.000000 
#    z 0.000000 0.000000 1.778770 
# 
# From -- ./inp_files/39155.got.cif
#   From: 2010.05.17/outbox.cif.g08.bks.cpg/sg21_20_cif.got.tgz:39155.got - 2010.06.03 23:14:55.
