data_PCOD9323554
_publ_section_title
;
Structure prediction by ZEFSAII (Michael W. Deem and Ramdas Pophale) SiO2 
 PCOD9323554
Probable space group: C 2 2 2
;
_chemical_formula_sum "Si O2"
_cell_formula_units_Z 44
_cell_length_a 16.353776
_cell_length_b 11.480106
_cell_length_c 11.718723
_cell_angle_alpha 90.000000
_cell_angle_beta 90.000000
_cell_angle_gamma 90.000000
_cell_volume 2200.109173
_symmetry_space_group_name_H-M "C 2 2 2"
_symmetry_group_IT_number 21
_symmetry_cell_setting 'orthorhombic'
loop_
_space_group_symop_operation_xyz
x,y,z
-x,-y,z
x,-y,-z
-x,y,-z
1/2+x,1/2+y,z
1/2-x,1/2-y,z
1/2+x,1/2-y,-z
1/2-x,1/2+y,-z
loop_
_atom_site_type_symbol
_atom_site_label
_atom_site_fract_x
_atom_site_fract_y
_atom_site_fract_z
Si Si1 0.648268 0.675390 0.815328
Si Si2 0.593440 0.140308 0.492796
Si Si3 0.531095 0.698107 0.122700
Si Si4 0.803104 0.400593 0.270713
Si Si5 0.371614 0.500000 0.000000
Si Si6 0.331312 0.825196 0.734017
O O1 0.550631 0.671238 0.805814
O O2 0.706159 0.622872 0.716793
O O3 0.670045 0.811244 0.828485
O O4 0.672247 0.595731 0.923565
O O5 0.500000 0.185018 0.500000
O O6 0.643821 0.150066 0.375809
O O7 0.642519 0.187628 0.601446
O O8 0.587637 0.000000 0.500000
O O9 0.575713 0.578554 0.086787
O O10 0.594400 0.779082 0.188452
O O11 0.500000 0.747205 0.000000
O O12 0.818229 0.536149 0.249977
O O13 0.250000 0.750000 0.757578
#
# Coordination Sequence:
#
# PCOD9323554 Si02
#       6
#     8   8   8   8   4   8
#     4  10  20  38  63  87 124 169 219 261 316 404
#     4   9  19  38  64  89 127 169 209 264 340 399
#     4  10  21  41  65  90 127 178 216 262 334 396
#     4  10  22  39  61  97 127 169 217 273 337 392
#     4  10  21  42  64  88 126 181 214 259 338 392
#     4  11  23  39  64  97 131 168 220 281 324 395
#
# _framework density 19.999008
#
# number of rings (size 3 to 8) (size 9 to 14) (size 15 to 20)
#    0.000    2.000    0.000    4.636    2.545    2.182 
#   26.182    2.727    0.000    0.000    0.000    0.000 
#    0.000    0.000    0.000    0.000    0.000    0.000 
#
# Total GULP energy -122511.705222 kJ/mol
# GULP energy per Si atom -5568.713874 kJ/mol
# Density = 1.995349 g / cm^3
# Si number density = 19.999008 Si / 1000 Ang^3
#
#
#
# Elastic Constant Matrix: (Units=GPa)
#
#
# Indices 1 2 3 4 5 6 
#
# 1 155.4816 59.8354 65.9026 0.0000 0.0000 0.0000
# 2 59.8354 145.8347 59.1300 0.0000 0.0000 0.0000
# 3 65.9026 59.1300 73.6824 0.0000 0.0000 0.0000
# 4 0.0000 0.0000 0.0000 30.7445 0.0000 0.0000
# 5 0.0000 0.0000 0.0000 0.0000 26.7967 0.0000
# 6 0.0000 0.0000 0.0000 0.0000 0.0000 32.3481
#
#
#
# Elastic Compliance Matrix: (Units=1/GPa)
#
#
# Indices 1 2 3 4 5 6 
#
# 1 0.010412 -0.000735 -0.008722 0.000000 0.000000 0.000000
# 2 -0.000735 0.010216 -0.007541 0.000000 0.000000 0.000000
# 3 -0.008722 -0.007541 0.027425 0.000000 0.000000 0.000000
# 4 0.000000 0.000000 0.000000 0.032526 0.000000 0.000000
# 5 0.000000 0.000000 0.000000 0.000000 0.037318 0.000000
# 6 0.000000 0.000000 0.000000 0.000000 0.000000 0.030914
#
#
# Mechanical properties :
#
#
# Convention : Reuss Voigt Hill
#
# Bulk Modulus (GPa) = 71.14565 82.74829 76.94697
# Shear Modulus (GPa) = 26.66777 30.65325 28.66051
#
# Velocity S-wave (km/s) = 3.65561 3.91927 3.78973
# Velocity P-wave (km/s) = 7.31231 7.87064 7.59660
#
# Compressibility (1/GPa) = 0.01405567
#
# Stress axis : x y z
#
# Youngs Moduli (GPa) = 96.04670 97.88283 36.46373
#
# Poissons Ratio (x) = 0.07198 0.31804
# Poissons Ratio (y) = 0.07063 0.27497
# Poissons Ratio (z) = 0.83773 0.73812
#
# Static dielectric constant tensor:
#      x y z
#    x 1.776930 0.000000 0.000000 
#    y 0.000000 1.710160 0.000000 
#    z 0.000000 0.000000 1.769390 
# 
# From -- ./inp_files/25981.got.cif
#   From: 2010.05.17/outbox.cif.g08.bks.cpg/sg21_13_cif.got.tgz:25981.got - 2010.06.03 23:14:55.
