data_PCOD9323690
_publ_section_title
;
Structure prediction by ZEFSAII (Michael W. Deem and Ramdas Pophale) SiO2 
 PCOD9323690
Probable space group: C 2 2 2
;
_chemical_formula_sum "Si O2"
_cell_formula_units_Z 64
_cell_length_a 9.470948
_cell_length_b 24.687067
_cell_length_c 13.524642
_cell_angle_alpha 90.000000
_cell_angle_beta 90.000000
_cell_angle_gamma 90.000000
_cell_volume 3162.195570
_symmetry_space_group_name_H-M "C 2 2 2"
_symmetry_group_IT_number 21
_symmetry_cell_setting 'orthorhombic'
loop_
_space_group_symop_operation_xyz
x,y,z
-x,-y,z
x,-y,-z
-x,y,-z
1/2+x,1/2+y,z
1/2-x,1/2-y,z
1/2+x,1/2-y,-z
1/2-x,1/2+y,-z
loop_
_atom_site_type_symbol
_atom_site_label
_atom_site_fract_x
_atom_site_fract_y
_atom_site_fract_z
Si Si1 0.922702 0.154527 0.103311
Si Si2 0.726323 0.630392 0.364156
Si Si3 0.610432 0.873696 0.907457
Si Si4 0.531999 0.286918 0.715903
Si Si5 0.509946 0.837081 0.699099
Si Si6 0.840863 0.505901 0.881886
Si Si7 0.216843 0.186281 0.572597
Si Si8 0.415155 0.555539 0.782736
O O1 0.756263 0.158141 0.077518
O O2 0.963057 0.202706 0.177923
O O3 0.990599 0.100409 0.158016
O O4 0.000000 0.158226 0.000000
O O5 0.674929 0.679757 0.293663
O O6 0.702766 0.650766 0.474826
O O7 0.636721 0.580903 0.320722
O O8 0.892979 0.623947 0.347455
O O9 0.528783 0.849990 0.813954
O O10 0.679585 0.930326 0.870192
O O11 0.500000 0.879583 0.000000
O O12 0.541624 0.224651 0.689076
O O13 0.424672 0.313067 0.636591
O O14 0.657808 0.837048 0.640875
O O15 0.727305 0.463765 0.840262
O O16 0.000000 0.500000 0.842714
O O17 0.841350 0.500000 0.000000
O O18 0.250000 0.250000 0.548506
O O19 0.500000 0.500000 0.770835
#
# Coordination Sequence:
#
# PCOD9323690 Si02
#       8
#     8   8   8   8   8   8   8   8
#     4  11  24  40  63  90 127 171 219 257 320 389
#     4  11  23  38  65  98 124 161 218 270 320 380
#     4  12  24  39  61  92 127 168 213 263 323 386
#     4  10  22  41  63  93 132 172 208 262 315 386
#     4  11  23  40  63  95 135 166 211 263 320 384
#     4  11  21  37  61  88 123 162 217 267 320 377
#     4  10  20  40  68  94 127 172 214 260 319 384
#     4  11  24  41  63  94 129 167 212 278 327 383
#
# _framework density 20.239104000000001
#
# number of rings (size 3 to 8) (size 9 to 14) (size 15 to 20)
#    0.000    1.125    3.750    3.375    3.500    2.500 
#    0.000    0.000    0.000   12.750    0.000    7.875 
#    0.000    0.000    0.000    0.000    0.000    0.000 
#
# Total GULP energy -178497.644629 kJ/mol
# GULP energy per Si atom -5578.051395 kJ/mol
# Density = 2.019304 g / cm^3
# Si number density = 20.239104 Si / 1000 Ang^3
#
#
#
# Elastic Constant Matrix: (Units=GPa)
#
#
# Indices 1 2 3 4 5 6 
#
# 1 110.5967 9.7756 38.4128 0.0000 0.0000 0.0000
# 2 9.7756 7.8811 12.3855 0.0000 0.0000 0.0000
# 3 38.4128 12.3855 114.8721 0.0000 0.0000 0.0000
# 4 0.0000 0.0000 0.0000 17.1789 0.0000 0.0000
# 5 0.0000 0.0000 0.0000 0.0000 39.1024 0.0000
# 6 0.0000 0.0000 0.0000 0.0000 0.0000 22.4390
#
#
#
# Elastic Compliance Matrix: (Units=1/GPa)
#
#
# Indices 1 2 3 4 5 6 
#
# 1 0.010764 -0.009265 -0.002601 0.000000 0.000000 0.000000
# 2 -0.009265 0.160747 -0.014234 0.000000 0.000000 0.000000
# 3 -0.002601 -0.014234 0.011110 0.000000 0.000000 0.000000
# 4 0.000000 0.000000 0.000000 0.058211 0.000000 0.000000
# 5 0.000000 0.000000 0.000000 0.000000 0.025574 0.000000
# 6 0.000000 0.000000 0.000000 0.000000 0.000000 0.044565
#
#
# Mechanical properties :
#
#
# Convention : Reuss Voigt Hill
#
# Bulk Modulus (GPa) = 7.66736 39.38862 23.52799
# Shear Modulus (GPa) = 12.29580 27.26244 19.77912
#
# Velocity S-wave (km/s) = 2.46748 3.67416 3.12953
# Velocity P-wave (km/s) = 3.45175 6.12398 4.97080
#
# Compressibility (1/GPa) = 0.13042290
#
# Stress axis : x y z
#
# Youngs Moduli (GPa) = 92.90238 6.22096 90.01218
#
# Poissons Ratio (x) = 0.05764 0.23408
# Poissons Ratio (y) = 0.86071 1.28120
# Poissons Ratio (z) = 0.24159 0.08855
#
# Static dielectric constant tensor:
#      x y z
#    x 1.890920 0.000000 0.000000 
#    y 0.000000 1.770230 0.000000 
#    z 0.000000 0.000000 1.676790 
# 
# From -- ./inp_files/23129.got.cif
#   From: 2010.05.17/outbox.cif.g08.bks.cpg/sg21_12_cif.got.tgz:23129.got - 2010.06.03 23:14:55.
