data_PCOD9323654
_publ_section_title
;
Structure prediction by ZEFSAII (Michael W. Deem and Ramdas Pophale) SiO2 
 PCOD9323654
Probable space group: C 2 2 2
;
_chemical_formula_sum "Si O2"
_cell_formula_units_Z 40
_cell_length_a 19.092359
_cell_length_b 8.204077
_cell_length_c 10.977614
_cell_angle_alpha 90.000000
_cell_angle_beta 90.000000
_cell_angle_gamma 90.000000
_cell_volume 1719.480582
_symmetry_space_group_name_H-M "C 2 2 2"
_symmetry_group_IT_number 21
_symmetry_cell_setting 'orthorhombic'
loop_
_space_group_symop_operation_xyz
x,y,z
-x,-y,z
x,-y,-z
-x,y,-z
1/2+x,1/2+y,z
1/2-x,1/2-y,z
1/2+x,1/2-y,-z
1/2-x,1/2+y,-z
loop_
_atom_site_type_symbol
_atom_site_label
_atom_site_fract_x
_atom_site_fract_y
_atom_site_fract_z
Si Si1 0.604950 0.082502 0.378131
Si Si2 0.182275 0.826323 0.547354
Si Si3 0.176066 0.306379 0.977748
Si Si4 0.969997 0.318219 0.161733
Si Si5 0.384225 0.750665 0.777037
O O1 0.661270 0.206426 0.436290
O O2 0.547977 0.180693 0.304386
O O3 0.577630 0.000000 0.500000
O O4 0.623514 0.936707 0.281442
O O5 0.250000 0.750000 0.610683
O O6 0.125743 0.849105 0.653744
O O7 0.202363 0.000000 0.500000
O O8 0.250000 0.250000 0.920509
O O9 0.102907 0.276844 0.904684
O O10 0.178083 0.500000 0.000000
O O11 0.168813 0.226888 0.111924
O O12 0.000000 0.500000 0.128684
O O13 0.041257 0.217682 0.157777
#
# Coordination Sequence:
#
# PCOD9323654 Si02
#       5
#     8   8   8   8   8
#     4   9  19  35  62  97 125 168 224 277 325 394
#     4  11  23  41  62  94 139 182 222 277 346 409
#     4  12  24  42  67 104 138 175 226 284 344 404
#     4  10  20  39  71  98 127 180 233 272 328 415
#     4  10  21  40  68  97 129 176 232 276 329 405
#
# _framework density 23.262840000000001
#
# number of rings (size 3 to 8) (size 9 to 14) (size 15 to 20)
#    0.000    1.600    4.000    3.000    0.000   10.000 
#    7.200    2.000    0.000    1.200    0.000    0.000 
#    0.000    0.000    0.000    0.000    0.000    0.000 
#
# Total GULP energy -111372.101207 kJ/mol
# GULP energy per Si atom -5568.605060 kJ/mol
# Density = 2.320989 g / cm^3
# Si number density = 23.262840 Si / 1000 Ang^3
#
#
#
# Elastic Constant Matrix: (Units=GPa)
#
#
# Indices 1 2 3 4 5 6 
#
# 1 159.2845 24.2389 42.7810 0.0000 0.0000 0.0000
# 2 24.2389 30.2208 10.7472 0.0000 0.0000 0.0000
# 3 42.7810 10.7472 110.0459 0.0000 0.0000 0.0000
# 4 0.0000 0.0000 0.0000 -3.1147 0.0000 0.0000
# 5 0.0000 0.0000 0.0000 0.0000 43.1545 0.0000
# 6 0.0000 0.0000 0.0000 0.0000 0.0000 28.9315
#
#
#
# Elastic Compliance Matrix: (Units=1/GPa)
#
#
# Indices 1 2 3 4 5 6 
#
# 1 0.007761 -0.005337 -0.002496 0.000000 0.000000 0.000000
# 2 -0.005337 0.037950 -0.001632 0.000000 0.000000 0.000000
# 3 -0.002496 -0.001632 0.010217 0.000000 0.000000 0.000000
# 4 0.000000 0.000000 0.000000 -0.321060 0.000000 0.000000
# 5 0.000000 0.000000 0.000000 0.000000 0.023173 0.000000
# 6 0.000000 0.000000 0.000000 0.000000 0.000000 0.034564
#
#
# Mechanical properties :
#
#
# Convention : Reuss Voigt Hill
#
# Bulk Modulus (GPa) = 27.02746 50.56504 38.79625
# Shear Modulus (GPa) = -28.38751 28.57988 0.09619
#
# Velocity S-wave (km/s) = -3.49706 3.50889 0.20356
# Velocity P-wave (km/s) = 2.15926 6.18061 4.09497
#
# Compressibility (1/GPa) = 0.03699941
#
# Stress axis : x y z
#
# Youngs Moduli (GPa) = 128.85745 26.35012 97.87912
#
# Poissons Ratio (x) = 0.14063 0.24428
# Poissons Ratio (y) = 0.68769 0.15969
# Poissons Ratio (z) = 0.32159 0.04299
#
# Static dielectric constant tensor:
#      x y z
#    x 1.961370 0.000000 0.000000 
#    y 0.000000 2.099100 0.000000 
#    z 0.000000 0.000000 1.912350 
# 
# From -- ./inp_files/25807.got.cif
#   From: 2010.05.17/outbox.cif.g08.bks.cpg/sg21_13_cif.got.tgz:25807.got - 2010.06.03 23:14:55.
