data_PCOD9323319
_publ_section_title
;
Structure prediction by ZEFSAII (Michael W. Deem and Ramdas Pophale) SiO2 
 PCOD9323319
Probable space group: C 2 2 2
;
_chemical_formula_sum "Si O2"
_cell_formula_units_Z 46
_cell_length_a 7.930142
_cell_length_b 21.611067
_cell_length_c 13.512201
_cell_angle_alpha 90.000000
_cell_angle_beta 90.000000
_cell_angle_gamma 90.000000
_cell_volume 2315.705199
_symmetry_space_group_name_H-M "C 2 2 2"
_symmetry_group_IT_number 21
_symmetry_cell_setting 'orthorhombic'
loop_
_space_group_symop_operation_xyz
x,y,z
-x,-y,z
x,-y,-z
-x,y,-z
1/2+x,1/2+y,z
1/2-x,1/2-y,z
1/2+x,1/2-y,-z
1/2-x,1/2+y,-z
loop_
_atom_site_type_symbol
_atom_site_label
_atom_site_fract_x
_atom_site_fract_y
_atom_site_fract_z
Si Si1 0.214097 0.970920 0.312054
Si Si2 0.876097 0.643498 0.643294
Si Si3 0.500000 0.500000 0.500000
Si Si4 0.103991 0.898460 0.738712
Si Si5 0.918152 0.792275 0.105081
Si Si6 0.750000 0.250000 0.219361
Si Si7 0.764287 0.676532 0.425143
O O1 0.372899 0.926953 0.320202
O O2 0.127846 0.970490 0.420973
O O3 0.076933 0.931684 0.249891
O O4 0.223325 0.041240 0.275834
O O5 0.773149 0.689653 0.712861
O O6 0.797850 0.649347 0.533436
O O7 0.066660 0.665926 0.637338
O O8 0.131834 0.851442 0.828128
O O9 0.120081 0.857902 0.637534
O O10 0.750000 0.750000 0.094748
O O11 0.075692 0.758009 0.159166
O O12 0.000000 0.810267 0.000000
O O13 0.750000 0.750000 0.435397
#
# Coordination Sequence:
#
# PCOD9323319 Si02
#       7
#     8   8   2   8   8   4   8
#     4  10  20  35  59  86 119 175 212 260 316 388
#     4  11  22  36  60  90 132 174 217 260 329 388
#     4   8  16  32  52  82 118 164 212 246 294 384
#     4  10  21  40  61  86 126 163 215 264 322 394
#     4  12  25  45  71  98 126 168 220 280 349 407
#     4  12  22  42  66  94 136 170 212 284 330 406
#     4  11  23  36  56  95 133 178 213 267 322 395
#
# _framework density 19.864357999999999
#
# number of rings (size 3 to 8) (size 9 to 14) (size 15 to 20)
#    0.000    1.391    3.478    4.696    0.000    0.696 
#    0.000    3.478    0.000    0.000    0.000    1.217 
#    0.000    0.000    0.000    0.000    0.000    0.000 
#
# Total GULP energy -128273.404862 kJ/mol
# GULP energy per Si atom -5577.104559 kJ/mol
# Density = 1.981915 g / cm^3
# Si number density = 19.864358 Si / 1000 Ang^3
#
#
#
# Elastic Constant Matrix: (Units=GPa)
#
#
# Indices 1 2 3 4 5 6 
#
# 1 83.5021 26.3419 15.9456 0.0000 0.0000 0.0000
# 2 26.3419 138.2694 25.5782 0.0000 0.0000 0.0000
# 3 15.9456 25.5782 76.0266 0.0000 0.0000 0.0000
# 4 0.0000 0.0000 0.0000 7.4393 0.0000 0.0000
# 5 0.0000 0.0000 0.0000 0.0000 -14.8124 0.0000
# 6 0.0000 0.0000 0.0000 0.0000 0.0000 24.0874
#
#
#
# Elastic Compliance Matrix: (Units=1/GPa)
#
#
# Indices 1 2 3 4 5 6 
#
# 1 0.013027 -0.002108 -0.002023 0.000000 0.000000 0.000000
# 2 -0.002108 0.008053 -0.002267 0.000000 0.000000 0.000000
# 3 -0.002023 -0.002267 0.014340 0.000000 0.000000 0.000000
# 4 0.000000 0.000000 0.000000 0.134421 0.000000 0.000000
# 5 0.000000 0.000000 0.000000 0.000000 -0.067511 0.000000
# 6 0.000000 0.000000 0.000000 0.000000 0.000000 0.041516
#
#
# Mechanical properties :
#
#
# Convention : Reuss Voigt Hill
#
# Bulk Modulus (GPa) = 44.19996 48.16992 46.18494
# Shear Modulus (GPa) = 30.45372 18.67168 24.56270
#
# Velocity S-wave (km/s) = 3.91971 3.06920 3.52024
# Velocity P-wave (km/s) = 6.54100 6.07141 6.31058
#
# Compressibility (1/GPa) = 0.02262446
#
# Stress axis : x y z
#
# Youngs Moduli (GPa) = 76.76399 124.17420 69.73276
#
# Poissons Ratio (x) = 0.26170 0.14108
# Poissons Ratio (y) = 0.16178 0.15811
# Poissons Ratio (z) = 0.15531 0.28155
#
# Static dielectric constant tensor:
#      x y z
#    x 1.786790 0.000000 0.000000 
#    y 0.000000 1.721280 0.000000 
#    z 0.000000 0.000000 1.713720 
# 
# From -- ./inp_files/22819.got.cif
#   From: 2010.05.17/outbox.cif.g08.bks.cpg/sg21_12_cif.got.tgz:22819.got - 2010.06.03 23:14:55.
