data_PCOD9323618
_publ_section_title
;
Structure prediction by ZEFSAII (Michael W. Deem and Ramdas Pophale) SiO2 
 PCOD9323618
Probable space group: C 2 2 2
;
_chemical_formula_sum "Si O2"
_cell_formula_units_Z 26
_cell_length_a 5.616968
_cell_length_b 18.923903
_cell_length_c 11.333213
_cell_angle_alpha 90.000000
_cell_angle_beta 90.000000
_cell_angle_gamma 90.000000
_cell_volume 1204.663395
_symmetry_space_group_name_H-M "C 2 2 2"
_symmetry_group_IT_number 21
_symmetry_cell_setting 'orthorhombic'
loop_
_space_group_symop_operation_xyz
x,y,z
-x,-y,z
x,-y,-z
-x,y,-z
1/2+x,1/2+y,z
1/2-x,1/2-y,z
1/2+x,1/2-y,-z
1/2-x,1/2+y,-z
loop_
_atom_site_type_symbol
_atom_site_label
_atom_site_fract_x
_atom_site_fract_y
_atom_site_fract_z
Si Si1 0.501968 0.221550 0.138592
Si Si2 0.500000 0.500000 0.000000
Si Si3 0.158349 0.569344 0.815445
Si Si4 0.254101 0.418266 0.454279
O O1 0.250000 0.250000 0.188939
O O2 0.493162 0.137321 0.149141
O O3 0.750000 0.250000 0.190122
O O4 0.500000 0.242330 0.000000
O O5 0.346884 0.449470 0.084211
O O6 0.265417 0.582306 0.686727
O O7 0.000000 0.500000 0.804190
O O8 0.253362 0.500000 0.500000
O O9 0.500000 0.385172 0.500000
O O10 0.000000 0.388440 0.500000
#
# Coordination Sequence:
#
# PCOD9323618 Si02
#       4
#     8   2   8   8
#     4  10  24  43  64  92 141 187 223 265 343 431
#     4  12  26  36  66 114 148 168 228 314 370 392
#     4  12  25  41  69 104 141 177 237 297 347 418
#     4  10  20  39  62  96 127 178 224 279 336 412
#
# _framework density 21.582792000000001
#
# number of rings (size 3 to 8) (size 9 to 14) (size 15 to 20)
#    0.000    1.231    3.077    4.154   10.769    0.000 
#    0.000    0.000    0.000    3.692    0.000    0.000 
#    0.000    0.000    0.000    0.000    0.000    0.000 
#
# Total GULP energy -72638.630443 kJ/mol
# GULP energy per Si atom -5587.586957 kJ/mol
# Density = 2.153367 g / cm^3
# Si number density = 21.582792 Si / 1000 Ang^3
#
#
#
# Elastic Constant Matrix: (Units=GPa)
#
#
# Indices 1 2 3 4 5 6 
#
# 1 221.1362 59.7884 68.6047 0.0000 0.0000 0.0000
# 2 59.7884 83.3178 -6.9503 0.0000 0.0000 0.0000
# 3 68.6047 -6.9503 135.7000 0.0000 0.0000 0.0000
# 4 0.0000 0.0000 0.0000 5.4237 0.0000 0.0000
# 5 0.0000 0.0000 0.0000 0.0000 34.6132 0.0000
# 6 0.0000 0.0000 0.0000 0.0000 0.0000 24.1241
#
#
#
# Elastic Compliance Matrix: (Units=1/GPa)
#
#
# Indices 1 2 3 4 5 6 
#
# 1 0.007238 -0.005523 -0.003942 0.000000 0.000000 0.000000
# 2 -0.005523 0.016268 0.003626 0.000000 0.000000 0.000000
# 3 -0.003942 0.003626 0.009548 0.000000 0.000000 0.000000
# 4 0.000000 0.000000 0.000000 0.184377 0.000000 0.000000
# 5 0.000000 0.000000 0.000000 0.000000 0.028891 0.000000
# 6 0.000000 0.000000 0.000000 0.000000 0.000000 0.041452
#
#
# Mechanical properties :
#
#
# Convention : Reuss Voigt Hill
#
# Bulk Modulus (GPa) = 46.78478 75.89331 61.33904
# Shear Modulus (GPa) = 16.30900 34.07961 25.19431
#
# Velocity S-wave (km/s) = 2.75189 3.97800 3.42033
# Velocity P-wave (km/s) = 5.64102 7.50596 6.63930
#
# Compressibility (1/GPa) = 0.02137447
#
# Stress axis : x y z
#
# Youngs Moduli (GPa) = 138.15095 61.47020 104.73405
#
# Poissons Ratio (x) = 0.33951 0.41290
# Poissons Ratio (y) = 0.76303 -0.37971
# Poissons Ratio (z) = 0.54464 -0.22286
#
# Static dielectric constant tensor:
#      x y z
#    x 1.862860 0.000000 0.000000 
#    y 0.000000 1.746090 0.000000 
#    z 0.000000 0.000000 1.691170 
# 
# From -- ./inp_files/20310.got.cif
#   From: 2010.05.17/outbox.cif.g08.bks.cpg/sg21_11_cif.got.tgz:20310.got - 2010.06.03 23:14:55.
