data_PCOD9323061
_publ_section_title
;
Structure prediction by ZEFSAII (Michael W. Deem and Ramdas Pophale) SiO2 
 PCOD9323061
Probable space group: C 2 2 2
;
_chemical_formula_sum "Si O2"
_cell_formula_units_Z 44
_cell_length_a 9.003043
_cell_length_b 15.902401
_cell_length_c 14.444610
_cell_angle_alpha 90.000000
_cell_angle_beta 90.000000
_cell_angle_gamma 90.000000
_cell_volume 2068.034814
_symmetry_space_group_name_H-M "C 2 2 2"
_symmetry_group_IT_number 21
_symmetry_cell_setting 'orthorhombic'
loop_
_space_group_symop_operation_xyz
x,y,z
-x,-y,z
x,-y,-z
-x,y,-z
1/2+x,1/2+y,z
1/2-x,1/2-y,z
1/2+x,1/2-y,-z
1/2-x,1/2+y,-z
loop_
_atom_site_type_symbol
_atom_site_label
_atom_site_fract_x
_atom_site_fract_y
_atom_site_fract_z
Si Si1 0.199539 0.415169 0.311901
Si Si2 0.744056 0.000000 0.000000
Si Si3 0.358170 0.112085 0.703466
Si Si4 0.737243 0.658831 0.895269
Si Si5 0.930098 0.083643 0.834348
Si Si6 0.679694 0.160673 0.499277
O O1 0.178401 0.513121 0.286569
O O2 0.321451 0.377396 0.242171
O O3 0.232662 0.403103 0.420748
O O4 0.035711 0.376560 0.300033
O O5 0.837853 0.953657 0.079832
O O6 0.679047 0.081443 0.052808
O O7 0.302270 0.160577 0.792380
O O8 0.284182 0.138705 0.606719
O O9 0.750000 0.750000 0.941170
O O10 0.564116 0.636286 0.878093
O O11 0.000000 0.000000 0.787731
O O12 0.500000 0.162477 0.500000
O O13 0.750000 0.250000 0.523103
#
# Coordination Sequence:
#
# PCOD9323061 Si02
#       6
#     8   4   8   8   8   8
#     4  10  20  37  62  88 120 165 201 247 317 374
#     4  10  21  44  69  86 127 166 205 262 327 386
#     4  10  20  38  61  89 122 160 204 253 307 375
#     4  11  22  39  67  94 121 162 212 259 319 377
#     4  10  19  39  64  88 120 160 204 254 313 374
#     4  10  22  38  56  84 123 163 201 253 304 367
#
# _framework density 21.276236000000001
#
# number of rings (size 3 to 8) (size 9 to 14) (size 15 to 20)
#    0.000    1.818    3.636    3.545    0.000    6.545 
#    0.000    6.364    0.000    0.000    0.000    0.000 
#    0.000    0.000    0.000    0.000    0.000    0.000 
#
# Total GULP energy -122652.113569 kJ/mol
# GULP energy per Si atom -5575.096071 kJ/mol
# Density = 2.122781 g / cm^3
# Si number density = 21.276236 Si / 1000 Ang^3
#
#
#
# Elastic Constant Matrix: (Units=GPa)
#
#
# Indices 1 2 3 4 5 6 
#
# 1 27.7233 4.1830 22.0447 0.0000 0.0000 0.0000
# 2 4.1830 86.9339 9.8313 0.0000 0.0000 0.0000
# 3 22.0447 9.8313 105.0479 0.0000 0.0000 0.0000
# 4 0.0000 0.0000 0.0000 9.6127 0.0000 0.0000
# 5 0.0000 0.0000 0.0000 0.0000 19.0978 0.0000
# 6 0.0000 0.0000 0.0000 0.0000 0.0000 16.1234
#
#
#
# Elastic Compliance Matrix: (Units=1/GPa)
#
#
# Indices 1 2 3 4 5 6 
#
# 1 0.043394 -0.001069 -0.009006 0.000000 0.000000 0.000000
# 2 -0.001069 0.011652 -0.000866 0.000000 0.000000 0.000000
# 3 -0.009006 -0.000866 0.011491 0.000000 0.000000 0.000000
# 4 0.000000 0.000000 0.000000 0.104029 0.000000 0.000000
# 5 0.000000 0.000000 0.000000 0.000000 0.052362 0.000000
# 6 0.000000 0.000000 0.000000 0.000000 0.000000 0.062022
#
#
# Mechanical properties :
#
#
# Convention : Reuss Voigt Hill
#
# Bulk Modulus (GPa) = 22.39494 32.42479 27.40986
# Shear Modulus (GPa) = 15.54160 21.20985 18.37572
#
# Velocity S-wave (km/s) = 2.70565 3.16077 2.94202
# Velocity P-wave (km/s) = 4.50659 5.34730 4.94484
#
# Compressibility (1/GPa) = 0.04465294
#
# Stress axis : x y z
#
# Youngs Moduli (GPa) = 23.04489 85.81927 87.02830
#
# Poissons Ratio (x) = 0.09178 0.78380
# Poissons Ratio (y) = 0.02465 0.07538
# Poissons Ratio (z) = 0.20755 0.07433
#
# Static dielectric constant tensor:
#      x y z
#    x 1.797730 0.000000 0.000000 
#    y 0.000000 4.173340 0.000000 
#    z 0.000000 0.000000 1.793450 
# 
# From -- ./inp_files/30404.got.cif
#   From: 2010.05.17/outbox.cif.g08.bks.cpg/sg21_16_cif.got.tgz:30404.got - 2010.06.03 23:14:55.
