data_PCOD9323966
_publ_section_title
;
Structure prediction by ZEFSAII (Michael W. Deem and Ramdas Pophale) SiO2 
 PCOD9323966
Probable space group: C 2 2 2
;
_chemical_formula_sum "Si O2"
_cell_formula_units_Z 40
_cell_length_a 10.485715
_cell_length_b 14.922007
_cell_length_c 14.061084
_cell_angle_alpha 90.000000
_cell_angle_beta 90.000000
_cell_angle_gamma 90.000000
_cell_volume 2200.108463
_symmetry_space_group_name_H-M "C 2 2 2"
_symmetry_group_IT_number 21
_symmetry_cell_setting 'orthorhombic'
loop_
_space_group_symop_operation_xyz
x,y,z
-x,-y,z
x,-y,-z
-x,y,-z
1/2+x,1/2+y,z
1/2-x,1/2-y,z
1/2+x,1/2-y,-z
1/2-x,1/2+y,-z
loop_
_atom_site_type_symbol
_atom_site_label
_atom_site_fract_x
_atom_site_fract_y
_atom_site_fract_z
Si Si1 0.603858 0.927079 0.709859
Si Si2 0.394772 0.641785 0.076377
Si Si3 0.894772 0.641785 0.923623
Si Si4 0.604402 0.250000 0.418081
Si Si5 0.603858 0.572921 0.709859
O O1 0.585203 0.901135 0.820458
O O2 0.590311 0.837508 0.647739
O O3 0.750000 0.959517 0.698889
O O4 0.500000 0.000000 0.681544
O O5 0.250000 0.621179 0.044568
O O6 0.403123 0.750000 0.087260
O O7 0.414797 0.598865 0.179542
O O8 0.500000 0.613765 0.000000
O O9 0.000000 0.613765 0.000000
O O10 0.500000 0.250000 0.500000
O O11 0.750000 0.250000 0.455954
O O12 0.590311 0.337508 0.352260
O O13 0.500000 0.500000 0.681544
#
# Coordination Sequence:
#
# PCOD9323966 Si02
#       5
#     8   8   8   8   8
#     4  10  21  38  59  83 114 149 185 227 277 331
#     4   9  17  32  54  79 110 149 187 224 268 321
#     4   9  17  32  54  79 110 149 187 224 268 321
#     4  10  22  42  63  82 110 146 183 230 285 336
#     4  10  21  38  59  83 114 149 185 227 277 331
#
# _framework density 18.180921000000001
#
# number of rings (size 3 to 8) (size 9 to 14) (size 15 to 20)
#    0.000    2.400    2.000    0.000    0.000    4.800 
#    0.000    8.000    0.000    0.000    0.000    0.000 
#    0.000    0.000    0.000    0.000    0.000    0.000 
#
# Total GULP energy -111662.430046 kJ/mol
# GULP energy per Si atom -5583.121502 kJ/mol
# Density = 1.813954 g / cm^3
# Si number density = 18.180921 Si / 1000 Ang^3
#
#
#
# Elastic Constant Matrix: (Units=GPa)
#
#
# Indices 1 2 3 4 5 6 
#
# 1 166.7265 83.2156 84.8353 0.0000 0.0000 0.0000
# 2 83.2156 81.8521 22.9152 0.0000 0.0000 0.0000
# 3 84.8353 22.9152 73.9906 0.0000 0.0000 0.0000
# 4 0.0000 0.0000 0.0000 -9.4828 0.0000 0.0000
# 5 0.0000 0.0000 0.0000 0.0000 38.1981 0.0000
# 6 0.0000 0.0000 0.0000 0.0000 0.0000 30.7869
#
#
#
# Elastic Compliance Matrix: (Units=1/GPa)
#
#
# Indices 1 2 3 4 5 6 
#
# 1 0.038338 -0.029202 -0.034913 0.000000 0.000000 0.000000
# 2 -0.029202 0.035621 0.022450 0.000000 0.000000 0.000000
# 3 -0.034913 0.022450 0.046592 0.000000 0.000000 0.000000
# 4 0.000000 0.000000 0.000000 -0.105454 0.000000 0.000000
# 5 0.000000 0.000000 0.000000 0.000000 0.026179 0.000000
# 6 0.000000 0.000000 0.000000 0.000000 0.000000 0.032481
#
#
# Mechanical properties :
#
#
# Convention : Reuss Voigt Hill
#
# Bulk Modulus (GPa) = 26.86630 78.27794 52.57212
# Shear Modulus (GPa) = 29.49977 20.67397 25.08687
#
# Velocity S-wave (km/s) = 4.03248 3.37579 3.71866
# Velocity P-wave (km/s) = 6.04073 7.63826 6.88598
#
# Compressibility (1/GPa) = 0.03722135
#
# Stress axis : x y z
#
# Youngs Moduli (GPa) = 26.08404 28.07367 21.46293
#
# Poissons Ratio (x) = 0.81981 0.74933
# Poissons Ratio (y) = 0.76171 -0.48185
# Poissons Ratio (z) = 0.91066 -0.63027
#
# Static dielectric constant tensor:
#      x y z
#    x 1.620140 0.000000 0.000000 
#    y 0.000000 1.621450 0.000000 
#    z 0.000000 0.000000 1.585480 
# 
# From -- ./inp_files/24964.got.cif
#   From: 2010.05.17/outbox.cif.g08.bks.cpg/sg21_13_cif.got.tgz:24964.got - 2010.06.03 23:14:55.
