data_PCOD9323944
_publ_section_title
;
Structure prediction by ZEFSAII (Michael W. Deem and Ramdas Pophale) SiO2 
 PCOD9323944
Probable space group: C 2 2 2
;
_chemical_formula_sum "Si O2"
_cell_formula_units_Z 56
_cell_length_a 15.365242
_cell_length_b 19.534186
_cell_length_c 7.153940
_cell_angle_alpha 90.000000
_cell_angle_beta 90.000000
_cell_angle_gamma 90.000000
_cell_volume 2147.237172
_symmetry_space_group_name_H-M "C 2 2 2"
_symmetry_group_IT_number 21
_symmetry_cell_setting 'orthorhombic'
loop_
_space_group_symop_operation_xyz
x,y,z
-x,-y,z
x,-y,-z
-x,y,-z
1/2+x,1/2+y,z
1/2-x,1/2-y,z
1/2+x,1/2-y,-z
1/2-x,1/2+y,-z
loop_
_atom_site_type_symbol
_atom_site_label
_atom_site_fract_x
_atom_site_fract_y
_atom_site_fract_z
Si Si1 0.708005 0.451964 0.742853
Si Si2 0.348248 0.749232 0.763246
Si Si3 0.101561 0.596654 0.732337
Si Si4 0.456356 0.632003 0.686684
Si Si5 0.084839 0.375686 0.710621
Si Si6 0.273200 0.402359 0.691091
Si Si7 0.885630 0.216843 0.187114
O O1 0.810109 0.440751 0.798920
O O2 0.619278 0.410802 0.787779
O O3 0.684388 0.530711 0.782594
O O4 0.719588 0.425955 0.525481
O O5 0.250000 0.750000 0.695935
O O6 0.382160 0.824887 0.780346
O O7 0.405921 0.702000 0.630835
O O8 0.353749 0.722800 0.974493
O O9 0.093786 0.600204 0.505758
O O10 0.000602 0.586832 0.789670
O O11 0.500000 0.599671 0.500000
O O12 0.534477 0.663713 0.803998
O O13 0.178032 0.398848 0.782154
O O14 0.086090 0.292612 0.739334
O O15 0.310525 0.326737 0.712444
#
# Coordination Sequence:
#
# PCOD9323944 Si02
#       7
#     8   8   8   8   8   8   8
#     4  10  22  41  64  95 129 177 223 267 327 398
#     4  12  24  40  64  97 134 173 214 274 338 392
#     4  10  21  37  64  96 128 167 216 273 334 394
#     4  12  23  41  66  99 130 171 220 272 326 396
#     4  10  21  37  65  98 127 166 217 278 332 385
#     4  10  22  40  63  96 132 174 222 273 324 388
#     4  12  24  40  62  98 135 168 220 277 334 389
#
# _framework density 26.080026
#
# number of rings (size 3 to 8) (size 9 to 14) (size 15 to 20)
#    0.000    1.143    4.286    2.571    0.000    1.143 
#    0.000    3.571    0.000    1.714    0.000    2.000 
#    0.000    0.000    0.000    0.000    0.000    0.000 
#
# Total GULP energy -156203.360132 kJ/mol
# GULP energy per Si atom -5578.691433 kJ/mol
# Density = 2.602067 g / cm^3
# Si number density = 26.080026 Si / 1000 Ang^3
#
#
#
# Elastic Constant Matrix: (Units=GPa)
#
#
# Indices 1 2 3 4 5 6 
#
# 1 164.7713 30.4507 4.3088 0.0000 0.0000 0.0000
# 2 30.4507 68.9749 -23.4763 0.0000 0.0000 0.0000
# 3 4.3088 -23.4763 66.1433 0.0000 0.0000 0.0000
# 4 0.0000 0.0000 0.0000 13.2362 0.0000 0.0000
# 5 0.0000 0.0000 0.0000 0.0000 6.1991 0.0000
# 6 0.0000 0.0000 0.0000 0.0000 0.0000 18.8356
#
#
#
# Elastic Compliance Matrix: (Units=1/GPa)
#
#
# Indices 1 2 3 4 5 6 
#
# 1 0.006774 -0.003572 -0.001709 0.000000 0.000000 0.000000
# 2 -0.003572 0.018374 0.006754 0.000000 0.000000 0.000000
# 3 -0.001709 0.006754 0.017627 0.000000 0.000000 0.000000
# 4 0.000000 0.000000 0.000000 0.075551 0.000000 0.000000
# 5 0.000000 0.000000 0.000000 0.000000 0.161313 0.000000
# 6 0.000000 0.000000 0.000000 0.000000 0.000000 0.053091
#
#
# Mechanical properties :
#
#
# Convention : Reuss Voigt Hill
#
# Bulk Modulus (GPa) = 21.87192 35.82841 28.85017
# Shear Modulus (GPa) = 14.49174 26.89462 20.69318
#
# Velocity S-wave (km/s) = 2.35981 3.21477 2.81988
# Velocity P-wave (km/s) = 3.97864 5.24856 4.65709
#
# Compressibility (1/GPa) = 0.04572072
#
# Stress axis : x y z
#
# Youngs Moduli (GPa) = 147.62591 54.42493 56.73015
#
# Poissons Ratio (x) = 0.19442 0.09696
# Poissons Ratio (y) = 0.52735 -0.38317
# Poissons Ratio (z) = 0.25232 -0.36760
#
# Static dielectric constant tensor:
#      x y z
#    x 2.115280 0.000000 0.000000 
#    y 0.000000 2.008040 0.000000 
#    z 0.000000 0.000000 2.006750 
# 
# From -- ./inp_files/15300.got.cif
#   From: 2010.05.17/outbox.cif.g08.bks.cpg/sg21_8_cif.got.tgz:15300.got - 2010.06.03 23:14:55.
