data_PCOD9323384
_publ_section_title
;
Structure prediction by ZEFSAII (Michael W. Deem and Ramdas Pophale) SiO2 
 PCOD9323384
Probable space group: C 2 2 2
;
_chemical_formula_sum "Si O2"
_cell_formula_units_Z 58
_cell_length_a 9.208478
_cell_length_b 28.420760
_cell_length_c 10.586643
_cell_angle_alpha 90.000000
_cell_angle_beta 90.000000
_cell_angle_gamma 90.000000
_cell_volume 2770.650912
_symmetry_space_group_name_H-M "C 2 2 2"
_symmetry_group_IT_number 21
_symmetry_cell_setting 'orthorhombic'
loop_
_space_group_symop_operation_xyz
x,y,z
-x,-y,z
x,-y,-z
-x,y,-z
1/2+x,1/2+y,z
1/2-x,1/2-y,z
1/2+x,1/2-y,-z
1/2-x,1/2+y,-z
loop_
_atom_site_type_symbol
_atom_site_label
_atom_site_fract_x
_atom_site_fract_y
_atom_site_fract_z
Si Si1 0.302804 0.390957 0.385762
Si Si2 0.832949 0.701124 0.285756
Si Si3 0.685738 0.202653 0.269950
Si Si4 0.671440 0.921880 0.858792
Si Si5 0.169576 0.326117 0.002672
Si Si6 0.370242 0.389341 0.668233
Si Si7 0.464133 0.055411 0.353872
Si Si8 0.000000 0.500000 0.000000
O O1 0.215563 0.341921 0.374929
O O2 0.333519 0.407254 0.528749
O O3 0.458562 0.381677 0.324227
O O4 0.201964 0.431295 0.327103
O O5 0.750000 0.750000 0.317123
O O6 0.010149 0.703197 0.285766
O O7 0.781228 0.686969 0.142664
O O8 0.750000 0.250000 0.327158
O O9 0.729006 0.200025 0.120531
O O10 0.774396 0.157980 0.320861
O O11 0.680260 0.880972 0.963006
O O12 0.819504 0.923142 0.780951
O O13 0.555883 0.913416 0.744743
O O14 0.606983 0.967620 0.920731
O O15 0.000000 0.314561 0.000000
O O16 0.500000 0.067783 0.500000
O O17 0.500000 0.000000 0.340124
#
# Coordination Sequence:
#
# PCOD9323384 Si02
#       8
#     8   8   8   8   8   8   8   2
#     4  11  23  41  67  93 131 178 219 282 343 413
#     4  11  23  37  62  96 130 171 232 279 334 409
#     4  10  20  36  60  88 127 170 217 275 336 405
#     4  11  21  40  64  97 129 171 222 278 339 409
#     4   9  18  34  58  85 125 168 213 266 334 395
#     4  10  23  42  63  91 133 174 219 274 355 404
#     4  11  22  39  70 101 129 172 232 287 344 420
#     4  12  24  36  78  98 140 172 238 290 336 424
#
# _framework density 20.933710000000001
#
# number of rings (size 3 to 8) (size 9 to 14) (size 15 to 20)
#    0.000    1.517    2.759    3.724    0.000    0.552 
#    0.000    6.207    0.000    0.828    0.000    0.000 
#    0.000    0.000    0.000    0.000    0.000    0.000 
#
# Total GULP energy -161702.617535 kJ/mol
# GULP energy per Si atom -5575.952329 kJ/mol
# Density = 2.088606 g / cm^3
# Si number density = 20.933710 Si / 1000 Ang^3
#
#
#
# Elastic Constant Matrix: (Units=GPa)
#
#
# Indices 1 2 3 4 5 6 
#
# 1 135.3152 54.7740 15.5921 0.0000 0.0000 0.0000
# 2 54.7740 116.5131 12.7746 0.0000 0.0000 0.0000
# 3 15.5921 12.7746 48.3108 0.0000 0.0000 0.0000
# 4 0.0000 0.0000 0.0000 14.2629 0.0000 0.0000
# 5 0.0000 0.0000 0.0000 0.0000 16.0181 0.0000
# 6 0.0000 0.0000 0.0000 0.0000 0.0000 33.9255
#
#
#
# Elastic Compliance Matrix: (Units=1/GPa)
#
#
# Indices 1 2 3 4 5 6 
#
# 1 0.009293 -0.004161 -0.001899 0.000000 0.000000 0.000000
# 2 -0.004161 0.010702 -0.001487 0.000000 0.000000 0.000000
# 3 -0.001899 -0.001487 0.021705 0.000000 0.000000 0.000000
# 4 0.000000 0.000000 0.000000 0.070112 0.000000 0.000000
# 5 0.000000 0.000000 0.000000 0.000000 0.062429 0.000000
# 6 0.000000 0.000000 0.000000 0.000000 0.000000 0.029476
#
#
# Mechanical properties :
#
#
# Convention : Reuss Voigt Hill
#
# Bulk Modulus (GPa) = 37.58436 51.82451 44.70444
# Shear Modulus (GPa) = 21.96059 27.30785 24.63422
#
# Velocity S-wave (km/s) = 3.24242 3.61569 3.43413
# Velocity P-wave (km/s) = 5.65780 6.49932 6.09311
#
# Compressibility (1/GPa) = 0.02660681
#
# Stress axis : x y z
#
# Youngs Moduli (GPa) = 107.60629 93.44319 46.07139
#
# Poissons Ratio (x) = 0.38878 0.08750
# Poissons Ratio (y) = 0.44770 0.06851
# Poissons Ratio (z) = 0.20436 0.13895
#
# Static dielectric constant tensor:
#      x y z
#    x 1.765220 0.000000 0.000000 
#    y 0.000000 1.775790 0.000000 
#    z 0.000000 0.000000 1.822750 
# 
# From -- ./inp_files/23027.got.cif
#   From: 2010.05.17/outbox.cif.g08.bks.cpg/sg21_12_cif.got.tgz:23027.got - 2010.06.03 23:14:55.
