data_PCOD9323098
_publ_section_title
;
Structure prediction by ZEFSAII (Michael W. Deem and Ramdas Pophale) SiO2 
 PCOD9323098
Probable space group: C 2 2 2
;
_chemical_formula_sum "Si O2"
_cell_formula_units_Z 56
_cell_length_a 12.338952
_cell_length_b 15.116944
_cell_length_c 14.750059
_cell_angle_alpha 90.000000
_cell_angle_beta 90.000000
_cell_angle_gamma 90.000000
_cell_volume 2751.287890
_symmetry_space_group_name_H-M "C 2 2 2"
_symmetry_group_IT_number 21
_symmetry_cell_setting 'orthorhombic'
loop_
_space_group_symop_operation_xyz
x,y,z
-x,-y,z
x,-y,-z
-x,y,-z
1/2+x,1/2+y,z
1/2-x,1/2-y,z
1/2+x,1/2-y,-z
1/2-x,1/2+y,-z
loop_
_atom_site_type_symbol
_atom_site_label
_atom_site_fract_x
_atom_site_fract_y
_atom_site_fract_z
Si Si1 0.042453 0.717711 0.597288
Si Si2 0.922972 0.079306 0.631660
Si Si3 0.824525 0.455215 0.598230
Si Si4 0.869911 0.282957 0.239950
Si Si5 0.820909 0.027769 0.899648
Si Si6 0.620537 0.020523 0.209217
Si Si7 0.490650 0.379421 0.834360
O O1 0.072156 0.821661 0.591072
O O2 0.137126 0.646410 0.612415
O O3 0.000000 0.690260 0.500000
O O4 0.949458 0.708684 0.673374
O O5 0.803307 0.043291 0.616352
O O6 0.959623 0.096778 0.735525
O O7 0.000000 0.000000 0.598656
O O8 0.848084 0.500000 0.500000
O O9 0.876280 0.507312 0.682263
O O10 0.750000 0.250000 0.266874
O O11 0.855555 0.376945 0.192757
O O12 0.931289 0.213631 0.175523
O O13 0.905014 0.109987 0.899225
O O14 0.715526 0.036434 0.836955
O O15 0.898332 0.949683 0.861091
O O16 0.787798 0.000000 0.000000
O O17 0.500000 0.000000 0.176388
#
# Coordination Sequence:
#
# PCOD9323098 Si02
#       7
#     8   8   8   8   8   8   8
#     4  11  26  42  61  97 137 175 243 283 337 397
#     4  11  23  42  66  99 133 177 226 289 331 400
#     4  12  26  42  69  95 139 188 230 281 343 399
#     4  11  23  40  70  94 134 182 220 277 341 409
#     4  11  22  42  75 102 130 170 228 283 339 410
#     4  12  24  44  69  99 138 180 224 275 346 411
#     4  10  19  41  69 100 130 163 221 276 334 396
#
# _framework density 20.354104
#
# number of rings (size 3 to 8) (size 9 to 14) (size 15 to 20)
#    0.000    0.857    5.714    2.143    4.000    1.429 
#    0.000    0.714    9.429    0.000    0.000    0.000 
#    0.000    0.000    0.000    0.000    0.000    0.000 
#
# Total GULP energy -156276.263374 kJ/mol
# GULP energy per Si atom -5581.295120 kJ/mol
# Density = 2.030778 g / cm^3
# Si number density = 20.354104 Si / 1000 Ang^3
#
#
#
# Elastic Constant Matrix: (Units=GPa)
#
#
# Indices 1 2 3 4 5 6 
#
# 1 154.1327 35.7739 13.9927 0.0000 0.0000 0.0000
# 2 35.7739 106.2103 -4.3473 0.0000 0.0000 0.0000
# 3 13.9927 -4.3473 65.8603 0.0000 0.0000 0.0000
# 4 0.0000 0.0000 0.0000 -18.6228 0.0000 0.0000
# 5 0.0000 0.0000 0.0000 0.0000 8.6224 0.0000
# 6 0.0000 0.0000 0.0000 0.0000 0.0000 37.3019
#
#
#
# Elastic Compliance Matrix: (Units=1/GPa)
#
#
# Indices 1 2 3 4 5 6 
#
# 1 0.007223 -0.002502 -0.001700 0.000000 0.000000 0.000000
# 2 -0.002502 0.010308 0.001212 0.000000 0.000000 0.000000
# 3 -0.001700 0.001212 0.015625 0.000000 0.000000 0.000000
# 4 0.000000 0.000000 0.000000 -0.053698 0.000000 0.000000
# 5 0.000000 0.000000 0.000000 0.000000 0.115977 0.000000
# 6 0.000000 0.000000 0.000000 0.000000 0.000000 0.026808
#
#
# Mechanical properties :
#
#
# Convention : Reuss Voigt Hill
#
# Bulk Modulus (GPa) = 36.79820 46.33801 41.56810
# Shear Modulus (GPa) = 36.42148 24.17925 30.30036
#
# Velocity S-wave (km/s) = 4.23471 3.45037 3.86250
# Velocity P-wave (km/s) = 6.48295 6.22003 6.35285
#
# Compressibility (1/GPa) = 0.02717525
#
# Stress axis : x y z
#
# Youngs Moduli (GPa) = 138.44586 97.01419 64.00086
#
# Poissons Ratio (x) = 0.24277 0.10879
# Poissons Ratio (y) = 0.34645 -0.07757
# Poissons Ratio (z) = 0.23533 -0.11759
#
# Static dielectric constant tensor:
#      x y z
#    x 1.726250 0.000000 0.000000 
#    y 0.000000 1.778660 0.000000 
#    z 0.000000 0.000000 1.739100 
# 
# From -- ./inp_files/31580.got.cif
#   From: 2010.05.17/outbox.cif.g08.bks.cpg/sg21_16_cif.got.tgz:31580.got - 2010.06.03 23:14:55.
