data_PCOD9323156
_publ_section_title
;
Structure prediction by ZEFSAII (Michael W. Deem and Ramdas Pophale) SiO2 
 PCOD9323156
Probable space group: C 2 2 2
;
_chemical_formula_sum "Si O2"
_cell_formula_units_Z 48
_cell_length_a 17.922261
_cell_length_b 13.543330
_cell_length_c 8.897348
_cell_angle_alpha 90.000000
_cell_angle_beta 90.000000
_cell_angle_gamma 90.000000
_cell_volume 2159.627434
_symmetry_space_group_name_H-M "C 2 2 2"
_symmetry_group_IT_number 21
_symmetry_cell_setting 'orthorhombic'
loop_
_space_group_symop_operation_xyz
x,y,z
-x,-y,z
x,-y,-z
-x,y,-z
1/2+x,1/2+y,z
1/2-x,1/2-y,z
1/2+x,1/2-y,-z
1/2-x,1/2+y,-z
loop_
_atom_site_type_symbol
_atom_site_label
_atom_site_fract_x
_atom_site_fract_y
_atom_site_fract_z
Si Si1 0.615850 0.401589 0.573182
Si Si2 0.422361 0.823347 0.931044
Si Si3 0.769285 0.365999 0.419703
Si Si4 0.615850 0.598411 0.073182
Si Si5 0.769285 0.365999 0.080297
Si Si6 0.922361 0.676653 0.431044
O O1 0.582954 0.500000 0.500000
O O2 0.702748 0.400753 0.526107
O O3 0.607795 0.409385 0.750000
O O4 0.584723 0.294035 0.528003
O O5 0.415277 0.705965 0.971997
O O6 0.420753 0.831758 0.750000
O O7 0.500000 0.859908 0.000000
O O8 0.350156 0.874363 0.004783
O O9 0.750000 0.250000 0.405824
O O10 0.767105 0.407773 0.250000
O O11 0.850156 0.374363 0.495217
O O12 0.582954 0.500000 0.000000
O O13 0.702748 0.599247 0.026108
O O14 0.750000 0.250000 0.094175
O O15 0.000000 0.640091 0.500000
#
# Coordination Sequence:
#
# PCOD9323156 Si02
#       6
#     8   8   8   8   8   8
#     4  10  20  33  50  73 101 132 166 204 246 292
#     4  10  20  33  50  73 101 132 166 204 246 292
#     4   9  17  31  51  72  95 126 165 205 244 289
#     4  10  20  33  50  73 101 132 166 204 246 292
#     4   9  17  31  51  72  95 126 165 205 244 289
#     4  10  20  33  50  73 101 132 166 204 246 292
#
# _framework density 22.226054000000001
#
# number of rings (size 3 to 8) (size 9 to 14) (size 15 to 20)
#    0.000    2.333    0.000    3.000    0.000    8.667 
#    0.000    3.333    0.000    1.000    0.000    7.000 
#    0.000    0.000    0.000    0.000    0.000    0.000 
#
# Total GULP energy -134051.260266 kJ/mol
# GULP energy per Si atom -5585.469178 kJ/mol
# Density = 2.217547 g / cm^3
# Si number density = 22.226054 Si / 1000 Ang^3
#
#
#
# Elastic Constant Matrix: (Units=GPa)
#
#
# Indices 1 2 3 4 5 6 
#
# 1 165.7720 -17.4689 21.0786 0.0000 0.0000 0.0000
# 2 -17.4689 38.4862 -1.0982 0.0000 0.0000 0.0000
# 3 21.0786 -1.0982 31.9519 0.0000 0.0000 0.0000
# 4 0.0000 0.0000 0.0000 -23.4240 0.0000 0.0000
# 5 0.0000 0.0000 0.0000 0.0000 17.5422 0.0000
# 6 0.0000 0.0000 0.0000 0.0000 0.0000 -4.4538
#
#
#
# Elastic Compliance Matrix: (Units=1/GPa)
#
#
# Indices 1 2 3 4 5 6 
#
# 1 0.006917 0.003012 -0.004460 0.000000 0.000000 0.000000
# 2 0.003012 0.027321 -0.001048 0.000000 0.000000 0.000000
# 3 -0.004460 -0.001048 0.034203 0.000000 0.000000 0.000000
# 4 0.000000 0.000000 0.000000 -0.042691 0.000000 0.000000
# 5 0.000000 0.000000 0.000000 0.000000 0.057006 0.000000
# 6 0.000000 0.000000 0.000000 0.000000 0.000000 -0.224528
#
#
# Mechanical properties :
#
#
# Convention : Reuss Voigt Hill
#
# Bulk Modulus (GPa) = 15.76051 26.80366 21.28209
# Shear Modulus (GPa) = -43.24048 13.51279 -14.86384
#
# Velocity S-wave (km/s) = -4.41555 2.46838 -2.58884
# Velocity P-wave (km/s) = 4.34623 4.49551 0.81237
#
# Compressibility (1/GPa) = 0.06344972
#
# Stress axis : x y z
#
# Youngs Moduli (GPa) = 144.57420 36.60229 29.23725
#
# Poissons Ratio (x) = -0.11026 0.13038
# Poissons Ratio (y) = -0.43550 0.03065
# Poissons Ratio (z) = 0.64473 0.03837
#
# Static dielectric constant tensor:
#      x y z
#    x 1.785930 0.000000 0.000000 
#    y 0.000000 1.927280 0.000000 
#    z 0.000000 0.000000 1.764810 
# 
# From -- ./inp_files/14943.got.cif
#   From: 2010.05.17/outbox.cif.g08.bks.cpg/sg21_8_cif.got.tgz:14943.got - 2010.06.03 23:14:55.
