data_PCOD9323135
_publ_section_title
;
Structure prediction by ZEFSAII (Michael W. Deem and Ramdas Pophale) SiO2 
 PCOD9323135
Probable space group: C 2 2 2
;
_chemical_formula_sum "Si O2"
_cell_formula_units_Z 52
_cell_length_a 8.750863
_cell_length_b 30.625400
_cell_length_c 11.211104
_cell_angle_alpha 90.000000
_cell_angle_beta 90.000000
_cell_angle_gamma 90.000000
_cell_volume 3004.561070
_symmetry_space_group_name_H-M "C 2 2 2"
_symmetry_group_IT_number 21
_symmetry_cell_setting 'orthorhombic'
loop_
_space_group_symop_operation_xyz
x,y,z
-x,-y,z
x,-y,-z
-x,y,-z
1/2+x,1/2+y,z
1/2-x,1/2-y,z
1/2+x,1/2-y,-z
1/2-x,1/2+y,-z
loop_
_atom_site_type_symbol
_atom_site_label
_atom_site_fract_x
_atom_site_fract_y
_atom_site_fract_z
Si Si1 0.801499 0.110680 0.880876
Si Si2 0.329163 0.795545 0.860254
Si Si3 0.500000 0.000000 0.500000
Si Si4 0.245378 0.959922 0.335093
Si Si5 0.154584 0.115704 0.833954
Si Si6 0.818833 0.295437 0.150443
Si Si7 0.672601 0.018259 0.872001
Si Si8 0.000000 0.000000 0.500000
O O1 0.748967 0.157959 0.834101
O O2 0.690056 0.070012 0.855747
O O3 0.973659 0.105411 0.831799
O O4 0.804987 0.109918 0.025836
O O5 0.250000 0.750000 0.820391
O O6 0.503394 0.798705 0.816691
O O7 0.322769 0.794211 0.005304
O O8 0.605429 0.029892 0.414723
O O9 0.239424 0.915658 0.259239
O O10 0.104723 0.968304 0.421636
O O11 0.234547 0.996765 0.233782
O O12 0.210361 0.164991 0.810227
O O13 0.750000 0.250000 0.192740
O O14 0.500000 0.000000 0.862423
O O15 0.729168 0.000000 0.000000
#
# Coordination Sequence:
#
# PCOD9323135 Si02
#       8
#     8   8   2   8   8   8   8   2
#     4  10  20  32  48  79 111 147 181 217 272 332
#     4   9  17  28  46  68 106 150 186 213 253 324
#     4  10  24  38  58  70 102 138 192 236 268 322
#     4  11  21  40  54  78 102 144 186 231 274 320
#     4  10  20  33  52  75 110 142 180 225 273 329
#     4   9  17  28  46  72 105 143 180 218 265 322
#     4  11  22  33  55  81 114 145 180 226 279 337
#     4  10  24  38  58  70 102 142 192 232 272 310
#
# _framework density 17.307020999999999
#
# number of rings (size 3 to 8) (size 9 to 14) (size 15 to 20)
#    0.000    2.000    2.308    1.846    2.154    4.923 
#    0.000    0.000    0.000    0.000    0.000    1.077 
#    0.000    4.923    0.000    0.308    0.000    0.000 
#
# Total GULP energy -144817.213406 kJ/mol
# GULP energy per Si atom -5569.892823 kJ/mol
# Density = 1.726763 g / cm^3
# Si number density = 17.307021 Si / 1000 Ang^3
#
#
#
# Elastic Constant Matrix: (Units=GPa)
#
#
# Indices 1 2 3 4 5 6 
#
# 1 92.8775 55.3377 30.3799 0.0000 0.0000 0.0000
# 2 55.3377 151.9538 25.5114 0.0000 0.0000 0.0000
# 3 30.3799 25.5114 62.1456 0.0000 0.0000 0.0000
# 4 0.0000 0.0000 0.0000 4.0044 0.0000 0.0000
# 5 0.0000 0.0000 0.0000 0.0000 3.1563 0.0000
# 6 0.0000 0.0000 0.0000 0.0000 0.0000 28.1017
#
#
#
# Elastic Compliance Matrix: (Units=1/GPa)
#
#
# Indices 1 2 3 4 5 6 
#
# 1 0.015376 -0.004659 -0.005604 0.000000 0.000000 0.000000
# 2 -0.004659 0.008480 -0.001204 0.000000 0.000000 0.000000
# 3 -0.005604 -0.001204 0.019325 0.000000 0.000000 0.000000
# 4 0.000000 0.000000 0.000000 0.249726 0.000000 0.000000
# 5 0.000000 0.000000 0.000000 0.000000 0.316823 0.000000
# 6 0.000000 0.000000 0.000000 0.000000 0.000000 0.035585
#
#
# Mechanical properties :
#
#
# Convention : Reuss Voigt Hill
#
# Bulk Modulus (GPa) = 49.38834 58.82612 54.10723
# Shear Modulus (GPa) = 7.40746 20.10234 13.75490
#
# Velocity S-wave (km/s) = 2.07107 3.41180 2.82220
# Velocity P-wave (km/s) = 5.85813 7.04159 6.47694
#
# Compressibility (1/GPa) = 0.02024770
#
# Stress axis : x y z
#
# Youngs Moduli (GPa) = 65.03839 117.93092 51.74682
#
# Poissons Ratio (x) = 0.54939 0.28999
# Poissons Ratio (y) = 0.30298 0.06228
# Poissons Ratio (z) = 0.36447 0.14194
#
# Static dielectric constant tensor:
#      x y z
#    x 1.652870 0.000000 0.000000 
#    y 0.000000 1.608310 0.000000 
#    z 0.000000 0.000000 1.568560 
# 
# From -- ./inp_files/23077.got.cif
#   From: 2010.05.17/outbox.cif.g08.bks.cpg/sg21_12_cif.got.tgz:23077.got - 2010.06.03 23:14:55.
