data_PCOD9323851
_publ_section_title
;
Structure prediction by ZEFSAII (Michael W. Deem and Ramdas Pophale) SiO2 
 PCOD9323851
Probable space group: C 2 2 2
;
_chemical_formula_sum "Si O2"
_cell_formula_units_Z 56
_cell_length_a 15.591302
_cell_length_b 18.333108
_cell_length_c 10.054349
_cell_angle_alpha 90.000000
_cell_angle_beta 90.000000
_cell_angle_gamma 90.000000
_cell_volume 2873.905191
_symmetry_space_group_name_H-M "C 2 2 2"
_symmetry_group_IT_number 21
_symmetry_cell_setting 'orthorhombic'
loop_
_space_group_symop_operation_xyz
x,y,z
-x,-y,z
x,-y,-z
-x,y,-z
1/2+x,1/2+y,z
1/2-x,1/2-y,z
1/2+x,1/2-y,-z
1/2-x,1/2+y,-z
loop_
_atom_site_type_symbol
_atom_site_label
_atom_site_fract_x
_atom_site_fract_y
_atom_site_fract_z
Si Si1 0.304122 0.847740 0.816196
Si Si2 0.732394 0.165760 0.505253
Si Si3 0.943757 0.170724 0.208320
Si Si4 0.971392 0.582764 0.144740
Si Si5 0.440109 0.180409 0.630225
Si Si6 0.127443 0.191349 0.084357
Si Si7 0.591786 0.417590 0.445438
O O1 0.295857 0.838601 0.658500
O O2 0.369282 0.911781 0.847106
O O3 0.210086 0.855412 0.876298
O O4 0.346718 0.774095 0.876426
O O5 0.750000 0.250000 0.474900
O O6 0.650951 0.145804 0.413747
O O7 0.820727 0.122032 0.488838
O O8 0.927985 0.239797 0.304892
O O9 0.916242 0.098367 0.287919
O O10 0.043858 0.169823 0.168568
O O11 0.893927 0.183588 0.070691
O O12 0.000000 0.500000 0.158645
O O13 0.012672 0.631666 0.259660
O O14 0.000000 0.610823 0.000000
O O15 0.500000 0.186348 0.500000
O O16 0.596461 0.500000 0.500000
O O17 0.500000 0.387579 0.500000
#
# Coordination Sequence:
#
# PCOD9323851 Si02
#       7
#     8   8   8   8   8   8   8
#     4  11  21  39  62  99 134 171 224 270 342 390
#     4  12  23  39  67 102 132 172 224 281 333 401
#     4  11  21  39  66 100 132 170 226 280 339 388
#     4  11  25  44  64  90 137 187 224 269 344 414
#     4  12  23  40  68  99 135 176 226 291 329 402
#     4  10  21  35  67 101 132 170 221 288 323 400
#     4  11  26  44  65  93 136 178 219 277 346 406
#
# _framework density 19.485681
#
# number of rings (size 3 to 8) (size 9 to 14) (size 15 to 20)
#    0.000    0.857    5.714    2.143    0.000    4.857 
#    0.000    1.429    0.000   13.714    0.000    0.000 
#    0.000    0.000    0.000    0.000    0.000    0.000 
#
# Total GULP energy -156424.449334 kJ/mol
# GULP energy per Si atom -5586.587476 kJ/mol
# Density = 1.944133 g / cm^3
# Si number density = 19.485681 Si / 1000 Ang^3
#
#
#
# Elastic Constant Matrix: (Units=GPa)
#
#
# Indices 1 2 3 4 5 6 
#
# 1 166.2876 51.8720 66.6834 0.0000 0.0000 0.0000
# 2 51.8720 71.1504 47.0805 0.0000 0.0000 0.0000
# 3 66.6834 47.0805 148.8417 0.0000 0.0000 0.0000
# 4 0.0000 0.0000 0.0000 11.5350 0.0000 0.0000
# 5 0.0000 0.0000 0.0000 0.0000 33.8237 0.0000
# 6 0.0000 0.0000 0.0000 0.0000 0.0000 34.9866
#
#
#
# Elastic Compliance Matrix: (Units=1/GPa)
#
#
# Indices 1 2 3 4 5 6 
#
# 1 0.008363 -0.004575 -0.002300 0.000000 0.000000 0.000000
# 2 -0.004575 0.020278 -0.004364 0.000000 0.000000 0.000000
# 3 -0.002300 -0.004364 0.009129 0.000000 0.000000 0.000000
# 4 0.000000 0.000000 0.000000 0.086693 0.000000 0.000000
# 5 0.000000 0.000000 0.000000 0.000000 0.029565 0.000000
# 6 0.000000 0.000000 0.000000 0.000000 0.000000 0.028582
#
#
# Mechanical properties :
#
#
# Convention : Reuss Voigt Hill
#
# Bulk Modulus (GPa) = 65.39389 79.72794 72.56091
# Shear Modulus (GPa) = 23.78831 30.77865 27.28348
#
# Velocity S-wave (km/s) = 3.49780 3.97867 3.74596
# Velocity P-wave (km/s) = 7.06722 7.88108 7.48522
#
# Compressibility (1/GPa) = 0.01529195
#
# Stress axis : x y z
#
# Youngs Moduli (GPa) = 119.57298 49.31350 109.53749
#
# Poissons Ratio (x) = 0.22563 0.25188
# Poissons Ratio (y) = 0.54710 0.47807
# Poissons Ratio (z) = 0.27496 0.21523
#
# Static dielectric constant tensor:
#      x y z
#    x 1.711350 0.000000 0.000000 
#    y 0.000000 1.680840 0.000000 
#    z 0.000000 0.000000 1.692280 
# 
# From -- ./inp_files/15298.got.cif
#   From: 2010.05.17/outbox.cif.g08.bks.cpg/sg21_8_cif.got.tgz:15298.got - 2010.06.03 23:14:55.
