data_PCOD9323058
_publ_section_title
;
Structure prediction by ZEFSAII (Michael W. Deem and Ramdas Pophale) SiO2 
 PCOD9323058
Probable space group: C 2 2 2
;
_chemical_formula_sum "Si O2"
_cell_formula_units_Z 32
_cell_length_a 15.554409
_cell_length_b 11.652395
_cell_length_c 8.357167
_cell_angle_alpha 90.000000
_cell_angle_beta 90.000000
_cell_angle_gamma 90.000000
_cell_volume 1514.704073
_symmetry_space_group_name_H-M "C 2 2 2"
_symmetry_group_IT_number 21
_symmetry_cell_setting 'orthorhombic'
loop_
_space_group_symop_operation_xyz
x,y,z
-x,-y,z
x,-y,-z
-x,y,-z
1/2+x,1/2+y,z
1/2-x,1/2-y,z
1/2+x,1/2-y,-z
1/2-x,1/2+y,-z
loop_
_atom_site_type_symbol
_atom_site_label
_atom_site_fract_x
_atom_site_fract_y
_atom_site_fract_z
Si Si1 0.223424 0.507684 0.809909
Si Si2 0.404242 0.883142 0.388587
Si Si3 0.587222 0.451076 0.818724
Si Si4 0.913761 0.697988 0.287373
O O1 0.174240 0.401626 0.729184
O O2 0.320238 0.517415 0.745915
O O3 0.162705 0.616944 0.773125
O O4 0.226829 0.500000 0.000000
O O5 0.491874 0.861742 0.290749
O O6 0.396104 0.784856 0.522362
O O7 0.407207 0.000000 0.500000
O O8 0.500000 0.500000 0.741802
O O9 0.582221 0.313971 0.811253
O O10 0.588530 0.500000 0.000000
#
# Coordination Sequence:
#
# PCOD9323058 Si02
#       4
#     8   8   8   8
#     4  10  20  36  63  93 118 149 196 248 298 351
#     4   9  19  38  64  95 121 145 192 248 300 358
#     4  10  23  41  57  81 120 162 203 245 289 349
#     4  10  19  39  63  84 119 160 192 240 298 352
#
# _framework density 21.126239000000002
#
# number of rings (size 3 to 8) (size 9 to 14) (size 15 to 20)
#    0.000    2.250    0.000    6.000    0.000    6.000 
#    0.000   28.750    0.000    0.000    0.000    0.000 
#    0.000    0.000    0.000    0.000    0.000    0.000 
#
# Total GULP energy -89154.535915 kJ/mol
# GULP energy per Si atom -5572.158495 kJ/mol
# Density = 2.107815 g / cm^3
# Si number density = 21.126239 Si / 1000 Ang^3
#
#
#
# Elastic Constant Matrix: (Units=GPa)
#
#
# Indices 1 2 3 4 5 6 
#
# 1 209.3682 43.4173 43.1549 0.0000 0.0000 0.0000
# 2 43.4173 76.0448 30.4562 0.0000 0.0000 0.0000
# 3 43.1549 30.4562 51.0798 0.0000 0.0000 0.0000
# 4 0.0000 0.0000 0.0000 35.2569 0.0000 0.0000
# 5 0.0000 0.0000 0.0000 0.0000 392.1291 0.0000
# 6 0.0000 0.0000 0.0000 0.0000 0.0000 8.6902
#
#
#
# Elastic Compliance Matrix: (Units=1/GPa)
#
#
# Indices 1 2 3 4 5 6 
#
# 1 0.005970 -0.001824 -0.003956 0.000000 0.000000 0.000000
# 2 -0.001824 0.017833 -0.009092 0.000000 0.000000 0.000000
# 3 -0.003956 -0.009092 0.028341 0.000000 0.000000 0.000000
# 4 0.000000 0.000000 0.000000 0.028363 0.000000 0.000000
# 5 0.000000 0.000000 0.000000 0.000000 0.002550 0.000000
# 6 0.000000 0.000000 0.000000 0.000000 0.000000 0.115072
#
#
# Mechanical properties :
#
#
# Convention : Reuss Voigt Hill
#
# Bulk Modulus (GPa) = 44.64395 63.39440 54.01917
# Shear Modulus (GPa) = 21.24593 101.84620 61.54606
#
# Velocity S-wave (km/s) = 3.17466 6.95076 5.40331
# Velocity P-wave (km/s) = 5.88352 9.72059 8.03448
#
# Compressibility (1/GPa) = 0.02239945
#
# Stress axis : x y z
#
# Youngs Moduli (GPa) = 167.50468 56.07629 35.28517
#
# Poissons Ratio (x) = 0.10229 0.13959
# Poissons Ratio (y) = 0.30554 0.32080
# Poissons Ratio (z) = 0.66268 0.50983
#
# Static dielectric constant tensor:
#      x y z
#    x 1.811390 0.000000 0.000000 
#    y 0.000000 1.810330 0.000000 
#    z 0.000000 0.000000 1.797340 
# 
# From -- ./inp_files/12142.got.cif
#   From: 2010.05.17/outbox.cif.g08.bks.cpg/sg21_7_cif.got.tgz:12142.got - 2010.06.03 23:14:55.
