data_PCOD9323275
_publ_section_title
;
Structure prediction by ZEFSAII (Michael W. Deem and Ramdas Pophale) SiO2 
 PCOD9323275
Probable space group: C 2 2 2
;
_chemical_formula_sum "Si O2"
_cell_formula_units_Z 64
_cell_length_a 10.317892
_cell_length_b 14.790698
_cell_length_c 23.714439
_cell_angle_alpha 90.000000
_cell_angle_beta 90.000000
_cell_angle_gamma 90.000000
_cell_volume 3619.032661
_symmetry_space_group_name_H-M "C 2 2 2"
_symmetry_group_IT_number 21
_symmetry_cell_setting 'orthorhombic'
loop_
_space_group_symop_operation_xyz
x,y,z
-x,-y,z
x,-y,-z
-x,y,-z
1/2+x,1/2+y,z
1/2-x,1/2-y,z
1/2+x,1/2-y,-z
1/2-x,1/2+y,-z
loop_
_atom_site_type_symbol
_atom_site_label
_atom_site_fract_x
_atom_site_fract_y
_atom_site_fract_z
Si Si1 0.658606 0.500000 0.774007
Si Si2 0.752867 0.858978 0.137146
Si Si3 0.152656 0.166408 0.565158
Si Si4 0.343655 0.500000 0.643004
Si Si5 0.500000 0.136883 0.065348
Si Si6 0.247132 0.858978 0.137146
Si Si7 0.152656 0.833592 0.565158
Si Si8 0.500001 0.355958 0.936693
O O1 0.500000 0.500000 0.779145
O O2 0.719376 0.413525 0.805915
O O3 0.694387 0.500000 0.708227
O O4 0.719376 0.586474 0.805915
O O5 0.750000 0.750000 0.146144
O O6 0.625348 0.886751 0.102408
O O7 0.873095 0.882302 0.096971
O O8 0.250000 0.250000 0.570839
O O9 0.159916 0.134228 0.500000
O O10 0.000000 0.189638 0.575179
O O11 0.194493 0.088648 0.608253
O O12 0.500000 0.500000 0.642313
O O13 0.305507 0.588648 0.608254
O O14 0.625350 0.113250 0.102407
O O15 0.499998 0.246386 0.061354
O O16 0.500000 0.104932 0.000000
O O17 0.250000 0.750000 0.146144
O O18 0.126903 0.882301 0.096971
O O19 0.250000 0.750000 0.570839
O O20 0.500000 0.390066 0.000000
#
# Coordination Sequence:
#
# PCOD9323275 Si02
#       8
#     8   8   8   8   8   8   8   8
#     4  11  22  38  56  77 105 145 192 225 255 313
#     4  10  20  35  56  79 106 138 174 223 272 325
#     4   9  17  32  57  87 115 143 178 222 270 316
#     4   9  19  34  55  78 108 148 189 224 256 310
#     4   9  18  33  55  79 106 137 169 214 284 342
#     4  10  20  35  56  79 106 138 174 223 272 325
#     4   9  17  32  57  87 115 143 178 222 270 316
#     4   9  16  31  55  81 104 133 171 216 272 330
#
# _framework density 17.684284000000002
#
# number of rings (size 3 to 8) (size 9 to 14) (size 15 to 20)
#    0.000    2.500    1.250    1.125    0.000    6.000 
#    0.000    4.375    5.500    3.000    0.000    0.000 
#    0.000    0.000    0.000    0.000    0.000    0.000 
#
# Total GULP energy -178433.020483 kJ/mol
# GULP energy per Si atom -5576.031890 kJ/mol
# Density = 1.764403 g / cm^3
# Si number density = 17.684284 Si / 1000 Ang^3
#
#
#
# Elastic Constant Matrix: (Units=GPa)
#
#
# Indices 1 2 3 4 5 6 
#
# 1 120.0986 39.8308 69.3005 0.0000 0.0000 0.0000
# 2 39.8308 91.5244 81.2577 0.0000 0.0000 0.0000
# 3 69.3005 81.2577 177.9032 0.0000 0.0000 0.0000
# 4 0.0000 0.0000 0.0000 -17.9750 0.0000 0.0000
# 5 0.0000 0.0000 0.0000 0.0000 32.9856 0.0000
# 6 0.0000 0.0000 0.0000 0.0000 0.0000 14.9366
#
#
#
# Elastic Compliance Matrix: (Units=1/GPa)
#
#
# Indices 1 2 3 4 5 6 
#
# 1 0.010884 -0.001636 -0.003493 0.000000 0.000000 0.000000
# 2 -0.001636 0.018625 -0.007870 0.000000 0.000000 0.000000
# 3 -0.003493 -0.007870 0.010576 0.000000 0.000000 0.000000
# 4 0.000000 0.000000 0.000000 -0.055633 0.000000 0.000000
# 5 0.000000 0.000000 0.000000 0.000000 0.030316 0.000000
# 6 0.000000 0.000000 0.000000 0.000000 0.000000 0.066950
#
#
# Mechanical properties :
#
#
# Convention : Reuss Voigt Hill
#
# Bulk Modulus (GPa) = 70.97856 85.58935 78.28396
# Shear Modulus (GPa) = 44.47947 19.26526 31.87236
#
# Velocity S-wave (km/s) = 5.02062 3.30419 4.24995
# Velocity P-wave (km/s) = 8.59258 7.94106 8.27324
#
# Compressibility (1/GPa) = 0.01408876
#
# Stress axis : x y z
#
# Youngs Moduli (GPa) = 91.87420 53.69149 94.55268
#
# Poissons Ratio (x) = 0.08783 0.33025
# Poissons Ratio (y) = 0.15030 0.74410
# Poissons Ratio (z) = 0.32089 0.42254
#
# Static dielectric constant tensor:
#      x y z
#    x 1.614370 0.000000 0.000000 
#    y 0.000000 1.625680 0.000000 
#    z 0.000000 0.000000 1.585460 
# 
# From -- ./inp_files/38536.got.cif
#   From: 2010.05.17/outbox.cif.g08.bks.cpg/sg21_20_cif.got.tgz:38536.got - 2010.06.03 23:14:55.
