data_PCOD9323470
_publ_section_title
;
Structure prediction by ZEFSAII (Michael W. Deem and Ramdas Pophale) SiO2 
 PCOD9323470
Probable space group: C 2 2 2
;
_chemical_formula_sum "Si O2"
_cell_formula_units_Z 64
_cell_length_a 14.002112
_cell_length_b 24.460849
_cell_length_c 9.410888
_cell_angle_alpha 90.000000
_cell_angle_beta 90.000000
_cell_angle_gamma 90.000000
_cell_volume 3223.262523
_symmetry_space_group_name_H-M "C 2 2 2"
_symmetry_group_IT_number 21
_symmetry_cell_setting 'orthorhombic'
loop_
_space_group_symop_operation_xyz
x,y,z
-x,-y,z
x,-y,-z
-x,y,-z
1/2+x,1/2+y,z
1/2-x,1/2-y,z
1/2+x,1/2-y,-z
1/2-x,1/2+y,-z
loop_
_atom_site_type_symbol
_atom_site_label
_atom_site_fract_x
_atom_site_fract_y
_atom_site_fract_z
Si Si1 0.374972 0.351194 0.693283
Si Si2 0.232570 0.938935 0.791629
Si Si3 0.269326 0.340716 0.418680
Si Si4 0.398743 0.478480 0.660946
Si Si5 0.439288 0.715682 0.737543
Si Si6 0.041058 0.440902 0.159997
Si Si7 0.452349 0.165675 0.345430
Si Si8 0.105865 0.864775 0.987807
O O1 0.289735 0.338343 0.585903
O O2 0.400941 0.413772 0.663195
O O3 0.470221 0.315747 0.670399
O O4 0.354591 0.346935 0.860202
O O5 0.211982 0.900220 0.653346
O O6 0.185850 0.996816 0.755358
O O7 0.343500 0.943698 0.831665
O O8 0.176682 0.906827 0.914073
O O9 0.344786 0.298069 0.353129
O O10 0.160928 0.332416 0.374748
O O11 0.500000 0.500000 0.716360
O O12 0.388615 0.500000 0.500000
O O13 0.468359 0.778704 0.741926
O O14 0.414249 0.687384 0.887318
O O15 0.017654 0.388951 0.260475
O O16 0.000000 0.500000 0.208628
O O17 0.000000 0.432603 0.000000
O O18 0.500000 0.167836 0.500000
O O19 0.000000 0.890692 0.000000
#
# Coordination Sequence:
#
# PCOD9323470 Si02
#       8
#     8   8   8   8   8   8   8   8
#     4  11  21  34  59  93 126 162 201 252 298 369
#     4  10  21  41  60  87 127 169 206 252 318 370
#     4  10  20  37  61  87 122 158 205 255 314 374
#     4  11  21  32  57  95 136 166 202 239 304 393
#     4  10  21  39  61  87 128 166 198 246 316 379
#     4  10  25  47  67  87 118 167 217 266 318 376
#     4  11  24  41  65  93 117 158 213 270 323 369
#     4   9  20  36  59  93 131 164 198 243 308 382
#
# _framework density 19.855657999999998
#
# number of rings (size 3 to 8) (size 9 to 14) (size 15 to 20)
#    0.000    1.750    1.250    3.750    1.750    6.250 
#    0.000    2.500    0.000   15.000    0.000    0.000 
#    0.000    0.000    0.000    0.000    0.000    0.000 
#
# Total GULP energy -178606.262833 kJ/mol
# GULP energy per Si atom -5581.445714 kJ/mol
# Density = 1.981047 g / cm^3
# Si number density = 19.855658 Si / 1000 Ang^3
#
#
#
# Elastic Constant Matrix: (Units=GPa)
#
#
# Indices 1 2 3 4 5 6 
#
# 1 72.2662 41.9280 34.6213 0.0000 0.0000 0.0000
# 2 41.9280 141.2923 31.5319 0.0000 0.0000 0.0000
# 3 34.6213 31.5319 101.5007 0.0000 0.0000 0.0000
# 4 0.0000 0.0000 0.0000 -1.2788 0.0000 0.0000
# 5 0.0000 0.0000 0.0000 0.0000 29.6394 0.0000
# 6 0.0000 0.0000 0.0000 0.0000 0.0000 20.1595
#
#
#
# Elastic Compliance Matrix: (Units=1/GPa)
#
#
# Indices 1 2 3 4 5 6 
#
# 1 0.018844 -0.004467 -0.005040 0.000000 0.000000 0.000000
# 2 -0.004467 0.008664 -0.001168 0.000000 0.000000 0.000000
# 3 -0.005040 -0.001168 0.011934 0.000000 0.000000 0.000000
# 4 0.000000 0.000000 0.000000 -0.781959 0.000000 0.000000
# 5 0.000000 0.000000 0.000000 0.000000 0.033739 0.000000
# 6 0.000000 0.000000 0.000000 0.000000 0.000000 0.049604
#
#
# Mechanical properties :
#
#
# Convention : Reuss Voigt Hill
#
# Bulk Modulus (GPa) = 55.27220 59.02462 57.14841
# Shear Modulus (GPa) = -7.91397 23.50254 7.79428
#
# Velocity S-wave (km/s) = -1.99860 3.44418 1.98343
# Velocity P-wave (km/s) = 4.75095 6.75336 5.83864
#
# Compressibility (1/GPa) = 0.01809228
#
# Stress axis : x y z
#
# Youngs Moduli (GPa) = 53.06733 115.42352 83.79446
#
# Poissons Ratio (x) = 0.51562 0.42231
# Poissons Ratio (y) = 0.23706 0.09785
# Poissons Ratio (z) = 0.26745 0.13478
#
# Static dielectric constant tensor:
#      x y z
#    x 1.690320 0.000000 0.000000 
#    y 0.000000 1.711580 0.000000 
#    z 0.000000 0.000000 1.718530 
# 
# From -- ./inp_files/15473.got.cif
#   From: 2010.05.17/outbox.cif.g08.bks.cpg/sg21_8_cif.got.tgz:15473.got - 2010.06.03 23:14:55.
