data_PCOD9323921
_publ_section_title
;
Structure prediction by ZEFSAII (Michael W. Deem and Ramdas Pophale) SiO2 
 PCOD9323921
Probable space group: C 2 2 2
;
_chemical_formula_sum "Si O2"
_cell_formula_units_Z 64
_cell_length_a 31.562179
_cell_length_b 9.216854
_cell_length_c 11.354431
_cell_angle_alpha 90.000000
_cell_angle_beta 90.000000
_cell_angle_gamma 90.000000
_cell_volume 3303.049348
_symmetry_space_group_name_H-M "C 2 2 2"
_symmetry_group_IT_number 21
_symmetry_cell_setting 'orthorhombic'
loop_
_space_group_symop_operation_xyz
x,y,z
-x,-y,z
x,-y,-z
-x,y,-z
1/2+x,1/2+y,z
1/2-x,1/2-y,z
1/2+x,1/2-y,-z
1/2-x,1/2+y,-z
loop_
_atom_site_type_symbol
_atom_site_label
_atom_site_fract_x
_atom_site_fract_y
_atom_site_fract_z
Si Si1 0.278217 0.603219 0.111767
Si Si2 0.102446 0.243403 0.258640
Si Si3 0.548641 0.673395 0.490146
Si Si4 0.158062 0.497051 0.365073
Si Si5 0.404880 0.209475 0.717772
Si Si6 0.949994 0.468707 0.868359
Si Si7 0.875393 0.042097 0.125637
Si Si8 0.745476 0.425383 0.380959
O O1 0.250000 0.750000 0.103063
O O2 0.329235 0.612645 0.100696
O O3 0.273379 0.552271 0.249222
O O4 0.265352 0.500000 0.000000
O O5 0.073417 0.210014 0.371347
O O6 0.137595 0.361657 0.297462
O O7 0.069166 0.313819 0.167073
O O8 0.125106 0.102577 0.205067
O O9 0.548034 0.500000 0.500000
O O10 0.500000 0.725495 0.500000
O O11 0.574471 0.740522 0.597348
O O12 0.142222 0.500000 0.500000
O O13 0.141670 0.645063 0.306094
O O14 0.208345 0.501168 0.369574
O O15 0.403108 0.341739 0.806362
O O16 0.430576 0.078970 0.774574
O O17 0.000000 0.500000 0.865752
O O18 0.934732 0.500000 0.000000
O O19 0.893999 0.000000 0.000000
O O20 0.725711 0.500000 0.500000
O O21 0.750000 0.250000 0.399561
#
# Coordination Sequence:
#
# PCOD9323921 Si02
#       8
#     8   8   8   8   8   8   8   8
#     4  10  23  43  64  91 125 162 207 255 309 372
#     4  11  22  40  61  91 122 158 204 256 304 366
#     4  11  22  37  60  93 123 157 202 253 311 365
#     4  10  21  37  60  89 123 154 201 244 307 363
#     4  11  20  38  62  86 121 161 195 257 307 357
#     4  10  22  39  59  85 120 165 209 251 302 363
#     4  11  24  41  62  90 121 159 206 252 304 363
#     4  10  22  40  59  90 123 160 203 254 302 371
#
# _framework density 19.376035000000002
#
# number of rings (size 3 to 8) (size 9 to 14) (size 15 to 20)
#    0.000    1.500    2.500    3.000    0.000    4.500 
#    2.250    5.000    0.000    3.000    0.000    0.000 
#    0.000    0.000    0.000    0.000    0.000    0.000 
#
# Total GULP energy -178426.747114 kJ/mol
# GULP energy per Si atom -5575.835847 kJ/mol
# Density = 1.933193 g / cm^3
# Si number density = 19.376035 Si / 1000 Ang^3
#
#
#
# Elastic Constant Matrix: (Units=GPa)
#
#
# Indices 1 2 3 4 5 6 
#
# 1 37.8263 3.6105 -6.8895 0.0000 0.0000 0.0000
# 2 3.6105 61.3363 13.5550 0.0000 0.0000 0.0000
# 3 -6.8895 13.5550 114.5319 0.0000 0.0000 0.0000
# 4 0.0000 0.0000 0.0000 11.1332 0.0000 0.0000
# 5 0.0000 0.0000 0.0000 0.0000 28.0012 0.0000
# 6 0.0000 0.0000 0.0000 0.0000 0.0000 13.8749
#
#
#
# Elastic Compliance Matrix: (Units=1/GPa)
#
#
# Indices 1 2 3 4 5 6 
#
# 1 0.026966 -0.001998 0.001859 0.000000 0.000000 0.000000
# 2 -0.001998 0.016889 -0.002119 0.000000 0.000000 0.000000
# 3 0.001859 -0.002119 0.009094 0.000000 0.000000 0.000000
# 4 0.000000 0.000000 0.000000 0.089822 0.000000 0.000000
# 5 0.000000 0.000000 0.000000 0.000000 0.035713 0.000000
# 6 0.000000 0.000000 0.000000 0.000000 0.000000 0.072073
#
#
# Mechanical properties :
#
#
# Convention : Reuss Voigt Hill
#
# Bulk Modulus (GPa) = 20.64754 26.02741 23.33748
# Shear Modulus (GPa) = 18.43540 24.16309 21.29925
#
# Velocity S-wave (km/s) = 3.08791 3.53521 3.31910
# Velocity P-wave (km/s) = 4.83663 5.48867 5.17293
#
# Compressibility (1/GPa) = 0.04843191
#
# Stress axis : x y z
#
# Youngs Moduli (GPa) = 37.08398 59.20850 109.96516
#
# Poissons Ratio (x) = 0.11830 -0.20438
# Poissons Ratio (y) = 0.07410 0.23303
# Poissons Ratio (z) = -0.06892 0.12547
#
# Static dielectric constant tensor:
#      x y z
#    x 1.683440 0.000000 0.000000 
#    y 0.000000 1.685400 0.000000 
#    z 0.000000 0.000000 1.702340 
# 
# From -- ./inp_files/28112.got.cif
#   From: 2010.05.17/outbox.cif.g08.bks.cpg/sg21_15_cif.got.tgz:28112.got - 2010.06.03 23:14:55.
