data_PCOD9323698
_publ_section_title
;
Structure prediction by ZEFSAII (Michael W. Deem and Ramdas Pophale) SiO2 
 PCOD9323698
Probable space group: C 2 2 2
;
_chemical_formula_sum "Si O2"
_cell_formula_units_Z 40
_cell_length_a 20.807392
_cell_length_b 14.109164
_cell_length_c 6.081144
_cell_angle_alpha 90.000000
_cell_angle_beta 90.000000
_cell_angle_gamma 90.000000
_cell_volume 1785.271279
_symmetry_space_group_name_H-M "C 2 2 2"
_symmetry_group_IT_number 21
_symmetry_cell_setting 'orthorhombic'
loop_
_space_group_symop_operation_xyz
x,y,z
-x,-y,z
x,-y,-z
-x,y,-z
1/2+x,1/2+y,z
1/2-x,1/2-y,z
1/2+x,1/2-y,-z
1/2-x,1/2+y,-z
loop_
_atom_site_type_symbol
_atom_site_label
_atom_site_fract_x
_atom_site_fract_y
_atom_site_fract_z
Si Si1 0.838815 0.768209 0.292119
Si Si2 0.727347 0.401344 0.384824
Si Si3 0.900653 0.897216 0.919370
Si Si4 0.345952 0.110158 0.936371
Si Si5 0.058661 0.724153 0.340468
O O1 0.785837 0.829065 0.418610
O O2 0.884312 0.736246 0.487660
O O3 0.876073 0.840946 0.132168
O O4 0.827496 0.677826 0.138633
O O5 0.741178 0.500000 0.500000
O O6 0.662778 0.409763 0.235879
O O7 0.787568 0.375470 0.234277
O O8 0.947780 0.825602 0.786322
O O9 0.923822 0.000000 0.000000
O O10 0.413288 0.148636 0.834583
O O11 0.349691 0.000000 0.000000
O O12 0.000000 0.698568 0.500000
#
# Coordination Sequence:
#
# PCOD9323698 Si02
#       5
#     8   8   8   8   8
#     4  10  24  45  68  98 142 179 232 286 367 412
#     4  11  23  41  70 101 144 181 225 292 356 445
#     4  10  20  40  70 105 140 182 226 279 363 428
#     4  11  27  45  68 105 142 189 245 291 361 432
#     4  10  25  47  71  96 139 188 246 299 344 412
#
# _framework density 22.405557999999999
#
# number of rings (size 3 to 8) (size 9 to 14) (size 15 to 20)
#    0.000    1.600    2.000    0.600    2.800   12.000 
#    0.000    6.000    0.000    0.000    0.000    0.000 
#    0.000    0.000    0.000    0.000    0.000    0.000 
#
# Total GULP energy -111839.682168 kJ/mol
# GULP energy per Si atom -5591.984108 kJ/mol
# Density = 2.235456 g / cm^3
# Si number density = 22.405558 Si / 1000 Ang^3
#
#
#
# Elastic Constant Matrix: (Units=GPa)
#
#
# Indices 1 2 3 4 5 6 
#
# 1 84.7061 53.1966 38.1075 0.0000 0.0000 0.0000
# 2 53.1966 183.1778 92.0541 0.0000 0.0000 0.0000
# 3 38.1075 92.0541 136.0660 0.0000 0.0000 0.0000
# 4 0.0000 0.0000 0.0000 54.4092 0.0000 0.0000
# 5 0.0000 0.0000 0.0000 0.0000 51.5671 0.0000
# 6 0.0000 0.0000 0.0000 0.0000 0.0000 10.9862
#
#
#
# Elastic Compliance Matrix: (Units=1/GPa)
#
#
# Indices 1 2 3 4 5 6 
#
# 1 0.014746 -0.003344 -0.001868 0.000000 0.000000 0.000000
# 2 -0.003344 0.009030 -0.005172 0.000000 0.000000 0.000000
# 3 -0.001868 -0.005172 0.011372 0.000000 0.000000 0.000000
# 4 0.000000 0.000000 0.000000 0.018379 0.000000 0.000000
# 5 0.000000 0.000000 0.000000 0.000000 0.019392 0.000000
# 6 0.000000 0.000000 0.000000 0.000000 0.000000 0.091024
#
#
# Mechanical properties :
#
#
# Convention : Reuss Voigt Hill
#
# Bulk Modulus (GPa) = 69.54336 85.62958 77.58647
# Shear Modulus (GPa) = 26.38487 38.09861 32.24174
#
# Velocity S-wave (km/s) = 3.43535 4.12808 3.79754
# Velocity P-wave (km/s) = 6.84407 7.81168 7.34383
#
# Compressibility (1/GPa) = 0.01437952
#
# Stress axis : x y z
#
# Youngs Moduli (GPa) = 67.81675 110.74738 87.93725
#
# Poissons Ratio (x) = 0.37031 0.16423
# Poissons Ratio (y) = 0.22676 0.45485
# Poissons Ratio (z) = 0.12665 0.57283
#
# Static dielectric constant tensor:
#      x y z
#    x 1.897880 0.000000 0.000000 
#    y 0.000000 1.811370 0.000000 
#    z 0.000000 0.000000 1.852980 
# 
# From -- ./inp_files/6609.got.cif
#   From: 2010.05.17/outbox.cif.g08.bks.cpg/sg21_4_cif.got.tgz:6609.got - 2010.06.03 23:14:55.
