data_PCOD9323201
_publ_section_title
;
Structure prediction by ZEFSAII (Michael W. Deem and Ramdas Pophale) SiO2 
 PCOD9323201
Probable space group: C 2 2 2
;
_chemical_formula_sum "Si O2"
_cell_formula_units_Z 60
_cell_length_a 24.745339
_cell_length_b 5.110351
_cell_length_c 26.857130
_cell_angle_alpha 90.000000
_cell_angle_beta 90.000000
_cell_angle_gamma 90.000000
_cell_volume 3396.281969
_symmetry_space_group_name_H-M "C 2 2 2"
_symmetry_group_IT_number 21
_symmetry_cell_setting 'orthorhombic'
loop_
_space_group_symop_operation_xyz
x,y,z
-x,-y,z
x,-y,-z
-x,y,-z
1/2+x,1/2+y,z
1/2-x,1/2-y,z
1/2+x,1/2-y,-z
1/2-x,1/2+y,-z
loop_
_atom_site_type_symbol
_atom_site_label
_atom_site_fract_x
_atom_site_fract_y
_atom_site_fract_z
Si Si1 0.288896 0.500000 0.500000
Si Si2 0.035234 0.736155 0.814682
Si Si3 0.311296 0.305207 0.793280
Si Si4 0.846810 0.287305 0.853584
Si Si5 0.315265 0.247584 0.031970
Si Si6 0.623405 0.372446 0.308659
Si Si7 0.211011 0.000102 0.391061
Si Si8 0.943590 0.625903 0.300346
O O1 0.250000 0.750000 0.499333
O O2 0.316811 0.489679 0.446037
O O3 0.090606 0.779567 0.843581
O O4 0.052087 0.636601 0.759663
O O5 0.000000 0.500000 0.837151
O O6 0.000000 0.000000 0.810326
O O7 0.250000 0.250000 0.776024
O O8 0.311794 0.559592 0.828021
O O9 0.349959 0.367342 0.746381
O O10 0.332653 0.059679 0.825769
O O11 0.836055 0.281074 0.912094
O O12 0.250000 0.250000 0.035263
O O13 0.331841 0.500000 0.000000
O O14 0.332375 0.000000 0.000000
O O15 0.667851 0.465448 0.347823
O O16 0.574115 0.579121 0.312851
O O17 0.602277 0.078595 0.316853
O O18 0.250000 0.750000 0.390096
O O19 0.250000 0.250000 0.384709
O O20 0.000000 0.500000 0.318270
#
# Coordination Sequence:
#
# PCOD9323201 Si02
#       8
#     4   8   8   8   8   8   8   8
#     4   8  16  32  52  76 107 148 199 236 264 318
#     4  11  21  37  59  80 106 140 186 231 270 319
#     4  12  23  35  52  82 118 148 174 212 272 346
#     4  12  23  39  58  83 111 146 183 223 278 323
#     4  10  21  38  59  81 106 141 183 223 263 319
#     4  12  21  36  53  82 113 149 180 226 281 337
#     4  10  20  34  54  81 116 155 190 230 277 335
#     4  11  22  37  56  77 108 145 191 237 269 321
#
# _framework density 17.666378999999999
#
# number of rings (size 3 to 8) (size 9 to 14) (size 15 to 20)
#    0.000    1.067    2.667    6.000    0.000    2.133 
#    0.000    0.000    0.000    2.400    0.000    2.800 
#    0.000    0.000    0.000    0.000    0.000    0.000 
#
# Total GULP energy -167438.376138 kJ/mol
# GULP energy per Si atom -5581.279205 kJ/mol
# Density = 1.762617 g / cm^3
# Si number density = 17.666379 Si / 1000 Ang^3
#
#
#
# Elastic Constant Matrix: (Units=GPa)
#
#
# Indices 1 2 3 4 5 6 
#
# 1 57.6874 22.0572 19.6364 0.0000 0.0000 0.0000
# 2 22.0572 128.7373 34.7248 0.0000 0.0000 0.0000
# 3 19.6364 34.7248 108.8691 0.0000 0.0000 0.0000
# 4 0.0000 0.0000 0.0000 15.2237 0.0000 0.0000
# 5 0.0000 0.0000 0.0000 0.0000 2.8801 0.0000
# 6 0.0000 0.0000 0.0000 0.0000 0.0000 24.4282
#
#
#
# Elastic Compliance Matrix: (Units=1/GPa)
#
#
# Indices 1 2 3 4 5 6 
#
# 1 0.019221 -0.002580 -0.002644 0.000000 0.000000 0.000000
# 2 -0.002580 0.008845 -0.002356 0.000000 0.000000 0.000000
# 3 -0.002644 -0.002356 0.010414 0.000000 0.000000 0.000000
# 4 0.000000 0.000000 0.000000 0.065687 0.000000 0.000000
# 5 0.000000 0.000000 0.000000 0.000000 0.347214 0.000000
# 6 0.000000 0.000000 0.000000 0.000000 0.000000 0.040936
#
#
# Mechanical properties :
#
#
# Convention : Reuss Voigt Hill
#
# Bulk Modulus (GPa) = 42.88109 49.79230 46.33669
# Shear Modulus (GPa) = 9.70401 23.09809 16.40105
#
# Velocity S-wave (km/s) = 2.34624 3.61981 3.05023
# Velocity P-wave (km/s) = 5.62718 6.76141 6.22020
#
# Compressibility (1/GPa) = 0.02332030
#
# Stress axis : x y z
#
# Youngs Moduli (GPa) = 52.02559 113.05455 96.02769
#
# Poissons Ratio (x) = 0.29169 0.25389
# Poissons Ratio (y) = 0.13423 0.22623
# Poissons Ratio (z) = 0.13755 0.26635
#
# Static dielectric constant tensor:
#      x y z
#    x 1.611070 0.000000 0.000000 
#    y 0.000000 1.608000 0.000000 
#    z 0.000000 0.000000 1.615090 
# 
# From -- ./inp_files/38892.got.cif
#   From: 2010.05.17/outbox.cif.g08.bks.cpg/sg21_20_cif.got.tgz:38892.got - 2010.06.03 23:14:55.
