data_PCOD9323018
_publ_section_title
;
Structure prediction by ZEFSAII (Michael W. Deem and Ramdas Pophale) SiO2 
 PCOD9323018
Probable space group: C 2 2 2
;
_chemical_formula_sum "Si O2"
_cell_formula_units_Z 40
_cell_length_a 5.643849
_cell_length_b 20.161254
_cell_length_c 16.702475
_cell_angle_alpha 90.000000
_cell_angle_beta 90.000000
_cell_angle_gamma 90.000000
_cell_volume 1900.525746
_symmetry_space_group_name_H-M "C 2 2 2"
_symmetry_group_IT_number 21
_symmetry_cell_setting 'orthorhombic'
loop_
_space_group_symop_operation_xyz
x,y,z
-x,-y,z
x,-y,-z
-x,y,-z
1/2+x,1/2+y,z
1/2-x,1/2-y,z
1/2+x,1/2-y,-z
1/2-x,1/2+y,-z
loop_
_atom_site_type_symbol
_atom_site_label
_atom_site_fract_x
_atom_site_fract_y
_atom_site_fract_z
Si Si1 0.622070 0.184042 0.925026
Si Si2 0.000000 0.500000 0.625477
Si Si3 0.500000 0.115420 0.500000
Si Si4 0.384814 0.353782 0.230735
Si Si5 0.500000 0.306628 0.500000
Si Si6 0.500000 0.500000 0.713703
Si Si7 0.250000 0.250000 0.807614
Si Si8 0.750000 0.250000 0.647061
O O1 0.750000 0.250000 0.958923
O O2 0.798962 0.150579 0.861759
O O3 0.423865 0.210287 0.865255
O O4 0.500000 0.147797 0.000000
O O5 0.035619 0.565894 0.573824
O O6 0.249337 0.489004 0.669562
O O7 0.247048 0.152948 0.508252
O O8 0.447031 0.429531 0.244832
O O9 0.608352 0.305139 0.240112
O O10 0.214846 0.314677 0.294887
O O11 0.542196 0.266330 0.582821
#
# Coordination Sequence:
#
# PCOD9323018 Si02
#       8
#     8   4   4   8   4   4   4   4
#     4  10  19  37  68 111 139 179 238 300 366 434
#     4  11  24  44  72  94 133 198 248 302 353 452
#     4  11  23  46  67  98 137 187 251 304 379 413
#     4  11  25  43  69 106 143 194 242 302 361 445
#     4  12  27  41  65 102 147 187 241 322 361 434
#     4  12  28  45  70 107 148 192 248 296 364 432
#     4  10  20  38  70 102 138 186 228 306 348 436
#     4  12  24  44  64 102 142 186 244 286 370 412
#
# _framework density 21.046807000000001
#
# number of rings (size 3 to 8) (size 9 to 14) (size 15 to 20)
#    0.000    1.000    4.000    4.200    2.800    5.600 
#    0.000    0.000    0.000    3.600    0.000    0.000 
#    0.000    0.000    0.000    0.000    0.000    0.000 
#
# Total GULP energy -111431.427545 kJ/mol
# GULP energy per Si atom -5571.571377 kJ/mol
# Density = 2.099890 g / cm^3
# Si number density = 21.046807 Si / 1000 Ang^3
#
#
#
# Elastic Constant Matrix: (Units=GPa)
#
#
# Indices 1 2 3 4 5 6 
#
# 1 130.8844 56.8778 41.2282 0.0000 0.0000 0.0000
# 2 56.8778 151.0182 70.6372 0.0000 0.0000 0.0000
# 3 41.2282 70.6372 125.5637 0.0000 0.0000 0.0000
# 4 0.0000 0.0000 0.0000 167.2723 0.0000 0.0000
# 5 0.0000 0.0000 0.0000 0.0000 33.6940 0.0000
# 6 0.0000 0.0000 0.0000 0.0000 0.0000 41.4318
#
#
#
# Elastic Compliance Matrix: (Units=1/GPa)
#
#
# Indices 1 2 3 4 5 6 
#
# 1 0.009333 -0.002825 -0.001475 0.000000 0.000000 0.000000
# 2 -0.002825 0.009841 -0.004609 0.000000 0.000000 0.000000
# 3 -0.001475 -0.004609 0.011041 0.000000 0.000000 0.000000
# 4 0.000000 0.000000 0.000000 0.005978 0.000000 0.000000
# 5 0.000000 0.000000 0.000000 0.000000 0.029679 0.000000
# 6 0.000000 0.000000 0.000000 0.000000 0.000000 0.024136
#
#
# Mechanical properties :
#
#
# Convention : Reuss Voigt Hill
#
# Bulk Modulus (GPa) = 80.66203 82.77253 81.71728
# Shear Modulus (GPa) = 44.65932 64.39449 54.52690
#
# Velocity S-wave (km/s) = 4.61141 5.53735 5.09546
# Velocity P-wave (km/s) = 8.17079 8.96082 8.57490
#
# Compressibility (1/GPa) = 0.01239741
#
# Stress axis : x y z
#
# Youngs Moduli (GPa) = 107.15110 101.61135 90.57003
#
# Poissons Ratio (x) = 0.28705 0.13360
# Poissons Ratio (y) = 0.30270 0.41742
# Poissons Ratio (z) = 0.15806 0.46831
#
# Static dielectric constant tensor:
#      x y z
#    x 1.842370 0.000000 0.000000 
#    y 0.000000 1.764890 0.000000 
#    z 0.000000 0.000000 1.808080 
# 
# From -- ./inp_files/34946.got.cif
#   From: 2010.05.17/outbox.cif.g08.bks.cpg/sg21_18_cif.got.tgz:34946.got - 2010.06.03 23:14:55.
