data_PCOD9323208
_publ_section_title
;
Structure prediction by ZEFSAII (Michael W. Deem and Ramdas Pophale) SiO2 
 PCOD9323208
Probable space group: C 2 2 2
;
_chemical_formula_sum "Si O2"
_cell_formula_units_Z 38
_cell_length_a 19.690690
_cell_length_b 5.280256
_cell_length_c 18.021329
_cell_angle_alpha 90.000000
_cell_angle_beta 90.000000
_cell_angle_gamma 90.000000
_cell_volume 1873.711529
_symmetry_space_group_name_H-M "C 2 2 2"
_symmetry_group_IT_number 21
_symmetry_cell_setting 'orthorhombic'
loop_
_space_group_symop_operation_xyz
x,y,z
-x,-y,z
x,-y,-z
-x,y,-z
1/2+x,1/2+y,z
1/2-x,1/2-y,z
1/2+x,1/2-y,-z
1/2-x,1/2+y,-z
loop_
_atom_site_type_symbol
_atom_site_label
_atom_site_fract_x
_atom_site_fract_y
_atom_site_fract_z
Si Si1 0.500000 0.000000 0.000000
Si Si2 0.934469 0.177998 0.875325
Si Si3 0.293962 0.510894 0.174699
Si Si4 0.206059 0.000000 0.500000
Si Si5 0.542266 0.765430 0.289518
Si Si6 0.819102 0.087237 0.660446
O O1 0.550451 0.845838 0.053513
O O2 0.862900 0.032914 0.871650
O O3 0.938138 0.321165 0.796462
O O4 0.000000 0.000000 0.873673
O O5 0.250000 0.250000 0.172513
O O6 0.315249 0.563512 0.261241
O O7 0.250000 0.750000 0.149193
O O8 0.250000 0.250000 0.489427
O O9 0.172461 0.954259 0.419288
O O10 0.500000 0.500000 0.293456
O O11 0.613202 0.749283 0.331187
O O12 0.500000 0.000000 0.318467
O O13 0.750000 0.250000 0.660757
#
# Coordination Sequence:
#
# PCOD9323208 Si02
#       6
#     2   8   8   4   8   8
#     4  12  22  40  68  90 124 160 218 256 318 380
#     4  10  23  38  65  90 121 161 207 257 306 376
#     4  10  22  39  65  93 124 158 210 257 308 362
#     4  10  20  34  55  86 125 156 202 252 308 356
#     4  10  21  38  60  90 122 156 206 254 303 358
#     4   9  20  36  61  90 120 163 206 255 301 361
#
# _framework density 20.280605999999999
#
# number of rings (size 3 to 8) (size 9 to 14) (size 15 to 20)
#    0.000    2.105    1.053    0.947    2.947   13.474 
#    0.000    0.526    4.632    1.263    0.000    0.000 
#    0.000    0.000    0.000    0.000    0.000    0.000 
#
# Total GULP energy -105884.880412 kJ/mol
# GULP energy per Si atom -5572.888443 kJ/mol
# Density = 2.023445 g / cm^3
# Si number density = 20.280606 Si / 1000 Ang^3
#
#
#
# Elastic Constant Matrix: (Units=GPa)
#
#
# Indices 1 2 3 4 5 6 
#
# 1 167.0866 58.9515 51.7609 0.0000 0.0000 0.0000
# 2 58.9515 89.5023 29.0500 0.0000 0.0000 0.0000
# 3 51.7609 29.0500 116.2801 0.0000 0.0000 0.0000
# 4 0.0000 0.0000 0.0000 -285.3474 0.0000 0.0000
# 5 0.0000 0.0000 0.0000 0.0000 27.1216 0.0000
# 6 0.0000 0.0000 0.0000 0.0000 0.0000 36.8687
#
#
#
# Elastic Compliance Matrix: (Units=1/GPa)
#
#
# Indices 1 2 3 4 5 6 
#
# 1 0.008453 -0.004730 -0.002581 0.000000 0.000000 0.000000
# 2 -0.004730 0.014806 -0.001593 0.000000 0.000000 0.000000
# 3 -0.002581 -0.001593 0.010147 0.000000 0.000000 0.000000
# 4 0.000000 0.000000 0.000000 -0.003505 0.000000 0.000000
# 5 0.000000 0.000000 0.000000 0.000000 0.036871 0.000000
# 6 0.000000 0.000000 0.000000 0.000000 0.000000 0.027123
#
#
# Mechanical properties :
#
#
# Convention : Reuss Voigt Hill
#
# Bulk Modulus (GPa) = 64.11615 72.48822 68.30218
# Shear Modulus (GPa) = 42.77013 -28.73099 7.01957
#
# Velocity S-wave (km/s) = 4.59728 -3.76795 1.86245
# Velocity P-wave (km/s) = 7.73712 4.10977 6.19489
#
# Compressibility (1/GPa) = 0.01559669
#
# Stress axis : x y z
#
# Youngs Moduli (GPa) = 118.29512 67.54211 98.55147
#
# Poissons Ratio (x) = 0.31948 0.25439
# Poissons Ratio (y) = 0.55955 0.15702
# Poissons Ratio (z) = 0.30535 0.10761
#
# Static dielectric constant tensor:
#      x y z
#    x 1.885810 0.000000 0.000000 
#    y 0.000000 1.763370 0.000000 
#    z 0.000000 0.000000 1.783030 
# 
# From -- ./inp_files/34691.got.cif
#   From: 2010.05.17/outbox.cif.g08.bks.cpg/sg21_18_cif.got.tgz:34691.got - 2010.06.03 23:14:55.
