data_PCOD9323747
_publ_section_title
;
Structure prediction by ZEFSAII (Michael W. Deem and Ramdas Pophale) SiO2 
 PCOD9323747
Probable space group: C 2 2 2
;
_chemical_formula_sum "Si O2"
_cell_formula_units_Z 48
_cell_length_a 19.070974
_cell_length_b 14.621837
_cell_length_c 8.296589
_cell_angle_alpha 90.000000
_cell_angle_beta 90.000000
_cell_angle_gamma 90.000000
_cell_volume 2313.526022
_symmetry_space_group_name_H-M "C 2 2 2"
_symmetry_group_IT_number 21
_symmetry_cell_setting 'orthorhombic'
loop_
_space_group_symop_operation_xyz
x,y,z
-x,-y,z
x,-y,-z
-x,y,-z
1/2+x,1/2+y,z
1/2-x,1/2-y,z
1/2+x,1/2-y,-z
1/2-x,1/2+y,-z
loop_
_atom_site_type_symbol
_atom_site_label
_atom_site_fract_x
_atom_site_fract_y
_atom_site_fract_z
Si Si1 0.500000 0.000000 0.000000
Si Si2 0.637258 0.576521 0.273636
Si Si3 0.866962 0.134885 0.356239
Si Si4 0.276260 0.100104 0.080659
Si Si5 0.500000 0.000000 0.500000
Si Si6 0.988243 0.810455 0.188863
Si Si7 0.916919 0.620742 0.252171
Si Si8 0.250000 0.750000 0.176548
O O1 0.451571 0.933878 0.896076
O O2 0.644014 0.467574 0.288770
O O3 0.638336 0.621859 0.451391
O O4 0.699757 0.610814 0.160040
O O5 0.562350 0.602565 0.201827
O O6 0.807359 0.200088 0.285602
O O7 0.941483 0.171781 0.290915
O O8 0.334385 0.115023 0.218787
O O9 0.285181 0.175075 0.940894
O O10 0.282296 0.000000 0.000000
O O11 0.448066 0.065325 0.401182
O O12 0.945744 0.723282 0.255379
O O13 0.000000 0.792723 0.000000
#
# Coordination Sequence:
#
# PCOD9323747 Si02
#       8
#     2   8   8   8   2   8   8   4
#     4  10  20  42  64  94 138 178 234 294 348 426
#     4  11  26  48  70 106 147 185 239 300 372 430
#     4  11  26  47  72 105 145 192 235 304 365 438
#     4  12  24  46  74 105 143 192 242 303 361 437
#     4  10  28  42  68  98 146 186 242 290 368 434
#     4  12  25  43  75 102 142 188 246 296 362 437
#     4  11  24  44  67 102 137 186 238 292 360 430
#     4  12  26  44  74 108 142 186 248 298 364 440
#
# _framework density 20.747551999999999
#
# number of rings (size 3 to 8) (size 9 to 14) (size 15 to 20)
#    0.000    0.667    3.333    4.000    2.333    5.333 
#    0.000    0.000    0.000    0.000    0.000    0.000 
#    0.000    0.000    0.000    0.000    0.000    0.000 
#
# Total GULP energy -134296.254030 kJ/mol
# GULP energy per Si atom -5595.677251 kJ/mol
# Density = 2.070033 g / cm^3
# Si number density = 20.747552 Si / 1000 Ang^3
#
#
#
# Elastic Constant Matrix: (Units=GPa)
#
#
# Indices 1 2 3 4 5 6 
#
# 1 144.0202 42.3057 37.5644 0.0000 0.0000 0.0000
# 2 42.3057 121.7791 46.2330 0.0000 0.0000 0.0000
# 3 37.5644 46.2330 66.5355 0.0000 0.0000 0.0000
# 4 0.0000 0.0000 0.0000 40.1569 0.0000 0.0000
# 5 0.0000 0.0000 0.0000 0.0000 22.7442 0.0000
# 6 0.0000 0.0000 0.0000 0.0000 0.0000 26.2933
#
#
#
# Elastic Compliance Matrix: (Units=1/GPa)
#
#
# Indices 1 2 3 4 5 6 
#
# 1 0.008341 -0.001508 -0.003662 0.000000 0.000000 0.000000
# 2 -0.001508 0.011427 -0.007089 0.000000 0.000000 0.000000
# 3 -0.003662 -0.007089 0.022023 0.000000 0.000000 0.000000
# 4 0.000000 0.000000 0.000000 0.024902 0.000000 0.000000
# 5 0.000000 0.000000 0.000000 0.000000 0.043967 0.000000
# 6 0.000000 0.000000 0.000000 0.000000 0.000000 0.038033
#
#
# Mechanical properties :
#
#
# Convention : Reuss Voigt Hill
#
# Bulk Modulus (GPa) = 57.88927 64.94899 61.41913
# Shear Modulus (GPa) = 27.93812 31.58767 29.76289
#
# Velocity S-wave (km/s) = 3.67355 3.90613 3.79162
# Velocity P-wave (km/s) = 6.77906 7.19139 6.98827
#
# Compressibility (1/GPa) = 0.01727436
#
# Stress axis : x y z
#
# Youngs Moduli (GPa) = 119.88361 87.51562 45.40784
#
# Poissons Ratio (x) = 0.13194 0.16627
# Poissons Ratio (y) = 0.18074 0.32188
# Poissons Ratio (z) = 0.43899 0.62037
#
# Static dielectric constant tensor:
#      x y z
#    x 1.714990 0.000000 0.000000 
#    y 0.000000 1.724550 0.000000 
#    z 0.000000 0.000000 1.747040 
# 
# From -- ./inp_files/16488.got.cif
#   From: 2010.05.17/outbox.cif.g08.bks.cpg/sg21_9_cif.got.tgz:16488.got - 2010.06.03 23:14:55.
