data_PCOD9323976
_publ_section_title
;
Structure prediction by ZEFSAII (Michael W. Deem and Ramdas Pophale) SiO2 
 PCOD9323976
Probable space group: C 2 2 2
;
_chemical_formula_sum "Si O2"
_cell_formula_units_Z 48
_cell_length_a 8.244422
_cell_length_b 16.963670
_cell_length_c 14.256843
_cell_angle_alpha 90.000000
_cell_angle_beta 90.000000
_cell_angle_gamma 90.000000
_cell_volume 1993.900104
_symmetry_space_group_name_H-M "C 2 2 2"
_symmetry_group_IT_number 21
_symmetry_cell_setting 'orthorhombic'
loop_
_space_group_symop_operation_xyz
x,y,z
-x,-y,z
x,-y,-z
-x,y,-z
1/2+x,1/2+y,z
1/2-x,1/2-y,z
1/2+x,1/2-y,-z
1/2-x,1/2+y,-z
loop_
_atom_site_type_symbol
_atom_site_label
_atom_site_fract_x
_atom_site_fract_y
_atom_site_fract_z
Si Si1 0.488571 0.090982 0.230421
Si Si2 0.189887 0.840544 0.874877
Si Si3 0.810113 0.340544 0.374877
Si Si4 0.332990 0.331110 0.439279
Si Si5 0.167010 0.331110 0.939279
Si Si6 0.988571 0.909018 0.730421
O O1 0.315849 0.108588 0.185044
O O2 0.523627 0.145120 0.320764
O O3 0.612374 0.115279 0.146606
O O4 0.500000 0.000000 0.255635
O O5 0.250000 0.750000 0.869476
O O6 0.023627 0.854880 0.820764
O O7 0.210268 0.865273 0.982701
O O8 0.750000 0.250000 0.369476
O O9 0.789732 0.365273 0.482701
O O10 0.684151 0.391412 0.314956
O O11 0.500000 0.315140 0.500000
O O12 0.250000 0.250000 0.407283
O O13 0.387626 0.384721 0.353394
O O14 0.250000 0.250000 0.907282
O O15 0.000000 0.315140 0.000000
O O16 0.000000 0.000000 0.755635
#
# Coordination Sequence:
#
# PCOD9323976 Si02
#       6
#     8   8   8   8   8   8
#     4  11  22  38  60  88 119 152 190 242 296 343
#     4  10  21  38  60  85 116 156 197 235 283 346
#     4  10  21  38  60  85 116 156 197 235 283 346
#     4   9  20  37  59  85 115 155 198 237 283 343
#     4   9  20  37  59  85 115 155 198 237 283 343
#     4  11  22  38  60  88 119 152 190 242 296 343
#
# _framework density 24.073422999999998
#
# number of rings (size 3 to 8) (size 9 to 14) (size 15 to 20)
#    0.000    2.000    0.000    3.000    0.000   11.333 
#    0.000    0.000    0.000    2.000    0.000    0.000 
#    0.000    0.000    0.000    0.000    0.000    0.000 
#
# Total GULP energy -134276.599407 kJ/mol
# GULP energy per Si atom -5594.858309 kJ/mol
# Density = 2.401863 g / cm^3
# Si number density = 24.073423 Si / 1000 Ang^3
#
#
#
# Elastic Constant Matrix: (Units=GPa)
#
#
# Indices 1 2 3 4 5 6 
#
# 1 39.6983 12.0094 41.7337 0.0000 0.0000 0.0000
# 2 12.0094 76.0449 29.8564 0.0000 0.0000 0.0000
# 3 41.7337 29.8564 129.7791 0.0000 0.0000 0.0000
# 4 0.0000 0.0000 0.0000 9.8305 0.0000 0.0000
# 5 0.0000 0.0000 0.0000 0.0000 26.8584 0.0000
# 6 0.0000 0.0000 0.0000 0.0000 0.0000 39.1588
#
#
#
# Elastic Compliance Matrix: (Units=1/GPa)
#
#
# Indices 1 2 3 4 5 6 
#
# 1 0.038177 -0.001329 -0.011971 0.000000 0.000000 0.000000
# 2 -0.001329 0.014502 -0.002909 0.000000 0.000000 0.000000
# 3 -0.011971 -0.002909 0.012224 0.000000 0.000000 0.000000
# 4 0.000000 0.000000 0.000000 0.101724 0.000000 0.000000
# 5 0.000000 0.000000 0.000000 0.000000 0.037232 0.000000
# 6 0.000000 0.000000 0.000000 0.000000 0.000000 0.025537
#
#
# Mechanical properties :
#
#
# Convention : Reuss Voigt Hill
#
# Bulk Modulus (GPa) = 30.78325 45.85793 38.32059
# Shear Modulus (GPa) = 18.33899 25.96437 22.15168
#
# Velocity S-wave (km/s) = 2.76306 3.28769 3.03672
# Velocity P-wave (km/s) = 4.79524 5.78813 5.31492
#
# Compressibility (1/GPa) = 0.03248520
#
# Stress axis : x y z
#
# Youngs Moduli (GPa) = 26.19393 68.95554 81.80531
#
# Poissons Ratio (x) = 0.09165 0.97928
# Poissons Ratio (y) = 0.03482 0.23796
# Poissons Ratio (z) = 0.31357 0.20058
#
# Static dielectric constant tensor:
#      x y z
#    x 2.070180 0.000000 0.000000 
#    y 0.000000 1.837410 0.000000 
#    z 0.000000 0.000000 1.914550 
# 
# From -- ./inp_files/30461.got.cif
#   From: 2010.05.17/outbox.cif.g08.bks.cpg/sg21_16_cif.got.tgz:30461.got - 2010.06.03 23:14:55.
