data_PCOD9323920
_publ_section_title
;
Structure prediction by ZEFSAII (Michael W. Deem and Ramdas Pophale) SiO2 
 PCOD9323920
Probable space group: C 2 2 2
;
_chemical_formula_sum "Si O2"
_cell_formula_units_Z 48
_cell_length_a 13.772200
_cell_length_b 13.777353
_cell_length_c 13.305104
_cell_angle_alpha 90.000000
_cell_angle_beta 90.000000
_cell_angle_gamma 90.000000
_cell_volume 2524.569787
_symmetry_space_group_name_H-M "C 2 2 2"
_symmetry_group_IT_number 21
_symmetry_cell_setting 'orthorhombic'
loop_
_space_group_symop_operation_xyz
x,y,z
-x,-y,z
x,-y,-z
-x,y,-z
1/2+x,1/2+y,z
1/2-x,1/2-y,z
1/2+x,1/2-y,-z
1/2-x,1/2+y,-z
loop_
_atom_site_type_symbol
_atom_site_label
_atom_site_fract_x
_atom_site_fract_y
_atom_site_fract_z
Si Si1 0.809190 0.658441 0.420874
Si Si2 0.893464 0.601191 0.047563
Si Si3 0.000000 0.756146 0.500000
Si Si4 0.891306 0.515490 0.265777
Si Si5 0.854703 0.910053 0.571745
Si Si6 0.261874 0.357587 0.760425
Si Si7 0.250000 0.250000 0.952705
O O1 0.750000 0.750000 0.376281
O O2 0.824127 0.570000 0.345745
O O3 0.744124 0.627184 0.516384
O O4 0.917154 0.692719 0.448320
O O5 0.900210 0.580835 0.165891
O O6 0.854718 0.500000 0.000000
O O7 0.826811 0.691312 0.018054
O O8 0.000000 0.614656 0.000000
O O9 0.062375 0.828655 0.431291
O O10 0.840030 0.414293 0.236550
O O11 0.000000 0.500000 0.305597
O O12 0.830590 0.921095 0.689133
O O13 0.883395 0.000000 0.500000
O O14 0.250000 0.250000 0.712452
O O15 0.294258 0.328715 0.873029
#
# Coordination Sequence:
#
# PCOD9323920 Si02
#       7
#     8   8   4   8   8   8   4
#     4  10  24  39  55  91 124 161 202 255 304 363
#     4  11  20  40  60  92 121 151 206 258 308 373
#     4  10  23  38  59  80 126 166 202 243 309 356
#     4  12  23  37  64  91 123 158 208 261 315 365
#     4  11  21  39  59  84 123 163 206 251 290 369
#     4  10  21  37  60  88 118 158 205 248 306 371
#     4  10  22  36  66  90 118 166 196 256 324 364
#
# _framework density 19.01314
#
# number of rings (size 3 to 8) (size 9 to 14) (size 15 to 20)
#    0.500    0.833    5.000    1.750    5.833    0.000 
#    0.000    0.000    0.000    0.500    0.000    0.000 
#    0.000    0.000    0.000    0.000    0.000    0.000 
#
# Total GULP energy -133735.982665 kJ/mol
# GULP energy per Si atom -5572.332611 kJ/mol
# Density = 1.896987 g / cm^3
# Si number density = 19.013140 Si / 1000 Ang^3
#
#
#
# Elastic Constant Matrix: (Units=GPa)
#
#
# Indices 1 2 3 4 5 6 
#
# 1 103.0357 50.3116 25.5053 0.0000 0.0000 0.0000
# 2 50.3116 99.1090 12.7601 0.0000 0.0000 0.0000
# 3 25.5053 12.7601 44.8381 0.0000 0.0000 0.0000
# 4 0.0000 0.0000 0.0000 18.5723 0.0000 0.0000
# 5 0.0000 0.0000 0.0000 0.0000 18.6434 0.0000
# 6 0.0000 0.0000 0.0000 0.0000 0.0000 43.1082
#
#
#
# Elastic Compliance Matrix: (Units=1/GPa)
#
#
# Indices 1 2 3 4 5 6 
#
# 1 0.014469 -0.006524 -0.006374 0.000000 0.000000 0.000000
# 2 -0.006524 0.013416 -0.000107 0.000000 0.000000 0.000000
# 3 -0.006374 -0.000107 0.025958 0.000000 0.000000 0.000000
# 4 0.000000 0.000000 0.000000 0.053844 0.000000 0.000000
# 5 0.000000 0.000000 0.000000 0.000000 0.053638 0.000000
# 6 0.000000 0.000000 0.000000 0.000000 0.000000 0.023197
#
#
# Mechanical properties :
#
#
# Convention : Reuss Voigt Hill
#
# Bulk Modulus (GPa) = 35.92768 47.12629 41.52699
# Shear Modulus (GPa) = 22.74698 26.62516 24.68607
#
# Velocity S-wave (km/s) = 3.46263 3.74619 3.60720
# Velocity P-wave (km/s) = 5.90962 6.59939 6.26401
#
# Compressibility (1/GPa) = 0.02783369
#
# Stress axis : x y z
#
# Youngs Moduli (GPa) = 69.11371 74.53977 38.52327
#
# Poissons Ratio (x) = 0.48633 0.24553
# Poissons Ratio (y) = 0.45092 0.00411
# Poissons Ratio (z) = 0.44051 0.00794
#
# Static dielectric constant tensor:
#      x y z
#    x 1.664980 0.000000 0.000000 
#    y 0.000000 1.708830 0.000000 
#    z 0.000000 0.000000 1.685060 
# 
# From -- ./inp_files/31535.got.cif
#   From: 2010.05.17/outbox.cif.g08.bks.cpg/sg21_16_cif.got.tgz:31535.got - 2010.06.03 23:14:55.
