data_PCOD9323900
_publ_section_title
;
Structure prediction by ZEFSAII (Michael W. Deem and Ramdas Pophale) SiO2 
 PCOD9323900
Probable space group: C 2 2 2
;
_chemical_formula_sum "Si O2"
_cell_formula_units_Z 40
_cell_length_a 14.670130
_cell_length_b 11.418886
_cell_length_c 11.461897
_cell_angle_alpha 90.000000
_cell_angle_beta 90.000000
_cell_angle_gamma 90.000000
_cell_volume 1920.057351
_symmetry_space_group_name_H-M "C 2 2 2"
_symmetry_group_IT_number 21
_symmetry_cell_setting 'orthorhombic'
loop_
_space_group_symop_operation_xyz
x,y,z
-x,-y,z
x,-y,-z
-x,y,-z
1/2+x,1/2+y,z
1/2-x,1/2-y,z
1/2+x,1/2-y,-z
1/2-x,1/2+y,-z
loop_
_atom_site_type_symbol
_atom_site_label
_atom_site_fract_x
_atom_site_fract_y
_atom_site_fract_z
Si Si1 0.860779 0.456255 0.630403
Si Si2 0.784433 0.079918 0.817518
Si Si3 0.619623 0.205823 0.917337
Si Si4 0.655224 0.683599 0.833031
Si Si5 0.980528 0.662407 0.733047
O O1 0.848402 0.500000 0.500000
O O2 0.768033 0.421211 0.694178
O O3 0.907133 0.561431 0.705074
O O4 0.937994 0.355646 0.640536
O O5 0.703478 0.115390 0.907463
O O6 0.855526 0.184851 0.832245
O O7 0.826713 0.953811 0.840807
O O8 0.532044 0.148246 0.857756
O O9 0.620670 0.263328 0.043930
O O10 0.750000 0.750000 0.805674
O O11 0.577711 0.719555 0.740767
#
# Coordination Sequence:
#
# PCOD9323900 Si02
#       5
#     8   8   8   8   8
#     4  10  21  42  65  86 115 157 216 269 300 337
#     4  10  21  39  59  87 124 158 203 250 299 369
#     4  10  22  38  59  87 126 166 198 246 308 367
#     4  12  21  35  59  90 125 161 199 247 307 365
#     4  10  21  37  56  88 116 155 203 246 303 361
#
# _framework density 20.832709000000001
#
# number of rings (size 3 to 8) (size 9 to 14) (size 15 to 20)
#    0.000    1.600    4.000    2.400    0.000    0.800 
#    0.000   16.000    0.000    0.000    0.000   18.200 
#    0.000    0.000    0.000    0.000    0.000    0.000 
#
# Total GULP energy -111595.720547 kJ/mol
# GULP energy per Si atom -5579.786027 kJ/mol
# Density = 2.078529 g / cm^3
# Si number density = 20.832709 Si / 1000 Ang^3
#
#
#
# Elastic Constant Matrix: (Units=GPa)
#
#
# Indices 1 2 3 4 5 6 
#
# 1 51.1341 28.9282 42.9858 0.0000 0.0000 0.0000
# 2 28.9282 124.1759 35.1583 0.0000 0.0000 0.0000
# 3 42.9858 35.1583 92.5503 0.0000 0.0000 0.0000
# 4 0.0000 0.0000 0.0000 18.8510 0.0000 0.0000
# 5 0.0000 0.0000 0.0000 0.0000 24.4399 0.0000
# 6 0.0000 0.0000 0.0000 0.0000 0.0000 18.2342
#
#
#
# Elastic Compliance Matrix: (Units=1/GPa)
#
#
# Indices 1 2 3 4 5 6 
#
# 1 0.033629 -0.003823 -0.014167 0.000000 0.000000 0.000000
# 2 -0.003823 0.009458 -0.001817 0.000000 0.000000 0.000000
# 3 -0.014167 -0.001817 0.018075 0.000000 0.000000 0.000000
# 4 0.000000 0.000000 0.000000 0.053048 0.000000 0.000000
# 5 0.000000 0.000000 0.000000 0.000000 0.040917 0.000000
# 6 0.000000 0.000000 0.000000 0.000000 0.000000 0.054842
#
#
# Mechanical properties :
#
#
# Convention : Reuss Voigt Hill
#
# Bulk Modulus (GPa) = 46.40888 53.55610 49.98249
# Shear Modulus (GPa) = 19.47306 23.02423 21.24864
#
# Velocity S-wave (km/s) = 3.06066 3.32806 3.19715
# Velocity P-wave (km/s) = 5.90046 6.36643 6.13787
#
# Compressibility (1/GPa) = 0.02154760
#
# Stress axis : x y z
#
# Youngs Moduli (GPa) = 29.73667 105.72740 55.32451
#
# Poissons Ratio (x) = 0.40421 0.78377
# Poissons Ratio (y) = 0.11369 0.10055
# Poissons Ratio (z) = 0.42127 0.19215
#
# Static dielectric constant tensor:
#      x y z
#    x 1.805440 0.000000 0.000000 
#    y 0.000000 1.748810 0.000000 
#    z 0.000000 0.000000 1.760330 
# 
# From -- ./inp_files/23774.got.cif
#   From: 2010.05.17/outbox.cif.g08.bks.cpg/sg21_12_cif.got.tgz:23774.got - 2010.06.03 23:14:55.
