data_PCOD9323819
_publ_section_title
;
Structure prediction by ZEFSAII (Michael W. Deem and Ramdas Pophale) SiO2 
 PCOD9323819
Probable space group: C 2 2 2
;
_chemical_formula_sum "Si O2"
_cell_formula_units_Z 44
_cell_length_a 16.163127
_cell_length_b 24.913685
_cell_length_c 5.655572
_cell_angle_alpha 90.000000
_cell_angle_beta 90.000000
_cell_angle_gamma 90.000000
_cell_volume 2277.403009
_symmetry_space_group_name_H-M "C 2 2 2"
_symmetry_group_IT_number 21
_symmetry_cell_setting 'orthorhombic'
loop_
_space_group_symop_operation_xyz
x,y,z
-x,-y,z
x,-y,-z
-x,y,-z
1/2+x,1/2+y,z
1/2-x,1/2-y,z
1/2+x,1/2-y,-z
1/2-x,1/2+y,-z
loop_
_atom_site_type_symbol
_atom_site_label
_atom_site_fract_x
_atom_site_fract_y
_atom_site_fract_z
Si Si1 0.319776 0.000000 0.500000
Si Si2 0.953959 0.216192 0.741329
Si Si3 0.383100 0.168916 0.374621
Si Si4 0.915878 0.564677 0.128131
Si Si5 0.209872 0.393153 0.746419
Si Si6 0.777823 0.809538 0.055908
O O1 0.380722 0.981478 0.706913
O O2 0.272600 0.944512 0.425050
O O3 0.933623 0.277691 0.671747
O O4 0.863155 0.192335 0.799453
O O5 0.000000 0.194730 0.500000
O O6 0.000000 0.213737 0.000000
O O7 0.432047 0.118036 0.279414
O O8 0.352190 0.150562 0.630643
O O9 0.297178 0.175537 0.230708
O O10 0.840957 0.580060 0.956781
O O11 0.000000 0.553355 0.000000
O O12 0.281176 0.355527 0.854875
O O13 0.750000 0.750000 0.963629
#
# Coordination Sequence:
#
# PCOD9323819 Si02
#       6
#     4   8   8   8   8   8
#     4  10  22  37  52  86 114 167 212 272 310 369
#     4  11  25  38  61  92 127 163 212 264 314 377
#     4   9  21  35  57  84 116 168 209 251 303 376
#     4  10  21  35  53  79 119 160 209 258 313 361
#     4  10  21  36  60  79 121 164 214 257 308 375
#     4   9  21  39  57  83 119 169 208 254 314 384
#
# _framework density 19.320253000000001
#
# number of rings (size 3 to 8) (size 9 to 14) (size 15 to 20)
#    0.000    2.182    0.000    1.091   12.727    5.091 
#    0.000    0.000    0.000    0.000    0.000    0.000 
#    0.000   42.182    0.000    0.000    0.000    0.000 
#
# Total GULP energy -122541.090827 kJ/mol
# GULP energy per Si atom -5570.049583 kJ/mol
# Density = 1.927628 g / cm^3
# Si number density = 19.320253 Si / 1000 Ang^3
#
#
#
# Elastic Constant Matrix: (Units=GPa)
#
#
# Indices 1 2 3 4 5 6 
#
# 1 83.3728 39.5199 39.6113 0.0000 0.0000 0.0000
# 2 39.5199 100.7788 41.1248 0.0000 0.0000 0.0000
# 3 39.6113 41.1248 96.3282 0.0000 0.0000 0.0000
# 4 0.0000 0.0000 0.0000 25.7717 0.0000 0.0000
# 5 0.0000 0.0000 0.0000 0.0000 27.1933 0.0000
# 6 0.0000 0.0000 0.0000 0.0000 0.0000 13.4167
#
#
#
# Elastic Compliance Matrix: (Units=1/GPa)
#
#
# Indices 1 2 3 4 5 6 
#
# 1 0.016409 -0.004458 -0.004844 0.000000 0.000000 0.000000
# 2 -0.004458 0.013227 -0.003814 0.000000 0.000000 0.000000
# 3 -0.004844 -0.003814 0.014002 0.000000 0.000000 0.000000
# 4 0.000000 0.000000 0.000000 0.038802 0.000000 0.000000
# 5 0.000000 0.000000 0.000000 0.000000 0.036774 0.000000
# 6 0.000000 0.000000 0.000000 0.000000 0.000000 0.074534
#
#
# Mechanical properties :
#
#
# Convention : Reuss Voigt Hill
#
# Bulk Modulus (GPa) = 57.45344 57.88798 57.67071
# Shear Modulus (GPa) = 22.14527 23.95793 23.05160
#
# Velocity S-wave (km/s) = 3.38926 3.52524 3.45792
# Velocity P-wave (km/s) = 6.71700 6.82621 6.77183
#
# Compressibility (1/GPa) = 0.01740540
#
# Stress axis : x y z
#
# Youngs Moduli (GPa) = 60.94192 75.60198 71.42092
#
# Poissons Ratio (x) = 0.33702 0.34599
# Poissons Ratio (y) = 0.27167 0.27239
# Poissons Ratio (z) = 0.29523 0.28834
#
# Static dielectric constant tensor:
#      x y z
#    x 1.661490 0.000000 0.000000 
#    y 0.000000 1.732120 0.000000 
#    z 0.000000 0.000000 1.773410 
# 
# From -- ./inp_files/4014.got.cif
#   From: 2010.05.17/outbox.cif.g08.bks.cpg/sg21_3_cif.got.tgz:4014.got - 2010.06.03 23:14:55.
