data_PCOD9323448
_publ_section_title
;
Structure prediction by ZEFSAII (Michael W. Deem and Ramdas Pophale) SiO2 
 PCOD9323448
Probable space group: C 2 2 2
;
_chemical_formula_sum "Si O2"
_cell_formula_units_Z 40
_cell_length_a 11.661588
_cell_length_b 19.624552
_cell_length_c 8.602127
_cell_angle_alpha 90.000000
_cell_angle_beta 90.000000
_cell_angle_gamma 90.000000
_cell_volume 1968.626356
_symmetry_space_group_name_H-M "C 2 2 2"
_symmetry_group_IT_number 21
_symmetry_cell_setting 'orthorhombic'
loop_
_space_group_symop_operation_xyz
x,y,z
-x,-y,z
x,-y,-z
-x,y,-z
1/2+x,1/2+y,z
1/2-x,1/2-y,z
1/2+x,1/2-y,-z
1/2-x,1/2+y,-z
loop_
_atom_site_type_symbol
_atom_site_label
_atom_site_fract_x
_atom_site_fract_y
_atom_site_fract_z
Si Si1 0.750000 0.250000 0.161273
Si Si2 0.756681 0.330306 0.679699
Si Si3 0.712912 0.000000 0.000000
Si Si4 0.605271 0.158206 0.394789
Si Si5 0.132789 0.869723 0.965834
Si Si6 0.949938 0.409672 0.831304
O O1 0.659779 0.210024 0.271410
O O2 0.817182 0.196112 0.054334
O O3 0.750000 0.250000 0.655218
O O4 0.794009 0.361986 0.514795
O O5 0.862779 0.349022 0.791091
O O6 0.652006 0.358909 0.780241
O O7 0.792830 0.934533 0.976652
O O8 0.628065 0.023444 0.860070
O O9 0.500000 0.187937 0.500000
O O10 0.544722 0.096997 0.301712
O O11 0.000000 0.879234 0.000000
O O12 0.000000 0.395843 0.000000
#
# Coordination Sequence:
#
# PCOD9323448 Si02
#       6
#     4   8   4   8   8   8
#     4  12  24  36  62 104 130 166 232 288 350 428
#     4  10  20  37  58  96 141 174 215 279 344 424
#     4  10  22  44  62  92 128 172 226 294 340 410
#     4  10  22  37  61  98 138 176 215 280 361 412
#     4  11  25  39  68  95 135 180 233 289 356 404
#     4  10  21  37  66  94 127 169 231 279 346 404
#
# _framework density 20.318736999999999
#
# number of rings (size 3 to 8) (size 9 to 14) (size 15 to 20)
#    0.000    1.600    2.000    3.000    5.600    0.000 
#    0.000    0.000    0.000  106.800    0.000   16.800 
#    0.000    0.000    0.000    0.000    0.000    0.000 
#
# Total GULP energy -111537.185500 kJ/mol
# GULP energy per Si atom -5576.859275 kJ/mol
# Density = 2.027249 g / cm^3
# Si number density = 20.318737 Si / 1000 Ang^3
#
#
#
# Elastic Constant Matrix: (Units=GPa)
#
#
# Indices 1 2 3 4 5 6 
#
# 1 125.3496 71.8987 68.8912 0.0000 0.0000 0.0000
# 2 71.8987 104.2995 48.5681 0.0000 0.0000 0.0000
# 3 68.8912 48.5681 116.4092 0.0000 0.0000 0.0000
# 4 0.0000 0.0000 0.0000 19.7246 0.0000 0.0000
# 5 0.0000 0.0000 0.0000 0.0000 45.1822 0.0000
# 6 0.0000 0.0000 0.0000 0.0000 0.0000 23.9285
#
#
#
# Elastic Compliance Matrix: (Units=1/GPa)
#
#
# Indices 1 2 3 4 5 6 
#
# 1 0.016021 -0.008228 -0.006049 0.000000 0.000000 0.000000
# 2 -0.008228 0.016125 -0.001859 0.000000 0.000000 0.000000
# 3 -0.006049 -0.001859 0.012945 0.000000 0.000000 0.000000
# 4 0.000000 0.000000 0.000000 0.050698 0.000000 0.000000
# 5 0.000000 0.000000 0.000000 0.000000 0.022133 0.000000
# 6 0.000000 0.000000 0.000000 0.000000 0.000000 0.041791
#
#
# Mechanical properties :
#
#
# Convention : Reuss Voigt Hill
#
# Bulk Modulus (GPa) = 77.99113 80.53048 79.26081
# Shear Modulus (GPa) = 25.47683 28.21376 26.84530
#
# Velocity S-wave (km/s) = 3.54483 3.73038 3.63879
# Velocity P-wave (km/s) = 7.43112 7.63374 7.53311
#
# Compressibility (1/GPa) = 0.01282197
#
# Stress axis : x y z
#
# Youngs Moduli (GPa) = 62.41730 62.01613 77.24735
#
# Poissons Ratio (x) = 0.51024 0.46725
# Poissons Ratio (y) = 0.51354 0.14356
# Poissons Ratio (z) = 0.37754 0.11526
#
# Static dielectric constant tensor:
#      x y z
#    x 1.774650 0.000000 0.000000 
#    y 0.000000 1.728250 0.000000 
#    z 0.000000 0.000000 1.757040 
# 
# From -- ./inp_files/13107.got.cif
#   From: 2010.05.17/outbox.cif.g08.bks.cpg/sg21_7_cif.got.tgz:13107.got - 2010.06.03 23:14:55.
