data_PCOD9323487
_publ_section_title
;
Structure prediction by ZEFSAII (Michael W. Deem and Ramdas Pophale) SiO2 
 PCOD9323487
Probable space group: C 2 2 2
;
_chemical_formula_sum "Si O2"
_cell_formula_units_Z 40
_cell_length_a 5.393327
_cell_length_b 19.204526
_cell_length_c 18.932502
_cell_angle_alpha 90.000000
_cell_angle_beta 90.000000
_cell_angle_gamma 90.000000
_cell_volume 1960.958291
_symmetry_space_group_name_H-M "C 2 2 2"
_symmetry_group_IT_number 21
_symmetry_cell_setting 'orthorhombic'
loop_
_space_group_symop_operation_xyz
x,y,z
-x,-y,z
x,-y,-z
-x,y,-z
1/2+x,1/2+y,z
1/2-x,1/2-y,z
1/2+x,1/2-y,-z
1/2-x,1/2+y,-z
loop_
_atom_site_type_symbol
_atom_site_label
_atom_site_fract_x
_atom_site_fract_y
_atom_site_fract_z
Si Si1 0.998606 0.416100 0.666283
Si Si2 0.741134 0.528190 0.081882
Si Si3 0.000674 0.916009 0.419765
Si Si4 0.489747 0.206067 0.775957
Si Si5 0.879192 0.322966 0.926945
O O1 0.248372 0.398502 0.622343
O O2 0.000000 0.500000 0.680585
O O3 0.752414 0.398529 0.620993
O O4 0.991125 0.365857 0.733667
O O5 0.500000 0.500000 0.119641
O O6 0.710970 0.610689 0.087667
O O7 0.000000 0.500000 0.111310
O O8 0.740317 0.500000 0.000000
O O9 0.000000 0.888554 0.500000
O O10 0.000000 0.000000 0.424279
O O11 0.750000 0.250000 0.771130
O O12 0.452447 0.187942 0.858720
O O13 0.250000 0.250000 0.751898
O O14 0.750000 0.250000 0.939943
O O15 0.000000 0.344197 0.000000
#
# Coordination Sequence:
#
# PCOD9323487 Si02
#       5
#     8   8   8   8   8
#     4  10  20  37  62  92 126 162 207 251 300 363
#     4  10  21  39  59  86 118 146 181 242 317 370
#     4   9  17  32  61  97 128 158 201 253 299 349
#     4  11  25  44  62  87 122 169 207 252 316 366
#     4  11  24  41  65  91 117 159 213 263 304 376
#
# _framework density 20.398192000000002
#
# number of rings (size 3 to 8) (size 9 to 14) (size 15 to 20)
#    0.000    1.800    2.000    2.400    2.800    6.400 
#    0.000    3.000    0.000   12.000    0.000    0.000 
#    0.000    0.000    0.000    0.000    0.000    0.000 
#
# Total GULP energy -111544.840907 kJ/mol
# GULP energy per Si atom -5577.242045 kJ/mol
# Density = 2.035176 g / cm^3
# Si number density = 20.398192 Si / 1000 Ang^3
#
#
#
# Elastic Constant Matrix: (Units=GPa)
#
#
# Indices 1 2 3 4 5 6 
#
# 1 159.5144 37.4081 35.1098 0.0000 0.0000 0.0000
# 2 37.4081 104.8422 14.7488 0.0000 0.0000 0.0000
# 3 35.1098 14.7488 93.0003 0.0000 0.0000 0.0000
# 4 0.0000 0.0000 0.0000 39.4199 0.0000 0.0000
# 5 0.0000 0.0000 0.0000 0.0000 -27.1094 0.0000
# 6 0.0000 0.0000 0.0000 0.0000 0.0000 23.0494
#
#
#
# Elastic Compliance Matrix: (Units=1/GPa)
#
#
# Indices 1 2 3 4 5 6 
#
# 1 0.007333 -0.002278 -0.002407 0.000000 0.000000 0.000000
# 2 -0.002278 0.010463 -0.000799 0.000000 0.000000 0.000000
# 3 -0.002407 -0.000799 0.011788 0.000000 0.000000 0.000000
# 4 0.000000 0.000000 0.000000 0.025368 0.000000 0.000000
# 5 0.000000 0.000000 0.000000 0.000000 -0.036888 0.000000
# 6 0.000000 0.000000 0.000000 0.000000 0.000000 0.043385
#
#
# Mechanical properties :
#
#
# Convention : Reuss Voigt Hill
#
# Bulk Modulus (GPa) = 53.71802 59.09894 56.40848
# Shear Modulus (GPa) = 63.59388 25.07801 44.33595
#
# Velocity S-wave (km/s) = 5.58963 3.51012 4.66716
# Velocity P-wave (km/s) = 8.24927 6.74266 7.53372
#
# Compressibility (1/GPa) = 0.01861573
#
# Stress axis : x y z
#
# Youngs Moduli (GPa) = 136.36929 95.57180 84.83066
#
# Poissons Ratio (x) = 0.21770 0.20420
# Poissons Ratio (y) = 0.31062 0.06782
# Poissons Ratio (z) = 0.32826 0.07640
#
# Static dielectric constant tensor:
#      x y z
#    x 1.771090 0.000000 0.000000 
#    y 0.000000 1.660920 0.000000 
#    z 0.000000 0.000000 1.732860 
# 
# From -- ./inp_files/34684.got.cif
#   From: 2010.05.17/outbox.cif.g08.bks.cpg/sg21_18_cif.got.tgz:34684.got - 2010.06.03 23:14:55.
