data_PCOD9323669
_publ_section_title
;
Structure prediction by ZEFSAII (Michael W. Deem and Ramdas Pophale) SiO2 
 PCOD9323669
Probable space group: C 2 2 2
;
_chemical_formula_sum "Si O2"
_cell_formula_units_Z 54
_cell_length_a 15.541517
_cell_length_b 11.247749
_cell_length_c 16.101954
_cell_angle_alpha 90.000000
_cell_angle_beta 90.000000
_cell_angle_gamma 90.000000
_cell_volume 2814.735598
_symmetry_space_group_name_H-M "C 2 2 2"
_symmetry_group_IT_number 21
_symmetry_cell_setting 'orthorhombic'
loop_
_space_group_symop_operation_xyz
x,y,z
-x,-y,z
x,-y,-z
-x,y,-z
1/2+x,1/2+y,z
1/2-x,1/2-y,z
1/2+x,1/2-y,-z
1/2-x,1/2+y,-z
loop_
_atom_site_type_symbol
_atom_site_label
_atom_site_fract_x
_atom_site_fract_y
_atom_site_fract_z
Si Si1 0.551221 0.873200 0.569183
Si Si2 0.158264 0.184248 0.772988
Si Si3 0.789594 0.500000 0.500000
Si Si4 0.500000 0.500000 0.500000
Si Si5 0.897468 0.009523 0.901999
Si Si6 0.011301 0.358938 0.755457
Si Si7 0.653206 0.293419 0.783723
Si Si8 0.355203 0.480236 0.364588
O O1 0.500000 0.799485 0.500000
O O2 0.645526 0.898083 0.533590
O O3 0.541324 0.830346 0.661192
O O4 0.500000 0.000000 0.576117
O O5 0.250000 0.250000 0.764567
O O6 0.086417 0.282883 0.798798
O O7 0.152732 0.088380 0.847461
O O8 0.141625 0.105086 0.688119
O O9 0.730875 0.528891 0.420737
O O10 0.430481 0.456072 0.430794
O O11 0.866898 0.135355 0.867206
O O12 0.000000 0.000000 0.884020
O O13 0.884343 0.000000 0.000000
O O14 0.000000 0.500000 0.768499
O O15 0.917903 0.306867 0.772567
O O16 0.750000 0.250000 0.783441
O O17 0.641858 0.382113 0.706439
#
# Coordination Sequence:
#
# PCOD9323669 Si02
#       8
#     8   8   4   2   8   8   8   8
#     4   8  17  31  53  71 114 158 209 249 302 359
#     4  11  23  40  69  99 129 166 215 269 326 391
#     4   9  17  35  55  84 116 166 211 275 307 369
#     4  10  20  40  62  84 126 184 230 288 308 368
#     4  10  22  46  75  97 127 167 210 259 322 404
#     4  11  23  39  61  89 129 169 214 261 320 379
#     4  11  25  40  66  99 130 166 214 269 326 385
#     4  10  22  39  61  85 130 165 230 271 322 365
#
# _framework density 19.184750000000001
#
# number of rings (size 3 to 8) (size 9 to 14) (size 15 to 20)
#    0.000    2.074    1.481    1.778   12.444    0.593 
#    8.000    2.963    0.000    0.889    0.000    0.000 
#    0.000    0.000    0.000    0.000    0.000    0.000 
#
# Total GULP energy -150345.892074 kJ/mol
# GULP energy per Si atom -5568.366373 kJ/mol
# Density = 1.914108 g / cm^3
# Si number density = 19.184750 Si / 1000 Ang^3
#
#
#
# Elastic Constant Matrix: (Units=GPa)
#
#
# Indices 1 2 3 4 5 6 
#
# 1 137.1250 65.3235 24.4455 0.0000 0.0000 0.0000
# 2 65.3235 124.4423 37.7489 0.0000 0.0000 0.0000
# 3 24.4455 37.7489 88.2298 0.0000 0.0000 0.0000
# 4 0.0000 0.0000 0.0000 18.6604 0.0000 0.0000
# 5 0.0000 0.0000 0.0000 0.0000 26.7336 0.0000
# 6 0.0000 0.0000 0.0000 0.0000 0.0000 204.2958
#
#
#
# Elastic Compliance Matrix: (Units=1/GPa)
#
#
# Indices 1 2 3 4 5 6 
#
# 1 0.009751 -0.004940 -0.000588 0.000000 0.000000 0.000000
# 2 -0.004940 0.011737 -0.003653 0.000000 0.000000 0.000000
# 3 -0.000588 -0.003653 0.013060 0.000000 0.000000 0.000000
# 4 0.000000 0.000000 0.000000 0.053589 0.000000 0.000000
# 5 0.000000 0.000000 0.000000 0.000000 0.037406 0.000000
# 6 0.000000 0.000000 0.000000 0.000000 0.000000 0.004895
#
#
# Mechanical properties :
#
#
# Convention : Reuss Voigt Hill
#
# Bulk Modulus (GPa) = 61.78309 67.20364 64.49337
# Shear Modulus (GPa) = 32.42633 64.75657 48.59145
#
# Velocity S-wave (km/s) = 4.11568 5.81614 5.03817
# Velocity P-wave (km/s) = 7.40671 8.95595 8.21792
#
# Compressibility (1/GPa) = 0.01618566
#
# Stress axis : x y z
#
# Youngs Moduli (GPa) = 102.55557 85.19928 76.57039
#
# Poissons Ratio (x) = 0.42090 0.04502
# Poissons Ratio (y) = 0.50664 0.27971
# Poissons Ratio (z) = 0.06030 0.31123
#
# Static dielectric constant tensor:
#      x y z
#    x 1.561220 0.000000 0.000000 
#    y 0.000000 1.710750 0.000000 
#    z 0.000000 0.000000 1.650250 
# 
# From -- ./inp_files/32342.got.cif
#   From: 2010.05.17/outbox.cif.g08.bks.cpg/sg21_17_cif.got.tgz:32342.got - 2010.06.03 23:14:55.
