data_PCOD9323328
_publ_section_title
;
Structure prediction by ZEFSAII (Michael W. Deem and Ramdas Pophale) SiO2 
 PCOD9323328
Probable space group: C 2 2 2
;
_chemical_formula_sum "Si O2"
_cell_formula_units_Z 64
_cell_length_a 25.681412
_cell_length_b 7.416434
_cell_length_c 15.530411
_cell_angle_alpha 90.000000
_cell_angle_beta 90.000000
_cell_angle_gamma 90.000000
_cell_volume 2957.991921
_symmetry_space_group_name_H-M "C 2 2 2"
_symmetry_group_IT_number 21
_symmetry_cell_setting 'orthorhombic'
loop_
_space_group_symop_operation_xyz
x,y,z
-x,-y,z
x,-y,-z
-x,y,-z
1/2+x,1/2+y,z
1/2-x,1/2-y,z
1/2+x,1/2-y,-z
1/2-x,1/2+y,-z
loop_
_atom_site_type_symbol
_atom_site_label
_atom_site_fract_x
_atom_site_fract_y
_atom_site_fract_z
Si Si1 0.310820 0.784339 0.676854
Si Si2 0.439683 0.712604 0.991804
Si Si3 0.600995 0.215188 0.801335
Si Si4 0.393929 0.211414 0.832339
Si Si5 0.190424 0.713428 0.306928
Si Si6 0.645978 0.779338 0.509719
Si Si7 0.533585 0.312664 0.429829
Si Si8 0.507412 0.204144 0.249557
O O1 0.250000 0.750000 0.688420
O O2 0.347878 0.712659 0.753418
O O3 0.330005 0.722891 0.582207
O O4 0.316679 0.999415 0.682665
O O5 0.414286 0.740060 0.898518
O O6 0.444175 0.500000 0.000000
O O7 0.500000 0.785888 0.000000
O O8 0.398616 0.780323 0.064475
O O9 0.550680 0.277012 0.746343
O O10 0.604793 0.998052 0.805223
O O11 0.348319 0.282465 0.769215
O O12 0.450068 0.299684 0.809170
O O13 0.250000 0.750000 0.283352
O O14 0.179191 0.774439 0.405388
O O15 0.590767 0.687742 0.530680
O O16 0.640082 0.000000 0.500000
O O17 0.500000 0.500000 0.415290
O O18 0.500000 0.210300 0.500000
O O19 0.534000 0.206141 0.341705
O O20 0.500000 0.000000 0.217333
#
# Coordination Sequence:
#
# PCOD9323328 Si02
#       8
#     8   8   8   8   8   8   8   8
#     4  10  22  41  64  90 118 161 211 262 307 356
#     4  11  23  37  58  92 127 160 193 242 316 373
#     4  10  21  38  62  89 119 157 211 248 296 371
#     4  10  20  38  61  89 121 157 208 249 296 367
#     4  10  21  40  63  93 120 159 210 258 312 360
#     4  10  21  40  65  87 121 170 216 251 296 373
#     4  11  24  37  50  87 130 159 199 251 309 361
#     4  10  20  35  61  87 113 164 205 245 299 370
#
# _framework density 21.636299999999999
#
# number of rings (size 3 to 8) (size 9 to 14) (size 15 to 20)
#    0.000    1.750    2.500    1.500    3.500    2.500 
#    6.750    0.625    0.000    0.000    0.000    0.000 
#    0.000    0.000    0.000    0.000    0.000    0.000 
#
# Total GULP energy -178292.634479 kJ/mol
# GULP energy per Si atom -5571.644827 kJ/mol
# Density = 2.158706 g / cm^3
# Si number density = 21.636300 Si / 1000 Ang^3
#
#
#
# Elastic Constant Matrix: (Units=GPa)
#
#
# Indices 1 2 3 4 5 6 
#
# 1 185.1746 12.5211 96.4604 0.0000 0.0000 0.0000
# 2 12.5211 65.1673 3.0365 0.0000 0.0000 0.0000
# 3 96.4604 3.0365 160.5346 0.0000 0.0000 0.0000
# 4 0.0000 0.0000 0.0000 0.4269 0.0000 0.0000
# 5 0.0000 0.0000 0.0000 0.0000 23.6693 0.0000
# 6 0.0000 0.0000 0.0000 0.0000 0.0000 21.7570
#
#
#
# Elastic Compliance Matrix: (Units=1/GPa)
#
#
# Indices 1 2 3 4 5 6 
#
# 1 0.007971 -0.001309 -0.004765 0.000000 0.000000 0.000000
# 2 -0.001309 0.015574 0.000492 0.000000 0.000000 0.000000
# 3 -0.004765 0.000492 0.009083 0.000000 0.000000 0.000000
# 4 0.000000 0.000000 0.000000 2.342436 0.000000 0.000000
# 5 0.000000 0.000000 0.000000 0.000000 0.042249 0.000000
# 6 0.000000 0.000000 0.000000 0.000000 0.000000 0.045962
#
#
# Mechanical properties :
#
#
# Convention : Reuss Voigt Hill
#
# Bulk Modulus (GPa) = 46.59038 70.54582 58.56810
# Shear Modulus (GPa) = 2.01484 29.09454 15.55469
#
# Velocity S-wave (km/s) = 0.96605 3.67101 2.68417
# Velocity P-wave (km/s) = 4.77750 7.11649 6.06090
#
# Compressibility (1/GPa) = 0.02146366
#
# Stress axis : x y z
#
# Youngs Moduli (GPa) = 125.45715 64.21043 110.09788
#
# Poissons Ratio (x) = 0.08408 0.52458
# Poissons Ratio (y) = 0.16428 -0.05420
# Poissons Ratio (z) = 0.59776 -0.03161
#
# Static dielectric constant tensor:
#      x y z
#    x 1.829690 0.000000 0.000000 
#    y 0.000000 1.870640 0.000000 
#    z 0.000000 0.000000 1.855760 
# 
# From -- ./inp_files/33617.got.cif
#   From: 2010.05.17/outbox.cif.g08.bks.cpg/sg21_17_cif.got.tgz:33617.got - 2010.06.03 23:14:55.
