data_PCOD9323798
_publ_section_title
;
Structure prediction by ZEFSAII (Michael W. Deem and Ramdas Pophale) SiO2 
 PCOD9323798
Probable space group: C 2 2 2
;
_chemical_formula_sum "Si O2"
_cell_formula_units_Z 58
_cell_length_a 8.793292
_cell_length_b 28.617792
_cell_length_c 11.782852
_cell_angle_alpha 90.000000
_cell_angle_beta 90.000000
_cell_angle_gamma 90.000000
_cell_volume 2965.091095
_symmetry_space_group_name_H-M "C 2 2 2"
_symmetry_group_IT_number 21
_symmetry_cell_setting 'orthorhombic'
loop_
_space_group_symop_operation_xyz
x,y,z
-x,-y,z
x,-y,-z
-x,y,-z
1/2+x,1/2+y,z
1/2-x,1/2-y,z
1/2+x,1/2-y,-z
1/2-x,1/2+y,-z
loop_
_atom_site_type_symbol
_atom_site_label
_atom_site_fract_x
_atom_site_fract_y
_atom_site_fract_z
Si Si1 0.343241 0.124745 0.936331
Si Si2 0.830741 0.491525 0.673561
Si Si3 0.000000 0.000000 0.000000
Si Si4 0.760671 0.556110 0.106702
Si Si5 0.679608 0.102494 0.536354
Si Si6 0.139934 0.864089 0.740678
Si Si7 0.848232 0.796143 0.063342
Si Si8 0.803323 0.094287 0.295655
O O1 0.306762 0.115973 0.802911
O O2 0.500000 0.139250 0.000000
O O3 0.321913 0.072194 0.986234
O O4 0.224959 0.163125 0.983448
O O5 0.850043 0.473472 0.802389
O O6 0.777257 0.448614 0.592476
O O7 0.730531 0.538435 0.687363
O O8 0.000000 0.500000 0.630254
O O9 0.103452 0.968735 0.920250
O O10 0.734344 0.603759 0.173067
O O11 0.753072 0.137168 0.629828
O O12 0.762283 0.112893 0.419214
O O13 0.000000 0.396447 0.500000
O O14 0.119351 0.816994 0.811749
O O15 0.977591 0.890454 0.726522
O O16 0.750000 0.750000 0.072610
O O17 0.000000 0.782377 0.000000
#
# Coordination Sequence:
#
# PCOD9323798 Si02
#       8
#     8   8   2   8   8   8   8   8
#     4  11  23  38  62  98 131 172 221 272 352 426
#     4  11  21  36  57  83 126 178 238 289 327 378
#     4  12  20  32  50  84 126 172 214 272 328 402
#     4  10  21  33  53  80 122 166 213 265 332 388
#     4  11  24  40  61  88 128 183 239 291 334 387
#     4  10  23  42  62  93 126 171 221 274 347 419
#     4  11  23  45  74 105 138 162 206 278 357 445
#     4  12  22  37  64  87 133 182 228 288 335 397
#
# _framework density 19.560949999999998
#
# number of rings (size 3 to 8) (size 9 to 14) (size 15 to 20)
#    0.000    1.103    2.759    4.552    5.793    1.655 
#    0.000    4.138    0.000    2.483    0.000    0.000 
#    0.000    0.000    0.000    0.000    0.000    0.000 
#
# Total GULP energy -161455.323256 kJ/mol
# GULP energy per Si atom -5567.424940 kJ/mol
# Density = 1.951643 g / cm^3
# Si number density = 19.560950 Si / 1000 Ang^3
#
#
#
# Elastic Constant Matrix: (Units=GPa)
#
#
# Indices 1 2 3 4 5 6 
#
# 1 89.0654 33.9334 33.2322 0.0000 0.0000 0.0000
# 2 33.9334 63.6582 44.1991 0.0000 0.0000 0.0000
# 3 33.2322 44.1991 157.6949 0.0000 0.0000 0.0000
# 4 0.0000 0.0000 0.0000 41.0982 0.0000 0.0000
# 5 0.0000 0.0000 0.0000 0.0000 30.9782 0.0000
# 6 0.0000 0.0000 0.0000 0.0000 0.0000 23.0718
#
#
#
# Elastic Compliance Matrix: (Units=1/GPa)
#
#
# Indices 1 2 3 4 5 6 
#
# 1 0.014237 -0.006836 -0.001084 0.000000 0.000000 0.000000
# 2 -0.006836 0.022787 -0.004946 0.000000 0.000000 0.000000
# 3 -0.001084 -0.004946 0.007956 0.000000 0.000000 0.000000
# 4 0.000000 0.000000 0.000000 0.024332 0.000000 0.000000
# 5 0.000000 0.000000 0.000000 0.000000 0.032281 0.000000
# 6 0.000000 0.000000 0.000000 0.000000 0.000000 0.043343
#
#
# Mechanical properties :
#
#
# Convention : Reuss Voigt Hill
#
# Bulk Modulus (GPa) = 51.95620 59.23863 55.59741
# Shear Modulus (GPa) = 28.23505 32.29988 30.26747
#
# Velocity S-wave (km/s) = 3.80338 4.06796 3.93789
# Velocity P-wave (km/s) = 6.77543 7.23977 7.01145
#
# Compressibility (1/GPa) = 0.01924698
#
# Stress axis : x y z
#
# Youngs Moduli (GPa) = 70.24048 43.88420 125.68876
#
# Poissons Ratio (x) = 0.30000 0.13626
# Poissons Ratio (y) = 0.48018 0.62168
# Poissons Ratio (z) = 0.07615 0.21706
#
# Static dielectric constant tensor:
#      x y z
#    x 1.649680 0.000000 0.000000 
#    y 0.000000 1.680260 0.000000 
#    z 0.000000 0.000000 1.720660 
# 
# From -- ./inp_files/23025.got.cif
#   From: 2010.05.17/outbox.cif.g08.bks.cpg/sg21_12_cif.got.tgz:23025.got - 2010.06.03 23:14:55.
