data_PCOD9323441
_publ_section_title
;
Structure prediction by ZEFSAII (Michael W. Deem and Ramdas Pophale) SiO2 
 PCOD9323441
Probable space group: C 2 2 2
;
_chemical_formula_sum "Si O2"
_cell_formula_units_Z 58
_cell_length_a 8.705353
_cell_length_b 14.649100
_cell_length_c 25.308422
_cell_angle_alpha 90.000000
_cell_angle_beta 90.000000
_cell_angle_gamma 90.000000
_cell_volume 3227.471362
_symmetry_space_group_name_H-M "C 2 2 2"
_symmetry_group_IT_number 21
_symmetry_cell_setting 'orthorhombic'
loop_
_space_group_symop_operation_xyz
x,y,z
-x,-y,z
x,-y,-z
-x,y,-z
1/2+x,1/2+y,z
1/2-x,1/2-y,z
1/2+x,1/2-y,-z
1/2-x,1/2+y,-z
loop_
_atom_site_type_symbol
_atom_site_label
_atom_site_fract_x
_atom_site_fract_y
_atom_site_fract_z
Si Si1 0.570641 0.600570 0.130097
Si Si2 0.434403 0.100801 0.259412
Si Si3 0.432538 0.756016 0.058262
Si Si4 0.500000 0.500000 0.500000
Si Si5 0.938825 0.602662 0.141049
Si Si6 0.597099 0.312457 0.548929
Si Si7 0.062673 0.756828 0.664393
Si Si8 0.065576 0.899647 0.750566
O O1 0.500000 0.500000 0.123151
O O2 0.504135 0.666737 0.085959
O O3 0.755893 0.601734 0.130468
O O4 0.527860 0.630997 0.189814
O O5 0.474450 0.137755 0.200653
O O6 0.486579 0.161716 0.308927
O O7 0.249465 0.096738 0.256673
O O8 0.500000 0.000000 0.264180
O O9 0.250000 0.750000 0.055390
O O10 0.480942 0.837806 0.096710
O O11 0.500000 0.768097 0.000000
O O12 0.595738 0.423972 0.535865
O O13 0.000000 0.500000 0.139264
O O14 0.500000 0.276008 0.500000
O O15 0.750000 0.250000 0.548632
O O16 0.521871 0.289163 0.605597
O O17 0.250000 0.750000 0.665062
O O18 0.007802 0.831894 0.706038
O O19 0.000000 0.000000 0.743742
#
# Coordination Sequence:
#
# PCOD9323441 Si02
#       8
#     8   8   8   2   8   8   8   8
#     4  10  20  37  57  83 113 143 181 226 278 340
#     4   9  18  34  54  80 113 144 178 222 278 332
#     4  12  25  40  58  81 107 142 187 235 284 341
#     4   8  20  36  62  78 116 160 194 264 302 350
#     4  10  20  37  60  83 112 149 181 226 280 343
#     4   9  19  37  58  83 114 156 205 249 301 359
#     4   9  17  32  54  79 111 150 183 228 279 339
#     4   9  18  31  54  81 107 141 181 218 271 339
#
# _framework density 17.970725000000002
#
# number of rings (size 3 to 8) (size 9 to 14) (size 15 to 20)
#    0.414    1.931    0.000    2.897    0.966    3.862 
#    0.000    9.310    0.000    0.000    0.000    0.000 
#    0.000    0.000    0.000    0.000    0.000    0.000 
#
# Total GULP energy -161434.700213 kJ/mol
# GULP energy per Si atom -5566.713800 kJ/mol
# Density = 1.792982 g / cm^3
# Si number density = 17.970725 Si / 1000 Ang^3
#
#
#
# Elastic Constant Matrix: (Units=GPa)
#
#
# Indices 1 2 3 4 5 6 
#
# 1 48.2269 24.9652 38.9768 0.0000 0.0000 0.0000
# 2 24.9652 106.4146 74.3031 0.0000 0.0000 0.0000
# 3 38.9768 74.3031 154.8147 0.0000 0.0000 0.0000
# 4 0.0000 0.0000 0.0000 48.2883 0.0000 0.0000
# 5 0.0000 0.0000 0.0000 0.0000 23.2605 0.0000
# 6 0.0000 0.0000 0.0000 0.0000 0.0000 26.4171
#
#
#
# Elastic Compliance Matrix: (Units=1/GPa)
#
#
# Indices 1 2 3 4 5 6 
#
# 1 0.026413 -0.002336 -0.005528 0.000000 0.000000 0.000000
# 2 -0.002336 0.014340 -0.006294 0.000000 0.000000 0.000000
# 3 -0.005528 -0.006294 0.010872 0.000000 0.000000 0.000000
# 4 0.000000 0.000000 0.000000 0.020709 0.000000 0.000000
# 5 0.000000 0.000000 0.000000 0.000000 0.042991 0.000000
# 6 0.000000 0.000000 0.000000 0.000000 0.000000 0.037854
#
#
# Mechanical properties :
#
#
# Convention : Reuss Voigt Hill
#
# Bulk Modulus (GPa) = 42.90569 65.10514 54.00541
# Shear Modulus (GPa) = 26.41764 31.00725 28.71244
#
# Velocity S-wave (km/s) = 3.83827 4.15834 4.00150
# Velocity P-wave (km/s) = 6.60077 7.70472 7.17402
#
# Compressibility (1/GPa) = 0.02330693
#
# Stress axis : x y z
#
# Youngs Moduli (GPa) = 37.86038 69.73329 91.97753
#
# Poissons Ratio (x) = 0.16292 0.50850
# Poissons Ratio (y) = 0.08845 0.57895
# Poissons Ratio (z) = 0.20931 0.43893
#
# Static dielectric constant tensor:
#      x y z
#    x 1.621010 0.000000 0.000000 
#    y 0.000000 1.595700 0.000000 
#    z 0.000000 0.000000 1.623560 
# 
# From -- ./inp_files/38515.got.cif
#   From: 2010.05.17/outbox.cif.g08.bks.cpg/sg21_20_cif.got.tgz:38515.got - 2010.06.03 23:14:55.
