data_PCOD9323622
_publ_section_title
;
Structure prediction by ZEFSAII (Michael W. Deem and Ramdas Pophale) SiO2 
 PCOD9323622
Probable space group: C 2 2 2
;
_chemical_formula_sum "Si O2"
_cell_formula_units_Z 56
_cell_length_a 13.903118
_cell_length_b 19.888507
_cell_length_c 10.017452
_cell_angle_alpha 90.000000
_cell_angle_beta 90.000000
_cell_angle_gamma 90.000000
_cell_volume 2769.948289
_symmetry_space_group_name_H-M "C 2 2 2"
_symmetry_group_IT_number 21
_symmetry_cell_setting 'orthorhombic'
loop_
_space_group_symop_operation_xyz
x,y,z
-x,-y,z
x,-y,-z
-x,y,-z
1/2+x,1/2+y,z
1/2-x,1/2-y,z
1/2+x,1/2-y,-z
1/2-x,1/2+y,-z
loop_
_atom_site_type_symbol
_atom_site_label
_atom_site_fract_x
_atom_site_fract_y
_atom_site_fract_z
Si Si1 0.750000 0.750000 0.066044
Si Si2 0.000000 0.884350 0.000000
Si Si3 0.480319 0.727989 0.354518
Si Si4 0.641998 0.363447 0.779330
Si Si5 0.640252 0.819260 0.843579
Si Si6 0.269164 0.507127 0.658078
Si Si7 0.393307 0.027605 0.862662
Si Si8 0.149740 0.869968 0.241201
O O1 0.718502 0.684664 0.148085
O O2 0.661887 0.774539 0.973210
O O3 0.078719 0.905449 0.888500
O O4 0.919559 0.859814 0.888157
O O5 0.500000 0.756804 0.500000
O O6 0.573009 0.690275 0.294450
O O7 0.431721 0.781560 0.255654
O O8 0.401502 0.668556 0.361837
O O9 0.689824 0.419330 0.688245
O O10 0.601106 0.892485 0.876070
O O11 0.746752 0.835597 0.784051
O O12 0.258667 0.500000 0.500000
O O13 0.170186 0.495250 0.737926
O O14 0.335627 0.447569 0.720249
O O15 0.500000 0.000000 0.850953
O O16 0.347541 0.000000 0.000000
#
# Coordination Sequence:
#
# PCOD9323622 Si02
#       8
#     4   4   8   8   8   8   8   8
#     4  12  20  42  66 102 134 166 226 290 346 402
#     4  10  20  39  64 102 126 160 233 278 338 404
#     4  11  23  41  61  98 135 177 228 266 336 425
#     4  11  24  39  64 100 133 174 225 285 336 405
#     4  11  21  42  71  95 135 181 213 289 354 401
#     4  11  25  44  65  96 140 184 225 279 351 422
#     4  10  24  45  71  99 128 176 239 294 345 415
#     4  10  21  41  68  92 133 182 224 282 343 411
#
# _framework density 20.216984
#
# number of rings (size 3 to 8) (size 9 to 14) (size 15 to 20)
#    0.000    1.286    2.857    2.571    2.000    6.571 
#   12.857    3.571    0.000    0.000    0.000    0.000 
#    0.000    0.000    0.000    0.000    0.000    0.000 
#
# Total GULP energy -156013.281221 kJ/mol
# GULP energy per Si atom -5571.902901 kJ/mol
# Density = 2.017097 g / cm^3
# Si number density = 20.216984 Si / 1000 Ang^3
#
#
#
# Elastic Constant Matrix: (Units=GPa)
#
#
# Indices 1 2 3 4 5 6 
#
# 1 65.7582 57.7520 48.7206 0.0000 0.0000 0.0000
# 2 57.7520 144.0957 70.8425 0.0000 0.0000 0.0000
# 3 48.7206 70.8425 146.2705 0.0000 0.0000 0.0000
# 4 0.0000 0.0000 0.0000 23.8795 0.0000 0.0000
# 5 0.0000 0.0000 0.0000 0.0000 20.9891 0.0000
# 6 0.0000 0.0000 0.0000 0.0000 0.0000 21.0946
#
#
#
# Elastic Compliance Matrix: (Units=1/GPa)
#
#
# Indices 1 2 3 4 5 6 
#
# 1 0.025704 -0.007997 -0.004689 0.000000 0.000000 0.000000
# 2 -0.007997 0.011597 -0.002953 0.000000 0.000000 0.000000
# 3 -0.004689 -0.002953 0.009829 0.000000 0.000000 0.000000
# 4 0.000000 0.000000 0.000000 0.041877 0.000000 0.000000
# 5 0.000000 0.000000 0.000000 0.000000 0.047644 0.000000
# 6 0.000000 0.000000 0.000000 0.000000 0.000000 0.047406
#
#
# Mechanical properties :
#
#
# Convention : Reuss Voigt Hill
#
# Bulk Modulus (GPa) = 63.08102 78.97272 71.02687
# Shear Modulus (GPa) = 22.66372 25.11326 23.88849
#
# Velocity S-wave (km/s) = 3.35180 3.52829 3.44118
# Velocity P-wave (km/s) = 6.80067 7.46631 7.14125
#
# Compressibility (1/GPa) = 0.01585263
#
# Stress axis : x y z
#
# Youngs Moduli (GPa) = 38.90388 86.23171 101.74466
#
# Poissons Ratio (x) = 0.68959 0.47704
# Poissons Ratio (y) = 0.31111 0.30044
# Poissons Ratio (z) = 0.18241 0.25463
#
# Static dielectric constant tensor:
#      x y z
#    x 1.816790 0.000000 0.000000 
#    y 0.000000 1.721020 0.000000 
#    z 0.000000 0.000000 1.731540 
# 
# From -- ./inp_files/15334.got.cif
#   From: 2010.05.17/outbox.cif.g08.bks.cpg/sg21_8_cif.got.tgz:15334.got - 2010.06.03 23:14:55.
