data_PCOD9323200
_publ_section_title
;
Structure prediction by ZEFSAII (Michael W. Deem and Ramdas Pophale) SiO2 
 PCOD9323200
Probable space group: C 2 2 2
;
_chemical_formula_sum "Si O2"
_cell_formula_units_Z 32
_cell_length_a 14.340832
_cell_length_b 5.124359
_cell_length_c 19.069125
_cell_angle_alpha 90.000000
_cell_angle_beta 90.000000
_cell_angle_gamma 90.000000
_cell_volume 1401.343687
_symmetry_space_group_name_H-M "C 2 2 2"
_symmetry_group_IT_number 21
_symmetry_cell_setting 'orthorhombic'
loop_
_space_group_symop_operation_xyz
x,y,z
-x,-y,z
x,-y,-z
-x,y,-z
1/2+x,1/2+y,z
1/2-x,1/2-y,z
1/2+x,1/2-y,-z
1/2-x,1/2+y,-z
loop_
_atom_site_type_symbol
_atom_site_label
_atom_site_fract_x
_atom_site_fract_y
_atom_site_fract_z
Si Si1 0.888209 0.498032 0.333557
Si Si2 0.686992 0.997259 0.818236
Si Si3 0.136304 0.742293 0.044264
Si Si4 0.885919 0.991734 0.419812
O O1 0.859513 0.570105 0.254684
O O2 0.856651 0.722275 0.385648
O O3 0.000000 0.500000 0.333668
O O4 0.858080 0.223935 0.367253
O O5 0.750000 0.750000 0.799496
O O6 0.619022 0.860633 0.876187
O O7 0.750000 0.250000 0.844154
O O8 0.250000 0.750000 0.044472
O O9 0.103921 0.500000 0.000000
O O10 0.107714 0.000000 0.000000
O O11 0.853256 0.000000 0.500000
O O12 0.000000 0.000000 0.422341
#
# Coordination Sequence:
#
# PCOD9323200 Si02
#       4
#     8   8   8   8
#     4  10  20  34  54  80 108 139 176 219 266 316
#     4  11  21  34  54  80 109 139 172 217 268 316
#     4   9  16  28  47  72  96 124 166 210 245 288
#     4   9  17  31  53  78 102 135 183 228 258 297
#
# _framework density 22.835228000000001
#
# number of rings (size 3 to 8) (size 9 to 14) (size 15 to 20)
#    0.000    2.250    0.000    6.000    0.000    3.000 
#    0.000    0.000    0.000   15.750    0.000   14.000 
#    0.000    0.000    0.000    0.000    0.000    0.000 
#
# Total GULP energy -89173.921303 kJ/mol
# GULP energy per Si atom -5573.370081 kJ/mol
# Density = 2.278325 g / cm^3
# Si number density = 22.835228 Si / 1000 Ang^3
#
#
#
# Elastic Constant Matrix: (Units=GPa)
#
#
# Indices 1 2 3 4 5 6 
#
# 1 55.1109 -9.3934 0.5618 0.0000 0.0000 0.0000
# 2 -9.3934 143.2874 30.7738 0.0000 0.0000 0.0000
# 3 0.5618 30.7738 182.8383 0.0000 0.0000 0.0000
# 4 0.0000 0.0000 0.0000 42.2149 0.0000 0.0000
# 5 0.0000 0.0000 0.0000 0.0000 5.2818 0.0000
# 6 0.0000 0.0000 0.0000 0.0000 0.0000 -17.7411
#
#
#
# Elastic Compliance Matrix: (Units=1/GPa)
#
#
# Indices 1 2 3 4 5 6 
#
# 1 0.018363 0.001262 -0.000269 0.000000 0.000000 0.000000
# 2 0.001262 0.007327 -0.001237 0.000000 0.000000 0.000000
# 3 -0.000269 -0.001237 0.005678 0.000000 0.000000 0.000000
# 4 0.000000 0.000000 0.000000 0.023688 0.000000 0.000000
# 5 0.000000 0.000000 0.000000 0.000000 0.189330 0.000000
# 6 0.000000 0.000000 0.000000 0.000000 0.000000 -0.056366
#
#
# Mechanical properties :
#
#
# Convention : Reuss Voigt Hill
#
# Bulk Modulus (GPa) = 32.38342 47.23566 39.80954
# Shear Modulus (GPa) = 25.15048 29.90406 27.52727
#
# Velocity S-wave (km/s) = 3.32232 3.62271 3.47576
# Velocity P-wave (km/s) = 5.37859 6.18296 5.79475
#
# Compressibility (1/GPa) = 0.03088000
#
# Stress axis : x y z
#
# Youngs Moduli (GPa) = 54.45731 136.47433 176.10695
#
# Poissons Ratio (x) = -0.17217 0.04733
# Poissons Ratio (y) = -0.06870 0.21787
# Poissons Ratio (z) = 0.01464 0.16884
#
# Static dielectric constant tensor:
#      x y z
#    x 1.939910 0.000000 0.000000 
#    y 0.000000 1.902810 0.000000 
#    z 0.000000 0.000000 1.972050 
# 
# From -- ./inp_files/28852.got.cif
#   From: 2010.05.17/outbox.cif.g08.bks.cpg/sg21_15_cif.got.tgz:28852.got - 2010.06.03 23:14:55.
