data_PCOD9323709
_publ_section_title
;
Structure prediction by ZEFSAII (Michael W. Deem and Ramdas Pophale) SiO2 
 PCOD9323709
Probable space group: C 2 2 2
;
_chemical_formula_sum "Si O2"
_cell_formula_units_Z 40
_cell_length_a 9.859637
_cell_length_b 22.753325
_cell_length_c 9.486958
_cell_angle_alpha 90.000000
_cell_angle_beta 90.000000
_cell_angle_gamma 90.000000
_cell_volume 2128.299652
_symmetry_space_group_name_H-M "C 2 2 2"
_symmetry_group_IT_number 21
_symmetry_cell_setting 'orthorhombic'
loop_
_space_group_symop_operation_xyz
x,y,z
-x,-y,z
x,-y,-z
-x,y,-z
1/2+x,1/2+y,z
1/2-x,1/2-y,z
1/2+x,1/2-y,-z
1/2-x,1/2+y,-z
loop_
_atom_site_type_symbol
_atom_site_label
_atom_site_fract_x
_atom_site_fract_y
_atom_site_fract_z
Si Si1 0.529885 0.612164 0.833855
Si Si2 0.010032 0.648146 0.664673
Si Si3 0.911756 0.753806 0.859165
Si Si4 0.229811 0.441792 0.673693
Si Si5 0.772713 0.077233 0.649724
O O1 0.554397 0.681091 0.802878
O O2 0.665448 0.578046 0.792114
O O3 0.408388 0.587761 0.737682
O O4 0.500000 0.606198 0.000000
O O5 0.162161 0.625972 0.692468
O O6 0.000000 0.663436 0.500000
O O7 0.958616 0.702602 0.754802
O O8 0.910274 0.592884 0.688614
O O9 0.750000 0.750000 0.885125
O O10 0.000000 0.746421 0.000000
O O11 0.215766 0.511784 0.676891
O O12 0.289907 0.422505 0.520281
#
# Coordination Sequence:
#
# PCOD9323709 Si02
#       5
#     8   8   8   8   8
#     4  11  24  39  59  88 121 159 203 250 294 355
#     4  10  22  40  64  92 119 154 201 251 295 356
#     4  11  25  44  64  86 121 163 201 248 304 358
#     4  10  20  41  61  89 125 156 196 244 300 362
#     4  10  22  37  64  91 120 160 194 242 307 359
#
# _framework density 18.794346000000001
#
# number of rings (size 3 to 8) (size 9 to 14) (size 15 to 20)
#    0.000    1.600    2.000    1.800    5.600    7.200 
#    0.000    0.000    0.000    3.600    0.000    0.000 
#    0.000    0.000    0.000    0.000    0.000    0.000 
#
# Total GULP energy -111715.887459 kJ/mol
# GULP energy per Si atom -5585.794373 kJ/mol
# Density = 1.875157 g / cm^3
# Si number density = 18.794346 Si / 1000 Ang^3
#
#
#
# Elastic Constant Matrix: (Units=GPa)
#
#
# Indices 1 2 3 4 5 6 
#
# 1 62.4803 1.9591 27.1377 0.0000 0.0000 0.0000
# 2 1.9591 67.9016 29.2512 0.0000 0.0000 0.0000
# 3 27.1377 29.2512 34.0259 0.0000 0.0000 0.0000
# 4 0.0000 0.0000 0.0000 23.4936 0.0000 0.0000
# 5 0.0000 0.0000 0.0000 0.0000 20.2395 0.0000
# 6 0.0000 0.0000 0.0000 0.0000 0.0000 28.5618
#
#
#
# Elastic Compliance Matrix: (Units=1/GPa)
#
#
# Indices 1 2 3 4 5 6 
#
# 1 0.033163 0.016576 -0.040699 0.000000 0.000000 0.000000
# 2 0.016576 0.031674 -0.040450 0.000000 0.000000 0.000000
# 3 -0.040699 -0.040450 0.096623 0.000000 0.000000 0.000000
# 4 0.000000 0.000000 0.000000 0.042565 0.000000 0.000000
# 5 0.000000 0.000000 0.000000 0.000000 0.049408 0.000000
# 6 0.000000 0.000000 0.000000 0.000000 0.000000 0.035012
#
#
# Mechanical properties :
#
#
# Convention : Reuss Voigt Hill
#
# Bulk Modulus (GPa) = 30.94645 31.23376 31.09011
# Shear Modulus (GPa) = 11.67236 21.52965 16.60101
#
# Velocity S-wave (km/s) = 2.49481 3.38825 2.97526
# Velocity P-wave (km/s) = 4.97999 5.65348 5.32739
#
# Compressibility (1/GPa) = 0.03231388
#
# Stress axis : x y z
#
# Youngs Moduli (GPa) = 30.15447 31.57135 10.34947
#
# Poissons Ratio (x) = -0.52332 0.42121
# Poissons Ratio (y) = -0.49984 0.41864
# Poissons Ratio (z) = 1.22726 1.27706
#
# Static dielectric constant tensor:
#      x y z
#    x 1.624030 0.000000 0.000000 
#    y 0.000000 1.640030 0.000000 
#    z 0.000000 0.000000 1.607240 
# 
# From -- ./inp_files/10896.got.cif
#   From: 2010.05.17/outbox.cif.g08.bks.cpg/sg21_6_cif.got.tgz:10896.got - 2010.06.03 23:14:55.
