data_PCOD9323968
_publ_section_title
;
Structure prediction by ZEFSAII (Michael W. Deem and Ramdas Pophale) SiO2 
 PCOD9323968
Probable space group: C 2 2 2
;
_chemical_formula_sum "Si O2"
_cell_formula_units_Z 64
_cell_length_a 10.255901
_cell_length_b 14.700574
_cell_length_c 22.959301
_cell_angle_alpha 90.000000
_cell_angle_beta 90.000000
_cell_angle_gamma 90.000000
_cell_volume 3461.519435
_symmetry_space_group_name_H-M "C 2 2 2"
_symmetry_group_IT_number 21
_symmetry_cell_setting 'orthorhombic'
loop_
_space_group_symop_operation_xyz
x,y,z
-x,-y,z
x,-y,-z
-x,y,-z
1/2+x,1/2+y,z
1/2-x,1/2-y,z
1/2+x,1/2-y,-z
1/2-x,1/2+y,-z
loop_
_atom_site_type_symbol
_atom_site_label
_atom_site_fract_x
_atom_site_fract_y
_atom_site_fract_z
Si Si1 0.840179 0.500000 0.762406
Si Si2 0.745898 0.859607 0.142319
Si Si3 0.149316 0.169748 0.567225
Si Si4 0.349016 0.500000 0.653200
Si Si5 0.499999 0.144440 0.065107
Si Si6 0.254104 0.859607 0.142319
Si Si7 0.149316 0.830252 0.567224
Si Si8 0.499999 0.364696 0.932156
O O1 0.786925 0.413249 0.798945
O O2 0.763137 0.500000 0.701605
O O3 0.786924 0.586752 0.798945
O O4 0.000000 0.500000 0.758939
O O5 0.750000 0.750000 0.151700
O O6 0.627165 0.882507 0.099737
O O7 0.874754 0.888157 0.106928
O O8 0.250000 0.250000 0.579174
O O9 0.164691 0.087631 0.611881
O O10 0.168359 0.139134 0.500000
O O11 0.000000 0.203103 0.571720
O O12 0.500000 0.500000 0.676517
O O13 0.335310 0.587631 0.611881
O O14 0.627160 0.117493 0.099739
O O15 0.500000 0.254634 0.063364
O O16 0.500000 0.109924 0.000000
O O17 0.250000 0.750000 0.151700
O O18 0.125250 0.888157 0.106926
O O19 0.250000 0.750000 0.579174
O O20 0.500000 0.396429 0.000000
#
# Coordination Sequence:
#
# PCOD9323968 Si02
#       8
#     8   8   8   8   8   8   8   8
#     4  12  26  43  58  80 115 158 205 244 281 341
#     4  10  21  38  59  84 114 149 187 239 298 351
#     4   9  18  36  63  95 127 156 191 236 288 342
#     4  10  23  40  60  85 117 162 202 240 283 333
#     4   9  16  33  59  85 112 145 183 230 298 366
#     4  10  21  38  59  84 114 149 187 239 298 351
#     4   9  18  36  63  95 127 156 191 236 288 342
#     4   9  18  33  59  87 112 143 183 234 298 364
#
# _framework density 18.488990999999999
#
# number of rings (size 3 to 8) (size 9 to 14) (size 15 to 20)
#    0.000    2.250    1.250    1.125    1.750    6.500 
#    0.000    6.250    0.000    3.750    0.000    0.000 
#    0.000    0.000    0.000    0.000    0.000    0.000 
#
# Total GULP energy -178517.931617 kJ/mol
# GULP energy per Si atom -5578.685363 kJ/mol
# Density = 1.844691 g / cm^3
# Si number density = 18.488991 Si / 1000 Ang^3
#
#
#
# Elastic Constant Matrix: (Units=GPa)
#
#
# Indices 1 2 3 4 5 6 
#
# 1 189.2526 58.1905 95.1592 0.0000 0.0000 0.0000
# 2 58.1905 86.5906 55.3579 0.0000 0.0000 0.0000
# 3 95.1592 55.3579 114.1322 0.0000 0.0000 0.0000
# 4 0.0000 0.0000 0.0000 109.7095 0.0000 0.0000
# 5 0.0000 0.0000 0.0000 0.0000 35.2237 0.0000
# 6 0.0000 0.0000 0.0000 0.0000 0.0000 17.4532
#
#
#
# Elastic Compliance Matrix: (Units=1/GPa)
#
#
# Indices 1 2 3 4 5 6 
#
# 1 0.009303 -0.001874 -0.006848 0.000000 0.000000 0.000000
# 2 -0.001874 0.017117 -0.006740 0.000000 0.000000 0.000000
# 3 -0.006848 -0.006740 0.017740 0.000000 0.000000 0.000000
# 4 0.000000 0.000000 0.000000 0.009115 0.000000 0.000000
# 5 0.000000 0.000000 0.000000 0.000000 0.028390 0.000000
# 6 0.000000 0.000000 0.000000 0.000000 0.000000 0.057296
#
#
# Mechanical properties :
#
#
# Convention : Reuss Voigt Hill
#
# Bulk Modulus (GPa) = 75.54482 89.71006 82.62744
# Shear Modulus (GPa) = 28.68672 44.56180 36.62426
#
# Velocity S-wave (km/s) = 3.94325 4.91468 4.45552
# Velocity P-wave (km/s) = 7.85369 8.99064 8.44133
#
# Compressibility (1/GPa) = 0.01323718
#
# Stress axis : x y z
#
# Youngs Moduli (GPa) = 107.48782 58.42237 56.36967
#
# Poissons Ratio (x) = 0.10950 0.38600
# Poissons Ratio (y) = 0.20146 0.37990
# Poissons Ratio (z) = 0.73605 0.39374
#
# Static dielectric constant tensor:
#      x y z
#    x 1.622290 0.000000 0.000000 
#    y 0.000000 1.652180 0.000000 
#    z 0.000000 0.000000 1.615640 
# 
# From -- ./inp_files/38535.got.cif
#   From: 2010.05.17/outbox.cif.g08.bks.cpg/sg21_20_cif.got.tgz:38535.got - 2010.06.03 23:14:55.
