data_PCOD9323645
_publ_section_title
;
Structure prediction by ZEFSAII (Michael W. Deem and Ramdas Pophale) SiO2 
 PCOD9323645
Probable space group: C 2 2 2
;
_chemical_formula_sum "Si O2"
_cell_formula_units_Z 64
_cell_length_a 12.199391
_cell_length_b 14.092515
_cell_length_c 18.714368
_cell_angle_alpha 90.000000
_cell_angle_beta 90.000000
_cell_angle_gamma 90.000000
_cell_volume 3217.376030
_symmetry_space_group_name_H-M "C 2 2 2"
_symmetry_group_IT_number 21
_symmetry_cell_setting 'orthorhombic'
loop_
_space_group_symop_operation_xyz
x,y,z
-x,-y,z
x,-y,-z
-x,y,-z
1/2+x,1/2+y,z
1/2-x,1/2-y,z
1/2+x,1/2-y,-z
1/2-x,1/2+y,-z
loop_
_atom_site_type_symbol
_atom_site_label
_atom_site_fract_x
_atom_site_fract_y
_atom_site_fract_z
Si Si1 0.971960 0.374030 0.917443
Si Si2 0.328463 0.956786 0.149855
Si Si3 0.623673 0.507447 0.084782
Si Si4 0.864593 0.790796 0.153050
Si Si5 0.010961 0.153320 0.286975
Si Si6 0.077021 0.238027 0.567824
Si Si7 0.231440 0.581557 0.439120
Si Si8 0.191881 0.988573 0.289358
O O1 0.079911 0.378413 0.867025
O O2 0.888887 0.453653 0.887494
O O3 0.911865 0.274646 0.909212
O O4 0.000000 0.391653 0.000000
O O5 0.285975 0.982909 0.228876
O O6 0.214315 0.933830 0.110696
O O7 0.500000 0.500000 0.112146
O O8 0.657886 0.607085 0.119095
O O9 0.621679 0.500000 0.000000
O O10 0.750000 0.750000 0.180762
O O11 0.953040 0.791169 0.216409
O O12 0.986154 0.213849 0.358236
O O13 0.899381 0.093283 0.275137
O O14 0.115266 0.081923 0.294627
O O15 0.134090 0.341488 0.568781
O O16 0.163964 0.152552 0.553939
O O17 0.000000 0.236731 0.500000
O O18 0.221469 0.500000 0.500000
O O19 0.251074 0.528466 0.364711
#
# Coordination Sequence:
#
# PCOD9323645 Si02
#       8
#     8   8   8   8   8   8   8   8
#     4  11  25  42  64  90 130 174 221 270 332 405
#     4  11  21  42  64  92 127 172 216 265 339 392
#     4  11  23  40  63  89 126 166 213 275 330 387
#     4  12  24  43  63  96 128 168 225 275 330 400
#     4  10  21  40  65  93 131 166 222 274 327 391
#     4  10  22  42  65  95 133 173 210 271 326 385
#     4  10  22  41  66  98 131 167 221 264 322 397
#     4  10  20  39  68  94 121 175 218 270 325 393
#
# _framework density 19.891985999999999
#
# number of rings (size 3 to 8) (size 9 to 14) (size 15 to 20)
#    0.000    1.375    2.500    3.000    3.500    1.500 
#    6.750    1.875    0.000    0.000    0.000    0.000 
#    0.000    0.000    0.000    0.000    0.000    0.000 
#
# Total GULP energy -178419.603580 kJ/mol
# GULP energy per Si atom -5575.612612 kJ/mol
# Density = 1.984671 g / cm^3
# Si number density = 19.891986 Si / 1000 Ang^3
#
#
#
# Elastic Constant Matrix: (Units=GPa)
#
#
# Indices 1 2 3 4 5 6 
#
# 1 100.4719 22.2176 62.8456 0.0000 0.0000 0.0000
# 2 22.2176 64.1539 47.2687 0.0000 0.0000 0.0000
# 3 62.8456 47.2687 162.7311 0.0000 0.0000 0.0000
# 4 0.0000 0.0000 0.0000 20.6958 0.0000 0.0000
# 5 0.0000 0.0000 0.0000 0.0000 44.6853 0.0000
# 6 0.0000 0.0000 0.0000 0.0000 0.0000 4.9771
#
#
#
# Elastic Compliance Matrix: (Units=1/GPa)
#
#
# Indices 1 2 3 4 5 6 
#
# 1 0.013177 -0.001036 -0.004788 0.000000 0.000000 0.000000
# 2 -0.001036 0.019913 -0.005384 0.000000 0.000000 0.000000
# 3 -0.004788 -0.005384 0.009558 0.000000 0.000000 0.000000
# 4 0.000000 0.000000 0.000000 0.048319 0.000000 0.000000
# 5 0.000000 0.000000 0.000000 0.000000 0.022379 0.000000
# 6 0.000000 0.000000 0.000000 0.000000 0.000000 0.200921
#
#
# Mechanical properties :
#
#
# Convention : Reuss Voigt Hill
#
# Bulk Modulus (GPa) = 49.42510 65.78008 57.60259
# Shear Modulus (GPa) = 14.55913 27.07330 20.81622
#
# Velocity S-wave (km/s) = 2.70832 3.69320 3.23842
# Velocity P-wave (km/s) = 5.88903 7.16426 6.55772
#
# Compressibility (1/GPa) = 0.02023264
#
# Stress axis : x y z
#
# Youngs Moduli (GPa) = 75.88998 50.21757 104.62207
#
# Poissons Ratio (x) = 0.05200 0.50094
# Poissons Ratio (y) = 0.07859 0.56332
# Poissons Ratio (z) = 0.36337 0.27039
#
# Static dielectric constant tensor:
#      x y z
#    x 1.720750 0.000000 0.000000 
#    y 0.000000 1.731620 0.000000 
#    z 0.000000 0.000000 1.679590 
# 
# From -- ./inp_files/36259.got.cif
#   From: 2010.05.17/outbox.cif.g08.bks.cpg/sg21_19_cif.got.tgz:36259.got - 2010.06.03 23:14:55.
