data_PCOD9323222
_publ_section_title
;
Structure prediction by ZEFSAII (Michael W. Deem and Ramdas Pophale) SiO2 
 PCOD9323222
Probable space group: C 2 2 2
;
_chemical_formula_sum "Si O2"
_cell_formula_units_Z 56
_cell_length_a 21.123399
_cell_length_b 8.180142
_cell_length_c 15.353458
_cell_angle_alpha 90.000000
_cell_angle_beta 90.000000
_cell_angle_gamma 90.000000
_cell_volume 2652.960907
_symmetry_space_group_name_H-M "C 2 2 2"
_symmetry_group_IT_number 21
_symmetry_cell_setting 'orthorhombic'
loop_
_space_group_symop_operation_xyz
x,y,z
-x,-y,z
x,-y,-z
-x,y,-z
1/2+x,1/2+y,z
1/2-x,1/2-y,z
1/2+x,1/2-y,-z
1/2-x,1/2+y,-z
loop_
_atom_site_type_symbol
_atom_site_label
_atom_site_fract_x
_atom_site_fract_y
_atom_site_fract_z
Si Si1 0.245999 0.552601 0.335900
Si Si2 0.432478 0.942073 0.220669
Si Si3 0.932961 0.054070 0.222799
Si Si4 0.114254 0.949029 0.403138
Si Si5 0.175566 0.056101 0.093319
Si Si6 0.611001 0.059260 0.407298
Si Si7 0.803192 0.428571 0.846013
O O1 0.250000 0.750000 0.314093
O O2 0.312487 0.509874 0.380253
O O3 0.185979 0.524140 0.397908
O O4 0.228672 0.446705 0.250468
O O5 0.433213 0.748284 0.226882
O O6 0.421435 0.008950 0.319479
O O7 0.500000 0.000000 0.186701
O O8 0.371657 0.990871 0.164156
O O9 0.924874 0.984200 0.320850
O O10 0.872385 0.004740 0.166807
O O11 0.000000 0.000000 0.184987
O O12 0.106773 0.754166 0.403264
O O13 0.096848 0.000000 0.500000
O O14 0.184174 0.248896 0.114473
O O15 0.247234 0.986199 0.099725
O O16 0.150184 0.000000 0.000000
O O17 0.586370 0.000000 0.500000
#
# Coordination Sequence:
#
# PCOD9323222 Si02
#       7
#     8   8   8   8   8   8   8
#     4   9  17  35  59  87 128 171 219 267 323 384
#     4  10  22  40  65  90 124 177 224 264 332 400
#     4  11  24  43  66  91 135 176 218 278 333 389
#     4  10  20  34  57  90 128 172 217 269 324 386
#     4  11  25  44  68 102 132 164 219 270 335 399
#     4   9  19  33  51  84 123 171 220 274 319 374
#     4  10  22  41  67  97 130 168 214 262 330 392
#
# _framework density 21.10849
#
# number of rings (size 3 to 8) (size 9 to 14) (size 15 to 20)
#    0.000    2.000    1.429    2.143    0.000    6.571 
#    0.000    2.857    0.000    3.000    0.000    0.000 
#    0.000    0.000    0.000    0.000    0.000    0.000 
#
# Total GULP energy -156177.332459 kJ/mol
# GULP energy per Si atom -5577.761874 kJ/mol
# Density = 2.106045 g / cm^3
# Si number density = 21.108490 Si / 1000 Ang^3
#
#
#
# Elastic Constant Matrix: (Units=GPa)
#
#
# Indices 1 2 3 4 5 6 
#
# 1 137.3549 25.5032 25.2880 0.0000 0.0000 0.0000
# 2 25.5032 44.1036 21.8721 0.0000 0.0000 0.0000
# 3 25.2880 21.8721 104.3910 0.0000 0.0000 0.0000
# 4 0.0000 0.0000 0.0000 4.9115 0.0000 0.0000
# 5 0.0000 0.0000 0.0000 0.0000 2.9809 0.0000
# 6 0.0000 0.0000 0.0000 0.0000 0.0000 17.7884
#
#
#
# Elastic Compliance Matrix: (Units=1/GPa)
#
#
# Indices 1 2 3 4 5 6 
#
# 1 0.008271 -0.004229 -0.001118 0.000000 0.000000 0.000000
# 2 -0.004229 0.027465 -0.004730 0.000000 0.000000 0.000000
# 3 -0.001118 -0.004730 0.010841 0.000000 0.000000 0.000000
# 4 0.000000 0.000000 0.000000 0.203605 0.000000 0.000000
# 5 0.000000 0.000000 0.000000 0.000000 0.335473 0.000000
# 6 0.000000 0.000000 0.000000 0.000000 0.000000 0.056216
#
#
# Mechanical properties :
#
#
# Convention : Reuss Voigt Hill
#
# Bulk Modulus (GPa) = 37.84366 47.90846 42.87606
# Shear Modulus (GPa) = 7.45341 19.34856 13.40099
#
# Velocity S-wave (km/s) = 1.88113 3.03087 2.52238
# Velocity P-wave (km/s) = 4.76291 5.91555 5.37025
#
# Compressibility (1/GPa) = 0.02642451
#
# Stress axis : x y z
#
# Youngs Moduli (GPa) = 120.89952 36.41012 92.24085
#
# Poissons Ratio (x) = 0.15397 0.10310
# Poissons Ratio (y) = 0.51124 0.43631
# Poissons Ratio (z) = 0.13513 0.17222
#
# Static dielectric constant tensor:
#      x y z
#    x 1.774730 0.000000 0.000000 
#    y 0.000000 1.787980 0.000000 
#    z 0.000000 0.000000 1.790300 
# 
# From -- ./inp_files/33283.got.cif
#   From: 2010.05.17/outbox.cif.g08.bks.cpg/sg21_17_cif.got.tgz:33283.got - 2010.06.03 23:14:55.
