data_PCOD9323085
_publ_section_title
;
Structure prediction by ZEFSAII (Michael W. Deem and Ramdas Pophale) SiO2 
 PCOD9323085
Probable space group: C 2 2 2
;
_chemical_formula_sum "Si O2"
_cell_formula_units_Z 32
_cell_length_a 7.458078
_cell_length_b 16.863739
_cell_length_c 11.006470
_cell_angle_alpha 90.000000
_cell_angle_beta 90.000000
_cell_angle_gamma 90.000000
_cell_volume 1384.295628
_symmetry_space_group_name_H-M "C 2 2 2"
_symmetry_group_IT_number 21
_symmetry_cell_setting 'orthorhombic'
loop_
_space_group_symop_operation_xyz
x,y,z
-x,-y,z
x,-y,-z
-x,y,-z
1/2+x,1/2+y,z
1/2-x,1/2-y,z
1/2+x,1/2-y,-z
1/2-x,1/2+y,-z
loop_
_atom_site_type_symbol
_atom_site_label
_atom_site_fract_x
_atom_site_fract_y
_atom_site_fract_z
Si Si1 0.712544 0.563283 0.103436
Si Si2 0.000000 0.684196 0.000000
Si Si3 0.000000 0.500000 0.712219
Si Si4 0.500000 0.124903 0.500000
Si Si5 0.551835 0.290288 0.774773
Si Si6 0.750000 0.750000 0.580296
O O1 0.574472 0.619173 0.177580
O O2 0.831887 0.516651 0.201904
O O3 0.667304 0.500000 0.000000
O O4 0.836217 0.627855 0.034987
O O5 0.967984 0.739581 0.884846
O O6 0.983614 0.573747 0.621435
O O7 0.324664 0.178961 0.499660
O O8 0.750000 0.250000 0.756185
O O9 0.416345 0.279423 0.663017
#
# Coordination Sequence:
#
# PCOD9323085 Si02
#       6
#     8   4   4   4   8   4
#     4  11  21  41  75 113 157 199 238 298 385 457
#     4  10  19  40  69 114 150 204 230 294 369 456
#     4  11  23  48  72 108 153 203 240 316 384 441
#     4  11  28  46  80  99 142 204 260 313 384 418
#     4  10  25  42  75 110 154 192 248 296 382 443
#     4  12  28  50  78 108 144 192 262 336 350 442
#
# _framework density 23.116451999999999
#
# number of rings (size 3 to 8) (size 9 to 14) (size 15 to 20)
#    0.000    1.250    2.500    3.000   10.500    0.000 
#    0.000    4.375    0.000    0.000    0.000    0.000 
#    0.000    0.000    0.000    0.000    0.000    0.000 
#
# Total GULP energy -89568.230778 kJ/mol
# GULP energy per Si atom -5598.014424 kJ/mol
# Density = 2.306384 g / cm^3
# Si number density = 23.116452 Si / 1000 Ang^3
#
#
#
# Elastic Constant Matrix: (Units=GPa)
#
#
# Indices 1 2 3 4 5 6 
#
# 1 111.4651 61.8209 55.8836 0.0000 0.0000 0.0000
# 2 61.8209 158.3317 83.2450 0.0000 0.0000 0.0000
# 3 55.8836 83.2450 137.5671 0.0000 0.0000 0.0000
# 4 0.0000 0.0000 0.0000 -26.5170 0.0000 0.0000
# 5 0.0000 0.0000 0.0000 0.0000 15.9909 0.0000
# 6 0.0000 0.0000 0.0000 0.0000 0.0000 11.3146
#
#
#
# Elastic Compliance Matrix: (Units=1/GPa)
#
#
# Indices 1 2 3 4 5 6 
#
# 1 0.012270 -0.003183 -0.003058 0.000000 0.000000 0.000000
# 2 -0.003183 0.010088 -0.004812 0.000000 0.000000 0.000000
# 3 -0.003058 -0.004812 0.011423 0.000000 0.000000 0.000000
# 4 0.000000 0.000000 0.000000 -0.037712 0.000000 0.000000
# 5 0.000000 0.000000 0.000000 0.000000 0.062536 0.000000
# 6 0.000000 0.000000 0.000000 0.000000 0.000000 0.088381
#
#
# Mechanical properties :
#
#
# Convention : Reuss Voigt Hill
#
# Bulk Modulus (GPa) = 85.64800 89.91811 87.78305
# Shear Modulus (GPa) = 28.90420 13.91865 21.41143
#
# Velocity S-wave (km/s) = 3.53990 2.45646 3.04672
# Velocity P-wave (km/s) = 7.33750 6.85769 7.10165
#
# Compressibility (1/GPa) = 0.01167570
#
# Stress axis : x y z
#
# Youngs Moduli (GPa) = 81.49927 99.12297 87.54017
#
# Poissons Ratio (x) = 0.31549 0.26773
# Poissons Ratio (y) = 0.25940 0.42123
# Poissons Ratio (z) = 0.24926 0.47696
#
# Static dielectric constant tensor:
#      x y z
#    x 1.863970 0.000000 0.000000 
#    y 0.000000 1.873650 0.000000 
#    z 0.000000 0.000000 1.902310 
# 
# From -- ./inp_files/22058.got.cif
#   From: 2010.05.17/outbox.cif.g08.bks.cpg/sg21_12_cif.got.tgz:22058.got - 2010.06.03 23:14:55.
