data_PCOD9323084
_publ_section_title
;
Structure prediction by ZEFSAII (Michael W. Deem and Ramdas Pophale) SiO2 
 PCOD9323084
Probable space group: C 2 2 2
;
_chemical_formula_sum "Si O2"
_cell_formula_units_Z 38
_cell_length_a 19.883254
_cell_length_b 12.833830
_cell_length_c 7.391637
_cell_angle_alpha 90.000000
_cell_angle_beta 90.000000
_cell_angle_gamma 90.000000
_cell_volume 1886.185376
_symmetry_space_group_name_H-M "C 2 2 2"
_symmetry_group_IT_number 21
_symmetry_cell_setting 'orthorhombic'
loop_
_space_group_symop_operation_xyz
x,y,z
-x,-y,z
x,-y,-z
-x,y,-z
1/2+x,1/2+y,z
1/2-x,1/2-y,z
1/2+x,1/2-y,-z
1/2-x,1/2+y,-z
loop_
_atom_site_type_symbol
_atom_site_label
_atom_site_fract_x
_atom_site_fract_y
_atom_site_fract_z
Si Si1 0.000000 0.235207 0.000000
Si Si2 0.000000 0.500000 0.500000
Si Si3 0.167987 0.000000 0.000000
Si Si4 0.937186 0.074225 0.719395
Si Si5 0.742943 0.871748 0.785093
Si Si6 0.413432 0.084227 0.835901
Si Si7 0.169046 0.000000 0.500000
O O1 0.055517 0.308775 0.909901
O O2 0.965224 0.166864 0.842648
O O3 0.048590 0.442141 0.646502
O O4 0.115996 0.010826 0.161288
O O5 0.216247 0.901609 0.031405
O O6 0.886025 0.091421 0.553134
O O7 0.000000 0.000000 0.683471
O O8 0.750000 0.750000 0.745121
O O9 0.665639 0.903423 0.803068
O O10 0.779874 0.944434 0.638507
O O11 0.423635 0.000000 0.000000
#
# Coordination Sequence:
#
# PCOD9323084 Si02
#       7
#     4   2   4   8   8   8   4
#     4  12  22  42  74 102 128 184 236 276 350 428
#     4  12  24  48  68  96 146 176 220 308 340 400
#     4  10  19  40  66  93 126 170 220 276 332 401
#     4  11  21  41  66  98 135 169 217 289 346 400
#     4  11  24  44  68  94 135 182 226 279 347 422
#     4  12  25  47  70 102 138 184 235 285 351 416
#     4  10  26  44  62 106 140 170 230 294 344 416
#
# _framework density 20.146483
#
# number of rings (size 3 to 8) (size 9 to 14) (size 15 to 20)
#    0.000    0.842    5.263    2.211    2.947    1.684 
#    3.789    2.105    0.000    0.000    0.000    0.000 
#    0.000    0.000    0.000    0.000    0.000    0.000 
#
# Total GULP energy -105783.032089 kJ/mol
# GULP energy per Si atom -5567.528005 kJ/mol
# Density = 2.010063 g / cm^3
# Si number density = 20.146483 Si / 1000 Ang^3
#
#
#
# Elastic Constant Matrix: (Units=GPa)
#
#
# Indices 1 2 3 4 5 6 
#
# 1 218.9864 60.1071 74.9147 0.0000 0.0000 0.0000
# 2 60.1071 88.0494 50.2795 0.0000 0.0000 0.0000
# 3 74.9147 50.2795 103.5793 0.0000 0.0000 0.0000
# 4 0.0000 0.0000 0.0000 5.7037 0.0000 0.0000
# 5 0.0000 0.0000 0.0000 0.0000 38.3924 0.0000
# 6 0.0000 0.0000 0.0000 0.0000 0.0000 25.3001
#
#
#
# Elastic Compliance Matrix: (Units=1/GPa)
#
#
# Indices 1 2 3 4 5 6 
#
# 1 0.006412 -0.002392 -0.003477 0.000000 0.000000 0.000000
# 2 -0.002392 0.016605 -0.006330 0.000000 0.000000 0.000000
# 3 -0.003477 -0.006330 0.015242 0.000000 0.000000 0.000000
# 4 0.000000 0.000000 0.000000 0.175325 0.000000 0.000000
# 5 0.000000 0.000000 0.000000 0.000000 0.026047 0.000000
# 6 0.000000 0.000000 0.000000 0.000000 0.000000 0.039526
#
#
# Mechanical properties :
#
#
# Convention : Reuss Voigt Hill
#
# Bulk Modulus (GPa) = 72.14418 86.80195 79.47306
# Shear Modulus (GPa) = 16.22453 28.90016 22.56234
#
# Velocity S-wave (km/s) = 2.84091 3.79159 3.35014
# Velocity P-wave (km/s) = 6.82998 7.89602 7.38227
#
# Compressibility (1/GPa) = 0.01386113
#
# Stress axis : x y z
#
# Youngs Moduli (GPa) = 155.94667 60.22242 65.60899
#
# Poissons Ratio (x) = 0.14406 0.22810
# Poissons Ratio (y) = 0.37305 0.41532
# Poissons Ratio (z) = 0.54217 0.38123
#
# Static dielectric constant tensor:
#      x y z
#    x 1.693070 0.000000 0.000000 
#    y 0.000000 1.715500 0.000000 
#    z 0.000000 0.000000 1.928560 
# 
# From -- ./inp_files/16169.got.cif
#   From: 2010.05.17/outbox.cif.g08.bks.cpg/sg21_9_cif.got.tgz:16169.got - 2010.06.03 23:14:55.
