data_PCOD9323909
_publ_section_title
;
Structure prediction by ZEFSAII (Michael W. Deem and Ramdas Pophale) SiO2 
 PCOD9323909
Probable space group: C 2 2 2
;
_chemical_formula_sum "Si O2"
_cell_formula_units_Z 38
_cell_length_a 12.192683
_cell_length_b 27.797557
_cell_length_c 7.026411
_cell_angle_alpha 90.000000
_cell_angle_beta 90.000000
_cell_angle_gamma 90.000000
_cell_volume 2381.439000
_symmetry_space_group_name_H-M "C 2 2 2"
_symmetry_group_IT_number 21
_symmetry_cell_setting 'orthorhombic'
loop_
_space_group_symop_operation_xyz
x,y,z
-x,-y,z
x,-y,-z
-x,y,-z
1/2+x,1/2+y,z
1/2-x,1/2-y,z
1/2+x,1/2-y,-z
1/2-x,1/2+y,-z
loop_
_atom_site_type_symbol
_atom_site_label
_atom_site_fract_x
_atom_site_fract_y
_atom_site_fract_z
Si Si1 0.894458 0.720583 0.225876
Si Si2 0.597988 0.093867 0.361485
Si Si3 0.000000 0.635610 0.000000
Si Si4 0.741639 0.323972 0.445077
Si Si5 0.000000 0.790116 0.500000
Si Si6 0.250000 0.750000 0.106193
Si Si7 0.000000 0.500000 0.500000
O O1 0.934567 0.670939 0.138104
O O2 0.807814 0.704950 0.390126
O O3 0.986181 0.753320 0.324188
O O4 0.848360 0.749852 0.045790
O O5 0.500000 0.113676 0.500000
O O6 0.574459 0.105168 0.141894
O O7 0.705746 0.123090 0.424736
O O8 0.580549 0.036838 0.389957
O O9 0.612132 0.320141 0.487945
O O10 0.758533 0.295481 0.246278
#
# Coordination Sequence:
#
# PCOD9323909 Si02
#       7
#     8   8   4   8   4   4   2
#     4  12  21  35  49  77 116 162 197 224 267 334
#     4  10  21  37  59  82 107 140 187 248 297 339
#     4  12  20  31  62  82 108 150 194 231 292 344
#     4  12  22  37  52  81 118 154 193 237 273 341
#     4  12  22  35  50  77 126 161 193 230 270 334
#     4  12  20  34  52  72 114 166 198 222 270 326
#     4   8  20  44  60  82 110 140 182 266 306 334
#
# _framework density 15.95674
#
# number of rings (size 3 to 8) (size 9 to 14) (size 15 to 20)
#    0.632    0.000    8.421    2.526    0.000    0.421 
#    0.000    0.000    0.000    0.632    0.000    0.000 
#    0.000    0.421    0.000    0.000    0.000    0.000 
#
# Total GULP energy -105799.805171 kJ/mol
# GULP energy per Si atom -5568.410798 kJ/mol
# Density = 1.592042 g / cm^3
# Si number density = 15.956740 Si / 1000 Ang^3
#
#
#
# Elastic Constant Matrix: (Units=GPa)
#
#
# Indices 1 2 3 4 5 6 
#
# 1 91.9776 45.1181 34.3260 0.0000 0.0000 0.0000
# 2 45.1181 111.1394 39.7258 0.0000 0.0000 0.0000
# 3 34.3260 39.7258 106.4163 0.0000 0.0000 0.0000
# 4 0.0000 0.0000 0.0000 -4.5068 0.0000 0.0000
# 5 0.0000 0.0000 0.0000 0.0000 34.6936 0.0000
# 6 0.0000 0.0000 0.0000 0.0000 0.0000 23.7124
#
#
#
# Elastic Compliance Matrix: (Units=1/GPa)
#
#
# Indices 1 2 3 4 5 6 
#
# 1 0.014271 -0.004787 -0.002816 0.000000 0.000000 0.000000
# 2 -0.004787 0.011989 -0.002931 0.000000 0.000000 0.000000
# 3 -0.002816 -0.002931 0.011400 0.000000 0.000000 0.000000
# 4 0.000000 0.000000 0.000000 -0.221888 0.000000 0.000000
# 5 0.000000 0.000000 0.000000 0.000000 0.028824 0.000000
# 6 0.000000 0.000000 0.000000 0.000000 0.000000 0.042172
#
#
# Mechanical properties :
#
#
# Convention : Reuss Voigt Hill
#
# Bulk Modulus (GPa) = 60.27529 60.87480 60.57504
# Shear Modulus (GPa) = -57.71523 23.47074 -17.12224
#
# Velocity S-wave (km/s) = -6.02066 3.83939 -3.27928
# Velocity P-wave (km/s) = 3.23650 7.60837 4.86890
#
# Compressibility (1/GPa) = 0.01659055
#
# Stress axis : x y z
#
# Youngs Moduli (GPa) = 70.06988 83.41113 87.72042
#
# Poissons Ratio (x) = 0.39928 0.24706
# Poissons Ratio (y) = 0.33542 0.25714
# Poissons Ratio (z) = 0.19735 0.24451
#
# Static dielectric constant tensor:
#      x y z
#    x 1.598800 0.000000 0.000000 
#    y 0.000000 1.532450 0.000000 
#    z 0.000000 0.000000 1.561680 
# 
# From -- ./inp_files/4003.got.cif
#   From: 2010.05.17/outbox.cif.g08.bks.cpg/sg21_3_cif.got.tgz:4003.got - 2010.06.03 23:14:55.
