data_PCOD9323221
_publ_section_title
;
Structure prediction by ZEFSAII (Michael W. Deem and Ramdas Pophale) SiO2 
 PCOD9323221
Probable space group: C 2 2 2
;
_chemical_formula_sum "Si O2"
_cell_formula_units_Z 58
_cell_length_a 9.882220
_cell_length_b 19.074264
_cell_length_c 13.103842
_cell_angle_alpha 90.000000
_cell_angle_beta 90.000000
_cell_angle_gamma 90.000000
_cell_volume 2470.022761
_symmetry_space_group_name_H-M "C 2 2 2"
_symmetry_group_IT_number 21
_symmetry_cell_setting 'orthorhombic'
loop_
_space_group_symop_operation_xyz
x,y,z
-x,-y,z
x,-y,-z
-x,y,-z
1/2+x,1/2+y,z
1/2-x,1/2-y,z
1/2+x,1/2-y,-z
1/2-x,1/2+y,-z
loop_
_atom_site_type_symbol
_atom_site_label
_atom_site_fract_x
_atom_site_fract_y
_atom_site_fract_z
Si Si1 0.784633 0.852861 0.402621
Si Si2 0.757230 0.927892 0.037837
Si Si3 0.759501 0.653624 0.639938
Si Si4 0.462684 0.175777 0.114350
Si Si5 0.535423 0.759325 0.321551
Si Si6 0.345946 0.001630 0.376875
Si Si7 0.758541 0.169504 0.143346
Si Si8 0.000000 0.000000 0.000000
O O1 0.795449 0.845324 0.525269
O O2 0.651299 0.809029 0.371162
O O3 0.918343 0.816995 0.358165
O O4 0.747435 0.930296 0.361191
O O5 0.811089 0.880564 0.943466
O O6 0.898409 0.958724 0.075492
O O7 0.658568 0.879381 0.102804
O O8 0.684503 0.000000 0.000000
O O9 0.786325 0.571651 0.657288
O O10 0.680236 0.673351 0.743891
O O11 0.894168 0.703844 0.643150
O O12 0.439012 0.233607 0.199755
O O13 0.603176 0.142249 0.152744
O O14 0.500000 0.200537 0.000000
O O15 0.500000 0.000000 0.336355
O O16 0.357227 0.000000 0.500000
O O17 0.750000 0.250000 0.107391
#
# Coordination Sequence:
#
# PCOD9323221 Si02
#       8
#     8   8   8   8   8   8   8   2
#     4  10  20  34  56  95 134 168 223 286 345 407
#     4   9  20  44  70  96 135 180 230 281 364 424
#     4  10  20  37  61  86 135 178 221 287 347 413
#     4   9  20  41  64  96 131 173 226 295 342 418
#     4  10  20  34  57  95 132 168 230 275 362 415
#     4   9  16  31  54  81 121 169 214 269 329 395
#     4  10  22  39  62  99 132 177 235 284 357 421
#     4   8  20  44  74  96 132 190 210 298 360 432
#
# _framework density 23.481565
#
# number of rings (size 3 to 8) (size 9 to 14) (size 15 to 20)
#    0.414    2.069    1.379    0.414    1.931    3.586 
#   13.655    2.759    0.000    0.000    0.000    0.000 
#    0.000    0.000    0.000    0.000    0.000    0.000 
#
# Total GULP energy -161564.217106 kJ/mol
# GULP energy per Si atom -5571.179900 kJ/mol
# Density = 2.342812 g / cm^3
# Si number density = 23.481565 Si / 1000 Ang^3
#
#
#
# Elastic Constant Matrix: (Units=GPa)
#
#
# Indices 1 2 3 4 5 6 
#
# 1 110.4978 45.7565 30.8421 0.0000 0.0000 0.0000
# 2 45.7565 174.0040 49.7315 0.0000 0.0000 0.0000
# 3 30.8421 49.7315 123.4697 0.0000 0.0000 0.0000
# 4 0.0000 0.0000 0.0000 15.6864 0.0000 0.0000
# 5 0.0000 0.0000 0.0000 0.0000 11.1050 0.0000
# 6 0.0000 0.0000 0.0000 0.0000 0.0000 42.0760
#
#
#
# Elastic Compliance Matrix: (Units=1/GPa)
#
#
# Indices 1 2 3 4 5 6 
#
# 1 0.010463 -0.002265 -0.001701 0.000000 0.000000 0.000000
# 2 -0.002265 0.006985 -0.002248 0.000000 0.000000 0.000000
# 3 -0.001701 -0.002248 0.009429 0.000000 0.000000 0.000000
# 4 0.000000 0.000000 0.000000 0.063750 0.000000 0.000000
# 5 0.000000 0.000000 0.000000 0.000000 0.090050 0.000000
# 6 0.000000 0.000000 0.000000 0.000000 0.000000 0.023767
#
#
# Mechanical properties :
#
#
# Convention : Reuss Voigt Hill
#
# Bulk Modulus (GPa) = 69.20742 73.40353 71.30548
# Shear Modulus (GPa) = 22.55430 32.54957 27.55193
#
# Velocity S-wave (km/s) = 3.10257 3.72718 3.42913
# Velocity P-wave (km/s) = 6.50935 7.06048 6.79051
#
# Compressibility (1/GPa) = 0.01444932
#
# Stress axis : x y z
#
# Youngs Moduli (GPa) = 95.57713 143.16355 106.05119
#
# Poissons Ratio (x) = 0.32428 0.18041
# Poissons Ratio (y) = 0.21649 0.23836
# Poissons Ratio (z) = 0.16260 0.32178
#
# Static dielectric constant tensor:
#      x y z
#    x 1.963360 0.000000 0.000000 
#    y 0.000000 1.954980 0.000000 
#    z 0.000000 0.000000 1.951260 
# 
# From -- ./inp_files/31723.got.cif
#   From: 2010.05.17/outbox.cif.g08.bks.cpg/sg21_16_cif.got.tgz:31723.got - 2010.06.03 23:14:55.
