data_PCOD9323525
_publ_section_title
;
Structure prediction by ZEFSAII (Michael W. Deem and Ramdas Pophale) SiO2 
 PCOD9323525
Probable space group: C 2 2 2
;
_chemical_formula_sum "Si O2"
_cell_formula_units_Z 48
_cell_length_a 23.788417
_cell_length_b 9.214997
_cell_length_c 9.532125
_cell_angle_alpha 90.000000
_cell_angle_beta 90.000000
_cell_angle_gamma 90.000000
_cell_volume 2089.538945
_symmetry_space_group_name_H-M "C 2 2 2"
_symmetry_group_IT_number 21
_symmetry_cell_setting 'orthorhombic'
loop_
_space_group_symop_operation_xyz
x,y,z
-x,-y,z
x,-y,-z
-x,y,-z
1/2+x,1/2+y,z
1/2-x,1/2-y,z
1/2+x,1/2-y,-z
1/2-x,1/2+y,-z
loop_
_atom_site_type_symbol
_atom_site_label
_atom_site_fract_x
_atom_site_fract_y
_atom_site_fract_z
Si Si1 0.301196 0.159653 0.522363
Si Si2 0.810332 0.756674 0.839097
Si Si3 0.021049 0.844522 0.279143
Si Si4 0.418192 0.919247 0.135692
Si Si5 0.092311 0.301419 0.338584
Si Si6 0.635048 0.496945 0.336691
O O1 0.250000 0.250000 0.456471
O O2 0.302791 0.183678 0.687011
O O3 0.364589 0.172119 0.465511
O O4 0.282417 0.000000 0.500000
O O5 0.750000 0.750000 0.912907
O O6 0.859929 0.662222 0.905067
O O7 0.829942 0.914407 0.783656
O O8 0.042332 0.713333 0.182493
O O9 0.077289 0.903589 0.354382
O O10 0.969905 0.766128 0.361814
O O11 0.000000 0.000000 0.215443
O O12 0.411498 0.048069 0.251907
O O13 0.439429 0.000000 0.000000
O O14 0.122391 0.156887 0.276650
O O15 0.656827 0.500000 0.500000
#
# Coordination Sequence:
#
# PCOD9323525 Si02
#       6
#     8   8   8   8   8   8
#     4  11  23  38  62  97 133 172 217 276 340 412
#     4  10  22  40  64  93 133 172 221 275 339 408
#     4   9  22  42  63  95 131 170 221 269 340 408
#     4  11  24  46  67  92 132 175 229 290 332 389
#     4  11  22  37  61  98 126 170 221 268 340 408
#     4  10  20  38  59  93 136 172 205 268 336 413
#
# _framework density 22.971572999999999
#
# number of rings (size 3 to 8) (size 9 to 14) (size 15 to 20)
#    0.000    1.667    3.333    0.500    4.667    4.333 
#    0.000   12.500    0.000    0.000    0.000    0.000 
#    0.000    0.000    0.000    0.000    0.000    0.000 
#
# Total GULP energy -133647.537892 kJ/mol
# GULP energy per Si atom -5568.647412 kJ/mol
# Density = 2.291929 g / cm^3
# Si number density = 22.971573 Si / 1000 Ang^3
#
#
#
# Elastic Constant Matrix: (Units=GPa)
#
#
# Indices 1 2 3 4 5 6 
#
# 1 142.2429 47.3024 7.0191 0.0000 0.0000 0.0000
# 2 47.3024 204.3679 28.8061 0.0000 0.0000 0.0000
# 3 7.0191 28.8061 25.1983 0.0000 0.0000 0.0000
# 4 0.0000 0.0000 0.0000 20.4182 0.0000 0.0000
# 5 0.0000 0.0000 0.0000 0.0000 2.9293 0.0000
# 6 0.0000 0.0000 0.0000 0.0000 0.0000 45.5645
#
#
#
# Elastic Compliance Matrix: (Units=1/GPa)
#
#
# Indices 1 2 3 4 5 6 
#
# 1 0.007617 -0.001745 -0.000127 0.000000 0.000000 0.000000
# 2 -0.001745 0.006233 -0.006639 0.000000 0.000000 0.000000
# 3 -0.000127 -0.006639 0.047310 0.000000 0.000000 0.000000
# 4 0.000000 0.000000 0.000000 0.048976 0.000000 0.000000
# 5 0.000000 0.000000 0.000000 0.000000 0.341384 0.000000
# 6 0.000000 0.000000 0.000000 0.000000 0.000000 0.021947
#
#
# Mechanical properties :
#
#
# Convention : Reuss Voigt Hill
#
# Bulk Modulus (GPa) = 22.65622 59.78493 41.22057
# Shear Modulus (GPa) = 9.89704 33.02781 21.46243
#
# Velocity S-wave (km/s) = 2.07792 3.79591 3.05995
# Velocity P-wave (km/s) = 3.95489 6.73008 5.51974
#
# Compressibility (1/GPa) = 0.04413799
#
# Stress axis : x y z
#
# Youngs Moduli (GPa) = 131.28853 160.44004 21.13703
#
# Poissons Ratio (x) = 0.27998 0.00268
# Poissons Ratio (y) = 0.22911 0.14033
# Poissons Ratio (z) = 0.01664 1.06519
#
# Static dielectric constant tensor:
#      x y z
#    x 2.011620 0.000000 0.000000 
#    y 0.000000 1.916330 0.000000 
#    z 0.000000 0.000000 1.847630 
# 
# From -- ./inp_files/27326.got.cif
#   From: 2010.05.17/outbox.cif.g08.bks.cpg/sg21_14_cif.got.tgz:27326.got - 2010.06.03 23:14:55.
