data_PCOD9323619
_publ_section_title
;
Structure prediction by ZEFSAII (Michael W. Deem and Ramdas Pophale) SiO2 
 PCOD9323619
Probable space group: C 2 2 2
;
_chemical_formula_sum "Si O2"
_cell_formula_units_Z 64
_cell_length_a 9.568876
_cell_length_b 24.713854
_cell_length_c 13.522858
_cell_angle_alpha 90.000000
_cell_angle_beta 90.000000
_cell_angle_gamma 90.000000
_cell_volume 3197.936906
_symmetry_space_group_name_H-M "C 2 2 2"
_symmetry_group_IT_number 21
_symmetry_cell_setting 'orthorhombic'
loop_
_space_group_symop_operation_xyz
x,y,z
-x,-y,z
x,-y,-z
-x,y,-z
1/2+x,1/2+y,z
1/2-x,1/2-y,z
1/2+x,1/2-y,-z
1/2-x,1/2+y,-z
loop_
_atom_site_type_symbol
_atom_site_label
_atom_site_fract_x
_atom_site_fract_y
_atom_site_fract_z
Si Si1 0.851986 0.528545 0.222919
Si Si2 0.288626 0.439602 0.033097
Si Si3 0.832704 0.304509 0.484703
Si Si4 0.221068 0.361927 0.323926
Si Si5 0.964191 0.142464 0.831310
Si Si6 0.082062 0.671581 0.271284
Si Si7 0.405802 0.247080 0.915760
Si Si8 0.239635 0.082306 0.810349
O O1 0.836963 0.552103 0.111379
O O2 0.812566 0.575674 0.298439
O O3 0.740116 0.479720 0.222784
O O4 0.000000 0.500000 0.238624
O O5 0.395940 0.400710 0.091622
O O6 0.338824 0.500000 0.000000
O O7 0.246986 0.413873 0.929112
O O8 0.750000 0.250000 0.507814
O O9 0.770404 0.349267 0.559500
O O10 0.826867 0.316433 0.368326
O O11 0.000000 0.299105 0.500000
O O12 0.350593 0.345557 0.254119
O O13 0.082623 0.328923 0.292310
O O14 0.021392 0.196039 0.885872
O O15 0.098016 0.113096 0.784310
O O16 0.109211 0.712839 0.183573
O O17 0.129446 0.612699 0.235997
O O18 0.250000 0.250000 0.958054
O O19 0.500000 0.220366 0.000000
#
# Coordination Sequence:
#
# PCOD9323619 Si02
#       8
#     8   8   8   8   8   8   8   8
#     4  10  20  39  62  97 134 172 224 279 336 393
#     4   9  21  36  60  93 130 178 223 261 320 402
#     4  10  24  44  71  97 127 167 225 283 342 410
#     4  10  24  42  67  97 129 167 226 283 344 399
#     4  11  24  41  63  94 134 178 220 277 339 399
#     4  11  24  43  64  95 133 170 225 276 337 406
#     4  12  27  42  64  96 139 185 225 274 346 409
#     4  11  21  37  63  89 135 174 220 268 327 400
#
# _framework density 20.012900999999999
#
# number of rings (size 3 to 8) (size 9 to 14) (size 15 to 20)
#    0.000    1.500    2.500    1.500    5.250    9.250 
#    0.000    0.625    0.000    0.000    0.000    5.250 
#    0.000    0.000    0.000    0.000    0.000    0.000 
#
# Total GULP energy -178623.058690 kJ/mol
# GULP energy per Si atom -5581.970584 kJ/mol
# Density = 1.996735 g / cm^3
# Si number density = 20.012901 Si / 1000 Ang^3
#
#
#
# Elastic Constant Matrix: (Units=GPa)
#
#
# Indices 1 2 3 4 5 6 
#
# 1 62.1968 12.2834 41.4012 0.0000 0.0000 0.0000
# 2 12.2834 75.2657 42.6194 0.0000 0.0000 0.0000
# 3 41.4012 42.6194 122.5801 0.0000 0.0000 0.0000
# 4 0.0000 0.0000 0.0000 23.2426 0.0000 0.0000
# 5 0.0000 0.0000 0.0000 0.0000 17.2551 0.0000
# 6 0.0000 0.0000 0.0000 0.0000 0.0000 34.1447
#
#
#
# Elastic Compliance Matrix: (Units=1/GPa)
#
#
# Indices 1 2 3 4 5 6 
#
# 1 0.020773 0.000726 -0.007268 0.000000 0.000000 0.000000
# 2 0.000726 0.016569 -0.006006 0.000000 0.000000 0.000000
# 3 -0.007268 -0.006006 0.012701 0.000000 0.000000 0.000000
# 4 0.000000 0.000000 0.000000 0.043024 0.000000 0.000000
# 5 0.000000 0.000000 0.000000 0.000000 0.057954 0.000000
# 6 0.000000 0.000000 0.000000 0.000000 0.000000 0.029287
#
#
# Mechanical properties :
#
#
# Convention : Reuss Voigt Hill
#
# Bulk Modulus (GPa) = 40.08751 50.29451 45.19101
# Shear Modulus (GPa) = 23.39511 25.84437 24.61974
#
# Velocity S-wave (km/s) = 3.42278 3.59748 3.51122
# Velocity P-wave (km/s) = 5.97452 6.51471 6.25045
#
# Compressibility (1/GPa) = 0.02494543
#
# Stress axis : x y z
#
# Youngs Moduli (GPa) = 48.13987 60.35508 78.73479
#
# Poissons Ratio (x) = -0.04379 0.57226
# Poissons Ratio (y) = -0.03493 0.47286
# Poissons Ratio (z) = 0.34989 0.36248
#
# Static dielectric constant tensor:
#      x y z
#    x 1.753400 0.000000 0.000000 
#    y 0.000000 1.719510 0.000000 
#    z 0.000000 0.000000 1.718640 
# 
# From -- ./inp_files/30914.got.cif
#   From: 2010.05.17/outbox.cif.g08.bks.cpg/sg21_16_cif.got.tgz:30914.got - 2010.06.03 23:14:55.
