data_PCOD9323688
_publ_section_title
;
Structure prediction by ZEFSAII (Michael W. Deem and Ramdas Pophale) SiO2 
 PCOD9323688
Probable space group: C 2 2 2
;
_chemical_formula_sum "Si O2"
_cell_formula_units_Z 40
_cell_length_a 5.974797
_cell_length_b 25.825462
_cell_length_c 12.156414
_cell_angle_alpha 90.000000
_cell_angle_beta 90.000000
_cell_angle_gamma 90.000000
_cell_volume 1875.757691
_symmetry_space_group_name_H-M "C 2 2 2"
_symmetry_group_IT_number 21
_symmetry_cell_setting 'orthorhombic'
loop_
_space_group_symop_operation_xyz
x,y,z
-x,-y,z
x,-y,-z
-x,y,-z
1/2+x,1/2+y,z
1/2-x,1/2-y,z
1/2+x,1/2-y,-z
1/2-x,1/2+y,-z
loop_
_atom_site_type_symbol
_atom_site_label
_atom_site_fract_x
_atom_site_fract_y
_atom_site_fract_z
Si Si1 0.035156 0.561331 0.627460
Si Si2 0.745160 0.128128 0.209313
Si Si3 0.606830 0.357383 0.620322
Si Si4 0.750000 0.750000 0.442713
Si Si5 0.500000 0.370364 0.000000
Si Si6 0.626306 0.797835 0.108472
O O1 0.268758 0.589667 0.654980
O O2 0.000000 0.500000 0.632006
O O3 0.000000 0.577183 0.500000
O O4 0.862141 0.585586 0.712286
O O5 0.860564 0.104419 0.099883
O O6 0.557941 0.169358 0.172845
O O7 0.924952 0.155420 0.287560
O O8 0.500000 0.366268 0.500000
O O9 0.763441 0.306959 0.612121
O O10 0.500000 0.746234 0.500000
O O11 0.315349 0.336359 0.063423
O O12 0.750000 0.750000 0.165257
O O13 0.500000 0.775926 0.000000
#
# Coordination Sequence:
#
# PCOD9323688 Si02
#       6
#     8   8   8   4   4   8
#     4  11  24  46  74 105 140 186 252 325 384 454
#     4  11  24  43  70 102 146 187 248 308 375 457
#     4  11  23  46  69 102 147 189 243 300 385 464
#     4  10  24  44  72 102 156 204 240 298 382 476
#     4  10  22  44  64  97 140 192 233 306 366 450
#     4  10  20  40  68 100 142 190 249 305 372 444
#
# _framework density 21.324715999999999
#
# number of rings (size 3 to 8) (size 9 to 14) (size 15 to 20)
#    0.000    1.400    3.000    1.800    2.800    0.800 
#   10.800    0.000    0.000   24.600    0.000    0.000 
#    0.000    0.000    0.000    0.000    0.000    0.000 
#
# Total GULP energy -111580.738214 kJ/mol
# GULP energy per Si atom -5579.036911 kJ/mol
# Density = 2.127618 g / cm^3
# Si number density = 21.324716 Si / 1000 Ang^3
#
#
#
# Elastic Constant Matrix: (Units=GPa)
#
#
# Indices 1 2 3 4 5 6 
#
# 1 120.2566 44.5965 55.8309 0.0000 0.0000 0.0000
# 2 44.5965 98.9821 42.6682 0.0000 0.0000 0.0000
# 3 55.8309 42.6682 138.7197 0.0000 0.0000 0.0000
# 4 0.0000 0.0000 0.0000 19.1644 0.0000 0.0000
# 5 0.0000 0.0000 0.0000 0.0000 62.4134 0.0000
# 6 0.0000 0.0000 0.0000 0.0000 0.0000 19.9194
#
#
#
# Elastic Compliance Matrix: (Units=1/GPa)
#
#
# Indices 1 2 3 4 5 6 
#
# 1 0.011233 -0.003588 -0.003417 0.000000 0.000000 0.000000
# 2 -0.003588 0.012793 -0.002491 0.000000 0.000000 0.000000
# 3 -0.003417 -0.002491 0.009350 0.000000 0.000000 0.000000
# 4 0.000000 0.000000 0.000000 0.052180 0.000000 0.000000
# 5 0.000000 0.000000 0.000000 0.000000 0.016022 0.000000
# 6 0.000000 0.000000 0.000000 0.000000 0.000000 0.050202
#
#
# Mechanical properties :
#
#
# Convention : Reuss Voigt Hill
#
# Bulk Modulus (GPa) = 69.52188 71.57215 70.54702
# Shear Modulus (GPa) = 28.47908 34.62362 31.55135
#
# Velocity S-wave (km/s) = 3.65841 4.03381 3.85069
# Velocity P-wave (km/s) = 7.10757 7.43851 7.27492
#
# Compressibility (1/GPa) = 0.01438396
#
# Stress axis : x y z
#
# Youngs Moduli (GPa) = 89.02683 78.16708 106.94811
#
# Poissons Ratio (x) = 0.28045 0.36547
# Poissons Ratio (y) = 0.31941 0.26641
# Poissons Ratio (z) = 0.30423 0.19471
#
# Static dielectric constant tensor:
#      x y z
#    x 1.876950 0.000000 0.000000 
#    y 0.000000 1.725810 0.000000 
#    z 0.000000 0.000000 1.846100 
# 
# From -- ./inp_files/21234.got.cif
#   From: 2010.05.17/outbox.cif.g08.bks.cpg/sg21_11_cif.got.tgz:21234.got - 2010.06.03 23:14:55.
