data_PCOD9323886
_publ_section_title
;
Structure prediction by ZEFSAII (Michael W. Deem and Ramdas Pophale) SiO2 
 PCOD9323886
Probable space group: C 2 2 2
;
_chemical_formula_sum "Si O2"
_cell_formula_units_Z 30
_cell_length_a 11.136382
_cell_length_b 12.506514
_cell_length_c 9.152114
_cell_angle_alpha 90.000000
_cell_angle_beta 90.000000
_cell_angle_gamma 90.000000
_cell_volume 1274.681886
_symmetry_space_group_name_H-M "C 2 2 2"
_symmetry_group_IT_number 21
_symmetry_cell_setting 'orthorhombic'
loop_
_space_group_symop_operation_xyz
x,y,z
-x,-y,z
x,-y,-z
-x,y,-z
1/2+x,1/2+y,z
1/2-x,1/2-y,z
1/2+x,1/2-y,-z
1/2-x,1/2+y,-z
loop_
_atom_site_type_symbol
_atom_site_label
_atom_site_fract_x
_atom_site_fract_y
_atom_site_fract_z
Si Si1 0.500000 0.000000 0.000000
Si Si2 0.871758 0.201870 0.249593
Si Si3 0.000000 0.000000 0.241902
Si Si4 0.796139 0.889621 0.437632
Si Si5 0.937596 0.390712 0.729381
O O1 0.583146 0.071031 0.895648
O O2 0.750000 0.250000 0.183972
O O3 0.841553 0.169510 0.417852
O O4 0.967198 0.296169 0.261517
O O5 0.920222 0.094194 0.171418
O O6 0.907581 0.928642 0.338925
O O7 0.681721 0.848652 0.348010
O O8 0.743990 0.000000 0.500000
O O9 0.000000 0.500000 0.667978
#
# Coordination Sequence:
#
# PCOD9323886 Si02
#       5
#     2   8   4   8   8
#     4   8  24  48  70  96 136 200 276 286 316 460
#     4  11  23  36  65 100 144 182 223 309 384 443
#     4  10  23  40  56  99 148 179 220 282 383 466
#     4  10  21  36  63 101 137 178 217 306 385 431
#     4  10  22  43  70  98 132 196 254 292 355 443
#
# _framework density 23.535284000000001
#
# number of rings (size 3 to 8) (size 9 to 14) (size 15 to 20)
#    0.800    1.067    0.000    6.800    7.467    2.667 
#    0.000    0.000    5.867    1.600    0.000    0.000 
#    0.000    0.000    0.000    0.000    0.000    0.000 
#
# Total GULP energy -83677.853763 kJ/mol
# GULP energy per Si atom -5578.523584 kJ/mol
# Density = 2.348172 g / cm^3
# Si number density = 23.535284 Si / 1000 Ang^3
#
#
#
# Elastic Constant Matrix: (Units=GPa)
#
#
# Indices 1 2 3 4 5 6 
#
# 1 146.6409 59.5674 9.7063 0.0000 0.0000 0.0000
# 2 59.5674 166.3003 7.2125 0.0000 0.0000 0.0000
# 3 9.7063 7.2125 49.5306 0.0000 0.0000 0.0000
# 4 0.0000 0.0000 0.0000 25.0059 0.0000 0.0000
# 5 0.0000 0.0000 0.0000 0.0000 7.9201 0.0000
# 6 0.0000 0.0000 0.0000 0.0000 0.0000 49.9856
#
#
#
# Elastic Compliance Matrix: (Units=1/GPa)
#
#
# Indices 1 2 3 4 5 6 
#
# 1 0.008047 -0.002832 -0.001165 0.000000 0.000000 0.000000
# 2 -0.002832 0.007048 -0.000471 0.000000 0.000000 0.000000
# 3 -0.001165 -0.000471 0.020486 0.000000 0.000000 0.000000
# 4 0.000000 0.000000 0.000000 0.039991 0.000000 0.000000
# 5 0.000000 0.000000 0.000000 0.000000 0.126261 0.000000
# 6 0.000000 0.000000 0.000000 0.000000 0.000000 0.020006
#
#
# Mechanical properties :
#
#
# Convention : Reuss Voigt Hill
#
# Bulk Modulus (GPa) = 37.52941 57.27157 47.40049
# Shear Modulus (GPa) = 20.86328 35.64802 28.25565
#
# Velocity S-wave (km/s) = 2.98059 3.89609 3.46868
# Velocity P-wave (km/s) = 5.27502 6.68031 6.01882
#
# Compressibility (1/GPa) = 0.02664577
#
# Stress axis : x y z
#
# Youngs Moduli (GPa) = 124.27353 141.88458 48.81286
#
# Poissons Ratio (x) = 0.40179 0.05684
# Poissons Ratio (y) = 0.35192 0.02301
# Poissons Ratio (z) = 0.14472 0.06688
#
# Static dielectric constant tensor:
#      x y z
#    x 2.015010 0.000000 0.000000 
#    y 0.000000 1.960770 0.000000 
#    z 0.000000 0.000000 1.936150 
# 
# From -- ./inp_files/23667.got.cif
#   From: 2010.05.17/outbox.cif.g08.bks.cpg/sg21_12_cif.got.tgz:23667.got - 2010.06.03 23:14:55.
