data_PCOD9323138
_publ_section_title
;
Structure prediction by ZEFSAII (Michael W. Deem and Ramdas Pophale) SiO2 
 PCOD9323138
Probable space group: C 2 2 2
;
_chemical_formula_sum "Si O2"
_cell_formula_units_Z 64
_cell_length_a 14.380743
_cell_length_b 15.410839
_cell_length_c 15.452341
_cell_angle_alpha 90.000000
_cell_angle_beta 90.000000
_cell_angle_gamma 90.000000
_cell_volume 3424.537229
_symmetry_space_group_name_H-M "C 2 2 2"
_symmetry_group_IT_number 21
_symmetry_cell_setting 'orthorhombic'
loop_
_space_group_symop_operation_xyz
x,y,z
-x,-y,z
x,-y,-z
-x,y,-z
1/2+x,1/2+y,z
1/2-x,1/2-y,z
1/2+x,1/2-y,-z
1/2-x,1/2+y,-z
loop_
_atom_site_type_symbol
_atom_site_label
_atom_site_fract_x
_atom_site_fract_y
_atom_site_fract_z
Si Si1 0.205627 0.115949 0.657769
Si Si2 0.946503 0.652734 0.373310
Si Si3 0.273253 0.854527 0.526949
Si Si4 0.011294 0.157584 0.598063
Si Si5 0.485468 0.895766 0.903723
Si Si6 0.112349 0.596901 0.257879
Si Si7 0.327492 0.103436 0.219124
Si Si8 0.653367 0.576940 0.311845
O O1 0.251873 0.103019 0.564357
O O2 0.290747 0.143755 0.718887
O O3 0.115419 0.170704 0.632995
O O4 0.163421 0.026060 0.691496
O O5 0.877710 0.618330 0.446611
O O6 0.971041 0.747027 0.406169
O O7 0.877439 0.662099 0.291016
O O8 0.037257 0.605625 0.335416
O O9 0.250000 0.750000 0.521442
O O10 0.206826 0.890426 0.602000
O O11 0.950918 0.106005 0.668972
O O12 0.000000 0.119319 0.500000
O O13 0.558722 0.869852 0.828100
O O14 0.380931 0.878784 0.869712
O O15 0.500000 0.000000 0.907944
O O16 0.500000 0.860451 0.000000
O O17 0.140858 0.495611 0.244705
O O18 0.217123 0.111430 0.232477
#
# Coordination Sequence:
#
# PCOD9323138 Si02
#       8
#     8   8   8   8   8   8   8   8
#     4  11  23  33  49  66  96 133 167 213 253 283
#     4  10  20  32  50  66  96 129 158 211 253 285
#     4  11  20  33  48  67  92 126 171 214 244 286
#     4  12  23  34  49  66  90 132 189 222 234 276
#     4   8  13  27  52  79 104 125 148 190 248 310
#     4   9  19  32  49  75 103 124 157 198 247 318
#     4   8  17  33  51  74 102 124 155 199 248 312
#     4  10  20  36  49  67  94 129 172 216 246 278
#
# _framework density 18.688656000000002
#
# number of rings (size 3 to 8) (size 9 to 14) (size 15 to 20)
#    0.000    2.125    2.500    1.875    3.500    0.500 
#    0.000    0.000    2.750    0.000    0.000   14.875 
#    0.000    6.000    0.000    0.000    0.000    0.000 
#
# Total GULP energy -178208.513857 kJ/mol
# GULP energy per Si atom -5569.016058 kJ/mol
# Density = 1.864612 g / cm^3
# Si number density = 18.688656 Si / 1000 Ang^3
#
#
#
# Elastic Constant Matrix: (Units=GPa)
#
#
# Indices 1 2 3 4 5 6 
#
# 1 123.8665 3.1463 45.6952 0.0000 0.0000 0.0000
# 2 3.1463 11.5943 -2.8553 0.0000 0.0000 0.0000
# 3 45.6952 -2.8553 84.3762 0.0000 0.0000 0.0000
# 4 0.0000 0.0000 0.0000 4.7121 0.0000 0.0000
# 5 0.0000 0.0000 0.0000 0.0000 20.1749 0.0000
# 6 0.0000 0.0000 0.0000 0.0000 0.0000 23.2580
#
#
#
# Elastic Compliance Matrix: (Units=1/GPa)
#
#
# Indices 1 2 3 4 5 6 
#
# 1 0.010288 -0.004199 -0.005713 0.000000 0.000000 0.000000
# 2 -0.004199 0.088688 0.005275 0.000000 0.000000 0.000000
# 3 -0.005713 0.005275 0.015124 0.000000 0.000000 0.000000
# 4 0.000000 0.000000 0.000000 0.212221 0.000000 0.000000
# 5 0.000000 0.000000 0.000000 0.000000 0.049566 0.000000
# 6 0.000000 0.000000 0.000000 0.000000 0.000000 0.042996
#
#
# Mechanical properties :
#
#
# Convention : Reuss Voigt Hill
#
# Bulk Modulus (GPa) = 9.53969 34.64550 22.09260
# Shear Modulus (GPa) = 10.79683 21.21906 16.00794
#
# Velocity S-wave (km/s) = 2.40619 3.37322 2.92988
# Velocity P-wave (km/s) = 3.58264 5.80948 4.82625
#
# Compressibility (1/GPa) = 0.10482524
#
# Stress axis : x y z
#
# Youngs Moduli (GPa) = 97.20436 11.27554 66.11826
#
# Poissons Ratio (x) = 0.04734 0.37777
# Poissons Ratio (y) = 0.40813 -0.34878
# Poissons Ratio (z) = 0.55538 -0.05948
#
# Static dielectric constant tensor:
#      x y z
#    x 1.734510 0.000000 0.000000 
#    y 0.000000 1.690690 0.000000 
#    z 0.000000 0.000000 1.644220 
# 
# From -- ./inp_files/32461.got.cif
#   From: 2010.05.17/outbox.cif.g08.bks.cpg/sg21_17_cif.got.tgz:32461.got - 2010.06.03 23:14:55.
