data_PCOD9323996
_publ_section_title
;
Structure prediction by ZEFSAII (Michael W. Deem and Ramdas Pophale) SiO2 
 PCOD9323996
Probable space group: C 2 2 2
;
_chemical_formula_sum "Si O2"
_cell_formula_units_Z 32
_cell_length_a 9.805947
_cell_length_b 12.790831
_cell_length_c 12.977580
_cell_angle_alpha 90.000000
_cell_angle_beta 90.000000
_cell_angle_gamma 90.000000
_cell_volume 1627.728686
_symmetry_space_group_name_H-M "C 2 2 2"
_symmetry_group_IT_number 21
_symmetry_cell_setting 'orthorhombic'
loop_
_space_group_symop_operation_xyz
x,y,z
-x,-y,z
x,-y,-z
-x,y,-z
1/2+x,1/2+y,z
1/2-x,1/2-y,z
1/2+x,1/2-y,-z
1/2-x,1/2+y,-z
loop_
_atom_site_type_symbol
_atom_site_label
_atom_site_fract_x
_atom_site_fract_y
_atom_site_fract_z
Si Si1 0.405942 0.650152 0.635053
Si Si2 0.750000 0.750000 0.188561
Si Si3 0.750000 0.750000 0.545022
Si Si4 0.290576 0.434896 0.677896
Si Si5 0.338553 0.976118 0.881857
O O1 0.370148 0.717147 0.734645
O O2 0.367152 0.712872 0.533275
O O3 0.302341 0.550861 0.630773
O O4 0.556648 0.608594 0.657927
O O5 0.700756 0.854145 0.131756
O O6 0.794835 0.652921 0.617461
O O7 0.242592 0.456461 0.795001
O O8 0.500000 0.000000 0.867112
O O9 0.303231 0.000000 0.000000
#
# Coordination Sequence:
#
# PCOD9323996 Si02
#       5
#     8   4   4   8   8
#     4   9  20  40  59  88 130 169 222 264 326 412
#     4   9  20  41  66  86 130 177 208 283 342 384
#     4  11  20  31  62  94 126 171 208 269 334 392
#     4  10  21  38  62  90 125 172 221 272 329 409
#     4  10  23  44  65  97 134 171 227 292 342 405
#
# _framework density 19.659295
#
# number of rings (size 3 to 8) (size 9 to 14) (size 15 to 20)
#    0.000    2.250    0.000    1.500    3.500    3.000 
#    9.000    8.750    0.000    0.000    0.000    0.000 
#    0.000    0.000    0.000    0.000    0.000    0.000 
#
# Total GULP energy -89096.938945 kJ/mol
# GULP energy per Si atom -5568.558684 kJ/mol
# Density = 1.961455 g / cm^3
# Si number density = 19.659295 Si / 1000 Ang^3
#
#
#
# Elastic Constant Matrix: (Units=GPa)
#
#
# Indices 1 2 3 4 5 6 
#
# 1 64.4197 40.5235 60.4183 0.0000 0.0000 0.0000
# 2 40.5235 145.9517 115.5045 0.0000 0.0000 0.0000
# 3 60.4183 115.5045 175.9478 0.0000 0.0000 0.0000
# 4 0.0000 0.0000 0.0000 33.0643 0.0000 0.0000
# 5 0.0000 0.0000 0.0000 0.0000 17.2090 0.0000
# 6 0.0000 0.0000 0.0000 0.0000 0.0000 25.4796
#
#
#
# Elastic Compliance Matrix: (Units=1/GPa)
#
#
# Indices 1 2 3 4 5 6 
#
# 1 0.022903 -0.000281 -0.007680 0.000000 0.000000 0.000000
# 2 -0.000281 0.014263 -0.009267 0.000000 0.000000 0.000000
# 3 -0.007680 -0.009267 0.014404 0.000000 0.000000 0.000000
# 4 0.000000 0.000000 0.000000 0.030244 0.000000 0.000000
# 5 0.000000 0.000000 0.000000 0.000000 0.058109 0.000000
# 6 0.000000 0.000000 0.000000 0.000000 0.000000 0.039247
#
#
# Mechanical properties :
#
#
# Convention : Reuss Voigt Hill
#
# Bulk Modulus (GPa) = 58.43033 91.02353 74.72693
# Shear Modulus (GPa) = 22.79647 26.47544 24.63596
#
# Velocity S-wave (km/s) = 3.40895 3.67374 3.54382
# Velocity P-wave (km/s) = 6.72909 8.02472 7.40529
#
# Compressibility (1/GPa) = 0.01711440
#
# Stress axis : x y z
#
# Youngs Moduli (GPa) = 43.66221 70.10952 69.42398
#
# Poissons Ratio (x) = 0.01971 0.53318
# Poissons Ratio (y) = 0.01227 0.64335
# Poissons Ratio (z) = 0.33533 0.64970
#
# Static dielectric constant tensor:
#      x y z
#    x 1.774110 0.000000 0.000000 
#    y 0.000000 1.754160 0.000000 
#    z 0.000000 0.000000 1.684130 
# 
# From -- ./inp_files/23477.got.cif
#   From: 2010.05.17/outbox.cif.g08.bks.cpg/sg21_12_cif.got.tgz:23477.got - 2010.06.03 23:14:55.
