data_PCOD9323906
_publ_section_title
;
Structure prediction by ZEFSAII (Michael W. Deem and Ramdas Pophale) SiO2 
 PCOD9323906
Probable space group: C 2 2 2
;
_chemical_formula_sum "Si O2"
_cell_formula_units_Z 32
_cell_length_a 13.419981
_cell_length_b 8.839569
_cell_length_c 11.363349
_cell_angle_alpha 90.000000
_cell_angle_beta 90.000000
_cell_angle_gamma 90.000000
_cell_volume 1347.998275
_symmetry_space_group_name_H-M "C 2 2 2"
_symmetry_group_IT_number 21
_symmetry_cell_setting 'orthorhombic'
loop_
_space_group_symop_operation_xyz
x,y,z
-x,-y,z
x,-y,-z
-x,y,-z
1/2+x,1/2+y,z
1/2-x,1/2-y,z
1/2+x,1/2-y,-z
1/2-x,1/2+y,-z
loop_
_atom_site_type_symbol
_atom_site_label
_atom_site_fract_x
_atom_site_fract_y
_atom_site_fract_z
Si Si1 0.653536 0.082399 0.804619
Si Si2 0.750000 0.250000 0.017902
Si Si3 0.000000 0.000000 0.000000
Si Si4 0.546211 0.802582 0.708594
Si Si5 0.500000 0.000000 0.500000
Si Si6 0.358946 0.518341 0.192979
O O1 0.679236 0.151625 0.931531
O O2 0.571375 0.180406 0.735585
O O3 0.603260 0.915097 0.799727
O O4 0.765221 0.067321 0.751572
O O5 0.691784 0.364232 0.101712
O O6 0.928462 0.073066 0.900269
O O7 0.583467 0.631443 0.719584
O O8 0.561741 0.887933 0.584727
#
# Coordination Sequence:
#
# PCOD9323906 Si02
#       6
#     8   4   2   8   2   8
#     4  10  21  37  58  89 128 164 212 254 313 401
#     4  12  20  36  54  88 136 162 200 250 312 408
#     4  12  24  36  52  90 144 180 192 248 342 384
#     4  10  22  41  68  87 118 170 221 275 331 365
#     4   8  20  44  68  88 116 162 228 288 322 378
#     4  12  22  37  57  92 131 170 209 260 314 404
#
# _framework density 23.738903000000001
#
# number of rings (size 3 to 8) (size 9 to 14) (size 15 to 20)
#    0.000    1.500    5.000    1.500    0.000    0.000 
#    4.500    0.000   44.000    0.750    0.000    0.000 
#    0.000    0.000    0.000    0.000    0.000    0.000 
#
# Total GULP energy -89103.593750 kJ/mol
# GULP energy per Si atom -5568.974609 kJ/mol
# Density = 2.368487 g / cm^3
# Si number density = 23.738903 Si / 1000 Ang^3
#
#
#
# Elastic Constant Matrix: (Units=GPa)
#
#
# Indices 1 2 3 4 5 6 
#
# 1 150.2509 42.6949 27.2191 0.0000 0.0000 0.0000
# 2 42.6949 101.3017 34.5994 0.0000 0.0000 0.0000
# 3 27.2191 34.5994 88.1501 0.0000 0.0000 0.0000
# 4 0.0000 0.0000 0.0000 41.9313 0.0000 0.0000
# 5 0.0000 0.0000 0.0000 0.0000 12.2228 0.0000
# 6 0.0000 0.0000 0.0000 0.0000 0.0000 58.0045
#
#
#
# Elastic Compliance Matrix: (Units=1/GPa)
#
#
# Indices 1 2 3 4 5 6 
#
# 1 0.007683 -0.002804 -0.001272 0.000000 0.000000 0.000000
# 2 -0.002804 0.012423 -0.004010 0.000000 0.000000 0.000000
# 3 -0.001272 -0.004010 0.013311 0.000000 0.000000 0.000000
# 4 0.000000 0.000000 0.000000 0.023849 0.000000 0.000000
# 5 0.000000 0.000000 0.000000 0.000000 0.081814 0.000000
# 6 0.000000 0.000000 0.000000 0.000000 0.000000 0.017240
#
#
# Mechanical properties :
#
#
# Convention : Reuss Voigt Hill
#
# Bulk Modulus (GPa) = 57.98761 60.96993 59.47877
# Shear Modulus (GPa) = 28.05224 38.11103 33.08164
#
# Velocity S-wave (km/s) = 3.44131 4.01112 3.73709
# Velocity P-wave (km/s) = 6.34590 6.86960 6.61294
#
# Compressibility (1/GPa) = 0.01724506
#
# Stress axis : x y z
#
# Youngs Moduli (GPa) = 130.16463 80.49713 75.12538
#
# Poissons Ratio (x) = 0.22568 0.09555
# Poissons Ratio (y) = 0.36492 0.30128
# Poissons Ratio (z) = 0.16555 0.32282
#
# Static dielectric constant tensor:
#      x y z
#    x 2.111940 0.000000 0.000000 
#    y 0.000000 2.055890 0.000000 
#    z 0.000000 0.000000 1.871530 
# 
# From -- ./inp_files/23499.got.cif
#   From: 2010.05.17/outbox.cif.g08.bks.cpg/sg21_12_cif.got.tgz:23499.got - 2010.06.03 23:14:55.
