data_PCOD9323773
_publ_section_title
;
Structure prediction by ZEFSAII (Michael W. Deem and Ramdas Pophale) SiO2 
 PCOD9323773
Probable space group: C 2 2 2
;
_chemical_formula_sum "Si O2"
_cell_formula_units_Z 26
_cell_length_a 5.981583
_cell_length_b 14.064010
_cell_length_c 14.482398
_cell_angle_alpha 90.000000
_cell_angle_beta 90.000000
_cell_angle_gamma 90.000000
_cell_volume 1218.332356
_symmetry_space_group_name_H-M "C 2 2 2"
_symmetry_group_IT_number 21
_symmetry_cell_setting 'orthorhombic'
loop_
_space_group_symop_operation_xyz
x,y,z
-x,-y,z
x,-y,-z
-x,y,-z
1/2+x,1/2+y,z
1/2-x,1/2-y,z
1/2+x,1/2-y,-z
1/2-x,1/2+y,-z
loop_
_atom_site_type_symbol
_atom_site_label
_atom_site_fract_x
_atom_site_fract_y
_atom_site_fract_z
Si Si1 0.636062 0.350456 0.134814
Si Si2 0.500000 0.500000 0.000000
Si Si3 0.424238 0.891597 0.304141
Si Si4 0.250000 0.250000 0.198431
Si Si5 0.000000 0.301693 0.500000
O O1 0.750000 0.250000 0.110222
O O2 0.706241 0.378220 0.239511
O O3 0.376834 0.325243 0.136271
O O4 0.658382 0.435683 0.064654
O O5 0.586774 0.813009 0.259728
O O6 0.426103 0.863505 0.411301
O O7 0.500000 0.000000 0.293872
O O8 0.250000 0.250000 0.479153
#
# Coordination Sequence:
#
# PCOD9323773 Si02
#       5
#     8   2   8   4   4
#     4  10  24  43  68 100 141 190 245 317 385 445
#     4  12  24  44  70 106 138 198 264 304 394 464
#     4  11  23  43  68 105 141 193 248 310 385 457
#     4  10  20  44  66  92 142 182 240 314 374 446
#     4  12  25  46  75 112 154 206 256 315 389 472
#
# _framework density 21.340646
#
# number of rings (size 3 to 8) (size 9 to 14) (size 15 to 20)
#    0.000    1.231    1.538    5.077    2.154    0.000 
#    0.000    7.692    0.000    0.000    0.000    0.000 
#    0.000    0.000    0.000    0.000    0.000    0.000 
#
# Total GULP energy -72385.065551 kJ/mol
# GULP energy per Si atom -5568.081965 kJ/mol
# Density = 2.129207 g / cm^3
# Si number density = 21.340646 Si / 1000 Ang^3
#
#
#
# Elastic Constant Matrix: (Units=GPa)
#
#
# Indices 1 2 3 4 5 6 
#
# 1 57.7100 21.3530 31.6747 0.0000 0.0000 0.0000
# 2 21.3530 136.5089 60.0770 0.0000 0.0000 0.0000
# 3 31.6747 60.0770 122.7391 0.0000 0.0000 0.0000
# 4 0.0000 0.0000 0.0000 55.8734 0.0000 0.0000
# 5 0.0000 0.0000 0.0000 0.0000 12.3328 0.0000
# 6 0.0000 0.0000 0.0000 0.0000 0.0000 14.1336
#
#
#
# Elastic Compliance Matrix: (Units=1/GPa)
#
#
# Indices 1 2 3 4 5 6 
#
# 1 0.020318 -0.001110 -0.004700 0.000000 0.000000 0.000000
# 2 -0.001110 0.009397 -0.004313 0.000000 0.000000 0.000000
# 3 -0.004700 -0.004313 0.011472 0.000000 0.000000 0.000000
# 4 0.000000 0.000000 0.000000 0.017898 0.000000 0.000000
# 5 0.000000 0.000000 0.000000 0.000000 0.081084 0.000000
# 6 0.000000 0.000000 0.000000 0.000000 0.000000 0.070753
#
#
# Mechanical properties :
#
#
# Convention : Reuss Voigt Hill
#
# Bulk Modulus (GPa) = 47.75389 60.35194 54.05291
# Shear Modulus (GPa) = 20.99521 30.05819 25.52670
#
# Velocity S-wave (km/s) = 3.13998 3.75706 3.46230
# Velocity P-wave (km/s) = 5.96419 6.86749 6.43171
#
# Compressibility (1/GPa) = 0.02094070
#
# Stress axis : x y z
#
# Youngs Moduli (GPa) = 49.21646 106.41240 87.17167
#
# Poissons Ratio (x) = 0.11808 0.40974
# Poissons Ratio (y) = 0.05461 0.37600
# Poissons Ratio (z) = 0.23133 0.45900
#
# Static dielectric constant tensor:
#      x y z
#    x 1.870920 0.000000 0.000000 
#    y 0.000000 1.770710 0.000000 
#    z 0.000000 0.000000 1.797720 
# 
# From -- ./inp_files/28480.got.cif
#   From: 2010.05.17/outbox.cif.g08.bks.cpg/sg21_15_cif.got.tgz:28480.got - 2010.06.03 23:14:55.
