data_PCOD9323801
_publ_section_title
;
Structure prediction by ZEFSAII (Michael W. Deem and Ramdas Pophale) SiO2 
 PCOD9323801
Probable space group: C 2 2 2
;
_chemical_formula_sum "Si O2"
_cell_formula_units_Z 40
_cell_length_a 8.085495
_cell_length_b 18.588772
_cell_length_c 12.499840
_cell_angle_alpha 90.000000
_cell_angle_beta 90.000000
_cell_angle_gamma 90.000000
_cell_volume 1878.718740
_symmetry_space_group_name_H-M "C 2 2 2"
_symmetry_group_IT_number 21
_symmetry_cell_setting 'orthorhombic'
loop_
_space_group_symop_operation_xyz
x,y,z
-x,-y,z
x,-y,-z
-x,y,-z
1/2+x,1/2+y,z
1/2-x,1/2-y,z
1/2+x,1/2-y,-z
1/2-x,1/2+y,-z
loop_
_atom_site_type_symbol
_atom_site_label
_atom_site_fract_x
_atom_site_fract_y
_atom_site_fract_z
Si Si1 0.078944 0.159737 0.889758
Si Si2 0.390382 0.192698 0.597953
Si Si3 0.552783 0.173336 0.158152
Si Si4 0.687395 0.584105 0.473656
Si Si5 0.735878 0.661662 0.247188
O O1 0.270229 0.137637 0.868984
O O2 0.070425 0.247371 0.890932
O O3 0.949338 0.143730 0.795394
O O4 0.000000 0.132879 0.000000
O O5 0.500000 0.220341 0.500000
O O6 0.250000 0.250000 0.617231
O O7 0.462705 0.179522 0.713397
O O8 0.311228 0.120291 0.556103
O O9 0.364822 0.143945 0.147997
O O10 0.694559 0.500000 0.500000
O O11 0.500000 0.607517 0.500000
O O12 0.741465 0.615495 0.357551
O O13 0.750000 0.750000 0.263432
#
# Coordination Sequence:
#
# PCOD9323801 Si02
#       5
#     8   8   8   8   8
#     4  10  21  34  55  85 128 154 200 271 319 363
#     4  12  22  36  59  85 122 162 203 254 318 388
#     4  10  21  34  51  89 115 160 204 246 314 379
#     4  11  24  38  58  87 124 169 213 258 315 380
#     4  10  21  38  58  85 124 166 208 259 313 380
#
# _framework density 21.291108999999999
#
# number of rings (size 3 to 8) (size 9 to 14) (size 15 to 20)
#    0.000    1.400    4.000    2.400   14.000    0.400 
#    0.000    0.000    0.000    0.000    0.000   11.200 
#    6.000    0.000    0.000    0.000    0.000    0.000 
#
# Total GULP energy -111350.451379 kJ/mol
# GULP energy per Si atom -5567.522569 kJ/mol
# Density = 2.124265 g / cm^3
# Si number density = 21.291109 Si / 1000 Ang^3
#
#
#
# Elastic Constant Matrix: (Units=GPa)
#
#
# Indices 1 2 3 4 5 6 
#
# 1 123.6655 19.7721 13.2551 0.0000 0.0000 0.0000
# 2 19.7721 52.8429 17.3214 0.0000 0.0000 0.0000
# 3 13.2551 17.3214 87.5628 0.0000 0.0000 0.0000
# 4 0.0000 0.0000 0.0000 30.6912 0.0000 0.0000
# 5 0.0000 0.0000 0.0000 0.0000 20.2930 0.0000
# 6 0.0000 0.0000 0.0000 0.0000 0.0000 28.2583
#
#
#
# Elastic Compliance Matrix: (Units=1/GPa)
#
#
# Indices 1 2 3 4 5 6 
#
# 1 0.008643 -0.002999 -0.000715 0.000000 0.000000 0.000000
# 2 -0.002999 0.021277 -0.003755 0.000000 0.000000 0.000000
# 3 -0.000715 -0.003755 0.012271 0.000000 0.000000 0.000000
# 4 0.000000 0.000000 0.000000 0.032583 0.000000 0.000000
# 5 0.000000 0.000000 0.000000 0.000000 0.049278 0.000000
# 6 0.000000 0.000000 0.000000 0.000000 0.000000 0.035388
#
#
# Mechanical properties :
#
#
# Convention : Reuss Voigt Hill
#
# Bulk Modulus (GPa) = 36.69393 40.52983 38.61188
# Shear Modulus (GPa) = 27.25356 30.09667 28.67511
#
# Velocity S-wave (km/s) = 3.58165 3.76384 3.67387
# Velocity P-wave (km/s) = 5.86311 6.16166 6.01424
#
# Compressibility (1/GPa) = 0.02725247
#
# Stress axis : x y z
#
# Youngs Moduli (GPa) = 115.70702 46.99880 81.49033
#
# Poissons Ratio (x) = 0.14097 0.05826
# Poissons Ratio (y) = 0.34705 0.30599
# Poissons Ratio (z) = 0.08273 0.17648
#
# Static dielectric constant tensor:
#      x y z
#    x 2.552620 0.000000 0.000000 
#    y 0.000000 1.733750 0.000000 
#    z 0.000000 0.000000 1.779840 
# 
# From -- ./inp_files/22564.got.cif
#   From: 2010.05.17/outbox.cif.g08.bks.cpg/sg21_12_cif.got.tgz:22564.got - 2010.06.03 23:14:55.
