data_PCOD9323142
_publ_section_title
;
Structure prediction by ZEFSAII (Michael W. Deem and Ramdas Pophale) SiO2 
 PCOD9323142
Probable space group: C 2 2 2
;
_chemical_formula_sum "Si O2"
_cell_formula_units_Z 48
_cell_length_a 26.426107
_cell_length_b 16.027804
_cell_length_c 5.284029
_cell_angle_alpha 90.000000
_cell_angle_beta 90.000000
_cell_angle_gamma 90.000000
_cell_volume 2238.063500
_symmetry_space_group_name_H-M "C 2 2 2"
_symmetry_group_IT_number 21
_symmetry_cell_setting 'orthorhombic'
loop_
_space_group_symop_operation_xyz
x,y,z
-x,-y,z
x,-y,-z
-x,y,-z
1/2+x,1/2+y,z
1/2-x,1/2-y,z
1/2+x,1/2-y,-z
1/2-x,1/2+y,-z
loop_
_atom_site_type_symbol
_atom_site_label
_atom_site_fract_x
_atom_site_fract_y
_atom_site_fract_z
Si Si1 0.583058 0.094069 0.598852
Si Si2 0.313228 0.802157 0.628017
Si Si3 0.248672 0.953539 0.748609
Si Si4 0.052050 0.319051 0.900584
Si Si5 0.844341 0.216929 0.129810
Si Si6 0.363415 0.525817 0.247014
O O1 0.638488 0.135856 0.613004
O O2 0.551824 0.141388 0.378531
O O3 0.585925 0.000000 0.500000
O O4 0.562106 0.110773 0.881366
O O5 0.266886 0.859664 0.715654
O O6 0.311941 0.762969 0.348509
O O7 0.323571 0.735976 0.850643
O O8 0.268244 0.000000 0.500000
O O9 0.188195 0.969386 0.750589
O O10 0.268343 0.000000 0.000000
O O11 0.099254 0.255870 0.885542
O O12 0.000000 0.279083 0.000000
O O13 0.847513 0.121417 0.217429
O O14 0.390988 0.500000 0.500000
O O15 0.393361 0.500000 0.000000
#
# Coordination Sequence:
#
# PCOD9323142 Si02
#       6
#     8   8   8   8   8   8
#     4  10  20  32  51  78 112 149 182 221 269 329
#     4  10  20  35  55  79 109 146 187 225 272 327
#     4  10  20  35  53  77 109 146 185 230 275 320
#     4  10  21  35  53  80 109 143 184 227 277 328
#     4  10  21  38  58  80 108 145 184 227 279 338
#     4  10  21  39  58  81 109 142 183 230 286 334
#
# _framework density 21.447115
#
# number of rings (size 3 to 8) (size 9 to 14) (size 15 to 20)
#    0.000    2.000    0.000    3.500    0.000    4.667 
#    0.000   20.000    0.000    0.500    0.000    1.167 
#    0.000    0.000    0.000    0.000    0.000    0.000 
#
# Total GULP energy -133972.819546 kJ/mol
# GULP energy per Si atom -5582.200814 kJ/mol
# Density = 2.139830 g / cm^3
# Si number density = 21.447115 Si / 1000 Ang^3
#
#
#
# Elastic Constant Matrix: (Units=GPa)
#
#
# Indices 1 2 3 4 5 6 
#
# 1 86.7922 31.9813 32.2153 0.0000 0.0000 0.0000
# 2 31.9813 97.3907 35.9119 0.0000 0.0000 0.0000
# 3 32.2153 35.9119 174.2692 0.0000 0.0000 0.0000
# 4 0.0000 0.0000 0.0000 35.8097 0.0000 0.0000
# 5 0.0000 0.0000 0.0000 0.0000 55.0675 0.0000
# 6 0.0000 0.0000 0.0000 0.0000 0.0000 -2.2030
#
#
#
# Elastic Compliance Matrix: (Units=1/GPa)
#
#
# Indices 1 2 3 4 5 6 
#
# 1 0.013569 -0.003821 -0.001721 0.000000 0.000000 0.000000
# 2 -0.003821 0.012188 -0.001805 0.000000 0.000000 0.000000
# 3 -0.001721 -0.001805 0.006428 0.000000 0.000000 0.000000
# 4 0.000000 0.000000 0.000000 0.027925 0.000000 0.000000
# 5 0.000000 0.000000 0.000000 0.000000 0.018160 0.000000
# 6 0.000000 0.000000 0.000000 0.000000 0.000000 -0.453935
#
#
# Mechanical properties :
#
#
# Convention : Reuss Voigt Hill
#
# Bulk Modulus (GPa) = 57.17301 62.07435 59.62368
# Shear Modulus (GPa) = -14.07895 34.95775 10.43940
#
# Velocity S-wave (km/s) = -2.56491 4.04165 2.20864
# Velocity P-wave (km/s) = 4.23602 7.12641 5.86215
#
# Compressibility (1/GPa) = 0.01749077
#
# Stress axis : x y z
#
# Youngs Moduli (GPa) = 73.69998 82.04529 155.55999
#
# Poissons Ratio (x) = 0.31350 0.26770
# Poissons Ratio (y) = 0.28161 0.28083
# Poissons Ratio (z) = 0.12683 0.14812
#
# Static dielectric constant tensor:
#      x y z
#    x 1.798420 0.000000 0.000000 
#    y 0.000000 1.739390 0.000000 
#    z 0.000000 0.000000 1.922170 
# 
# From -- ./inp_files/7319.got.cif
#   From: 2010.05.17/outbox.cif.g08.bks.cpg/sg21_4_cif.got.tgz:7319.got - 2010.06.03 23:14:55.
