data_PCOD9323444
_publ_section_title
;
Structure prediction by ZEFSAII (Michael W. Deem and Ramdas Pophale) SiO2 
 PCOD9323444
Probable space group: C 2 2 2
;
_chemical_formula_sum "Si O2"
_cell_formula_units_Z 54
_cell_length_a 25.315105
_cell_length_b 6.867928
_cell_length_c 15.909045
_cell_angle_alpha 90.000000
_cell_angle_beta 90.000000
_cell_angle_gamma 90.000000
_cell_volume 2765.983448
_symmetry_space_group_name_H-M "C 2 2 2"
_symmetry_group_IT_number 21
_symmetry_cell_setting 'orthorhombic'
loop_
_space_group_symop_operation_xyz
x,y,z
-x,-y,z
x,-y,-z
-x,y,-z
1/2+x,1/2+y,z
1/2-x,1/2-y,z
1/2+x,1/2-y,-z
1/2-x,1/2+y,-z
loop_
_atom_site_type_symbol
_atom_site_label
_atom_site_fract_x
_atom_site_fract_y
_atom_site_fract_z
Si Si1 0.148144 0.745742 0.147476
Si Si2 0.000000 0.500000 0.000000
Si Si3 0.405322 0.835850 0.895086
Si Si4 0.653768 0.500000 0.000000
Si Si5 0.061664 0.973815 0.771920
Si Si6 0.307907 0.159968 0.426841
Si Si7 0.190918 0.694687 0.329198
Si Si8 0.390617 0.492935 0.591082
O O1 0.129062 0.532867 0.115766
O O2 0.095257 0.862402 0.177633
O O3 0.182108 0.739346 0.231943
O O4 0.177799 0.874513 0.076609
O O5 0.960556 0.617818 0.059773
O O6 0.378252 0.671350 0.952798
O O7 0.417369 0.732245 0.806760
O O8 0.072949 0.985981 0.672581
O O9 0.000000 0.000000 0.789326
O O10 0.250000 0.250000 0.435379
O O11 0.349929 0.329809 0.420940
O O12 0.315698 0.000000 0.500000
O O13 0.313486 0.034343 0.342719
O O14 0.250000 0.750000 0.356748
O O15 0.147363 0.810670 0.383965
O O16 0.418707 0.500000 0.500000
#
# Coordination Sequence:
#
# PCOD9323444 Si02
#       8
#     8   2   8   4   8   8   8   8
#     4  10  21  39  60  84 120 154 192 247 299 355
#     4  12  20  30  64  86 114 154 194 250 312 348
#     4  11  21  36  56  88 115 149 192 247 300 348
#     4  10  20  37  58  81 110 148 197 234 292 351
#     4  10  23  38  58  85 120 161 200 243 289 352
#     4  12  21  34  60  91 122 152 188 250 306 351
#     4  11  22  38  61  90 120 153 195 243 302 358
#     4  11  22  39  59  88 121 161 200 243 295 348
#
# _framework density 19.522893
#
# number of rings (size 3 to 8) (size 9 to 14) (size 15 to 20)
#    0.000    1.185    4.444    2.667    2.074    0.296 
#    0.000    0.000    3.259    0.000    0.000    0.000 
#    0.000    0.000    0.000    0.000    0.000    0.000 
#
# Total GULP energy -150549.150039 kJ/mol
# GULP energy per Si atom -5575.894446 kJ/mol
# Density = 1.947846 g / cm^3
# Si number density = 19.522893 Si / 1000 Ang^3
#
#
#
# Elastic Constant Matrix: (Units=GPa)
#
#
# Indices 1 2 3 4 5 6 
#
# 1 18.2776 1.5518 -7.9142 0.0000 0.0000 0.0000
# 2 1.5518 104.8252 28.0543 0.0000 0.0000 0.0000
# 3 -7.9142 28.0543 116.9660 0.0000 0.0000 0.0000
# 4 0.0000 0.0000 0.0000 92.4547 0.0000 0.0000
# 5 0.0000 0.0000 0.0000 0.0000 16.5190 0.0000
# 6 0.0000 0.0000 0.0000 0.0000 0.0000 9.1157
#
#
#
# Elastic Compliance Matrix: (Units=1/GPa)
#
#
# Indices 1 2 3 4 5 6 
#
# 1 0.056751 -0.001996 0.004319 0.000000 0.000000 0.000000
# 2 -0.001996 0.010264 -0.002597 0.000000 0.000000 0.000000
# 3 0.004319 -0.002597 0.009465 0.000000 0.000000 0.000000
# 4 0.000000 0.000000 0.000000 0.010816 0.000000 0.000000
# 5 0.000000 0.000000 0.000000 0.000000 0.060536 0.000000
# 6 0.000000 0.000000 0.000000 0.000000 0.000000 0.109701
#
#
# Mechanical properties :
#
#
# Convention : Reuss Voigt Hill
#
# Bulk Modulus (GPa) = 13.16974 31.49473 22.33224
# Shear Modulus (GPa) = 17.64337 38.17633 27.90985
#
# Velocity S-wave (km/s) = 3.00947 4.42686 3.78510
# Velocity P-wave (km/s) = 4.34008 6.50359 5.52870
#
# Compressibility (1/GPa) = 0.07593162
#
# Stress axis : x y z
#
# Youngs Moduli (GPa) = 17.62077 97.42543 105.65703
#
# Poissons Ratio (x) = 0.19446 -0.45630
# Poissons Ratio (y) = 0.03517 0.27438
# Poissons Ratio (z) = -0.07610 0.25301
#
# Static dielectric constant tensor:
#      x y z
#    x 1.636450 0.000000 0.000000 
#    y 0.000000 1.695060 0.000000 
#    z 0.000000 0.000000 1.763330 
# 
# From -- ./inp_files/34066.got.cif
#   From: 2010.05.17/outbox.cif.g08.bks.cpg/sg21_18_cif.got.tgz:34066.got - 2010.06.03 23:14:55.
