data_PCOD9323137
_publ_section_title
;
Structure prediction by ZEFSAII (Michael W. Deem and Ramdas Pophale) SiO2 
 PCOD9323137
Probable space group: C 2 2 2
;
_chemical_formula_sum "Si O2"
_cell_formula_units_Z 64
_cell_length_a 26.518740
_cell_length_b 18.085872
_cell_length_c 7.309812
_cell_angle_alpha 90.000000
_cell_angle_beta 90.000000
_cell_angle_gamma 90.000000
_cell_volume 3505.892100
_symmetry_space_group_name_H-M "C 2 2 2"
_symmetry_group_IT_number 21
_symmetry_cell_setting 'orthorhombic'
loop_
_space_group_symop_operation_xyz
x,y,z
-x,-y,z
x,-y,-z
-x,y,-z
1/2+x,1/2+y,z
1/2-x,1/2-y,z
1/2+x,1/2-y,-z
1/2-x,1/2+y,-z
loop_
_atom_site_type_symbol
_atom_site_label
_atom_site_fract_x
_atom_site_fract_y
_atom_site_fract_z
Si Si1 0.139138 0.784438 0.235329
Si Si2 0.685570 0.128619 0.269317
Si Si3 0.400615 0.078079 0.449479
Si Si4 0.442017 0.238300 0.479322
Si Si5 0.825065 0.385798 0.839649
Si Si6 0.289104 0.415015 0.200503
Si Si7 0.796785 0.078089 0.243767
Si Si8 0.640395 0.280046 0.803047
O O1 0.178856 0.717677 0.271088
O O2 0.089191 0.761228 0.341305
O O3 0.162226 0.861762 0.300675
O O4 0.129875 0.789163 0.018533
O O5 0.644183 0.095391 0.405077
O O6 0.741776 0.102191 0.314499
O O7 0.674782 0.106056 0.058547
O O8 0.435933 0.149793 0.451859
O O9 0.371239 0.073333 0.256811
O O10 0.424637 0.000000 0.500000
O O11 0.500000 0.258648 0.500000
O O12 0.410526 0.275468 0.314203
O O13 0.770639 0.409813 0.766378
O O14 0.832564 0.299600 0.787758
O O15 0.307805 0.492552 0.280868
O O16 0.321784 0.344649 0.258913
O O17 0.293410 0.416424 0.978556
#
# Coordination Sequence:
#
# PCOD9323137 Si02
#       8
#     8   8   8   8   8   8   8   8
#     4   9  18  33  52  72  97 129 162 198 238 282
#     4   9  17  30  48  72 104 137 163 185 218 277
#     4  10  20  32  49  74 100 127 158 193 237 283
#     4  10  22  38  54  71  89 118 165 211 249 289
#     4   9  17  30  48  72 104 137 163 185 218 277
#     4   9  16  27  47  75 105 134 160 189 230 280
#     4   9  16  27  47  75 105 134 160 189 230 280
#     4   9  18  33  52  72  97 129 162 198 238 282
#
# _framework density 18.254982999999999
#
# number of rings (size 3 to 8) (size 9 to 14) (size 15 to 20)
#    0.000    2.750    0.000    1.500    0.000    6.250 
#    0.000    5.625    0.000    1.500    0.000   10.500 
#    0.000    0.000    0.000    0.000    0.000    0.000 
#
# Total GULP energy -178576.621655 kJ/mol
# GULP energy per Si atom -5580.519427 kJ/mol
# Density = 1.821343 g / cm^3
# Si number density = 18.254983 Si / 1000 Ang^3
#
#
#
# Elastic Constant Matrix: (Units=GPa)
#
#
# Indices 1 2 3 4 5 6 
#
# 1 43.1697 -3.6030 -6.1837 0.0000 0.0000 0.0000
# 2 -3.6030 38.7059 -4.8514 0.0000 0.0000 0.0000
# 3 -6.1837 -4.8514 42.0511 0.0000 0.0000 0.0000
# 4 0.0000 0.0000 0.0000 10.8000 0.0000 0.0000
# 5 0.0000 0.0000 0.0000 0.0000 14.7086 0.0000
# 6 0.0000 0.0000 0.0000 0.0000 0.0000 1.5011
#
#
#
# Elastic Compliance Matrix: (Units=1/GPa)
#
#
# Indices 1 2 3 4 5 6 
#
# 1 0.023939 0.002709 0.003833 0.000000 0.000000 0.000000
# 2 0.002709 0.026521 0.003458 0.000000 0.000000 0.000000
# 3 0.003833 0.003458 0.024743 0.000000 0.000000 0.000000
# 4 0.000000 0.000000 0.000000 0.092593 0.000000 0.000000
# 5 0.000000 0.000000 0.000000 0.000000 0.067988 0.000000
# 6 0.000000 0.000000 0.000000 0.000000 0.000000 0.666199
#
#
# Mechanical properties :
#
#
# Convention : Reuss Voigt Hill
#
# Bulk Modulus (GPa) = 10.50379 10.51673 10.51026
# Shear Modulus (GPa) = 5.47214 14.63957 10.05586
#
# Velocity S-wave (km/s) = 1.73324 2.83494 2.34958
# Velocity P-wave (km/s) = 3.12601 4.06071 3.62363
#
# Compressibility (1/GPa) = 0.09520374
#
# Stress axis : x y z
#
# Youngs Moduli (GPa) = 41.77198 37.70530 40.41519
#
# Poissons Ratio (x) = -0.10214 -0.15491
# Poissons Ratio (y) = -0.11315 -0.13976
# Poissons Ratio (z) = -0.16011 -0.13039
#
# Static dielectric constant tensor:
#      x y z
#    x 1.561370 0.000000 0.000000 
#    y 0.000000 1.657330 0.000000 
#    z 0.000000 0.000000 1.674780 
# 
# From -- ./inp_files/18687.got.cif
#   From: 2010.05.17/outbox.cif.g08.bks.cpg/sg21_10_cif.got.tgz:18687.got - 2010.06.03 23:14:55.
