data_PCOD9323609
_publ_section_title
;
Structure prediction by ZEFSAII (Michael W. Deem and Ramdas Pophale) SiO2 
 PCOD9323609
Probable space group: C 2 2 2
;
_chemical_formula_sum "Si O2"
_cell_formula_units_Z 48
_cell_length_a 21.512010
_cell_length_b 8.882103
_cell_length_c 13.261572
_cell_angle_alpha 90.000000
_cell_angle_beta 90.000000
_cell_angle_gamma 90.000000
_cell_volume 2533.913607
_symmetry_space_group_name_H-M "C 2 2 2"
_symmetry_group_IT_number 21
_symmetry_cell_setting 'orthorhombic'
loop_
_space_group_symop_operation_xyz
x,y,z
-x,-y,z
x,-y,-z
-x,y,-z
1/2+x,1/2+y,z
1/2-x,1/2-y,z
1/2+x,1/2-y,-z
1/2-x,1/2+y,-z
loop_
_atom_site_type_symbol
_atom_site_label
_atom_site_fract_x
_atom_site_fract_y
_atom_site_fract_z
Si Si1 0.750000 0.750000 0.635428
Si Si2 0.315201 0.336974 0.143765
Si Si3 0.380462 0.816213 0.262978
Si Si4 0.298075 0.000000 0.500000
Si Si5 0.496828 0.675017 0.378877
Si Si6 0.377344 0.842767 0.675806
Si Si7 0.820313 0.816018 0.913967
O O1 0.686029 0.758993 0.695313
O O2 0.745665 0.897887 0.567987
O O3 0.250000 0.250000 0.146252
O O4 0.347315 0.274614 0.244927
O O5 0.312152 0.517641 0.134833
O O6 0.340525 0.304701 0.031011
O O7 0.435255 0.746462 0.329747
O O8 0.374262 0.765548 0.148455
O O9 0.382921 0.995551 0.270908
O O10 0.339492 0.109852 0.427110
O O11 0.500000 0.500000 0.346815
O O12 0.500000 0.677335 0.500000
O O13 0.556050 0.773213 0.347832
O O14 0.750000 0.750000 0.908808
#
# Coordination Sequence:
#
# PCOD9323609 Si02
#       7
#     4   8   8   4   8   8   8
#     4  10  22  36  56  88 118 160 204 258 314 358
#     4  10  22  36  63  93 126 166 205 262 317 383
#     4  11  22  38  63  87 124 164 204 259 313 373
#     4  10  24  38  59  90 127 166 206 266 312 376
#     4  11  24  42  63  88 120 169 215 260 313 380
#     4  11  23  41  60  92 123 165 212 256 321 375
#     4  10  20  39  60  93 128 161 209 258 321 381
#
# _framework density 18.943028000000002
#
# number of rings (size 3 to 8) (size 9 to 14) (size 15 to 20)
#    0.000    1.500    0.833    4.500    3.500    5.333 
#    0.000    0.833    0.000    5.000    0.000    0.000 
#    0.000    0.000    0.000    0.000    0.000    0.000 
#
# Total GULP energy -133745.353030 kJ/mol
# GULP energy per Si atom -5572.723043 kJ/mol
# Density = 1.889991 g / cm^3
# Si number density = 18.943028 Si / 1000 Ang^3
#
#
#
# Elastic Constant Matrix: (Units=GPa)
#
#
# Indices 1 2 3 4 5 6 
#
# 1 87.5349 49.0880 40.2731 0.0000 0.0000 0.0000
# 2 49.0880 77.2182 47.3006 0.0000 0.0000 0.0000
# 3 40.2731 47.3006 99.2273 0.0000 0.0000 0.0000
# 4 0.0000 0.0000 0.0000 37.0379 0.0000 0.0000
# 5 0.0000 0.0000 0.0000 0.0000 134.4959 0.0000
# 6 0.0000 0.0000 0.0000 0.0000 0.0000 32.9197
#
#
#
# Elastic Compliance Matrix: (Units=1/GPa)
#
#
# Indices 1 2 3 4 5 6 
#
# 1 0.018232 -0.009968 -0.002648 0.000000 0.000000 0.000000
# 2 -0.009968 0.023741 -0.007271 0.000000 0.000000 0.000000
# 3 -0.002648 -0.007271 0.014619 0.000000 0.000000 0.000000
# 4 0.000000 0.000000 0.000000 0.026999 0.000000 0.000000
# 5 0.000000 0.000000 0.000000 0.000000 0.007435 0.000000
# 6 0.000000 0.000000 0.000000 0.000000 0.000000 0.030377
#
#
# Mechanical properties :
#
#
# Convention : Reuss Voigt Hill
#
# Bulk Modulus (GPa) = 59.46406 59.70042 59.58224
# Shear Modulus (GPa) = 29.97859 49.37863 39.67861
#
# Velocity S-wave (km/s) = 3.98246 5.11112 4.58168
# Velocity P-wave (km/s) = 7.25299 8.14957 7.71432
#
# Compressibility (1/GPa) = 0.01681688
#
# Stress axis : x y z
#
# Youngs Moduli (GPa) = 54.84734 42.12046 68.40460
#
# Poissons Ratio (x) = 0.41987 0.18115
# Poissons Ratio (y) = 0.54674 0.49740
# Poissons Ratio (z) = 0.14524 0.30628
#
# Static dielectric constant tensor:
#      x y z
#    x 1.643110 0.000000 0.000000 
#    y 0.000000 1.685510 0.000000 
#    z 0.000000 0.000000 1.783480 
# 
# From -- ./inp_files/32860.got.cif
#   From: 2010.05.17/outbox.cif.g08.bks.cpg/sg21_17_cif.got.tgz:32860.got - 2010.06.03 23:14:55.
