data_PCOD9323072
_publ_section_title
;
Structure prediction by ZEFSAII (Michael W. Deem and Ramdas Pophale) SiO2 
 PCOD9323072
Probable space group: C 2 2 2
;
_chemical_formula_sum "Si O2"
_cell_formula_units_Z 28
_cell_length_a 8.616574
_cell_length_b 15.486637
_cell_length_c 9.216284
_cell_angle_alpha 90.000000
_cell_angle_beta 90.000000
_cell_angle_gamma 90.000000
_cell_volume 1229.837100
_symmetry_space_group_name_H-M "C 2 2 2"
_symmetry_group_IT_number 21
_symmetry_cell_setting 'orthorhombic'
loop_
_space_group_symop_operation_xyz
x,y,z
-x,-y,z
x,-y,-z
-x,y,-z
1/2+x,1/2+y,z
1/2-x,1/2-y,z
1/2+x,1/2-y,-z
1/2-x,1/2+y,-z
loop_
_atom_site_type_symbol
_atom_site_label
_atom_site_fract_x
_atom_site_fract_y
_atom_site_fract_z
Si Si1 0.731419 0.153716 0.673428
Si Si2 0.284986 0.500000 0.500000
Si Si3 0.320041 0.605105 0.995776
Si Si4 0.087998 0.583512 0.242201
O O1 0.750000 0.250000 0.618960
O O2 0.841117 0.084499 0.588876
O O3 0.547502 0.134148 0.675547
O O4 0.765999 0.142360 0.843301
O O5 0.191788 0.544966 0.370248
O O6 0.199241 0.628675 0.124606
O O7 0.319863 0.500000 0.000000
O O8 0.500000 0.632148 0.000000
O O9 0.000000 0.500000 0.173172
#
# Coordination Sequence:
#
# PCOD9323072 Si02
#       4
#     8   4   8   8
#     4  11  23  40  67 100 129 172 236 280 333 404
#     4  10  21  42  71  92 133 182 223 276 341 408
#     4  11  22  38  63  97 133 177 226 277 335 397
#     4  10  19  39  69  93 126 180 223 267 338 401
#
# _framework density 22.767244999999999
#
# number of rings (size 3 to 8) (size 9 to 14) (size 15 to 20)
#    0.000    1.429    5.714    4.714    0.000    2.286 
#    0.000   10.000    0.000    0.000    0.000    0.000 
#    0.000    0.000    0.000    0.000    0.000    0.000 
#
# Total GULP energy -77977.019674 kJ/mol
# GULP energy per Si atom -5569.787120 kJ/mol
# Density = 2.271543 g / cm^3
# Si number density = 22.767245 Si / 1000 Ang^3
#
#
#
# Elastic Constant Matrix: (Units=GPa)
#
#
# Indices 1 2 3 4 5 6 
#
# 1 68.8254 2.4464 16.8448 0.0000 0.0000 0.0000
# 2 2.4464 101.3347 0.2937 0.0000 0.0000 0.0000
# 3 16.8448 0.2937 123.0785 0.0000 0.0000 0.0000
# 4 0.0000 0.0000 0.0000 13.1924 0.0000 0.0000
# 5 0.0000 0.0000 0.0000 0.0000 13.8609 0.0000
# 6 0.0000 0.0000 0.0000 0.0000 0.0000 14.9790
#
#
#
# Elastic Compliance Matrix: (Units=1/GPa)
#
#
# Indices 1 2 3 4 5 6 
#
# 1 0.015046 -0.000357 -0.002058 0.000000 0.000000 0.000000
# 2 -0.000357 0.009877 0.000025 0.000000 0.000000 0.000000
# 3 -0.002058 0.000025 0.008407 0.000000 0.000000 0.000000
# 4 0.000000 0.000000 0.000000 0.075801 0.000000 0.000000
# 5 0.000000 0.000000 0.000000 0.000000 0.072145 0.000000
# 6 0.000000 0.000000 0.000000 0.000000 0.000000 0.066760
#
#
# Mechanical properties :
#
#
# Convention : Reuss Voigt Hill
#
# Bulk Modulus (GPa) = 35.02782 36.93428 35.98105
# Shear Modulus (GPa) = 19.05974 26.65004 22.85489
#
# Velocity S-wave (km/s) = 2.89650 3.42503 3.17180
# Velocity P-wave (km/s) = 5.15799 5.64791 5.40850
#
# Compressibility (1/GPa) = 0.02854874
#
# Stress axis : x y z
#
# Youngs Moduli (GPa) = 66.46285 101.24700 118.95489
#
# Poissons Ratio (x) = 0.03617 0.24485
# Poissons Ratio (y) = 0.02375 -0.00301
# Poissons Ratio (z) = 0.13681 -0.00256
#
# Static dielectric constant tensor:
#      x y z
#    x 1.969680 0.000000 0.000000 
#    y 0.000000 1.930350 0.000000 
#    z 0.000000 0.000000 1.838380 
# 
# From -- ./inp_files/10135.got.cif
#   From: 2010.05.17/outbox.cif.g08.bks.cpg/sg21_6_cif.got.tgz:10135.got - 2010.06.03 23:14:55.
