data_PCOD9323435
_publ_section_title
;
Structure prediction by ZEFSAII (Michael W. Deem and Ramdas Pophale) SiO2 
 PCOD9323435
Probable space group: C 2 2 2
;
_chemical_formula_sum "Si O2"
_cell_formula_units_Z 64
_cell_length_a 16.283557
_cell_length_b 8.411268
_cell_length_c 22.055368
_cell_angle_alpha 90.000000
_cell_angle_beta 90.000000
_cell_angle_gamma 90.000000
_cell_volume 3020.821460
_symmetry_space_group_name_H-M "C 2 2 2"
_symmetry_group_IT_number 21
_symmetry_cell_setting 'orthorhombic'
loop_
_space_group_symop_operation_xyz
x,y,z
-x,-y,z
x,-y,-z
-x,y,-z
1/2+x,1/2+y,z
1/2-x,1/2-y,z
1/2+x,1/2-y,-z
1/2-x,1/2+y,-z
loop_
_atom_site_type_symbol
_atom_site_label
_atom_site_fract_x
_atom_site_fract_y
_atom_site_fract_z
Si Si1 0.134378 0.041673 0.407359
Si Si2 0.196020 0.591851 0.391485
Si Si3 0.644845 0.573618 0.273213
Si Si4 0.087411 0.062404 0.143303
Si Si5 0.748588 0.442329 0.931345
Si Si6 0.408841 0.760397 0.490731
Si Si7 0.339252 0.954573 0.728611
Si Si8 0.090832 0.553351 0.856891
O O1 0.108908 0.021370 0.337718
O O2 0.116556 0.202774 0.442730
O O3 0.232969 0.033866 0.404374
O O4 0.097194 0.898498 0.447620
O O5 0.250000 0.750000 0.377203
O O6 0.146650 0.622778 0.452248
O O7 0.141540 0.543703 0.334042
O O8 0.598663 0.515090 0.213651
O O9 0.646024 0.765723 0.276476
O O10 0.740498 0.524013 0.264967
O O11 0.167034 0.007025 0.105534
O O12 0.089599 0.254420 0.143015
O O13 0.000000 0.000000 0.120181
O O14 0.750000 0.250000 0.930006
O O15 0.833100 0.497220 0.899343
O O16 0.744609 0.500000 0.000000
O O17 0.500000 0.817307 0.500000
O O18 0.387034 0.005949 0.788899
O O19 0.000000 0.500000 0.875303
#
# Coordination Sequence:
#
# PCOD9323435 Si02
#       8
#     8   8   8   8   8   8   8   8
#     4   9  18  35  56  82 105 147 198 247 293 370
#     4   9  19  37  54  84 112 148 199 250 307 367
#     4   9  17  35  63  88 107 155 204 247 309 369
#     4  10  21  39  64  97 128 164 211 265 305 367
#     4  10  22  42  68  92 132 175 215 254 307 373
#     4  10  20  37  55  79 113 147 188 248 308 355
#     4   9  17  37  60  83 117 151 198 248 314 367
#     4  10  21  41  63  91 130 170 204 260 314 374
#
# _framework density 21.18629
#
# number of rings (size 3 to 8) (size 9 to 14) (size 15 to 20)
#    0.000    2.500    1.250    0.750    0.000    2.500 
#   36.000    3.125    0.000    1.500    0.000    0.000 
#    0.000    0.000    0.000    0.000    0.000    0.000 
#
# Total GULP energy -178636.740208 kJ/mol
# GULP energy per Si atom -5582.398131 kJ/mol
# Density = 2.113807 g / cm^3
# Si number density = 21.186290 Si / 1000 Ang^3
#
#
#
# Elastic Constant Matrix: (Units=GPa)
#
#
# Indices 1 2 3 4 5 6 
#
# 1 128.1244 24.4605 74.9835 0.0000 0.0000 0.0000
# 2 24.4605 17.8801 29.6077 0.0000 0.0000 0.0000
# 3 74.9835 29.6077 145.0215 0.0000 0.0000 0.0000
# 4 0.0000 0.0000 0.0000 27.7716 0.0000 0.0000
# 5 0.0000 0.0000 0.0000 0.0000 -3.3963 0.0000
# 6 0.0000 0.0000 0.0000 0.0000 0.0000 19.1397
#
#
#
# Elastic Compliance Matrix: (Units=1/GPa)
#
#
# Indices 1 2 3 4 5 6 
#
# 1 0.012154 -0.009398 -0.004366 0.000000 0.000000 0.000000
# 2 -0.009398 0.091760 -0.013874 0.000000 0.000000 0.000000
# 3 -0.004366 -0.013874 0.011985 0.000000 0.000000 0.000000
# 4 0.000000 0.000000 0.000000 0.036008 0.000000 0.000000
# 5 0.000000 0.000000 0.000000 0.000000 -0.294442 0.000000
# 6 0.000000 0.000000 0.000000 0.000000 0.000000 0.052247
#
#
# Mechanical properties :
#
#
# Convention : Reuss Voigt Hill
#
# Bulk Modulus (GPa) = 16.49540 61.01437 38.75488
# Shear Modulus (GPa) = -337.75328 19.50129 -159.12599
#
# Velocity S-wave (km/s) = -12.63989 3.03721 -8.67589
# Velocity P-wave (km/s) = 14.32549 6.41569 9.05700
#
# Compressibility (1/GPa) = 0.06062297
#
# Stress axis : x y z
#
# Youngs Moduli (GPa) = 82.27744 10.89802 83.43534
#
# Poissons Ratio (x) = 0.10242 0.36424
# Poissons Ratio (y) = 0.77326 1.15762
# Poissons Ratio (z) = 0.35918 0.15120
#
# Static dielectric constant tensor:
#      x y z
#    x 1.759130 0.000000 0.000000 
#    y 0.000000 1.819210 0.000000 
#    z 0.000000 0.000000 1.779790 
# 
# From -- ./inp_files/38760.got.cif
#   From: 2010.05.17/outbox.cif.g08.bks.cpg/sg21_20_cif.got.tgz:38760.got - 2010.06.03 23:14:55.
