data_PCOD9323248
_publ_section_title
;
Structure prediction by ZEFSAII (Michael W. Deem and Ramdas Pophale) SiO2 
 PCOD9323248
Probable space group: C 2 2 2
;
_chemical_formula_sum "Si O2"
_cell_formula_units_Z 34
_cell_length_a 24.259895
_cell_length_b 9.024645
_cell_length_c 8.748636
_cell_angle_alpha 90.000000
_cell_angle_beta 90.000000
_cell_angle_gamma 90.000000
_cell_volume 1915.399596
_symmetry_space_group_name_H-M "C 2 2 2"
_symmetry_group_IT_number 21
_symmetry_cell_setting 'orthorhombic'
loop_
_space_group_symop_operation_xyz
x,y,z
-x,-y,z
x,-y,-z
-x,y,-z
1/2+x,1/2+y,z
1/2-x,1/2-y,z
1/2+x,1/2-y,-z
1/2-x,1/2+y,-z
loop_
_atom_site_type_symbol
_atom_site_label
_atom_site_fract_x
_atom_site_fract_y
_atom_site_fract_z
Si Si1 0.935223 0.673191 0.969416
Si Si2 0.906030 0.172463 0.331440
Si Si3 0.646068 0.402695 0.860741
Si Si4 0.500000 0.500000 0.500000
Si Si5 0.806167 0.169481 0.551150
O O1 0.920173 0.705570 0.793709
O O2 0.925447 0.500000 0.000000
O O3 0.896828 0.784056 0.068930
O O4 0.000000 0.705651 0.000000
O O5 0.860419 0.220171 0.456391
O O6 0.883822 0.029383 0.238823
O O7 0.960635 0.109306 0.407532
O O8 0.683975 0.324479 0.733837
O O9 0.671981 0.500000 0.000000
O O10 0.750000 0.250000 0.508481
O O11 0.799568 0.000000 0.500000
#
# Coordination Sequence:
#
# PCOD9323248 Si02
#       5
#     8   8   8   2   8
#     4  10  21  35  53  82 124 155 188 240 307 370
#     4  10  20  34  61  88 111 154 196 246 298 346
#     4   9  18  37  57  82 111 145 203 237 292 353
#     4  12  16  32  66  94 116 136 214 252 288 348
#     4  10  21  39  58  85 116 150 201 246 294 357
#
# _framework density 17.750865000000001
#
# number of rings (size 3 to 8) (size 9 to 14) (size 15 to 20)
#    0.000    2.118    3.529    1.412    0.000    5.176 
#    0.000   11.765    0.000    0.000    0.000    0.000 
#    0.000    0.000    0.000    0.000    0.000    0.000 
#
# Total GULP energy -94679.329405 kJ/mol
# GULP energy per Si atom -5569.372318 kJ/mol
# Density = 1.771046 g / cm^3
# Si number density = 17.750865 Si / 1000 Ang^3
#
#
#
# Elastic Constant Matrix: (Units=GPa)
#
#
# Indices 1 2 3 4 5 6 
#
# 1 100.7107 34.0220 62.1761 0.0000 0.0000 0.0000
# 2 34.0220 66.4186 37.9508 0.0000 0.0000 0.0000
# 3 62.1761 37.9508 124.4165 0.0000 0.0000 0.0000
# 4 0.0000 0.0000 0.0000 24.8149 0.0000 0.0000
# 5 0.0000 0.0000 0.0000 0.0000 31.6746 0.0000
# 6 0.0000 0.0000 0.0000 0.0000 0.0000 21.5112
#
#
#
# Elastic Compliance Matrix: (Units=1/GPa)
#
#
# Indices 1 2 3 4 5 6 
#
# 1 0.015266 -0.004191 -0.006351 0.000000 0.000000 0.000000
# 2 -0.004191 0.019385 -0.003818 0.000000 0.000000 0.000000
# 3 -0.006351 -0.003818 0.012376 0.000000 0.000000 0.000000
# 4 0.000000 0.000000 0.000000 0.040298 0.000000 0.000000
# 5 0.000000 0.000000 0.000000 0.000000 0.031571 0.000000
# 6 0.000000 0.000000 0.000000 0.000000 0.000000 0.046487
#
#
# Mechanical properties :
#
#
# Convention : Reuss Voigt Hill
#
# Bulk Modulus (GPa) = 54.62625 62.20485 58.41555
# Shear Modulus (GPa) = 24.97430 26.09327 25.53378
#
# Velocity S-wave (km/s) = 3.75498 3.83818 3.79681
# Velocity P-wave (km/s) = 7.04560 7.40010 7.22503
#
# Compressibility (1/GPa) = 0.01830622
#
# Stress axis : x y z
#
# Youngs Moduli (GPa) = 65.50518 51.58718 80.80204
#
# Poissons Ratio (x) = 0.21621 0.51314
# Poissons Ratio (y) = 0.27454 0.30854
# Poissons Ratio (z) = 0.41600 0.19698
#
# Static dielectric constant tensor:
#      x y z
#    x 1.662730 0.000000 0.000000 
#    y 0.000000 1.565550 0.000000 
#    z 0.000000 0.000000 1.660620 
# 
# From -- ./inp_files/10559.got.cif
#   From: 2010.05.17/outbox.cif.g08.bks.cpg/sg21_6_cif.got.tgz:10559.got - 2010.06.03 23:14:55.
