data_PCOD9323001
_publ_section_title
;
Structure prediction by ZEFSAII (Michael W. Deem and Ramdas Pophale) SiO2 
 PCOD9323001
Probable space group: C 2 2 2
;
_chemical_formula_sum "Si O2"
_cell_formula_units_Z 32
_cell_length_a 20.972478
_cell_length_b 6.701175
_cell_length_c 10.979924
_cell_angle_alpha 90.000000
_cell_angle_beta 90.000000
_cell_angle_gamma 90.000000
_cell_volume 1543.121212
_symmetry_space_group_name_H-M "C 2 2 2"
_symmetry_group_IT_number 21
_symmetry_cell_setting 'orthorhombic'
loop_
_space_group_symop_operation_xyz
x,y,z
-x,-y,z
x,-y,-z
-x,y,-z
1/2+x,1/2+y,z
1/2-x,1/2-y,z
1/2+x,1/2-y,-z
1/2-x,1/2+y,-z
loop_
_atom_site_type_symbol
_atom_site_label
_atom_site_fract_x
_atom_site_fract_y
_atom_site_fract_z
Si Si1 0.344240 0.500000 0.500000
Si Si2 0.182516 0.256172 0.280785
Si Si3 0.600067 0.885904 0.622787
Si Si4 0.063781 0.887287 0.874781
Si Si5 0.500000 0.000000 0.179240
O O1 0.305956 0.374186 0.401779
O O2 0.382968 0.333790 0.576023
O O3 0.250000 0.250000 0.212069
O O4 0.157131 0.474678 0.322371
O O5 0.124867 0.144820 0.210549
O O6 0.578244 0.000000 0.500000
O O7 0.547973 0.887954 0.728343
O O8 0.040029 0.661412 0.893906
O O9 0.000000 0.000000 0.826335
O O10 0.079968 0.000000 0.000000
#
# Coordination Sequence:
#
# PCOD9323001 Si02
#       5
#     4   8   8   8   4
#     4  10  20  34  59  90 128 167 204 248 320 400
#     4  10  22  37  62  92 131 164 211 263 321 390
#     4   9  19  34  56  94 128 166 203 256 321 397
#     4  10  22  41  67  89 121 168 224 268 329 385
#     4  10  19  37  62  92 126 162 215 273 320 378
#
# _framework density 20.737190999999999
#
# number of rings (size 3 to 8) (size 9 to 14) (size 15 to 20)
#    0.000    2.250    0.000    1.875    5.250    2.000 
#    0.000   14.375   27.500    0.000    0.000    0.000 
#    0.000    0.000    0.000    0.000    0.000    0.000 
#
# Total GULP energy -89175.564934 kJ/mol
# GULP energy per Si atom -5573.472808 kJ/mol
# Density = 2.068999 g / cm^3
# Si number density = 20.737191 Si / 1000 Ang^3
#
#
#
# Elastic Constant Matrix: (Units=GPa)
#
#
# Indices 1 2 3 4 5 6 
#
# 1 131.0873 44.1007 44.9581 0.0000 0.0000 0.0000
# 2 44.1007 151.5351 51.4721 0.0000 0.0000 0.0000
# 3 44.9581 51.4721 81.1492 0.0000 0.0000 0.0000
# 4 0.0000 0.0000 0.0000 44.4029 0.0000 0.0000
# 5 0.0000 0.0000 0.0000 0.0000 -142.9288 0.0000
# 6 0.0000 0.0000 0.0000 0.0000 0.0000 17.9672
#
#
#
# Elastic Compliance Matrix: (Units=1/GPa)
#
#
# Indices 1 2 3 4 5 6 
#
# 1 0.009603 -0.001259 -0.004522 0.000000 0.000000 0.000000
# 2 -0.001259 0.008576 -0.004743 0.000000 0.000000 0.000000
# 3 -0.004522 -0.004743 0.017836 0.000000 0.000000 0.000000
# 4 0.000000 0.000000 0.000000 0.022521 0.000000 0.000000
# 5 0.000000 0.000000 0.000000 0.000000 -0.006996 0.000000
# 6 0.000000 0.000000 0.000000 0.000000 0.000000 0.055657
#
#
# Mechanical properties :
#
#
# Convention : Reuss Voigt Hill
#
# Bulk Modulus (GPa) = 66.80296 71.64813 69.22555
# Shear Modulus (GPa) = 37.52842 -1.22900 18.14971
#
# Velocity S-wave (km/s) = 4.25869 -0.77068 2.96163
# Velocity P-wave (km/s) = 7.51438 5.81667 6.71936
#
# Compressibility (1/GPa) = 0.01496940
#
# Stress axis : x y z
#
# Youngs Moduli (GPa) = 104.13687 116.59957 56.06581
#
# Poissons Ratio (x) = 0.14677 0.25351
# Poissons Ratio (y) = 0.13108 0.26589
# Poissons Ratio (z) = 0.47087 0.55298
#
# Static dielectric constant tensor:
#      x y z
#    x 1.836620 0.000000 0.000000 
#    y 0.000000 1.933760 0.000000 
#    z 0.000000 0.000000 1.775550 
# 
# From -- ./inp_files/27095.got.cif
#   From: 2010.05.17/outbox.cif.g08.bks.cpg/sg21_14_cif.got.tgz:27095.got - 2010.06.03 23:14:55.
