data_PCOD9323007
_publ_section_title
;
Structure prediction by ZEFSAII (Michael W. Deem and Ramdas Pophale) SiO2 
 PCOD9323007
Probable space group: C 2 2 2
;
_chemical_formula_sum "Si O2"
_cell_formula_units_Z 58
_cell_length_a 9.307925
_cell_length_b 27.413466
_cell_length_c 11.669072
_cell_angle_alpha 90.000000
_cell_angle_beta 90.000000
_cell_angle_gamma 90.000000
_cell_volume 2977.509415
_symmetry_space_group_name_H-M "C 2 2 2"
_symmetry_group_IT_number 21
_symmetry_cell_setting 'orthorhombic'
loop_
_space_group_symop_operation_xyz
x,y,z
-x,-y,z
x,-y,-z
-x,y,-z
1/2+x,1/2+y,z
1/2-x,1/2-y,z
1/2+x,1/2-y,-z
1/2-x,1/2+y,-z
loop_
_atom_site_type_symbol
_atom_site_label
_atom_site_fract_x
_atom_site_fract_y
_atom_site_fract_z
Si Si1 0.673486 0.357138 0.993177
Si Si2 0.500000 0.000000 0.500000
Si Si3 0.649820 0.949050 0.057031
Si Si4 0.474025 0.780182 0.367014
Si Si5 0.056052 0.571623 0.702350
Si Si6 0.210362 0.636178 0.247689
Si Si7 0.473348 0.668244 0.369560
Si Si8 0.723862 0.827917 0.246690
O O1 0.750124 0.351181 0.116413
O O2 0.500000 0.350082 0.000000
O O3 0.719592 0.412015 0.958608
O O4 0.748902 0.326744 0.890191
O O5 0.428121 0.961279 0.589339
O O6 0.614648 0.957407 0.189098
O O7 0.500000 0.929132 0.000000
O O8 0.681404 0.000000 0.000000
O O9 0.500000 0.794078 0.500000
O O10 0.369427 0.818062 0.305932
O O11 0.420666 0.724636 0.367096
O O12 0.622537 0.785764 0.296715
O O13 0.143990 0.622457 0.710840
O O14 0.893132 0.589990 0.729515
O O15 0.361335 0.632289 0.311622
O O16 0.500000 0.654828 0.500000
O O17 0.621349 0.669607 0.302588
#
# Coordination Sequence:
#
# PCOD9323007 Si02
#       8
#     8   2   8   8   8   8   8   8
#     4  11  22  40  59  88 125 161 202 250 306 368
#     4  12  24  40  62  94 128 148 204 252 296 356
#     4  10  19  37  63  88 110 150 206 251 294 350
#     4  10  22  39  61  91 119 157 211 258 290 352
#     4  10  24  37  61  91 121 155 195 249 298 357
#     4  11  22  39  62  89 122 162 202 243 309 355
#     4  11  22  38  63  88 121 159 205 251 299 365
#     4  10  22  39  61  89 124 162 200 245 311 352
#
# _framework density 19.479367
#
# number of rings (size 3 to 8) (size 9 to 14) (size 15 to 20)
#    0.000    1.517    2.759    2.483    5.793    2.483 
#    0.000    4.138    0.000    1.655    0.000    0.000 
#    0.000    0.000    0.000    0.000    0.000    0.000 
#
# Total GULP energy -161713.654829 kJ/mol
# GULP energy per Si atom -5576.332925 kJ/mol
# Density = 1.943503 g / cm^3
# Si number density = 19.479367 Si / 1000 Ang^3
#
#
#
# Elastic Constant Matrix: (Units=GPa)
#
#
# Indices 1 2 3 4 5 6 
#
# 1 89.8891 14.3390 34.8537 0.0000 0.0000 0.0000
# 2 14.3390 31.0394 36.1522 0.0000 0.0000 0.0000
# 3 34.8537 36.1522 171.2347 0.0000 0.0000 0.0000
# 4 0.0000 0.0000 0.0000 24.7101 0.0000 0.0000
# 5 0.0000 0.0000 0.0000 0.0000 29.8189 0.0000
# 6 0.0000 0.0000 0.0000 0.0000 0.0000 6.4525
#
#
#
# Elastic Compliance Matrix: (Units=1/GPa)
#
#
# Indices 1 2 3 4 5 6 
#
# 1 0.012390 -0.003695 -0.001742 0.000000 0.000000 0.000000
# 2 -0.003695 0.043825 -0.008500 0.000000 0.000000 0.000000
# 3 -0.001742 -0.008500 0.007989 0.000000 0.000000 0.000000
# 4 0.000000 0.000000 0.000000 0.040469 0.000000 0.000000
# 5 0.000000 0.000000 0.000000 0.000000 0.033536 0.000000
# 6 0.000000 0.000000 0.000000 0.000000 0.000000 0.154980
#
#
# Mechanical properties :
#
#
# Convention : Reuss Voigt Hill
#
# Bulk Modulus (GPa) = 27.52606 51.42812 39.47709
# Shear Modulus (GPa) = 15.00726 25.98417 20.49571
#
# Velocity S-wave (km/s) = 2.77865 3.65627 3.24724
# Velocity P-wave (km/s) = 4.94531 6.65455 5.86256
#
# Compressibility (1/GPa) = 0.03632921
#
# Stress axis : x y z
#
# Youngs Moduli (GPa) = 80.71316 22.81819 125.17002
#
# Poissons Ratio (x) = 0.08431 0.21801
# Poissons Ratio (y) = 0.29822 1.06401
# Poissons Ratio (z) = 0.14058 0.19397
#
# Static dielectric constant tensor:
#      x y z
#    x 1.702470 0.000000 0.000000 
#    y 0.000000 1.695540 0.000000 
#    z 0.000000 0.000000 1.710360 
# 
# From -- ./inp_files/23096.got.cif
#   From: 2010.05.17/outbox.cif.g08.bks.cpg/sg21_12_cif.got.tgz:23096.got - 2010.06.03 23:14:55.
