data_PCOD9323408
_publ_section_title
;
Structure prediction by ZEFSAII (Michael W. Deem and Ramdas Pophale) SiO2 
 PCOD9323408
Probable space group: C 2 2 2
;
_chemical_formula_sum "Si O2"
_cell_formula_units_Z 36
_cell_length_a 26.011157
_cell_length_b 6.214032
_cell_length_c 11.441145
_cell_angle_alpha 90.000000
_cell_angle_beta 90.000000
_cell_angle_gamma 90.000000
_cell_volume 1849.279884
_symmetry_space_group_name_H-M "C 2 2 2"
_symmetry_group_IT_number 21
_symmetry_cell_setting 'orthorhombic'
loop_
_space_group_symop_operation_xyz
x,y,z
-x,-y,z
x,-y,-z
-x,y,-z
1/2+x,1/2+y,z
1/2-x,1/2-y,z
1/2+x,1/2-y,-z
1/2-x,1/2+y,-z
loop_
_atom_site_type_symbol
_atom_site_label
_atom_site_fract_x
_atom_site_fract_y
_atom_site_fract_z
Si Si1 0.126196 0.500000 0.500000
Si Si2 0.866321 0.436067 0.130350
Si Si3 0.809800 0.798224 0.676560
Si Si4 0.879212 0.184464 0.690251
Si Si5 0.441355 0.421478 0.873278
O O1 0.160409 0.359452 0.588263
O O2 0.098827 0.676738 0.582158
O O3 0.828943 0.264811 0.192864
O O4 0.864432 0.645145 0.210556
O O5 0.923303 0.326972 0.131402
O O6 0.852400 0.500000 0.000000
O O7 0.750000 0.750000 0.665066
O O8 0.830232 0.039729 0.653294
O O9 0.917942 0.026925 0.756725
O O10 0.500000 0.500000 0.874904
O O11 0.419498 0.500000 0.000000
#
# Coordination Sequence:
#
# PCOD9323408 Si02
#       5
#     4   8   8   8   8
#     4  10  22  36  64  85 118 164 201 262 310 362
#     4  10  20  38  58  87 127 161 193 253 314 368
#     4  10  23  38  60  89 117 162 211 256 305 374
#     4  10  21  39  60  87 127 155 206 256 313 363
#     4  10  20  36  62  91 121 163 205 256 308 377
#
# _framework density 19.467036
#
# number of rings (size 3 to 8) (size 9 to 14) (size 15 to 20)
#    0.000    2.000    2.222    0.667    3.111    3.556 
#    4.000    0.000    0.000   38.667    0.000    0.000 
#    0.000    0.000    0.000    0.000    0.000    0.000 
#
# Total GULP energy -100230.473941 kJ/mol
# GULP energy per Si atom -5568.359663 kJ/mol
# Density = 1.942273 g / cm^3
# Si number density = 19.467036 Si / 1000 Ang^3
#
#
#
# Elastic Constant Matrix: (Units=GPa)
#
#
# Indices 1 2 3 4 5 6 
#
# 1 36.8304 9.5372 8.2084 0.0000 0.0000 0.0000
# 2 9.5372 97.6446 30.9601 0.0000 0.0000 0.0000
# 3 8.2084 30.9601 127.2149 0.0000 0.0000 0.0000
# 4 0.0000 0.0000 0.0000 41.8126 0.0000 0.0000
# 5 0.0000 0.0000 0.0000 0.0000 15.4431 0.0000
# 6 0.0000 0.0000 0.0000 0.0000 0.0000 15.7662
#
#
#
# Elastic Compliance Matrix: (Units=1/GPa)
#
#
# Indices 1 2 3 4 5 6 
#
# 1 0.028035 -0.002346 -0.001238 0.000000 0.000000 0.000000
# 2 -0.002346 0.011294 -0.002597 0.000000 0.000000 0.000000
# 3 -0.001238 -0.002597 0.008573 0.000000 0.000000 0.000000
# 4 0.000000 0.000000 0.000000 0.023916 0.000000 0.000000
# 5 0.000000 0.000000 0.000000 0.000000 0.064754 0.000000
# 6 0.000000 0.000000 0.000000 0.000000 0.000000 0.063427
#
#
# Mechanical properties :
#
#
# Convention : Reuss Voigt Hill
#
# Bulk Modulus (GPa) = 28.13776 39.90015 34.01895
# Shear Modulus (GPa) = 22.30088 28.80334 25.55211
#
# Velocity S-wave (km/s) = 3.38830 3.85072 3.62689
# Velocity P-wave (km/s) = 5.45829 6.34914 5.92049
#
# Compressibility (1/GPa) = 0.03553943
#
# Stress axis : x y z
#
# Youngs Moduli (GPa) = 35.66995 88.54399 116.64964
#
# Poissons Ratio (x) = 0.20770 0.14442
# Poissons Ratio (y) = 0.08367 0.30296
# Poissons Ratio (z) = 0.04416 0.22997
#
# Static dielectric constant tensor:
#      x y z
#    x 1.678360 0.000000 0.000000 
#    y 0.000000 1.741230 0.000000 
#    z 0.000000 0.000000 1.716380 
# 
# From -- ./inp_files/27155.got.cif
#   From: 2010.05.17/outbox.cif.g08.bks.cpg/sg21_14_cif.got.tgz:27155.got - 2010.06.03 23:14:55.
