data_PCOD9323546
_publ_section_title
;
Structure prediction by ZEFSAII (Michael W. Deem and Ramdas Pophale) SiO2 
 PCOD9323546
Probable space group: C 2 2 2
;
_chemical_formula_sum "Si O2"
_cell_formula_units_Z 32
_cell_length_a 5.044625
_cell_length_b 17.305513
_cell_length_c 17.054777
_cell_angle_alpha 90.000000
_cell_angle_beta 90.000000
_cell_angle_gamma 90.000000
_cell_volume 1488.879022
_symmetry_space_group_name_H-M "C 2 2 2"
_symmetry_group_IT_number 21
_symmetry_cell_setting 'orthorhombic'
loop_
_space_group_symop_operation_xyz
x,y,z
-x,-y,z
x,-y,-z
-x,y,-z
1/2+x,1/2+y,z
1/2-x,1/2-y,z
1/2+x,1/2-y,-z
1/2-x,1/2+y,-z
loop_
_atom_site_type_symbol
_atom_site_label
_atom_site_fract_x
_atom_site_fract_y
_atom_site_fract_z
Si Si1 0.500000 0.000000 0.340740
Si Si2 0.136894 0.110763 0.258559
Si Si3 0.855364 0.662530 0.832462
Si Si4 0.500000 0.805795 0.000000
Si Si5 0.597181 0.590365 0.582794
O O1 0.726930 0.969925 0.283073
O O2 0.402998 0.928694 0.395120
O O3 0.383918 0.155815 0.221080
O O4 0.890295 0.113174 0.199835
O O5 0.020366 0.136219 0.343267
O O6 0.750000 0.750000 0.831095
O O7 0.933101 0.646238 0.922280
O O8 0.250000 0.750000 0.981918
O O9 0.500000 0.500000 0.581467
O O10 0.500000 0.622683 0.500000
#
# Coordination Sequence:
#
# PCOD9323546 Si02
#       5
#     4   8   8   4   8
#     4  10  20  39  56  95 122 160 202 249 308 346
#     4  11  21  36  59  91 121 157 190 248 300 361
#     4  11  22  38  61  91 118 151 196 250 307 358
#     4  10  20  38  62  91 116 143 198 264 300 340
#     4   9  19  34  57  88 117 153 200 255 289 334
#
# _framework density 21.492678999999999
#
# number of rings (size 3 to 8) (size 9 to 14) (size 15 to 20)
#    0.000    1.750    2.500    3.750    0.000    8.000 
#    0.000    0.000    0.000    3.750   13.000    0.000 
#    0.000    0.000    0.000    0.000    0.000    0.000 
#
# Total GULP energy -89124.045515 kJ/mol
# GULP energy per Si atom -5570.252845 kJ/mol
# Density = 2.144376 g / cm^3
# Si number density = 21.492679 Si / 1000 Ang^3
#
#
#
# Elastic Constant Matrix: (Units=GPa)
#
#
# Indices 1 2 3 4 5 6 
#
# 1 166.8257 15.9763 88.9577 0.0000 0.0000 0.0000
# 2 15.9763 16.0360 31.2290 0.0000 0.0000 0.0000
# 3 88.9577 31.2290 208.8466 0.0000 0.0000 0.0000
# 4 0.0000 0.0000 0.0000 27.0794 0.0000 0.0000
# 5 0.0000 0.0000 0.0000 0.0000 30.5323 0.0000
# 6 0.0000 0.0000 0.0000 0.0000 0.0000 37.6322
#
#
#
# Elastic Compliance Matrix: (Units=1/GPa)
#
#
# Indices 1 2 3 4 5 6 
#
# 1 0.007794 -0.001834 -0.003046 0.000000 0.000000 0.000000
# 2 -0.001834 0.088411 -0.012439 0.000000 0.000000 0.000000
# 3 -0.003046 -0.012439 0.007945 0.000000 0.000000 0.000000
# 4 0.000000 0.000000 0.000000 0.036928 0.000000 0.000000
# 5 0.000000 0.000000 0.000000 0.000000 0.032752 0.000000
# 6 0.000000 0.000000 0.000000 0.000000 0.000000 0.026573
#
#
# Mechanical properties :
#
#
# Convention : Reuss Voigt Hill
#
# Bulk Modulus (GPa) = 14.38570 73.78158 44.08364
# Shear Modulus (GPa) = 19.36392 36.08514 27.72453
#
# Velocity S-wave (km/s) = 3.00485 4.10194 3.59549
# Velocity P-wave (km/s) = 4.32974 7.53909 6.14754
#
# Compressibility (1/GPa) = 0.06951350
#
# Stress axis : x y z
#
# Youngs Moduli (GPa) = 128.30508 11.31080 125.85760
#
# Poissons Ratio (x) = 0.02074 0.38331
# Poissons Ratio (y) = 0.23529 1.56555
# Poissons Ratio (z) = 0.39076 0.14070
#
# Static dielectric constant tensor:
#      x y z
#    x 1.995610 0.000000 0.000000 
#    y 0.000000 1.834730 0.000000 
#    z 0.000000 0.000000 1.830350 
# 
# From -- ./inp_files/29024.got.cif
#   From: 2010.05.17/outbox.cif.g08.bks.cpg/sg21_15_cif.got.tgz:29024.got - 2010.06.03 23:14:55.
