data_PCOD9323224
_publ_section_title
;
Structure prediction by ZEFSAII (Michael W. Deem and Ramdas Pophale) SiO2 
 PCOD9323224
Probable space group: C 2 2 2
;
_chemical_formula_sum "Si O2"
_cell_formula_units_Z 54
_cell_length_a 5.317153
_cell_length_b 19.179393
_cell_length_c 24.624182
_cell_angle_alpha 90.000000
_cell_angle_beta 90.000000
_cell_angle_gamma 90.000000
_cell_volume 2511.168344
_symmetry_space_group_name_H-M "C 2 2 2"
_symmetry_group_IT_number 21
_symmetry_cell_setting 'orthorhombic'
loop_
_space_group_symop_operation_xyz
x,y,z
-x,-y,z
x,-y,-z
-x,y,-z
1/2+x,1/2+y,z
1/2-x,1/2-y,z
1/2+x,1/2-y,-z
1/2-x,1/2+y,-z
loop_
_atom_site_type_symbol
_atom_site_label
_atom_site_fract_x
_atom_site_fract_y
_atom_site_fract_z
Si Si1 0.827462 0.566075 0.406859
Si Si2 0.500000 0.000000 0.228637
Si Si3 0.348112 0.671439 0.805368
Si Si4 0.172001 0.395914 0.850619
Si Si5 0.254336 0.079203 0.976468
Si Si6 0.134212 0.925058 0.707155
Si Si7 0.000000 0.000000 0.500000
Si Si8 0.502871 0.212117 0.434464
O O1 0.646100 0.585331 0.356894
O O2 0.670720 0.546675 0.460482
O O3 0.999404 0.632033 0.418298
O O4 0.000000 0.500000 0.392789
O O5 0.301917 0.963889 0.188153
O O6 0.587958 0.940425 0.269543
O O7 0.250000 0.750000 0.799328
O O8 0.604852 0.658965 0.838957
O O9 0.431796 0.638081 0.746965
O O10 0.109819 0.631792 0.834856
O O11 0.211454 0.420331 0.912130
O O12 0.500000 0.115782 0.000000
O O13 0.000000 0.111483 0.000000
O O14 0.253211 0.000000 0.000000
O O15 0.000000 0.000000 0.715570
O O16 0.500000 0.215886 0.500000
O O17 0.250000 0.250000 0.415021
O O18 0.750000 0.250000 0.414009
#
# Coordination Sequence:
#
# PCOD9323224 Si02
#       8
#     8   4   8   8   8   8   2   8
#     4  12  26  43  69 102 139 183 229 288 364 431
#     4  10  20  38  63  97 126 172 218 288 344 398
#     4  11  25  44  69  98 137 183 235 287 354 428
#     4  11  22  39  69  97 138 179 232 286 347 409
#     4  10  20  34  57  98 141 173 219 283 340 394
#     4  11  22  42  66  97 136 169 223 288 351 411
#     4  12  26  40  72 102 144 184 236 288 364 460
#     4  10  24  44  69  94 130 175 229 279 327 404
#
# _framework density 21.503934000000001
#
# number of rings (size 3 to 8) (size 9 to 14) (size 15 to 20)
#    0.000    1.185    2.963    3.333    5.185    4.148 
#    0.000    2.963    0.000    8.889    0.000    0.000 
#    0.000    0.000    0.000    0.000    0.000    0.000 
#
# Total GULP energy -150606.661309 kJ/mol
# GULP energy per Si atom -5578.024493 kJ/mol
# Density = 2.145499 g / cm^3
# Si number density = 21.503934 Si / 1000 Ang^3
#
#
#
# Elastic Constant Matrix: (Units=GPa)
#
#
# Indices 1 2 3 4 5 6 
#
# 1 126.5187 38.3877 35.3718 0.0000 0.0000 0.0000
# 2 38.3877 109.9577 29.3440 0.0000 0.0000 0.0000
# 3 35.3718 29.3440 151.5932 0.0000 0.0000 0.0000
# 4 0.0000 0.0000 0.0000 13.5946 0.0000 0.0000
# 5 0.0000 0.0000 0.0000 0.0000 19.4112 0.0000
# 6 0.0000 0.0000 0.0000 0.0000 0.0000 35.4907
#
#
#
# Elastic Compliance Matrix: (Units=1/GPa)
#
#
# Indices 1 2 3 4 5 6 
#
# 1 0.009198 -0.002782 -0.001608 0.000000 0.000000 0.000000
# 2 -0.002782 0.010431 -0.001370 0.000000 0.000000 0.000000
# 3 -0.001608 -0.001370 0.007237 0.000000 0.000000 0.000000
# 4 0.000000 0.000000 0.000000 0.073559 0.000000 0.000000
# 5 0.000000 0.000000 0.000000 0.000000 0.051517 0.000000
# 6 0.000000 0.000000 0.000000 0.000000 0.000000 0.028176
#
#
# Mechanical properties :
#
#
# Convention : Reuss Voigt Hill
#
# Bulk Modulus (GPa) = 65.16164 66.03074 65.59619
# Shear Modulus (GPa) = 25.41267 32.69703 29.05485
#
# Velocity S-wave (km/s) = 3.44142 3.90361 3.67977
# Velocity P-wave (km/s) = 6.79405 7.14777 6.97315
#
# Compressibility (1/GPa) = 0.01534645
#
# Stress axis : x y z
#
# Youngs Moduli (GPa) = 108.72516 95.86582 138.18057
#
# Poissons Ratio (x) = 0.26670 0.22214
# Poissons Ratio (y) = 0.30247 0.18932
# Poissons Ratio (z) = 0.17478 0.13134
#
# Static dielectric constant tensor:
#      x y z
#    x 1.878380 0.000000 0.000000 
#    y 0.000000 1.769720 0.000000 
#    z 0.000000 0.000000 1.796690 
# 
# From -- ./inp_files/38311.got.cif
#   From: 2010.05.17/outbox.cif.g08.bks.cpg/sg21_20_cif.got.tgz:38311.got - 2010.06.03 23:14:55.
