data_PCOD9323952
_publ_section_title
;
Structure prediction by ZEFSAII (Michael W. Deem and Ramdas Pophale) SiO2 
 PCOD9323952
Probable space group: C 2 2 2
;
_chemical_formula_sum "Si O2"
_cell_formula_units_Z 64
_cell_length_a 16.899308
_cell_length_b 12.543196
_cell_length_c 12.799503
_cell_angle_alpha 90.000000
_cell_angle_beta 90.000000
_cell_angle_gamma 90.000000
_cell_volume 2713.127706
_symmetry_space_group_name_H-M "C 2 2 2"
_symmetry_group_IT_number 21
_symmetry_cell_setting 'orthorhombic'
loop_
_space_group_symop_operation_xyz
x,y,z
-x,-y,z
x,-y,-z
-x,y,-z
1/2+x,1/2+y,z
1/2-x,1/2-y,z
1/2+x,1/2-y,-z
1/2-x,1/2+y,-z
loop_
_atom_site_type_symbol
_atom_site_label
_atom_site_fract_x
_atom_site_fract_y
_atom_site_fract_z
Si Si1 0.349074 0.887060 0.527582
Si Si2 0.713035 0.640225 0.760239
Si Si3 0.661025 0.962417 0.889668
Si Si4 0.589183 0.483324 0.672961
Si Si5 0.436395 0.092245 0.260794
Si Si6 0.949296 0.812516 0.158582
Si Si7 0.813709 0.827348 0.470109
Si Si8 0.886922 0.774132 0.941963
O O1 0.370759 0.889707 0.650119
O O2 0.259438 0.890435 0.477298
O O3 0.370482 0.767205 0.487600
O O4 0.387355 0.000000 0.500000
O O5 0.750000 0.750000 0.715765
O O6 0.780700 0.557067 0.791600
O O7 0.641357 0.588313 0.695779
O O8 0.681639 0.671812 0.875648
O O9 0.617448 0.850440 0.912168
O O10 0.599535 0.048244 0.847188
O O11 0.696901 0.000000 0.000000
O O12 0.500000 0.500000 0.634960
O O13 0.579305 0.414658 0.778370
O O14 0.636269 0.409741 0.593172
O O15 0.464436 0.211955 0.234969
O O16 0.500000 0.000000 0.291274
O O17 0.033361 0.826684 0.102752
O O18 0.887568 0.787389 0.065991
O O19 0.750000 0.750000 0.406792
#
# Coordination Sequence:
#
# PCOD9323952 Si02
#       8
#     8   8   8   8   8   8   8   8
#     4   9  20  42  71  97 128 163 212 275 335 412
#     4  10  24  40  52  85 130 177 232 286 340 391
#     4  11  22  36  57  84 125 180 223 285 328 389
#     4  12  22  39  68  95 137 177 228 285 341 408
#     4  12  22  36  65  94 127 170 223 272 339 402
#     4  11  21  36  58  88 124 177 234 277 332 391
#     4   8  20  41  72  99 130 160 216 266 339 416
#     4  10  21  38  53  79 129 181 236 276 327 391
#
# _framework density 23.589009999999998
#
# number of rings (size 3 to 8) (size 9 to 14) (size 15 to 20)
#    0.750    0.750    5.000    0.750    1.750    0.500 
#    0.000    0.000   27.500    0.375    0.000    0.000 
#    0.000    0.000    0.000    0.000    0.000    0.000 
#
# Total GULP energy -178175.660654 kJ/mol
# GULP energy per Si atom -5567.989395 kJ/mol
# Density = 2.353532 g / cm^3
# Si number density = 23.589010 Si / 1000 Ang^3
#
#
#
# Elastic Constant Matrix: (Units=GPa)
#
#
# Indices 1 2 3 4 5 6 
#
# 1 74.6331 24.0417 9.5876 0.0000 0.0000 0.0000
# 2 24.0417 115.1984 10.0168 0.0000 0.0000 0.0000
# 3 9.5876 10.0168 39.6173 0.0000 0.0000 0.0000
# 4 0.0000 0.0000 0.0000 35.6853 0.0000 0.0000
# 5 0.0000 0.0000 0.0000 0.0000 -76.6133 0.0000
# 6 0.0000 0.0000 0.0000 0.0000 0.0000 34.7550
#
#
#
# Elastic Compliance Matrix: (Units=1/GPa)
#
#
# Indices 1 2 3 4 5 6 
#
# 1 0.014670 -0.002815 -0.002839 0.000000 0.000000 0.000000
# 2 -0.002815 0.009416 -0.001699 0.000000 0.000000 0.000000
# 3 -0.002839 -0.001699 0.026358 0.000000 0.000000 0.000000
# 4 0.000000 0.000000 0.000000 0.028023 0.000000 0.000000
# 5 0.000000 0.000000 0.000000 0.000000 -0.013053 0.000000
# 6 0.000000 0.000000 0.000000 0.000000 0.000000 0.028773
#
#
# Mechanical properties :
#
#
# Convention : Reuss Voigt Hill
#
# Bulk Modulus (GPa) = 27.98103 35.19344 31.58723
# Shear Modulus (GPa) = 41.38862 11.15222 26.27042
#
# Velocity S-wave (km/s) = 4.19331 2.17669 3.34079
# Velocity P-wave (km/s) = 5.94413 4.61185 5.31986
#
# Compressibility (1/GPa) = 0.03573850
#
# Stress axis : x y z
#
# Youngs Moduli (GPa) = 68.16494 106.20322 37.93890
#
# Poissons Ratio (x) = 0.29895 0.10769
# Poissons Ratio (y) = 0.19187 0.06448
# Poissons Ratio (z) = 0.19349 0.18049
#
# Static dielectric constant tensor:
#      x y z
#    x 1.995610 0.000000 0.000000 
#    y 0.000000 2.138260 0.000000 
#    z 0.000000 0.000000 1.978580 
# 
# From -- ./inp_files/32965.got.cif
#   From: 2010.05.17/outbox.cif.g08.bks.cpg/sg21_17_cif.got.tgz:32965.got - 2010.06.03 23:14:55.
