data_PCOD9323657
_publ_section_title
;
Structure prediction by ZEFSAII (Michael W. Deem and Ramdas Pophale) SiO2 
 PCOD9323657
Probable space group: C 2 2 2
;
_chemical_formula_sum "Si O2"
_cell_formula_units_Z 54
_cell_length_a 20.501710
_cell_length_b 26.641736
_cell_length_c 5.412728
_cell_angle_alpha 90.000000
_cell_angle_beta 90.000000
_cell_angle_gamma 90.000000
_cell_volume 2956.438233
_symmetry_space_group_name_H-M "C 2 2 2"
_symmetry_group_IT_number 21
_symmetry_cell_setting 'orthorhombic'
loop_
_space_group_symop_operation_xyz
x,y,z
-x,-y,z
x,-y,-z
-x,y,-z
1/2+x,1/2+y,z
1/2-x,1/2-y,z
1/2+x,1/2-y,-z
1/2-x,1/2+y,-z
loop_
_atom_site_type_symbol
_atom_site_label
_atom_site_fract_x
_atom_site_fract_y
_atom_site_fract_z
Si Si1 0.617851 0.847673 0.806393
Si Si2 0.500000 0.170376 0.500000
Si Si3 0.892009 0.452645 0.174342
Si Si4 0.754648 0.031057 0.260075
Si Si5 0.730241 0.646247 0.748270
Si Si6 0.000000 0.500000 0.500000
Si Si7 0.696347 0.295275 0.744915
Si Si8 0.935571 0.255835 0.893571
O O1 0.562716 0.857771 0.602886
O O2 0.609457 0.898813 0.965355
O O3 0.691707 0.846448 0.719281
O O4 0.600321 0.793844 0.917396
O O5 0.530773 0.205982 0.705763
O O6 0.822108 0.456659 0.308377
O O7 0.953780 0.464169 0.341274
O O8 0.891786 0.500000 0.000000
O O9 0.785082 0.086801 0.239311
O O10 0.778170 0.000000 0.500000
O O11 0.760433 0.000000 0.000000
O O12 0.700761 0.672800 0.506828
O O13 0.711745 0.672785 0.007193
O O14 0.750000 0.250000 0.732740
O O15 0.622567 0.275221 0.773956
O O16 0.000000 0.227753 0.000000
#
# Coordination Sequence:
#
# PCOD9323657 Si02
#       8
#     8   4   8   8   8   2   8   8
#     4  10  21  38  52  79 105 157 204 248 299 353
#     4  10  21  36  56  75 106 158 197 246 287 364
#     4  10  22  33  48  67 105 140 198 254 298 333
#     4  10  20  40  59  82 114 152 189 245 305 353
#     4  11  24  37  64  89 120 157 206 250 303 354
#     4  12  20  32  44  74  92 152 194 260 294 328
#     4  12  23  39  60  92 123 160 205 255 294 356
#     4  10  23  38  58  81 117 159 198 242 300 353
#
# _framework density 18.265222000000001
#
# number of rings (size 3 to 8) (size 9 to 14) (size 15 to 20)
#    0.000    1.481    2.222    2.889    4.148    4.741 
#    0.000    0.000    0.000    0.000    0.000    0.000 
#    0.000    8.889    0.000    0.000    0.000    0.000 
#
# Total GULP energy -150406.307691 kJ/mol
# GULP energy per Si atom -5570.603989 kJ/mol
# Density = 1.822365 g / cm^3
# Si number density = 18.265222 Si / 1000 Ang^3
#
#
#
# Elastic Constant Matrix: (Units=GPa)
#
#
# Indices 1 2 3 4 5 6 
#
# 1 75.4088 22.7444 4.0754 0.0000 0.0000 0.0000
# 2 22.7444 90.3417 31.7430 0.0000 0.0000 0.0000
# 3 4.0754 31.7430 63.2500 0.0000 0.0000 0.0000
# 4 0.0000 0.0000 0.0000 28.3594 0.0000 0.0000
# 5 0.0000 0.0000 0.0000 0.0000 21.4519 0.0000
# 6 0.0000 0.0000 0.0000 0.0000 0.0000 12.4287
#
#
#
# Elastic Compliance Matrix: (Units=1/GPa)
#
#
# Indices 1 2 3 4 5 6 
#
# 1 0.014412 -0.004009 0.001083 0.000000 0.000000 0.000000
# 2 -0.004009 0.014554 -0.007046 0.000000 0.000000 0.000000
# 3 0.001083 -0.007046 0.019277 0.000000 0.000000 0.000000
# 4 0.000000 0.000000 0.000000 0.035262 0.000000 0.000000
# 5 0.000000 0.000000 0.000000 0.000000 0.046616 0.000000
# 6 0.000000 0.000000 0.000000 0.000000 0.000000 0.080459
#
#
# Mechanical properties :
#
#
# Convention : Reuss Voigt Hill
#
# Bulk Modulus (GPa) = 35.33647 38.45845 36.89746
# Shear Modulus (GPa) = 20.83728 23.81052 22.32390
#
# Velocity S-wave (km/s) = 3.38126 3.61446 3.49980
# Velocity P-wave (km/s) = 5.88492 6.20647 6.04783
#
# Compressibility (1/GPa) = 0.02829937
#
# Stress axis : x y z
#
# Youngs Moduli (GPa) = 69.38829 68.70937 51.87649
#
# Poissons Ratio (x) = 0.27545 -0.05620
# Poissons Ratio (y) = 0.27817 0.36552
# Poissons Ratio (z) = -0.07517 0.48412
#
# Static dielectric constant tensor:
#      x y z
#    x 1.651290 0.000000 0.000000 
#    y 0.000000 1.688770 0.000000 
#    z 0.000000 0.000000 1.733640 
# 
# From -- ./inp_files/6110.got.cif
#   From: 2010.05.17/outbox.cif.g08.bks.cpg/sg21_4_cif.got.tgz:6110.got - 2010.06.03 23:14:55.
