data_PCOD9323610
_publ_section_title
;
Structure prediction by ZEFSAII (Michael W. Deem and Ramdas Pophale) SiO2 
 PCOD9323610
Probable space group: C 2 2 2
;
_chemical_formula_sum "Si O2"
_cell_formula_units_Z 52
_cell_length_a 18.194735
_cell_length_b 15.699742
_cell_length_c 8.962992
_cell_angle_alpha 90.000000
_cell_angle_beta 90.000000
_cell_angle_gamma 90.000000
_cell_volume 2560.302374
_symmetry_space_group_name_H-M "C 2 2 2"
_symmetry_group_IT_number 21
_symmetry_cell_setting 'orthorhombic'
loop_
_space_group_symop_operation_xyz
x,y,z
-x,-y,z
x,-y,-z
-x,y,-z
1/2+x,1/2+y,z
1/2-x,1/2-y,z
1/2+x,1/2-y,-z
1/2-x,1/2+y,-z
loop_
_atom_site_type_symbol
_atom_site_label
_atom_site_fract_x
_atom_site_fract_y
_atom_site_fract_z
Si Si1 0.070800 0.226341 0.896929
Si Si2 0.201160 0.562758 0.752914
Si Si3 0.924894 0.143409 0.427059
Si Si4 0.164332 0.376644 0.765827
Si Si5 0.331222 0.208590 0.443679
Si Si6 0.718821 0.340792 0.003680
Si Si7 0.312163 0.500000 0.500000
O O1 0.059470 0.182259 0.736005
O O2 0.108298 0.317752 0.858703
O O3 0.132427 0.169881 0.981266
O O4 0.000000 0.234050 0.000000
O O5 0.154110 0.477697 0.777503
O O6 0.156658 0.644604 0.693678
O O7 0.248364 0.588515 0.896113
O O8 0.259467 0.541679 0.622817
O O9 0.890326 0.217255 0.532417
O O10 0.864203 0.069870 0.424138
O O11 0.000000 0.112208 0.500000
O O12 0.164494 0.346284 0.595732
O O13 0.244427 0.355891 0.835031
O O14 0.250000 0.250000 0.431383
O O15 0.750000 0.250000 0.948913
#
# Coordination Sequence:
#
# PCOD9323610 Si02
#       7
#     8   8   8   8   8   8   4
#     4  10  23  42  65  88 128 174 215 256 318 392
#     4  12  21  35  67  99 124 155 212 266 320 375
#     4  11  25  41  63  88 129 172 211 260 321 382
#     4  10  20  39  61  93 126 163 204 266 325 368
#     4  11  19  37  63  91 122 162 209 259 315 378
#     4  10  22  37  61  91 123 160 208 257 309 376
#     4  12  23  38  64  94 131 158 204 272 321 380
#
# _framework density 20.310103000000002
#
# number of rings (size 3 to 8) (size 9 to 14) (size 15 to 20)
#    0.000    1.231    3.077    4.385    2.154    1.231 
#    0.000    0.000    0.000   27.692    0.000    0.000 
#    0.000    0.000    0.000    0.000    0.000    0.000 
#
# Total GULP energy -145341.891963 kJ/mol
# GULP energy per Si atom -5590.072768 kJ/mol
# Density = 2.026388 g / cm^3
# Si number density = 20.310103 Si / 1000 Ang^3
#
#
#
# Elastic Constant Matrix: (Units=GPa)
#
#
# Indices 1 2 3 4 5 6 
#
# 1 69.3229 2.2210 25.1129 0.0000 0.0000 0.0000
# 2 2.2210 87.2058 21.1239 0.0000 0.0000 0.0000
# 3 25.1129 21.1239 59.8619 0.0000 0.0000 0.0000
# 4 0.0000 0.0000 0.0000 34.1908 0.0000 0.0000
# 5 0.0000 0.0000 0.0000 0.0000 23.7187 0.0000
# 6 0.0000 0.0000 0.0000 0.0000 0.0000 13.7219
#
#
#
# Elastic Compliance Matrix: (Units=1/GPa)
#
#
# Indices 1 2 3 4 5 6 
#
# 1 0.017172 0.001430 -0.007708 0.000000 0.000000 0.000000
# 2 0.001430 0.012658 -0.005067 0.000000 0.000000 0.000000
# 3 -0.007708 -0.005067 0.021727 0.000000 0.000000 0.000000
# 4 0.000000 0.000000 0.000000 0.029248 0.000000 0.000000
# 5 0.000000 0.000000 0.000000 0.000000 0.042161 0.000000
# 6 0.000000 0.000000 0.000000 0.000000 0.000000 0.072876
#
#
# Mechanical properties :
#
#
# Convention : Reuss Voigt Hill
#
# Bulk Modulus (GPa) = 34.64232 34.81181 34.72706
# Shear Modulus (GPa) = 21.91505 25.52179 23.71842
#
# Velocity S-wave (km/s) = 3.28841 3.54871 3.42104
# Velocity P-wave (km/s) = 5.61355 5.82825 5.72190
#
# Compressibility (1/GPa) = 0.02886643
#
# Stress axis : x y z
#
# Youngs Moduli (GPa) = 58.23465 79.00153 46.02611
#
# Poissons Ratio (x) = -0.11296 0.35479
# Poissons Ratio (y) = -0.08327 0.23319
# Poissons Ratio (z) = 0.44890 0.40027
#
# Static dielectric constant tensor:
#      x y z
#    x 1.682330 0.000000 0.000000 
#    y 0.000000 1.760610 0.000000 
#    z 0.000000 0.000000 1.732710 
# 
# From -- ./inp_files/16641.got.cif
#   From: 2010.05.17/outbox.cif.g08.bks.cpg/sg21_9_cif.got.tgz:16641.got - 2010.06.03 23:14:55.
