data_PCOD9323060
_publ_section_title
;
Structure prediction by ZEFSAII (Michael W. Deem and Ramdas Pophale) SiO2 
 PCOD9323060
Probable space group: C 2 2 2
;
_chemical_formula_sum "Si O2"
_cell_formula_units_Z 48
_cell_length_a 17.724956
_cell_length_b 8.656842
_cell_length_c 16.101501
_cell_angle_alpha 90.000000
_cell_angle_beta 90.000000
_cell_angle_gamma 90.000000
_cell_volume 2470.648828
_symmetry_space_group_name_H-M "C 2 2 2"
_symmetry_group_IT_number 21
_symmetry_cell_setting 'orthorhombic'
loop_
_space_group_symop_operation_xyz
x,y,z
-x,-y,z
x,-y,-z
-x,y,-z
1/2+x,1/2+y,z
1/2-x,1/2-y,z
1/2+x,1/2-y,-z
1/2-x,1/2+y,-z
loop_
_atom_site_type_symbol
_atom_site_label
_atom_site_fract_x
_atom_site_fract_y
_atom_site_fract_z
Si Si1 0.591253 0.325852 0.793189
Si Si2 0.453009 0.149298 0.728080
Si Si3 0.740541 0.565128 0.414555
Si Si4 0.580706 0.551019 0.637456
Si Si5 0.309744 0.026905 0.236975
Si Si6 0.794145 0.089467 0.914501
O O1 0.511502 0.239928 0.787020
O O2 0.587789 0.461863 0.726058
O O3 0.654542 0.199791 0.765628
O O4 0.621213 0.381986 0.881381
O O5 0.426154 0.267784 0.657322
O O6 0.500000 0.000000 0.695968
O O7 0.379813 0.087177 0.774769
O O8 0.774698 0.500000 0.500000
O O9 0.750000 0.750000 0.414753
O O10 0.654098 0.506400 0.410280
O O11 0.776984 0.504422 0.328951
O O12 0.500000 0.500000 0.601173
O O13 0.249234 0.011055 0.163743
O O14 0.750000 0.250000 0.926909
O O15 0.791650 0.000000 0.000000
#
# Coordination Sequence:
#
# PCOD9323060 Si02
#       6
#     8   8   8   8   8   8
#     4   9  17  38  61  87 121 173 201 252 325 386
#     4   9  20  34  63  94 119 163 217 258 321 388
#     4  12  25  41  63  95 131 170 219 269 330 395
#     4  10  20  38  64  86 122 168 209 254 324 383
#     4  10  19  39  64  86 126 165 207 272 320 373
#     4  10  20  35  61  94 124 162 211 262 322 383
#
# _framework density 19.428096
#
# number of rings (size 3 to 8) (size 9 to 14) (size 15 to 20)
#    0.000    2.000    3.333    0.500    2.333    1.667 
#    0.000    0.000    0.000   35.500    0.000    0.000 
#    0.000    0.000    0.000    0.000    0.000    0.000 
#
# Total GULP energy -133869.557541 kJ/mol
# GULP energy per Si atom -5577.898231 kJ/mol
# Density = 1.938388 g / cm^3
# Si number density = 19.428096 Si / 1000 Ang^3
#
#
#
# Elastic Constant Matrix: (Units=GPa)
#
#
# Indices 1 2 3 4 5 6 
#
# 1 102.6330 37.7767 50.2730 0.0000 0.0000 0.0000
# 2 37.7767 84.5617 42.1881 0.0000 0.0000 0.0000
# 3 50.2730 42.1881 144.6442 0.0000 0.0000 0.0000
# 4 0.0000 0.0000 0.0000 13.2469 0.0000 0.0000
# 5 0.0000 0.0000 0.0000 0.0000 -1.5591 0.0000
# 6 0.0000 0.0000 0.0000 0.0000 0.0000 15.7708
#
#
#
# Elastic Compliance Matrix: (Units=1/GPa)
#
#
# Indices 1 2 3 4 5 6 
#
# 1 0.012859 -0.004113 -0.003270 0.000000 0.000000 0.000000
# 2 -0.004113 0.015155 -0.002991 0.000000 0.000000 0.000000
# 3 -0.003270 -0.002991 0.008922 0.000000 0.000000 0.000000
# 4 0.000000 0.000000 0.000000 0.075489 0.000000 0.000000
# 5 0.000000 0.000000 0.000000 0.000000 -0.641383 0.000000
# 6 0.000000 0.000000 0.000000 0.000000 0.000000 0.063408
#
#
# Mechanical properties :
#
#
# Convention : Reuss Voigt Hill
#
# Bulk Modulus (GPa) = 61.76923 65.81272 63.79098
# Shear Modulus (GPa) = -11.37902 18.93179 3.77638
#
# Velocity S-wave (km/s) = -2.42275 3.12501 1.39571
# Velocity P-wave (km/s) = 4.90270 6.85343 5.95844
#
# Compressibility (1/GPa) = 0.01618929
#
# Stress axis : x y z
#
# Youngs Moduli (GPa) = 77.76633 65.98337 112.08014
#
# Poissons Ratio (x) = 0.27141 0.36646
# Poissons Ratio (y) = 0.31988 0.33519
# Poissons Ratio (z) = 0.25426 0.19733
#
# Static dielectric constant tensor:
#      x y z
#    x 1.726250 0.000000 0.000000 
#    y 0.000000 1.715360 0.000000 
#    z 0.000000 0.000000 1.659460 
# 
# From -- ./inp_files/32848.got.cif
#   From: 2010.05.17/outbox.cif.g08.bks.cpg/sg21_17_cif.got.tgz:32848.got - 2010.06.03 23:14:55.
