data_PCOD9323607
_publ_section_title
;
Structure prediction by ZEFSAII (Michael W. Deem and Ramdas Pophale) SiO2 
 PCOD9323607
Probable space group: C 2 2 2
;
_chemical_formula_sum "Si O2"
_cell_formula_units_Z 64
_cell_length_a 8.661145
_cell_length_b 19.304325
_cell_length_c 16.356980
_cell_angle_alpha 90.000000
_cell_angle_beta 90.000000
_cell_angle_gamma 90.000000
_cell_volume 2734.847111
_symmetry_space_group_name_H-M "C 2 2 2"
_symmetry_group_IT_number 21
_symmetry_cell_setting 'orthorhombic'
loop_
_space_group_symop_operation_xyz
x,y,z
-x,-y,z
x,-y,-z
-x,y,-z
1/2+x,1/2+y,z
1/2-x,1/2-y,z
1/2+x,1/2-y,-z
1/2-x,1/2+y,-z
loop_
_atom_site_type_symbol
_atom_site_label
_atom_site_fract_x
_atom_site_fract_y
_atom_site_fract_z
Si Si1 0.166718 0.908367 0.535754
Si Si2 0.261239 0.962293 0.697877
Si Si3 0.422948 0.104983 0.741911
Si Si4 0.665682 0.678924 0.047042
Si Si5 0.778082 0.666288 0.881058
Si Si6 0.852006 0.317702 0.414647
Si Si7 0.592002 0.723242 0.351971
Si Si8 0.023597 0.871465 0.790481
O O1 0.230457 0.964276 0.600345
O O2 0.293596 0.879894 0.471650
O O3 0.125134 0.841056 0.589815
O O4 0.000000 0.927512 0.500000
O O5 0.402772 0.908970 0.712021
O O6 0.106166 0.933239 0.740581
O O7 0.329348 0.032995 0.733994
O O8 0.424425 0.141405 0.829912
O O9 0.338417 0.155049 0.677776
O O10 0.750000 0.750000 0.066781
O O11 0.634139 0.641759 0.131865
O O12 0.500000 0.690222 0.000000
O O13 0.769768 0.645431 0.975747
O O14 0.750000 0.750000 0.877234
O O15 0.641523 0.625532 0.834026
O O16 0.750000 0.250000 0.430147
O O17 0.021435 0.283703 0.408516
O O18 0.750000 0.750000 0.315903
O O19 0.504769 0.691709 0.274196
#
# Coordination Sequence:
#
# PCOD9323607 Si02
#       8
#     8   8   8   8   8   8   8   8
#     4  11  24  41  61  92 127 162 217 271 329 402
#     4  10  26  45  63  87 121 173 222 264 322 389
#     4  11  24  44  64  89 123 164 219 270 321 391
#     4   9  19  34  59  95 135 169 206 260 323 393
#     4  10  21  38  64  99 132 163 208 265 327 388
#     4  12  23  39  63  90 122 162 201 270 333 381
#     4  11  22  34  58  92 125 162 206 255 323 385
#     4  10  20  39  60  90 130 169 214 255 317 394
#
# _framework density 23.401672000000001
#
# number of rings (size 3 to 8) (size 9 to 14) (size 15 to 20)
#    0.000    1.500    1.250    4.125    1.750    6.500 
#    0.000    2.500    0.000    3.750    0.000    0.000 
#    0.000    0.000    0.000    0.000    0.000    0.000 
#
# Total GULP energy -178728.036768 kJ/mol
# GULP energy per Si atom -5585.251149 kJ/mol
# Density = 2.334841 g / cm^3
# Si number density = 23.401672 Si / 1000 Ang^3
#
#
#
# Elastic Constant Matrix: (Units=GPa)
#
#
# Indices 1 2 3 4 5 6 
#
# 1 60.5813 17.8252 11.9990 0.0000 0.0000 0.0000
# 2 17.8252 80.7056 19.9322 0.0000 0.0000 0.0000
# 3 11.9990 19.9322 113.5699 0.0000 0.0000 0.0000
# 4 0.0000 0.0000 0.0000 -1.6917 0.0000 0.0000
# 5 0.0000 0.0000 0.0000 0.0000 34.2424 0.0000
# 6 0.0000 0.0000 0.0000 0.0000 0.0000 20.1228
#
#
#
# Elastic Compliance Matrix: (Units=1/GPa)
#
#
# Indices 1 2 3 4 5 6 
#
# 1 0.017821 -0.003628 -0.001246 0.000000 0.000000 0.000000
# 2 -0.003628 0.013691 -0.002019 0.000000 0.000000 0.000000
# 3 -0.001246 -0.002019 0.009291 0.000000 0.000000 0.000000
# 4 0.000000 0.000000 0.000000 -0.591131 0.000000 0.000000
# 5 0.000000 0.000000 0.000000 0.000000 0.029204 0.000000
# 6 0.000000 0.000000 0.000000 0.000000 0.000000 0.049695
#
#
# Mechanical properties :
#
#
# Convention : Reuss Voigt Hill
#
# Bulk Modulus (GPa) = 37.01589 39.37441 38.19515
# Shear Modulus (GPa) = -11.14488 24.20806 6.53159
#
# Velocity S-wave (km/s) = -2.18467 3.21979 1.67246
# Velocity P-wave (km/s) = 3.08030 5.53938 4.48180
#
# Compressibility (1/GPa) = 0.02701543
#
# Stress axis : x y z
#
# Youngs Moduli (GPa) = 56.11315 73.04141 107.62842
#
# Poissons Ratio (x) = 0.26502 0.13411
# Poissons Ratio (y) = 0.20360 0.21735
# Poissons Ratio (z) = 0.06992 0.14751
#
# Static dielectric constant tensor:
#      x y z
#    x 1.983130 0.000000 0.000000 
#    y 0.000000 1.902360 0.000000 
#    z 0.000000 0.000000 1.883180 
# 
# From -- ./inp_files/35916.got.cif
#   From: 2010.05.17/outbox.cif.g08.bks.cpg/sg21_18_cif.got.tgz:35916.got - 2010.06.03 23:14:55.
