data_PCOD9323753
_publ_section_title
;
Structure prediction by ZEFSAII (Michael W. Deem and Ramdas Pophale) SiO2 
 PCOD9323753
Probable space group: C 2 2 2
;
_chemical_formula_sum "Si O2"
_cell_formula_units_Z 64
_cell_length_a 14.011884
_cell_length_b 7.719219
_cell_length_c 26.927805
_cell_angle_alpha 90.000000
_cell_angle_beta 90.000000
_cell_angle_gamma 90.000000
_cell_volume 2912.532963
_symmetry_space_group_name_H-M "C 2 2 2"
_symmetry_group_IT_number 21
_symmetry_cell_setting 'orthorhombic'
loop_
_space_group_symop_operation_xyz
x,y,z
-x,-y,z
x,-y,-z
-x,y,-z
1/2+x,1/2+y,z
1/2-x,1/2-y,z
1/2+x,1/2-y,-z
1/2-x,1/2+y,-z
loop_
_atom_site_type_symbol
_atom_site_label
_atom_site_fract_x
_atom_site_fract_y
_atom_site_fract_z
Si Si1 0.103718 0.082731 0.646403
Si Si2 0.932069 0.832964 0.878768
Si Si3 0.607570 0.992301 0.632040
Si Si4 0.730204 0.453032 0.442908
Si Si5 0.402906 0.795574 0.816590
Si Si6 0.854140 0.787175 0.285727
Si Si7 0.748637 0.512730 0.146371
Si Si8 0.888344 0.555922 0.945250
O O1 0.117794 0.290334 0.649779
O O2 0.139317 0.022615 0.592199
O O3 0.158242 0.972551 0.687859
O O4 0.000000 0.000000 0.653039
O O5 0.900015 0.758001 0.931811
O O6 0.000146 0.704385 0.847532
O O7 0.830778 0.862301 0.851958
O O8 0.000000 0.000000 0.883817
O O9 0.682154 0.033751 0.588182
O O10 0.500000 0.000000 0.612335
O O11 0.618899 0.138084 0.674524
O O12 0.720549 0.500000 0.500000
O O13 0.750000 0.250000 0.442254
O O14 0.422785 0.722920 0.761596
O O15 0.329505 0.666486 0.844982
O O16 0.335841 0.965548 0.814792
O O17 0.750000 0.750000 0.264692
O O18 0.810126 0.511096 0.094901
O O19 0.000000 0.500000 0.939888
O O20 0.858582 0.500000 0.000000
#
# Coordination Sequence:
#
# PCOD9323753 Si02
#       8
#     8   8   8   8   8   8   8   8
#     4  11  24  43  66  97 140 181 230 292 345 428
#     4  10  22  44  70  97 138 176 225 288 343 418
#     4  11  24  45  63 100 138 178 234 288 348 423
#     4  10  24  40  66  96 131 178 234 287 350 420
#     4  10  22  44  69 102 137 179 229 290 343 424
#     4  12  23  43  74  96 139 194 227 289 373 406
#     4  10  20  42  67  94 136 174 220 278 341 405
#     4  11  23  43  68  99 136 183 223 280 347 403
#
# _framework density 21.974001999999999
#
# number of rings (size 3 to 8) (size 9 to 14) (size 15 to 20)
#    0.000    1.375    5.000    0.375    1.750    2.000 
#    6.750    5.000    0.000    0.000    0.000    0.000 
#    0.000    0.000    0.000    0.000    0.000    0.000 
#
# Total GULP energy -178153.156299 kJ/mol
# GULP energy per Si atom -5567.286134 kJ/mol
# Density = 2.192399 g / cm^3
# Si number density = 21.974002 Si / 1000 Ang^3
#
#
#
# Elastic Constant Matrix: (Units=GPa)
#
#
# Indices 1 2 3 4 5 6 
#
# 1 68.4635 13.5463 -3.3436 0.0000 0.0000 0.0000
# 2 13.5463 88.3153 23.9741 0.0000 0.0000 0.0000
# 3 -3.3436 23.9741 102.0044 0.0000 0.0000 0.0000
# 4 0.0000 0.0000 0.0000 3.3400 0.0000 0.0000
# 5 0.0000 0.0000 0.0000 0.0000 -22.1031 0.0000
# 6 0.0000 0.0000 0.0000 0.0000 0.0000 37.5577
#
#
#
# Elastic Compliance Matrix: (Units=1/GPa)
#
#
# Indices 1 2 3 4 5 6 
#
# 1 0.015182 -0.002632 0.001116 0.000000 0.000000 0.000000
# 2 -0.002632 0.012551 -0.003036 0.000000 0.000000 0.000000
# 3 0.001116 -0.003036 0.010554 0.000000 0.000000 0.000000
# 4 0.000000 0.000000 0.000000 0.299404 0.000000 0.000000
# 5 0.000000 0.000000 0.000000 0.000000 -0.045243 0.000000
# 6 0.000000 0.000000 0.000000 0.000000 0.000000 0.026626
#
#
# Mechanical properties :
#
#
# Convention : Reuss Voigt Hill
#
# Bulk Modulus (GPa) = 34.26659 36.34854 35.30756
# Shear Modulus (GPa) = 14.79709 18.73268 16.76489
#
# Velocity S-wave (km/s) = 2.59779 2.92292 2.76514
# Velocity P-wave (km/s) = 4.96246 5.28855 5.12810
#
# Compressibility (1/GPa) = 0.02918295
#
# Stress axis : x y z
#
# Youngs Moduli (GPa) = 65.86947 79.67558 94.75389
#
# Poissons Ratio (x) = 0.20968 -0.10576
# Poissons Ratio (y) = 0.17334 0.28768
# Poissons Ratio (z) = -0.07352 0.24190
#
# Static dielectric constant tensor:
#      x y z
#    x 1.881910 0.000000 0.000000 
#    y 0.000000 2.035590 0.000000 
#    z 0.000000 0.000000 1.789650 
# 
# From -- ./inp_files/38771.got.cif
#   From: 2010.05.17/outbox.cif.g08.bks.cpg/sg21_20_cif.got.tgz:38771.got - 2010.06.03 23:14:55.
