data_PCOD9323526
_publ_section_title
;
Structure prediction by ZEFSAII (Michael W. Deem and Ramdas Pophale) SiO2 
 PCOD9323526
Probable space group: C 2 2 2
;
_chemical_formula_sum "Si O2"
_cell_formula_units_Z 58
_cell_length_a 25.768784
_cell_length_b 12.095140
_cell_length_c 9.597821
_cell_angle_alpha 90.000000
_cell_angle_beta 90.000000
_cell_angle_gamma 90.000000
_cell_volume 2991.420537
_symmetry_space_group_name_H-M "C 2 2 2"
_symmetry_group_IT_number 21
_symmetry_cell_setting 'orthorhombic'
loop_
_space_group_symop_operation_xyz
x,y,z
-x,-y,z
x,-y,-z
-x,y,-z
1/2+x,1/2+y,z
1/2-x,1/2-y,z
1/2+x,1/2-y,-z
1/2-x,1/2+y,-z
loop_
_atom_site_type_symbol
_atom_site_label
_atom_site_fract_x
_atom_site_fract_y
_atom_site_fract_z
Si Si1 0.207961 0.918016 0.880559
Si Si2 0.405421 0.870310 0.121155
Si Si3 0.871542 0.029565 0.660943
Si Si4 0.500000 0.000000 0.000000
Si Si5 0.941225 0.766605 0.364915
Si Si6 0.943934 0.176701 0.306484
Si Si7 0.677182 0.162806 0.873742
Si Si8 0.616738 0.947601 0.347491
O O1 0.269911 0.905657 0.892180
O O2 0.188697 0.792029 0.893993
O O3 0.182577 0.969859 0.742344
O O4 0.189004 0.000000 0.000000
O O5 0.415251 0.754214 0.195980
O O6 0.384092 0.952680 0.238571
O O7 0.367925 0.865861 0.986333
O O8 0.461093 0.920822 0.082425
O O9 0.916238 0.941813 0.704657
O O10 0.862420 0.000000 0.500000
O O11 0.896364 0.150331 0.683574
O O12 0.938852 0.781593 0.532879
O O13 0.932509 0.636174 0.339412
O O14 0.993844 0.812156 0.294795
O O15 0.660329 0.133098 0.715954
O O16 0.622467 0.000000 0.500000
#
# Coordination Sequence:
#
# PCOD9323526 Si02
#       8
#     8   8   8   2   8   8   8   8
#     4  11  23  43  69  94 122 177 220 274 342 391
#     4  12  23  40  58  91 128 166 215 257 321 385
#     4  10  21  40  67  91 128 165 217 273 325 392
#     4  12  24  36  62  84 130 184 198 260 318 390
#     4  10  20  38  59  96 131 167 210 262 331 384
#     4  10  21  36  62  94 128 170 211 262 321 399
#     4  11  25  44  65  92 136 166 220 282 327 395
#     4  12  22  40  64  90 128 168 212 267 321 393
#
# _framework density 19.388781000000002
#
# number of rings (size 3 to 8) (size 9 to 14) (size 15 to 20)
#    0.000    1.103    4.138    2.897    0.000    2.207 
#    0.000    0.000    0.000    2.483    0.000    0.000 
#    0.000    0.000    0.000    0.000    0.000    0.000 
#
# Total GULP energy -161622.825964 kJ/mol
# GULP energy per Si atom -5573.200895 kJ/mol
# Density = 1.934465 g / cm^3
# Si number density = 19.388781 Si / 1000 Ang^3
#
#
#
# Elastic Constant Matrix: (Units=GPa)
#
#
# Indices 1 2 3 4 5 6 
#
# 1 97.2243 37.3209 53.2198 0.0000 0.0000 0.0000
# 2 37.3209 109.9999 50.4321 0.0000 0.0000 0.0000
# 3 53.2198 50.4321 75.2922 0.0000 0.0000 0.0000
# 4 0.0000 0.0000 0.0000 31.5127 0.0000 0.0000
# 5 0.0000 0.0000 0.0000 0.0000 16.4507 0.0000
# 6 0.0000 0.0000 0.0000 0.0000 0.0000 28.7250
#
#
#
# Elastic Compliance Matrix: (Units=1/GPa)
#
#
# Indices 1 2 3 4 5 6 
#
# 1 0.016787 -0.000369 -0.011619 0.000000 0.000000 0.000000
# 2 -0.000369 0.013128 -0.008533 0.000000 0.000000 0.000000
# 3 -0.011619 -0.008533 0.027210 0.000000 0.000000 0.000000
# 4 0.000000 0.000000 0.000000 0.031733 0.000000 0.000000
# 5 0.000000 0.000000 0.000000 0.000000 0.060788 0.000000
# 6 0.000000 0.000000 0.000000 0.000000 0.000000 0.034813
#
#
# Mechanical properties :
#
#
# Convention : Reuss Voigt Hill
#
# Bulk Modulus (GPa) = 62.17296 62.71800 62.44548
# Shear Modulus (GPa) = 21.65803 24.77392 23.21597
#
# Velocity S-wave (km/s) = 3.34584 3.57843 3.46409
# Velocity P-wave (km/s) = 6.86019 7.03501 6.94815
#
# Compressibility (1/GPa) = 0.01608416
#
# Stress axis : x y z
#
# Youngs Moduli (GPa) = 59.56951 76.17257 36.75133
#
# Poissons Ratio (x) = 0.02807 0.42701
# Poissons Ratio (y) = 0.02195 0.31360
# Poissons Ratio (z) = 0.69214 0.64997
#
# Static dielectric constant tensor:
#      x y z
#    x 1.712400 0.000000 0.000000 
#    y 0.000000 1.715270 0.000000 
#    z 0.000000 0.000000 1.699310 
# 
# From -- ./inp_files/19182.got.cif
#   From: 2010.05.17/outbox.cif.g08.bks.cpg/sg21_10_cif.got.tgz:19182.got - 2010.06.03 23:14:55.
