data_PCOD9323028
_publ_section_title
;
Structure prediction by ZEFSAII (Michael W. Deem and Ramdas Pophale) SiO2 
 PCOD9323028
Probable space group: C 2 2 2
;
_chemical_formula_sum "Si O2"
_cell_formula_units_Z 58
_cell_length_a 17.911182
_cell_length_b 19.149741
_cell_length_c 8.527836
_cell_angle_alpha 90.000000
_cell_angle_beta 90.000000
_cell_angle_gamma 90.000000
_cell_volume 2925.000813
_symmetry_space_group_name_H-M "C 2 2 2"
_symmetry_group_IT_number 21
_symmetry_cell_setting 'orthorhombic'
loop_
_space_group_symop_operation_xyz
x,y,z
-x,-y,z
x,-y,-z
-x,y,-z
1/2+x,1/2+y,z
1/2-x,1/2-y,z
1/2+x,1/2-y,-z
1/2-x,1/2+y,-z
loop_
_atom_site_type_symbol
_atom_site_label
_atom_site_fract_x
_atom_site_fract_y
_atom_site_fract_z
Si Si1 0.654506 0.072413 0.938726
Si Si2 0.000000 0.000000 0.500000
Si Si3 0.667210 0.720459 0.677925
Si Si4 0.249959 0.040685 0.350838
Si Si5 0.577857 0.365616 0.907189
Si Si6 0.911432 0.719253 0.976533
Si Si7 0.607300 0.379892 0.550666
Si Si8 0.307181 0.422392 0.866873
O O1 0.684799 0.065764 0.762359
O O2 0.612184 0.144262 0.961362
O O3 0.728459 0.079082 0.045209
O O4 0.617649 0.000000 0.000000
O O5 0.062823 0.940023 0.453961
O O6 0.750000 0.750000 0.637982
O O7 0.622047 0.768807 0.801501
O O8 0.614232 0.694399 0.535963
O O9 0.681731 0.647561 0.767876
O O10 0.192706 0.098162 0.413889
O O11 0.281049 0.000000 0.500000
O O12 0.199378 0.987331 0.249238
O O13 0.569934 0.378631 0.723032
O O14 0.500000 0.367345 0.000000
O O15 0.614726 0.288673 0.929350
O O16 0.630246 0.419682 0.999164
O O17 0.000000 0.721838 0.000000
#
# Coordination Sequence:
#
# PCOD9323028 Si02
#       8
#     8   2   8   8   8   8   8   8
#     4  10  21  38  66  91 123 164 214 271 334 408
#     4  12  28  40  62  88 148 188 214 272 336 416
#     4  11  22  40  69  94 132 174 222 280 336 402
#     4  11  21  38  59  93 132 167 215 279 323 389
#     4  10  24  39  59  87 128 175 227 265 319 402
#     4  10  23  43  65  95 128 168 214 281 336 405
#     4  12  25  40  60  93 133 182 228 270 337 394
#     4  10  19  38  59  89 124 165 221 262 330 381
#
# _framework density 19.829055
#
# number of rings (size 3 to 8) (size 9 to 14) (size 15 to 20)
#    0.000    1.379    4.828    0.000    7.724    1.379 
#    0.000    0.000    0.000    0.000    0.000    7.724 
#    0.000    0.000    0.000    0.000    0.000    0.000 
#
# Total GULP energy -161567.434807 kJ/mol
# GULP energy per Si atom -5571.290855 kJ/mol
# Density = 1.978392 g / cm^3
# Si number density = 19.829055 Si / 1000 Ang^3
#
#
#
# Elastic Constant Matrix: (Units=GPa)
#
#
# Indices 1 2 3 4 5 6 
#
# 1 58.5209 31.2053 25.0342 0.0000 0.0000 0.0000
# 2 31.2053 111.5294 33.1319 0.0000 0.0000 0.0000
# 3 25.0342 33.1319 105.0368 0.0000 0.0000 0.0000
# 4 0.0000 0.0000 0.0000 23.1491 0.0000 0.0000
# 5 0.0000 0.0000 0.0000 0.0000 18.8775 0.0000
# 6 0.0000 0.0000 0.0000 0.0000 0.0000 12.0656
#
#
#
# Elastic Compliance Matrix: (Units=1/GPa)
#
#
# Indices 1 2 3 4 5 6 
#
# 1 0.021196 -0.004888 -0.003510 0.000000 0.000000 0.000000
# 2 -0.004888 0.011020 -0.002311 0.000000 0.000000 0.000000
# 3 -0.003510 -0.002311 0.011086 0.000000 0.000000 0.000000
# 4 0.000000 0.000000 0.000000 0.043198 0.000000 0.000000
# 5 0.000000 0.000000 0.000000 0.000000 0.052973 0.000000
# 6 0.000000 0.000000 0.000000 0.000000 0.000000 0.082881
#
#
# Mechanical properties :
#
#
# Convention : Reuss Voigt Hill
#
# Bulk Modulus (GPa) = 45.69493 50.42552 48.06022
# Shear Modulus (GPa) = 19.91500 23.19946 21.55723
#
# Velocity S-wave (km/s) = 3.17256 3.42420 3.30078
# Velocity P-wave (km/s) = 6.04274 6.41240 6.23031
#
# Compressibility (1/GPa) = 0.02188427
#
# Stress axis : x y z
#
# Youngs Moduli (GPa) = 47.17931 90.74070 90.20324
#
# Poissons Ratio (x) = 0.44352 0.31661
# Poissons Ratio (y) = 0.23060 0.20848
# Poissons Ratio (z) = 0.16560 0.20972
#
# Static dielectric constant tensor:
#      x y z
#    x 1.705020 0.000000 0.000000 
#    y 0.000000 1.742870 0.000000 
#    z 0.000000 0.000000 1.761300 
# 
# From -- ./inp_files/16699.got.cif
#   From: 2010.05.17/outbox.cif.g08.bks.cpg/sg21_9_cif.got.tgz:16699.got - 2010.06.03 23:14:55.
