data_PCOD9323043
_publ_section_title
;
Structure prediction by ZEFSAII (Michael W. Deem and Ramdas Pophale) SiO2 
 PCOD9323043
Probable space group: C 2 2 2
;
_chemical_formula_sum "Si O2"
_cell_formula_units_Z 38
_cell_length_a 18.117895
_cell_length_b 7.965573
_cell_length_c 10.770971
_cell_angle_alpha 90.000000
_cell_angle_beta 90.000000
_cell_angle_gamma 90.000000
_cell_volume 1554.460236
_symmetry_space_group_name_H-M "C 2 2 2"
_symmetry_group_IT_number 21
_symmetry_cell_setting 'orthorhombic'
loop_
_space_group_symop_operation_xyz
x,y,z
-x,-y,z
x,-y,-z
-x,y,-z
1/2+x,1/2+y,z
1/2-x,1/2-y,z
1/2+x,1/2-y,-z
1/2-x,1/2+y,-z
loop_
_atom_site_type_symbol
_atom_site_label
_atom_site_fract_x
_atom_site_fract_y
_atom_site_fract_z
Si Si1 0.077582 0.836378 0.268161
Si Si2 0.668708 0.000000 0.000000
Si Si3 0.234773 0.936328 0.241441
Si Si4 0.047351 0.671048 0.849824
Si Si5 0.500000 0.500000 0.500000
Si Si6 0.131224 0.474282 0.357863
O O1 0.147278 0.950282 0.230134
O O2 0.106580 0.646118 0.288791
O O3 0.013017 0.816593 0.165461
O O4 0.048952 0.894678 0.402625
O O5 0.614725 0.147415 0.946898
O O6 0.722484 0.947906 0.888928
O O7 0.250000 0.750000 0.293683
O O8 0.282121 0.054083 0.331901
O O9 0.084263 0.664391 0.713214
O O10 0.000000 0.500000 0.867374
O O11 0.114612 0.500000 0.500000
#
# Coordination Sequence:
#
# PCOD9323043 Si02
#       6
#     8   4   8   8   2   8
#     4  10  21  37  54  88 124 161 196 238 303 366
#     4  10  19  38  64  87 112 150 202 260 303 346
#     4   9  20  37  57  83 117 151 192 252 302 349
#     4   9  18  33  61  92 111 141 201 263 306 344
#     4  12  24  36  58  74 144 180 190 230 298 396
#     4   9  17  33  62  87 109 143 201 259 300 342
#
# _framework density 24.445782999999999
#
# number of rings (size 3 to 8) (size 9 to 14) (size 15 to 20)
#    0.000    2.526    0.000    2.842    1.474    2.947 
#    3.789    0.000    0.000    0.000    0.000    0.000 
#    0.000    0.000    0.000    0.000    0.000    0.000 
#
# Total GULP energy -106008.034172 kJ/mol
# GULP energy per Si atom -5579.370220 kJ/mol
# Density = 2.439014 g / cm^3
# Si number density = 24.445783 Si / 1000 Ang^3
#
#
#
# Elastic Constant Matrix: (Units=GPa)
#
#
# Indices 1 2 3 4 5 6 
#
# 1 190.5009 35.4983 61.8611 0.0000 0.0000 0.0000
# 2 35.4983 56.7849 -4.3176 0.0000 0.0000 0.0000
# 3 61.8611 -4.3176 126.7461 0.0000 0.0000 0.0000
# 4 0.0000 0.0000 0.0000 21.2165 0.0000 0.0000
# 5 0.0000 0.0000 0.0000 0.0000 1.8600 0.0000
# 6 0.0000 0.0000 0.0000 0.0000 0.0000 13.1772
#
#
#
# Elastic Compliance Matrix: (Units=1/GPa)
#
#
# Indices 1 2 3 4 5 6 
#
# 1 0.007389 -0.004906 -0.003773 0.000000 0.000000 0.000000
# 2 -0.004906 0.020913 0.003107 0.000000 0.000000 0.000000
# 3 -0.003773 0.003107 0.009837 0.000000 0.000000 0.000000
# 4 0.000000 0.000000 0.000000 0.047133 0.000000 0.000000
# 5 0.000000 0.000000 0.000000 0.000000 0.537648 0.000000
# 6 0.000000 0.000000 0.000000 0.000000 0.000000 0.075889
#
#
# Mechanical properties :
#
#
# Convention : Reuss Voigt Hill
#
# Bulk Modulus (GPa) = 37.04440 62.23504 49.63972
# Shear Modulus (GPa) = 6.95457 25.98341 16.46899
#
# Velocity S-wave (km/s) = 1.68851 3.26375 2.59838
# Velocity P-wave (km/s) = 4.35752 6.30210 5.41777
#
# Compressibility (1/GPa) = 0.02699463
#
# Stress axis : x y z
#
# Youngs Moduli (GPa) = 135.33939 47.81617 101.65384
#
# Poissons Ratio (x) = 0.23458 0.38358
# Poissons Ratio (y) = 0.66397 -0.31582
# Poissons Ratio (z) = 0.51069 -0.14856
#
# Static dielectric constant tensor:
#      x y z
#    x 2.069020 0.000000 0.000000 
#    y 0.000000 2.012750 0.000000 
#    z 0.000000 0.000000 1.937430 
# 
# From -- ./inp_files/25032.got.cif
#   From: 2010.05.17/outbox.cif.g08.bks.cpg/sg21_13_cif.got.tgz:25032.got - 2010.06.03 23:14:55.
