data_PCOD9323210
_publ_section_title
;
Structure prediction by ZEFSAII (Michael W. Deem and Ramdas Pophale) SiO2 
 PCOD9323210
Probable space group: C 2 2 2
;
_chemical_formula_sum "Si O2"
_cell_formula_units_Z 60
_cell_length_a 5.283718
_cell_length_b 29.013790
_cell_length_c 21.574473
_cell_angle_alpha 90.000000
_cell_angle_beta 90.000000
_cell_angle_gamma 90.000000
_cell_volume 3307.381478
_symmetry_space_group_name_H-M "C 2 2 2"
_symmetry_group_IT_number 21
_symmetry_cell_setting 'orthorhombic'
loop_
_space_group_symop_operation_xyz
x,y,z
-x,-y,z
x,-y,-z
-x,y,-z
1/2+x,1/2+y,z
1/2-x,1/2-y,z
1/2+x,1/2-y,-z
1/2-x,1/2+y,-z
loop_
_atom_site_type_symbol
_atom_site_label
_atom_site_fract_x
_atom_site_fract_y
_atom_site_fract_z
Si Si1 0.250181 0.030625 0.679324
Si Si2 0.250000 0.750000 0.739661
Si Si3 0.650560 0.202898 0.324977
Si Si4 0.751102 0.068632 0.461263
Si Si5 0.711448 0.120309 0.236133
Si Si6 0.250924 0.680071 0.463156
Si Si7 0.803773 0.160127 0.822448
Si Si8 0.750057 0.805330 0.039463
O O1 0.244554 0.049863 0.608588
O O2 0.269953 0.071443 0.729735
O O3 0.500000 0.000000 0.684839
O O4 0.000000 0.000000 0.688815
O O5 0.359347 0.787357 0.688958
O O6 0.160579 0.789795 0.788819
O O7 0.750000 0.250000 0.293195
O O8 0.740783 0.157957 0.290695
O O9 0.733918 0.200118 0.394867
O O10 0.500000 0.055426 0.500000
O O11 0.752587 0.124402 0.457388
O O12 0.000000 0.054860 0.500000
O O13 0.441672 0.133662 0.205563
O O14 0.944070 0.130553 0.190341
O O15 0.500000 0.694129 0.500000
O O16 0.000000 0.693126 0.500000
O O17 0.757584 0.169974 0.894470
O O18 0.750000 0.750000 0.050059
O O19 0.500000 0.816606 0.000000
O O20 0.000000 0.816427 0.000000
#
# Coordination Sequence:
#
# PCOD9323210 Si02
#       8
#     8   4   8   8   8   8   8   8
#     4  12  25  42  64  90 116 150 196 253 322 381
#     4  10  22  34  56  88 112 162 206 248 266 364
#     4  11  22  38  58  81 112 150 204 247 296 346
#     4  10  21  39  59  84 111 145 189 243 310 382
#     4  11  24  40  60  89 121 158 197 255 297 353
#     4  10  23  38  57  76 107 147 193 251 305 358
#     4  11  21  38  60  86 128 163 211 229 294 335
#     4  10  20  34  55  88 131 174 210 246 276 322
#
# _framework density 18.141238999999999
#
# number of rings (size 3 to 8) (size 9 to 14) (size 15 to 20)
#    0.000    1.333    3.333    2.400    1.867    2.133 
#    0.000    0.000    0.000    0.000    0.000    0.000 
#    0.000   37.333    0.000    0.000    0.000    0.000 
#
# Total GULP energy -167299.789429 kJ/mol
# GULP energy per Si atom -5576.659648 kJ/mol
# Density = 1.809995 g / cm^3
# Si number density = 18.141239 Si / 1000 Ang^3
#
#
#
# Elastic Constant Matrix: (Units=GPa)
#
#
# Indices 1 2 3 4 5 6 
#
# 1 149.4721 51.1512 70.2852 0.0000 0.0000 0.0000
# 2 51.1512 105.6817 50.4726 0.0000 0.0000 0.0000
# 3 70.2852 50.4726 142.9950 0.0000 0.0000 0.0000
# 4 0.0000 0.0000 0.0000 27.6535 0.0000 0.0000
# 5 0.0000 0.0000 0.0000 0.0000 30.0507 0.0000
# 6 0.0000 0.0000 0.0000 0.0000 0.0000 9.0511
#
#
#
# Elastic Compliance Matrix: (Units=1/GPa)
#
#
# Indices 1 2 3 4 5 6 
#
# 1 0.009343 -0.002801 -0.003604 0.000000 0.000000 0.000000
# 2 -0.002801 0.012221 -0.002937 0.000000 0.000000 0.000000
# 3 -0.003604 -0.002937 0.009801 0.000000 0.000000 0.000000
# 4 0.000000 0.000000 0.000000 0.036162 0.000000 0.000000
# 5 0.000000 0.000000 0.000000 0.000000 0.033277 0.000000
# 6 0.000000 0.000000 0.000000 0.000000 0.000000 0.110484
#
#
# Mechanical properties :
#
#
# Convention : Reuss Voigt Hill
#
# Bulk Modulus (GPa) = 78.85190 82.44074 80.64632
# Shear Modulus (GPa) = 21.34941 28.43372 24.89157
#
# Velocity S-wave (km/s) = 3.43424 3.96328 3.70820
# Velocity P-wave (km/s) = 7.69969 8.15389 7.93004
#
# Compressibility (1/GPa) = 0.01268200
#
# Stress axis : x y z
#
# Youngs Moduli (GPa) = 107.02770 81.82830 102.02919
#
# Poissons Ratio (x) = 0.22922 0.36769
# Poissons Ratio (y) = 0.29980 0.29963
# Poissons Ratio (z) = 0.38570 0.24030
#
# Static dielectric constant tensor:
#      x y z
#    x 1.158460 0.000000 0.000000 
#    y 0.000000 1.615730 0.000000 
#    z 0.000000 0.000000 1.586390 
# 
# From -- ./inp_files/35259.got.cif
#   From: 2010.05.17/outbox.cif.g08.bks.cpg/sg21_18_cif.got.tgz:35259.got - 2010.06.03 23:14:55.
