data_PCOD9323426
_publ_section_title
;
Structure prediction by ZEFSAII (Michael W. Deem and Ramdas Pophale) SiO2 
 PCOD9323426
Probable space group: C 2 2 2
;
_chemical_formula_sum "Si O2"
_cell_formula_units_Z 56
_cell_length_a 21.416678
_cell_length_b 8.360535
_cell_length_c 14.043499
_cell_angle_alpha 90.000000
_cell_angle_beta 90.000000
_cell_angle_gamma 90.000000
_cell_volume 2514.557113
_symmetry_space_group_name_H-M "C 2 2 2"
_symmetry_group_IT_number 21
_symmetry_cell_setting 'orthorhombic'
loop_
_space_group_symop_operation_xyz
x,y,z
-x,-y,z
x,-y,-z
-x,y,-z
1/2+x,1/2+y,z
1/2-x,1/2-y,z
1/2+x,1/2-y,-z
1/2-x,1/2+y,-z
loop_
_atom_site_type_symbol
_atom_site_label
_atom_site_fract_x
_atom_site_fract_y
_atom_site_fract_z
Si Si1 0.599980 0.306190 0.864986
Si Si2 0.181795 0.419869 0.265132
Si Si3 0.874841 0.747393 0.649891
Si Si4 0.025949 0.673755 0.210276
Si Si5 0.808248 0.078885 0.194349
Si Si6 0.136091 0.336182 0.941699
Si Si7 0.684166 0.184493 0.528832
O O1 0.639140 0.169883 0.809869
O O2 0.529083 0.280618 0.833351
O O3 0.634662 0.468325 0.838380
O O4 0.610042 0.276706 0.975767
O O5 0.149190 0.575332 0.310725
O O6 0.244861 0.476877 0.210512
O O7 0.184731 0.303867 0.357377
O O8 0.941384 0.760950 0.700697
O O9 0.825912 0.864488 0.699860
O O10 0.869767 0.760385 0.536532
O O11 0.077996 0.637085 0.129559
O O12 0.000000 0.500000 0.240427
O O13 0.814722 0.232752 0.122447
O O14 0.344479 0.000000 0.000000
O O15 0.750000 0.250000 0.493331
O O16 0.682671 0.000000 0.500000
#
# Coordination Sequence:
#
# PCOD9323426 Si02
#       7
#     8   8   8   8   8   8   8
#     4  12  23  40  66  93 135 181 231 286 346 416
#     4  11  22  42  66  93 133 181 224 275 354 424
#     4  10  21  39  64  95 129 173 227 282 345 411
#     4  11  21  41  69  92 128 182 234 283 342 413
#     4  11  24  41  63 101 137 173 229 293 348 416
#     4  11  23  41  66  92 127 185 238 281 342 414
#     4  10  20  36  64  96 130 172 223 274 343 429
#
# _framework density 22.270323999999999
#
# number of rings (size 3 to 8) (size 9 to 14) (size 15 to 20)
#    0.000    1.143    2.857    5.143    0.000    2.286 
#    0.000   16.429    0.000    0.000    0.000    8.000 
#    0.000    0.000    0.000    0.000    0.000    0.000 
#
# Total GULP energy -156253.181532 kJ/mol
# GULP energy per Si atom -5580.470769 kJ/mol
# Density = 2.221964 g / cm^3
# Si number density = 22.270324 Si / 1000 Ang^3
#
#
#
# Elastic Constant Matrix: (Units=GPa)
#
#
# Indices 1 2 3 4 5 6 
#
# 1 113.9940 26.9516 65.9445 0.0000 0.0000 0.0000
# 2 26.9516 62.3644 23.3674 0.0000 0.0000 0.0000
# 3 65.9445 23.3674 157.0432 0.0000 0.0000 0.0000
# 4 0.0000 0.0000 0.0000 21.1425 0.0000 0.0000
# 5 0.0000 0.0000 0.0000 0.0000 187.8532 0.0000
# 6 0.0000 0.0000 0.0000 0.0000 0.0000 36.9579
#
#
#
# Elastic Compliance Matrix: (Units=1/GPa)
#
#
# Indices 1 2 3 4 5 6 
#
# 1 0.012298 -0.003579 -0.004631 0.000000 0.000000 0.000000
# 2 -0.003579 0.018023 -0.001179 0.000000 0.000000 0.000000
# 3 -0.004631 -0.001179 0.008488 0.000000 0.000000 0.000000
# 4 0.000000 0.000000 0.000000 0.047298 0.000000 0.000000
# 5 0.000000 0.000000 0.000000 0.000000 0.005323 0.000000
# 6 0.000000 0.000000 0.000000 0.000000 0.000000 0.027058
#
#
# Mechanical properties :
#
#
# Convention : Reuss Voigt Hill
#
# Bulk Modulus (GPa) = 49.92524 62.88096 56.40310
# Shear Modulus (GPa) = 34.73570 63.66660 49.20115
#
# Velocity S-wave (km/s) = 3.95363 5.35258 4.70539
# Velocity P-wave (km/s) = 6.58089 8.15456 7.40962
#
# Compressibility (1/GPa) = 0.02002995
#
# Stress axis : x y z
#
# Youngs Moduli (GPa) = 81.31459 55.48363 117.81496
#
# Poissons Ratio (x) = 0.19859 0.54566
# Poissons Ratio (y) = 0.29105 0.13888
# Poissons Ratio (z) = 0.37661 0.06540
#
# Static dielectric constant tensor:
#      x y z
#    x 1.823150 0.000000 0.000000 
#    y 0.000000 1.003410 0.000000 
#    z 0.000000 0.000000 1.843160 
# 
# From -- ./inp_files/33314.got.cif
#   From: 2010.05.17/outbox.cif.g08.bks.cpg/sg21_17_cif.got.tgz:33314.got - 2010.06.03 23:14:55.
