data_PCOD9323882
_publ_section_title
;
Structure prediction by ZEFSAII (Michael W. Deem and Ramdas Pophale) SiO2 
 PCOD9323882
Probable space group: C 2 2 2
;
_chemical_formula_sum "Si O2"
_cell_formula_units_Z 52
_cell_length_a 18.942059
_cell_length_b 6.954167
_cell_length_c 20.352418
_cell_angle_alpha 90.000000
_cell_angle_beta 90.000000
_cell_angle_gamma 90.000000
_cell_volume 2680.947531
_symmetry_space_group_name_H-M "C 2 2 2"
_symmetry_group_IT_number 21
_symmetry_cell_setting 'orthorhombic'
loop_
_space_group_symop_operation_xyz
x,y,z
-x,-y,z
x,-y,-z
-x,y,-z
1/2+x,1/2+y,z
1/2-x,1/2-y,z
1/2+x,1/2-y,-z
1/2-x,1/2+y,-z
loop_
_atom_site_type_symbol
_atom_site_label
_atom_site_fract_x
_atom_site_fract_y
_atom_site_fract_z
Si Si1 0.185533 0.000000 0.500000
Si Si2 0.000000 0.500000 0.644528
Si Si3 0.568358 0.373091 0.407781
Si Si4 0.920733 0.035043 0.077237
Si Si5 0.167715 0.744011 0.837079
Si Si6 0.678674 0.115948 0.069817
Si Si7 0.612723 0.298317 0.692980
Si Si8 0.250000 0.750000 0.608701
O O1 0.130012 0.134847 0.538333
O O2 0.233176 0.080270 0.441953
O O3 0.045518 0.344471 0.604910
O O4 0.051326 0.642516 0.683462
O O5 0.500000 0.500000 0.428544
O O6 0.593677 0.497762 0.343080
O O7 0.888441 0.246484 0.079370
O O8 0.863980 0.893386 0.110315
O O9 0.000000 0.000000 0.104405
O O10 0.924094 0.000000 0.000000
O O11 0.250000 0.750000 0.820934
O O12 0.166300 0.537920 0.872572
O O13 0.128499 0.798370 0.769872
O O14 0.750000 0.250000 0.074033
O O15 0.681138 0.000000 0.000000
O O16 0.681675 0.225125 0.653783
#
# Coordination Sequence:
#
# PCOD9323882 Si02
#       8
#     4   4   8   8   8   8   8   4
#     4  10  21  36  62  93 128 170 214 268 322 385
#     4  10  22  42  71  92 127 180 220 272 330 398
#     4   9  20  41  63  93 131 166 217 274 324 391
#     4  11  25  44  65 100 136 172 219 288 342 389
#     4  12  24  43  71  96 132 183 223 272 343 404
#     4  12  23  41  70  98 129 173 230 277 330 409
#     4  10  23  42  63  96 134 169 218 277 325 396
#     4  10  22  40  60  92 136 166 210 266 328 374
#
# _framework density 19.396128000000001
#
# number of rings (size 3 to 8) (size 9 to 14) (size 15 to 20)
#    0.000    1.385    3.846    1.154    2.154    4.923 
#    0.000    6.923    0.000    0.000    0.000    0.000 
#    0.000    0.000    0.000    0.000    0.000    0.000 
#
# Total GULP energy -144802.430537 kJ/mol
# GULP energy per Si atom -5569.324251 kJ/mol
# Density = 1.935198 g / cm^3
# Si number density = 19.396128 Si / 1000 Ang^3
#
#
#
# Elastic Constant Matrix: (Units=GPa)
#
#
# Indices 1 2 3 4 5 6 
#
# 1 57.1967 23.2988 25.8305 0.0000 0.0000 0.0000
# 2 23.2988 109.7085 40.2016 0.0000 0.0000 0.0000
# 3 25.8305 40.2016 104.4205 0.0000 0.0000 0.0000
# 4 0.0000 0.0000 0.0000 -20.5695 0.0000 0.0000
# 5 0.0000 0.0000 0.0000 0.0000 22.0144 0.0000
# 6 0.0000 0.0000 0.0000 0.0000 0.0000 15.4082
#
#
#
# Elastic Compliance Matrix: (Units=1/GPa)
#
#
# Indices 1 2 3 4 5 6 
#
# 1 0.020444 -0.002897 -0.003942 0.000000 0.000000 0.000000
# 2 -0.002897 0.011023 -0.003527 0.000000 0.000000 0.000000
# 3 -0.003942 -0.003527 0.011910 0.000000 0.000000 0.000000
# 4 0.000000 0.000000 0.000000 -0.048616 0.000000 0.000000
# 5 0.000000 0.000000 0.000000 0.000000 0.045425 0.000000
# 6 0.000000 0.000000 0.000000 0.000000 0.000000 0.064901
#
#
# Mechanical properties :
#
#
# Convention : Reuss Voigt Hill
#
# Bulk Modulus (GPa) = 44.16148 49.99859 47.08003
# Shear Modulus (GPa) = 37.49076 15.50360 26.49718
#
# Velocity S-wave (km/s) = 4.40124 2.83028 3.70010
# Velocity P-wave (km/s) = 6.97464 6.04270 6.52533
#
# Compressibility (1/GPa) = 0.02264417
#
# Stress axis : x y z
#
# Youngs Moduli (GPa) = 48.91455 90.72099 83.96563
#
# Poissons Ratio (x) = 0.26284 0.33097
# Poissons Ratio (y) = 0.14172 0.29615
# Poissons Ratio (z) = 0.19281 0.31998
#
# Static dielectric constant tensor:
#      x y z
#    x 1.698930 0.000000 0.000000 
#    y 0.000000 1.654860 0.000000 
#    z 0.000000 0.000000 1.735670 
# 
# From -- ./inp_files/37860.got.cif
#   From: 2010.05.17/outbox.cif.g08.bks.cpg/sg21_19_cif.got.tgz:37860.got - 2010.06.03 23:14:55.
