data_PCOD9323251
_publ_section_title
;
Structure prediction by ZEFSAII (Michael W. Deem and Ramdas Pophale) SiO2 
 PCOD9323251
Probable space group: C 2 2 2
;
_chemical_formula_sum "Si O2"
_cell_formula_units_Z 48
_cell_length_a 32.003527
_cell_length_b 8.165180
_cell_length_c 8.055654
_cell_angle_alpha 90.000000
_cell_angle_beta 90.000000
_cell_angle_gamma 90.000000
_cell_volume 2105.059669
_symmetry_space_group_name_H-M "C 2 2 2"
_symmetry_group_IT_number 21
_symmetry_cell_setting 'orthorhombic'
loop_
_space_group_symop_operation_xyz
x,y,z
-x,-y,z
x,-y,-z
-x,y,-z
1/2+x,1/2+y,z
1/2-x,1/2-y,z
1/2+x,1/2-y,-z
1/2-x,1/2+y,-z
loop_
_atom_site_type_symbol
_atom_site_label
_atom_site_fract_x
_atom_site_fract_y
_atom_site_fract_z
Si Si1 0.351446 0.808913 0.467608
Si Si2 0.500000 0.500000 0.500000
Si Si3 0.218919 0.104249 0.343970
Si Si4 0.132952 0.316641 0.909942
Si Si5 0.817505 0.000000 0.000000
Si Si6 0.000000 0.500000 0.500000
Si Si7 0.562206 0.251289 0.646455
Si Si8 0.452948 0.194675 0.997506
O O1 0.321397 0.690651 0.571551
O O2 0.346037 0.804198 0.270313
O O3 0.398019 0.762594 0.530276
O O4 0.345071 0.000000 0.500000
O O5 0.531604 0.399442 0.611291
O O6 0.250000 0.250000 0.297698
O O7 0.236817 0.000000 0.500000
O O8 0.208150 0.007572 0.174160
O O9 0.154755 0.166353 0.005593
O O10 0.135968 0.500000 0.000000
O O11 0.083723 0.277811 0.865884
O O12 0.969188 0.398733 0.614622
O O13 0.572129 0.247860 0.838634
O O14 0.500000 0.265465 0.000000
O O15 0.458087 0.000000 0.000000
#
# Coordination Sequence:
#
# PCOD9323251 Si02
#       8
#     8   2   8   8   4   2   8   8
#     4  12  24  46  78 109 149 204 257 317 390 473
#     4  10  28  38  62  98 142 194 254 322 372 448
#     4  12  28  53  83 118 156 197 250 317 396 474
#     4  11  25  44  74 112 155 203 261 319 381 462
#     4  12  26  54  81 118 154 200 252 317 386 472
#     4  10  20  34  62  90 122 186 250 302 352 426
#     4  11  23  40  64  95 140 191 253 305 372 446
#     4  10  21  38  63  95 140 192 252 319 373 431
#
# _framework density 22.802204
#
# number of rings (size 3 to 8) (size 9 to 14) (size 15 to 20)
#    0.000    0.833    2.500    5.500    5.833    2.000 
#    4.500    0.000    0.000    0.000    0.000    0.000 
#    0.000    0.000    0.000    0.000    0.000    0.000 
#
# Total GULP energy -133905.724286 kJ/mol
# GULP energy per Si atom -5579.405179 kJ/mol
# Density = 2.275030 g / cm^3
# Si number density = 22.802204 Si / 1000 Ang^3
#
#
#
# Elastic Constant Matrix: (Units=GPa)
#
#
# Indices 1 2 3 4 5 6 
#
# 1 79.3966 29.5400 23.1848 0.0000 0.0000 0.0000
# 2 29.5400 87.5117 28.1519 0.0000 0.0000 0.0000
# 3 23.1848 28.1519 127.7907 0.0000 0.0000 0.0000
# 4 0.0000 0.0000 0.0000 42.2846 0.0000 0.0000
# 5 0.0000 0.0000 0.0000 0.0000 45.8875 0.0000
# 6 0.0000 0.0000 0.0000 0.0000 0.0000 106.2805
#
#
#
# Elastic Compliance Matrix: (Units=1/GPa)
#
#
# Indices 1 2 3 4 5 6 
#
# 1 0.014739 -0.004429 -0.001698 0.000000 0.000000 0.000000
# 2 -0.004429 0.013629 -0.002199 0.000000 0.000000 0.000000
# 3 -0.001698 -0.002199 0.008618 0.000000 0.000000 0.000000
# 4 0.000000 0.000000 0.000000 0.023649 0.000000 0.000000
# 5 0.000000 0.000000 0.000000 0.000000 0.021792 0.000000
# 6 0.000000 0.000000 0.000000 0.000000 0.000000 0.009409
#
#
# Mechanical properties :
#
#
# Convention : Reuss Voigt Hill
#
# Bulk Modulus (GPa) = 49.17951 50.71693 49.94822
# Shear Modulus (GPa) = 43.37760 53.14536 48.26148
#
# Velocity S-wave (km/s) = 4.36632 4.83298 4.60556
# Velocity P-wave (km/s) = 6.85816 7.30986 7.08761
#
# Compressibility (1/GPa) = 0.02033367
#
# Stress axis : x y z
#
# Youngs Moduli (GPa) = 67.84864 73.37081 116.03805
#
# Poissons Ratio (x) = 0.32494 0.19708
# Poissons Ratio (y) = 0.30048 0.25517
# Poissons Ratio (z) = 0.11523 0.16134
#
# Static dielectric constant tensor:
#      x y z
#    x 1.831650 0.000000 0.000000 
#    y 0.000000 1.839130 0.000000 
#    z 0.000000 0.000000 1.892900 
# 
# From -- ./inp_files/19736.got.cif
#   From: 2010.05.17/outbox.cif.g08.bks.cpg/sg21_10_cif.got.tgz:19736.got - 2010.06.03 23:14:55.
