data_PCOD9323152
_publ_section_title
;
Structure prediction by ZEFSAII (Michael W. Deem and Ramdas Pophale) SiO2 
 PCOD9323152
Probable space group: C 2 2 2
;
_chemical_formula_sum "Si O2"
_cell_formula_units_Z 40
_cell_length_a 24.612416
_cell_length_b 8.551580
_cell_length_c 9.708174
_cell_angle_alpha 90.000000
_cell_angle_beta 90.000000
_cell_angle_gamma 90.000000
_cell_volume 2043.328354
_symmetry_space_group_name_H-M "C 2 2 2"
_symmetry_group_IT_number 21
_symmetry_cell_setting 'orthorhombic'
loop_
_space_group_symop_operation_xyz
x,y,z
-x,-y,z
x,-y,-z
-x,y,-z
1/2+x,1/2+y,z
1/2-x,1/2-y,z
1/2+x,1/2-y,-z
1/2-x,1/2+y,-z
loop_
_atom_site_type_symbol
_atom_site_label
_atom_site_fract_x
_atom_site_fract_y
_atom_site_fract_z
Si Si1 0.302265 0.640638 0.389282
Si Si2 0.043582 0.880808 0.708227
Si Si3 0.466532 0.837851 0.175745
Si Si4 0.127544 0.098842 0.861639
Si Si5 0.409965 0.173627 0.532197
O O1 0.295510 0.500000 0.500000
O O2 0.250000 0.750000 0.399341
O O3 0.316958 0.613107 0.227154
O O4 0.357246 0.727469 0.433477
O O5 0.062871 0.756249 0.597649
O O6 0.013048 0.793529 0.832951
O O7 0.091357 0.987370 0.764002
O O8 0.000000 0.000000 0.647365
O O9 0.410012 0.758345 0.115607
O O10 0.449627 0.842877 0.337068
O O11 0.500000 0.000000 0.143512
O O12 0.135753 0.000000 0.000000
O O13 0.391847 0.000000 0.500000
#
# Coordination Sequence:
#
# PCOD9323152 Si02
#       5
#     8   8   8   8   8
#     4  11  23  42  68  94 119 155 214 282 340 386
#     4  10  20  33  57  91 129 174 210 247 310 380
#     4  10  20  32  58  93 129 169 210 259 305 375
#     4  10  23  43  64  87 129 177 217 253 320 396
#     4  11  20  33  59  93 131 158 207 272 327 375
#
# _framework density 19.575904000000001
#
# number of rings (size 3 to 8) (size 9 to 14) (size 15 to 20)
#    0.000    1.600    4.000    1.200    0.000    7.600 
#    0.000    3.000    0.000    0.000    0.000    0.000 
#    0.000    0.000    0.000    0.000    0.000    0.000 
#
# Total GULP energy -111380.971866 kJ/mol
# GULP energy per Si atom -5569.048593 kJ/mol
# Density = 1.953135 g / cm^3
# Si number density = 19.575904 Si / 1000 Ang^3
#
#
#
# Elastic Constant Matrix: (Units=GPa)
#
#
# Indices 1 2 3 4 5 6 
#
# 1 102.0075 43.2554 45.4308 0.0000 0.0000 0.0000
# 2 43.2554 133.2377 44.3004 0.0000 0.0000 0.0000
# 3 45.4308 44.3004 109.1976 0.0000 0.0000 0.0000
# 4 0.0000 0.0000 0.0000 -59.9604 0.0000 0.0000
# 5 0.0000 0.0000 0.0000 0.0000 23.5879 0.0000
# 6 0.0000 0.0000 0.0000 0.0000 0.0000 41.2489
#
#
#
# Elastic Compliance Matrix: (Units=1/GPa)
#
#
# Indices 1 2 3 4 5 6 
#
# 1 0.012860 -0.002770 -0.004227 0.000000 0.000000 0.000000
# 2 -0.002770 0.009272 -0.002609 0.000000 0.000000 0.000000
# 3 -0.004227 -0.002609 0.011975 0.000000 0.000000 0.000000
# 4 0.000000 0.000000 0.000000 -0.016678 0.000000 0.000000
# 5 0.000000 0.000000 0.000000 0.000000 0.042395 0.000000
# 6 0.000000 0.000000 0.000000 0.000000 0.000000 0.024243
#
#
# Mechanical properties :
#
#
# Convention : Reuss Voigt Hill
#
# Bulk Modulus (GPa) = 67.13387 67.82400 67.47894
# Shear Modulus (GPa) = 46.19211 15.07235 30.63223
#
# Velocity S-wave (km/s) = 4.86288 2.77780 3.96004
# Velocity P-wave (km/s) = 8.11781 6.70896 7.44677
#
# Compressibility (1/GPa) = 0.01489561
#
# Stress axis : x y z
#
# Youngs Moduli (GPa) = 77.75990 107.85009 83.50884
#
# Poissons Ratio (x) = 0.29871 0.35297
# Poissons Ratio (y) = 0.21537 0.21790
# Poissons Ratio (z) = 0.32867 0.28141
#
# Static dielectric constant tensor:
#      x y z
#    x 1.689410 0.000000 0.000000 
#    y 0.000000 1.730850 0.000000 
#    z 0.000000 0.000000 1.769800 
# 
# From -- ./inp_files/11168.got.cif
#   From: 2010.05.17/outbox.cif.g08.bks.cpg/sg21_6_cif.got.tgz:11168.got - 2010.06.03 23:14:55.
