data_PCOD9323230
_publ_section_title
;
Structure prediction by ZEFSAII (Michael W. Deem and Ramdas Pophale) SiO2 
 PCOD9323230
Probable space group: C 2 2 2
;
_chemical_formula_sum "Si O2"
_cell_formula_units_Z 28
_cell_length_a 8.121069
_cell_length_b 12.507103
_cell_length_c 9.962217
_cell_angle_alpha 90.000000
_cell_angle_beta 90.000000
_cell_angle_gamma 90.000000
_cell_volume 1011.872806
_symmetry_space_group_name_H-M "C 2 2 2"
_symmetry_group_IT_number 21
_symmetry_cell_setting 'orthorhombic'
loop_
_space_group_symop_operation_xyz
x,y,z
-x,-y,z
x,-y,-z
-x,y,-z
1/2+x,1/2+y,z
1/2-x,1/2-y,z
1/2+x,1/2-y,-z
1/2-x,1/2+y,-z
loop_
_atom_site_type_symbol
_atom_site_label
_atom_site_fract_x
_atom_site_fract_y
_atom_site_fract_z
Si Si1 0.750000 0.750000 0.455775
Si Si2 0.525412 0.774153 0.201173
Si Si3 0.819372 0.923107 0.125586
Si Si4 0.826649 0.566800 0.664827
O O1 0.596172 0.755792 0.353027
O O2 0.762305 0.641055 0.543670
O O3 0.657725 0.847509 0.123925
O O4 0.528940 0.658043 0.139061
O O5 0.368104 0.845906 0.220681
O O6 0.797956 0.985541 0.266469
O O7 0.819245 0.000000 0.000000
O O8 0.000000 0.500000 0.643060
#
# Coordination Sequence:
#
# PCOD9323230 Si02
#       4
#     4   8   8   8
#     4  10  20  34  58  92 118 146 196 238 282 350
#     4   9  21  35  57  93 117 143 199 245 274 346
#     4   9  19  37  60  86 118 153 192 238 286 340
#     4  10  21  38  63  86 115 158 188 231 297 340
#
# _framework density 27.671461999999998
#
# number of rings (size 3 to 8) (size 9 to 14) (size 15 to 20)
#    0.000    2.857    0.000    0.857    0.000   23.429 
#    0.000    1.429    0.000   18.857    0.000    0.000 
#    0.000    0.000    0.000    0.000    0.000    0.000 
#
# Total GULP energy -78422.465065 kJ/mol
# GULP energy per Si atom -5601.604648 kJ/mol
# Density = 2.760848 g / cm^3
# Si number density = 27.671462 Si / 1000 Ang^3
#
#
#
# Elastic Constant Matrix: (Units=GPa)
#
#
# Indices 1 2 3 4 5 6 
#
# 1 68.6045 49.8641 10.1843 0.0000 0.0000 0.0000
# 2 49.8641 225.0260 109.2363 0.0000 0.0000 0.0000
# 3 10.1843 109.2363 173.3379 0.0000 0.0000 0.0000
# 4 0.0000 0.0000 0.0000 41.8048 0.0000 0.0000
# 5 0.0000 0.0000 0.0000 0.0000 22.9846 0.0000
# 6 0.0000 0.0000 0.0000 0.0000 0.0000 55.7702
#
#
#
# Elastic Compliance Matrix: (Units=1/GPa)
#
#
# Indices 1 2 3 4 5 6 
#
# 1 0.017882 -0.004974 0.002084 0.000000 0.000000 0.000000
# 2 -0.004974 0.007786 -0.004615 0.000000 0.000000 0.000000
# 3 0.002084 -0.004615 0.008555 0.000000 0.000000 0.000000
# 4 0.000000 0.000000 0.000000 0.023921 0.000000 0.000000
# 5 0.000000 0.000000 0.000000 0.000000 0.043507 0.000000
# 6 0.000000 0.000000 0.000000 0.000000 0.000000 0.017931
#
#
# Mechanical properties :
#
#
# Convention : Reuss Voigt Hill
#
# Bulk Modulus (GPa) = 52.04586 89.50420 70.77503
# Shear Modulus (GPa) = 35.46185 43.95750 39.70967
#
# Velocity S-wave (km/s) = 3.58373 3.98999 3.79230
# Velocity P-wave (km/s) = 5.99779 7.32408 6.69387
#
# Compressibility (1/GPa) = 0.01921382
#
# Stress axis : x y z
#
# Youngs Moduli (GPa) = 55.92083 128.43036 116.89438
#
# Poissons Ratio (x) = 0.63886 -0.24362
# Poissons Ratio (y) = 0.27817 0.53942
# Poissons Ratio (z) = -0.11655 0.59266
#
# Static dielectric constant tensor:
#      x y z
#    x 2.446670 0.000000 0.000000 
#    y 0.000000 2.175600 0.000000 
#    z 0.000000 0.000000 2.145770 
# 
# From -- ./inp_files/23371.got.cif
#   From: 2010.05.17/outbox.cif.g08.bks.cpg/sg21_12_cif.got.tgz:23371.got - 2010.06.03 23:14:55.
