data_PCOD9323973
_publ_section_title
;
Structure prediction by ZEFSAII (Michael W. Deem and Ramdas Pophale) SiO2 
 PCOD9323973
Probable space group: C 2 2 2
;
_chemical_formula_sum "Si O2"
_cell_formula_units_Z 64
_cell_length_a 15.705953
_cell_length_b 20.969713
_cell_length_c 8.497124
_cell_angle_alpha 90.000000
_cell_angle_beta 90.000000
_cell_angle_gamma 90.000000
_cell_volume 2798.522069
_symmetry_space_group_name_H-M "C 2 2 2"
_symmetry_group_IT_number 21
_symmetry_cell_setting 'orthorhombic'
loop_
_space_group_symop_operation_xyz
x,y,z
-x,-y,z
x,-y,-z
-x,y,-z
1/2+x,1/2+y,z
1/2-x,1/2-y,z
1/2+x,1/2-y,-z
1/2-x,1/2+y,-z
loop_
_atom_site_type_symbol
_atom_site_label
_atom_site_fract_x
_atom_site_fract_y
_atom_site_fract_z
Si Si1 0.715280 0.186786 0.010054
Si Si2 0.788727 0.500155 0.187584
Si Si3 0.460196 0.208960 0.805639
Si Si4 0.362411 0.200048 0.492428
Si Si5 0.358819 0.438421 0.413018
Si Si6 0.443797 0.315266 0.340313
Si Si7 0.106821 0.610455 0.783955
Si Si8 0.233737 0.868426 0.308492
O O1 0.750000 0.250000 0.930606
O O2 0.626557 0.203999 0.098032
O O3 0.783898 0.163564 0.139686
O O4 0.687094 0.134311 0.887485
O O5 0.718729 0.534488 0.303397
O O6 0.879866 0.535257 0.206581
O O7 0.792228 0.427972 0.252946
O O8 0.766034 0.500000 0.000000
O O9 0.434182 0.202655 0.624601
O O10 0.507274 0.277727 0.800231
O O11 0.524007 0.149965 0.837535
O O12 0.371399 0.263144 0.387523
O O13 0.376237 0.137792 0.387760
O O14 0.279252 0.185691 0.591363
O O15 0.399392 0.500000 0.500000
O O16 0.410450 0.386573 0.310742
O O17 0.331353 0.397680 0.567745
O O18 0.500000 0.321892 0.500000
#
# Coordination Sequence:
#
# PCOD9323973 Si02
#       8
#     8   8   8   8   8   8   8   8
#     4  11  24  38  61  92 129 172 208 262 326 384
#     4  11  22  41  59  90 131 174 210 260 314 386
#     4   9  21  41  62  93 129 161 206 273 317 376
#     4   9  19  37  62  90 121 153 202 265 311 367
#     4  10  22  37  62  91 125 168 215 271 312 380
#     4   9  19  36  62  91 122 158 210 266 333 370
#     4  11  20  38  62  87 127 164 210 253 317 377
#     4  10  21  38  59  88 123 161 217 264 308 371
#
# _framework density 22.869213999999999
#
# number of rings (size 3 to 8) (size 9 to 14) (size 15 to 20)
#    0.000    2.000    2.500    1.500    5.250    2.250 
#    0.000    2.500    0.000    7.500    0.000    7.000 
#    0.000    0.000    0.000    0.000    0.000    0.000 
#
# Total GULP energy -178310.129065 kJ/mol
# GULP energy per Si atom -5572.191533 kJ/mol
# Density = 2.281716 g / cm^3
# Si number density = 22.869214 Si / 1000 Ang^3
#
#
#
# Elastic Constant Matrix: (Units=GPa)
#
#
# Indices 1 2 3 4 5 6 
#
# 1 40.9342 37.3235 12.9614 0.0000 0.0000 0.0000
# 2 37.3235 131.8124 5.5975 0.0000 0.0000 0.0000
# 3 12.9614 5.5975 84.0833 0.0000 0.0000 0.0000
# 4 0.0000 0.0000 0.0000 14.3517 0.0000 0.0000
# 5 0.0000 0.0000 0.0000 0.0000 12.0971 0.0000
# 6 0.0000 0.0000 0.0000 0.0000 0.0000 5.6567
#
#
#
# Elastic Compliance Matrix: (Units=1/GPa)
#
#
# Indices 1 2 3 4 5 6 
#
# 1 0.034695 -0.009624 -0.004708 0.000000 0.000000 0.000000
# 2 -0.009624 0.010278 0.000799 0.000000 0.000000 0.000000
# 3 -0.004708 0.000799 0.012565 0.000000 0.000000 0.000000
# 4 0.000000 0.000000 0.000000 0.069678 0.000000 0.000000
# 5 0.000000 0.000000 0.000000 0.000000 0.082664 0.000000
# 6 0.000000 0.000000 0.000000 0.000000 0.000000 0.176782
#
#
# Mechanical properties :
#
#
# Convention : Reuss Voigt Hill
#
# Bulk Modulus (GPa) = 32.81529 40.95496 36.88513
# Shear Modulus (GPa) = 11.79562 19.81761 15.80662
#
# Velocity S-wave (km/s) = 2.27356 2.94694 2.63187
# Velocity P-wave (km/s) = 4.61219 5.43383 5.03978
#
# Compressibility (1/GPa) = 0.03047360
#
# Stress axis : x y z
#
# Youngs Moduli (GPa) = 28.82224 97.29729 79.58345
#
# Poissons Ratio (x) = 0.93642 0.37465
# Poissons Ratio (y) = 0.27739 -0.06362
# Poissons Ratio (z) = 0.13568 -0.07778
#
# Static dielectric constant tensor:
#      x y z
#    x 1.949580 0.000000 0.000000 
#    y 0.000000 1.880090 0.000000 
#    z 0.000000 0.000000 1.876170 
# 
# From -- ./inp_files/16837.got.cif
#   From: 2010.05.17/outbox.cif.g08.bks.cpg/sg21_9_cif.got.tgz:16837.got - 2010.06.03 23:14:55.
