data_PCOD9323044
_publ_section_title
;
Structure prediction by ZEFSAII (Michael W. Deem and Ramdas Pophale) SiO2 
 PCOD9323044
Probable space group: C 2 2 2
;
_chemical_formula_sum "Si O2"
_cell_formula_units_Z 58
_cell_length_a 26.947789
_cell_length_b 17.379616
_cell_length_c 5.731240
_cell_angle_alpha 90.000000
_cell_angle_beta 90.000000
_cell_angle_gamma 90.000000
_cell_volume 2684.181693
_symmetry_space_group_name_H-M "C 2 2 2"
_symmetry_group_IT_number 21
_symmetry_cell_setting 'orthorhombic'
loop_
_space_group_symop_operation_xyz
x,y,z
-x,-y,z
x,-y,-z
-x,y,-z
1/2+x,1/2+y,z
1/2-x,1/2-y,z
1/2+x,1/2-y,-z
1/2-x,1/2+y,-z
loop_
_atom_site_type_symbol
_atom_site_label
_atom_site_fract_x
_atom_site_fract_y
_atom_site_fract_z
Si Si1 0.552511 0.767288 0.054914
Si Si2 0.791204 0.026637 0.754199
Si Si3 0.177877 0.476114 0.251916
Si Si4 0.500000 0.500000 0.000000
Si Si5 0.142811 0.311161 0.296172
Si Si6 0.622018 0.308936 0.329472
Si Si7 0.452552 0.383886 0.345243
Si Si8 0.205332 0.189858 0.016561
O O1 0.590711 0.826126 0.169955
O O2 0.541369 0.701119 0.242596
O O3 0.500000 0.803727 0.000000
O O4 0.579149 0.718133 0.850206
O O5 0.734591 0.992855 0.751955
O O6 0.785140 0.117890 0.811158
O O7 0.811341 0.000000 0.500000
O O8 0.816001 0.000000 0.000000
O O9 0.154207 0.500000 0.500000
O O10 0.176616 0.384629 0.274662
O O11 0.156195 0.500000 0.000000
O O12 0.461437 0.446012 0.143437
O O13 0.135006 0.272042 0.544682
O O14 0.166695 0.242634 0.151844
O O15 0.597482 0.372604 0.501777
O O16 0.673158 0.336121 0.208515
O O17 0.500000 0.401257 0.500000
O O18 0.250000 0.250000 0.961006
#
# Coordination Sequence:
#
# PCOD9323044 Si02
#       8
#     8   8   8   2   8   8   8   8
#     4  10  19  38  64  90 125 160 219 273 340 405
#     4  10  23  42  67  91 134 187 229 279 356 417
#     4  10  22  40  65  99 133 172 225 286 344 419
#     4  12  22  32  68  94 132 180 240 288 366 436
#     4  10  23  37  64 101 130 171 227 281 345 412
#     4  10  23  38  67  96 133 168 235 290 348 414
#     4  11  20  38  63  93 127 173 227 292 349 423
#     4  11  23  41  68  98 137 177 236 294 349 427
#
# _framework density 21.608073999999998
#
# number of rings (size 3 to 8) (size 9 to 14) (size 15 to 20)
#    0.000    1.655    3.448    0.207    5.793    1.655 
#    0.000    0.000   36.414    0.414    0.000    0.000 
#    0.000    0.000    0.000    0.000    0.000    0.000 
#
# Total GULP energy -161484.216070 kJ/mol
# GULP energy per Si atom -5568.421244 kJ/mol
# Density = 2.155889 g / cm^3
# Si number density = 21.608074 Si / 1000 Ang^3
#
#
#
# Elastic Constant Matrix: (Units=GPa)
#
#
# Indices 1 2 3 4 5 6 
#
# 1 86.4124 5.2893 31.1912 0.0000 0.0000 0.0000
# 2 5.2893 71.4417 39.1047 0.0000 0.0000 0.0000
# 3 31.1912 39.1047 131.7591 0.0000 0.0000 0.0000
# 4 0.0000 0.0000 0.0000 27.1684 0.0000 0.0000
# 5 0.0000 0.0000 0.0000 0.0000 24.3718 0.0000
# 6 0.0000 0.0000 0.0000 0.0000 0.0000 11.0304
#
#
#
# Elastic Compliance Matrix: (Units=1/GPa)
#
#
# Indices 1 2 3 4 5 6 
#
# 1 0.012696 0.000842 -0.003255 0.000000 0.000000 0.000000
# 2 0.000842 0.016768 -0.005176 0.000000 0.000000 0.000000
# 3 -0.003255 -0.005176 0.009896 0.000000 0.000000 0.000000
# 4 0.000000 0.000000 0.000000 0.036807 0.000000 0.000000
# 5 0.000000 0.000000 0.000000 0.000000 0.041031 0.000000
# 6 0.000000 0.000000 0.000000 0.000000 0.000000 0.090658
#
#
# Mechanical properties :
#
#
# Convention : Reuss Voigt Hill
#
# Bulk Modulus (GPa) = 41.35343 48.97594 45.16469
# Shear Modulus (GPa) = 21.63598 26.78266 24.20932
#
# Velocity S-wave (km/s) = 3.16775 3.52444 3.35084
# Velocity P-wave (km/s) = 5.70605 6.26714 5.99316
#
# Compressibility (1/GPa) = 0.02418179
#
# Stress axis : x y z
#
# Youngs Moduli (GPa) = 78.76536 59.63660 101.04672
#
# Poissons Ratio (x) = -0.05021 0.32894
# Poissons Ratio (y) = -0.06631 0.52301
# Poissons Ratio (z) = 0.25641 0.30868
#
# Static dielectric constant tensor:
#      x y z
#    x 1.858450 0.000000 0.000000 
#    y 0.000000 1.239780 0.000000 
#    z 0.000000 0.000000 2.003290 
# 
# From -- ./inp_files/7490.got.cif
#   From: 2010.05.17/outbox.cif.g08.bks.cpg/sg21_4_cif.got.tgz:7490.got - 2010.06.03 23:14:55.
