data_PCOD9323005
_publ_section_title
;
Structure prediction by ZEFSAII (Michael W. Deem and Ramdas Pophale) SiO2 
 PCOD9323005
Probable space group: C 2 2 2
;
_chemical_formula_sum "Si O2"
_cell_formula_units_Z 56
_cell_length_a 13.499165
_cell_length_b 14.702119
_cell_length_c 13.431185
_cell_angle_alpha 90.000000
_cell_angle_beta 90.000000
_cell_angle_gamma 90.000000
_cell_volume 2665.637998
_symmetry_space_group_name_H-M "C 2 2 2"
_symmetry_group_IT_number 21
_symmetry_cell_setting 'orthorhombic'
loop_
_space_group_symop_operation_xyz
x,y,z
-x,-y,z
x,-y,-z
-x,y,-z
1/2+x,1/2+y,z
1/2-x,1/2-y,z
1/2+x,1/2-y,-z
1/2-x,1/2+y,-z
loop_
_atom_site_type_symbol
_atom_site_label
_atom_site_fract_x
_atom_site_fract_y
_atom_site_fract_z
Si Si1 0.895495 0.200778 0.455060
Si Si2 0.208737 0.485530 0.884581
Si Si3 0.309537 0.896375 0.461248
Si Si4 0.484294 0.723144 0.243917
Si Si5 0.340598 0.320451 0.931043
Si Si6 0.320238 0.336347 0.162505
Si Si7 0.434784 0.080858 0.725565
O O1 0.802749 0.136419 0.478626
O O2 0.872497 0.305106 0.492559
O O3 0.913278 0.197991 0.335815
O O4 0.000000 0.171982 0.500000
O O5 0.297949 0.413623 0.886964
O O6 0.251327 0.575535 0.833489
O O7 0.112998 0.449312 0.828739
O O8 0.183762 0.500000 0.000000
O O9 0.341688 0.900502 0.345732
O O10 0.326181 0.000000 0.500000
O O11 0.427839 0.712303 0.139503
O O12 0.586838 0.669055 0.236294
O O13 0.501334 0.830344 0.260839
O O14 0.250000 0.250000 0.925058
O O15 0.361424 0.332584 0.048315
O O16 0.250000 0.250000 0.177709
O O17 0.500000 0.000000 0.681832
#
# Coordination Sequence:
#
# PCOD9323005 Si02
#       7
#     8   8   8   8   8   8   8
#     4  10  24  44  66  98 124 163 215 260 318 386
#     4  10  21  38  58  88 127 169 211 260 303 367
#     4  10  24  43  69  93 128 163 204 264 322 384
#     4  11  22  39  65  88 124 165 210 258 308 381
#     4  10  19  37  63  85 124 170 213 255 308 364
#     4  10  22  38  56  90 131 166 208 260 311 359
#     4  11  23  38  63  96 124 163 214 257 316 378
#
# _framework density 21.008106000000002
#
# number of rings (size 3 to 8) (size 9 to 14) (size 15 to 20)
#    0.000    1.714    1.429    2.143    6.000    2.286 
#    5.143    3.571    0.000    0.000    0.000    0.000 
#    0.000    0.000    0.000    0.000    0.000    0.000 
#
# Total GULP energy -156259.731046 kJ/mol
# GULP energy per Si atom -5580.704680 kJ/mol
# Density = 2.096029 g / cm^3
# Si number density = 21.008106 Si / 1000 Ang^3
#
#
#
# Elastic Constant Matrix: (Units=GPa)
#
#
# Indices 1 2 3 4 5 6 
#
# 1 74.0282 1.0252 12.4325 0.0000 0.0000 0.0000
# 2 1.0252 78.1111 3.0641 0.0000 0.0000 0.0000
# 3 12.4325 3.0641 20.7098 0.0000 0.0000 0.0000
# 4 0.0000 0.0000 0.0000 31.4523 0.0000 0.0000
# 5 0.0000 0.0000 0.0000 0.0000 28.7790 0.0000
# 6 0.0000 0.0000 0.0000 0.0000 0.0000 10.0762
#
#
#
# Elastic Compliance Matrix: (Units=1/GPa)
#
#
# Indices 1 2 3 4 5 6 
#
# 1 0.015025 0.000158 -0.009043 0.000000 0.000000 0.000000
# 2 0.000158 0.012879 -0.002000 0.000000 0.000000 0.000000
# 3 -0.009043 -0.002000 0.054011 0.000000 0.000000 0.000000
# 4 0.000000 0.000000 0.000000 0.031794 0.000000 0.000000
# 5 0.000000 0.000000 0.000000 0.000000 0.034748 0.000000
# 6 0.000000 0.000000 0.000000 0.000000 0.000000 0.099244
#
#
# Mechanical properties :
#
#
# Convention : Reuss Voigt Hill
#
# Bulk Modulus (GPa) = 16.62695 22.87700 19.75197
# Shear Modulus (GPa) = 17.27005 24.48334 20.87669
#
# Velocity S-wave (km/s) = 2.87028 3.41753 3.15579
# Velocity P-wave (km/s) = 4.34930 5.14645 4.76458
#
# Compressibility (1/GPa) = 0.06014332
#
# Stress axis : x y z
#
# Youngs Moduli (GPa) = 66.55620 77.64782 18.51480
#
# Poissons Ratio (x) = -0.01223 0.16743
# Poissons Ratio (y) = -0.01048 0.03703
# Poissons Ratio (z) = 0.60187 0.15530
#
# Static dielectric constant tensor:
#      x y z
#    x 1.715980 0.000000 0.000000 
#    y 0.000000 1.770780 0.000000 
#    z 0.000000 0.000000 1.770180 
# 
# From -- ./inp_files/31611.got.cif
#   From: 2010.05.17/outbox.cif.g08.bks.cpg/sg21_16_cif.got.tgz:31611.got - 2010.06.03 23:14:55.
