data_PCOD9323105
_publ_section_title
;
Structure prediction by ZEFSAII (Michael W. Deem and Ramdas Pophale) SiO2 
 PCOD9323105
Probable space group: C 2 2 2
;
_chemical_formula_sum "Si O2"
_cell_formula_units_Z 48
_cell_length_a 6.000592
_cell_length_b 13.850443
_cell_length_c 26.943305
_cell_angle_alpha 90.000000
_cell_angle_beta 90.000000
_cell_angle_gamma 90.000000
_cell_volume 2239.281181
_symmetry_space_group_name_H-M "C 2 2 2"
_symmetry_group_IT_number 21
_symmetry_cell_setting 'orthorhombic'
loop_
_space_group_symop_operation_xyz
x,y,z
-x,-y,z
x,-y,-z
-x,y,-z
1/2+x,1/2+y,z
1/2-x,1/2-y,z
1/2+x,1/2-y,-z
1/2-x,1/2+y,-z
loop_
_atom_site_type_symbol
_atom_site_label
_atom_site_fract_x
_atom_site_fract_y
_atom_site_fract_z
Si Si1 0.377920 0.352973 0.693427
Si Si2 0.342902 0.641153 0.193987
Si Si3 0.750000 0.250000 0.474347
Si Si4 0.891703 0.600997 0.599984
Si Si5 0.619956 0.397606 0.898897
Si Si6 0.500000 0.708343 0.000000
Si Si7 0.500000 0.000000 0.140269
Si Si8 0.750000 0.250000 0.638537
O O1 0.250000 0.250000 0.695105
O O2 0.395879 0.388235 0.749586
O O3 0.242238 0.412536 0.651983
O O4 0.617154 0.325787 0.672191
O O5 0.250000 0.750000 0.194893
O O6 0.542176 0.644058 0.154032
O O7 0.170671 0.561406 0.173340
O O8 0.500000 0.243753 0.500000
O O9 0.737120 0.347066 0.440539
O O10 0.000000 0.500000 0.584850
O O11 0.078946 0.683634 0.608553
O O12 0.500000 0.500000 0.903099
O O13 0.550338 0.342396 0.947492
O O14 0.879056 0.421555 0.894250
O O15 0.750000 0.750000 0.990117
#
# Coordination Sequence:
#
# PCOD9323105 Si02
#       8
#     8   8   4   8   8   4   4   4
#     4   9  20  39  67 101 141 187 237 292 364 430
#     4  10  22  40  66 100 137 185 236 294 362 439
#     4  12  27  52  80 104 154 198 245 330 374 438
#     4  11  24  45  72 107 140 191 248 301 370 453
#     4  10  24  45  65  97 136 184 234 297 366 436
#     4  12  29  46  75 106 132 182 248 305 368 441
#     4  10  24  42  67  92 146 182 235 302 364 442
#     4  10  19  44  66 100 152 190 235 310 362 428
#
# _framework density 21.435452000000002
#
# number of rings (size 3 to 8) (size 9 to 14) (size 15 to 20)
#    0.000    1.667    2.500    1.250    8.167    5.000 
#    6.000    2.500    0.000    0.000    0.000    0.000 
#    0.000    0.000    0.000    0.000    0.000    0.000 
#
# Total GULP energy -133779.558017 kJ/mol
# GULP energy per Si atom -5574.148251 kJ/mol
# Density = 2.138666 g / cm^3
# Si number density = 21.435452 Si / 1000 Ang^3
#
#
#
# Elastic Constant Matrix: (Units=GPa)
#
#
# Indices 1 2 3 4 5 6 
#
# 1 100.1801 27.7287 58.2372 0.0000 0.0000 0.0000
# 2 27.7287 85.3560 42.8502 0.0000 0.0000 0.0000
# 3 58.2372 42.8502 148.8834 0.0000 0.0000 0.0000
# 4 0.0000 0.0000 0.0000 13.6675 0.0000 0.0000
# 5 0.0000 0.0000 0.0000 0.0000 4.6414 0.0000
# 6 0.0000 0.0000 0.0000 0.0000 0.0000 29.0642
#
#
#
# Elastic Compliance Matrix: (Units=1/GPa)
#
#
# Indices 1 2 3 4 5 6 
#
# 1 0.013201 -0.001983 -0.004593 0.000000 0.000000 0.000000
# 2 -0.001983 0.013992 -0.003252 0.000000 0.000000 0.000000
# 3 -0.004593 -0.003252 0.009449 0.000000 0.000000 0.000000
# 4 0.000000 0.000000 0.000000 0.073166 0.000000 0.000000
# 5 0.000000 0.000000 0.000000 0.000000 0.215451 0.000000
# 6 0.000000 0.000000 0.000000 0.000000 0.000000 0.034407
#
#
# Mechanical properties :
#
#
# Convention : Reuss Voigt Hill
#
# Bulk Modulus (GPa) = 58.86646 65.78353 62.32500
# Shear Modulus (GPa) = 12.98759 23.18151 18.08455
#
# Velocity S-wave (km/s) = 2.46416 3.29212 2.90776
# Velocity P-wave (km/s) = 5.96808 6.72358 6.35706
#
# Compressibility (1/GPa) = 0.01698760
#
# Stress axis : x y z
#
# Youngs Moduli (GPa) = 75.75290 71.46916 105.83035
#
# Poissons Ratio (x) = 0.14170 0.48608
# Poissons Ratio (y) = 0.15019 0.34411
# Poissons Ratio (z) = 0.34793 0.23238
#
# Static dielectric constant tensor:
#      x y z
#    x 1.930900 0.000000 0.000000 
#    y 0.000000 1.778260 0.000000 
#    z 0.000000 0.000000 1.825380 
# 
# From -- ./inp_files/39110.got.cif
#   From: 2010.05.17/outbox.cif.g08.bks.cpg/sg21_20_cif.got.tgz:39110.got - 2010.06.03 23:14:55.
