data_PCOD9323684
_publ_section_title
;
Structure prediction by ZEFSAII (Michael W. Deem and Ramdas Pophale) SiO2 
 PCOD9323684
Probable space group: C 2 2 2
;
_chemical_formula_sum "Si O2"
_cell_formula_units_Z 28
_cell_length_a 14.679973
_cell_length_b 9.025952
_cell_length_c 11.103542
_cell_angle_alpha 90.000000
_cell_angle_beta 90.000000
_cell_angle_gamma 90.000000
_cell_volume 1471.227439
_symmetry_space_group_name_H-M "C 2 2 2"
_symmetry_group_IT_number 21
_symmetry_cell_setting 'orthorhombic'
loop_
_space_group_symop_operation_xyz
x,y,z
-x,-y,z
x,-y,-z
-x,y,-z
1/2+x,1/2+y,z
1/2-x,1/2-y,z
1/2+x,1/2-y,-z
1/2-x,1/2+y,-z
loop_
_atom_site_type_symbol
_atom_site_label
_atom_site_fract_x
_atom_site_fract_y
_atom_site_fract_z
Si Si1 0.547624 0.339297 0.618452
Si Si2 0.500000 0.000000 0.000000
Si Si3 0.933385 0.749443 0.829918
Si Si4 0.500000 0.500000 0.000000
Si Si5 0.750000 0.250000 0.324035
Si Si6 0.211737 0.000000 0.500000
O O1 0.500000 0.500000 0.636243
O O2 0.500000 0.270671 0.500000
O O3 0.519632 0.251161 0.737228
O O4 0.648265 0.387303 0.578638
O O5 0.559500 0.893472 0.914621
O O6 0.942076 0.892428 0.915136
O O7 0.841196 0.762772 0.754261
O O8 0.737415 0.105600 0.407707
#
# Coordination Sequence:
#
# PCOD9323684 Si02
#       6
#     8   2   8   2   4   4
#     4   9  15  35  62  83 102 150 192 220 261 367
#     4  10  28  40  54  82 120 152 196 236 288 324
#     4  11  21  40  60  84 114 151 197 235 278 335
#     4  10  20  40  66  74 100 180 204 208 256 372
#     4  12  22  36  58  90 120 142 184 250 286 332
#     4  10  21  34  58  95 116 144 182 231 298 348
#
# _framework density 19.031728999999999
#
# number of rings (size 3 to 8) (size 9 to 14) (size 15 to 20)
#    0.000    2.000    7.143    0.000    0.000    3.429 
#    0.000    0.000    0.000    0.000    0.000    0.000 
#    0.000    0.000    0.000    0.000    0.000    0.000 
#
# Total GULP energy -78040.695243 kJ/mol
# GULP energy per Si atom -5574.335374 kJ/mol
# Density = 1.898841 g / cm^3
# Si number density = 19.031729 Si / 1000 Ang^3
#
#
#
# Elastic Constant Matrix: (Units=GPa)
#
#
# Indices 1 2 3 4 5 6 
#
# 1 66.0484 35.0104 45.5561 0.0000 0.0000 0.0000
# 2 35.0104 101.1967 71.1698 0.0000 0.0000 0.0000
# 3 45.5561 71.1698 142.8620 0.0000 0.0000 0.0000
# 4 0.0000 0.0000 0.0000 34.9142 0.0000 0.0000
# 5 0.0000 0.0000 0.0000 0.0000 4.0183 0.0000
# 6 0.0000 0.0000 0.0000 0.0000 0.0000 2.5670
#
#
#
# Elastic Compliance Matrix: (Units=1/GPa)
#
#
# Indices 1 2 3 4 5 6 
#
# 1 0.020319 -0.003806 -0.004583 0.000000 0.000000 0.000000
# 2 -0.003806 0.015924 -0.006719 0.000000 0.000000 0.000000
# 3 -0.004583 -0.006719 0.011809 0.000000 0.000000 0.000000
# 4 0.000000 0.000000 0.000000 0.028642 0.000000 0.000000
# 5 0.000000 0.000000 0.000000 0.000000 0.248859 0.000000
# 6 0.000000 0.000000 0.000000 0.000000 0.000000 0.389559
#
#
# Mechanical properties :
#
#
# Convention : Reuss Voigt Hill
#
# Bulk Modulus (GPa) = 56.07145 68.17552 62.12348
# Shear Modulus (GPa) = 6.65536 18.85796 12.75666
#
# Velocity S-wave (km/s) = 1.87205 3.15122 2.59179
# Velocity P-wave (km/s) = 5.84797 7.01000 6.45519
#
# Compressibility (1/GPa) = 0.01783439
#
# Stress axis : x y z
#
# Youngs Moduli (GPa) = 49.21423 62.79802 84.68457
#
# Poissons Ratio (x) = 0.23904 0.38813
# Poissons Ratio (y) = 0.18733 0.56900
# Poissons Ratio (z) = 0.22556 0.42195
#
# Static dielectric constant tensor:
#      x y z
#    x 1.665360 0.000000 0.000000 
#    y 0.000000 1.674500 0.000000 
#    z 0.000000 0.000000 1.704710 
# 
# From -- ./inp_files/21790.got.cif
#   From: 2010.05.17/outbox.cif.g08.bks.cpg/sg21_11_cif.got.tgz:21790.got - 2010.06.03 23:14:55.
