data_PCOD9323842
_publ_section_title
;
Structure prediction by ZEFSAII (Michael W. Deem and Ramdas Pophale) SiO2 
 PCOD9323842
Probable space group: C 2 2 2
;
_chemical_formula_sum "Si O2"
_cell_formula_units_Z 32
_cell_length_a 14.834388
_cell_length_b 12.860481
_cell_length_c 6.861647
_cell_angle_alpha 90.000000
_cell_angle_beta 90.000000
_cell_angle_gamma 90.000000
_cell_volume 1309.046934
_symmetry_space_group_name_H-M "C 2 2 2"
_symmetry_group_IT_number 21
_symmetry_cell_setting 'orthorhombic'
loop_
_space_group_symop_operation_xyz
x,y,z
-x,-y,z
x,-y,-z
-x,y,-z
1/2+x,1/2+y,z
1/2-x,1/2-y,z
1/2+x,1/2-y,-z
1/2-x,1/2+y,-z
loop_
_atom_site_type_symbol
_atom_site_label
_atom_site_fract_x
_atom_site_fract_y
_atom_site_fract_z
Si Si1 0.667960 0.671367 0.882021
Si Si2 0.840817 0.712105 0.270542
Si Si3 0.198568 0.485224 0.729503
Si Si4 0.532085 0.826095 0.773182
O O1 0.750000 0.750000 0.840561
O O2 0.710874 0.564662 0.815400
O O3 0.583613 0.715850 0.764337
O O4 0.645941 0.698989 0.107216
O O5 0.750000 0.750000 0.382200
O O6 0.815879 0.599318 0.180066
O O7 0.939214 0.683194 0.349290
O O8 0.212597 0.500000 0.500000
O O9 0.107077 0.416066 0.744278
O O10 0.500000 0.840763 0.000000
#
# Coordination Sequence:
#
# PCOD9323842 Si02
#       4
#     8   8   8   8
#     4   8  18  36  59  85 122 165 213 266 323 396
#     4  10  21  35  59  91 124 168 217 266 325 396
#     4  11  23  39  62  95 131 169 220 287 341 380
#     4   9  19  37  62  91 125 168 218 266 321 399
#
# _framework density 24.445267999999999
#
# number of rings (size 3 to 8) (size 9 to 14) (size 15 to 20)
#    0.000    2.500    0.000    2.250    0.000   24.000 
#    0.000    1.250    0.000   15.000    0.000    0.000 
#    0.000    0.000    0.000    0.000    0.000    0.000 
#
# Total GULP energy -89219.713281 kJ/mol
# GULP energy per Si atom -5576.232080 kJ/mol
# Density = 2.438963 g / cm^3
# Si number density = 24.445268 Si / 1000 Ang^3
#
#
#
# Elastic Constant Matrix: (Units=GPa)
#
#
# Indices 1 2 3 4 5 6 
#
# 1 123.7588 75.2390 4.6781 0.0000 0.0000 0.0000
# 2 75.2390 108.2335 18.2006 0.0000 0.0000 0.0000
# 3 4.6781 18.2006 82.9369 0.0000 0.0000 0.0000
# 4 0.0000 0.0000 0.0000 20.5057 0.0000 0.0000
# 5 0.0000 0.0000 0.0000 0.0000 40.0951 0.0000
# 6 0.0000 0.0000 0.0000 0.0000 0.0000 54.8694
#
#
#
# Elastic Compliance Matrix: (Units=1/GPa)
#
#
# Indices 1 2 3 4 5 6 
#
# 1 0.014152 -0.010076 0.001413 0.000000 0.000000 0.000000
# 2 -0.010076 0.016767 -0.003111 0.000000 0.000000 0.000000
# 3 0.001413 -0.003111 0.012660 0.000000 0.000000 0.000000
# 4 0.000000 0.000000 0.000000 0.048767 0.000000 0.000000
# 5 0.000000 0.000000 0.000000 0.000000 0.024941 0.000000
# 6 0.000000 0.000000 0.000000 0.000000 0.000000 0.018225
#
#
# Mechanical properties :
#
#
# Convention : Reuss Voigt Hill
#
# Bulk Modulus (GPa) = 49.92148 56.79608 53.35878
# Shear Modulus (GPa) = 30.16829 37.54812 33.85821
#
# Velocity S-wave (km/s) = 3.51681 3.92345 3.72568
# Velocity P-wave (km/s) = 6.07920 6.61884 6.35475
#
# Compressibility (1/GPa) = 0.02003146
#
# Stress axis : x y z
#
# Youngs Moduli (GPa) = 70.66003 59.64256 78.98643
#
# Poissons Ratio (x) = 0.60093 -0.11159
# Poissons Ratio (y) = 0.71194 0.24574
# Poissons Ratio (z) = -0.09983 0.18555
#
# Static dielectric constant tensor:
#      x y z
#    x 2.001070 0.000000 0.000000 
#    y 0.000000 1.973980 0.000000 
#    z 0.000000 0.000000 2.142900 
# 
# From -- ./inp_files/14124.got.cif
#   From: 2010.05.17/outbox.cif.g08.bks.cpg/sg21_8_cif.got.tgz:14124.got - 2010.06.03 23:14:55.
