data_PCOD9323434
_publ_section_title
;
Structure prediction by ZEFSAII (Michael W. Deem and Ramdas Pophale) SiO2 
 PCOD9323434
Probable space group: C 2 2 2
;
_chemical_formula_sum "Si O2"
_cell_formula_units_Z 48
_cell_length_a 13.510684
_cell_length_b 4.996859
_cell_length_c 28.366307
_cell_angle_alpha 90.000000
_cell_angle_beta 90.000000
_cell_angle_gamma 90.000000
_cell_volume 1915.037268
_symmetry_space_group_name_H-M "C 2 2 2"
_symmetry_group_IT_number 21
_symmetry_cell_setting 'orthorhombic'
loop_
_space_group_symop_operation_xyz
x,y,z
-x,-y,z
x,-y,-z
-x,y,-z
1/2+x,1/2+y,z
1/2-x,1/2-y,z
1/2+x,1/2-y,-z
1/2-x,1/2+y,-z
loop_
_atom_site_type_symbol
_atom_site_label
_atom_site_fract_x
_atom_site_fract_y
_atom_site_fract_z
Si Si1 0.638913 0.126432 0.399952
Si Si2 0.250000 0.250000 0.029479
Si Si3 0.117677 0.468209 0.893121
Si Si4 0.500000 0.000000 0.325434
Si Si5 0.250000 0.250000 0.344741
Si Si6 0.613362 0.402725 0.726928
Si Si7 0.618652 0.536924 0.167504
Si Si8 0.178407 0.500000 0.500000
O O1 0.750000 0.250000 0.397739
O O2 0.553756 0.203379 0.362858
O O3 0.616686 0.102396 0.455010
O O4 0.662447 0.833289 0.379320
O O5 0.172604 0.411319 0.061873
O O6 0.295982 0.500000 0.000000
O O7 0.141650 0.667715 0.850362
O O8 0.000000 0.500000 0.901325
O O9 0.145427 0.175286 0.873501
O O10 0.413448 0.096735 0.289351
O O11 0.300951 0.463750 0.310014
O O12 0.500000 0.500000 0.723128
O O13 0.651633 0.478460 0.778605
O O14 0.500000 0.500000 0.170347
O O15 0.250000 0.750000 0.513782
#
# Coordination Sequence:
#
# PCOD9323434 Si02
#       8
#     8   4   8   4   4   8   8   4
#     4  10  20  37  58  83 120 163 217 276 344 412
#     4  12  26  45  74 108 146 184 235 296 350 406
#     4  10  22  44  68 100 139 186 228 285 340 403
#     4  10  22  35  58  90 128 168 217 280 344 406
#     4  10  20  37  54  86 120 160 219 268 342 406
#     4  10  21  35  60  88 125 172 217 272 333 403
#     4   9  20  37  66  91 132 179 228 269 336 407
#     4  10  20  37  66  85 118 168 218 272 349 415
#
# _framework density 25.064782999999998
#
# number of rings (size 3 to 8) (size 9 to 14) (size 15 to 20)
#    0.000    2.000    0.833    2.000    5.833    1.333 
#    0.000    0.833    3.667    1.000    0.000    0.000 
#    0.000    0.000    0.000    0.000    0.000    0.000 
#
# Total GULP energy -133686.959273 kJ/mol
# GULP energy per Si atom -5570.289970 kJ/mol
# Density = 2.500773 g / cm^3
# Si number density = 25.064783 Si / 1000 Ang^3
#
#
#
# Elastic Constant Matrix: (Units=GPa)
#
#
# Indices 1 2 3 4 5 6 
#
# 1 113.4357 7.7925 30.4867 0.0000 0.0000 0.0000
# 2 7.7925 79.7477 28.5759 0.0000 0.0000 0.0000
# 3 30.4867 28.5759 156.1125 0.0000 0.0000 0.0000
# 4 0.0000 0.0000 0.0000 19.9764 0.0000 0.0000
# 5 0.0000 0.0000 0.0000 0.0000 2.7382 0.0000
# 6 0.0000 0.0000 0.0000 0.0000 0.0000 38.4216
#
#
#
# Elastic Compliance Matrix: (Units=1/GPa)
#
#
# Indices 1 2 3 4 5 6 
#
# 1 0.009310 -0.000276 -0.001767 0.000000 0.000000 0.000000
# 2 -0.000276 0.013428 -0.002404 0.000000 0.000000 0.000000
# 3 -0.001767 -0.002404 0.007191 0.000000 0.000000 0.000000
# 4 0.000000 0.000000 0.000000 0.050059 0.000000 0.000000
# 5 0.000000 0.000000 0.000000 0.000000 0.365206 0.000000
# 6 0.000000 0.000000 0.000000 0.000000 0.000000 0.026027
#
#
# Mechanical properties :
#
#
# Convention : Reuss Voigt Hill
#
# Bulk Modulus (GPa) = 47.54475 53.66733 50.60604
# Shear Modulus (GPa) = 10.26426 31.05663 20.66045
#
# Velocity S-wave (km/s) = 2.02583 3.52384 2.87415
# Velocity P-wave (km/s) = 4.94792 6.16559 5.59001
#
# Compressibility (1/GPa) = 0.02103282
#
# Stress axis : x y z
#
# Youngs Moduli (GPa) = 107.41638 74.47142 139.06591
#
# Poissons Ratio (x) = 0.02058 0.24579
# Poissons Ratio (y) = 0.02968 0.33431
# Poissons Ratio (z) = 0.18985 0.17903
#
# Static dielectric constant tensor:
#      x y z
#    x 2.114480 0.000000 0.000000 
#    y 0.000000 2.220170 0.000000 
#    z 0.000000 0.000000 1.955170 
# 
# From -- ./inp_files/39353.got.cif
#   From: 2010.05.17/outbox.cif.g08.bks.cpg/sg21_20_cif.got.tgz:39353.got - 2010.06.03 23:14:55.
