data_PCOD9323270
_publ_section_title
;
Structure prediction by ZEFSAII (Michael W. Deem and Ramdas Pophale) SiO2 
 PCOD9323270
Probable space group: C 2 2 2
;
_chemical_formula_sum "Si O2"
_cell_formula_units_Z 36
_cell_length_a 4.868378
_cell_length_b 21.188764
_cell_length_c 15.372685
_cell_angle_alpha 90.000000
_cell_angle_beta 90.000000
_cell_angle_gamma 90.000000
_cell_volume 1585.767976
_symmetry_space_group_name_H-M "C 2 2 2"
_symmetry_group_IT_number 21
_symmetry_cell_setting 'orthorhombic'
loop_
_space_group_symop_operation_xyz
x,y,z
-x,-y,z
x,-y,-z
-x,y,-z
1/2+x,1/2+y,z
1/2-x,1/2-y,z
1/2+x,1/2-y,-z
1/2-x,1/2+y,-z
loop_
_atom_site_type_symbol
_atom_site_label
_atom_site_fract_x
_atom_site_fract_y
_atom_site_fract_z
Si Si1 0.928593 0.891640 0.404985
Si Si2 0.500000 0.792775 0.000000
Si Si3 0.429682 0.810755 0.356807
Si Si4 0.656486 0.437402 0.776258
Si Si5 0.145966 0.640326 0.176102
O O1 0.713722 0.831705 0.403115
O O2 0.818785 0.936537 0.328986
O O3 0.000000 0.916949 0.500000
O O4 0.223864 0.867952 0.374002
O O5 0.250000 0.750000 0.967426
O O6 0.388695 0.832297 0.080934
O O7 0.250000 0.750000 0.383726
O O8 0.461746 0.812004 0.251979
O O9 0.500000 0.500000 0.804287
O O10 0.457540 0.379642 0.804283
O O11 0.952697 0.421139 0.813551
#
# Coordination Sequence:
#
# PCOD9323270 Si02
#       5
#     8   4   8   8   8
#     4  10  21  35  54  83 113 146 196 244 280 339
#     4  12  24  40  65  92 121 152 188 236 286 340
#     4  10  20  35  55  77 113 155 187 230 291 346
#     4  10  21  40  62  83 117 157 192 239 294 338
#     4  10  22  39  59  89 117 148 196 238 282 348
#
# _framework density 22.701936
#
# number of rings (size 3 to 8) (size 9 to 14) (size 15 to 20)
#    0.000    1.778    0.000    4.000    0.000    5.778 
#    0.000    3.333    0.000    9.333    0.000    0.000 
#    0.000    0.000    0.000    0.000    0.000    0.000 
#
# Total GULP energy -100478.691648 kJ/mol
# GULP energy per Si atom -5582.149536 kJ/mol
# Density = 2.265027 g / cm^3
# Si number density = 22.701936 Si / 1000 Ang^3
#
#
#
# Elastic Constant Matrix: (Units=GPa)
#
#
# Indices 1 2 3 4 5 6 
#
# 1 124.2328 5.5311 1.5382 0.0000 0.0000 0.0000
# 2 5.5311 36.5883 -0.0809 0.0000 0.0000 0.0000
# 3 1.5382 -0.0809 100.2500 0.0000 0.0000 0.0000
# 4 0.0000 0.0000 0.0000 -2.7956 0.0000 0.0000
# 5 0.0000 0.0000 0.0000 0.0000 26.0871 0.0000
# 6 0.0000 0.0000 0.0000 0.0000 0.0000 30.5341
#
#
#
# Elastic Compliance Matrix: (Units=1/GPa)
#
#
# Indices 1 2 3 4 5 6 
#
# 1 0.008106 -0.001226 -0.000125 0.000000 0.000000 0.000000
# 2 -0.001226 0.027516 0.000041 0.000000 0.000000 0.000000
# 3 -0.000125 0.000041 0.009977 0.000000 0.000000 0.000000
# 4 0.000000 0.000000 0.000000 -0.357704 0.000000 0.000000
# 5 0.000000 0.000000 0.000000 0.000000 0.038333 0.000000
# 6 0.000000 0.000000 0.000000 0.000000 0.000000 0.032750
#
#
# Mechanical properties :
#
#
# Convention : Reuss Voigt Hill
#
# Bulk Modulus (GPa) = 23.26710 30.56087 26.91398
# Shear Modulus (GPa) = -22.31389 27.70399 2.69505
#
# Velocity S-wave (km/s) = -3.13854 3.49712 1.09074
# Velocity P-wave (km/s) = 1.69194 5.45871 3.66980
#
# Compressibility (1/GPa) = 0.04297915
#
# Stress axis : x y z
#
# Youngs Moduli (GPa) = 123.37265 36.34185 100.23038
#
# Poissons Ratio (x) = 0.04454 0.01256
# Poissons Ratio (y) = 0.15120 -0.00411
# Poissons Ratio (z) = 0.01547 -0.00149
#
# Static dielectric constant tensor:
#      x y z
#    x 1.809070 0.000000 0.000000 
#    y 0.000000 1.917720 0.000000 
#    z 0.000000 0.000000 1.881520 
# 
# From -- ./inp_files/28917.got.cif
#   From: 2010.05.17/outbox.cif.g08.bks.cpg/sg21_15_cif.got.tgz:28917.got - 2010.06.03 23:14:55.
