data_PCOD9323096
_publ_section_title
;
Structure prediction by ZEFSAII (Michael W. Deem and Ramdas Pophale) SiO2 
 PCOD9323096
Probable space group: C 2 2 2
;
_chemical_formula_sum "Si O2"
_cell_formula_units_Z 44
_cell_length_a 13.196524
_cell_length_b 6.567488
_cell_length_c 24.602286
_cell_angle_alpha 90.000000
_cell_angle_beta 90.000000
_cell_angle_gamma 90.000000
_cell_volume 2132.231243
_symmetry_space_group_name_H-M "C 2 2 2"
_symmetry_group_IT_number 21
_symmetry_cell_setting 'orthorhombic'
loop_
_space_group_symop_operation_xyz
x,y,z
-x,-y,z
x,-y,-z
-x,y,-z
1/2+x,1/2+y,z
1/2-x,1/2-y,z
1/2+x,1/2-y,-z
1/2-x,1/2+y,-z
loop_
_atom_site_type_symbol
_atom_site_label
_atom_site_fract_x
_atom_site_fract_y
_atom_site_fract_z
Si Si1 0.000000 0.500000 0.655351
Si Si2 0.107954 0.886630 0.191805
Si Si3 0.392046 0.613370 0.308195
Si Si4 0.860742 0.173883 0.593553
Si Si5 0.000000 0.500000 0.155351
Si Si6 0.500000 0.500000 0.000000
Si Si7 0.139259 0.826117 0.906447
Si Si8 0.000000 0.000000 0.500000
O O1 0.077150 0.349173 0.686310
O O2 0.072386 0.650672 0.621837
O O3 0.161210 0.924427 0.250000
O O4 0.077150 0.650827 0.186309
O O5 0.153161 0.987932 0.137336
O O6 0.000000 0.000000 0.194851
O O7 0.500000 0.500000 0.305149
O O8 0.346840 0.512070 0.362664
O O9 0.750000 0.250000 0.578840
O O10 0.925349 0.115577 0.541008
O O11 0.072386 0.349329 0.121836
O O12 0.574651 0.384424 0.958991
O O13 0.250000 0.750000 0.921161
#
# Coordination Sequence:
#
# PCOD9323096 Si02
#       8
#     4   8   8   8   4   2   8   2
#     4  10  19  41  66  96 132 169 215 260 322 392
#     4   9  18  38  65  98 136 168 209 266 323 389
#     4   9  18  38  65  98 136 168 209 266 323 389
#     4  11  25  43  67  97 127 171 222 267 328 388
#     4  10  19  41  66  96 132 169 215 260 322 392
#     4  12  24  50  58  90 134 164 220 288 316 382
#     4  11  25  43  67  97 127 171 222 267 328 388
#     4  12  24  50  58  90 134 164 220 288 316 382
#
# _framework density 20.635660000000001
#
# number of rings (size 3 to 8) (size 9 to 14) (size 15 to 20)
#    0.000    1.818    5.455    0.545    0.000    7.273 
#    0.000    1.818    0.000    0.000    0.000    0.000 
#    0.000    0.000    0.000    0.000    0.000    0.000 
#
# Total GULP energy -122590.047834 kJ/mol
# GULP energy per Si atom -5572.274902 kJ/mol
# Density = 2.058869 g / cm^3
# Si number density = 20.635660 Si / 1000 Ang^3
#
#
#
# Elastic Constant Matrix: (Units=GPa)
#
#
# Indices 1 2 3 4 5 6 
#
# 1 117.6380 23.5796 58.9529 0.0000 0.0000 0.0000
# 2 23.5796 116.7365 69.7845 0.0000 0.0000 0.0000
# 3 58.9529 69.7845 161.8676 0.0000 0.0000 0.0000
# 4 0.0000 0.0000 0.0000 -12.1613 0.0000 0.0000
# 5 0.0000 0.0000 0.0000 0.0000 -506.4161 0.0000
# 6 0.0000 0.0000 0.0000 0.0000 0.0000 20.7502
#
#
#
# Elastic Compliance Matrix: (Units=1/GPa)
#
#
# Indices 1 2 3 4 5 6 
#
# 1 0.010403 0.000220 -0.003884 0.000000 0.000000 0.000000
# 2 0.000220 0.011545 -0.005058 0.000000 0.000000 0.000000
# 3 -0.003884 -0.005058 0.009773 0.000000 0.000000 0.000000
# 4 0.000000 0.000000 0.000000 -0.082228 0.000000 0.000000
# 5 0.000000 0.000000 0.000000 0.000000 -0.001975 0.000000
# 6 0.000000 0.000000 0.000000 0.000000 0.000000 0.048192
#
#
# Mechanical properties :
#
#
# Convention : Reuss Voigt Hill
#
# Bulk Modulus (GPa) = 70.03367 77.87509 73.95438
# Shear Modulus (GPa) = 279.13746 -83.30378 97.91684
#
# Velocity S-wave (km/s) = 11.64316 -6.36054 6.89589
# Velocity P-wave (km/s) = 14.65478 4.01521 9.96596
#
# Compressibility (1/GPa) = 0.01427885
#
# Stress axis : x y z
#
# Youngs Moduli (GPa) = 96.12818 86.61584 102.32434
#
# Poissons Ratio (x) = -0.01909 0.39740
# Poissons Ratio (y) = -0.02119 0.51752
# Poissons Ratio (z) = 0.37334 0.43808
#
# Static dielectric constant tensor:
#      x y z
#    x 1.734950 0.000000 0.000000 
#    y 0.000000 1.766850 0.000000 
#    z 0.000000 0.000000 1.807940 
# 
# From -- ./inp_files/39302.got.cif
#   From: 2010.05.17/outbox.cif.g08.bks.cpg/sg21_20_cif.got.tgz:39302.got - 2010.06.03 23:14:55.
