data_PCOD9323184
_publ_section_title
;
Structure prediction by ZEFSAII (Michael W. Deem and Ramdas Pophale) SiO2 
 PCOD9323184
Probable space group: C 2 2 2
;
_chemical_formula_sum "Si O2"
_cell_formula_units_Z 48
_cell_length_a 18.048436
_cell_length_b 8.915854
_cell_length_c 15.166187
_cell_angle_alpha 90.000000
_cell_angle_beta 90.000000
_cell_angle_gamma 90.000000
_cell_volume 2440.500655
_symmetry_space_group_name_H-M "C 2 2 2"
_symmetry_group_IT_number 21
_symmetry_cell_setting 'orthorhombic'
loop_
_space_group_symop_operation_xyz
x,y,z
-x,-y,z
x,-y,-z
-x,y,-z
1/2+x,1/2+y,z
1/2-x,1/2-y,z
1/2+x,1/2-y,-z
1/2-x,1/2+y,-z
loop_
_atom_site_type_symbol
_atom_site_label
_atom_site_fract_x
_atom_site_fract_y
_atom_site_fract_z
Si Si1 0.984030 0.178224 0.599186
Si Si2 0.038366 0.344392 0.763862
Si Si3 0.463970 0.351988 0.095043
Si Si4 0.796237 0.603884 0.760396
Si Si5 0.802723 0.128475 0.856906
Si Si6 0.672729 0.794823 0.331347
O O1 0.900932 0.234621 0.622589
O O2 0.000000 0.230478 0.500000
O O3 0.035355 0.246111 0.675641
O O4 0.000000 0.000000 0.601352
O O5 0.122935 0.351311 0.796520
O O6 0.000000 0.500000 0.739050
O O7 0.985736 0.280233 0.840072
O O8 0.500000 0.500000 0.136796
O O9 0.377545 0.386234 0.089890
O O10 0.500000 0.328776 0.000000
O O11 0.750000 0.750000 0.729129
O O12 0.743455 0.518403 0.830689
O O13 0.818888 0.472195 0.690334
O O14 0.750000 0.250000 0.902209
O O15 0.825365 0.207229 0.763215
O O16 0.750000 0.750000 0.377596
#
# Coordination Sequence:
#
# PCOD9323184 Si02
#       6
#     8   8   8   8   8   8
#     4  11  24  41  66  96 129 179 226 268 338 411
#     4  12  22  40  64  93 131 166 214 280 328 391
#     4  11  23  39  62  93 122 166 220 266 320 393
#     4  10  20  33  60  96 118 167 214 257 330 391
#     4   9  18  38  61  85 122 166 209 259 325 389
#     4   9  19  38  63  90 124 166 212 263 328 385
#
# _framework density 19.668095999999998
#
# number of rings (size 3 to 8) (size 9 to 14) (size 15 to 20)
#    0.000    2.000    3.333    2.500    4.667    0.667 
#    0.000    5.000    0.000    0.000    0.000    0.000 
#    0.000    0.000    0.000    0.000    0.000    0.000 
#
# Total GULP energy -133757.373222 kJ/mol
# GULP energy per Si atom -5573.223884 kJ/mol
# Density = 1.962333 g / cm^3
# Si number density = 19.668096 Si / 1000 Ang^3
#
#
#
# Elastic Constant Matrix: (Units=GPa)
#
#
# Indices 1 2 3 4 5 6 
#
# 1 185.3554 36.7093 27.3454 0.0000 0.0000 0.0000
# 2 36.7093 82.7192 15.5844 0.0000 0.0000 0.0000
# 3 27.3454 15.5844 62.9051 0.0000 0.0000 0.0000
# 4 0.0000 0.0000 0.0000 26.1812 0.0000 0.0000
# 5 0.0000 0.0000 0.0000 0.0000 29.7946 0.0000
# 6 0.0000 0.0000 0.0000 0.0000 0.0000 26.9509
#
#
#
# Elastic Compliance Matrix: (Units=1/GPa)
#
#
# Indices 1 2 3 4 5 6 
#
# 1 0.006169 -0.002342 -0.002102 0.000000 0.000000 0.000000
# 2 -0.002342 0.013570 -0.002344 0.000000 0.000000 0.000000
# 3 -0.002102 -0.002344 0.017391 0.000000 0.000000 0.000000
# 4 0.000000 0.000000 0.000000 0.038195 0.000000 0.000000
# 5 0.000000 0.000000 0.000000 0.000000 0.033563 0.000000
# 6 0.000000 0.000000 0.000000 0.000000 0.000000 0.037104
#
#
# Mechanical properties :
#
#
# Convention : Reuss Voigt Hill
#
# Bulk Modulus (GPa) = 42.45255 54.47309 48.46282
# Shear Modulus (GPa) = 29.86516 33.34137 31.60327
#
# Velocity S-wave (km/s) = 3.90097 4.12175 4.01288
# Velocity P-wave (km/s) = 6.47467 7.09986 6.79446
#
# Compressibility (1/GPa) = 0.02355571
#
# Stress axis : x y z
#
# Youngs Moduli (GPa) = 162.10488 73.69261 57.50031
#
# Poissons Ratio (x) = 0.17257 0.12084
# Poissons Ratio (y) = 0.37960 0.13478
# Poissons Ratio (z) = 0.34067 0.17273
#
# Static dielectric constant tensor:
#      x y z
#    x 1.732550 0.000000 0.000000 
#    y 0.000000 1.724790 0.000000 
#    z 0.000000 0.000000 1.664710 
# 
# From -- ./inp_files/32817.got.cif
#   From: 2010.05.17/outbox.cif.g08.bks.cpg/sg21_17_cif.got.tgz:32817.got - 2010.06.03 23:14:55.
