data_PCOD9323580
_publ_section_title
;
Structure prediction by ZEFSAII (Michael W. Deem and Ramdas Pophale) SiO2 
 PCOD9323580
Probable space group: C 2 2 2
;
_chemical_formula_sum "Si O2"
_cell_formula_units_Z 48
_cell_length_a 24.758244
_cell_length_b 17.160006
_cell_length_c 5.484422
_cell_angle_alpha 90.000000
_cell_angle_beta 90.000000
_cell_angle_gamma 90.000000
_cell_volume 2330.065547
_symmetry_space_group_name_H-M "C 2 2 2"
_symmetry_group_IT_number 21
_symmetry_cell_setting 'orthorhombic'
loop_
_space_group_symop_operation_xyz
x,y,z
-x,-y,z
x,-y,-z
-x,y,-z
1/2+x,1/2+y,z
1/2-x,1/2-y,z
1/2+x,1/2-y,-z
1/2-x,1/2+y,-z
loop_
_atom_site_type_symbol
_atom_site_label
_atom_site_fract_x
_atom_site_fract_y
_atom_site_fract_z
Si Si1 0.380508 0.136838 0.565268
Si Si2 0.500000 0.849992 0.500000
Si Si3 0.500000 0.250812 0.000000
Si Si4 0.114899 0.796542 0.117049
Si Si5 0.216829 0.576292 0.163200
Si Si6 0.302346 0.214390 0.193260
Si Si7 0.335058 0.453573 0.737255
O O1 0.441440 0.108792 0.517994
O O2 0.384185 0.218116 0.718004
O O3 0.340574 0.079064 0.703308
O O4 0.345243 0.161376 0.333712
O O5 0.496193 0.800255 0.751484
O O6 0.445100 0.299424 0.988903
O O7 0.130585 0.875046 0.249189
O O8 0.161064 0.782610 0.916199
O O9 0.272281 0.569632 0.311527
O O10 0.216482 0.500000 0.000000
O O11 0.220597 0.657214 0.014522
O O12 0.250000 0.250000 0.328469
O O13 0.353480 0.500000 0.500000
O O14 0.337984 0.500000 0.000000
#
# Coordination Sequence:
#
# PCOD9323580 Si02
#       7
#     8   4   4   8   8   8   8
#     4  10  23  35  66  91 124 166 212 273 316 388
#     4  10  20  40  60  99 123 160 214 266 326 370
#     4  10  20  38  67  92 125 166 206 268 324 374
#     4  10  22  40  60  96 128 162 220 264 323 382
#     4  10  24  39  57  92 129 174 207 258 330 392
#     4  11  21  36  63  96 126 160 217 273 319 379
#     4  11  26  41  62  92 133 174 209 261 325 390
#
# _framework density 20.600276999999998
#
# number of rings (size 3 to 8) (size 9 to 14) (size 15 to 20)
#    0.000    1.667    3.333    0.000    9.333    0.000 
#    0.000    0.417    0.000    4.000    0.000    0.000 
#    0.000    0.000    0.000    0.000    0.000    0.000 
#
# Total GULP energy -133869.918837 kJ/mol
# GULP energy per Si atom -5577.913285 kJ/mol
# Density = 2.055339 g / cm^3
# Si number density = 20.600277 Si / 1000 Ang^3
#
#
#
# Elastic Constant Matrix: (Units=GPa)
#
#
# Indices 1 2 3 4 5 6 
#
# 1 120.6071 19.4322 18.7020 0.0000 0.0000 0.0000
# 2 19.4322 53.5084 9.7532 0.0000 0.0000 0.0000
# 3 18.7020 9.7532 62.2309 0.0000 0.0000 0.0000
# 4 0.0000 0.0000 0.0000 23.9264 0.0000 0.0000
# 5 0.0000 0.0000 0.0000 0.0000 25.4887 0.0000
# 6 0.0000 0.0000 0.0000 0.0000 0.0000 19.8314
#
#
#
# Elastic Compliance Matrix: (Units=1/GPa)
#
#
# Indices 1 2 3 4 5 6 
#
# 1 0.009112 -0.002893 -0.002285 0.000000 0.000000 0.000000
# 2 -0.002893 0.020156 -0.002290 0.000000 0.000000 0.000000
# 3 -0.002285 -0.002290 0.017115 0.000000 0.000000 0.000000
# 4 0.000000 0.000000 0.000000 0.041795 0.000000 0.000000
# 5 0.000000 0.000000 0.000000 0.000000 0.039233 0.000000
# 6 0.000000 0.000000 0.000000 0.000000 0.000000 0.050425
#
#
# Mechanical properties :
#
#
# Convention : Reuss Voigt Hill
#
# Bulk Modulus (GPa) = 31.79810 36.90234 34.35022
# Shear Modulus (GPa) = 24.59985 26.41324 25.50654
#
# Velocity S-wave (km/s) = 3.45940 3.58464 3.52257
# Velocity P-wave (km/s) = 5.60588 5.92328 5.76676
#
# Compressibility (1/GPa) = 0.03144842
#
# Stress axis : x y z
#
# Youngs Moduli (GPa) = 109.74833 49.61181 58.42912
#
# Poissons Ratio (x) = 0.14350 0.13351
# Poissons Ratio (y) = 0.31745 0.13379
# Poissons Ratio (z) = 0.25077 0.11360
#
# Static dielectric constant tensor:
#      x y z
#    x 1.748080 0.000000 0.000000 
#    y 0.000000 1.726760 0.000000 
#    z 0.000000 0.000000 1.799590 
# 
# From -- ./inp_files/6733.got.cif
#   From: 2010.05.17/outbox.cif.g08.bks.cpg/sg21_4_cif.got.tgz:6733.got - 2010.06.03 23:14:55.
