data_PCOD9323059
_publ_section_title
;
Structure prediction by ZEFSAII (Michael W. Deem and Ramdas Pophale) SiO2 
 PCOD9323059
Probable space group: C 2 2 2
;
_chemical_formula_sum "Si O2"
_cell_formula_units_Z 48
_cell_length_a 15.286247
_cell_length_b 10.895343
_cell_length_c 12.026555
_cell_angle_alpha 90.000000
_cell_angle_beta 90.000000
_cell_angle_gamma 90.000000
_cell_volume 2003.009557
_symmetry_space_group_name_H-M "C 2 2 2"
_symmetry_group_IT_number 21
_symmetry_cell_setting 'orthorhombic'
loop_
_space_group_symop_operation_xyz
x,y,z
-x,-y,z
x,-y,-z
-x,y,-z
1/2+x,1/2+y,z
1/2-x,1/2-y,z
1/2+x,1/2-y,-z
1/2-x,1/2+y,-z
loop_
_atom_site_type_symbol
_atom_site_label
_atom_site_fract_x
_atom_site_fract_y
_atom_site_fract_z
Si Si1 0.855461 0.026677 0.257107
Si Si2 0.656213 0.063062 0.294189
Si Si3 0.426626 0.171130 0.359093
Si Si4 0.644384 0.728098 0.144888
Si Si5 0.143545 0.259452 0.891111
Si Si6 0.114788 0.781856 0.427219
O O1 0.750908 0.009189 0.265945
O O2 0.883005 0.139029 0.177249
O O3 0.883435 0.081296 0.377502
O O4 0.883933 0.903003 0.196611
O O5 0.618520 0.118965 0.178562
O O6 0.676025 0.184726 0.365254
O O7 0.599562 0.971157 0.369923
O O8 0.402490 0.183230 0.230723
O O9 0.522412 0.219661 0.388692
O O10 0.371628 0.259440 0.441988
O O11 0.750000 0.750000 0.149104
O O12 0.616124 0.750486 0.018572
O O13 0.250000 0.250000 0.891234
#
# Coordination Sequence:
#
# PCOD9323059 Si02
#       6
#     8   8   8   8   8   8
#     4  10  20  39  61  89 124 163 208 263 319 380
#     4  10  19  39  63  91 119 159 211 265 319 382
#     4  11  23  39  60  90 124 167 212 257 322 391
#     4  11  21  36  59  94 124 160 213 265 312 386
#     4   8  18  34  61  90 122 158 198 259 333 381
#     4  10  23  41  60  84 126 173 208 260 328 386
#
# _framework density 23.963939
#
# number of rings (size 3 to 8) (size 9 to 14) (size 15 to 20)
#    0.000    2.000    1.667    3.000    0.000    4.667 
#    3.000    5.000    0.000    8.000    0.000    0.000 
#    0.000    0.000    0.000    0.000    0.000    0.000 
#
# Total GULP energy -133813.820710 kJ/mol
# GULP energy per Si atom -5575.575863 kJ/mol
# Density = 2.390940 g / cm^3
# Si number density = 23.963939 Si / 1000 Ang^3
#
#
#
# Elastic Constant Matrix: (Units=GPa)
#
#
# Indices 1 2 3 4 5 6 
#
# 1 52.3202 15.9955 7.8596 0.0000 0.0000 0.0000
# 2 15.9955 112.8395 42.5559 0.0000 0.0000 0.0000
# 3 7.8596 42.5559 148.8212 0.0000 0.0000 0.0000
# 4 0.0000 0.0000 0.0000 26.9865 0.0000 0.0000
# 5 0.0000 0.0000 0.0000 0.0000 25.5786 0.0000
# 6 0.0000 0.0000 0.0000 0.0000 0.0000 17.7853
#
#
#
# Elastic Compliance Matrix: (Units=1/GPa)
#
#
# Indices 1 2 3 4 5 6 
#
# 1 0.019989 -0.002730 -0.000275 0.000000 0.000000 0.000000
# 2 -0.002730 0.010306 -0.002803 0.000000 0.000000 0.000000
# 3 -0.000275 -0.002803 0.007536 0.000000 0.000000 0.000000
# 4 0.000000 0.000000 0.000000 0.037056 0.000000 0.000000
# 5 0.000000 0.000000 0.000000 0.000000 0.039095 0.000000
# 6 0.000000 0.000000 0.000000 0.000000 0.000000 0.056226
#
#
# Mechanical properties :
#
#
# Convention : Reuss Voigt Hill
#
# Bulk Modulus (GPa) = 38.14596 49.64476 43.89536
# Shear Modulus (GPa) = 26.23823 30.57473 28.40648
#
# Velocity S-wave (km/s) = 3.31252 3.57580 3.44668
# Velocity P-wave (km/s) = 5.53019 6.14897 5.84777
#
# Compressibility (1/GPa) = 0.02621510
#
# Stress axis : x y z
#
# Youngs Moduli (GPa) = 50.02762 97.02909 132.70508
#
# Poissons Ratio (x) = 0.26487 0.03650
# Poissons Ratio (y) = 0.13656 0.37196
# Poissons Ratio (z) = 0.01376 0.27197
#
# Static dielectric constant tensor:
#      x y z
#    x 2.033960 0.000000 0.000000 
#    y 0.000000 1.889020 0.000000 
#    z 0.000000 0.000000 1.930690 
# 
# From -- ./inp_files/26054.got.cif
#   From: 2010.05.17/outbox.cif.g08.bks.cpg/sg21_14_cif.got.tgz:26054.got - 2010.06.03 23:14:55.
