data_PCOD9323500
_publ_section_title
;
Structure prediction by ZEFSAII (Michael W. Deem and Ramdas Pophale) SiO2 
 PCOD9323500
Probable space group: C 2 2 2
;
_chemical_formula_sum "Si O2"
_cell_formula_units_Z 56
_cell_length_a 9.420588
_cell_length_b 19.041773
_cell_length_c 15.234926
_cell_angle_alpha 90.000000
_cell_angle_beta 90.000000
_cell_angle_gamma 90.000000
_cell_volume 2732.912603
_symmetry_space_group_name_H-M "C 2 2 2"
_symmetry_group_IT_number 21
_symmetry_cell_setting 'orthorhombic'
loop_
_space_group_symop_operation_xyz
x,y,z
-x,-y,z
x,-y,-z
-x,y,-z
1/2+x,1/2+y,z
1/2-x,1/2-y,z
1/2+x,1/2-y,-z
1/2-x,1/2+y,-z
loop_
_atom_site_type_symbol
_atom_site_label
_atom_site_fract_x
_atom_site_fract_y
_atom_site_fract_z
Si Si1 0.342063 0.530500 0.169409
Si Si2 0.439326 0.828572 0.203145
Si Si3 0.570969 0.427626 0.405558
Si Si4 0.032838 0.168515 0.755831
Si Si5 0.842733 0.406447 0.033567
Si Si6 0.750292 0.829778 0.132591
Si Si7 0.145680 0.541392 0.323672
O O1 0.500000 0.500000 0.158454
O O2 0.372940 0.611787 0.193251
O O3 0.240124 0.533338 0.085972
O O4 0.243849 0.502403 0.249371
O O5 0.417308 0.748494 0.233597
O O6 0.373568 0.846306 0.107538
O O7 0.606390 0.839435 0.186249
O O8 0.395499 0.885472 0.276046
O O9 0.500000 0.500000 0.370393
O O10 0.500000 0.417102 0.500000
O O11 0.535312 0.362641 0.342210
O O12 0.740776 0.441770 0.400680
O O13 0.880917 0.162446 0.802194
O O14 0.751165 0.378333 0.952549
O O15 0.000000 0.424612 0.000000
O O16 0.750000 0.750000 0.098911
O O17 0.000000 0.500000 0.343999
#
# Coordination Sequence:
#
# PCOD9323500 Si02
#       7
#     8   8   8   8   8   8   8
#     4  10  22  37  60  91 122 174 218 271 326 380
#     4   9  20  35  62  97 126 171 219 258 326 374
#     4  10  23  44  69  94 129 170 205 270 339 399
#     4  10  20  37  65  92 125 167 217 274 320 397
#     4   9  19  37  56  85 129 174 218 275 319 377
#     4   9  19  33  58  88 128 172 217 269 317 373
#     4  10  21  38  71  96 126 167 211 262 318 402
#
# _framework density 20.490957999999999
#
# number of rings (size 3 to 8) (size 9 to 14) (size 15 to 20)
#    0.000    2.429    0.000    1.714    6.000    5.143 
#    0.000    3.571   15.714    0.000    0.000    0.000 
#    0.000    0.000    0.000    0.000    0.000    0.000 
#
# Total GULP energy -156221.511854 kJ/mol
# GULP energy per Si atom -5579.339709 kJ/mol
# Density = 2.044432 g / cm^3
# Si number density = 20.490958 Si / 1000 Ang^3
#
#
#
# Elastic Constant Matrix: (Units=GPa)
#
#
# Indices 1 2 3 4 5 6 
#
# 1 160.0135 31.3718 72.4894 0.0000 0.0000 0.0000
# 2 31.3718 129.5825 49.2190 0.0000 0.0000 0.0000
# 3 72.4894 49.2190 117.5417 0.0000 0.0000 0.0000
# 4 0.0000 0.0000 0.0000 16.2343 0.0000 0.0000
# 5 0.0000 0.0000 0.0000 0.0000 20.7865 0.0000
# 6 0.0000 0.0000 0.0000 0.0000 0.0000 27.5592
#
#
#
# Elastic Compliance Matrix: (Units=1/GPa)
#
#
# Indices 1 2 3 4 5 6 
#
# 1 0.008673 -0.000081 -0.005315 0.000000 0.000000 0.000000
# 2 -0.000081 0.009177 -0.003793 0.000000 0.000000 0.000000
# 3 -0.005315 -0.003793 0.013374 0.000000 0.000000 0.000000
# 4 0.000000 0.000000 0.000000 0.061598 0.000000 0.000000
# 5 0.000000 0.000000 0.000000 0.000000 0.048108 0.000000
# 6 0.000000 0.000000 0.000000 0.000000 0.000000 0.036286
#
#
# Mechanical properties :
#
#
# Convention : Reuss Voigt Hill
#
# Bulk Modulus (GPa) = 77.84274 79.25536 78.54905
# Shear Modulus (GPa) = 25.01558 29.85317 27.43437
#
# Velocity S-wave (km/s) = 3.49780 3.82107 3.66300
# Velocity P-wave (km/s) = 7.37456 7.63083 7.50379
#
# Compressibility (1/GPa) = 0.01284641
#
# Stress axis : x y z
#
# Youngs Moduli (GPa) = 115.29897 108.96371 74.77412
#
# Poissons Ratio (x) = 0.00883 0.39742
# Poissons Ratio (y) = 0.00934 0.28361
# Poissons Ratio (z) = 0.61280 0.41329
#
# Static dielectric constant tensor:
#      x y z
#    x 1.795770 0.000000 0.000000 
#    y 0.000000 1.779740 0.000000 
#    z 0.000000 0.000000 1.736590 
# 
# From -- ./inp_files/30761.got.cif
#   From: 2010.05.17/outbox.cif.g08.bks.cpg/sg21_16_cif.got.tgz:30761.got - 2010.06.03 23:14:55.
