data_PCOD9323197
_publ_section_title
;
Structure prediction by ZEFSAII (Michael W. Deem and Ramdas Pophale) SiO2 
 PCOD9323197
Probable space group: C 2 2 2
;
_chemical_formula_sum "Si O2"
_cell_formula_units_Z 28
_cell_length_a 22.884850
_cell_length_b 11.053170
_cell_length_c 5.255507
_cell_angle_alpha 90.000000
_cell_angle_beta 90.000000
_cell_angle_gamma 90.000000
_cell_volume 1329.381218
_symmetry_space_group_name_H-M "C 2 2 2"
_symmetry_group_IT_number 21
_symmetry_cell_setting 'orthorhombic'
loop_
_space_group_symop_operation_xyz
x,y,z
-x,-y,z
x,-y,-z
-x,y,-z
1/2+x,1/2+y,z
1/2-x,1/2-y,z
1/2+x,1/2-y,-z
1/2-x,1/2+y,-z
loop_
_atom_site_type_symbol
_atom_site_label
_atom_site_fract_x
_atom_site_fract_y
_atom_site_fract_z
Si Si1 0.154289 0.802359 0.355317
Si Si2 0.188914 0.321401 0.147341
Si Si3 0.749019 0.000000 0.500000
Si Si4 0.525655 0.635939 0.748341
O O1 0.149654 0.742546 0.634091
O O2 0.095133 0.869450 0.274876
O O3 0.208293 0.896511 0.382931
O O4 0.164474 0.703224 0.133652
O O5 0.250000 0.250000 0.144168
O O6 0.208767 0.446863 0.275437
O O7 0.500000 0.500000 0.749309
O O8 0.500000 0.698829 0.500000
O O9 0.500000 0.695645 0.000000
#
# Coordination Sequence:
#
# PCOD9323197 Si02
#       4
#     8   8   4   8
#     4  11  22  37  57  87 122 154 196 246 292 357
#     4  10  22  36  55  85 118 160 200 234 288 356
#     4  10  22  40  61  84 129 166 194 242 296 358
#     4  10  20  34  53  81 111 148 187 231 300 356
#
# _framework density 21.062429000000002
#
# number of rings (size 3 to 8) (size 9 to 14) (size 15 to 20)
#    0.000    1.714    0.000    6.000    0.000   17.143 
#    0.000    0.000    0.000    0.000    0.000   15.000 
#    0.000    0.000    0.000    0.000    0.000    0.000 
#
# Total GULP energy -78090.666558 kJ/mol
# GULP energy per Si atom -5577.904754 kJ/mol
# Density = 2.101449 g / cm^3
# Si number density = 21.062429 Si / 1000 Ang^3
#
#
#
# Elastic Constant Matrix: (Units=GPa)
#
#
# Indices 1 2 3 4 5 6 
#
# 1 91.1268 25.5387 18.0323 0.0000 0.0000 0.0000
# 2 25.5387 71.9673 20.6166 0.0000 0.0000 0.0000
# 3 18.0323 20.6166 169.5125 0.0000 0.0000 0.0000
# 4 0.0000 0.0000 0.0000 21.8917 0.0000 0.0000
# 5 0.0000 0.0000 0.0000 0.0000 31.9932 0.0000
# 6 0.0000 0.0000 0.0000 0.0000 0.0000 110.7402
#
#
#
# Elastic Compliance Matrix: (Units=1/GPa)
#
#
# Indices 1 2 3 4 5 6 
#
# 1 0.012291 -0.004131 -0.000805 0.000000 0.000000 0.000000
# 2 -0.004131 0.015785 -0.001480 0.000000 0.000000 0.000000
# 3 -0.000805 -0.001480 0.006165 0.000000 0.000000 0.000000
# 4 0.000000 0.000000 0.000000 0.045679 0.000000 0.000000
# 5 0.000000 0.000000 0.000000 0.000000 0.031257 0.000000
# 6 0.000000 0.000000 0.000000 0.000000 0.000000 0.009030
#
#
# Mechanical properties :
#
#
# Convention : Reuss Voigt Hill
#
# Bulk Modulus (GPa) = 46.71114 51.22017 48.96565
# Shear Modulus (GPa) = 35.66946 50.81962 43.24454
#
# Velocity S-wave (km/s) = 4.11969 4.91736 4.53610
# Velocity P-wave (km/s) = 6.69737 7.52407 7.12273
#
# Compressibility (1/GPa) = 0.02140817
#
# Stress axis : x y z
#
# Youngs Moduli (GPa) = 81.36209 63.35039 162.20712
#
# Poissons Ratio (x) = 0.26170 0.13058
# Poissons Ratio (y) = 0.33610 0.24013
# Poissons Ratio (z) = 0.06550 0.09378
#
# Static dielectric constant tensor:
#      x y z
#    x 1.747600 0.000000 0.000000 
#    y 0.000000 1.812840 0.000000 
#    z 0.000000 0.000000 0.957870 
# 
# From -- ./inp_files/5513.got.cif
#   From: 2010.05.17/outbox.cif.g08.bks.cpg/sg21_3_cif.got.tgz:5513.got - 2010.06.03 23:14:55.
