data_PCOD9323726
_publ_section_title
;
Structure prediction by ZEFSAII (Michael W. Deem and Ramdas Pophale) SiO2 
 PCOD9323726
Probable space group: C 2 2 2
;
_chemical_formula_sum "Si O2"
_cell_formula_units_Z 48
_cell_length_a 19.690442
_cell_length_b 7.426775
_cell_length_c 15.864201
_cell_angle_alpha 90.000000
_cell_angle_beta 90.000000
_cell_angle_gamma 90.000000
_cell_volume 2319.924950
_symmetry_space_group_name_H-M "C 2 2 2"
_symmetry_group_IT_number 21
_symmetry_cell_setting 'orthorhombic'
loop_
_space_group_symop_operation_xyz
x,y,z
-x,-y,z
x,-y,-z
-x,y,-z
1/2+x,1/2+y,z
1/2-x,1/2-y,z
1/2+x,1/2-y,-z
1/2-x,1/2+y,-z
loop_
_atom_site_type_symbol
_atom_site_label
_atom_site_fract_x
_atom_site_fract_y
_atom_site_fract_z
Si Si1 0.176495 0.351446 0.423344
Si Si2 0.074908 0.543134 0.901124
Si Si3 0.076309 0.935058 0.834439
Si Si4 0.175320 0.240988 0.849000
Si Si5 0.079229 0.968172 0.630559
Si Si6 0.676421 0.787839 0.652885
O O1 0.171681 0.500000 0.500000
O O2 0.250000 0.250000 0.419506
O O3 0.119173 0.196081 0.415151
O O4 0.166035 0.497670 0.348587
O O5 0.088803 0.746068 0.877349
O O6 0.132630 0.418382 0.864129
O O7 0.000000 0.500000 0.865299
O O8 0.073060 0.500000 0.000000
O O9 0.082004 0.927776 0.731918
O O10 0.129016 0.074555 0.874147
O O11 0.000000 0.000000 0.852336
O O12 0.250000 0.250000 0.887071
O O13 0.181643 0.222647 0.748458
O O14 0.119840 0.155554 0.614476
O O15 0.000000 0.000000 0.608487
O O16 0.750000 0.750000 0.611943
#
# Coordination Sequence:
#
# PCOD9323726 Si02
#       6
#     8   8   8   8   8   8
#     4  12  25  41  69  95 127 174 212 253 317 393
#     4  11  23  40  61  93 128 171 215 257 314 392
#     4  10  20  41  69  93 125 169 211 264 322 374
#     4  10  22  40  64  94 125 162 214 271 314 369
#     4  10  23  42  68  99 127 161 212 274 318 368
#     4  10  20  41  67  94 126 164 218 261 313 381
#
# _framework density 20.690325000000001
#
# number of rings (size 3 to 8) (size 9 to 14) (size 15 to 20)
#    0.000    1.500    3.333    1.500    0.000    2.000 
#    3.000    2.500    0.000    0.000    0.000    0.000 
#    0.000    0.000    0.000    0.000    0.000    0.000 
#
# Total GULP energy -133889.732752 kJ/mol
# GULP energy per Si atom -5578.738865 kJ/mol
# Density = 2.064323 g / cm^3
# Si number density = 20.690325 Si / 1000 Ang^3
#
#
#
# Elastic Constant Matrix: (Units=GPa)
#
#
# Indices 1 2 3 4 5 6 
#
# 1 214.5551 116.6181 25.9593 0.0000 0.0000 0.0000
# 2 116.6181 214.2962 22.6825 0.0000 0.0000 0.0000
# 3 25.9593 22.6825 21.6299 0.0000 0.0000 0.0000
# 4 0.0000 0.0000 0.0000 -13.4791 0.0000 0.0000
# 5 0.0000 0.0000 0.0000 0.0000 -0.8963 0.0000
# 6 0.0000 0.0000 0.0000 0.0000 0.0000 43.0874
#
#
#
# Elastic Compliance Matrix: (Units=1/GPa)
#
#
# Indices 1 2 3 4 5 6 
#
# 1 0.007070 -0.003317 -0.005006 0.000000 0.000000 0.000000
# 2 -0.003317 0.006806 -0.003156 0.000000 0.000000 0.000000
# 3 -0.005006 -0.003156 0.055549 0.000000 0.000000 0.000000
# 4 0.000000 0.000000 0.000000 -0.074189 0.000000 0.000000
# 5 0.000000 0.000000 0.000000 0.000000 -1.115674 0.000000
# 6 0.000000 0.000000 0.000000 0.000000 0.000000 0.023209
#
#
# Mechanical properties :
#
#
# Convention : Reuss Voigt Hill
#
# Bulk Modulus (GPa) = 21.52068 86.77789 54.14928
# Shear Modulus (GPa) = -4.72240 24.75715 10.01738
#
# Velocity S-wave (km/s) = -1.51241 3.46288 2.20274
# Velocity P-wave (km/s) = 2.71552 7.61716 5.71818
#
# Compressibility (1/GPa) = 0.04646694
#
# Stress axis : x y z
#
# Youngs Moduli (GPa) = 141.45159 146.93544 18.00210
#
# Poissons Ratio (x) = 0.48744 0.09011
# Poissons Ratio (y) = 0.46924 0.05681
# Poissons Ratio (z) = 0.70808 0.46366
#
# Static dielectric constant tensor:
#      x y z
#    x 1.781920 0.000000 0.000000 
#    y 0.000000 1.713270 0.000000 
#    z 0.000000 0.000000 1.737540 
# 
# From -- ./inp_files/37771.got.cif
#   From: 2010.05.17/outbox.cif.g08.bks.cpg/sg21_19_cif.got.tgz:37771.got - 2010.06.03 23:14:55.
