data_PCOD9323401
_publ_section_title
;
Structure prediction by ZEFSAII (Michael W. Deem and Ramdas Pophale) SiO2 
 PCOD9323401
Probable space group: C 2 2 2
;
_chemical_formula_sum "Si O2"
_cell_formula_units_Z 48
_cell_length_a 26.532941
_cell_length_b 5.177812
_cell_length_c 17.084724
_cell_angle_alpha 90.000000
_cell_angle_beta 90.000000
_cell_angle_gamma 90.000000
_cell_volume 2347.143467
_symmetry_space_group_name_H-M "C 2 2 2"
_symmetry_group_IT_number 21
_symmetry_cell_setting 'orthorhombic'
loop_
_space_group_symop_operation_xyz
x,y,z
-x,-y,z
x,-y,-z
-x,y,-z
1/2+x,1/2+y,z
1/2-x,1/2-y,z
1/2+x,1/2-y,-z
1/2-x,1/2+y,-z
loop_
_atom_site_type_symbol
_atom_site_label
_atom_site_fract_x
_atom_site_fract_y
_atom_site_fract_z
Si Si1 0.703058 0.594110 0.135144
Si Si2 0.876831 0.488011 0.799639
Si Si3 0.199175 0.158581 0.703262
Si Si4 0.058755 0.558806 0.651452
Si Si5 0.370249 0.739982 0.050558
Si Si6 0.387275 0.544837 0.410500
O O1 0.750000 0.750000 0.101925
O O2 0.718136 0.497945 0.221218
O O3 0.653381 0.765638 0.154072
O O4 0.684312 0.637702 0.919550
O O5 0.834991 0.621336 0.743962
O O6 0.920701 0.413189 0.740394
O O7 0.895640 0.685284 0.866702
O O8 0.250000 0.250000 0.661440
O O9 0.161054 0.011888 0.646225
O O10 0.072221 0.826288 0.610093
O O11 0.000000 0.500000 0.649802
O O12 0.088829 0.324500 0.609004
O O13 0.391410 0.500000 0.000000
O O14 0.367816 0.000000 0.000000
O O15 0.372629 0.500000 0.500000
#
# Coordination Sequence:
#
# PCOD9323401 Si02
#       6
#     8   8   8   8   8   8
#     4  11  20  37  61  86 123 168 214 253 309 365
#     4  10  21  39  61  89 119 160 212 262 303 368
#     4  10  20  36  61  90 122 169 216 255 299 369
#     4  11  24  43  69  96 122 163 215 265 321 382
#     4  11  23  40  57  88 124 168 200 253 318 375
#     4  11  24  42  64  97 135 165 203 263 323 383
#
# _framework density 20.450392000000001
#
# number of rings (size 3 to 8) (size 9 to 14) (size 15 to 20)
#    0.000    1.333    5.000    1.000    0.000    2.000 
#    3.000    4.167    0.000    0.500    4.333    0.000 
#    0.000    0.000    0.000    0.000    0.000    0.000 
#
# Total GULP energy -133940.219532 kJ/mol
# GULP energy per Si atom -5580.842481 kJ/mol
# Density = 2.040385 g / cm^3
# Si number density = 20.450392 Si / 1000 Ang^3
#
#
#
# Elastic Constant Matrix: (Units=GPa)
#
#
# Indices 1 2 3 4 5 6 
#
# 1 46.1139 -7.1743 6.8549 0.0000 0.0000 0.0000
# 2 -7.1743 82.3282 14.0339 0.0000 0.0000 0.0000
# 3 6.8549 14.0339 88.5037 0.0000 0.0000 0.0000
# 4 0.0000 0.0000 0.0000 26.1075 0.0000 0.0000
# 5 0.0000 0.0000 0.0000 0.0000 3.8388 0.0000
# 6 0.0000 0.0000 0.0000 0.0000 0.0000 25.6064
#
#
#
# Elastic Compliance Matrix: (Units=1/GPa)
#
#
# Indices 1 2 3 4 5 6 
#
# 1 0.022356 0.002306 -0.002097 0.000000 0.000000 0.000000
# 2 0.002306 0.012722 -0.002196 0.000000 0.000000 0.000000
# 3 -0.002097 -0.002196 0.011810 0.000000 0.000000 0.000000
# 4 0.000000 0.000000 0.000000 0.038303 0.000000 0.000000
# 5 0.000000 0.000000 0.000000 0.000000 0.260497 0.000000
# 6 0.000000 0.000000 0.000000 0.000000 0.000000 0.039053
#
#
# Mechanical properties :
#
#
# Convention : Reuss Voigt Hill
#
# Bulk Modulus (GPa) = 23.30325 27.15277 25.22801
# Shear Modulus (GPa) = 12.40636 24.65930 18.53283
#
# Velocity S-wave (km/s) = 2.46571 3.47625 3.01364
# Velocity P-wave (km/s) = 4.41883 5.42389 4.94695
#
# Compressibility (1/GPa) = 0.04291246
#
# Stress axis : x y z
#
# Youngs Moduli (GPa) = 44.73100 78.60567 84.67699
#
# Poissons Ratio (x) = -0.18123 0.17758
# Poissons Ratio (y) = -0.10313 0.18594
# Poissons Ratio (z) = 0.09381 0.17261
#
# Static dielectric constant tensor:
#      x y z
#    x 1.705820 0.000000 0.000000 
#    y 0.000000 1.821980 0.000000 
#    z 0.000000 0.000000 1.773050 
# 
# From -- ./inp_files/33795.got.cif
#   From: 2010.05.17/outbox.cif.g08.bks.cpg/sg21_17_cif.got.tgz:33795.got - 2010.06.03 23:14:55.
