data_PCOD9323252
_publ_section_title
;
Structure prediction by ZEFSAII (Michael W. Deem and Ramdas Pophale) SiO2 
 PCOD9323252
Probable space group: C 2 2 2
;
_chemical_formula_sum "Si O2"
_cell_formula_units_Z 40
_cell_length_a 7.998846
_cell_length_b 25.210085
_cell_length_c 8.208854
_cell_angle_alpha 90.000000
_cell_angle_beta 90.000000
_cell_angle_gamma 90.000000
_cell_volume 1655.328441
_symmetry_space_group_name_H-M "C 2 2 2"
_symmetry_group_IT_number 21
_symmetry_cell_setting 'orthorhombic'
loop_
_space_group_symop_operation_xyz
x,y,z
-x,-y,z
x,-y,-z
-x,y,-z
1/2+x,1/2+y,z
1/2-x,1/2-y,z
1/2+x,1/2-y,-z
1/2-x,1/2+y,-z
loop_
_atom_site_type_symbol
_atom_site_label
_atom_site_fract_x
_atom_site_fract_y
_atom_site_fract_z
Si Si1 0.816998 0.387918 0.303330
Si Si2 0.360455 0.207075 0.885854
Si Si3 0.285393 0.884303 0.685017
Si Si4 0.300038 0.499431 0.309521
Si Si5 0.087020 0.784678 0.668566
O O1 0.752802 0.338729 0.197846
O O2 0.753301 0.386165 0.489069
O O3 0.773861 0.446324 0.237716
O O4 0.015699 0.376510 0.304419
O O5 0.250000 0.250000 0.982587
O O6 0.459793 0.245289 0.761026
O O7 0.500000 0.182088 0.000000
O O8 0.165494 0.837867 0.749845
O O9 0.252454 0.942416 0.757960
O O10 0.500000 0.500000 0.306583
O O11 0.242997 0.500000 0.500000
O O12 0.250000 0.750000 0.626420
O O13 0.000000 0.799663 0.500000
#
# Coordination Sequence:
#
# PCOD9323252 Si02
#       5
#     8   8   8   8   8
#     4  10  20  39  59  91 127 169 209 262 317 388
#     4  12  27  44  63  91 128 174 218 272 330 393
#     4  10  20  34  62  92 130 165 207 259 323 382
#     4   9  19  32  56  93 129 162 203 261 324 380
#     4  12  23  38  63  98 133 170 219 271 324 386
#
# _framework density 24.164389
#
# number of rings (size 3 to 8) (size 9 to 14) (size 15 to 20)
#    0.000    1.400    2.000    4.200    8.400    2.400 
#    0.000    0.000    0.000    2.400    0.000    2.800 
#    0.000    0.000    0.000    0.000    0.000    0.000 
#
# Total GULP energy -111785.478587 kJ/mol
# GULP energy per Si atom -5589.273929 kJ/mol
# Density = 2.410939 g / cm^3
# Si number density = 24.164389 Si / 1000 Ang^3
#
#
#
# Elastic Constant Matrix: (Units=GPa)
#
#
# Indices 1 2 3 4 5 6 
#
# 1 42.6429 39.4855 -0.3146 0.0000 0.0000 0.0000
# 2 39.4855 224.3226 28.2753 0.0000 0.0000 0.0000
# 3 -0.3146 28.2753 36.9354 0.0000 0.0000 0.0000
# 4 0.0000 0.0000 0.0000 13.0456 0.0000 0.0000
# 5 0.0000 0.0000 0.0000 0.0000 17.2373 0.0000
# 6 0.0000 0.0000 0.0000 0.0000 0.0000 54.2035
#
#
#
# Elastic Compliance Matrix: (Units=1/GPa)
#
#
# Indices 1 2 3 4 5 6 
#
# 1 0.028692 -0.005624 0.004550 0.000000 0.000000 0.000000
# 2 -0.005624 0.006036 -0.004669 0.000000 0.000000 0.000000
# 3 0.004550 -0.004669 0.030687 0.000000 0.000000 0.000000
# 4 0.000000 0.000000 0.000000 0.076654 0.000000 0.000000
# 5 0.000000 0.000000 0.000000 0.000000 0.058014 0.000000
# 6 0.000000 0.000000 0.000000 0.000000 0.000000 0.018449
#
#
# Mechanical properties :
#
#
# Convention : Reuss Voigt Hill
#
# Bulk Modulus (GPa) = 18.54294 48.75481 33.64888
# Shear Modulus (GPa) = 20.16173 32.66091 26.41132
#
# Velocity S-wave (km/s) = 2.89166 3.68042 3.30962
# Velocity P-wave (km/s) = 4.34042 6.18714 5.34415
#
# Compressibility (1/GPa) = 0.05392887
#
# Stress axis : x y z
#
# Youngs Moduli (GPa) = 34.85350 165.66532 32.58687
#
# Poissons Ratio (x) = 0.93166 -0.14826
# Poissons Ratio (y) = 0.19601 0.15214
# Poissons Ratio (z) = -0.15857 0.77347
#
# Static dielectric constant tensor:
#      x y z
#    x 1.990610 0.000000 0.000000 
#    y 0.000000 1.962330 0.000000 
#    z 0.000000 0.000000 1.930490 
# 
# From -- ./inp_files/10917.got.cif
#   From: 2010.05.17/outbox.cif.g08.bks.cpg/sg21_6_cif.got.tgz:10917.got - 2010.06.03 23:14:55.
