data_PCOD9323209
_publ_section_title
;
Structure prediction by ZEFSAII (Michael W. Deem and Ramdas Pophale) SiO2 
 PCOD9323209
Probable space group: C 2 2 2
;
_chemical_formula_sum "Si O2"
_cell_formula_units_Z 32
_cell_length_a 12.838142
_cell_length_b 23.628242
_cell_length_c 4.801496
_cell_angle_alpha 90.000000
_cell_angle_beta 90.000000
_cell_angle_gamma 90.000000
_cell_volume 1456.498886
_symmetry_space_group_name_H-M "C 2 2 2"
_symmetry_group_IT_number 21
_symmetry_cell_setting 'orthorhombic'
loop_
_space_group_symop_operation_xyz
x,y,z
-x,-y,z
x,-y,-z
-x,y,-z
1/2+x,1/2+y,z
1/2-x,1/2-y,z
1/2+x,1/2-y,-z
1/2-x,1/2+y,-z
loop_
_atom_site_type_symbol
_atom_site_label
_atom_site_fract_x
_atom_site_fract_y
_atom_site_fract_z
Si Si1 0.710076 0.374888 0.508013
Si Si2 0.923917 0.222476 0.242344
Si Si3 0.924534 0.348943 0.241247
Si Si4 0.876023 0.935593 0.968934
O O1 0.665459 0.315953 0.381152
O O2 0.825473 0.379547 0.379010
O O3 0.687326 0.391015 0.830337
O O4 0.641946 0.420643 0.350217
O O5 0.890314 0.285332 0.142772
O O6 0.000000 0.229467 0.500000
O O7 0.000000 0.197940 0.000000
O O8 0.000000 0.342269 0.500000
O O9 0.000000 0.373581 0.000000
O O10 0.000000 0.932368 0.000000
O O11 0.839525 0.000000 0.000000
#
# Coordination Sequence:
#
# PCOD9323209 Si02
#       4
#     8   8   8   8
#     4  12  21  37  63  85 116 163 203 240 304 373
#     4  10  20  34  55  88 124 154 194 242 296 365
#     4  10  22  38  56  85 123 160 201 248 291 349
#     4  11  24  40  60  89 120 149 193 255 318 374
#
# _framework density 21.970493999999999
#
# number of rings (size 3 to 8) (size 9 to 14) (size 15 to 20)
#    0.000    1.250    0.000    7.500    0.000    2.000 
#    0.000   10.000    0.000   11.250    0.000    0.000 
#    0.000    0.000    0.000    0.000    0.000    0.000 
#
# Total GULP energy -89071.211353 kJ/mol
# GULP energy per Si atom -5566.950710 kJ/mol
# Density = 2.192049 g / cm^3
# Si number density = 21.970494 Si / 1000 Ang^3
#
#
#
# Elastic Constant Matrix: (Units=GPa)
#
#
# Indices 1 2 3 4 5 6 
#
# 1 104.2697 5.9023 16.8507 0.0000 0.0000 0.0000
# 2 5.9023 35.2804 -9.9816 0.0000 0.0000 0.0000
# 3 16.8507 -9.9816 106.8627 0.0000 0.0000 0.0000
# 4 0.0000 0.0000 0.0000 4.7927 0.0000 0.0000
# 5 0.0000 0.0000 0.0000 0.0000 39.4921 0.0000
# 6 0.0000 0.0000 0.0000 0.0000 0.0000 -124.6981
#
#
#
# Elastic Compliance Matrix: (Units=1/GPa)
#
#
# Indices 1 2 3 4 5 6 
#
# 1 0.010001 -0.002177 -0.001780 0.000000 0.000000 0.000000
# 2 -0.002177 0.029588 0.003107 0.000000 0.000000 0.000000
# 3 -0.001780 0.003107 0.009929 0.000000 0.000000 0.000000
# 4 0.000000 0.000000 0.000000 0.208649 0.000000 0.000000
# 5 0.000000 0.000000 0.000000 0.000000 0.025322 0.000000
# 6 0.000000 0.000000 0.000000 0.000000 0.000000 -0.008019
#
#
# Mechanical properties :
#
#
# Convention : Reuss Voigt Hill
#
# Bulk Modulus (GPa) = 20.91311 30.21730 25.56521
# Shear Modulus (GPa) = 17.05853 -0.50656 8.27599
#
# Velocity S-wave (km/s) = 2.78947 -0.48069 1.94295
# Velocity P-wave (km/s) = 4.46254 3.67088 4.08593
#
# Compressibility (1/GPa) = 0.04781689
#
# Stress axis : x y z
#
# Youngs Moduli (GPa) = 99.98527 33.79800 100.71762
#
# Poissons Ratio (x) = 0.07358 0.17932
# Poissons Ratio (y) = 0.21766 -0.31292
# Poissons Ratio (z) = 0.17802 -0.10501
#
# Static dielectric constant tensor:
#      x y z
#    x 1.838340 0.000000 0.000000 
#    y 0.000000 1.902570 0.000000 
#    z 0.000000 0.000000 1.826120 
# 
# From -- ./inp_files/2409.got.cif
#   From: 2010.05.17/outbox.cif.g08.bks.cpg/sg21_2_cif.got.tgz:2409.got - 2010.06.03 23:14:55.
