data_PCOD9323806
_publ_section_title
;
Structure prediction by ZEFSAII (Michael W. Deem and Ramdas Pophale) SiO2 
 PCOD9323806
Probable space group: C 2 2 2
;
_chemical_formula_sum "Si O2"
_cell_formula_units_Z 48
_cell_length_a 14.515540
_cell_length_b 8.291650
_cell_length_c 16.953563
_cell_angle_alpha 90.000000
_cell_angle_beta 90.000000
_cell_angle_gamma 90.000000
_cell_volume 2040.493159
_symmetry_space_group_name_H-M "C 2 2 2"
_symmetry_group_IT_number 21
_symmetry_cell_setting 'orthorhombic'
loop_
_space_group_symop_operation_xyz
x,y,z
-x,-y,z
x,-y,-z
-x,y,-z
1/2+x,1/2+y,z
1/2-x,1/2-y,z
1/2+x,1/2-y,-z
1/2-x,1/2+y,-z
loop_
_atom_site_type_symbol
_atom_site_label
_atom_site_fract_x
_atom_site_fract_y
_atom_site_fract_z
Si Si1 0.354378 0.253251 0.331457
Si Si2 0.894659 0.199999 0.841487
Si Si3 0.394436 0.809600 0.006454
Si Si4 0.857159 0.560295 0.589162
Si Si5 0.606061 0.683161 0.829669
Si Si6 0.148816 0.116846 0.652715
O O1 0.250000 0.250000 0.364919
O O2 0.348028 0.236858 0.237282
O O3 0.393192 0.434534 0.345965
O O4 0.400375 0.091075 0.364042
O O5 0.001660 0.250092 0.829534
O O6 0.894630 0.007551 0.843631
O O7 0.852978 0.253845 0.923987
O O8 0.353516 0.760844 0.090754
O O9 0.500000 0.742262 0.000000
O O10 0.398834 0.000000 0.000000
O O11 0.854670 0.500000 0.500000
O O12 0.895890 0.741895 0.599756
O O13 0.753004 0.585210 0.622909
O O14 0.646154 0.691450 0.741499
#
# Coordination Sequence:
#
# PCOD9323806 Si02
#       6
#     8   8   8   8   8   8
#     4   9  19  34  53  77 106 137 176 221 264 315
#     4   9  17  31  53  75 103 143 183 213 266 320
#     4   9  17  27  46  75 105 139 180 217 253 308
#     4  10  21  34  56  81  98 134 180 221 268 323
#     4   9  17  32  51  77 105 140 175 223 267 315
#     4   9  20  33  53  80 105 130 170 224 268 316
#
# _framework density 23.523724999999999
#
# number of rings (size 3 to 8) (size 9 to 14) (size 15 to 20)
#    0.000    2.833    0.000    0.500    9.333    2.000 
#    0.000    0.000    3.667    2.000    4.333    0.000 
#    0.000    0.000    0.000    0.000    0.000    0.000 
#
# Total GULP energy -133740.588107 kJ/mol
# GULP energy per Si atom -5572.524504 kJ/mol
# Density = 2.347018 g / cm^3
# Si number density = 23.523725 Si / 1000 Ang^3
#
#
#
# Elastic Constant Matrix: (Units=GPa)
#
#
# Indices 1 2 3 4 5 6 
#
# 1 67.4349 15.0816 16.0230 0.0000 0.0000 0.0000
# 2 15.0816 130.0724 87.3563 0.0000 0.0000 0.0000
# 3 16.0230 87.3563 182.9438 0.0000 0.0000 0.0000
# 4 0.0000 0.0000 0.0000 46.4443 0.0000 0.0000
# 5 0.0000 0.0000 0.0000 0.0000 13.0203 0.0000
# 6 0.0000 0.0000 0.0000 0.0000 0.0000 10.7546
#
#
#
# Elastic Compliance Matrix: (Units=1/GPa)
#
#
# Indices 1 2 3 4 5 6 
#
# 1 0.015289 -0.001286 -0.000725 0.000000 0.000000 0.000000
# 2 -0.001286 0.011426 -0.005343 0.000000 0.000000 0.000000
# 3 -0.000725 -0.005343 0.008081 0.000000 0.000000 0.000000
# 4 0.000000 0.000000 0.000000 0.021531 0.000000 0.000000
# 5 0.000000 0.000000 0.000000 0.000000 0.076803 0.000000
# 6 0.000000 0.000000 0.000000 0.000000 0.000000 0.092983
#
#
# Mechanical properties :
#
#
# Convention : Reuss Voigt Hill
#
# Bulk Modulus (GPa) = 49.78206 68.59700 59.18953
# Shear Modulus (GPa) = 20.20066 31.50987 25.85527
#
# Velocity S-wave (km/s) = 2.93360 3.66388 3.31889
# Velocity P-wave (km/s) = 5.71691 6.86460 6.31688
#
# Compressibility (1/GPa) = 0.02008756
#
# Stress axis : x y z
#
# Youngs Moduli (GPa) = 65.40666 87.52334 123.74666
#
# Poissons Ratio (x) = 0.11253 0.08973
# Poissons Ratio (y) = 0.08409 0.66119
# Poissons Ratio (z) = 0.04743 0.46765
#
# Static dielectric constant tensor:
#      x y z
#    x 2.043550 0.000000 0.000000 
#    y 0.000000 1.930440 0.000000 
#    z 0.000000 0.000000 1.898640 
# 
# From -- ./inp_files/30638.got.cif
#   From: 2010.05.17/outbox.cif.g08.bks.cpg/sg21_16_cif.got.tgz:30638.got - 2010.06.03 23:14:55.
