data_PCOD9323870
_publ_section_title
;
Structure prediction by ZEFSAII (Michael W. Deem and Ramdas Pophale) SiO2 
 PCOD9323870
Probable space group: C 2 2 2
;
_chemical_formula_sum "Si O2"
_cell_formula_units_Z 44
_cell_length_a 17.900255
_cell_length_b 13.776900
_cell_length_c 8.387893
_cell_angle_alpha 90.000000
_cell_angle_beta 90.000000
_cell_angle_gamma 90.000000
_cell_volume 2068.538487
_symmetry_space_group_name_H-M "C 2 2 2"
_symmetry_group_IT_number 21
_symmetry_cell_setting 'orthorhombic'
loop_
_space_group_symop_operation_xyz
x,y,z
-x,-y,z
x,-y,-z
-x,y,-z
1/2+x,1/2+y,z
1/2-x,1/2-y,z
1/2+x,1/2-y,-z
1/2-x,1/2+y,-z
loop_
_atom_site_type_symbol
_atom_site_label
_atom_site_fract_x
_atom_site_fract_y
_atom_site_fract_z
Si Si1 0.229547 0.138738 0.691107
Si Si2 0.663868 0.000000 0.500000
Si Si3 0.812856 0.384198 0.009679
Si Si4 0.960937 0.288820 0.150398
Si Si5 0.920939 0.837270 0.541034
Si Si6 0.891216 0.331694 0.706702
O O1 0.250000 0.250000 0.640582
O O2 0.239666 0.138339 0.883225
O O3 0.151373 0.109675 0.610397
O O4 0.286770 0.059209 0.626415
O O5 0.617114 0.082456 0.583423
O O6 0.884864 0.341425 0.102431
O O7 0.818940 0.500000 0.000000
O O8 0.823485 0.338705 0.833688
O O9 0.941531 0.229046 0.306798
O O10 0.031672 0.353157 0.200577
O O11 0.000000 0.233097 0.000000
O O12 0.897193 0.768979 0.391201
O O13 0.000000 0.887074 0.500000
#
# Coordination Sequence:
#
# PCOD9323870 Si02
#       6
#     8   4   8   8   8   8
#     4  12  23  42  65  91 134 175 216 278 337 390
#     4  12  22  40  62  96 130 166 228 276 331 402
#     4  11  21  38  55  90 133 174 217 262 331 401
#     4   9  19  35  56  89 131 175 210 264 329 408
#     4  10  21  43  64  94 127 173 228 271 333 400
#     4  10  21  36  58  90 134 168 221 266 336 406
#
# _framework density 21.271058
#
# number of rings (size 3 to 8) (size 9 to 14) (size 15 to 20)
#    0.000    1.455    5.455    0.000    0.000    3.273 
#    9.818    0.455    0.000    0.000    0.000    0.000 
#    0.000    0.000    0.000    0.000    0.000    0.000 
#
# Total GULP energy -122604.006028 kJ/mol
# GULP energy per Si atom -5572.909365 kJ/mol
# Density = 2.122264 g / cm^3
# Si number density = 21.271058 Si / 1000 Ang^3
#
#
#
# Elastic Constant Matrix: (Units=GPa)
#
#
# Indices 1 2 3 4 5 6 
#
# 1 63.1129 -5.7218 21.6772 0.0000 0.0000 0.0000
# 2 -5.7218 35.5468 4.1035 0.0000 0.0000 0.0000
# 3 21.6772 4.1035 103.5952 0.0000 0.0000 0.0000
# 4 0.0000 0.0000 0.0000 15.8871 0.0000 0.0000
# 5 0.0000 0.0000 0.0000 0.0000 40.7301 0.0000
# 6 0.0000 0.0000 0.0000 0.0000 0.0000 5.7174
#
#
#
# Elastic Compliance Matrix: (Units=1/GPa)
#
#
# Indices 1 2 3 4 5 6 
#
# 1 0.017436 0.003243 -0.003777 0.000000 0.000000 0.000000
# 2 0.003243 0.028864 -0.001822 0.000000 0.000000 0.000000
# 3 -0.003777 -0.001822 0.010515 0.000000 0.000000 0.000000
# 4 0.000000 0.000000 0.000000 0.062944 0.000000 0.000000
# 5 0.000000 0.000000 0.000000 0.000000 0.024552 0.000000
# 6 0.000000 0.000000 0.000000 0.000000 0.000000 0.174904
#
#
# Mechanical properties :
#
#
# Convention : Reuss Voigt Hill
#
# Bulk Modulus (GPa) = 19.19269 26.93028 23.06148
# Shear Modulus (GPa) = 14.65005 24.61333 19.63169
#
# Velocity S-wave (km/s) = 2.62722 3.40535 3.04127
# Velocity P-wave (km/s) = 4.27148 5.30565 4.81640
#
# Compressibility (1/GPa) = 0.05210318
#
# Stress axis : x y z
#
# Youngs Moduli (GPa) = 57.35323 34.64500 95.09839
#
# Poissons Ratio (x) = -0.11234 0.35917
# Poissons Ratio (y) = -0.18597 0.17325
# Poissons Ratio (z) = 0.21662 0.06312
#
# Static dielectric constant tensor:
#      x y z
#    x 1.857750 0.000000 0.000000 
#    y 0.000000 1.740580 0.000000 
#    z 0.000000 0.000000 1.902030 
# 
# From -- ./inp_files/16360.got.cif
#   From: 2010.05.17/outbox.cif.g08.bks.cpg/sg21_9_cif.got.tgz:16360.got - 2010.06.03 23:14:55.
