data_PCOD9323913
_publ_section_title
;
Structure prediction by ZEFSAII (Michael W. Deem and Ramdas Pophale) SiO2 
 PCOD9323913
Probable space group: C 2 2 2
;
_chemical_formula_sum "Si O2"
_cell_formula_units_Z 60
_cell_length_a 24.276792
_cell_length_b 20.360750
_cell_length_c 4.978424
_cell_angle_alpha 90.000000
_cell_angle_beta 90.000000
_cell_angle_gamma 90.000000
_cell_volume 2460.803583
_symmetry_space_group_name_H-M "C 2 2 2"
_symmetry_group_IT_number 21
_symmetry_cell_setting 'orthorhombic'
loop_
_space_group_symop_operation_xyz
x,y,z
-x,-y,z
x,-y,-z
-x,y,-z
1/2+x,1/2+y,z
1/2-x,1/2-y,z
1/2+x,1/2-y,-z
1/2-x,1/2+y,-z
loop_
_atom_site_type_symbol
_atom_site_label
_atom_site_fract_x
_atom_site_fract_y
_atom_site_fract_z
Si Si1 0.179261 0.191855 0.414221
Si Si2 0.594544 0.000000 0.500000
Si Si3 0.555288 0.649329 0.391303
Si Si4 0.315265 0.087924 0.700724
Si Si5 0.296550 0.391167 0.901598
Si Si6 0.962345 0.627694 0.261809
Si Si7 0.920637 0.068904 0.121579
Si Si8 0.340608 0.169596 0.197139
O O1 0.112904 0.185383 0.444418
O O2 0.203650 0.171605 0.699945
O O3 0.187039 0.263766 0.295245
O O4 0.200692 0.138059 0.200190
O O5 0.635476 0.964204 0.710608
O O6 0.558711 0.944233 0.356715
O O7 0.500000 0.683691 0.500000
O O8 0.558302 0.585440 0.584252
O O9 0.559068 0.625503 0.084507
O O10 0.255603 0.066534 0.805602
O O11 0.318257 0.112879 0.395305
O O12 0.328648 0.149257 0.893553
O O13 0.354298 0.427692 0.861986
O O14 0.906828 0.669407 0.223194
O O15 0.000000 0.654444 0.500000
O O16 0.000000 0.623313 0.000000
O O17 0.937268 0.000000 0.000000
#
# Coordination Sequence:
#
# PCOD9323913 Si02
#       8
#     8   4   8   8   8   8   8   8
#     4  10  22  41  62  87 127 159 206 262 313 370
#     4  10  25  44  64  96 132 168 209 272 316 374
#     4  10  21  37  59  85 118 158 201 250 310 369
#     4  11  24  42  62  93 126 159 214 254 311 377
#     4  10  22  41  61  90 121 167 206 252 319 377
#     4  11  24  42  65  91 126 166 209 254 318 386
#     4  10  21  38  56  86 121 154 203 252 298 373
#     4  11  24  41  63  94 124 158 209 266 301 374
#
# _framework density 24.382277999999999
#
# number of rings (size 3 to 8) (size 9 to 14) (size 15 to 20)
#    0.000    1.600    0.000    4.200    0.000   11.733 
#   12.000    2.667    0.000    0.000    0.000    0.000 
#    0.000    0.000    0.000    0.000    0.000    0.000 
#
# Total GULP energy -167918.170693 kJ/mol
# GULP energy per Si atom -5597.272356 kJ/mol
# Density = 2.432678 g / cm^3
# Si number density = 24.382278 Si / 1000 Ang^3
#
#
#
# Elastic Constant Matrix: (Units=GPa)
#
#
# Indices 1 2 3 4 5 6 
#
# 1 180.7574 3.1311 43.1482 0.0000 0.0000 0.0000
# 2 3.1311 60.5512 -0.0535 0.0000 0.0000 0.0000
# 3 43.1482 -0.0535 96.2950 0.0000 0.0000 0.0000
# 4 0.0000 0.0000 0.0000 25.3663 0.0000 0.0000
# 5 0.0000 0.0000 0.0000 0.0000 47.0178 0.0000
# 6 0.0000 0.0000 0.0000 0.0000 0.0000 9.4358
#
#
#
# Elastic Compliance Matrix: (Units=1/GPa)
#
#
# Indices 1 2 3 4 5 6 
#
# 1 0.006201 -0.000323 -0.002779 0.000000 0.000000 0.000000
# 2 -0.000323 0.016532 0.000154 0.000000 0.000000 0.000000
# 3 -0.002779 0.000154 0.011630 0.000000 0.000000 0.000000
# 4 0.000000 0.000000 0.000000 0.039422 0.000000 0.000000
# 5 0.000000 0.000000 0.000000 0.000000 0.021269 0.000000
# 6 0.000000 0.000000 0.000000 0.000000 0.000000 0.105979
#
#
# Mechanical properties :
#
#
# Convention : Reuss Voigt Hill
#
# Bulk Modulus (GPa) = 35.12840 47.78393 41.45616
# Shear Modulus (GPa) = 23.10343 35.78915 29.44629
#
# Velocity S-wave (km/s) = 3.08157 3.83539 3.47896
# Velocity P-wave (km/s) = 5.20577 6.26530 5.75995
#
# Compressibility (1/GPa) = 0.02846700
#
# Stress axis : x y z
#
# Youngs Moduli (GPa) = 161.25895 60.48952 85.98461
#
# Poissons Ratio (x) = 0.01955 0.23894
# Poissons Ratio (y) = 0.05211 -0.01324
# Poissons Ratio (z) = 0.44811 -0.00931
#
# Static dielectric constant tensor:
#      x y z
#    x 2.006050 0.000000 0.000000 
#    y 0.000000 1.941680 0.000000 
#    z 0.000000 0.000000 1.859710 
# 
# From -- ./inp_files/6836.got.cif
#   From: 2010.05.17/outbox.cif.g08.bks.cpg/sg21_4_cif.got.tgz:6836.got - 2010.06.03 23:14:55.
