data_PCOD9323366
_publ_section_title
;
Structure prediction by ZEFSAII (Michael W. Deem and Ramdas Pophale) SiO2 
 PCOD9323366
Probable space group: C 2 2 2
;
_chemical_formula_sum "Si O2"
_cell_formula_units_Z 48
_cell_length_a 16.522095
_cell_length_b 7.355031
_cell_length_c 16.751003
_cell_angle_alpha 90.000000
_cell_angle_beta 90.000000
_cell_angle_gamma 90.000000
_cell_volume 2035.590610
_symmetry_space_group_name_H-M "C 2 2 2"
_symmetry_group_IT_number 21
_symmetry_cell_setting 'orthorhombic'
loop_
_space_group_symop_operation_xyz
x,y,z
-x,-y,z
x,-y,-z
-x,y,-z
1/2+x,1/2+y,z
1/2-x,1/2-y,z
1/2+x,1/2-y,-z
1/2-x,1/2+y,-z
loop_
_atom_site_type_symbol
_atom_site_label
_atom_site_fract_x
_atom_site_fract_y
_atom_site_fract_z
Si Si1 0.908695 0.077285 0.701471
Si Si2 0.155437 0.775990 0.860235
Si Si3 0.344751 0.788931 0.028589
Si Si4 0.087546 0.499731 0.354045
Si Si5 0.082748 0.596174 0.180170
Si Si6 0.736443 0.534841 0.409196
O O1 0.879070 0.090954 0.793258
O O2 0.908195 0.287886 0.672350
O O3 0.836739 0.983638 0.650236
O O4 0.000000 0.000000 0.694019
O O5 0.250000 0.750000 0.872193
O O6 0.141272 0.573738 0.826948
O O7 0.124134 0.813867 0.949567
O O8 0.250000 0.750000 0.044005
O O9 0.391535 0.765681 0.111761
O O10 0.352481 0.000000 0.000000
O O11 0.078790 0.628318 0.274811
O O12 0.173470 0.547011 0.394265
O O13 0.000000 0.500000 0.397824
O O14 0.000000 0.500000 0.155370
O O15 0.711713 0.500000 0.500000
O O16 0.750000 0.750000 0.398743
#
# Coordination Sequence:
#
# PCOD9323366 Si02
#       6
#     8   8   8   8   8   8
#     4  10  20  36  59  85 113 152 195 238 288 351
#     4   9  17  33  54  74 105 150 190 228 286 345
#     4   9  18  32  52  77 106 145 192 240 287 339
#     4   9  19  38  59  84 114 152 193 235 289 351
#     4   9  17  32  54  77 105 144 189 231 281 342
#     4  10  22  40  62  87 120 156 192 237 296 357
#
# _framework density 23.580380000000002
#
# number of rings (size 3 to 8) (size 9 to 14) (size 15 to 20)
#    0.000    2.667    0.000    2.500    0.000    5.000 
#    0.000   24.167    0.000    4.000    0.000    1.167 
#    0.000    0.000    0.000    0.000    0.000    0.000 
#
# Total GULP energy -133720.025539 kJ/mol
# GULP energy per Si atom -5571.667731 kJ/mol
# Density = 2.352671 g / cm^3
# Si number density = 23.580380 Si / 1000 Ang^3
#
#
#
# Elastic Constant Matrix: (Units=GPa)
#
#
# Indices 1 2 3 4 5 6 
#
# 1 117.3680 15.1388 71.4869 0.0000 0.0000 0.0000
# 2 15.1388 53.1119 25.8681 0.0000 0.0000 0.0000
# 3 71.4869 25.8681 139.0253 0.0000 0.0000 0.0000
# 4 0.0000 0.0000 0.0000 30.1459 0.0000 0.0000
# 5 0.0000 0.0000 0.0000 0.0000 11.1967 0.0000
# 6 0.0000 0.0000 0.0000 0.0000 0.0000 26.4138
#
#
#
# Elastic Compliance Matrix: (Units=1/GPa)
#
#
# Indices 1 2 3 4 5 6 
#
# 1 0.012416 -0.000472 -0.006297 0.000000 0.000000 0.000000
# 2 -0.000472 0.020722 -0.003613 0.000000 0.000000 0.000000
# 3 -0.006297 -0.003613 0.011103 0.000000 0.000000 0.000000
# 4 0.000000 0.000000 0.000000 0.033172 0.000000 0.000000
# 5 0.000000 0.000000 0.000000 0.000000 0.089312 0.000000
# 6 0.000000 0.000000 0.000000 0.000000 0.000000 0.037859
#
#
# Mechanical properties :
#
#
# Convention : Reuss Voigt Hill
#
# Bulk Modulus (GPa) = 42.59308 59.38809 50.99058
# Shear Modulus (GPa) = 21.44322 26.68538 24.06430
#
# Velocity S-wave (km/s) = 3.01884 3.36769 3.19803
# Velocity P-wave (km/s) = 5.50031 6.35310 5.94202
#
# Compressibility (1/GPa) = 0.02347799
#
# Stress axis : x y z
#
# Youngs Moduli (GPa) = 80.53945 48.25680 90.06670
#
# Poissons Ratio (x) = 0.02279 0.56711
# Poissons Ratio (y) = 0.03804 0.32540
# Poissons Ratio (z) = 0.50712 0.17435
#
# Static dielectric constant tensor:
#      x y z
#    x 1.836670 0.000000 0.000000 
#    y 0.000000 1.954180 0.000000 
#    z 0.000000 0.000000 1.954720 
# 
# From -- ./inp_files/32828.got.cif
#   From: 2010.05.17/outbox.cif.g08.bks.cpg/sg21_17_cif.got.tgz:32828.got - 2010.06.03 23:14:55.
