data_PCOD9323831
_publ_section_title
;
Structure prediction by ZEFSAII (Michael W. Deem and Ramdas Pophale) SiO2 
 PCOD9323831
Probable space group: C 2 2 2
;
_chemical_formula_sum "Si O2"
_cell_formula_units_Z 32
_cell_length_a 7.848843
_cell_length_b 27.602196
_cell_length_c 7.252180
_cell_angle_alpha 90.000000
_cell_angle_beta 90.000000
_cell_angle_gamma 90.000000
_cell_volume 1571.150732
_symmetry_space_group_name_H-M "C 2 2 2"
_symmetry_group_IT_number 21
_symmetry_cell_setting 'orthorhombic'
loop_
_space_group_symop_operation_xyz
x,y,z
-x,-y,z
x,-y,-z
-x,y,-z
1/2+x,1/2+y,z
1/2-x,1/2-y,z
1/2+x,1/2-y,-z
1/2-x,1/2+y,-z
loop_
_atom_site_type_symbol
_atom_site_label
_atom_site_fract_x
_atom_site_fract_y
_atom_site_fract_z
Si Si1 0.367171 0.148447 0.230052
Si Si2 0.830452 0.119720 0.404790
Si Si3 0.540706 0.946256 0.718952
Si Si4 0.733710 0.807260 0.861609
O O1 0.281985 0.143399 0.429677
O O2 0.417207 0.092794 0.186809
O O3 0.547252 0.177032 0.218548
O O4 0.258372 0.172764 0.069541
O O5 0.727504 0.078520 0.291053
O O6 0.865377 0.163644 0.265071
O O7 0.000000 0.100181 0.500000
O O8 0.500000 0.947099 0.500000
O O9 0.500000 0.000000 0.786779
O O10 0.750000 0.750000 0.856766
#
# Coordination Sequence:
#
# PCOD9323831 Si02
#       4
#     8   8   8   8
#     4   9  20  38  55  81 114 145 189 234 275 332
#     4  10  21  35  55  86 119 145 182 235 280 333
#     4   8  15  34  60  82 108 148 186 222 279 338
#     4  10  21  36  56  79 109 154 196 228 273 331
#
# _framework density 20.367238
#
# number of rings (size 3 to 8) (size 9 to 14) (size 15 to 20)
#    0.000    2.750    0.000    2.250    0.000    8.000 
#    0.000   20.000    0.000    0.000    0.000   42.000 
#    0.000    0.000    0.000    0.000    0.000    0.000 
#
# Total GULP energy -89117.028672 kJ/mol
# GULP energy per Si atom -5569.814292 kJ/mol
# Density = 2.032088 g / cm^3
# Si number density = 20.367238 Si / 1000 Ang^3
#
#
#
# Elastic Constant Matrix: (Units=GPa)
#
#
# Indices 1 2 3 4 5 6 
#
# 1 49.4674 31.2105 16.3800 0.0000 0.0000 0.0000
# 2 31.2105 202.8094 31.0085 0.0000 0.0000 0.0000
# 3 16.3800 31.0085 82.1167 0.0000 0.0000 0.0000
# 4 0.0000 0.0000 0.0000 30.9070 0.0000 0.0000
# 5 0.0000 0.0000 0.0000 0.0000 22.9344 0.0000
# 6 0.0000 0.0000 0.0000 0.0000 0.0000 10.8146
#
#
#
# Elastic Compliance Matrix: (Units=1/GPa)
#
#
# Indices 1 2 3 4 5 6 
#
# 1 0.023298 -0.003051 -0.003495 0.000000 0.000000 0.000000
# 2 -0.003051 0.005632 -0.001518 0.000000 0.000000 0.000000
# 3 -0.003495 -0.001518 0.013448 0.000000 0.000000 0.000000
# 4 0.000000 0.000000 0.000000 0.032355 0.000000 0.000000
# 5 0.000000 0.000000 0.000000 0.000000 0.043603 0.000000
# 6 0.000000 0.000000 0.000000 0.000000 0.000000 0.092467
#
#
# Mechanical properties :
#
#
# Convention : Reuss Voigt Hill
#
# Bulk Modulus (GPa) = 38.09586 54.62128 46.35857
# Shear Modulus (GPa) = 21.21506 29.98419 25.59962
#
# Velocity S-wave (km/s) = 3.23093 3.84106 3.54913
# Velocity P-wave (km/s) = 5.71521 6.82261 6.29332
#
# Compressibility (1/GPa) = 0.02624957
#
# Stress axis : x y z
#
# Youngs Moduli (GPa) = 42.92294 177.54475 74.35883
#
# Poissons Ratio (x) = 0.54167 0.25989
# Poissons Ratio (y) = 0.13095 0.11290
# Poissons Ratio (z) = 0.15002 0.26957
#
# Static dielectric constant tensor:
#      x y z
#    x 1.811910 0.000000 0.000000 
#    y 0.000000 1.709340 0.000000 
#    z 0.000000 0.000000 1.794990 
# 
# From -- ./inp_files/10779.got.cif
#   From: 2010.05.17/outbox.cif.g08.bks.cpg/sg21_6_cif.got.tgz:10779.got - 2010.06.03 23:14:55.
