data_PCOD9323118
_publ_section_title
;
Structure prediction by ZEFSAII (Michael W. Deem and Ramdas Pophale) SiO2 
 PCOD9323118
Probable space group: C 2 2 2
;
_chemical_formula_sum "Si O2"
_cell_formula_units_Z 52
_cell_length_a 8.897761
_cell_length_b 19.661792
_cell_length_c 14.697855
_cell_angle_alpha 90.000000
_cell_angle_beta 90.000000
_cell_angle_gamma 90.000000
_cell_volume 2571.329854
_symmetry_space_group_name_H-M "C 2 2 2"
_symmetry_group_IT_number 21
_symmetry_cell_setting 'orthorhombic'
loop_
_space_group_symop_operation_xyz
x,y,z
-x,-y,z
x,-y,-z
-x,y,-z
1/2+x,1/2+y,z
1/2-x,1/2-y,z
1/2+x,1/2-y,-z
1/2-x,1/2+y,-z
loop_
_atom_site_type_symbol
_atom_site_label
_atom_site_fract_x
_atom_site_fract_y
_atom_site_fract_z
Si Si1 0.250000 0.750000 0.860557
Si Si2 0.828507 0.322001 0.534268
Si Si3 0.742075 0.831813 0.658685
Si Si4 0.411069 0.141632 0.269726
Si Si5 0.268018 0.546449 0.847050
Si Si6 0.102786 0.102243 0.817061
Si Si7 0.666681 0.367052 0.997095
O O1 0.354964 0.795749 0.794720
O O2 0.329285 0.697979 0.931192
O O3 0.750000 0.250000 0.549200
O O4 0.753086 0.356167 0.446043
O O5 0.830884 0.357444 0.631706
O O6 0.000000 0.310954 0.500000
O O7 0.750000 0.750000 0.655968
O O8 0.585583 0.851805 0.706618
O O9 0.869364 0.863631 0.720723
O O10 0.362314 0.074106 0.217096
O O11 0.424994 0.585724 0.822352
O O12 0.309285 0.468534 0.833529
O O13 0.233924 0.575437 0.948455
O O14 0.178643 0.149040 0.896396
O O15 0.500000 0.399255 0.000000
#
# Coordination Sequence:
#
# PCOD9323118 Si02
#       7
#     4   8   8   8   8   8   8
#     4  10  20  30  54  84 110 142 182 214 276 326
#     4   9  18  34  53  79 110 143 177 219 273 329
#     4  10  23  34  55  85 112 142 178 225 284 319
#     4  10  20  35  56  80 113 143 181 223 273 329
#     4   9  20  37  58  79 102 155 188 220 270 326
#     4  10  20  37  56  78 113 142 190 230 264 322
#     4   9  19  32  53  78 109 142 182 222 270 324
#
# _framework density 20.222999999999999
#
# number of rings (size 3 to 8) (size 9 to 14) (size 15 to 20)
#    0.000    2.462    0.769    0.462    7.538    3.692 
#    0.000    3.077    0.000    8.308    0.000    0.000 
#    0.000    0.000    0.000    0.000    0.000    0.000 
#
# Total GULP energy -144776.200297 kJ/mol
# GULP energy per Si atom -5568.315396 kJ/mol
# Density = 2.017697 g / cm^3
# Si number density = 20.223000 Si / 1000 Ang^3
#
#
#
# Elastic Constant Matrix: (Units=GPa)
#
#
# Indices 1 2 3 4 5 6 
#
# 1 19.5270 2.6800 15.7222 0.0000 0.0000 0.0000
# 2 2.6800 43.7151 5.2816 0.0000 0.0000 0.0000
# 3 15.7222 5.2816 114.9332 0.0000 0.0000 0.0000
# 4 0.0000 0.0000 0.0000 7.1789 0.0000 0.0000
# 5 0.0000 0.0000 0.0000 0.0000 27.3427 0.0000
# 6 0.0000 0.0000 0.0000 0.0000 0.0000 30.5121
#
#
#
# Elastic Compliance Matrix: (Units=1/GPa)
#
#
# Indices 1 2 3 4 5 6 
#
# 1 0.057843 -0.002605 -0.007793 0.000000 0.000000 0.000000
# 2 -0.002605 0.023120 -0.000706 0.000000 0.000000 0.000000
# 3 -0.007793 -0.000706 0.009799 0.000000 0.000000 0.000000
# 4 0.000000 0.000000 0.000000 0.139298 0.000000 0.000000
# 5 0.000000 0.000000 0.000000 0.000000 0.036573 0.000000
# 6 0.000000 0.000000 0.000000 0.000000 0.000000 0.032774
#
#
# Mechanical properties :
#
#
# Convention : Reuss Voigt Hill
#
# Bulk Modulus (GPa) = 14.58680 25.06034 19.82357
# Shear Modulus (GPa) = 14.51521 23.30615 18.91068
#
# Velocity S-wave (km/s) = 2.68201 3.39847 3.06127
# Velocity P-wave (km/s) = 4.10116 5.27431 4.72429
#
# Compressibility (1/GPa) = 0.06855512
#
# Stress axis : x y z
#
# Youngs Moduli (GPa) = 17.28818 43.25183 102.04927
#
# Poissons Ratio (x) = 0.11266 0.79526
# Poissons Ratio (y) = 0.04503 0.07206
# Poissons Ratio (z) = 0.13473 0.03054
#
# Static dielectric constant tensor:
#      x y z
#    x 1.755960 0.000000 0.000000 
#    y 0.000000 1.713680 0.000000 
#    z 0.000000 0.000000 1.824450 
# 
# From -- ./inp_files/30692.got.cif
#   From: 2010.05.17/outbox.cif.g08.bks.cpg/sg21_16_cif.got.tgz:30692.got - 2010.06.03 23:14:55.
