data_PCOD9323535
_publ_section_title
;
Structure prediction by ZEFSAII (Michael W. Deem and Ramdas Pophale) SiO2 
 PCOD9323535
Probable space group: C 2 2 2
;
_chemical_formula_sum "Si O2"
_cell_formula_units_Z 48
_cell_length_a 32.794486
_cell_length_b 13.515116
_cell_length_c 5.596976
_cell_angle_alpha 90.000000
_cell_angle_beta 90.000000
_cell_angle_gamma 90.000000
_cell_volume 2480.698881
_symmetry_space_group_name_H-M "C 2 2 2"
_symmetry_group_IT_number 21
_symmetry_cell_setting 'orthorhombic'
loop_
_space_group_symop_operation_xyz
x,y,z
-x,-y,z
x,-y,-z
-x,y,-z
1/2+x,1/2+y,z
1/2-x,1/2-y,z
1/2+x,1/2-y,-z
1/2-x,1/2+y,-z
loop_
_atom_site_type_symbol
_atom_site_label
_atom_site_fract_x
_atom_site_fract_y
_atom_site_fract_z
Si Si1 0.162040 0.500000 0.500000
Si Si2 0.269237 0.904172 0.730648
Si Si3 0.180621 0.249547 0.004532
Si Si4 0.822024 0.048084 0.752926
Si Si5 0.983685 0.614485 0.753392
Si Si6 0.887969 0.602568 0.843626
Si Si7 0.750000 0.750000 0.676277
O O1 0.192616 0.524268 0.711117
O O2 0.133459 0.413740 0.587627
O O3 0.283248 0.826489 0.926912
O O4 0.227172 0.959027 0.760147
O O5 0.266250 0.838504 0.492230
O O6 0.172431 0.166354 0.203775
O O7 0.139385 0.310493 0.957720
O O8 0.207200 0.204676 0.786836
O O9 0.835837 0.000000 0.500000
O O10 0.838565 0.000000 0.000000
O O11 0.935157 0.618982 0.784473
O O12 0.000000 0.500000 0.753186
O O13 0.000000 0.655623 0.500000
O O14 0.000000 0.660704 0.000000
O O15 0.886047 0.500000 0.000000
#
# Coordination Sequence:
#
# PCOD9323535 Si02
#       7
#     4   8   8   8   8   8   4
#     4  12  24  32  53  82 116 162 210 262 313 382
#     4  12  23  33  55  76 112 160 212 275 324 377
#     4  12  25  37  56  84 122 156 226 283 324 375
#     4  12  26  41  61  77 110 170 228 268 332 372
#     4  10  20  38  61  83 122 162 196 226 300 397
#     4  12  24  37  58  92 121 164 206 262 324 383
#     4  12  20  40  50  74 118 166 204 280 340 354
#
# _framework density 19.349387
#
# number of rings (size 3 to 8) (size 9 to 14) (size 15 to 20)
#    0.000    0.333    9.167    2.000    2.333    0.000 
#    0.000    0.000    0.000    0.000    0.000    0.000 
#    0.000    0.667    0.000    9.000    0.000    2.000 
#
# Total GULP energy -133715.734278 kJ/mol
# GULP energy per Si atom -5571.488928 kJ/mol
# Density = 1.930535 g / cm^3
# Si number density = 19.349387 Si / 1000 Ang^3
#
#
#
# Elastic Constant Matrix: (Units=GPa)
#
#
# Indices 1 2 3 4 5 6 
#
# 1 143.0996 32.2567 32.5951 0.0000 0.0000 0.0000
# 2 32.2567 53.7529 32.0818 0.0000 0.0000 0.0000
# 3 32.5951 32.0818 106.2018 0.0000 0.0000 0.0000
# 4 0.0000 0.0000 0.0000 34.7622 0.0000 0.0000
# 5 0.0000 0.0000 0.0000 0.0000 33.3886 0.0000
# 6 0.0000 0.0000 0.0000 0.0000 0.0000 15.4582
#
#
#
# Elastic Compliance Matrix: (Units=1/GPa)
#
#
# Indices 1 2 3 4 5 6 
#
# 1 0.008217 -0.004179 -0.001259 0.000000 0.000000 0.000000
# 2 -0.004179 0.024821 -0.006215 0.000000 0.000000 0.000000
# 3 -0.001259 -0.006215 0.011680 0.000000 0.000000 0.000000
# 4 0.000000 0.000000 0.000000 0.028767 0.000000 0.000000
# 5 0.000000 0.000000 0.000000 0.000000 0.029950 0.000000
# 6 0.000000 0.000000 0.000000 0.000000 0.000000 0.064690
#
#
# Mechanical properties :
#
#
# Convention : Reuss Voigt Hill
#
# Bulk Modulus (GPa) = 46.70684 55.21351 50.96018
# Shear Modulus (GPa) = 25.17989 30.46318 27.82153
#
# Velocity S-wave (km/s) = 3.61130 3.97214 3.79601
# Velocity P-wave (km/s) = 6.44824 7.04515 6.75329
#
# Compressibility (1/GPa) = 0.02141014
#
# Stress axis : x y z
#
# Youngs Moduli (GPa) = 121.69750 40.28810 85.61537
#
# Poissons Ratio (x) = 0.16838 0.10783
# Poissons Ratio (y) = 0.50861 0.53213
# Poissons Ratio (z) = 0.15327 0.25041
#
# Static dielectric constant tensor:
#      x y z
#    x 1.638270 0.000000 0.000000 
#    y 0.000000 1.833010 0.000000 
#    z 0.000000 0.000000 1.921120 
# 
# From -- ./inp_files/7997.got.cif
#   From: 2010.05.17/outbox.cif.g08.bks.cpg/sg21_4_cif.got.tgz:7997.got - 2010.06.03 23:14:55.
