data_PCOD9323685
_publ_section_title
;
Structure prediction by ZEFSAII (Michael W. Deem and Ramdas Pophale) SiO2 
 PCOD9323685
Probable space group: C 2 2 2
;
_chemical_formula_sum "Si O2"
_cell_formula_units_Z 48
_cell_length_a 8.387174
_cell_length_b 18.664713
_cell_length_c 16.165488
_cell_angle_alpha 90.000000
_cell_angle_beta 90.000000
_cell_angle_gamma 90.000000
_cell_volume 2530.613315
_symmetry_space_group_name_H-M "C 2 2 2"
_symmetry_group_IT_number 21
_symmetry_cell_setting 'orthorhombic'
loop_
_space_group_symop_operation_xyz
x,y,z
-x,-y,z
x,-y,-z
-x,y,-z
1/2+x,1/2+y,z
1/2-x,1/2-y,z
1/2+x,1/2-y,-z
1/2-x,1/2+y,-z
loop_
_atom_site_type_symbol
_atom_site_label
_atom_site_fract_x
_atom_site_fract_y
_atom_site_fract_z
Si Si1 0.183695 0.023955 0.240298
Si Si2 0.173419 0.537175 0.076733
Si Si3 0.361213 0.180238 0.233896
Si Si4 0.400384 0.199294 0.920239
Si Si5 0.612870 0.809097 0.420044
Si Si6 0.316939 0.027142 0.416856
O O1 0.252580 0.106777 0.230337
O O2 0.242532 0.003160 0.331322
O O3 0.257551 0.978831 0.165934
O O4 0.000000 0.000000 0.237377
O O5 0.162365 0.620423 0.057295
O O6 0.000000 0.500000 0.080253
O O7 0.262587 0.500000 0.000000
O O8 0.250000 0.250000 0.227103
O O9 0.485242 0.185488 0.158540
O O10 0.448148 0.187647 0.324088
O O11 0.250000 0.250000 0.902146
O O12 0.500000 0.226655 0.000000
O O13 0.500000 0.798399 0.500000
O O14 0.750000 0.750000 0.422386
O O15 0.684695 0.887999 0.426905
O O16 0.500000 0.000000 0.415272
O O17 0.236100 0.000000 0.500000
#
# Coordination Sequence:
#
# PCOD9323685 Si02
#       6
#     8   8   8   8   8   8
#     4  11  24  39  64  95 128 165 211 269 325 381
#     4  11  21  43  67  90 122 167 214 264 319 384
#     4  10  23  43  61  89 133 165 208 268 320 390
#     4  12  25  42  67  95 126 169 218 265 327 389
#     4  10  21  40  61  89 123 166 208 261 317 376
#     4  10  20  40  66  89 121 167 216 261 317 385
#
# _framework density 18.967734
#
# number of rings (size 3 to 8) (size 9 to 14) (size 15 to 20)
#    0.000    1.333    5.000    1.000    4.667    1.333 
#    9.000    0.000    0.000    0.000    0.000    0.000 
#    0.000    0.000    0.000    0.000    0.000    0.000 
#
# Total GULP energy -133675.591112 kJ/mol
# GULP energy per Si atom -5569.816296 kJ/mol
# Density = 1.892456 g / cm^3
# Si number density = 18.967734 Si / 1000 Ang^3
#
#
#
# Elastic Constant Matrix: (Units=GPa)
#
#
# Indices 1 2 3 4 5 6 
#
# 1 80.3517 20.9238 57.8055 0.0000 0.0000 0.0000
# 2 20.9238 78.5971 14.3722 0.0000 0.0000 0.0000
# 3 57.8055 14.3722 168.1792 0.0000 0.0000 0.0000
# 4 0.0000 0.0000 0.0000 30.4194 0.0000 0.0000
# 5 0.0000 0.0000 0.0000 0.0000 226.6281 0.0000
# 6 0.0000 0.0000 0.0000 0.0000 0.0000 26.0998
#
#
#
# Elastic Compliance Matrix: (Units=1/GPa)
#
#
# Indices 1 2 3 4 5 6 
#
# 1 0.017488 -0.003613 -0.005702 0.000000 0.000000 0.000000
# 2 -0.003613 0.013672 0.000073 0.000000 0.000000 0.000000
# 3 -0.005702 0.000073 0.007900 0.000000 0.000000 0.000000
# 4 0.000000 0.000000 0.000000 0.032874 0.000000 0.000000
# 5 0.000000 0.000000 0.000000 0.000000 0.004413 0.000000
# 6 0.000000 0.000000 0.000000 0.000000 0.000000 0.038314
#
#
# Mechanical properties :
#
#
# Convention : Reuss Voigt Hill
#
# Bulk Modulus (GPa) = 48.60000 57.03678 52.81839
# Shear Modulus (GPa) = 35.71369 72.23123 53.97246
#
# Velocity S-wave (km/s) = 4.34391 6.17768 5.34010
# Velocity P-wave (km/s) = 7.13004 9.00115 8.11967
#
# Compressibility (1/GPa) = 0.02057613
#
# Stress axis : x y z
#
# Youngs Moduli (GPa) = 57.18095 73.14482 126.58720
#
# Poissons Ratio (x) = 0.26427 0.72183
# Poissons Ratio (y) = 0.20659 -0.00930
# Poissons Ratio (z) = 0.32606 -0.00538
#
# Static dielectric constant tensor:
#      x y z
#    x 1.649510 0.000000 0.000000 
#    y 0.000000 1.630940 0.000000 
#    z 0.000000 0.000000 1.743380 
# 
# From -- ./inp_files/30472.got.cif
#   From: 2010.05.17/outbox.cif.g08.bks.cpg/sg21_16_cif.got.tgz:30472.got - 2010.06.03 23:14:55.
