data_PCOD9323488
_publ_section_title
;
Structure prediction by ZEFSAII (Michael W. Deem and Ramdas Pophale) SiO2 
 PCOD9323488
Probable space group: C 2 2 2
;
_chemical_formula_sum "Si O2"
_cell_formula_units_Z 64
_cell_length_a 8.940643
_cell_length_b 30.463545
_cell_length_c 11.951231
_cell_angle_alpha 90.000000
_cell_angle_beta 90.000000
_cell_angle_gamma 90.000000
_cell_volume 3255.081260
_symmetry_space_group_name_H-M "C 2 2 2"
_symmetry_group_IT_number 21
_symmetry_cell_setting 'orthorhombic'
loop_
_space_group_symop_operation_xyz
x,y,z
-x,-y,z
x,-y,-z
-x,y,-z
1/2+x,1/2+y,z
1/2-x,1/2-y,z
1/2+x,1/2-y,-z
1/2-x,1/2+y,-z
loop_
_atom_site_type_symbol
_atom_site_label
_atom_site_fract_x
_atom_site_fract_y
_atom_site_fract_z
Si Si1 0.745408 0.894399 0.752199
Si Si2 0.244807 0.891135 0.763179
Si Si3 0.999359 0.162643 0.632417
Si Si4 0.079251 0.757845 0.770629
Si Si5 0.592606 0.820349 0.885693
Si Si6 0.497571 0.052204 0.634603
Si Si7 0.991206 0.950418 0.867121
Si Si8 0.153814 0.171992 0.043570
O O1 0.861677 0.863471 0.686335
O O2 0.625448 0.864717 0.818183
O O3 0.658411 0.926868 0.671744
O O4 0.842797 0.924045 0.834927
O O5 0.376356 0.918099 0.699832
O O6 0.254263 0.859085 0.874330
O O7 0.152869 0.860347 0.677189
O O8 0.129579 0.926582 0.809987
O O9 0.000000 0.161339 0.500000
O O10 0.001958 0.211866 0.680356
O O11 0.250000 0.750000 0.731524
O O12 0.101148 0.787531 0.881211
O O13 0.987433 0.715016 0.806674
O O14 0.500000 0.824205 0.000000
O O15 0.756443 0.810145 0.937005
O O16 0.500000 0.055888 0.500000
O O17 0.500000 0.000000 0.663516
O O18 0.000000 0.000000 0.824933
O O19 0.000000 0.951455 0.000000
O O20 0.000000 0.149641 0.000000
#
# Coordination Sequence:
#
# PCOD9323488 Si02
#       8
#     8   8   8   8   8   8   8   8
#     4  11  24  40  63  97 121 159 214 251 309 375
#     4  10  20  39  64  87 125 161 203 257 311 371
#     4  10  23  44  65  86 119 163 213 263 309 362
#     4  11  24  40  60  91 125 165 214 253 310 361
#     4  12  23  39  61  91 130 164 203 251 304 369
#     4  11  24  42  64  91 123 160 206 264 322 371
#     4  10  20  37  62  92 127 164 200 245 306 379
#     4  11  22  37  63  92 126 165 204 253 306 368
#
# _framework density 19.661567000000002
#
# number of rings (size 3 to 8) (size 9 to 14) (size 15 to 20)
#    0.000    1.250    1.250    6.000    1.750    2.500 
#    2.250    0.000    0.000    9.000    0.000    0.000 
#    0.000    0.000    0.000    0.000    0.000    0.000 
#
# Total GULP energy -178595.363399 kJ/mol
# GULP energy per Si atom -5581.105106 kJ/mol
# Density = 1.961682 g / cm^3
# Si number density = 19.661567 Si / 1000 Ang^3
#
#
#
# Elastic Constant Matrix: (Units=GPa)
#
#
# Indices 1 2 3 4 5 6 
#
# 1 102.2873 58.2154 36.3305 0.0000 0.0000 0.0000
# 2 58.2154 139.9555 48.1824 0.0000 0.0000 0.0000
# 3 36.3305 48.1824 94.6951 0.0000 0.0000 0.0000
# 4 0.0000 0.0000 0.0000 23.0682 0.0000 0.0000
# 5 0.0000 0.0000 0.0000 0.0000 19.6311 0.0000
# 6 0.0000 0.0000 0.0000 0.0000 0.0000 21.5201
#
#
#
# Elastic Compliance Matrix: (Units=1/GPa)
#
#
# Indices 1 2 3 4 5 6 
#
# 1 0.013391 -0.004609 -0.002793 0.000000 0.000000 0.000000
# 2 -0.004609 0.010249 -0.003447 0.000000 0.000000 0.000000
# 3 -0.002793 -0.003447 0.013385 0.000000 0.000000 0.000000
# 4 0.000000 0.000000 0.000000 0.043350 0.000000 0.000000
# 5 0.000000 0.000000 0.000000 0.000000 0.050940 0.000000
# 6 0.000000 0.000000 0.000000 0.000000 0.000000 0.046468
#
#
# Mechanical properties :
#
#
# Convention : Reuss Voigt Hill
#
# Bulk Modulus (GPa) = 65.23418 69.15496 67.19457
# Shear Modulus (GPa) = 24.43931 25.79119 25.11525
#
# Velocity S-wave (km/s) = 3.52944 3.62575 3.57792
# Velocity P-wave (km/s) = 7.06115 7.26478 7.16369
#
# Compressibility (1/GPa) = 0.01532939
#
# Stress axis : x y z
#
# Youngs Moduli (GPa) = 74.67533 97.57332 74.70900
#
# Poissons Ratio (x) = 0.44969 0.20864
# Poissons Ratio (y) = 0.34416 0.25749
# Poissons Ratio (z) = 0.20854 0.33629
#
# Static dielectric constant tensor:
#      x y z
#    x 1.752190 0.000000 0.000000 
#    y 0.000000 1.725720 0.000000 
#    z 0.000000 0.000000 1.677240 
# 
# From -- ./inp_files/23116.got.cif
#   From: 2010.05.17/outbox.cif.g08.bks.cpg/sg21_12_cif.got.tgz:23116.got - 2010.06.03 23:14:55.
