data_PCOD9323362
_publ_section_title
;
Structure prediction by ZEFSAII (Michael W. Deem and Ramdas Pophale) SiO2 
 PCOD9323362
Probable space group: C 2 2 2
;
_chemical_formula_sum "Si O2"
_cell_formula_units_Z 40
_cell_length_a 9.519639
_cell_length_b 19.822128
_cell_length_c 10.822112
_cell_angle_alpha 90.000000
_cell_angle_beta 90.000000
_cell_angle_gamma 90.000000
_cell_volume 2042.127153
_symmetry_space_group_name_H-M "C 2 2 2"
_symmetry_group_IT_number 21
_symmetry_cell_setting 'orthorhombic'
loop_
_space_group_symop_operation_xyz
x,y,z
-x,-y,z
x,-y,-z
-x,y,-z
1/2+x,1/2+y,z
1/2-x,1/2-y,z
1/2+x,1/2-y,-z
1/2-x,1/2+y,-z
loop_
_atom_site_type_symbol
_atom_site_label
_atom_site_fract_x
_atom_site_fract_y
_atom_site_fract_z
Si Si1 0.000000 0.720151 0.000000
Si Si2 0.827327 0.390787 0.291540
Si Si3 0.163347 0.315035 0.475327
Si Si4 0.333266 0.506657 0.853908
Si Si5 0.750000 0.250000 0.159953
Si Si6 0.862557 0.370578 0.787321
O O1 0.090217 0.673513 0.905720
O O2 0.887613 0.762846 0.923285
O O3 0.804161 0.379426 0.437693
O O4 0.738223 0.447740 0.225580
O O5 0.788295 0.317470 0.234378
O O6 0.991009 0.403864 0.259988
O O7 0.250000 0.250000 0.513899
O O8 0.185304 0.327653 0.330856
O O9 0.000000 0.300595 0.500000
O O10 0.500000 0.500000 0.835298
O O11 0.258372 0.576336 0.816813
O O12 0.304972 0.500000 0.000000
#
# Coordination Sequence:
#
# PCOD9323362 Si02
#       6
#     4   8   8   8   4   8
#     4  10  22  36  61  92 125 160 206 260 308 372
#     4  10  21  40  63  86 123 162 205 252 307 379
#     4  10  22  40  63  91 124 163 208 251 309 375
#     4  11  24  41  62  90 123 162 208 263 318 368
#     4  10  20  36  58  88 118 162 204 252 316 356
#     4  10  22  40  61  91 119 165 209 250 312 369
#
# _framework density 19.587418
#
# number of rings (size 3 to 8) (size 9 to 14) (size 15 to 20)
#    0.000    1.800    1.000    3.000    1.400    6.400 
#    0.000    4.000    0.000    0.000    0.000    0.000 
#    0.000    0.000    0.000    0.000    0.000    0.000 
#
# Total GULP energy -111637.876026 kJ/mol
# GULP energy per Si atom -5581.893801 kJ/mol
# Density = 1.954284 g / cm^3
# Si number density = 19.587418 Si / 1000 Ang^3
#
#
#
# Elastic Constant Matrix: (Units=GPa)
#
#
# Indices 1 2 3 4 5 6 
#
# 1 88.3529 45.9010 40.0472 0.0000 0.0000 0.0000
# 2 45.9010 48.3165 29.4376 0.0000 0.0000 0.0000
# 3 40.0472 29.4376 107.2872 0.0000 0.0000 0.0000
# 4 0.0000 0.0000 0.0000 6.3932 0.0000 0.0000
# 5 0.0000 0.0000 0.0000 0.0000 21.0663 0.0000
# 6 0.0000 0.0000 0.0000 0.0000 0.0000 32.4002
#
#
#
# Elastic Compliance Matrix: (Units=1/GPa)
#
#
# Indices 1 2 3 4 5 6 
#
# 1 0.023195 -0.020124 -0.003136 0.000000 0.000000 0.000000
# 2 -0.020124 0.042312 -0.004098 0.000000 0.000000 0.000000
# 3 -0.003136 -0.004098 0.011616 0.000000 0.000000 0.000000
# 4 0.000000 0.000000 0.000000 0.156417 0.000000 0.000000
# 5 0.000000 0.000000 0.000000 0.000000 0.047469 0.000000
# 6 0.000000 0.000000 0.000000 0.000000 0.000000 0.030864
#
#
# Mechanical properties :
#
#
# Convention : Reuss Voigt Hill
#
# Bulk Modulus (GPa) = 44.63146 52.74758 48.68952
# Shear Modulus (GPa) = 13.36692 20.54330 16.95511
#
# Velocity S-wave (km/s) = 2.61516 3.24203 2.94532
# Velocity P-wave (km/s) = 5.65279 6.40329 6.03971
#
# Compressibility (1/GPa) = 0.02240572
#
# Stress axis : x y z
#
# Youngs Moduli (GPa) = 43.11308 23.63405 86.08998
#
# Poissons Ratio (x) = 0.47562 0.26999
# Poissons Ratio (y) = 0.86763 0.35277
# Poissons Ratio (z) = 0.13521 0.09685
#
# Static dielectric constant tensor:
#      x y z
#    x 1.668980 0.000000 0.000000 
#    y 0.000000 1.681550 0.000000 
#    z 0.000000 0.000000 1.734580 
# 
# From -- ./inp_files/22596.got.cif
#   From: 2010.05.17/outbox.cif.g08.bks.cpg/sg21_12_cif.got.tgz:22596.got - 2010.06.03 23:14:55.
