data_PCOD9323853
_publ_section_title
;
Structure prediction by ZEFSAII (Michael W. Deem and Ramdas Pophale) SiO2 
 PCOD9323853
Probable space group: C 2 2 2
;
_chemical_formula_sum "Si O2"
_cell_formula_units_Z 48
_cell_length_a 9.065022
_cell_length_b 15.646231
_cell_length_c 18.827694
_cell_angle_alpha 90.000000
_cell_angle_beta 90.000000
_cell_angle_gamma 90.000000
_cell_volume 2670.396386
_symmetry_space_group_name_H-M "C 2 2 2"
_symmetry_group_IT_number 21
_symmetry_cell_setting 'orthorhombic'
loop_
_space_group_symop_operation_xyz
x,y,z
-x,-y,z
x,-y,-z
-x,y,-z
1/2+x,1/2+y,z
1/2-x,1/2-y,z
1/2+x,1/2-y,-z
1/2-x,1/2+y,-z
loop_
_atom_site_type_symbol
_atom_site_label
_atom_site_fract_x
_atom_site_fract_y
_atom_site_fract_z
Si Si1 0.684707 0.658696 0.330790
Si Si2 0.173897 0.502758 0.084879
Si Si3 0.823254 0.158290 0.838302
Si Si4 0.674799 0.005018 0.583570
Si Si5 0.673293 0.343037 0.165558
Si Si6 0.893085 0.084564 0.317892
O O1 0.750000 0.750000 0.345287
O O2 0.702441 0.641254 0.246064
O O3 0.765738 0.590699 0.379747
O O4 0.509911 0.654566 0.343593
O O5 0.253709 0.420450 0.119060
O O6 0.246413 0.589632 0.114353
O O7 0.000000 0.500000 0.103094
O O8 0.188439 0.500000 0.000000
O O9 0.750000 0.250000 0.855231
O O10 0.998830 0.164141 0.851346
O O11 0.766629 0.933773 0.625834
O O12 0.500000 0.000000 0.593741
O O13 0.706984 0.000000 0.500000
O O14 0.750000 0.250000 0.164735
O O15 0.675442 0.385748 0.243815
O O16 0.000000 0.000000 0.308809
#
# Coordination Sequence:
#
# PCOD9323853 Si02
#       6
#     8   8   8   8   8   8
#     4   9  19  36  57  82 108 138 181 231 277 325
#     4  11  24  40  58  83 115 151 189 229 278 333
#     4  10  21  39  62  86 113 145 186 234 282 331
#     4  10  21  36  53  78 112 149 186 224 272 330
#     4  11  22  37  59  88 115 145 187 231 279 336
#     4   9  19  36  58  81 109 146 186 225 276 333
#
# _framework density 17.97486
#
# number of rings (size 3 to 8) (size 9 to 14) (size 15 to 20)
#    0.000    2.000    0.000    4.500    0.000   11.667 
#    0.000    4.167    0.000    0.000    0.000    0.000 
#    0.000    0.000    0.000    0.000    0.000    0.000 
#
# Total GULP energy -133929.439740 kJ/mol
# GULP energy per Si atom -5580.393323 kJ/mol
# Density = 1.793395 g / cm^3
# Si number density = 17.974860 Si / 1000 Ang^3
#
#
#
# Elastic Constant Matrix: (Units=GPa)
#
#
# Indices 1 2 3 4 5 6 
#
# 1 140.3860 78.3274 92.4437 0.0000 0.0000 0.0000
# 2 78.3274 113.7622 69.8372 0.0000 0.0000 0.0000
# 3 92.4437 69.8372 92.3327 0.0000 0.0000 0.0000
# 4 0.0000 0.0000 0.0000 -2.2181 0.0000 0.0000
# 5 0.0000 0.0000 0.0000 0.0000 31.8587 0.0000
# 6 0.0000 0.0000 0.0000 0.0000 0.0000 40.7669
#
#
#
# Elastic Compliance Matrix: (Units=1/GPa)
#
#
# Indices 1 2 3 4 5 6 
#
# 1 0.021426 -0.002956 -0.019217 0.000000 0.000000 0.000000
# 2 -0.002956 0.016817 -0.009761 0.000000 0.000000 0.000000
# 3 -0.019217 -0.009761 0.037453 0.000000 0.000000 0.000000
# 4 0.000000 0.000000 0.000000 -0.450830 0.000000 0.000000
# 5 0.000000 0.000000 0.000000 0.000000 0.031389 0.000000
# 6 0.000000 0.000000 0.000000 0.000000 0.000000 0.024530
#
#
# Mechanical properties :
#
#
# Convention : Reuss Voigt Hill
#
# Bulk Modulus (GPa) = 84.52793 91.96640 88.24717
# Shear Modulus (GPa) = -19.88815 21.13966 0.62575
#
# Velocity S-wave (km/s) = -3.32993 3.43311 0.59066
# Velocity P-wave (km/s) = 5.68710 8.18474 7.04745
#
# Compressibility (1/GPa) = 0.01183041
#
# Stress axis : x y z
#
# Youngs Moduli (GPa) = 46.67150 59.46240 26.70023
#
# Poissons Ratio (x) = 0.17575 0.51309
# Poissons Ratio (y) = 0.13794 0.26062
# Poissons Ratio (z) = 0.89687 0.58040
#
# Static dielectric constant tensor:
#      x y z
#    x 1.617250 0.000000 0.000000 
#    y 0.000000 1.626430 0.000000 
#    z 0.000000 0.000000 1.597170 
# 
# From -- ./inp_files/35663.got.cif
#   From: 2010.05.17/outbox.cif.g08.bks.cpg/sg21_18_cif.got.tgz:35663.got - 2010.06.03 23:14:55.
