data_PCOD9323164
_publ_section_title
;
Structure prediction by ZEFSAII (Michael W. Deem and Ramdas Pophale) SiO2 
 PCOD9323164
Probable space group: C 2 2 2
;
_chemical_formula_sum "Si O2"
_cell_formula_units_Z 44
_cell_length_a 14.746456
_cell_length_b 27.489575
_cell_length_c 5.168548
_cell_angle_alpha 90.000000
_cell_angle_beta 90.000000
_cell_angle_gamma 90.000000
_cell_volume 2095.193986
_symmetry_space_group_name_H-M "C 2 2 2"
_symmetry_group_IT_number 21
_symmetry_cell_setting 'orthorhombic'
loop_
_space_group_symop_operation_xyz
x,y,z
-x,-y,z
x,-y,-z
-x,y,-z
1/2+x,1/2+y,z
1/2-x,1/2-y,z
1/2+x,1/2-y,-z
1/2-x,1/2+y,-z
loop_
_atom_site_type_symbol
_atom_site_label
_atom_site_fract_x
_atom_site_fract_y
_atom_site_fract_z
Si Si1 0.283121 0.646712 0.290536
Si Si2 0.059611 0.559031 0.237094
Si Si3 0.500000 0.751608 0.000000
Si Si4 0.265949 0.468973 0.745551
Si Si5 0.584815 0.164480 0.312033
Si Si6 0.175170 0.205490 0.235080
O O1 0.294458 0.588256 0.265107
O O2 0.185100 0.660329 0.420076
O O3 0.341753 0.674219 0.504507
O O4 0.291851 0.672266 0.009758
O O5 0.155845 0.533365 0.266043
O O6 0.083385 0.614531 0.155393
O O7 0.000000 0.556746 0.500000
O O8 0.000000 0.543614 0.000000
O O9 0.566340 0.786990 0.839888
O O10 0.426183 0.723606 0.833273
O O11 0.298242 0.500000 0.500000
O O12 0.290809 0.500000 0.000000
O O13 0.500000 0.160969 0.500000
O O14 0.250000 0.250000 0.263138
#
# Coordination Sequence:
#
# PCOD9323164 Si02
#       6
#     8   8   4   8   8   8
#     4  11  25  44  62  92 135 171 216 281 329 383
#     4  10  20  33  52  80 122 165 207 261 318 372
#     4  12  24  38  66  92 132 178 230 250 324 394
#     4  11  23  39  62  87 116 164 222 272 333 396
#     4  10  21  36  59  85 126 177 219 254 312 394
#     4  12  25  42  65  97 135 179 221 264 324 394
#
# _framework density 21.000442
#
# number of rings (size 3 to 8) (size 9 to 14) (size 15 to 20)
#    0.000    1.091    2.727    3.818    2.545    5.091 
#    0.000    0.000    0.000    0.000    0.000    9.545 
#    0.000    0.000    0.000    0.000    0.000    0.000 
#
# Total GULP energy -122643.391729 kJ/mol
# GULP energy per Si atom -5574.699624 kJ/mol
# Density = 2.095264 g / cm^3
# Si number density = 21.000442 Si / 1000 Ang^3
#
#
#
# Elastic Constant Matrix: (Units=GPa)
#
#
# Indices 1 2 3 4 5 6 
#
# 1 35.0694 19.8774 -10.3012 0.0000 0.0000 0.0000
# 2 19.8774 168.8139 66.9712 0.0000 0.0000 0.0000
# 3 -10.3012 66.9712 117.2561 0.0000 0.0000 0.0000
# 4 0.0000 0.0000 0.0000 -107.2624 0.0000 0.0000
# 5 0.0000 0.0000 0.0000 0.0000 25.7138 0.0000
# 6 0.0000 0.0000 0.0000 0.0000 0.0000 63.5347
#
#
#
# Elastic Compliance Matrix: (Units=1/GPa)
#
#
# Indices 1 2 3 4 5 6 
#
# 1 0.034386 -0.006785 0.006896 0.000000 0.000000 0.000000
# 2 -0.006785 0.008998 -0.005735 0.000000 0.000000 0.000000
# 3 0.006896 -0.005735 0.012410 0.000000 0.000000 0.000000
# 4 0.000000 0.000000 0.000000 -0.009323 0.000000 0.000000
# 5 0.000000 0.000000 0.000000 0.000000 0.038890 0.000000
# 6 0.000000 0.000000 0.000000 0.000000 0.000000 0.015739
#
#
# Mechanical properties :
#
#
# Convention : Reuss Voigt Hill
#
# Bulk Modulus (GPa) = 22.44873 52.69268 37.57070
# Shear Modulus (GPa) = 39.30944 12.70336 26.00640
#
# Velocity S-wave (km/s) = 4.33117 2.46216 3.52287
# Velocity P-wave (km/s) = 5.97703 5.76443 5.87169
#
# Compressibility (1/GPa) = 0.04454595
#
# Stress axis : x y z
#
# Youngs Moduli (GPa) = 29.08161 111.13862 80.58147
#
# Poissons Ratio (x) = 0.75403 -0.55568
# Poissons Ratio (y) = 0.19731 0.46215
# Poissons Ratio (z) = -0.20054 0.63740
#
# Static dielectric constant tensor:
#      x y z
#    x 1.779060 0.000000 0.000000 
#    y 0.000000 1.860940 0.000000 
#    z 0.000000 0.000000 1.703270 
# 
# From -- ./inp_files/4028.got.cif
#   From: 2010.05.17/outbox.cif.g08.bks.cpg/sg21_3_cif.got.tgz:4028.got - 2010.06.03 23:14:55.
