data_PCOD9323792
_publ_section_title
;
Structure prediction by ZEFSAII (Michael W. Deem and Ramdas Pophale) SiO2 
 PCOD9323792
Probable space group: C 2 2 2
;
_chemical_formula_sum "Si O2"
_cell_formula_units_Z 56
_cell_length_a 25.657492
_cell_length_b 5.414828
_cell_length_c 22.059787
_cell_angle_alpha 90.000000
_cell_angle_beta 90.000000
_cell_angle_gamma 90.000000
_cell_volume 3064.786196
_symmetry_space_group_name_H-M "C 2 2 2"
_symmetry_group_IT_number 21
_symmetry_cell_setting 'orthorhombic'
loop_
_space_group_symop_operation_xyz
x,y,z
-x,-y,z
x,-y,-z
-x,y,-z
1/2+x,1/2+y,z
1/2-x,1/2-y,z
1/2+x,1/2-y,-z
1/2-x,1/2+y,-z
loop_
_atom_site_type_symbol
_atom_site_label
_atom_site_fract_x
_atom_site_fract_y
_atom_site_fract_z
Si Si1 0.440452 0.745460 0.525447
Si Si2 0.187174 0.746404 0.966906
Si Si3 0.370022 0.164278 0.731381
Si Si4 0.718886 0.504326 0.271520
Si Si5 0.943768 0.979320 0.214787
Si Si6 0.946857 0.657674 0.335562
Si Si7 0.160843 0.264587 0.173442
O O1 0.414324 0.500000 0.500000
O O2 0.500000 0.746680 0.500000
O O3 0.442339 0.731766 0.597714
O O4 0.417090 0.000000 0.500000
O O5 0.250000 0.750000 0.970672
O O6 0.172931 0.713183 0.896578
O O7 0.167846 0.500000 0.000000
O O8 0.169085 0.000000 0.000000
O O9 0.338429 0.404102 0.707077
O O10 0.419505 0.256424 0.769809
O O11 0.395120 0.002813 0.678533
O O12 0.337680 0.997280 0.779666
O O13 0.750000 0.250000 0.278805
O O14 0.702709 0.575920 0.202863
O O15 0.750000 0.750000 0.295306
O O16 0.950917 0.844901 0.279617
O O17 0.897849 0.838085 0.180253
O O18 0.000000 0.000000 0.184809
O O19 0.000000 0.500000 0.335791
#
# Coordination Sequence:
#
# PCOD9323792 Si02
#       7
#     8   8   8   8   8   8   8
#     4  10  21  32  49  78 108 162 210 220 286 344
#     4  10  23  38  59  87 113 145 185 232 296 367
#     4  10  22  35  55  87 112 163 201 241 303 351
#     4  11  21  36  57  82 116 155 189 236 299 365
#     4  10  21  33  56  82 114 159 203 247 292 338
#     4  11  20  34  53  79 122 162 206 252 283 352
#     4  10  22  37  57  87 116 151 197 238 298 363
#
# _framework density 18.272075000000001
#
# number of rings (size 3 to 8) (size 9 to 14) (size 15 to 20)
#    0.000    1.714    4.286    0.429    8.000    0.571 
#    0.000    0.000    0.000    0.429    0.000    0.000 
#    0.000    0.000   14.571    3.429    0.571    0.000 
#
# Total GULP energy -155870.723996 kJ/mol
# GULP energy per Si atom -5566.811571 kJ/mol
# Density = 1.823049 g / cm^3
# Si number density = 18.272075 Si / 1000 Ang^3
#
#
#
# Elastic Constant Matrix: (Units=GPa)
#
#
# Indices 1 2 3 4 5 6 
#
# 1 51.8090 21.0800 -10.9870 0.0000 0.0000 0.0000
# 2 21.0800 118.2092 30.9236 0.0000 0.0000 0.0000
# 3 -10.9870 30.9236 76.4872 0.0000 0.0000 0.0000
# 4 0.0000 0.0000 0.0000 23.2378 0.0000 0.0000
# 5 0.0000 0.0000 0.0000 0.0000 15.5062 0.0000
# 6 0.0000 0.0000 0.0000 0.0000 0.0000 29.5633
#
#
#
# Elastic Compliance Matrix: (Units=1/GPa)
#
#
# Indices 1 2 3 4 5 6 
#
# 1 0.022692 -0.005479 0.005475 0.000000 0.000000 0.000000
# 2 -0.005479 0.010783 -0.005147 0.000000 0.000000 0.000000
# 3 0.005475 -0.005147 0.015941 0.000000 0.000000 0.000000
# 4 0.000000 0.000000 0.000000 0.043033 0.000000 0.000000
# 5 0.000000 0.000000 0.000000 0.000000 0.064490 0.000000
# 6 0.000000 0.000000 0.000000 0.000000 0.000000 0.033826
#
#
# Mechanical properties :
#
#
# Convention : Reuss Voigt Hill
#
# Bulk Modulus (GPa) = 25.56582 36.50429 31.03505
# Shear Modulus (GPa) = 23.35304 27.36071 25.35687
#
# Velocity S-wave (km/s) = 3.57889 3.87383 3.72928
# Velocity P-wave (km/s) = 5.57674 6.32695 5.96366
#
# Compressibility (1/GPa) = 0.03911472
#
# Stress axis : x y z
#
# Youngs Moduli (GPa) = 44.06867 92.73920 62.73044
#
# Poissons Ratio (x) = 0.50810 -0.34343
# Poissons Ratio (y) = 0.24144 0.32284
# Poissons Ratio (z) = -0.24126 0.47728
#
# Static dielectric constant tensor:
#      x y z
#    x 1.689060 0.000000 0.000000 
#    y 0.000000 1.682590 0.000000 
#    z 0.000000 0.000000 1.577590 
# 
# From -- ./inp_files/37960.got.cif
#   From: 2010.05.17/outbox.cif.g08.bks.cpg/sg21_19_cif.got.tgz:37960.got - 2010.06.03 23:14:55.
