data_PCOD9323608
_publ_section_title
;
Structure prediction by ZEFSAII (Michael W. Deem and Ramdas Pophale) SiO2 
 PCOD9323608
Probable space group: C 2 2 2
;
_chemical_formula_sum "Si O2"
_cell_formula_units_Z 32
_cell_length_a 9.520617
_cell_length_b 10.881056
_cell_length_c 15.056315
_cell_angle_alpha 90.000000
_cell_angle_beta 90.000000
_cell_angle_gamma 90.000000
_cell_volume 1559.749418
_symmetry_space_group_name_H-M "C 2 2 2"
_symmetry_group_IT_number 21
_symmetry_cell_setting 'orthorhombic'
loop_
_space_group_symop_operation_xyz
x,y,z
-x,-y,z
x,-y,-z
-x,y,-z
1/2+x,1/2+y,z
1/2-x,1/2-y,z
1/2+x,1/2-y,-z
1/2-x,1/2+y,-z
loop_
_atom_site_type_symbol
_atom_site_label
_atom_site_fract_x
_atom_site_fract_y
_atom_site_fract_z
Si Si1 0.427189 0.618034 0.903320
Si Si2 0.896811 0.606014 0.146000
Si Si3 0.500000 0.711188 0.500000
Si Si4 0.865767 0.358592 0.648899
Si Si5 0.726353 0.500000 0.500000
O O1 0.500000 0.500000 0.856607
O O2 0.258686 0.598185 0.897780
O O3 0.451453 0.754743 0.866838
O O4 0.500000 0.621607 0.000000
O O5 0.887922 0.594540 0.252352
O O6 0.000000 0.500000 0.111585
O O7 0.482831 0.792953 0.587988
O O8 0.631063 0.620358 0.511983
O O9 0.750000 0.250000 0.658181
O O10 0.813189 0.469350 0.587382
#
# Coordination Sequence:
#
# PCOD9323608 Si02
#       5
#     8   8   4   8   4
#     4  10  24  47  71  99 137 181 223 290 360 421
#     4  11  25  43  69 107 136 178 229 294 342 424
#     4   9  20  35  56  86 122 179 221 272 314 388
#     4  10  20  39  60  91 136 174 230 276 330 388
#     4   9  20  35  56  86 122 177 223 268 320 384
#
# _framework density 20.516117000000001
#
# number of rings (size 3 to 8) (size 9 to 14) (size 15 to 20)
#    0.000    2.000    2.500    0.000    3.500   11.500 
#    0.000    0.000    0.000    0.000    0.000    0.000 
#    0.000    0.000    0.000    0.000    0.000    0.000 
#
# Total GULP energy -89222.441795 kJ/mol
# GULP energy per Si atom -5576.402612 kJ/mol
# Density = 2.046942 g / cm^3
# Si number density = 20.516117 Si / 1000 Ang^3
#
#
#
# Elastic Constant Matrix: (Units=GPa)
#
#
# Indices 1 2 3 4 5 6 
#
# 1 83.3466 82.4245 51.0477 0.0000 0.0000 0.0000
# 2 82.4245 144.9790 26.0455 0.0000 0.0000 0.0000
# 3 51.0477 26.0455 124.5577 0.0000 0.0000 0.0000
# 4 0.0000 0.0000 0.0000 35.0576 0.0000 0.0000
# 5 0.0000 0.0000 0.0000 0.0000 33.5104 0.0000
# 6 0.0000 0.0000 0.0000 0.0000 0.0000 45.9070
#
#
#
# Elastic Compliance Matrix: (Units=1/GPa)
#
#
# Indices 1 2 3 4 5 6 
#
# 1 0.039169 -0.020141 -0.011841 0.000000 0.000000 0.000000
# 2 -0.020141 0.017524 0.004590 0.000000 0.000000 0.000000
# 3 -0.011841 0.004590 0.011921 0.000000 0.000000 0.000000
# 4 0.000000 0.000000 0.000000 0.028524 0.000000 0.000000
# 5 0.000000 0.000000 0.000000 0.000000 0.029841 0.000000
# 6 0.000000 0.000000 0.000000 0.000000 0.000000 0.021783
#
#
# Mechanical properties :
#
#
# Convention : Reuss Voigt Hill
#
# Bulk Modulus (GPa) = 72.30711 74.65766 73.48238
# Shear Modulus (GPa) = 24.02025 35.78604 29.90315
#
# Velocity S-wave (km/s) = 3.42541 4.18100 3.82192
# Velocity P-wave (km/s) = 7.13899 7.73152 7.44115
#
# Compressibility (1/GPa) = 0.01382990
#
# Stress axis : x y z
#
# Youngs Moduli (GPa) = 25.53039 57.06514 83.88279
#
# Poissons Ratio (x) = 1.14937 0.99326
# Poissons Ratio (y) = 0.51422 -0.38505
# Poissons Ratio (z) = 0.30231 -0.26194
#
# Static dielectric constant tensor:
#      x y z
#    x 1.771940 0.000000 0.000000 
#    y 0.000000 1.769710 0.000000 
#    z 0.000000 0.000000 1.690980 
# 
# From -- ./inp_files/29942.got.cif
#   From: 2010.05.17/outbox.cif.g08.bks.cpg/sg21_15_cif.got.tgz:29942.got - 2010.06.03 23:14:55.
