data_PCOD9323691
_publ_section_title
;
Structure prediction by ZEFSAII (Michael W. Deem and Ramdas Pophale) SiO2 
 PCOD9323691
Probable space group: C 2 2 2
;
_chemical_formula_sum "Si O2"
_cell_formula_units_Z 48
_cell_length_a 29.731605
_cell_length_b 13.464721
_cell_length_c 5.949995
_cell_angle_alpha 90.000000
_cell_angle_beta 90.000000
_cell_angle_gamma 90.000000
_cell_volume 2381.948207
_symmetry_space_group_name_H-M "C 2 2 2"
_symmetry_group_IT_number 21
_symmetry_cell_setting 'orthorhombic'
loop_
_space_group_symop_operation_xyz
x,y,z
-x,-y,z
x,-y,-z
-x,y,-z
1/2+x,1/2+y,z
1/2-x,1/2-y,z
1/2+x,1/2-y,-z
1/2-x,1/2+y,-z
loop_
_atom_site_type_symbol
_atom_site_label
_atom_site_fract_x
_atom_site_fract_y
_atom_site_fract_z
Si Si1 0.984324 0.114968 0.749537
Si Si2 0.329845 0.759321 0.311478
Si Si3 0.870693 0.601887 0.070524
Si Si4 0.888356 0.200584 0.695437
Si Si5 0.717395 0.904888 0.355618
Si Si6 0.301825 0.384594 0.046708
O O1 0.930922 0.132261 0.739894
O O2 0.000000 0.155656 0.500000
O O3 0.000000 0.000000 0.748887
O O4 0.000000 0.154008 0.000000
O O5 0.371832 0.708982 0.439397
O O6 0.298862 0.816145 0.487375
O O7 0.350426 0.839711 0.141751
O O8 0.301208 0.677796 0.180976
O O9 0.896256 0.687117 0.211916
O O10 0.827578 0.568353 0.217277
O O11 0.894921 0.500000 0.000000
O O12 0.844782 0.158023 0.822635
O O13 0.756538 0.873638 0.187945
O O14 0.731994 0.000000 0.500000
O O15 0.308027 0.500000 0.000000
#
# Coordination Sequence:
#
# PCOD9323691 Si02
#       6
#     8   8   8   8   8   8
#     4  10  24  44  74 103 135 180 220 282 346 441
#     4  10  24  43  63  86 136 167 237 284 336 414
#     4  10  20  40  68  94 127 173 228 283 337 403
#     4  10  25  41  67 102 126 176 226 281 349 412
#     4  11  23  41  59  90 125 186 237 281 346 397
#     4  11  27  40  59  91 135 179 222 288 337 407
#
# _framework density 20.151571000000001
#
# number of rings (size 3 to 8) (size 9 to 14) (size 15 to 20)
#    0.000    1.667    1.667    0.500    9.333    8.667 
#    0.000    0.000    0.000    0.500    0.000    0.000 
#    0.000    0.000    0.000    0.000    0.000    0.000 
#
# Total GULP energy -134046.782604 kJ/mol
# GULP energy per Si atom -5585.282608 kJ/mol
# Density = 2.010570 g / cm^3
# Si number density = 20.151571 Si / 1000 Ang^3
#
#
#
# Elastic Constant Matrix: (Units=GPa)
#
#
# Indices 1 2 3 4 5 6 
#
# 1 69.6117 20.8531 16.2353 0.0000 0.0000 0.0000
# 2 20.8531 105.3105 31.9444 0.0000 0.0000 0.0000
# 3 16.2353 31.9444 113.6879 0.0000 0.0000 0.0000
# 4 0.0000 0.0000 0.0000 22.2653 0.0000 0.0000
# 5 0.0000 0.0000 0.0000 0.0000 17.8995 0.0000
# 6 0.0000 0.0000 0.0000 0.0000 0.0000 22.2450
#
#
#
# Elastic Compliance Matrix: (Units=1/GPa)
#
#
# Indices 1 2 3 4 5 6 
#
# 1 0.015495 -0.002620 -0.001476 0.000000 0.000000 0.000000
# 2 -0.002620 0.010824 -0.002667 0.000000 0.000000 0.000000
# 3 -0.001476 -0.002667 0.009756 0.000000 0.000000 0.000000
# 4 0.000000 0.000000 0.000000 0.044913 0.000000 0.000000
# 5 0.000000 0.000000 0.000000 0.000000 0.055868 0.000000
# 6 0.000000 0.000000 0.000000 0.000000 0.000000 0.044954
#
#
# Mechanical properties :
#
#
# Convention : Reuss Voigt Hill
#
# Bulk Modulus (GPa) = 44.35205 47.40842 45.88023
# Shear Modulus (GPa) = 24.64846 27.12042 25.88444
#
# Velocity S-wave (km/s) = 3.50115 3.67252 3.58786
# Velocity P-wave (km/s) = 6.19686 6.44672 6.32303
#
# Compressibility (1/GPa) = 0.02254687
#
# Stress axis : x y z
#
# Youngs Moduli (GPa) = 64.53812 92.39059 102.49828
#
# Poissons Ratio (x) = 0.24209 0.15134
# Poissons Ratio (y) = 0.16911 0.27337
# Poissons Ratio (z) = 0.09529 0.24641
#
# Static dielectric constant tensor:
#      x y z
#    x 1.678150 0.000000 0.000000 
#    y 0.000000 1.720960 0.000000 
#    z 0.000000 0.000000 1.808370 
# 
# From -- ./inp_files/4245.got.cif
#   From: 2010.05.17/outbox.cif.g08.bks.cpg/sg21_3_cif.got.tgz:4245.got - 2010.06.03 23:14:55.
