data_PCOD9323689
_publ_section_title
;
Structure prediction by ZEFSAII (Michael W. Deem and Ramdas Pophale) SiO2 
 PCOD9323689
Probable space group: C 2 2 2
;
_chemical_formula_sum "Si O2"
_cell_formula_units_Z 30
_cell_length_a 5.260576
_cell_length_b 33.270298
_cell_length_c 8.688150
_cell_angle_alpha 90.000000
_cell_angle_beta 90.000000
_cell_angle_gamma 90.000000
_cell_volume 1520.608103
_symmetry_space_group_name_H-M "C 2 2 2"
_symmetry_group_IT_number 21
_symmetry_cell_setting 'orthorhombic'
loop_
_space_group_symop_operation_xyz
x,y,z
-x,-y,z
x,-y,-z
-x,y,-z
1/2+x,1/2+y,z
1/2-x,1/2-y,z
1/2+x,1/2-y,-z
1/2-x,1/2+y,-z
loop_
_atom_site_type_symbol
_atom_site_label
_atom_site_fract_x
_atom_site_fract_y
_atom_site_fract_z
Si Si1 0.500000 0.000000 0.500000
Si Si2 0.613678 0.456899 0.328125
Si Si3 0.434486 0.834692 0.679769
Si Si4 0.438007 0.372769 0.821975
Si Si5 0.250000 0.250000 0.398414
O O1 0.604718 0.031873 0.376117
O O2 0.500000 0.500000 0.276674
O O3 0.500000 0.448695 0.500000
O O4 0.594248 0.419809 0.216845
O O5 0.500000 0.840337 0.500000
O O6 0.682078 0.849216 0.772783
O O7 0.356519 0.787828 0.695872
O O8 0.182864 0.858623 0.725905
O O9 0.500000 0.366368 0.000000
O O10 0.500000 0.262852 0.500000
#
# Coordination Sequence:
#
# PCOD9323689 Si02
#       5
#     2   8   8   8   4
#     4   8  18  36  60  96 112 164 232 272 310 364
#     4   9  20  37  62  90 124 168 224 269 319 376
#     4  11  23  43  70  95 125 172 220 270 320 387
#     4  12  26  41  62 100 139 172 211 266 329 390
#     4  10  20  40  68 104 124 156 224 284 320 368
#
# _framework density 19.728947000000002
#
# number of rings (size 3 to 8) (size 9 to 14) (size 15 to 20)
#    0.000    1.867    0.000    6.400    9.333    0.533 
#    0.000    2.667    0.000    1.600    0.000    0.000 
#    0.000    0.000    0.000    0.000    0.000    0.000 
#
# Total GULP energy -83525.162340 kJ/mol
# GULP energy per Si atom -5568.344156 kJ/mol
# Density = 1.968404 g / cm^3
# Si number density = 19.728947 Si / 1000 Ang^3
#
#
#
# Elastic Constant Matrix: (Units=GPa)
#
#
# Indices 1 2 3 4 5 6 
#
# 1 126.9602 74.5546 30.6065 0.0000 0.0000 0.0000
# 2 74.5546 145.5552 63.2809 0.0000 0.0000 0.0000
# 3 30.6065 63.2809 46.1906 0.0000 0.0000 0.0000
# 4 0.0000 0.0000 0.0000 -10.3164 0.0000 0.0000
# 5 0.0000 0.0000 0.0000 0.0000 28.9144 0.0000
# 6 0.0000 0.0000 0.0000 0.0000 0.0000 72.4986
#
#
#
# Elastic Compliance Matrix: (Units=1/GPa)
#
#
# Indices 1 2 3 4 5 6 
#
# 1 0.011287 -0.006256 0.001092 0.000000 0.000000 0.000000
# 2 -0.006256 0.020457 -0.023880 0.000000 0.000000 0.000000
# 3 0.001092 -0.023880 0.053642 0.000000 0.000000 0.000000
# 4 0.000000 0.000000 0.000000 -0.096933 0.000000 0.000000
# 5 0.000000 0.000000 0.000000 0.000000 0.034585 0.000000
# 6 0.000000 0.000000 0.000000 0.000000 0.000000 0.013793
#
#
# Mechanical properties :
#
#
# Convention : Reuss Voigt Hill
#
# Bulk Modulus (GPa) = 36.63467 72.84333 54.73900
# Shear Modulus (GPa) = 48.06833 28.23691 38.15262
#
# Velocity S-wave (km/s) = 4.94138 3.78728 4.40232
# Velocity P-wave (km/s) = 7.15302 7.49179 7.32436
#
# Compressibility (1/GPa) = 0.02729655
#
# Stress axis : x y z
#
# Youngs Moduli (GPa) = 88.59792 48.88387 18.64209
#
# Poissons Ratio (x) = 0.30581 -0.02035
# Poissons Ratio (y) = 0.55426 0.44518
# Poissons Ratio (z) = -0.09671 1.16736
#
# Static dielectric constant tensor:
#      x y z
#    x 1.762300 0.000000 0.000000 
#    y 0.000000 1.698600 0.000000 
#    z 0.000000 0.000000 1.653630 
# 
# From -- ./inp_files/9085.got.cif
#   From: 2010.05.17/outbox.cif.g08.bks.cpg/sg21_5_cif.got.tgz:9085.got - 2010.06.03 23:14:55.
