data_PCOD9323318
_publ_section_title
;
Structure prediction by ZEFSAII (Michael W. Deem and Ramdas Pophale) SiO2 
 PCOD9323318
Probable space group: C 2 2 2
;
_chemical_formula_sum "Si O2"
_cell_formula_units_Z 46
_cell_length_a 15.051286
_cell_length_b 12.364228
_cell_length_c 12.088771
_cell_angle_alpha 90.000000
_cell_angle_beta 90.000000
_cell_angle_gamma 90.000000
_cell_volume 2249.690446
_symmetry_space_group_name_H-M "C 2 2 2"
_symmetry_group_IT_number 21
_symmetry_cell_setting 'orthorhombic'
loop_
_space_group_symop_operation_xyz
x,y,z
-x,-y,z
x,-y,-z
-x,y,-z
1/2+x,1/2+y,z
1/2-x,1/2-y,z
1/2+x,1/2-y,-z
1/2-x,1/2+y,-z
loop_
_atom_site_type_symbol
_atom_site_label
_atom_site_fract_x
_atom_site_fract_y
_atom_site_fract_z
Si Si1 0.830305 0.882564 0.100867
Si Si2 0.000000 0.500000 0.000000
Si Si3 0.649257 0.742286 0.869068
Si Si4 0.773455 0.521622 0.372890
Si Si5 0.855110 0.507696 0.850289
Si Si6 0.410512 0.545685 0.256355
Si Si7 0.250000 0.750000 0.719698
O O1 0.825165 0.790662 0.195160
O O2 0.736327 0.949010 0.110021
O O3 0.898694 0.970704 0.146137
O O4 0.844589 0.824409 0.984579
O O5 0.066337 0.444511 0.088934
O O6 0.750000 0.750000 0.823636
O O7 0.627950 0.867867 0.885394
O O8 0.591470 0.669158 0.786109
O O9 0.790149 0.500000 0.500000
O O10 0.845557 0.485438 0.281655
O O11 0.677703 0.475504 0.330452
O O12 0.772180 0.649539 0.354760
O O13 0.500000 0.500000 0.310686
#
# Coordination Sequence:
#
# PCOD9323318 Si02
#       7
#     8   2   8   8   8   8   4
#     4  10  20  35  59  84 129 163 202 254 318 395
#     4  12  24  40  58  88 132 152 200 274 324 384
#     4  12  19  34  62  88 125 169 207 259 321 396
#     4  10  22  42  67  86 118 165 214 265 303 386
#     4  10  24  38  57  94 119 165 211 255 323 386
#     4  10  23  38  55  94 130 159 209 265 320 381
#     4   8  18  34  60  88 110 154 208 244 318 362
#
# _framework density 20.447258999999999
#
# number of rings (size 3 to 8) (size 9 to 14) (size 15 to 20)
#    0.000    2.087    4.348    1.565    2.435    4.522 
#    6.261    0.435    0.000    0.000    0.000    0.000 
#    0.000    0.000    0.000    0.000    0.000    0.000 
#
# Total GULP energy -128056.434409 kJ/mol
# GULP energy per Si atom -5567.671061 kJ/mol
# Density = 2.040072 g / cm^3
# Si number density = 20.447259 Si / 1000 Ang^3
#
#
#
# Elastic Constant Matrix: (Units=GPa)
#
#
# Indices 1 2 3 4 5 6 
#
# 1 73.2063 -2.7909 29.8688 0.0000 0.0000 0.0000
# 2 -2.7909 120.5314 45.7116 0.0000 0.0000 0.0000
# 3 29.8688 45.7116 160.3897 0.0000 0.0000 0.0000
# 4 0.0000 0.0000 0.0000 27.3745 0.0000 0.0000
# 5 0.0000 0.0000 0.0000 0.0000 15.7959 0.0000
# 6 0.0000 0.0000 0.0000 0.0000 0.0000 18.1719
#
#
#
# Elastic Compliance Matrix: (Units=1/GPa)
#
#
# Indices 1 2 3 4 5 6 
#
# 1 0.015048 0.001582 -0.003253 0.000000 0.000000 0.000000
# 2 0.001582 0.009468 -0.002993 0.000000 0.000000 0.000000
# 3 -0.003253 -0.002993 0.007694 0.000000 0.000000 0.000000
# 4 0.000000 0.000000 0.000000 0.036530 0.000000 0.000000
# 5 0.000000 0.000000 0.000000 0.000000 0.063308 0.000000
# 6 0.000000 0.000000 0.000000 0.000000 0.000000 0.055030
#
#
# Mechanical properties :
#
#
# Convention : Reuss Voigt Hill
#
# Bulk Modulus (GPa) = 43.70350 55.52290 49.61320
# Shear Modulus (GPa) = 24.50583 31.02433 27.76508
#
# Velocity S-wave (km/s) = 3.46568 3.89946 3.68895
# Velocity P-wave (km/s) = 6.11839 6.89112 6.51622
#
# Compressibility (1/GPa) = 0.02288146
#
# Stress axis : x y z
#
# Youngs Moduli (GPa) = 66.45537 105.61456 129.97626
#
# Poissons Ratio (x) = -0.16710 0.42284
# Poissons Ratio (y) = -0.10515 0.38904
# Poissons Ratio (z) = 0.21619 0.31612
#
# Static dielectric constant tensor:
#      x y z
#    x 1.844820 0.000000 0.000000 
#    y 0.000000 1.876410 0.000000 
#    z 0.000000 0.000000 1.741080 
# 
# From -- ./inp_files/26082.got.cif
#   From: 2010.05.17/outbox.cif.g08.bks.cpg/sg21_14_cif.got.tgz:26082.got - 2010.06.03 23:14:55.
