data_PCOD9323929
_publ_section_title
;
Structure prediction by ZEFSAII (Michael W. Deem and Ramdas Pophale) SiO2 
 PCOD9323929
Probable space group: C 2 2 2
;
_chemical_formula_sum "Si O2"
_cell_formula_units_Z 48
_cell_length_a 17.422551
_cell_length_b 15.430756
_cell_length_c 9.380199
_cell_angle_alpha 90.000000
_cell_angle_beta 90.000000
_cell_angle_gamma 90.000000
_cell_volume 2521.802091
_symmetry_space_group_name_H-M "C 2 2 2"
_symmetry_group_IT_number 21
_symmetry_cell_setting 'orthorhombic'
loop_
_space_group_symop_operation_xyz
x,y,z
-x,-y,z
x,-y,-z
-x,y,-z
1/2+x,1/2+y,z
1/2-x,1/2-y,z
1/2+x,1/2-y,-z
1/2-x,1/2+y,-z
loop_
_atom_site_type_symbol
_atom_site_label
_atom_site_fract_x
_atom_site_fract_y
_atom_site_fract_z
Si Si1 0.230447 0.926119 0.696227
Si Si2 0.769209 0.391867 0.363428
Si Si3 0.872057 0.766435 0.676900
Si Si4 0.250000 0.750000 0.878573
Si Si5 0.442813 0.425859 0.214249
Si Si6 0.000000 0.838702 0.500000
Si Si7 0.581751 0.269289 0.008288
O O1 0.249904 0.905971 0.530993
O O2 0.245850 0.838131 0.784167
O O3 0.142608 0.951929 0.733570
O O4 0.274975 0.016848 0.718201
O O5 0.841655 0.330988 0.336685
O O6 0.697802 0.333393 0.316661
O O7 0.925486 0.784203 0.541616
O O8 0.914317 0.784356 0.823906
O O9 0.330995 0.759492 0.964859
O O10 0.500000 0.500000 0.161556
O O11 0.480990 0.392731 0.360376
O O12 0.431133 0.352026 0.094890
O O13 0.500000 0.217142 0.000000
#
# Coordination Sequence:
#
# PCOD9323929 Si02
#       7
#     8   8   8   4   8   4   8
#     4  10  21  37  63  97 126 166 213 275 333 395
#     4  10  21  37  61  92 127 164 217 270 323 390
#     4  11  22  39  61  89 128 172 212 264 322 398
#     4  10  22  42  64  90 130 174 218 270 334 406
#     4  11  23  38  60  97 136 163 207 271 343 418
#     4  12  21  36  62  93 124 168 208 260 329 399
#     4  11  24  42  61  92 130 175 216 266 332 403
#
# _framework density 19.034009000000001
#
# number of rings (size 3 to 8) (size 9 to 14) (size 15 to 20)
#    0.000    1.333    3.333    3.250    4.667    0.333 
#    3.000    2.500    0.000    8.000    0.000    0.000 
#    0.000    0.000    0.000    0.000    0.000    0.000 
#
# Total GULP energy -133647.662907 kJ/mol
# GULP energy per Si atom -5568.652621 kJ/mol
# Density = 1.899069 g / cm^3
# Si number density = 19.034009 Si / 1000 Ang^3
#
#
#
# Elastic Constant Matrix: (Units=GPa)
#
#
# Indices 1 2 3 4 5 6 
#
# 1 99.1010 33.3139 23.5730 0.0000 0.0000 0.0000
# 2 33.3139 104.7238 20.0441 0.0000 0.0000 0.0000
# 3 23.5730 20.0441 72.7999 0.0000 0.0000 0.0000
# 4 0.0000 0.0000 0.0000 4.4371 0.0000 0.0000
# 5 0.0000 0.0000 0.0000 0.0000 24.5431 0.0000
# 6 0.0000 0.0000 0.0000 0.0000 0.0000 39.0632
#
#
#
# Elastic Compliance Matrix: (Units=1/GPa)
#
#
# Indices 1 2 3 4 5 6 
#
# 1 0.011874 -0.003211 -0.002961 0.000000 0.000000 0.000000
# 2 -0.003211 0.010948 -0.001975 0.000000 0.000000 0.000000
# 3 -0.002961 -0.001975 0.015239 0.000000 0.000000 0.000000
# 4 0.000000 0.000000 0.000000 0.225373 0.000000 0.000000
# 5 0.000000 0.000000 0.000000 0.000000 0.040745 0.000000
# 6 0.000000 0.000000 0.000000 0.000000 0.000000 0.025600
#
#
# Mechanical properties :
#
#
# Convention : Reuss Voigt Hill
#
# Bulk Modulus (GPa) = 45.93781 47.83187 46.88484
# Shear Modulus (GPa) = 14.15118 26.92161 20.53640
#
# Velocity S-wave (km/s) = 2.72962 3.76492 3.28827
# Velocity P-wave (km/s) = 5.84135 6.63956 6.25321
#
# Compressibility (1/GPa) = 0.02176856
#
# Stress axis : x y z
#
# Youngs Moduli (GPa) = 84.21530 91.33894 65.62209
#
# Poissons Ratio (x) = 0.29326 0.19431
# Poissons Ratio (y) = 0.27038 0.12959
# Poissons Ratio (z) = 0.24936 0.18037
#
# Static dielectric constant tensor:
#      x y z
#    x 1.726080 0.000000 0.000000 
#    y 0.000000 1.684960 0.000000 
#    z 0.000000 0.000000 1.626340 
# 
# From -- ./inp_files/16447.got.cif
#   From: 2010.05.17/outbox.cif.g08.bks.cpg/sg21_9_cif.got.tgz:16447.got - 2010.06.03 23:14:55.
