data_PCOD9323636
_publ_section_title
;
Structure prediction by ZEFSAII (Michael W. Deem and Ramdas Pophale) SiO2 
 PCOD9323636
Probable space group: C 2 2 2
;
_chemical_formula_sum "Si O2"
_cell_formula_units_Z 48
_cell_length_a 7.807728
_cell_length_b 14.631326
_cell_length_c 18.606170
_cell_angle_alpha 90.000000
_cell_angle_beta 90.000000
_cell_angle_gamma 90.000000
_cell_volume 2125.520739
_symmetry_space_group_name_H-M "C 2 2 2"
_symmetry_group_IT_number 21
_symmetry_cell_setting 'orthorhombic'
loop_
_space_group_symop_operation_xyz
x,y,z
-x,-y,z
x,-y,-z
-x,y,-z
1/2+x,1/2+y,z
1/2-x,1/2-y,z
1/2+x,1/2-y,-z
1/2-x,1/2+y,-z
loop_
_atom_site_type_symbol
_atom_site_label
_atom_site_fract_x
_atom_site_fract_y
_atom_site_fract_z
Si Si1 0.701277 0.853310 0.305154
Si Si2 0.290617 0.004423 0.581714
Si Si3 0.690118 0.115879 0.857626
Si Si4 0.792038 0.355951 0.301930
Si Si5 0.998100 0.771973 0.082238
Si Si6 0.170105 0.064211 0.847596
O O1 0.750000 0.750000 0.322903
O O2 0.765342 0.921722 0.366308
O O3 0.760446 0.873384 0.223994
O O4 0.496999 0.866449 0.298981
O O5 0.500000 0.000000 0.579103
O O6 0.229365 0.000000 0.500000
O O7 0.237927 0.095487 0.624142
O O8 0.830053 0.164454 0.907590
O O9 0.527916 0.182840 0.867675
O O10 0.686340 0.008436 0.872185
O O11 0.750000 0.250000 0.300396
O O12 0.708144 0.405439 0.233750
O O13 0.143869 0.843568 0.106357
O O14 0.000000 0.743027 0.000000
O O15 0.000000 0.000000 0.851876
#
# Coordination Sequence:
#
# PCOD9323636 Si02
#       6
#     8   8   8   8   8   8
#     4  11  21  40  66  90 128 176 217 268 326 394
#     4   9  20  39  62  92 131 168 209 269 334 392
#     4  10  20  39  66  89 125 173 221 262 335 409
#     4  11  23  36  64 100 127 166 225 270 326 406
#     4  10  21  40  64  93 130 170 214 279 341 397
#     4  10  22  40  68  94 126 172 218 278 339 401
#
# _framework density 22.582699999999999
#
# number of rings (size 3 to 8) (size 9 to 14) (size 15 to 20)
#    0.000    1.833    3.333    1.000    2.333    3.667 
#    9.000    0.000    3.667    3.500    0.000    0.000 
#    0.000    0.000    0.000    0.000    0.000    0.000 
#
# Total GULP energy -134127.499569 kJ/mol
# GULP energy per Si atom -5588.645815 kJ/mol
# Density = 2.253130 g / cm^3
# Si number density = 22.582700 Si / 1000 Ang^3
#
#
#
# Elastic Constant Matrix: (Units=GPa)
#
#
# Indices 1 2 3 4 5 6 
#
# 1 58.4941 12.1978 -1.7556 0.0000 0.0000 0.0000
# 2 12.1978 195.1326 55.0915 0.0000 0.0000 0.0000
# 3 -1.7556 55.0915 145.2263 0.0000 0.0000 0.0000
# 4 0.0000 0.0000 0.0000 27.9260 0.0000 0.0000
# 5 0.0000 0.0000 0.0000 0.0000 27.7175 0.0000
# 6 0.0000 0.0000 0.0000 0.0000 0.0000 29.5336
#
#
#
# Elastic Compliance Matrix: (Units=1/GPa)
#
#
# Indices 1 2 3 4 5 6 
#
# 1 0.017384 -0.001283 0.000697 0.000000 0.000000 0.000000
# 2 -0.001283 0.005834 -0.002229 0.000000 0.000000 0.000000
# 3 0.000697 -0.002229 0.007740 0.000000 0.000000 0.000000
# 4 0.000000 0.000000 0.000000 0.035809 0.000000 0.000000
# 5 0.000000 0.000000 0.000000 0.000000 0.036078 0.000000
# 6 0.000000 0.000000 0.000000 0.000000 0.000000 0.033860
#
#
# Mechanical properties :
#
#
# Convention : Reuss Voigt Hill
#
# Bulk Modulus (GPa) = 39.48218 58.88003 49.18110
# Shear Modulus (GPa) = 33.16134 39.25673 36.20903
#
# Velocity S-wave (km/s) = 3.83618 4.17388 4.00859
# Velocity P-wave (km/s) = 6.09451 7.02553 6.57651
#
# Compressibility (1/GPa) = 0.02532788
#
# Stress axis : x y z
#
# Youngs Moduli (GPa) = 57.52309 171.40377 129.20418
#
# Poissons Ratio (x) = 0.22000 -0.09006
# Poissons Ratio (y) = 0.07383 0.28796
# Poissons Ratio (z) = -0.04010 0.38201
#
# Static dielectric constant tensor:
#      x y z
#    x 1.981580 0.000000 0.000000 
#    y 0.000000 1.832300 0.000000 
#    z 0.000000 0.000000 1.769490 
# 
# From -- ./inp_files/35646.got.cif
#   From: 2010.05.17/outbox.cif.g08.bks.cpg/sg21_18_cif.got.tgz:35646.got - 2010.06.03 23:14:55.
