data_PCOD9323306
_publ_section_title
;
Structure prediction by ZEFSAII (Michael W. Deem and Ramdas Pophale) SiO2 
 PCOD9323306
Probable space group: C 2 2 2
;
_chemical_formula_sum "Si O2"
_cell_formula_units_Z 36
_cell_length_a 17.490374
_cell_length_b 13.755644
_cell_length_c 8.897446
_cell_angle_alpha 90.000000
_cell_angle_beta 90.000000
_cell_angle_gamma 90.000000
_cell_volume 2140.648617
_symmetry_space_group_name_H-M "C 2 2 2"
_symmetry_group_IT_number 21
_symmetry_cell_setting 'orthorhombic'
loop_
_space_group_symop_operation_xyz
x,y,z
-x,-y,z
x,-y,-z
-x,y,-z
1/2+x,1/2+y,z
1/2-x,1/2-y,z
1/2+x,1/2-y,-z
1/2-x,1/2+y,-z
loop_
_atom_site_type_symbol
_atom_site_label
_atom_site_fract_x
_atom_site_fract_y
_atom_site_fract_z
Si Si1 0.621521 0.862078 0.850788
Si Si2 0.250000 0.462269 0.668931
Si Si3 0.500000 0.500000 0.000000
Si Si4 0.250000 0.642680 0.893371
Si Si5 0.621521 0.637922 0.850788
Si Si6 0.500000 0.000000 0.000000
O O1 0.674820 0.900727 0.715424
O O2 0.598667 0.750000 0.826198
O O3 0.677478 0.864741 0.996166
O O4 0.552080 0.931842 0.894123
O O5 0.250000 0.500000 0.500000
O O6 0.250000 0.555999 0.777184
O O7 0.325180 0.400727 0.715424
O O8 0.552080 0.431842 0.105877
O O9 0.250000 0.750000 0.822705
O O10 0.322523 0.635259 0.003834
#
# Coordination Sequence:
#
# PCOD9323306 Si02
#       6
#     8   8   2   8   8   2
#     4  10  20  35  58  84 108 142 188 236 272 319
#     4  11  20  36  57  78 113 147 182 230 281 326
#     4  12  18  34  62  82 116 142 184 228 284 324
#     4   9  17  34  56  77 102 139 193 236 267 314
#     4  10  20  35  58  84 108 142 188 236 272 319
#     4  12  18  34  62  82 116 142 184 228 284 324
#
# _framework density 16.817333000000001
#
# number of rings (size 3 to 8) (size 9 to 14) (size 15 to 20)
#    0.000    1.778    4.444    4.000    0.000    1.778 
#    0.000    1.111    0.000    2.667    0.000    0.000 
#    0.000    0.000    0.000    0.000    0.000    0.000 
#
# Total GULP energy -100418.301072 kJ/mol
# GULP energy per Si atom -5578.794504 kJ/mol
# Density = 1.677906 g / cm^3
# Si number density = 16.817333 Si / 1000 Ang^3
#
#
#
# Elastic Constant Matrix: (Units=GPa)
#
#
# Indices 1 2 3 4 5 6 
#
# 1 109.6430 67.3818 23.4134 0.0000 0.0000 0.0000
# 2 67.3818 160.9758 48.0352 0.0000 0.0000 0.0000
# 3 23.4134 48.0352 76.7670 0.0000 0.0000 0.0000
# 4 0.0000 0.0000 0.0000 14.6040 0.0000 0.0000
# 5 0.0000 0.0000 0.0000 0.0000 5.5664 0.0000
# 6 0.0000 0.0000 0.0000 0.0000 0.0000 24.6698
#
#
#
# Elastic Compliance Matrix: (Units=1/GPa)
#
#
# Indices 1 2 3 4 5 6 
#
# 1 0.012306 -0.004956 -0.000652 0.000000 0.000000 0.000000
# 2 -0.004956 0.009635 -0.004517 0.000000 0.000000 0.000000
# 3 -0.000652 -0.004517 0.016052 0.000000 0.000000 0.000000
# 4 0.000000 0.000000 0.000000 0.068474 0.000000 0.000000
# 5 0.000000 0.000000 0.000000 0.000000 0.179650 0.000000
# 6 0.000000 0.000000 0.000000 0.000000 0.000000 0.040535
#
#
# Mechanical properties :
#
#
# Convention : Reuss Voigt Hill
#
# Bulk Modulus (GPa) = 56.36481 69.44964 62.90723
# Shear Modulus (GPa) = 14.17168 22.87172 18.52170
#
# Velocity S-wave (km/s) = 2.90605 3.69183 3.32225
# Velocity P-wave (km/s) = 6.69693 7.71744 7.22523
#
# Compressibility (1/GPa) = 0.01774156
#
# Stress axis : x y z
#
# Youngs Moduli (GPa) = 81.26294 103.79156 62.29903
#
# Poissons Ratio (x) = 0.51444 0.04060
# Poissons Ratio (y) = 0.40278 0.28140
# Poissons Ratio (z) = 0.05296 0.46883
#
# Static dielectric constant tensor:
#      x y z
#    x 1.574630 0.000000 0.000000 
#    y 0.000000 1.604090 0.000000 
#    z 0.000000 0.000000 1.526680 
# 
# From -- ./inp_files/16261.got.cif
#   From: 2010.05.17/outbox.cif.g08.bks.cpg/sg21_9_cif.got.tgz:16261.got - 2010.06.03 23:14:55.
