data_PCOD9323442
_publ_section_title
;
Structure prediction by ZEFSAII (Michael W. Deem and Ramdas Pophale) SiO2 
 PCOD9323442
Probable space group: C 2 2 2
;
_chemical_formula_sum "Si O2"
_cell_formula_units_Z 52
_cell_length_a 17.931011
_cell_length_b 7.949654
_cell_length_c 17.419060
_cell_angle_alpha 90.000000
_cell_angle_beta 90.000000
_cell_angle_gamma 90.000000
_cell_volume 2483.005714
_symmetry_space_group_name_H-M "C 2 2 2"
_symmetry_group_IT_number 21
_symmetry_cell_setting 'orthorhombic'
loop_
_space_group_symop_operation_xyz
x,y,z
-x,-y,z
x,-y,-z
-x,y,-z
1/2+x,1/2+y,z
1/2-x,1/2-y,z
1/2+x,1/2-y,-z
1/2-x,1/2+y,-z
loop_
_atom_site_type_symbol
_atom_site_label
_atom_site_fract_x
_atom_site_fract_y
_atom_site_fract_z
Si Si1 0.458907 0.175867 0.733681
Si Si2 0.772049 0.058056 0.083996
Si Si3 0.337138 0.225987 0.439925
Si Si4 0.110742 0.864973 0.710231
Si Si5 0.333753 0.167756 0.606842
Si Si6 0.576069 0.403962 0.150368
Si Si7 0.250000 0.750000 0.802083
O O1 0.526416 0.300869 0.713238
O O2 0.388661 0.193535 0.677880
O O3 0.438446 0.214106 0.822434
O O4 0.500000 0.000000 0.724458
O O5 0.750000 0.250000 0.102353
O O6 0.861830 0.064632 0.087901
O O7 0.747536 0.916278 0.144916
O O8 0.746135 0.000000 0.000000
O O9 0.250000 0.250000 0.450044
O O10 0.367372 0.360869 0.378965
O O11 0.367014 0.239338 0.526583
O O12 0.339152 0.034548 0.407753
O O13 0.176046 0.752480 0.749410
O O14 0.108742 0.019277 0.769506
O O15 0.250000 0.250000 0.619176
O O16 0.500000 0.500000 0.131863
#
# Coordination Sequence:
#
# PCOD9323442 Si02
#       7
#     8   8   8   8   8   8   4
#     4  11  22  38  59  92 125 160 215 272 313 379
#     4  11  23  41  69 103 137 170 215 264 321 396
#     4  10  20  37  57  84 119 167 212 267 325 388
#     4  10  20  38  61  87 125 166 210 266 320 380
#     4  10  23  37  56  86 122 164 215 269 327 385
#     4   9  23  42  62  90 128 173 211 258 326 388
#     4  10  22  40  66 100 136 172 212 266 334 386
#
# _framework density 20.942359
#
# number of rings (size 3 to 8) (size 9 to 14) (size 15 to 20)
#    0.000    1.846    3.077    0.000    4.308    1.538 
#    0.000    0.000    0.000    2.769    0.000    0.000 
#    0.000    0.000    0.000    0.000    0.000    0.000 
#
# Total GULP energy -144841.793536 kJ/mol
# GULP energy per Si atom -5570.838213 kJ/mol
# Density = 2.089469 g / cm^3
# Si number density = 20.942359 Si / 1000 Ang^3
#
#
#
# Elastic Constant Matrix: (Units=GPa)
#
#
# Indices 1 2 3 4 5 6 
#
# 1 85.7548 19.3359 17.3358 0.0000 0.0000 0.0000
# 2 19.3359 73.3692 28.1781 0.0000 0.0000 0.0000
# 3 17.3358 28.1781 54.5415 0.0000 0.0000 0.0000
# 4 0.0000 0.0000 0.0000 206.9744 0.0000 0.0000
# 5 0.0000 0.0000 0.0000 0.0000 34.1141 0.0000
# 6 0.0000 0.0000 0.0000 0.0000 0.0000 23.2590
#
#
#
# Elastic Compliance Matrix: (Units=1/GPa)
#
#
# Indices 1 2 3 4 5 6 
#
# 1 0.012753 -0.002251 -0.002891 0.000000 0.000000 0.000000
# 2 -0.002251 0.017401 -0.008274 0.000000 0.000000 0.000000
# 3 -0.002891 -0.008274 0.023528 0.000000 0.000000 0.000000
# 4 0.000000 0.000000 0.000000 0.004832 0.000000 0.000000
# 5 0.000000 0.000000 0.000000 0.000000 0.029313 0.000000
# 6 0.000000 0.000000 0.000000 0.000000 0.000000 0.042994
#
#
# Mechanical properties :
#
#
# Convention : Reuss Voigt Hill
#
# Bulk Modulus (GPa) = 37.24352 38.15168 37.69760
# Shear Modulus (GPa) = 30.01147 62.79054 46.40101
#
# Velocity S-wave (km/s) = 3.78967 5.48157 4.71218
# Velocity P-wave (km/s) = 6.08040 7.63679 6.90260
#
# Compressibility (1/GPa) = 0.02685031
#
# Stress axis : x y z
#
# Youngs Moduli (GPa) = 78.41279 57.46875 42.50198
#
# Poissons Ratio (x) = 0.12935 0.12286
# Poissons Ratio (y) = 0.17649 0.35168
# Poissons Ratio (z) = 0.22666 0.47552
#
# Static dielectric constant tensor:
#      x y z
#    x 1.648730 0.000000 0.000000 
#    y 0.000000 1.894720 0.000000 
#    z 0.000000 0.000000 1.770160 
# 
# From -- ./inp_files/33229.got.cif
#   From: 2010.05.17/outbox.cif.g08.bks.cpg/sg21_17_cif.got.tgz:33229.got - 2010.06.03 23:14:55.
