data_PCOD9323019
_publ_section_title
;
Structure prediction by ZEFSAII (Michael W. Deem and Ramdas Pophale) SiO2 
 PCOD9323019
Probable space group: C 2 2 2
;
_chemical_formula_sum "Si O2"
_cell_formula_units_Z 30
_cell_length_a 26.860657
_cell_length_b 5.478583
_cell_length_c 8.610407
_cell_angle_alpha 90.000000
_cell_angle_beta 90.000000
_cell_angle_gamma 90.000000
_cell_volume 1267.093191
_symmetry_space_group_name_H-M "C 2 2 2"
_symmetry_group_IT_number 21
_symmetry_cell_setting 'orthorhombic'
loop_
_space_group_symop_operation_xyz
x,y,z
-x,-y,z
x,-y,-z
-x,y,-z
1/2+x,1/2+y,z
1/2-x,1/2-y,z
1/2+x,1/2-y,-z
1/2-x,1/2+y,-z
loop_
_atom_site_type_symbol
_atom_site_label
_atom_site_fract_x
_atom_site_fract_y
_atom_site_fract_z
Si Si1 0.160753 0.000000 0.500000
Si Si2 0.000000 0.000000 0.500000
Si Si3 0.605608 0.500000 0.000000
Si Si4 0.420675 0.769825 0.294054
Si Si5 0.345777 0.841905 0.750626
Si Si6 0.280081 0.000000 0.000000
O O1 0.124924 0.131666 0.622638
O O2 0.182676 0.213151 0.391954
O O3 0.032343 0.820663 0.390897
O O4 0.575317 0.675872 0.883260
O O5 0.640021 0.340002 0.888966
O O6 0.399439 0.045233 0.299603
O O7 0.312397 0.035641 0.842629
O O8 0.250000 0.750000 0.976007
#
# Coordination Sequence:
#
# PCOD9323019 Si02
#       6
#     4   2   4   8   8   4
#     4   9  22  37  70  96 134 192 242 286 380 473
#     4  10  24  42  66 110 148 186 278 304 364 448
#     4  10  19  37  70 101 132 196 247 292 384 468
#     4  10  20  40  67 101 139 194 240 315 368 462
#     4  11  21  43  73 103 144 200 249 306 403 459
#     4  12  27  44  78 119 151 193 267 338 376 473
#
# _framework density 23.676238000000001
#
# number of rings (size 3 to 8) (size 9 to 14) (size 15 to 20)
#    0.000    1.600    2.667    1.600    3.733    0.533 
#    0.000   24.000    5.867   16.000    0.000    0.000 
#    0.000    0.000    0.000    0.000    0.000    0.000 
#
# Total GULP energy -83684.549482 kJ/mol
# GULP energy per Si atom -5578.969965 kJ/mol
# Density = 2.362235 g / cm^3
# Si number density = 23.676238 Si / 1000 Ang^3
#
#
#
# Elastic Constant Matrix: (Units=GPa)
#
#
# Indices 1 2 3 4 5 6 
#
# 1 70.4111 24.6908 36.0136 0.0000 0.0000 0.0000
# 2 24.6908 90.0877 43.8657 0.0000 0.0000 0.0000
# 3 36.0136 43.8657 166.9439 0.0000 0.0000 0.0000
# 4 0.0000 0.0000 0.0000 60.3651 0.0000 0.0000
# 5 0.0000 0.0000 0.0000 0.0000 11.5400 0.0000
# 6 0.0000 0.0000 0.0000 0.0000 0.0000 25.4964
#
#
#
# Elastic Compliance Matrix: (Units=1/GPa)
#
#
# Indices 1 2 3 4 5 6 
#
# 1 0.016753 -0.003247 -0.002761 0.000000 0.000000 0.000000
# 2 -0.003247 0.013358 -0.002809 0.000000 0.000000 0.000000
# 3 -0.002761 -0.002809 0.007324 0.000000 0.000000 0.000000
# 4 0.000000 0.000000 0.000000 0.016566 0.000000 0.000000
# 5 0.000000 0.000000 0.000000 0.000000 0.086655 0.000000
# 6 0.000000 0.000000 0.000000 0.000000 0.000000 0.039221
#
#
# Mechanical properties :
#
#
# Convention : Reuss Voigt Hill
#
# Bulk Modulus (GPa) = 50.50486 59.62032 55.06259
# Shear Modulus (GPa) = 24.49625 34.33846 29.41736
#
# Velocity S-wave (km/s) = 3.22006 3.81246 3.52871
# Velocity P-wave (km/s) = 5.93320 6.67952 6.31739
#
# Compressibility (1/GPa) = 0.01980008
#
# Stress axis : x y z
#
# Youngs Moduli (GPa) = 59.69042 74.85984 136.54111
#
# Poissons Ratio (x) = 0.24310 0.37696
# Poissons Ratio (y) = 0.19384 0.38361
# Poissons Ratio (z) = 0.16479 0.21032
#
# Static dielectric constant tensor:
#      x y z
#    x 1.918320 0.000000 0.000000 
#    y 0.000000 2.310430 0.000000 
#    z 0.000000 0.000000 1.941490 
# 
# From -- ./inp_files/9114.got.cif
#   From: 2010.05.17/outbox.cif.g08.bks.cpg/sg21_5_cif.got.tgz:9114.got - 2010.06.03 23:14:55.
