data_PCOD9323391
_publ_section_title
;
Structure prediction by ZEFSAII (Michael W. Deem and Ramdas Pophale) SiO2 
 PCOD9323391
Probable space group: C 2 2 2
;
_chemical_formula_sum "Si O2"
_cell_formula_units_Z 40
_cell_length_a 21.003621
_cell_length_b 7.536580
_cell_length_c 11.514612
_cell_angle_alpha 90.000000
_cell_angle_beta 90.000000
_cell_angle_gamma 90.000000
_cell_volume 1822.710918
_symmetry_space_group_name_H-M "C 2 2 2"
_symmetry_group_IT_number 21
_symmetry_cell_setting 'orthorhombic'
loop_
_space_group_symop_operation_xyz
x,y,z
-x,-y,z
x,-y,-z
-x,y,-z
1/2+x,1/2+y,z
1/2-x,1/2-y,z
1/2+x,1/2-y,-z
1/2-x,1/2+y,-z
loop_
_atom_site_type_symbol
_atom_site_label
_atom_site_fract_x
_atom_site_fract_y
_atom_site_fract_z
Si Si1 0.998564 0.282917 0.863961
Si Si2 0.198283 0.000000 0.000000
Si Si3 0.378134 0.139334 0.266907
Si Si4 0.750000 0.750000 0.182997
Si Si5 0.840639 0.500000 0.500000
Si Si6 0.363297 0.257908 0.820627
Si Si7 0.250000 0.750000 0.348450
O O1 0.933878 0.250043 0.793753
O O2 0.000000 0.500000 0.860922
O O3 0.061667 0.201575 0.804972
O O4 0.000000 0.232602 0.000000
O O5 0.241929 0.915237 0.902320
O O6 0.156614 0.157856 0.943844
O O7 0.312290 0.241805 0.259196
O O8 0.385207 0.088489 0.401656
O O9 0.365665 0.955778 0.195435
O O10 0.791655 0.377286 0.429147
O O11 0.307173 0.322100 0.734287
#
# Coordination Sequence:
#
# PCOD9323391 Si02
#       7
#     8   4   8   4   4   8   4
#     4   9  18  35  58  83 115 151 188 240 302 360
#     4  12  22  34  57  86 123 160 200 252 302 370
#     4  10  21  38  59  86 119 157 205 252 302 360
#     4  12  22  34  54  84 118 160 204 250 306 360
#     4  10  20  36  61  86 113 156 204 254 300 350
#     4  10  21  37  57  85 116 153 196 246 304 360
#     4  10  20  38  58  84 118 152 202 256 300 354
#
# _framework density 21.945333000000002
#
# number of rings (size 3 to 8) (size 9 to 14) (size 15 to 20)
#    0.000    1.800    0.000    6.000    0.000    3.200 
#    0.000   17.000    0.000    0.000    0.000    8.400 
#    0.000    0.000    0.000    0.000    0.000    0.000 
#
# Total GULP energy -111512.971826 kJ/mol
# GULP energy per Si atom -5575.648591 kJ/mol
# Density = 2.189538 g / cm^3
# Si number density = 21.945333 Si / 1000 Ang^3
#
#
#
# Elastic Constant Matrix: (Units=GPa)
#
#
# Indices 1 2 3 4 5 6 
#
# 1 175.7431 13.7337 74.7598 0.0000 0.0000 0.0000
# 2 13.7337 50.2716 26.3736 0.0000 0.0000 0.0000
# 3 74.7598 26.3736 126.4441 0.0000 0.0000 0.0000
# 4 0.0000 0.0000 0.0000 36.0515 0.0000 0.0000
# 5 0.0000 0.0000 0.0000 0.0000 14.0081 0.0000
# 6 0.0000 0.0000 0.0000 0.0000 0.0000 6.5118
#
#
#
# Elastic Compliance Matrix: (Units=1/GPa)
#
#
# Indices 1 2 3 4 5 6 
#
# 1 0.007607 0.000316 -0.004563 0.000000 0.000000 0.000000
# 2 0.000316 0.022349 -0.004848 0.000000 0.000000 0.000000
# 3 -0.004563 -0.004848 0.011618 0.000000 0.000000 0.000000
# 4 0.000000 0.000000 0.000000 0.027738 0.000000 0.000000
# 5 0.000000 0.000000 0.000000 0.000000 0.071387 0.000000
# 6 0.000000 0.000000 0.000000 0.000000 0.000000 0.153567
#
#
# Mechanical properties :
#
#
# Convention : Reuss Voigt Hill
#
# Bulk Modulus (GPa) = 42.76738 64.68812 53.72775
# Shear Modulus (GPa) = 15.61269 27.15371 21.38320
#
# Velocity S-wave (km/s) = 2.67017 3.52139 3.12490
# Velocity P-wave (km/s) = 5.38859 6.78782 6.12827
#
# Compressibility (1/GPa) = 0.02338230
#
# Stress axis : x y z
#
# Youngs Moduli (GPa) = 131.46420 44.74434 86.07364
#
# Poissons Ratio (x) = -0.01414 0.39278
# Poissons Ratio (y) = -0.04154 0.41732
# Poissons Ratio (z) = 0.59991 0.21694
#
# Static dielectric constant tensor:
#      x y z
#    x 1.850910 0.000000 0.000000 
#    y 0.000000 1.947740 0.000000 
#    z 0.000000 0.000000 1.848030 
# 
# From -- ./inp_files/26721.got.cif
#   From: 2010.05.17/outbox.cif.g08.bks.cpg/sg21_14_cif.got.tgz:26721.got - 2010.06.03 23:14:55.
