data_PCOD9323123
_publ_section_title
;
Structure prediction by ZEFSAII (Michael W. Deem and Ramdas Pophale) SiO2 
 PCOD9323123
Probable space group: C 2 2 2
;
_chemical_formula_sum "Si O2"
_cell_formula_units_Z 28
_cell_length_a 16.949212
_cell_length_b 9.091003
_cell_length_c 8.769408
_cell_angle_alpha 90.000000
_cell_angle_beta 90.000000
_cell_angle_gamma 90.000000
_cell_volume 1351.237188
_symmetry_space_group_name_H-M "C 2 2 2"
_symmetry_group_IT_number 21
_symmetry_cell_setting 'orthorhombic'
loop_
_space_group_symop_operation_xyz
x,y,z
-x,-y,z
x,-y,-z
-x,y,-z
1/2+x,1/2+y,z
1/2-x,1/2-y,z
1/2+x,1/2-y,-z
1/2-x,1/2+y,-z
loop_
_atom_site_type_symbol
_atom_site_label
_atom_site_fract_x
_atom_site_fract_y
_atom_site_fract_z
Si Si1 0.388890 0.869233 0.249707
Si Si2 0.000000 0.500000 0.000000
Si Si3 0.245223 0.075623 0.332733
Si Si4 0.000000 0.500000 0.500000
Si Si5 0.411734 0.534627 0.316886
O O1 0.443055 0.907379 0.394669
O O2 0.378646 0.696234 0.275736
O O3 0.314464 0.981476 0.250552
O O4 0.443232 0.902079 0.104719
O O5 0.250000 0.250000 0.354764
O O6 0.244586 0.000000 0.500000
O O7 0.159530 0.062891 0.254656
O O8 0.500000 0.500000 0.259406
O O9 0.415638 0.500000 0.500000
#
# Coordination Sequence:
#
# PCOD9323123 Si02
#       5
#     8   2   8   2   8
#     4  11  22  42  64  97 134 181 224 281 332 405
#     4  10  28  42  70  90 146 178 238 262 344 402
#     4  11  22  36  64 104 137 169 221 290 346 393
#     4  10  20  30  70  90 118 170 230 274 328 366
#     4  10  21  36  66 103 135 162 216 283 342 395
#
# _framework density 20.72175
#
# number of rings (size 3 to 8) (size 9 to 14) (size 15 to 20)
#    0.000    1.429    1.429    6.000    8.000    0.000 
#    0.000    3.571    0.000    0.000    0.000    0.000 
#    0.000    0.000    0.000    0.000    0.000    0.000 
#
# Total GULP energy -77966.967986 kJ/mol
# GULP energy per Si atom -5569.069142 kJ/mol
# Density = 2.067459 g / cm^3
# Si number density = 20.721750 Si / 1000 Ang^3
#
#
#
# Elastic Constant Matrix: (Units=GPa)
#
#
# Indices 1 2 3 4 5 6 
#
# 1 177.2199 60.5763 18.3632 0.0000 0.0000 0.0000
# 2 60.5763 181.0582 14.1651 0.0000 0.0000 0.0000
# 3 18.3632 14.1651 55.2706 0.0000 0.0000 0.0000
# 4 0.0000 0.0000 0.0000 20.8634 0.0000 0.0000
# 5 0.0000 0.0000 0.0000 0.0000 -70.3496 0.0000
# 6 0.0000 0.0000 0.0000 0.0000 0.0000 38.3215
#
#
#
# Elastic Compliance Matrix: (Units=1/GPa)
#
#
# Indices 1 2 3 4 5 6 
#
# 1 0.006514 -0.002051 -0.001638 0.000000 0.000000 0.000000
# 2 -0.002051 0.006282 -0.000929 0.000000 0.000000 0.000000
# 3 -0.001638 -0.000929 0.018875 0.000000 0.000000 0.000000
# 4 0.000000 0.000000 0.000000 0.047931 0.000000 0.000000
# 5 0.000000 0.000000 0.000000 0.000000 -0.014215 0.000000
# 6 0.000000 0.000000 0.000000 0.000000 0.000000 0.026095
#
#
# Mechanical properties :
#
#
# Convention : Reuss Voigt Hill
#
# Bulk Modulus (GPa) = 44.57397 66.63978 55.60688
# Shear Modulus (GPa) = 46.21252 19.13003 32.67127
#
# Velocity S-wave (km/s) = 4.72756 3.04169 3.97503
# Velocity P-wave (km/s) = 7.16640 6.67570 6.92540
#
# Compressibility (1/GPa) = 0.02243462
#
# Stress axis : x y z
#
# Youngs Moduli (GPa) = 153.52603 159.18642 52.97981
#
# Poissons Ratio (x) = 0.32650 0.08680
# Poissons Ratio (y) = 0.31489 0.04919
# Poissons Ratio (z) = 0.25154 0.14781
#
# Static dielectric constant tensor:
#      x y z
#    x 1.800230 0.000000 0.000000 
#    y 0.000000 4.711260 0.000000 
#    z 0.000000 0.000000 1.726060 
# 
# From -- ./inp_files/10178.got.cif
#   From: 2010.05.17/outbox.cif.g08.bks.cpg/sg21_6_cif.got.tgz:10178.got - 2010.06.03 23:14:55.
