data_PCOD9323307
_publ_section_title
;
Structure prediction by ZEFSAII (Michael W. Deem and Ramdas Pophale) SiO2 
 PCOD9323307
Probable space group: C 2 2 2
;
_chemical_formula_sum "Si O2"
_cell_formula_units_Z 36
_cell_length_a 28.954393
_cell_length_b 5.249143
_cell_length_c 12.649693
_cell_angle_alpha 90.000000
_cell_angle_beta 90.000000
_cell_angle_gamma 90.000000
_cell_volume 1922.573069
_symmetry_space_group_name_H-M "C 2 2 2"
_symmetry_group_IT_number 21
_symmetry_cell_setting 'orthorhombic'
loop_
_space_group_symop_operation_xyz
x,y,z
-x,-y,z
x,-y,-z
-x,y,-z
1/2+x,1/2+y,z
1/2-x,1/2-y,z
1/2+x,1/2-y,-z
1/2-x,1/2+y,-z
loop_
_atom_site_type_symbol
_atom_site_label
_atom_site_fract_x
_atom_site_fract_y
_atom_site_fract_z
Si Si1 0.929776 0.903794 0.886423
Si Si2 0.617551 0.075170 0.811320
Si Si3 0.500000 0.500000 0.714248
Si Si4 0.219559 0.501366 0.874192
Si Si5 0.447562 0.097875 0.383771
O O1 0.898192 0.140956 0.845886
O O2 0.901547 0.642915 0.889645
O O3 0.970296 0.847457 0.802362
O O4 0.946531 0.000000 0.000000
O O5 0.672130 0.032650 0.810635
O O6 0.591916 0.029849 0.699349
O O7 0.460059 0.607062 0.637504
O O8 0.250000 0.250000 0.851820
O O9 0.250000 0.750000 0.854717
O O10 0.207983 0.500000 0.000000
O O11 0.500000 0.000000 0.359948
O O12 0.436546 0.000000 0.500000
#
# Coordination Sequence:
#
# PCOD9323307 Si02
#       5
#     8   8   4   8   8
#     4  11  21  34  54  80 118 155 186 229 280 342
#     4  11  22  38  57  86 117 151 196 236 287 338
#     4  10  21  37  52  82 114 152 196 232 278 336
#     4  10  20  35  58  84 112 149 189 232 285 345
#     4  10  21  39  59  82 113 152 198 242 282 333
#
# _framework density 18.724907999999999
#
# number of rings (size 3 to 8) (size 9 to 14) (size 15 to 20)
#    0.000    1.556    2.222    3.667    0.000    3.556 
#    0.000    2.222    0.000    1.333    0.000    0.000 
#    0.000    0.000    0.000    0.000    0.000    0.000 
#
# Total GULP energy -100210.202280 kJ/mol
# GULP energy per Si atom -5567.233460 kJ/mol
# Density = 1.868229 g / cm^3
# Si number density = 18.724908 Si / 1000 Ang^3
#
#
#
# Elastic Constant Matrix: (Units=GPa)
#
#
# Indices 1 2 3 4 5 6 
#
# 1 125.9664 31.0455 61.3900 0.0000 0.0000 0.0000
# 2 31.0455 87.0763 38.0548 0.0000 0.0000 0.0000
# 3 61.3900 38.0548 136.3980 0.0000 0.0000 0.0000
# 4 0.0000 0.0000 0.0000 17.7062 0.0000 0.0000
# 5 0.0000 0.0000 0.0000 0.0000 18.7570 0.0000
# 6 0.0000 0.0000 0.0000 0.0000 0.0000 8.7340
#
#
#
# Elastic Compliance Matrix: (Units=1/GPa)
#
#
# Indices 1 2 3 4 5 6 
#
# 1 0.010438 -0.001900 -0.004168 0.000000 0.000000 0.000000
# 2 -0.001900 0.013425 -0.002890 0.000000 0.000000 0.000000
# 3 -0.004168 -0.002890 0.010014 0.000000 0.000000 0.000000
# 4 0.000000 0.000000 0.000000 0.056478 0.000000 0.000000
# 5 0.000000 0.000000 0.000000 0.000000 0.053313 0.000000
# 6 0.000000 0.000000 0.000000 0.000000 0.000000 0.114495
#
#
# Mechanical properties :
#
#
# Convention : Reuss Voigt Hill
#
# Bulk Modulus (GPa) = 62.65600 67.82461 65.24030
# Shear Modulus (GPa) = 17.76838 23.63613 20.70226
#
# Velocity S-wave (km/s) = 3.08379 3.55672 3.32866
# Velocity P-wave (km/s) = 6.79806 7.29158 7.04914
#
# Compressibility (1/GPa) = 0.01596016
#
# Stress axis : x y z
#
# Youngs Moduli (GPa) = 95.80257 74.48924 99.86257
#
# Poissons Ratio (x) = 0.14153 0.41622
# Poissons Ratio (y) = 0.18203 0.28863
# Poissons Ratio (z) = 0.39929 0.21530
#
# Static dielectric constant tensor:
#      x y z
#    x 1.658190 0.000000 0.000000 
#    y 0.000000 2.127100 0.000000 
#    z 0.000000 0.000000 1.645130 
# 
# From -- ./inp_files/27618.got.cif
#   From: 2010.05.17/outbox.cif.g08.bks.cpg/sg21_14_cif.got.tgz:27618.got - 2010.06.03 23:14:55.
