data_PCOD9323382
_publ_section_title
;
Structure prediction by ZEFSAII (Michael W. Deem and Ramdas Pophale) SiO2 
 PCOD9323382
Probable space group: C 2 2 2
;
_chemical_formula_sum "Si O2"
_cell_formula_units_Z 28
_cell_length_a 14.160974
_cell_length_b 15.419298
_cell_length_c 5.245648
_cell_angle_alpha 90.000000
_cell_angle_beta 90.000000
_cell_angle_gamma 90.000000
_cell_volume 1145.399191
_symmetry_space_group_name_H-M "C 2 2 2"
_symmetry_group_IT_number 21
_symmetry_cell_setting 'orthorhombic'
loop_
_space_group_symop_operation_xyz
x,y,z
-x,-y,z
x,-y,-z
-x,y,-z
1/2+x,1/2+y,z
1/2-x,1/2-y,z
1/2+x,1/2-y,-z
1/2-x,1/2+y,-z
loop_
_atom_site_type_symbol
_atom_site_label
_atom_site_fract_x
_atom_site_fract_y
_atom_site_fract_z
Si Si1 0.862192 0.774754 0.717388
Si Si2 0.000000 0.646098 0.000000
Si Si3 0.130075 0.500000 0.000000
Si Si4 0.678889 0.666925 0.221488
Si Si5 0.731826 0.000000 0.500000
O O1 0.750000 0.750000 0.686180
O O2 0.861527 0.847385 0.940053
O O3 0.931850 0.703069 0.828247
O O4 0.892921 0.799744 0.434396
O O5 0.070417 0.577359 0.868549
O O6 0.180789 0.539389 0.248215
O O7 0.750000 0.750000 0.185048
O O8 0.719195 0.581042 0.354954
#
# Coordination Sequence:
#
# PCOD9323382 Si02
#       5
#     8   4   4   8   4
#     4  10  21  38  59  85 120 164 206 245 303 371
#     4  11  24  40  64  95 132 164 206 263 320 385
#     4  11  24  36  60 100 132 156 196 264 344 388
#     4  10  20  36  60  87 120 164 206 245 303 371
#     4  12  22  41  66  95 132 164 206 263 320 385
#
# _framework density 24.445627000000002
#
# number of rings (size 3 to 8) (size 9 to 14) (size 15 to 20)
#    0.000    1.429    0.000    8.571    0.000    5.714 
#    0.000    0.000    0.000    5.143    0.000    0.000 
#    0.000    0.000    0.000    0.000    0.000    0.000 
#
# Total GULP energy -77938.808812 kJ/mol
# GULP energy per Si atom -5567.057772 kJ/mol
# Density = 2.438999 g / cm^3
# Si number density = 24.445627 Si / 1000 Ang^3
#
#
#
# Elastic Constant Matrix: (Units=GPa)
#
#
# Indices 1 2 3 4 5 6 
#
# 1 62.7808 26.3026 -5.4758 0.0000 0.0000 0.0000
# 2 26.3026 85.1437 -28.3829 0.0000 0.0000 0.0000
# 3 -5.4758 -28.3829 125.4936 0.0000 0.0000 0.0000
# 4 0.0000 0.0000 0.0000 25.8316 0.0000 0.0000
# 5 0.0000 0.0000 0.0000 0.0000 15.4268 0.0000
# 6 0.0000 0.0000 0.0000 0.0000 0.0000 28.0238
#
#
#
# Elastic Compliance Matrix: (Units=1/GPa)
#
#
# Indices 1 2 3 4 5 6 
#
# 1 0.018328 -0.005835 -0.000520 0.000000 0.000000 0.000000
# 2 -0.005835 0.014560 0.003038 0.000000 0.000000 0.000000
# 3 -0.000520 0.003038 0.008633 0.000000 0.000000 0.000000
# 4 0.000000 0.000000 0.000000 0.038712 0.000000 0.000000
# 5 0.000000 0.000000 0.000000 0.000000 0.064822 0.000000
# 6 0.000000 0.000000 0.000000 0.000000 0.000000 0.035684
#
#
# Mechanical properties :
#
#
# Convention : Reuss Voigt Hill
#
# Bulk Modulus (GPa) = 28.66332 28.70066 28.68199
# Shear Modulus (GPa) = 25.12535 32.58806 28.85671
#
# Velocity S-wave (km/s) = 3.20942 3.65510 3.43949
# Velocity P-wave (km/s) = 5.04823 5.43867 5.24708
#
# Compressibility (1/GPa) = 0.03488779
#
# Stress axis : x y z
#
# Youngs Moduli (GPa) = 54.56203 68.67978 115.83379
#
# Poissons Ratio (x) = 0.40076 0.06024
# Poissons Ratio (y) = 0.31838 -0.35196
# Poissons Ratio (z) = 0.02837 -0.20868
#
# Static dielectric constant tensor:
#      x y z
#    x 2.233310 0.000000 0.000000 
#    y 0.000000 2.085890 0.000000 
#    z 0.000000 0.000000 2.031240 
# 
# From -- ./inp_files/3357.got.cif
#   From: 2010.05.17/outbox.cif.g08.bks.cpg/sg21_2_cif.got.tgz:3357.got - 2010.06.03 23:14:55.
