data_PCOD9323814
_publ_section_title
;
Structure prediction by ZEFSAII (Michael W. Deem and Ramdas Pophale) SiO2 
 PCOD9323814
Probable space group: C 2 2 2
;
_chemical_formula_sum "Si O2"
_cell_formula_units_Z 34
_cell_length_a 7.462176
_cell_length_b 13.596335
_cell_length_c 12.030884
_cell_angle_alpha 90.000000
_cell_angle_beta 90.000000
_cell_angle_gamma 90.000000
_cell_volume 1220.632373
_symmetry_space_group_name_H-M "C 2 2 2"
_symmetry_group_IT_number 21
_symmetry_cell_setting 'orthorhombic'
loop_
_space_group_symop_operation_xyz
x,y,z
-x,-y,z
x,-y,-z
-x,y,-z
1/2+x,1/2+y,z
1/2-x,1/2-y,z
1/2+x,1/2-y,-z
1/2-x,1/2+y,-z
loop_
_atom_site_type_symbol
_atom_site_label
_atom_site_fract_x
_atom_site_fract_y
_atom_site_fract_z
Si Si1 0.299117 0.578634 0.182809
Si Si2 0.372504 0.882742 0.826386
Si Si3 0.195813 0.143352 0.586183
Si Si4 0.250000 0.250000 0.977645
Si Si5 0.500000 0.000000 0.500000
Si Si6 0.250000 0.250000 0.370664
O O1 0.290476 0.462221 0.156532
O O2 0.386669 0.595183 0.303801
O O3 0.347355 0.668157 0.100773
O O4 0.080530 0.588161 0.183209
O O5 0.345726 0.823121 0.712554
O O6 0.356889 0.815732 0.933843
O O7 0.250000 0.250000 0.631618
O O8 0.365207 0.071425 0.564890
O O9 0.149801 0.176127 0.457252
#
# Coordination Sequence:
#
# PCOD9323814 Si02
#       6
#     8   8   8   4   2   4
#     4  11  20  39  59  90 113 156 208 248 319 369
#     4  10  22  36  64  85 117 155 201 261 306 379
#     4  10  21  34  60 101 125 159 213 258 313 389
#     4  11  21  36  54  92 117 147 206 270 306 371
#     4  12  20  40  68  92 130 180 212 264 324 370
#     4   9  19  36  52 102 123 145 198 252 314 363
#
# _framework density 27.854413999999998
#
# number of rings (size 3 to 8) (size 9 to 14) (size 15 to 20)
#    0.706    0.941    1.176    5.647    0.000    1.882 
#    0.000    0.000    0.000   24.706    6.118    0.000 
#    0.000    0.000    0.000    0.000    0.000    0.000 
#
# Total GULP energy -94758.319359 kJ/mol
# GULP energy per Si atom -5574.018786 kJ/mol
# Density = 2.779102 g / cm^3
# Si number density = 27.854414 Si / 1000 Ang^3
#
#
#
# Elastic Constant Matrix: (Units=GPa)
#
#
# Indices 1 2 3 4 5 6 
#
# 1 -8.4921 36.6675 41.4625 0.0000 0.0000 0.0000
# 2 36.6675 181.9159 78.6805 0.0000 0.0000 0.0000
# 3 41.4625 78.6805 245.3460 0.0000 0.0000 0.0000
# 4 0.0000 0.0000 0.0000 -8.7190 0.0000 0.0000
# 5 0.0000 0.0000 0.0000 0.0000 40.5584 0.0000
# 6 0.0000 0.0000 0.0000 0.0000 0.0000 28.1589
#
#
#
# Elastic Compliance Matrix: (Units=1/GPa)
#
#
# Indices 1 2 3 4 5 6 
#
# 1 -0.052673 0.007857 0.006382 0.000000 0.000000 0.000000
# 2 0.007857 0.005210 -0.002999 0.000000 0.000000 0.000000
# 3 0.006382 -0.002999 0.003959 0.000000 0.000000 0.000000
# 4 0.000000 0.000000 0.000000 -0.114693 0.000000 0.000000
# 5 0.000000 0.000000 0.000000 0.000000 0.024656 0.000000
# 6 0.000000 0.000000 0.000000 0.000000 0.000000 0.035513
#
#
# Mechanical properties :
#
#
# Convention : Reuss Voigt Hill
#
# Bulk Modulus (GPa) = -47.56538 81.37675 16.90568
# Shear Modulus (GPa) = -39.21099 29.46362 -4.87368
#
# Velocity S-wave (km/s) = -3.75602 3.25587 -1.32420
# Velocity P-wave (km/s) = 5.99364 6.58883 1.93507
#
# Compressibility (1/GPa) = -0.02102370
#
# Stress axis : x y z
#
# Youngs Moduli (GPa) = -18.98508 191.92395 252.58877
#
# Poissons Ratio (x) = -1.50788 -1.61201
# Poissons Ratio (y) = 0.14916 0.75743
# Poissons Ratio (z) = 0.12116 0.57552
#
# Static dielectric constant tensor:
#      x y z
#    x 2.818310 0.000000 0.000000 
#    y 0.000000 2.374810 0.000000 
#    z 0.000000 0.000000 2.072970 
# 
# From -- ./inp_files/23590.got.cif
#   From: 2010.05.17/outbox.cif.g08.bks.cpg/sg21_12_cif.got.tgz:23590.got - 2010.06.03 23:14:55.
