data_PCOD9323342
_publ_section_title
;
Structure prediction by ZEFSAII (Michael W. Deem and Ramdas Pophale) SiO2 
 PCOD9323342
Probable space group: C 2 2 2
;
_chemical_formula_sum "Si O2"
_cell_formula_units_Z 58
_cell_length_a 12.624155
_cell_length_b 30.508825
_cell_length_c 7.899540
_cell_angle_alpha 90.000000
_cell_angle_beta 90.000000
_cell_angle_gamma 90.000000
_cell_volume 3042.493104
_symmetry_space_group_name_H-M "C 2 2 2"
_symmetry_group_IT_number 21
_symmetry_cell_setting 'orthorhombic'
loop_
_space_group_symop_operation_xyz
x,y,z
-x,-y,z
x,-y,-z
-x,y,-z
1/2+x,1/2+y,z
1/2-x,1/2-y,z
1/2+x,1/2-y,-z
1/2-x,1/2+y,-z
loop_
_atom_site_type_symbol
_atom_site_label
_atom_site_fract_x
_atom_site_fract_y
_atom_site_fract_z
Si Si1 0.992020 0.787614 0.305029
Si Si2 0.701021 0.294609 0.112606
Si Si3 0.091179 0.132791 0.120601
Si Si4 0.192475 0.624882 0.725253
Si Si5 0.000000 0.500000 0.000000
Si Si6 0.364949 0.153964 0.651588
Si Si7 0.487924 0.065937 0.700887
Si Si8 0.443182 0.201247 0.180099
O O1 0.105010 0.776749 0.226280
O O2 0.000000 0.781869 0.500000
O O3 0.964827 0.837598 0.262538
O O4 0.914586 0.750310 0.233274
O O5 0.750000 0.250000 0.040166
O O6 0.780839 0.321821 0.230865
O O7 0.643468 0.329508 0.994423
O O8 0.192116 0.109766 0.209353
O O9 0.000000 0.111168 0.000000
O O10 0.184210 0.645107 0.534758
O O11 0.151040 0.666439 0.832994
O O12 0.103626 0.587040 0.740610
O O13 0.045246 0.466587 0.853950
O O14 0.403905 0.105543 0.704681
O O15 0.473302 0.181700 0.682014
O O16 0.500000 0.051413 0.500000
O O17 0.500000 0.202195 0.000000
#
# Coordination Sequence:
#
# PCOD9323342 Si02
#       8
#     8   8   8   8   2   8   8   8
#     4  11  22  35  46  68 102 141 192 253 296 334
#     4  11  21  33  50  72 105 146 197 247 295 335
#     4  10  23  36  50  74 101 144 197 255 290 345
#     4  10  21  36  55  76 109 155 193 238 298 356
#     4  12  22  36  68  98 126 164 174 232 320 362
#     4  10  20  36  54  80 111 156 195 238 292 360
#     4   9  22  39  60  94 130 153 194 239 290 381
#     4  11  20  30  48  72 105 140 197 245 291 342
#
# _framework density 19.063314999999999
#
# number of rings (size 3 to 8) (size 9 to 14) (size 15 to 20)
#    0.000    1.655    1.379    5.172    7.724    0.000 
#    0.000    0.000    0.000    0.000    0.000    0.483 
#    0.000    0.000    4.966    0.000    0.000    0.000 
#
# Total GULP energy -161450.625692 kJ/mol
# GULP energy per Si atom -5567.262955 kJ/mol
# Density = 1.901993 g / cm^3
# Si number density = 19.063315 Si / 1000 Ang^3
#
#
#
# Elastic Constant Matrix: (Units=GPa)
#
#
# Indices 1 2 3 4 5 6 
#
# 1 83.2618 2.0174 21.1839 0.0000 0.0000 0.0000
# 2 2.0174 46.4766 13.0003 0.0000 0.0000 0.0000
# 3 21.1839 13.0003 100.0390 0.0000 0.0000 0.0000
# 4 0.0000 0.0000 0.0000 22.0580 0.0000 0.0000
# 5 0.0000 0.0000 0.0000 0.0000 30.6592 0.0000
# 6 0.0000 0.0000 0.0000 0.0000 0.0000 -34.3206
#
#
#
# Elastic Compliance Matrix: (Units=1/GPa)
#
#
# Indices 1 2 3 4 5 6 
#
# 1 0.012696 0.000208 -0.002716 0.000000 0.000000 0.000000
# 2 0.000208 0.022331 -0.002946 0.000000 0.000000 0.000000
# 3 -0.002716 -0.002946 0.010954 0.000000 0.000000 0.000000
# 4 0.000000 0.000000 0.000000 0.045335 0.000000 0.000000
# 5 0.000000 0.000000 0.000000 0.000000 0.032617 0.000000
# 6 0.000000 0.000000 0.000000 0.000000 0.000000 -0.029137
#
#
# Mechanical properties :
#
#
# Convention : Reuss Voigt Hill
#
# Bulk Modulus (GPa) = 28.51041 33.57564 31.04303
# Shear Modulus (GPa) = 42.59149 16.58435 29.58792
#
# Velocity S-wave (km/s) = 4.73187 2.95271 3.94393
# Velocity P-wave (km/s) = 6.69644 5.41069 6.08761
#
# Compressibility (1/GPa) = 0.03507491
#
# Stress axis : x y z
#
# Youngs Moduli (GPa) = 78.76387 44.78033 91.29081
#
# Poissons Ratio (x) = -0.00934 0.24791
# Poissons Ratio (y) = -0.01642 0.26896
# Poissons Ratio (z) = 0.21389 0.13193
#
# Static dielectric constant tensor:
#      x y z
#    x 1.723970 0.000000 0.000000 
#    y 0.000000 1.659060 0.000000 
#    z 0.000000 0.000000 1.733240 
# 
# From -- ./inp_files/13648.got.cif
#   From: 2010.05.17/outbox.cif.g08.bks.cpg/sg21_7_cif.got.tgz:13648.got - 2010.06.03 23:14:55.
