data_PCOD9323238
_publ_section_title
;
Structure prediction by ZEFSAII (Michael W. Deem and Ramdas Pophale) SiO2 
 PCOD9323238
Probable space group: C 2 2 2
;
_chemical_formula_sum "Si O2"
_cell_formula_units_Z 48
_cell_length_a 28.787376
_cell_length_b 9.138820
_cell_length_c 8.040434
_cell_angle_alpha 90.000000
_cell_angle_beta 90.000000
_cell_angle_gamma 90.000000
_cell_volume 2115.298664
_symmetry_space_group_name_H-M "C 2 2 2"
_symmetry_group_IT_number 21
_symmetry_cell_setting 'orthorhombic'
loop_
_space_group_symop_operation_xyz
x,y,z
-x,-y,z
x,-y,-z
-x,y,-z
1/2+x,1/2+y,z
1/2-x,1/2-y,z
1/2+x,1/2-y,-z
1/2-x,1/2+y,-z
loop_
_atom_site_type_symbol
_atom_site_label
_atom_site_fract_x
_atom_site_fract_y
_atom_site_fract_z
Si Si1 0.646948 0.548587 0.309468
Si Si2 0.299588 0.200745 0.191905
Si Si3 0.454527 0.425991 0.315297
Si Si4 0.355353 0.042877 0.692574
Si Si5 0.699057 0.707597 0.809071
Si Si6 0.953594 0.570742 0.314036
O O1 0.648381 0.500000 0.500000
O O2 0.660467 0.717125 0.293685
O O3 0.595139 0.531633 0.238711
O O4 0.686794 0.461517 0.212581
O O5 0.250000 0.250000 0.259521
O O6 0.312313 0.032806 0.212879
O O7 0.302141 0.247918 0.001174
O O8 0.500000 0.500000 0.235634
O O9 0.452716 0.500000 0.500000
O O10 0.457220 0.248059 0.323394
O O11 0.404877 0.986830 0.760928
O O12 0.352455 0.000000 0.500000
O O13 0.343904 0.212327 0.717422
O O14 0.750000 0.750000 0.741666
O O15 0.952122 0.500000 0.500000
O O16 0.000000 0.500000 0.235521
#
# Coordination Sequence:
#
# PCOD9323238 Si02
#       6
#     8   8   8   8   8   8
#     4  11  23  38  63  95 123 154 207 259 306 352
#     4  11  23  43  62  85 124 166 207 247 304 383
#     4  10  20  34  59  91 125 160 197 249 310 368
#     4  11  23  38  63  95 123 154 207 259 306 352
#     4  11  25  41  62  87 120 172 209 245 310 371
#     4  10  20  34  59  91 125 160 197 249 310 368
#
# _framework density 22.691832000000002
#
# number of rings (size 3 to 8) (size 9 to 14) (size 15 to 20)
#    0.000    1.333    1.667    5.000    9.333    6.667 
#    0.000    0.000    0.000    6.000    0.000    0.000 
#    0.000    0.000    0.000    0.000    0.000    0.000 
#
# Total GULP energy -134013.512516 kJ/mol
# GULP energy per Si atom -5583.896355 kJ/mol
# Density = 2.264018 g / cm^3
# Si number density = 22.691832 Si / 1000 Ang^3
#
#
#
# Elastic Constant Matrix: (Units=GPa)
#
#
# Indices 1 2 3 4 5 6 
#
# 1 169.2163 37.2405 7.4962 0.0000 0.0000 0.0000
# 2 37.2405 114.7109 2.4710 0.0000 0.0000 0.0000
# 3 7.4962 2.4710 36.8582 0.0000 0.0000 0.0000
# 4 0.0000 0.0000 0.0000 32.7682 0.0000 0.0000
# 5 0.0000 0.0000 0.0000 0.0000 42.5263 0.0000
# 6 0.0000 0.0000 0.0000 0.0000 0.0000 42.1940
#
#
#
# Elastic Compliance Matrix: (Units=1/GPa)
#
#
# Indices 1 2 3 4 5 6 
#
# 1 0.006414 -0.002057 -0.001167 0.000000 0.000000 0.000000
# 2 -0.002057 0.009390 -0.000211 0.000000 0.000000 0.000000
# 3 -0.001167 -0.000211 0.027382 0.000000 0.000000 0.000000
# 4 0.000000 0.000000 0.000000 0.030517 0.000000 0.000000
# 5 0.000000 0.000000 0.000000 0.000000 0.023515 0.000000
# 6 0.000000 0.000000 0.000000 0.000000 0.000000 0.023700
#
#
# Mechanical properties :
#
#
# Convention : Reuss Voigt Hill
#
# Bulk Modulus (GPa) = 27.53555 46.13343 36.83449
# Shear Modulus (GPa) = 35.74136 41.73621 38.73879
#
# Velocity S-wave (km/s) = 3.97303 4.29331 4.13627
# Velocity P-wave (km/s) = 5.76260 6.70457 6.25135
#
# Compressibility (1/GPa) = 0.03631668
#
# Stress axis : x y z
#
# Youngs Moduli (GPa) = 155.90880 106.49664 36.51981
#
# Poissons Ratio (x) = 0.21908 0.04260
# Poissons Ratio (y) = 0.32073 0.00771
# Poissons Ratio (z) = 0.18188 0.02248
#
# Static dielectric constant tensor:
#      x y z
#    x 1.908750 0.000000 0.000000 
#    y 0.000000 1.769770 0.000000 
#    z 0.000000 0.000000 1.822260 
# 
# From -- ./inp_files/11481.got.cif
#   From: 2010.05.17/outbox.cif.g08.bks.cpg/sg21_6_cif.got.tgz:11481.got - 2010.06.03 23:14:55.
