data_PCOD9323246
_publ_section_title
;
Structure prediction by ZEFSAII (Michael W. Deem and Ramdas Pophale) SiO2 
 PCOD9323246
Probable space group: C 2 2 2
;
_chemical_formula_sum "Si O2"
_cell_formula_units_Z 24
_cell_length_a 25.792067
_cell_length_b 5.037626
_cell_length_c 9.067828
_cell_angle_alpha 90.000000
_cell_angle_beta 90.000000
_cell_angle_gamma 90.000000
_cell_volume 1178.190031
_symmetry_space_group_name_H-M "C 2 2 2"
_symmetry_group_IT_number 21
_symmetry_cell_setting 'orthorhombic'
loop_
_space_group_symop_operation_xyz
x,y,z
-x,-y,z
x,-y,-z
-x,y,-z
1/2+x,1/2+y,z
1/2-x,1/2-y,z
1/2+x,1/2-y,-z
1/2-x,1/2+y,-z
loop_
_atom_site_type_symbol
_atom_site_label
_atom_site_fract_x
_atom_site_fract_y
_atom_site_fract_z
Si Si1 0.500000 0.500000 0.000000
Si Si2 0.638491 0.896341 0.170587
Si Si3 0.250000 0.750000 0.894575
Si Si4 0.000000 0.000000 0.500000
Si Si5 0.074569 0.133296 0.753594
O O1 0.536187 0.326506 0.107174
O O2 0.698072 0.816676 0.193838
O O3 0.601374 0.650026 0.210932
O O4 0.618702 0.148785 0.258934
O O5 0.635696 0.000000 0.000000
O O6 0.262486 0.500000 0.000000
O O7 0.038424 0.851117 0.389110
#
# Coordination Sequence:
#
# PCOD9323246 Si02
#       5
#     2   8   4   2   8
#     4  10  20  36  56  88 112 164 200 260 280 366
#     4  11  20  37  62  95 120 160 198 261 308 367
#     4  10  20  34  60  96 134 150 196 258 328 366
#     4  10  28  44  56  92 124 180 204 256 300 366
#     4  11  23  38  62  85 130 159 212 245 311 359
#
# _framework density 20.370225000000001
#
# number of rings (size 3 to 8) (size 9 to 14) (size 15 to 20)
#    0.000    1.333    3.333    4.000    0.000    9.333 
#    0.000    0.000    0.000    4.000    0.000    2.333 
#    0.000    0.000    0.000    0.000    0.000    0.000 
#
# Total GULP energy -66999.746970 kJ/mol
# GULP energy per Si atom -5583.312248 kJ/mol
# Density = 2.032386 g / cm^3
# Si number density = 20.370225 Si / 1000 Ang^3
#
#
#
# Elastic Constant Matrix: (Units=GPa)
#
#
# Indices 1 2 3 4 5 6 
#
# 1 132.5981 37.7874 55.6553 0.0000 0.0000 0.0000
# 2 37.7874 116.2684 19.2863 0.0000 0.0000 0.0000
# 3 55.6553 19.2863 88.9665 0.0000 0.0000 0.0000
# 4 0.0000 0.0000 0.0000 6.8097 0.0000 0.0000
# 5 0.0000 0.0000 0.0000 0.0000 2.3040 0.0000
# 6 0.0000 0.0000 0.0000 0.0000 0.0000 -48.9915
#
#
#
# Elastic Compliance Matrix: (Units=1/GPa)
#
#
# Indices 1 2 3 4 5 6 
#
# 1 0.010884 -0.002498 -0.006267 0.000000 0.000000 0.000000
# 2 -0.002498 0.009495 -0.000496 0.000000 0.000000 0.000000
# 3 -0.006267 -0.000496 0.015268 0.000000 0.000000 0.000000
# 4 0.000000 0.000000 0.000000 0.146849 0.000000 0.000000
# 5 0.000000 0.000000 0.000000 0.000000 0.434034 0.000000
# 6 0.000000 0.000000 0.000000 0.000000 0.000000 -0.020412
#
#
# Mechanical properties :
#
#
# Convention : Reuss Voigt Hill
#
# Bulk Modulus (GPa) = 58.39244 62.58791 60.49017
# Shear Modulus (GPa) = 8.06000 7.03137 7.54568
#
# Velocity S-wave (km/s) = 1.99132 1.85991 1.92674
# Velocity P-wave (km/s) = 5.83223 5.95015 5.89149
#
# Compressibility (1/GPa) = 0.01712550
#
# Stress axis : x y z
#
# Youngs Moduli (GPa) = 91.87857 105.32091 65.49511
#
# Poissons Ratio (x) = 0.26306 0.41048
# Poissons Ratio (y) = 0.22948 0.03247
# Poissons Ratio (z) = 0.57583 0.05222
#
# Static dielectric constant tensor:
#      x y z
#    x 1.792030 0.000000 0.000000 
#    y 0.000000 1.754060 0.000000 
#    z 0.000000 0.000000 1.773260 
# 
# From -- ./inp_files/8674.got.cif
#   From: 2010.05.17/outbox.cif.g08.bks.cpg/sg21_5_cif.got.tgz:8674.got - 2010.06.03 23:14:55.
