data_PCOD9323626
_publ_section_title
;
Structure prediction by ZEFSAII (Michael W. Deem and Ramdas Pophale) SiO2 
 PCOD9323626
Probable space group: C 2 2 2
;
_chemical_formula_sum "Si O2"
_cell_formula_units_Z 40
_cell_length_a 14.726325
_cell_length_b 14.667138
_cell_length_c 7.293217
_cell_angle_alpha 90.000000
_cell_angle_beta 90.000000
_cell_angle_gamma 90.000000
_cell_volume 1575.284119
_symmetry_space_group_name_H-M "C 2 2 2"
_symmetry_group_IT_number 21
_symmetry_cell_setting 'orthorhombic'
loop_
_space_group_symop_operation_xyz
x,y,z
-x,-y,z
x,-y,-z
-x,y,-z
1/2+x,1/2+y,z
1/2-x,1/2-y,z
1/2+x,1/2-y,-z
1/2-x,1/2+y,-z
loop_
_atom_site_type_symbol
_atom_site_label
_atom_site_fract_x
_atom_site_fract_y
_atom_site_fract_z
Si Si1 0.530584 0.300667 0.689506
Si Si2 0.896725 0.019329 0.716208
Si Si3 0.206426 0.475041 0.794020
Si Si4 0.592146 0.176383 0.096646
Si Si5 0.321531 0.824488 0.709095
O O1 0.500000 0.344543 0.500000
O O2 0.604560 0.372720 0.764443
O O3 0.447556 0.269343 0.815411
O O4 0.581921 0.208492 0.635203
O O5 0.885993 0.000000 0.500000
O O6 0.814884 0.961675 0.800902
O O7 0.000000 0.000000 0.774103
O O8 0.143500 0.387979 0.757445
O O9 0.196536 0.568767 0.679103
O O10 0.175950 0.500000 0.000000
O O11 0.500000 0.135962 0.000000
O O12 0.661848 0.189962 0.928819
O O13 0.250000 0.750000 0.638886
#
# Coordination Sequence:
#
# PCOD9323626 Si02
#       5
#     8   8   8   8   8
#     4  11  22  41  62  91 125 175 208 269 326 390
#     4  11  23  42  61  87 133 173 219 265 328 388
#     4  10  22  41  66  97 127 169 215 273 331 392
#     4   9  22  41  66  96 131 165 219 272 331 394
#     4  10  20  39  64  92 128 161 211 268 326 385
#
# _framework density 25.392244000000002
#
# number of rings (size 3 to 8) (size 9 to 14) (size 15 to 20)
#    0.000    1.800    4.000    0.000    0.000   14.400 
#    3.600    1.000    0.000    0.000    0.000    0.000 
#    0.000    0.000    0.000    0.000    0.000    0.000 
#
# Total GULP energy -111490.507438 kJ/mol
# GULP energy per Si atom -5574.525372 kJ/mol
# Density = 2.533445 g / cm^3
# Si number density = 25.392244 Si / 1000 Ang^3
#
#
#
# Elastic Constant Matrix: (Units=GPa)
#
#
# Indices 1 2 3 4 5 6 
#
# 1 111.0589 55.0681 1.7134 0.0000 0.0000 0.0000
# 2 55.0681 127.2166 18.2471 0.0000 0.0000 0.0000
# 3 1.7134 18.2471 50.8484 0.0000 0.0000 0.0000
# 4 0.0000 0.0000 0.0000 22.3749 0.0000 0.0000
# 5 0.0000 0.0000 0.0000 0.0000 32.7047 0.0000
# 6 0.0000 0.0000 0.0000 0.0000 0.0000 59.8292
#
#
#
# Elastic Compliance Matrix: (Units=1/GPa)
#
#
# Indices 1 2 3 4 5 6 
#
# 1 0.011570 -0.005221 0.001484 0.000000 0.000000 0.000000
# 2 -0.005221 0.010643 -0.003643 0.000000 0.000000 0.000000
# 3 0.001484 -0.003643 0.020924 0.000000 0.000000 0.000000
# 4 0.000000 0.000000 0.000000 0.044693 0.000000 0.000000
# 5 0.000000 0.000000 0.000000 0.000000 0.030577 0.000000
# 6 0.000000 0.000000 0.000000 0.000000 0.000000 0.016714
#
#
# Mechanical properties :
#
#
# Convention : Reuss Voigt Hill
#
# Bulk Modulus (GPa) = 35.24163 48.79791 42.01977
# Shear Modulus (GPa) = 31.37916 37.25477 34.31696
#
# Velocity S-wave (km/s) = 3.51918 3.83452 3.68023
# Velocity P-wave (km/s) = 5.51560 6.23411 5.88583
#
# Compressibility (1/GPa) = 0.02837553
#
# Stress axis : x y z
#
# Youngs Moduli (GPa) = 86.42841 93.95568 47.79256
#
# Poissons Ratio (x) = 0.49056 -0.07091
# Poissons Ratio (y) = 0.45126 0.17413
# Poissons Ratio (z) = -0.12824 0.34232
#
# Static dielectric constant tensor:
#      x y z
#    x 2.088590 0.000000 0.000000 
#    y 0.000000 2.182930 0.000000 
#    z 0.000000 0.000000 2.082600 
# 
# From -- ./inp_files/14489.got.cif
#   From: 2010.05.17/outbox.cif.g08.bks.cpg/sg21_8_cif.got.tgz:14489.got - 2010.06.03 23:14:55.
