data_PCOD9323225
_publ_section_title
;
Structure prediction by ZEFSAII (Michael W. Deem and Ramdas Pophale) SiO2 
 PCOD9323225
Probable space group: C 2 2 2
;
_chemical_formula_sum "Si O2"
_cell_formula_units_Z 42
_cell_length_a 10.531850
_cell_length_b 17.649320
_cell_length_c 12.445090
_cell_angle_alpha 90.000000
_cell_angle_beta 90.000000
_cell_angle_gamma 90.000000
_cell_volume 2313.293215
_symmetry_space_group_name_H-M "C 2 2 2"
_symmetry_group_IT_number 21
_symmetry_cell_setting 'orthorhombic'
loop_
_space_group_symop_operation_xyz
x,y,z
-x,-y,z
x,-y,-z
-x,y,-z
1/2+x,1/2+y,z
1/2-x,1/2-y,z
1/2+x,1/2-y,-z
1/2-x,1/2+y,-z
loop_
_atom_site_type_symbol
_atom_site_label
_atom_site_fract_x
_atom_site_fract_y
_atom_site_fract_z
Si Si1 0.605660 0.831473 0.915615
Si Si2 0.000000 0.333739 0.500000
Si Si3 0.648375 0.599671 0.674882
Si Si4 0.895115 0.851223 0.911980
Si Si5 0.073260 0.574256 0.292539
Si Si6 0.500000 0.500000 0.500000
Si Si7 0.750000 0.250000 0.439318
O O1 0.746837 0.861636 0.944276
O O2 0.599065 0.740430 0.905872
O O3 0.572814 0.864225 0.800314
O O4 0.500000 0.855935 0.000000
O O5 0.013747 0.387637 0.602559
O O6 0.129361 0.284085 0.496592
O O7 0.587313 0.612182 0.793173
O O8 0.779947 0.554633 0.687768
O O9 0.572375 0.556242 0.582457
O O10 0.692275 0.682573 0.633026
O O11 0.000000 0.875859 0.000000
O O12 0.000000 0.500000 0.259820
#
# Coordination Sequence:
#
# PCOD9323225 Si02
#       7
#     8   4   8   8   8   2   4
#     4   9  18  35  58  88 113 147 195 244 292 334
#     4  10  20  34  58  84 110 152 200 244 297 343
#     4  10  22  39  60  86 119 162 192 247 307 354
#     4   9  17  36  62  84 115 150 193 242 290 352
#     4  10  21  36  57  79 115 157 193 239 288 362
#     4  12  26  40  60  90 132 158 200 252 310 364
#     4  10  20  38  60  86 120 156 204 250 292 366
#
# _framework density 18.155933000000001
#
# number of rings (size 3 to 8) (size 9 to 14) (size 15 to 20)
#    0.000    2.286    0.000    4.286    5.333    0.381 
#    3.429    4.286    0.000    0.000    0.000    0.000 
#    0.000    0.000    0.000    0.000    0.000    0.000 
#
# Total GULP energy -117019.872099 kJ/mol
# GULP energy per Si atom -5572.374862 kJ/mol
# Density = 1.811461 g / cm^3
# Si number density = 18.155933 Si / 1000 Ang^3
#
#
#
# Elastic Constant Matrix: (Units=GPa)
#
#
# Indices 1 2 3 4 5 6 
#
# 1 91.3343 32.1073 86.3308 0.0000 0.0000 0.0000
# 2 32.1073 39.6138 20.8450 0.0000 0.0000 0.0000
# 3 86.3308 20.8450 138.4327 0.0000 0.0000 0.0000
# 4 0.0000 0.0000 0.0000 24.2027 0.0000 0.0000
# 5 0.0000 0.0000 0.0000 0.0000 39.0560 0.0000
# 6 0.0000 0.0000 0.0000 0.0000 0.0000 20.1570
#
#
#
# Elastic Compliance Matrix: (Units=1/GPa)
#
#
# Indices 1 2 3 4 5 6 
#
# 1 0.036382 -0.019059 -0.019819 0.000000 0.000000 0.000000
# 2 -0.019059 0.037400 0.006254 0.000000 0.000000 0.000000
# 3 -0.019819 0.006254 0.018642 0.000000 0.000000 0.000000
# 4 0.000000 0.000000 0.000000 0.041318 0.000000 0.000000
# 5 0.000000 0.000000 0.000000 0.000000 0.025604 0.000000
# 6 0.000000 0.000000 0.000000 0.000000 0.000000 0.049610
#
#
# Mechanical properties :
#
#
# Convention : Reuss Voigt Hill
#
# Bulk Modulus (GPa) = 36.79706 60.88299 48.84002
# Shear Modulus (GPa) = 17.65147 25.35635 21.50391
#
# Velocity S-wave (km/s) = 3.12142 3.74115 3.44525
# Velocity P-wave (km/s) = 5.77081 7.22965 6.54102
#
# Compressibility (1/GPa) = 0.02717609
#
# Stress axis : x y z
#
# Youngs Moduli (GPa) = 27.48617 26.73784 53.64316
#
# Poissons Ratio (x) = 0.50960 1.06315
# Poissons Ratio (y) = 0.52386 -0.33549
# Poissons Ratio (z) = 0.54475 -0.16722
#
# Static dielectric constant tensor:
#      x y z
#    x 1.649250 0.000000 0.000000 
#    y 0.000000 1.628770 0.000000 
#    z 0.000000 0.000000 1.460520 
# 
# From -- ./inp_files/23995.got.cif
#   From: 2010.05.17/outbox.cif.g08.bks.cpg/sg21_12_cif.got.tgz:23995.got - 2010.06.03 23:14:55.
