data_PCOD9323707
_publ_section_title
;
Structure prediction by ZEFSAII (Michael W. Deem and Ramdas Pophale) SiO2 
 PCOD9323707
Probable space group: C 2 2 2
;
_chemical_formula_sum "Si O2"
_cell_formula_units_Z 56
_cell_length_a 16.320026
_cell_length_b 11.958484
_cell_length_c 14.441453
_cell_angle_alpha 90.000000
_cell_angle_beta 90.000000
_cell_angle_gamma 90.000000
_cell_volume 2818.433967
_symmetry_space_group_name_H-M "C 2 2 2"
_symmetry_group_IT_number 21
_symmetry_cell_setting 'orthorhombic'
loop_
_space_group_symop_operation_xyz
x,y,z
-x,-y,z
x,-y,-z
-x,y,-z
1/2+x,1/2+y,z
1/2-x,1/2-y,z
1/2+x,1/2-y,-z
1/2-x,1/2+y,-z
loop_
_atom_site_type_symbol
_atom_site_label
_atom_site_fract_x
_atom_site_fract_y
_atom_site_fract_z
Si Si1 0.153440 0.254008 0.381625
Si Si2 0.095163 0.619353 0.461849
Si Si3 0.927088 0.908099 0.241250
Si Si4 0.967575 0.765490 0.895652
Si Si5 0.404030 0.015072 0.289007
Si Si6 0.359781 0.054262 0.900079
Si Si7 0.172424 0.053758 0.898726
O O1 0.250000 0.250000 0.363824
O O2 0.137048 0.274255 0.490984
O O3 0.108071 0.149997 0.333381
O O4 0.117392 0.368944 0.339067
O O5 0.127215 0.500000 0.500000
O O6 0.112604 0.595495 0.353400
O O7 0.000000 0.623886 0.500000
O O8 0.966068 0.810341 0.176997
O O9 0.854724 0.966125 0.181026
O O10 0.000000 0.000000 0.256227
O O11 0.931026 0.643261 0.882577
O O12 0.889910 0.845857 0.886816
O O13 0.000000 0.775539 0.000000
O O14 0.500000 0.000000 0.277805
O O15 0.363401 0.023943 0.189143
O O16 0.265867 0.095053 0.898651
O O17 0.373799 0.000000 0.000000
O O18 0.158025 0.000000 0.000000
#
# Coordination Sequence:
#
# PCOD9323707 Si02
#       7
#     8   8   8   8   8   8   8
#     4  11  22  38  67  99 121 155 210 272 318 372
#     4   9  17  38  66  88 112 159 212 249 300 383
#     4  10  22  39  65  88 123 171 219 253 307 385
#     4  11  22  37  59  83 120 171 219 250 300 383
#     4  11  21  39  66  90 129 168 210 252 318 396
#     4  11  26  36  56  95 135 156 200 275 322 352
#     4  10  20  41  58  80 121 176 213 246 306 382
#
# _framework density 19.86919
#
# number of rings (size 3 to 8) (size 9 to 14) (size 15 to 20)
#    0.000    1.571    4.286    2.143    4.000    0.000 
#    0.000    1.429    9.429    0.000    0.000    0.000 
#    0.000    0.000    0.000    0.000    0.000    0.000 
#
# Total GULP energy -155994.487460 kJ/mol
# GULP energy per Si atom -5571.231695 kJ/mol
# Density = 1.982397 g / cm^3
# Si number density = 19.869190 Si / 1000 Ang^3
#
#
#
# Elastic Constant Matrix: (Units=GPa)
#
#
# Indices 1 2 3 4 5 6 
#
# 1 72.7345 27.1243 17.8607 0.0000 0.0000 0.0000
# 2 27.1243 65.3143 31.4837 0.0000 0.0000 0.0000
# 3 17.8607 31.4837 104.3383 0.0000 0.0000 0.0000
# 4 0.0000 0.0000 0.0000 24.0879 0.0000 0.0000
# 5 0.0000 0.0000 0.0000 0.0000 62.1002 0.0000
# 6 0.0000 0.0000 0.0000 0.0000 0.0000 21.0444
#
#
#
# Elastic Compliance Matrix: (Units=1/GPa)
#
#
# Indices 1 2 3 4 5 6 
#
# 1 0.016336 -0.006362 -0.000877 0.000000 0.000000 0.000000
# 2 -0.006362 0.020394 -0.005065 0.000000 0.000000 0.000000
# 3 -0.000877 -0.005065 0.011263 0.000000 0.000000 0.000000
# 4 0.000000 0.000000 0.000000 0.041515 0.000000 0.000000
# 5 0.000000 0.000000 0.000000 0.000000 0.016103 0.000000
# 6 0.000000 0.000000 0.000000 0.000000 0.000000 0.047519
#
#
# Mechanical properties :
#
#
# Convention : Reuss Voigt Hill
#
# Bulk Modulus (GPa) = 42.76015 43.92494 43.34254
# Shear Modulus (GPa) = 26.94965 32.50771 29.72868
#
# Velocity S-wave (km/s) = 3.68687 4.04924 3.87230
# Velocity P-wave (km/s) = 6.30012 6.63452 6.46948
#
# Compressibility (1/GPa) = 0.02338626
#
# Stress axis : x y z
#
# Youngs Moduli (GPa) = 61.21319 49.03428 88.78952
#
# Poissons Ratio (x) = 0.31194 0.07786
# Poissons Ratio (y) = 0.38942 0.44970
# Poissons Ratio (z) = 0.05368 0.24835
#
# Static dielectric constant tensor:
#      x y z
#    x 1.730580 0.000000 0.000000 
#    y 0.000000 1.510860 0.000000 
#    z 0.000000 0.000000 1.782260 
# 
# From -- ./inp_files/32338.got.cif
#   From: 2010.05.17/outbox.cif.g08.bks.cpg/sg21_17_cif.got.tgz:32338.got - 2010.06.03 23:14:55.
