data_PCOD9323220
_publ_section_title
;
Structure prediction by ZEFSAII (Michael W. Deem and Ramdas Pophale) SiO2 
 PCOD9323220
Probable space group: C 2 2 2
;
_chemical_formula_sum "Si O2"
_cell_formula_units_Z 60
_cell_length_a 23.712752
_cell_length_b 11.535693
_cell_length_c 12.313844
_cell_angle_alpha 90.000000
_cell_angle_beta 90.000000
_cell_angle_gamma 90.000000
_cell_volume 3368.366165
_symmetry_space_group_name_H-M "C 2 2 2"
_symmetry_group_IT_number 21
_symmetry_cell_setting 'orthorhombic'
loop_
_space_group_symop_operation_xyz
x,y,z
-x,-y,z
x,-y,-z
-x,y,-z
1/2+x,1/2+y,z
1/2-x,1/2-y,z
1/2+x,1/2-y,-z
1/2-x,1/2+y,-z
loop_
_atom_site_type_symbol
_atom_site_label
_atom_site_fract_x
_atom_site_fract_y
_atom_site_fract_z
Si Si1 0.717379 0.372203 0.000000
Si Si2 0.129067 0.000000 0.628001
Si Si3 0.500000 0.500000 0.706969
Si Si4 0.812814 0.797985 0.233533
Si Si5 0.891931 0.633073 0.876132
Si Si6 0.000000 0.796653 0.879664
Si Si7 0.608069 0.133073 0.876132
Si Si8 0.312814 0.297985 0.766467
O O1 0.750000 0.250000 0.000000
O O2 0.686188 0.363549 0.115836
O O3 0.746261 0.500000 0.000000
O O4 0.686188 0.363549 0.884164
O O5 0.158307 0.113323 0.683014
O O6 0.139765 0.000000 0.500000
O O7 0.158307 0.886677 0.683014
O O8 0.060858 0.000000 0.646704
O O9 0.500000 0.389054 0.785258
O O10 0.750000 0.750000 0.258840
O O11 0.848620 0.682647 0.210457
O O12 0.906704 0.500000 0.857130
O O13 0.848620 0.682647 0.789543
O O14 0.945981 0.714593 0.871991
O O15 0.868996 0.641048 0.000000
O O16 0.054019 0.714593 0.871991
O O17 0.000000 0.851512 0.000000
O O18 0.250000 0.250000 0.741160
#
# Coordination Sequence:
#
# PCOD9323220 Si02
#       8
#     8   8   4   8   8   8   8   8
#     4  10  20  34  58  92 129 162 204 246 315 391
#     4  12  27  46  66  88 118 165 225 272 310 362
#     4  12  22  42  68  90 118 161 215 270 326 360
#     4  11  23  38  62  92 124 164 201 254 319 375
#     4  10  20  34  56  90 131 166 198 238 304 389
#     4  10  20  35  58  94 129 164 197 251 315 387
#     4  10  20  34  56  90 131 166 198 238 304 389
#     4  11  23  38  62  92 124 164 201 254 319 375
#
# _framework density 17.812791000000001
#
# number of rings (size 3 to 8) (size 9 to 14) (size 15 to 20)
#    0.000    1.333    5.333    0.800    1.867    3.200 
#    2.400    0.000    0.000    0.000    0.000    1.867 
#    0.000    0.000    0.000    0.000    0.000    0.000 
#
# Total GULP energy -167240.507047 kJ/mol
# GULP energy per Si atom -5574.683568 kJ/mol
# Density = 1.777225 g / cm^3
# Si number density = 17.812791 Si / 1000 Ang^3
#
#
#
# Elastic Constant Matrix: (Units=GPa)
#
#
# Indices 1 2 3 4 5 6 
#
# 1 95.2752 19.8070 38.3559 0.0000 0.0000 0.0000
# 2 19.8070 112.5351 46.9979 0.0000 0.0000 0.0000
# 3 38.3559 46.9979 121.9311 0.0000 0.0000 0.0000
# 4 0.0000 0.0000 0.0000 17.3312 0.0000 0.0000
# 5 0.0000 0.0000 0.0000 0.0000 13.8845 0.0000
# 6 0.0000 0.0000 0.0000 0.0000 0.0000 26.7049
#
#
#
# Elastic Compliance Matrix: (Units=1/GPa)
#
#
# Indices 1 2 3 4 5 6 
#
# 1 0.012057 -0.000641 -0.003545 0.000000 0.000000 0.000000
# 2 -0.000641 0.010625 -0.003894 0.000000 0.000000 0.000000
# 3 -0.003545 -0.003894 0.010817 0.000000 0.000000 0.000000
# 4 0.000000 0.000000 0.000000 0.057700 0.000000 0.000000
# 5 0.000000 0.000000 0.000000 0.000000 0.072023 0.000000
# 6 0.000000 0.000000 0.000000 0.000000 0.000000 0.037446
#
#
# Mechanical properties :
#
#
# Convention : Reuss Voigt Hill
#
# Bulk Modulus (GPa) = 57.67611 60.00701 58.84156
# Shear Modulus (GPa) = 22.46102 26.55615 24.50858
#
# Velocity S-wave (km/s) = 3.55484 3.86534 3.71333
# Velocity P-wave (km/s) = 7.02129 7.32679 7.17566
#
# Compressibility (1/GPa) = 0.01733820
#
# Stress axis : x y z
#
# Youngs Moduli (GPa) = 82.94237 94.11671 92.44342
#
# Poissons Ratio (x) = 0.06036 0.32775
# Poissons Ratio (y) = 0.05320 0.35994
# Poissons Ratio (z) = 0.29407 0.36646
#
# Static dielectric constant tensor:
#      x y z
#    x 1.685630 0.000000 0.000000 
#    y 0.000000 1.611940 0.000000 
#    z 0.000000 0.000000 1.598200 
# 
# From -- ./inp_files/26896.got.cif
#   From: 2010.05.17/outbox.cif.g08.bks.cpg/sg21_14_cif.got.tgz:26896.got - 2010.06.03 23:14:55.
