data_PCOD9323415
_publ_section_title
;
Structure prediction by ZEFSAII (Michael W. Deem and Ramdas Pophale) SiO2 
 PCOD9323415
Probable space group: C 2 2 2
;
_chemical_formula_sum "Si O2"
_cell_formula_units_Z 48
_cell_length_a 5.433985
_cell_length_b 27.202249
_cell_length_c 16.025399
_cell_angle_alpha 90.000000
_cell_angle_beta 90.000000
_cell_angle_gamma 90.000000
_cell_volume 2368.820203
_symmetry_space_group_name_H-M "C 2 2 2"
_symmetry_group_IT_number 21
_symmetry_cell_setting 'orthorhombic'
loop_
_space_group_symop_operation_xyz
x,y,z
-x,-y,z
x,-y,-z
-x,y,-z
1/2+x,1/2+y,z
1/2-x,1/2-y,z
1/2+x,1/2-y,-z
1/2-x,1/2+y,-z
loop_
_atom_site_type_symbol
_atom_site_label
_atom_site_fract_x
_atom_site_fract_y
_atom_site_fract_z
Si Si1 0.500000 0.000000 0.830730
Si Si2 0.570937 0.093580 0.287130
Si Si3 0.256543 0.943335 0.464483
Si Si4 0.118716 0.797657 0.088430
Si Si5 0.500000 0.869989 0.000000
Si Si6 0.056450 0.868711 0.777064
Si Si7 0.359248 0.557515 0.914360
O O1 0.475331 0.048277 0.775556
O O2 0.736140 0.006639 0.889063
O O3 0.687159 0.064062 0.367208
O O4 0.302165 0.121660 0.279340
O O5 0.791123 0.131959 0.268223
O O6 0.500000 0.918013 0.500000
O O7 0.000000 0.923021 0.500000
O O8 0.256680 0.000000 0.500000
O O9 0.250000 0.750000 0.125474
O O10 0.940719 0.823788 0.155856
O O11 0.314648 0.837549 0.054927
O O12 0.000000 0.781580 0.000000
O O13 0.362721 0.904924 0.935596
O O14 0.022221 0.917136 0.834708
O O15 0.500000 0.557893 0.000000
#
# Coordination Sequence:
#
# PCOD9323415 Si02
#       7
#     4   8   8   8   4   8   8
#     4  10  24  39  49  76 106 158 220 258 307 374
#     4  11  24  41  59  85 122 165 199 252 326 375
#     4  10  20  36  63  89 119 154 203 261 298 361
#     4  12  23  36  63  88 113 160 222 281 332 394
#     4  12  20  41  52  76 110 146 212 275 342 358
#     4  11  23  42  58  79 124 160 199 262 335 379
#     4  11  23  38  53  68 108 158 216 271 314 354
#
# _framework density 20.263252999999999
#
# number of rings (size 3 to 8) (size 9 to 14) (size 15 to 20)
#    0.000    1.000    4.167    4.000    0.000    7.000 
#    3.000    0.000    0.000    0.000    0.000    0.000 
#    0.000    4.000    0.000    0.667    0.000    0.333 
#
# Total GULP energy -133739.247022 kJ/mol
# GULP energy per Si atom -5572.468626 kJ/mol
# Density = 2.021713 g / cm^3
# Si number density = 20.263253 Si / 1000 Ang^3
#
#
#
# Elastic Constant Matrix: (Units=GPa)
#
#
# Indices 1 2 3 4 5 6 
#
# 1 140.6068 13.0761 38.2037 0.0000 0.0000 0.0000
# 2 13.0761 57.5058 11.2547 0.0000 0.0000 0.0000
# 3 38.2037 11.2547 87.8883 0.0000 0.0000 0.0000
# 4 0.0000 0.0000 0.0000 5.0313 0.0000 0.0000
# 5 0.0000 0.0000 0.0000 0.0000 34.1328 0.0000
# 6 0.0000 0.0000 0.0000 0.0000 0.0000 33.6282
#
#
#
# Elastic Compliance Matrix: (Units=1/GPa)
#
#
# Indices 1 2 3 4 5 6 
#
# 1 0.008143 -0.001189 -0.003387 0.000000 0.000000 0.000000
# 2 -0.001189 0.018010 -0.001790 0.000000 0.000000 0.000000
# 3 -0.003387 -0.001790 0.013080 0.000000 0.000000 0.000000
# 4 0.000000 0.000000 0.000000 0.198756 0.000000 0.000000
# 5 0.000000 0.000000 0.000000 0.000000 0.029297 0.000000
# 6 0.000000 0.000000 0.000000 0.000000 0.000000 0.029737
#
#
# Mechanical properties :
#
#
# Convention : Reuss Voigt Hill
#
# Bulk Modulus (GPa) = 37.73387 45.67444 41.70415
# Shear Modulus (GPa) = 15.69423 29.45623 22.57523
#
# Velocity S-wave (km/s) = 2.78603 3.81685 3.34143
# Velocity P-wave (km/s) = 5.38624 6.48181 5.95926
#
# Compressibility (1/GPa) = 0.02650139
#
# Stress axis : x y z
#
# Youngs Moduli (GPa) = 122.80562 55.52443 76.45433
#
# Poissons Ratio (x) = 0.06600 0.25898
# Poissons Ratio (y) = 0.14597 0.13683
# Poissons Ratio (z) = 0.41599 0.09937
#
# Static dielectric constant tensor:
#      x y z
#    x 1.907570 0.000000 0.000000 
#    y 0.000000 1.729460 0.000000 
#    z 0.000000 0.000000 1.880610 
# 
# From -- ./inp_files/29412.got.cif
#   From: 2010.05.17/outbox.cif.g08.bks.cpg/sg21_15_cif.got.tgz:29412.got - 2010.06.03 23:14:55.
