data_PCOD9323699
_publ_section_title
;
Structure prediction by ZEFSAII (Michael W. Deem and Ramdas Pophale) SiO2 
 PCOD9323699
Probable space group: C 2 2 2
;
_chemical_formula_sum "Si O2"
_cell_formula_units_Z 28
_cell_length_a 10.321714
_cell_length_b 11.277256
_cell_length_c 10.976498
_cell_angle_alpha 90.000000
_cell_angle_beta 90.000000
_cell_angle_gamma 90.000000
_cell_volume 1277.671075
_symmetry_space_group_name_H-M "C 2 2 2"
_symmetry_group_IT_number 21
_symmetry_cell_setting 'orthorhombic'
loop_
_space_group_symop_operation_xyz
x,y,z
-x,-y,z
x,-y,-z
-x,y,-z
1/2+x,1/2+y,z
1/2-x,1/2-y,z
1/2+x,1/2-y,-z
1/2-x,1/2+y,-z
loop_
_atom_site_type_symbol
_atom_site_label
_atom_site_fract_x
_atom_site_fract_y
_atom_site_fract_z
Si Si1 0.834427 0.357348 0.693989
Si Si2 0.941611 0.272817 0.126265
Si Si3 0.349304 0.527040 0.143567
Si Si4 0.000000 0.500000 0.000000
Si Si5 0.000000 0.500000 0.500000
O O1 0.750000 0.250000 0.643514
O O2 0.743470 0.445126 0.773596
O O3 0.908792 0.424612 0.588302
O O4 0.942491 0.297375 0.780733
O O5 0.845197 0.169221 0.166890
O O6 0.914607 0.408811 0.080792
O O7 0.000000 0.221508 0.000000
O O8 0.500000 0.500000 0.174892
O O9 0.332055 0.500000 0.000000
#
# Coordination Sequence:
#
# PCOD9323699 Si02
#       5
#     8   8   8   2   2
#     4  12  26  48  74  99 146 192 246 317 356 423
#     4  10  20  40  70 111 152 178 228 281 367 462
#     4  11  20  41  73 117 148 182 226 283 375 464
#     4   8  18  36  58 106 162 186 208 278 326 454
#     4  12  34  52  64 106 128 194 288 298 352 420
#
# _framework density 21.914874000000001
#
# number of rings (size 3 to 8) (size 9 to 14) (size 15 to 20)
#    0.857    0.286    5.714    0.857    2.000    2.286 
#    0.000    7.143    0.000    0.000    0.000    0.000 
#    0.000    0.000    0.000    0.000    0.000    0.000 
#
# Total GULP energy -78131.287926 kJ/mol
# GULP energy per Si atom -5580.806280 kJ/mol
# Density = 2.186499 g / cm^3
# Si number density = 21.914874 Si / 1000 Ang^3
#
#
#
# Elastic Constant Matrix: (Units=GPa)
#
#
# Indices 1 2 3 4 5 6 
#
# 1 124.9620 114.9276 83.2447 0.0000 0.0000 0.0000
# 2 114.9276 232.7426 65.0721 0.0000 0.0000 0.0000
# 3 83.2447 65.0721 130.5175 0.0000 0.0000 0.0000
# 4 0.0000 0.0000 0.0000 -43.3426 0.0000 0.0000
# 5 0.0000 0.0000 0.0000 0.0000 21.4209 0.0000
# 6 0.0000 0.0000 0.0000 0.0000 0.0000 77.3924
#
#
#
# Elastic Compliance Matrix: (Units=1/GPa)
#
#
# Indices 1 2 3 4 5 6 
#
# 1 0.022246 -0.008155 -0.010123 0.000000 0.000000 0.000000
# 2 -0.008155 0.007982 0.001222 0.000000 0.000000 0.000000
# 3 -0.010123 0.001222 0.013509 0.000000 0.000000 0.000000
# 4 0.000000 0.000000 0.000000 -0.023072 0.000000 0.000000
# 5 0.000000 0.000000 0.000000 0.000000 0.046683 0.000000
# 6 0.000000 0.000000 0.000000 0.000000 0.000000 0.012921
#
#
# Mechanical properties :
#
#
# Convention : Reuss Voigt Hill
#
# Bulk Modulus (GPa) = 103.89646 112.74564 108.32105
# Shear Modulus (GPa) = 42.52111 26.09265 34.30688
#
# Velocity S-wave (km/s) = 4.40965 3.45430 3.96088
# Velocity P-wave (km/s) = 8.56964 8.21391 8.39366
#
# Compressibility (1/GPa) = 0.00962497
#
# Stress axis : x y z
#
# Youngs Moduli (GPa) = 44.95288 125.28556 74.02443
#
# Poissons Ratio (x) = 1.02165 0.74932
# Poissons Ratio (y) = 0.36657 -0.09043
# Poissons Ratio (z) = 0.45504 -0.15305
#
# Static dielectric constant tensor:
#      x y z
#    x 2.054680 0.000000 0.000000 
#    y 0.000000 1.917790 0.000000 
#    z 0.000000 0.000000 1.711380 
# 
# From -- ./inp_files/23391.got.cif
#   From: 2010.05.17/outbox.cif.g08.bks.cpg/sg21_12_cif.got.tgz:23391.got - 2010.06.03 23:14:55.
