data_PCOD9323143
_publ_section_title
;
Structure prediction by ZEFSAII (Michael W. Deem and Ramdas Pophale) SiO2 
 PCOD9323143
Probable space group: C 2 2 2
;
_chemical_formula_sum "Si O2"
_cell_formula_units_Z 40
_cell_length_a 24.435872
_cell_length_b 15.127801
_cell_length_c 5.260748
_cell_angle_alpha 90.000000
_cell_angle_beta 90.000000
_cell_angle_gamma 90.000000
_cell_volume 1944.693413
_symmetry_space_group_name_H-M "C 2 2 2"
_symmetry_group_IT_number 21
_symmetry_cell_setting 'orthorhombic'
loop_
_space_group_symop_operation_xyz
x,y,z
-x,-y,z
x,-y,-z
-x,y,-z
1/2+x,1/2+y,z
1/2-x,1/2-y,z
1/2+x,1/2-y,-z
1/2-x,1/2+y,-z
loop_
_atom_site_type_symbol
_atom_site_label
_atom_site_fract_x
_atom_site_fract_y
_atom_site_fract_z
Si Si1 0.867356 0.174244 0.117442
Si Si2 0.187009 0.769672 0.612331
Si Si3 0.475150 0.598710 0.248995
Si Si4 0.938316 0.354508 0.094887
Si Si5 0.383763 0.909109 0.592217
O O1 0.822842 0.185628 0.338721
O O2 0.910303 0.099717 0.210076
O O3 0.906061 0.261355 0.110843
O O4 0.840340 0.172846 0.839320
O O5 0.250000 0.750000 0.666539
O O6 0.155953 0.675519 0.593252
O O7 0.500000 0.500000 0.253633
O O8 0.500000 0.643524 0.500000
O O9 0.500000 0.642177 0.000000
O O10 0.930206 0.393771 0.376414
O O11 0.908350 0.410153 0.873773
O O12 0.000000 0.346027 0.000000
O O13 0.356111 0.000000 0.500000
#
# Coordination Sequence:
#
# PCOD9323143 Si02
#       5
#     8   8   8   8   8
#     4  10  20  35  57  84 111 147 196 234 282 357
#     4  10  21  38  60  81 106 147 200 251 289 334
#     4  10  20  34  56  83 118 162 187 232 300 360
#     4  10  20  32  51  82 110 144 178 212 270 341
#     4  10  21  35  53  77 110 143 178 226 284 339
#
# _framework density 20.568795000000001
#
# number of rings (size 3 to 8) (size 9 to 14) (size 15 to 20)
#    0.000    2.000    0.000    3.600    0.000    5.600 
#    0.000    0.000   13.200    0.000    0.000    0.000 
#    0.000    0.000    0.000    0.000    0.000    0.000 
#
# Total GULP energy -111520.256760 kJ/mol
# GULP energy per Si atom -5576.012838 kJ/mol
# Density = 2.052198 g / cm^3
# Si number density = 20.568795 Si / 1000 Ang^3
#
#
#
# Elastic Constant Matrix: (Units=GPa)
#
#
# Indices 1 2 3 4 5 6 
#
# 1 96.1176 8.7290 33.8118 0.0000 0.0000 0.0000
# 2 8.7290 51.2779 18.5710 0.0000 0.0000 0.0000
# 3 33.8118 18.5710 156.5446 0.0000 0.0000 0.0000
# 4 0.0000 0.0000 0.0000 -3.0130 0.0000 0.0000
# 5 0.0000 0.0000 0.0000 0.0000 29.6789 0.0000
# 6 0.0000 0.0000 0.0000 0.0000 0.0000 19.6063
#
#
#
# Elastic Compliance Matrix: (Units=1/GPa)
#
#
# Indices 1 2 3 4 5 6 
#
# 1 0.011317 -0.001088 -0.002315 0.000000 0.000000 0.000000
# 2 -0.001088 0.020482 -0.002195 0.000000 0.000000 0.000000
# 3 -0.002315 -0.002195 0.007148 0.000000 0.000000 0.000000
# 4 0.000000 0.000000 0.000000 -0.331899 0.000000 0.000000
# 5 0.000000 0.000000 0.000000 0.000000 0.033694 0.000000
# 6 0.000000 0.000000 0.000000 0.000000 0.000000 0.051004
#
#
# Mechanical properties :
#
#
# Convention : Reuss Voigt Hill
#
# Bulk Modulus (GPa) = 36.03460 47.35153 41.69307
# Shear Modulus (GPa) = -26.62301 25.44299 -0.59001
#
# Velocity S-wave (km/s) = -3.60160 3.52087 -0.53616
# Velocity P-wave (km/s) = 0.51163 6.29284 4.46439
#
# Compressibility (1/GPa) = 0.02775111
#
# Stress axis : x y z
#
# Youngs Moduli (GPa) = 88.36112 48.82417 139.89142
#
# Poissons Ratio (x) = 0.05312 0.32389
# Poissons Ratio (y) = 0.09614 0.30703
# Poissons Ratio (z) = 0.20458 0.10716
#
# Static dielectric constant tensor:
#      x y z
#    x 1.720200 0.000000 0.000000 
#    y 0.000000 1.736820 0.000000 
#    z 0.000000 0.000000 1.765050 
# 
# From -- ./inp_files/4798.got.cif
#   From: 2010.05.17/outbox.cif.g08.bks.cpg/sg21_3_cif.got.tgz:4798.got - 2010.06.03 23:14:55.
