data_PCOD9323003
_publ_section_title
;
Structure prediction by ZEFSAII (Michael W. Deem and Ramdas Pophale) SiO2 
 PCOD9323003
Probable space group: C 2 2 2
;
_chemical_formula_sum "Si O2"
_cell_formula_units_Z 60
_cell_length_a 20.568702
_cell_length_b 11.730234
_cell_length_c 11.872877
_cell_angle_alpha 90.000000
_cell_angle_beta 90.000000
_cell_angle_gamma 90.000000
_cell_volume 2864.636561
_symmetry_space_group_name_H-M "C 2 2 2"
_symmetry_group_IT_number 21
_symmetry_cell_setting 'orthorhombic'
loop_
_space_group_symop_operation_xyz
x,y,z
-x,-y,z
x,-y,-z
-x,y,-z
1/2+x,1/2+y,z
1/2-x,1/2-y,z
1/2+x,1/2-y,-z
1/2-x,1/2+y,-z
loop_
_atom_site_type_symbol
_atom_site_label
_atom_site_fract_x
_atom_site_fract_y
_atom_site_fract_z
Si Si1 0.674527 0.236650 0.066961
Si Si2 0.179604 0.305552 0.325955
Si Si3 0.677142 0.385656 0.293272
Si Si4 0.081579 0.904635 0.691945
Si Si5 0.000000 0.803423 0.500000
Si Si6 0.931610 0.876462 0.051709
Si Si7 0.132683 0.317968 0.564849
Si Si8 0.322733 0.960964 0.233619
O O1 0.750000 0.250000 0.031627
O O2 0.663681 0.317895 0.177001
O O3 0.666260 0.109720 0.118715
O O4 0.624498 0.285362 0.975969
O O5 0.250000 0.250000 0.317303
O O6 0.129733 0.202503 0.317875
O O7 0.166478 0.358680 0.449990
O O8 0.168935 0.403994 0.234101
O O9 0.624319 0.481766 0.319928
O O10 0.672977 0.292036 0.390997
O O11 0.748503 0.437347 0.274623
O O12 0.055894 0.898602 0.817906
O O13 0.026894 0.881120 0.600426
O O14 0.940072 0.725467 0.540681
O O15 0.000000 0.838961 0.000000
O O16 0.912793 0.000000 0.000000
O O17 0.133825 0.406004 0.667620
#
# Coordination Sequence:
#
# PCOD9323003 Si02
#       8
#     8   8   8   8   4   8   8   8
#     4   9  20  40  64  98 131 170 222 278 348 413
#     4  11  21  37  59  93 126 169 222 279 333 396
#     4  10  19  37  62  94 127 165 213 283 348 406
#     4  11  24  41  63  94 137 171 223 274 342 408
#     4  10  26  41  57  98 136 186 215 279 332 412
#     4  11  24  41  70 100 134 178 222 283 342 410
#     4  10  22  36  59  86 130 175 225 265 339 406
#     4  10  20  38  64  90 130 172 219 283 341 405
#
# _framework density 20.945065
#
# number of rings (size 3 to 8) (size 9 to 14) (size 15 to 20)
#    0.000    1.733    2.667    2.400    3.733    3.733 
#    0.000    6.000    0.000    0.800    0.000    0.000 
#    0.000    0.000    0.000    0.000    0.000    0.000 
#
# Total GULP energy -167716.266470 kJ/mol
# GULP energy per Si atom -5590.542216 kJ/mol
# Density = 2.089739 g / cm^3
# Si number density = 20.945065 Si / 1000 Ang^3
#
#
#
# Elastic Constant Matrix: (Units=GPa)
#
#
# Indices 1 2 3 4 5 6 
#
# 1 95.4315 50.1612 39.6867 0.0000 0.0000 0.0000
# 2 50.1612 101.1453 20.8897 0.0000 0.0000 0.0000
# 3 39.6867 20.8897 89.1733 0.0000 0.0000 0.0000
# 4 0.0000 0.0000 0.0000 -41.0083 0.0000 0.0000
# 5 0.0000 0.0000 0.0000 0.0000 17.1098 0.0000
# 6 0.0000 0.0000 0.0000 0.0000 0.0000 19.1697
#
#
#
# Elastic Compliance Matrix: (Units=1/GPa)
#
#
# Indices 1 2 3 4 5 6 
#
# 1 0.016551 -0.007027 -0.005720 0.000000 0.000000 0.000000
# 2 -0.007027 0.013373 -0.000005 0.000000 0.000000 0.000000
# 3 -0.005720 -0.000005 0.013761 0.000000 0.000000 0.000000
# 4 0.000000 0.000000 0.000000 -0.024385 0.000000 0.000000
# 5 0.000000 0.000000 0.000000 0.000000 0.058446 0.000000
# 6 0.000000 0.000000 0.000000 0.000000 0.000000 0.052166
#
#
# Mechanical properties :
#
#
# Convention : Reuss Voigt Hill
#
# Bulk Modulus (GPa) = 55.00418 56.35837 55.68128
# Shear Modulus (GPa) = 30.96452 10.72175 20.84313
#
# Velocity S-wave (km/s) = 3.84913 2.26497 3.15800
# Velocity P-wave (km/s) = 6.78768 5.81431 6.31976
#
# Compressibility (1/GPa) = 0.01818044
#
# Stress axis : x y z
#
# Youngs Moduli (GPa) = 60.41978 74.77939 72.66895
#
# Poissons Ratio (x) = 0.52546 0.41566
# Poissons Ratio (y) = 0.42456 0.00039
# Poissons Ratio (z) = 0.34560 0.00040
#
# Static dielectric constant tensor:
#      x y z
#    x 1.762500 0.000000 0.000000 
#    y 0.000000 1.793460 0.000000 
#    z 0.000000 0.000000 1.774920 
# 
# From -- ./inp_files/26881.got.cif
#   From: 2010.05.17/outbox.cif.g08.bks.cpg/sg21_14_cif.got.tgz:26881.got - 2010.06.03 23:14:55.
