data_PCOD9323074
_publ_section_title
;
Structure prediction by ZEFSAII (Michael W. Deem and Ramdas Pophale) SiO2 
 PCOD9323074
Probable space group: C 2 2 2
;
_chemical_formula_sum "Si O2"
_cell_formula_units_Z 40
_cell_length_a 22.483169
_cell_length_b 9.017487
_cell_length_c 10.749275
_cell_angle_alpha 90.000000
_cell_angle_beta 90.000000
_cell_angle_gamma 90.000000
_cell_volume 2179.326117
_symmetry_space_group_name_H-M "C 2 2 2"
_symmetry_group_IT_number 21
_symmetry_cell_setting 'orthorhombic'
loop_
_space_group_symop_operation_xyz
x,y,z
-x,-y,z
x,-y,-z
-x,y,-z
1/2+x,1/2+y,z
1/2-x,1/2-y,z
1/2+x,1/2-y,-z
1/2-x,1/2+y,-z
loop_
_atom_site_type_symbol
_atom_site_label
_atom_site_fract_x
_atom_site_fract_y
_atom_site_fract_z
Si Si1 0.286240 0.474628 0.739059
Si Si2 0.568405 0.004778 0.217625
Si Si3 0.169771 0.672965 0.349629
Si Si4 0.431778 0.231489 0.013708
Si Si5 0.157498 0.000000 0.000000
Si Si6 0.250000 0.250000 0.424528
O O1 0.221325 0.400089 0.734508
O O2 0.331515 0.347633 0.687929
O O3 0.280543 0.620813 0.655026
O O4 0.303490 0.513434 0.877548
O O5 0.612098 0.074281 0.320866
O O6 0.500000 0.000000 0.261115
O O7 0.579583 0.847440 0.147770
O O8 0.573202 0.115103 0.099328
O O9 0.199636 0.677442 0.486333
O O10 0.384722 0.358355 0.992326
O O11 0.500000 0.285089 0.000000
#
# Coordination Sequence:
#
# PCOD9323074 Si02
#       6
#     8   8   8   8   4   4
#     4  10  23  35  56  89 118 160 196 245 314 362
#     4   9  18  35  59  86 114 162 206 247 303 359
#     4  10  19  40  57  81 123 157 202 252 291 366
#     4   9  19  34  53  83 124 162 196 248 313 364
#     4  12  21  34  54  92 123 150 200 258 300 372
#     4  10  22  40  60  84 124 166 198 238 318 372
#
# _framework density 18.354298
#
# number of rings (size 3 to 8) (size 9 to 14) (size 15 to 20)
#    0.000    2.400    2.000    3.900    2.800    3.200 
#    0.000    0.000    0.000    2.400    0.000    0.000 
#    0.000    0.000    0.000    0.000    0.000    0.000 
#
# Total GULP energy -111438.184324 kJ/mol
# GULP energy per Si atom -5571.909216 kJ/mol
# Density = 1.831252 g / cm^3
# Si number density = 18.354298 Si / 1000 Ang^3
#
#
#
# Elastic Constant Matrix: (Units=GPa)
#
#
# Indices 1 2 3 4 5 6 
#
# 1 101.9707 61.3775 62.8168 0.0000 0.0000 0.0000
# 2 61.3775 76.5142 48.7870 0.0000 0.0000 0.0000
# 3 62.8168 48.7870 120.2535 0.0000 0.0000 0.0000
# 4 0.0000 0.0000 0.0000 16.9745 0.0000 0.0000
# 5 0.0000 0.0000 0.0000 0.0000 9.9387 0.0000
# 6 0.0000 0.0000 0.0000 0.0000 0.0000 28.2711
#
#
#
# Elastic Compliance Matrix: (Units=1/GPa)
#
#
# Indices 1 2 3 4 5 6 
#
# 1 0.021531 -0.013625 -0.005720 0.000000 0.000000 0.000000
# 2 -0.013625 0.026252 -0.003533 0.000000 0.000000 0.000000
# 3 -0.005720 -0.003533 0.012737 0.000000 0.000000 0.000000
# 4 0.000000 0.000000 0.000000 0.058912 0.000000 0.000000
# 5 0.000000 0.000000 0.000000 0.000000 0.100616 0.000000
# 6 0.000000 0.000000 0.000000 0.000000 0.000000 0.035372
#
#
# Mechanical properties :
#
#
# Convention : Reuss Voigt Hill
#
# Bulk Modulus (GPa) = 67.72934 71.63343 69.68139
# Shear Modulus (GPa) = 16.33474 19.42069 17.87772
#
# Velocity S-wave (km/s) = 2.98647 3.25637 3.12434
# Velocity P-wave (km/s) = 6.99094 7.29736 7.14579
#
# Compressibility (1/GPa) = 0.01476465
#
# Stress axis : x y z
#
# Youngs Moduli (GPa) = 46.44466 38.09293 78.51170
#
# Poissons Ratio (x) = 0.51900 0.44906
# Poissons Ratio (y) = 0.63279 0.27740
# Poissons Ratio (z) = 0.26565 0.13459
#
# Static dielectric constant tensor:
#      x y z
#    x 1.626850 0.000000 0.000000 
#    y 0.000000 1.644400 0.000000 
#    z 0.000000 0.000000 1.638780 
# 
# From -- ./inp_files/26700.got.cif
#   From: 2010.05.17/outbox.cif.g08.bks.cpg/sg21_14_cif.got.tgz:26700.got - 2010.06.03 23:14:55.
