data_PCOD9323119
_publ_section_title
;
Structure prediction by ZEFSAII (Michael W. Deem and Ramdas Pophale) SiO2 
 PCOD9323119
Probable space group: C 2 2 2
;
_chemical_formula_sum "Si O2"
_cell_formula_units_Z 40
_cell_length_a 21.086337
_cell_length_b 11.126652
_cell_length_c 8.793628
_cell_angle_alpha 90.000000
_cell_angle_beta 90.000000
_cell_angle_gamma 90.000000
_cell_volume 2063.163936
_symmetry_space_group_name_H-M "C 2 2 2"
_symmetry_group_IT_number 21
_symmetry_cell_setting 'orthorhombic'
loop_
_space_group_symop_operation_xyz
x,y,z
-x,-y,z
x,-y,-z
-x,y,-z
1/2+x,1/2+y,z
1/2-x,1/2-y,z
1/2+x,1/2-y,-z
1/2-x,1/2+y,-z
loop_
_atom_site_type_symbol
_atom_site_label
_atom_site_fract_x
_atom_site_fract_y
_atom_site_fract_z
Si Si1 0.428124 0.148455 0.320185
Si Si2 0.702379 0.853104 0.760446
Si Si3 0.760900 0.000000 0.500000
Si Si4 0.430446 0.864908 0.312955
Si Si5 0.275538 0.500000 0.000000
Si Si6 0.685813 0.673029 0.258602
O O1 0.499895 0.181590 0.270931
O O2 0.425450 0.149923 0.504552
O O3 0.373416 0.236327 0.261810
O O4 0.423454 0.007484 0.276952
O O5 0.750000 0.750000 0.713984
O O6 0.713923 0.951277 0.629734
O O7 0.630812 0.807900 0.764751
O O8 0.729241 0.908059 0.914100
O O9 0.804117 0.900366 0.416557
O O10 0.315393 0.574445 0.876005
O O11 0.750000 0.750000 0.239659
#
# Coordination Sequence:
#
# PCOD9323119 Si02
#       6
#     8   8   4   8   4   8
#     4   9  17  31  55  85 116 140 167 229 289 325
#     4  11  20  34  55  79 109 143 180 230 272 318
#     4  10  20  30  54  90 112 140 190 224 272 344
#     4   9  17  30  54  89 112 132 178 226 281 339
#     4  10  24  36  52  80 112 150 196 224 270 340
#     4  11  20  35  57  82 116 152 185 233 281 327
#
# _framework density 19.387698
#
# number of rings (size 3 to 8) (size 9 to 14) (size 15 to 20)
#    0.000    2.000    0.000    8.400    0.000    0.000 
#    0.000    0.000    0.000   37.200    0.000    5.600 
#    0.000    0.000    0.000    0.000    0.000    0.000 
#
# Total GULP energy -111601.346836 kJ/mol
# GULP energy per Si atom -5580.067342 kJ/mol
# Density = 1.934357 g / cm^3
# Si number density = 19.387698 Si / 1000 Ang^3
#
#
#
# Elastic Constant Matrix: (Units=GPa)
#
#
# Indices 1 2 3 4 5 6 
#
# 1 191.2245 56.1234 21.1708 0.0000 0.0000 0.0000
# 2 56.1234 58.9458 16.7235 0.0000 0.0000 0.0000
# 3 21.1708 16.7235 54.0837 0.0000 0.0000 0.0000
# 4 0.0000 0.0000 0.0000 19.5592 0.0000 0.0000
# 5 0.0000 0.0000 0.0000 0.0000 8.6509 0.0000
# 6 0.0000 0.0000 0.0000 0.0000 0.0000 37.9147
#
#
#
# Elastic Compliance Matrix: (Units=1/GPa)
#
#
# Indices 1 2 3 4 5 6 
#
# 1 0.007287 -0.006718 -0.000775 0.000000 0.000000 0.000000
# 2 -0.006718 0.024790 -0.005036 0.000000 0.000000 0.000000
# 3 -0.000775 -0.005036 0.020350 0.000000 0.000000 0.000000
# 4 0.000000 0.000000 0.000000 0.051127 0.000000 0.000000
# 5 0.000000 0.000000 0.000000 0.000000 0.115595 0.000000
# 6 0.000000 0.000000 0.000000 0.000000 0.000000 0.026375
#
#
# Mechanical properties :
#
#
# Convention : Reuss Voigt Hill
#
# Bulk Modulus (GPa) = 36.53705 54.69881 45.61793
# Shear Modulus (GPa) = 17.87600 27.24073 22.55837
#
# Velocity S-wave (km/s) = 3.03979 3.75247 3.41477
# Velocity P-wave (km/s) = 5.58630 6.85924 6.25523
#
# Compressibility (1/GPa) = 0.02736948
#
# Stress axis : x y z
#
# Youngs Moduli (GPa) = 137.23027 40.33903 49.13926
#
# Poissons Ratio (x) = 0.27101 0.03809
# Poissons Ratio (y) = 0.92194 0.24744
# Poissons Ratio (z) = 0.10637 0.20313
#
# Static dielectric constant tensor:
#      x y z
#    x 1.709800 0.000000 0.000000 
#    y 0.000000 1.645170 0.000000 
#    z 0.000000 0.000000 1.683570 
# 
# From -- ./inp_files/13105.got.cif
#   From: 2010.05.17/outbox.cif.g08.bks.cpg/sg21_7_cif.got.tgz:13105.got - 2010.06.03 23:14:55.
