data_PCOD9323154
_publ_section_title
;
Structure prediction by ZEFSAII (Michael W. Deem and Ramdas Pophale) SiO2 
 PCOD9323154
Probable space group: C 2 2 2
;
_chemical_formula_sum "Si O2"
_cell_formula_units_Z 60
_cell_length_a 12.418580
_cell_length_b 19.250638
_cell_length_c 11.497409
_cell_angle_alpha 90.000000
_cell_angle_beta 90.000000
_cell_angle_gamma 90.000000
_cell_volume 2748.634844
_symmetry_space_group_name_H-M "C 2 2 2"
_symmetry_group_IT_number 21
_symmetry_cell_setting 'orthorhombic'
loop_
_space_group_symop_operation_xyz
x,y,z
-x,-y,z
x,-y,-z
-x,y,-z
1/2+x,1/2+y,z
1/2-x,1/2-y,z
1/2+x,1/2-y,-z
1/2-x,1/2+y,-z
loop_
_atom_site_type_symbol
_atom_site_label
_atom_site_fract_x
_atom_site_fract_y
_atom_site_fract_z
Si Si1 0.660540 0.189279 0.178352
Si Si2 0.990039 0.299855 0.637429
Si Si3 0.532487 0.419299 0.369562
Si Si4 0.607893 0.320594 0.781443
Si Si5 0.309308 0.890207 0.706693
Si Si6 0.384136 0.963420 0.250752
Si Si7 0.500000 0.252282 0.000000
Si Si8 0.744574 0.925086 0.546205
O O1 0.750000 0.250000 0.163797
O O2 0.604581 0.208646 0.301431
O O3 0.661531 0.104062 0.181965
O O4 0.578732 0.205540 0.075103
O O5 0.913719 0.238954 0.685708
O O6 0.932283 0.366121 0.696323
O O7 0.000000 0.302019 0.500000
O O8 0.500000 0.500000 0.362453
O O9 0.500000 0.395282 0.500000
O O10 0.465918 0.381947 0.269621
O O11 0.660036 0.402274 0.367983
O O12 0.731479 0.343360 0.782915
O O13 0.565768 0.296944 0.906112
O O14 0.269400 0.883228 0.572441
O O15 0.305425 0.969209 0.750555
O O16 0.366485 0.938380 0.385614
O O17 0.500000 0.000000 0.224202
O O18 0.783153 0.000000 0.500000
#
# Coordination Sequence:
#
# PCOD9323154 Si02
#       8
#     8   8   8   8   8   8   4   8
#     4  11  26  50  77 102 140 196 248 307 382 450
#     4  11  24  40  66 107 151 192 237 297 361 461
#     4  11  18  36  64 103 143 185 233 296 372 454
#     4  11  24  44  68  97 140 193 256 305 373 440
#     4  11  22  38  67 107 146 194 231 301 365 449
#     4  11  23  42  70 105 150 187 236 295 363 456
#     4  10  28  52  76  92 134 198 252 324 372 420
#     4  10  20  32  61 103 148 191 217 271 366 446
#
# _framework density 21.829018999999999
#
# number of rings (size 3 to 8) (size 9 to 14) (size 15 to 20)
#    0.000    1.200    4.000    2.400    3.733    5.067 
#    0.000    0.667    0.000    0.000    0.000    0.000 
#    0.000    0.000    0.000    0.000    0.000    0.000 
#
# Total GULP energy -167278.356297 kJ/mol
# GULP energy per Si atom -5575.945210 kJ/mol
# Density = 2.177934 g / cm^3
# Si number density = 21.829019 Si / 1000 Ang^3
#
#
#
# Elastic Constant Matrix: (Units=GPa)
#
#
# Indices 1 2 3 4 5 6 
#
# 1 94.7957 37.7293 17.3486 0.0000 0.0000 0.0000
# 2 37.7293 124.2019 45.2127 0.0000 0.0000 0.0000
# 3 17.3486 45.2127 94.3084 0.0000 0.0000 0.0000
# 4 0.0000 0.0000 0.0000 13.7118 0.0000 0.0000
# 5 0.0000 0.0000 0.0000 0.0000 14.1768 0.0000
# 6 0.0000 0.0000 0.0000 0.0000 0.0000 28.2680
#
#
#
# Elastic Compliance Matrix: (Units=1/GPa)
#
#
# Indices 1 2 3 4 5 6 
#
# 1 0.012024 -0.003449 -0.000558 0.000000 0.000000 0.000000
# 2 -0.003449 0.010743 -0.004516 0.000000 0.000000 0.000000
# 3 -0.000558 -0.004516 0.012871 0.000000 0.000000 0.000000
# 4 0.000000 0.000000 0.000000 0.072930 0.000000 0.000000
# 5 0.000000 0.000000 0.000000 0.000000 0.070538 0.000000
# 6 0.000000 0.000000 0.000000 0.000000 0.000000 0.035376
#
#
# Mechanical properties :
#
#
# Convention : Reuss Voigt Hill
#
# Bulk Modulus (GPa) = 53.78830 57.09857 55.44344
# Shear Modulus (GPa) = 21.03262 25.43233 23.23247
#
# Velocity S-wave (km/s) = 3.10742 3.41701 3.26589
# Velocity P-wave (km/s) = 6.12936 6.46390 6.29885
#
# Compressibility (1/GPa) = 0.01859140
#
# Stress axis : x y z
#
# Youngs Moduli (GPa) = 83.16674 93.08272 77.69311
#
# Poissons Ratio (x) = 0.32108 0.04337
# Poissons Ratio (y) = 0.28687 0.35085
# Poissons Ratio (z) = 0.04642 0.42035
#
# Static dielectric constant tensor:
#      x y z
#    x 1.907370 0.000000 0.000000 
#    y 0.000000 1.918350 0.000000 
#    z 0.000000 0.000000 1.760180 
# 
# From -- ./inp_files/24289.got.cif
#   From: 2010.05.17/outbox.cif.g08.bks.cpg/sg21_13_cif.got.tgz:24289.got - 2010.06.03 23:14:55.
