data_PCOD9323837
_publ_section_title
;
Structure prediction by ZEFSAII (Michael W. Deem and Ramdas Pophale) SiO2 
 PCOD9323837
Probable space group: C 2 2 2
;
_chemical_formula_sum "Si O2"
_cell_formula_units_Z 64
_cell_length_a 9.179443
_cell_length_b 22.644538
_cell_length_c 15.114063
_cell_angle_alpha 90.000000
_cell_angle_beta 90.000000
_cell_angle_gamma 90.000000
_cell_volume 3141.673307
_symmetry_space_group_name_H-M "C 2 2 2"
_symmetry_group_IT_number 21
_symmetry_cell_setting 'orthorhombic'
loop_
_space_group_symop_operation_xyz
x,y,z
-x,-y,z
x,-y,-z
-x,y,-z
1/2+x,1/2+y,z
1/2-x,1/2-y,z
1/2+x,1/2-y,-z
1/2-x,1/2+y,-z
loop_
_atom_site_type_symbol
_atom_site_label
_atom_site_fract_x
_atom_site_fract_y
_atom_site_fract_z
Si Si1 0.963202 0.804533 0.597129
Si Si2 0.161215 0.974401 0.093915
Si Si3 0.937316 0.144788 0.153395
Si Si4 0.919826 0.261854 0.917648
Si Si5 0.334521 0.382426 0.303848
Si Si6 0.773905 0.365968 0.315587
Si Si7 0.675576 0.996195 0.724958
Si Si8 0.062280 0.303619 0.280605
O O1 0.051507 0.864534 0.620553
O O2 0.000000 0.782994 0.500000
O O3 0.797185 0.825614 0.608704
O O4 0.012675 0.755799 0.669050
O O5 0.130701 0.904592 0.090432
O O6 0.271524 0.988686 0.173065
O O7 0.000000 0.000000 0.114607
O O8 0.208341 0.000000 0.000000
O O9 0.813695 0.155393 0.227839
O O10 0.992279 0.201408 0.101675
O O11 0.073923 0.120913 0.211969
O O12 0.750000 0.250000 0.936421
O O13 0.931050 0.294896 0.824497
O O14 0.000000 0.292044 0.000000
O O15 0.253504 0.444700 0.310171
O O16 0.217003 0.329900 0.306681
O O17 0.763624 0.436660 0.321714
O O18 0.941122 0.351239 0.303901
O O19 0.500000 0.000000 0.718813
#
# Coordination Sequence:
#
# PCOD9323837 Si02
#       8
#     8   8   8   8   8   8   8   8
#     4  11  25  43  70 101 126 164 212 263 325 390
#     4  10  21  35  58  89 121 164 222 272 316 367
#     4  10  21  39  59  86 125 167 211 269 319 375
#     4  12  26  39  58  90 130 179 224 265 325 378
#     4  11  21  41  69  90 131 164 211 260 322 388
#     4  10  23  39  68  95 128 165 209 264 321 382
#     4  11  22  41  64  93 123 172 214 259 331 385
#     4  12  22  43  65  95 134 169 211 268 322 382
#
# _framework density 20.371309
#
# number of rings (size 3 to 8) (size 9 to 14) (size 15 to 20)
#    0.000    1.125    6.250    0.750    3.500    2.250 
#    0.000    1.250    0.000    0.750    0.000    0.000 
#    0.000    0.000    0.000    0.000    0.000    0.000 
#
# Total GULP energy -178690.880439 kJ/mol
# GULP energy per Si atom -5584.090014 kJ/mol
# Density = 2.032494 g / cm^3
# Si number density = 20.371309 Si / 1000 Ang^3
#
#
#
# Elastic Constant Matrix: (Units=GPa)
#
#
# Indices 1 2 3 4 5 6 
#
# 1 47.8794 -8.9822 4.5244 0.0000 0.0000 0.0000
# 2 -8.9822 59.3402 -7.2375 0.0000 0.0000 0.0000
# 3 4.5244 -7.2375 43.3268 0.0000 0.0000 0.0000
# 4 0.0000 0.0000 0.0000 9.1008 0.0000 0.0000
# 5 0.0000 0.0000 0.0000 0.0000 15.7011 0.0000
# 6 0.0000 0.0000 0.0000 0.0000 0.0000 34.7673
#
#
#
# Elastic Compliance Matrix: (Units=1/GPa)
#
#
# Indices 1 2 3 4 5 6 
#
# 1 0.021625 0.003060 -0.001747 0.000000 0.000000 0.000000
# 2 0.003060 0.017636 0.002626 0.000000 0.000000 0.000000
# 3 -0.001747 0.002626 0.023702 0.000000 0.000000 0.000000
# 4 0.000000 0.000000 0.000000 0.109880 0.000000 0.000000
# 5 0.000000 0.000000 0.000000 0.000000 0.063690 0.000000
# 6 0.000000 0.000000 0.000000 0.000000 0.000000 0.028763
#
#
# Mechanical properties :
#
#
# Convention : Reuss Voigt Hill
#
# Bulk Modulus (GPa) = 14.11605 14.12842 14.12223
# Shear Modulus (GPa) = 17.79173 22.72995 20.26084
#
# Velocity S-wave (km/s) = 2.95849 3.34396 3.15711
# Velocity P-wave (km/s) = 4.31447 4.67546 4.49859
#
# Compressibility (1/GPa) = 0.07084134
#
# Stress axis : x y z
#
# Youngs Moduli (GPa) = 46.24275 56.70369 42.19130
#
# Poissons Ratio (x) = -0.17353 0.07371
# Poissons Ratio (y) = -0.14151 -0.11081
# Poissons Ratio (z) = 0.08079 -0.14892
#
# Static dielectric constant tensor:
#      x y z
#    x 1.718770 0.000000 0.000000 
#    y 0.000000 1.752110 0.000000 
#    z 0.000000 0.000000 1.735460 
# 
# From -- ./inp_files/30923.got.cif
#   From: 2010.05.17/outbox.cif.g08.bks.cpg/sg21_16_cif.got.tgz:30923.got - 2010.06.03 23:14:55.
