data_PCOD9323871
_publ_section_title
;
Structure prediction by ZEFSAII (Michael W. Deem and Ramdas Pophale) SiO2 
 PCOD9323871
Probable space group: C 2 2 2
;
_chemical_formula_sum "Si O2"
_cell_formula_units_Z 40
_cell_length_a 9.934250
_cell_length_b 21.305417
_cell_length_c 8.863677
_cell_angle_alpha 90.000000
_cell_angle_beta 90.000000
_cell_angle_gamma 90.000000
_cell_volume 1876.026831
_symmetry_space_group_name_H-M "C 2 2 2"
_symmetry_group_IT_number 21
_symmetry_cell_setting 'orthorhombic'
loop_
_space_group_symop_operation_xyz
x,y,z
-x,-y,z
x,-y,-z
-x,y,-z
1/2+x,1/2+y,z
1/2-x,1/2-y,z
1/2+x,1/2-y,-z
1/2-x,1/2+y,-z
loop_
_atom_site_type_symbol
_atom_site_label
_atom_site_fract_x
_atom_site_fract_y
_atom_site_fract_z
Si Si1 0.911503 0.054848 0.844302
Si Si2 0.249450 0.817192 0.136332
Si Si3 0.637023 0.082830 0.909507
Si Si4 0.480174 0.180559 0.324226
Si Si5 0.525003 0.678059 0.322319
O O1 0.754692 0.034385 0.863161
O O2 0.900580 0.118675 0.748869
O O3 0.000000 0.000000 0.767633
O O4 0.000000 0.065455 0.000000
O O5 0.250000 0.750000 0.053646
O O6 0.371850 0.814712 0.252735
O O7 0.113850 0.824028 0.228913
O O8 0.280350 0.872115 0.022134
O O9 0.591624 0.125584 0.768235
O O10 0.500000 0.065332 0.000000
O O11 0.500000 0.167230 0.500000
O O12 0.418816 0.250861 0.305263
O O13 0.500000 0.669359 0.500000
#
# Coordination Sequence:
#
# PCOD9323871 Si02
#       5
#     8   8   8   8   8
#     4  11  24  41  62  88 119 161 218 264 307 368
#     4   9  18  33  52  88 126 156 203 250 308 387
#     4  10  21  38  63  89 125 161 203 263 317 370
#     4   9  20  34  57  93 126 162 202 246 322 387
#     4  10  21  36  59  88 129 170 202 255 314 381
#
# _framework density 21.321656000000001
#
# number of rings (size 3 to 8) (size 9 to 14) (size 15 to 20)
#    0.000    2.200    2.000    0.000    5.600    1.200 
#    0.000    2.000    0.000    0.000    0.000    1.400 
#    0.000    0.000    0.000    0.000    0.000    0.000 
#
# Total GULP energy -111516.049329 kJ/mol
# GULP energy per Si atom -5575.802466 kJ/mol
# Density = 2.127313 g / cm^3
# Si number density = 21.321656 Si / 1000 Ang^3
#
#
#
# Elastic Constant Matrix: (Units=GPa)
#
#
# Indices 1 2 3 4 5 6 
#
# 1 141.2646 31.9223 12.8631 0.0000 0.0000 0.0000
# 2 31.9223 79.7747 35.0655 0.0000 0.0000 0.0000
# 3 12.8631 35.0655 95.4352 0.0000 0.0000 0.0000
# 4 0.0000 0.0000 0.0000 32.4022 0.0000 0.0000
# 5 0.0000 0.0000 0.0000 0.0000 2.4644 0.0000
# 6 0.0000 0.0000 0.0000 0.0000 0.0000 19.0740
#
#
#
# Elastic Compliance Matrix: (Units=1/GPa)
#
#
# Indices 1 2 3 4 5 6 
#
# 1 0.007784 -0.003165 0.000114 0.000000 0.000000 0.000000
# 2 -0.003165 0.016236 -0.005539 0.000000 0.000000 0.000000
# 3 0.000114 -0.005539 0.012498 0.000000 0.000000 0.000000
# 4 0.000000 0.000000 0.000000 0.030862 0.000000 0.000000
# 5 0.000000 0.000000 0.000000 0.000000 0.405778 0.000000
# 6 0.000000 0.000000 0.000000 0.000000 0.000000 0.052427
#
#
# Mechanical properties :
#
#
# Convention : Reuss Voigt Hill
#
# Bulk Modulus (GPa) = 51.71148 52.90846 52.30997
# Shear Modulus (GPa) = 9.10395 26.56302 17.83348
#
# Velocity S-wave (km/s) = 2.06859 3.53345 2.89520
# Velocity P-wave (km/s) = 5.47824 6.44324 5.98024
#
# Compressibility (1/GPa) = 0.01933806
#
# Stress axis : x y z
#
# Youngs Moduli (GPa) = 128.47359 61.58991 80.01130
#
# Poissons Ratio (x) = 0.19491 -0.00909
# Poissons Ratio (y) = 0.40657 0.44320
# Poissons Ratio (z) = -0.01460 0.34116
#
# Static dielectric constant tensor:
#      x y z
#    x 1.808050 0.000000 0.000000 
#    y 0.000000 1.864600 0.000000 
#    z 0.000000 0.000000 1.753550 
# 
# From -- ./inp_files/10927.got.cif
#   From: 2010.05.17/outbox.cif.g08.bks.cpg/sg21_6_cif.got.tgz:10927.got - 2010.06.03 23:14:55.
