data_PCOD9323576
_publ_section_title
;
Structure prediction by ZEFSAII (Michael W. Deem and Ramdas Pophale) SiO2 
 PCOD9323576
Probable space group: C 2 2 2
;
_chemical_formula_sum "Si O2"
_cell_formula_units_Z 38
_cell_length_a 17.977129
_cell_length_b 14.204395
_cell_length_c 5.737218
_cell_angle_alpha 90.000000
_cell_angle_beta 90.000000
_cell_angle_gamma 90.000000
_cell_volume 1465.022949
_symmetry_space_group_name_H-M "C 2 2 2"
_symmetry_group_IT_number 21
_symmetry_cell_setting 'orthorhombic'
loop_
_space_group_symop_operation_xyz
x,y,z
-x,-y,z
x,-y,-z
-x,y,-z
1/2+x,1/2+y,z
1/2-x,1/2-y,z
1/2+x,1/2-y,-z
1/2-x,1/2+y,-z
loop_
_atom_site_type_symbol
_atom_site_label
_atom_site_fract_x
_atom_site_fract_y
_atom_site_fract_z
Si Si1 0.500000 0.167464 0.500000
Si Si2 0.247259 0.000000 0.500000
Si Si3 0.117325 0.254395 0.856069
Si Si4 0.621906 0.418023 0.809413
Si Si5 0.000000 0.000000 0.500000
Si Si6 0.750000 0.750000 0.532612
Si Si7 0.354926 0.894924 0.756361
O O1 0.452664 0.228122 0.687912
O O2 0.563658 0.108758 0.637161
O O3 0.187119 0.070375 0.379750
O O4 0.309356 0.008943 0.291875
O O5 0.187286 0.214074 0.712784
O O6 0.109883 0.179316 0.061232
O O7 0.135924 0.352114 0.987323
O O8 0.548753 0.437427 0.666310
O O9 0.633723 0.500000 0.000000
O O10 0.697780 0.819062 0.381293
#
# Coordination Sequence:
#
# PCOD9323576 Si02
#       7
#     4   4   8   8   2   4   8
#     4  10  26  44  68 104 138 190 254 309 378 476
#     4  11  24  42  68 103 140 186 252 309 372 458
#     4  11  23  43  70 101 143 195 249 313 390 468
#     4  11  24  42  66  99 141 191 244 315 391 464
#     4  10  26  42  60  98 140 184 238 296 376 470
#     4  10  20  38  66  98 130 176 242 300 362 448
#     4  11  23  42  67  98 139 187 243 309 379 454
#
# _framework density 25.938161999999998
#
# number of rings (size 3 to 8) (size 9 to 14) (size 15 to 20)
#    0.000    1.263    0.000    5.368    0.000   12.211 
#    0.000    0.000    0.000    5.053    0.000    0.000 
#    0.000    0.000    0.000    0.000    0.000    0.000 
#
# Total GULP energy -106079.386413 kJ/mol
# GULP energy per Si atom -5583.125601 kJ/mol
# Density = 2.587913 g / cm^3
# Si number density = 25.938162 Si / 1000 Ang^3
#
#
#
# Elastic Constant Matrix: (Units=GPa)
#
#
# Indices 1 2 3 4 5 6 
#
# 1 233.2352 57.0200 92.8326 0.0000 0.0000 0.0000
# 2 57.0200 77.2481 83.7941 0.0000 0.0000 0.0000
# 3 92.8326 83.7941 168.9393 0.0000 0.0000 0.0000
# 4 0.0000 0.0000 0.0000 57.7863 0.0000 0.0000
# 5 0.0000 0.0000 0.0000 0.0000 -15.3759 0.0000
# 6 0.0000 0.0000 0.0000 0.0000 0.0000 -5.9819
#
#
#
# Elastic Compliance Matrix: (Units=1/GPa)
#
#
# Indices 1 2 3 4 5 6 
#
# 1 0.005591 -0.001720 -0.002220 0.000000 0.000000 0.000000
# 2 -0.001720 0.028551 -0.013216 0.000000 0.000000 0.000000
# 3 -0.002220 -0.013216 0.013694 0.000000 0.000000 0.000000
# 4 0.000000 0.000000 0.000000 0.017305 0.000000 0.000000
# 5 0.000000 0.000000 0.000000 0.000000 -0.065037 0.000000
# 6 0.000000 0.000000 0.000000 0.000000 0.000000 -0.167172
#
#
# Mechanical properties :
#
#
# Convention : Reuss Voigt Hill
#
# Bulk Modulus (GPa) = 73.93417 105.19068 89.56242
# Shear Modulus (GPa) = -38.98717 23.67077 -7.65820
#
# Velocity S-wave (km/s) = -3.88117 3.02418 -1.72014
# Velocity P-wave (km/s) = 2.91227 7.26888 5.53705
#
# Compressibility (1/GPa) = 0.01352555
#
# Stress axis : x y z
#
# Youngs Moduli (GPa) = 178.84820 35.02508 73.02308
#
# Poissons Ratio (x) = 0.06023 0.16208
# Poissons Ratio (y) = 0.30754 0.96510
# Poissons Ratio (z) = 0.39696 0.46291
#
# Static dielectric constant tensor:
#      x y z
#    x 1.972400 0.000000 0.000000 
#    y 0.000000 2.500480 0.000000 
#    z 0.000000 0.000000 3.963980 
# 
# From -- ./inp_files/4895.got.cif
#   From: 2010.05.17/outbox.cif.g08.bks.cpg/sg21_3_cif.got.tgz:4895.got - 2010.06.03 23:14:55.
