data_PCOD9323646
_publ_section_title
;
Structure prediction by ZEFSAII (Michael W. Deem and Ramdas Pophale) SiO2 
 PCOD9323646
Probable space group: C 2 2 2
;
_chemical_formula_sum "Si O2"
_cell_formula_units_Z 40
_cell_length_a 15.105744
_cell_length_b 15.259604
_cell_length_c 7.469298
_cell_angle_alpha 90.000000
_cell_angle_beta 90.000000
_cell_angle_gamma 90.000000
_cell_volume 1721.730490
_symmetry_space_group_name_H-M "C 2 2 2"
_symmetry_group_IT_number 21
_symmetry_cell_setting 'orthorhombic'
loop_
_space_group_symop_operation_xyz
x,y,z
-x,-y,z
x,-y,-z
-x,y,-z
1/2+x,1/2+y,z
1/2-x,1/2-y,z
1/2+x,1/2-y,-z
1/2-x,1/2+y,-z
loop_
_atom_site_type_symbol
_atom_site_label
_atom_site_fract_x
_atom_site_fract_y
_atom_site_fract_z
Si Si1 0.702321 0.659351 0.828892
Si Si2 0.031253 0.409597 0.204506
Si Si3 0.792467 0.482752 0.692687
Si Si4 0.181989 0.172678 0.259673
Si Si5 0.013234 0.779012 0.218230
O O1 0.750000 0.750000 0.775254
O O2 0.758967 0.572929 0.780629
O O3 0.602779 0.667191 0.749601
O O4 0.691627 0.662812 0.044124
O O5 0.137213 0.421011 0.203284
O O6 0.000000 0.500000 0.287491
O O7 0.985878 0.322632 0.279120
O O8 0.000000 0.409886 0.000000
O O9 0.833136 0.500000 0.500000
O O10 0.710258 0.419163 0.658698
O O11 0.250000 0.250000 0.315578
O O12 0.079396 0.189037 0.297429
O O13 0.000000 0.778346 0.000000
#
# Coordination Sequence:
#
# PCOD9323646 Si02
#       5
#     8   8   8   8   8
#     4  10  22  39  66  97 130 171 228 285 332 393
#     4  10  21  36  68  96 126 162 225 280 328 391
#     4  12  26  41  62  98 140 179 216 271 351 417
#     4  10  20  39  68  94 128 175 231 283 332 390
#     4   9  18  37  63  99 124 163 230 287 325 382
#
# _framework density 23.232441000000001
#
# number of rings (size 3 to 8) (size 9 to 14) (size 15 to 20)
#    0.000    1.800    2.000    1.800    8.400    2.000 
#    0.000    5.000    0.000    0.000    0.000    0.000 
#    0.000    0.000    0.000    0.000    0.000    0.000 
#
# Total GULP energy -111668.903985 kJ/mol
# GULP energy per Si atom -5583.445199 kJ/mol
# Density = 2.317956 g / cm^3
# Si number density = 23.232441 Si / 1000 Ang^3
#
#
#
# Elastic Constant Matrix: (Units=GPa)
#
#
# Indices 1 2 3 4 5 6 
#
# 1 119.0428 8.1832 12.4787 0.0000 0.0000 0.0000
# 2 8.1832 81.8456 0.0725 0.0000 0.0000 0.0000
# 3 12.4787 0.0725 62.0193 0.0000 0.0000 0.0000
# 4 0.0000 0.0000 0.0000 1100.9700 0.0000 0.0000
# 5 0.0000 0.0000 0.0000 0.0000 18.6564 0.0000
# 6 0.0000 0.0000 0.0000 0.0000 0.0000 96.9423
#
#
#
# Elastic Compliance Matrix: (Units=1/GPa)
#
#
# Indices 1 2 3 4 5 6 
#
# 1 0.008642 -0.000862 -0.001738 0.000000 0.000000 0.000000
# 2 -0.000862 0.012304 0.000159 0.000000 0.000000 0.000000
# 3 -0.001738 0.000159 0.016473 0.000000 0.000000 0.000000
# 4 0.000000 0.000000 0.000000 0.000908 0.000000 0.000000
# 5 0.000000 0.000000 0.000000 0.000000 0.053601 0.000000
# 6 0.000000 0.000000 0.000000 0.000000 0.000000 0.010315
#
#
# Mechanical properties :
#
#
# Convention : Reuss Voigt Hill
#
# Bulk Modulus (GPa) = 30.73398 33.81959 32.27678
# Shear Modulus (GPa) = 42.38294 259.45864 150.92079
#
# Velocity S-wave (km/s) = 4.27582 10.57931 8.06860
# Velocity P-wave (km/s) = 6.13469 12.79913 10.03624
#
# Compressibility (1/GPa) = 0.03253728
#
# Stress axis : x y z
#
# Youngs Moduli (GPa) = 115.71676 81.27288 60.70366
#
# Poissons Ratio (x) = 0.07010 0.10549
# Poissons Ratio (y) = 0.09980 -0.00966
# Poissons Ratio (z) = 0.20109 -0.01294
#
# Static dielectric constant tensor:
#      x y z
#    x 1.867700 0.000000 0.000000 
#    y 0.000000 1.871970 0.000000 
#    z 0.000000 0.000000 1.964900 
# 
# From -- ./inp_files/14526.got.cif
#   From: 2010.05.17/outbox.cif.g08.bks.cpg/sg21_8_cif.got.tgz:14526.got - 2010.06.03 23:14:55.
