data_PCOD9323433
_publ_section_title
;
Structure prediction by ZEFSAII (Michael W. Deem and Ramdas Pophale) SiO2 
 PCOD9323433
Probable space group: C 2 2 2
;
_chemical_formula_sum "Si O2"
_cell_formula_units_Z 34
_cell_length_a 15.614881
_cell_length_b 17.223157
_cell_length_c 5.928559
_cell_angle_alpha 90.000000
_cell_angle_beta 90.000000
_cell_angle_gamma 90.000000
_cell_volume 1594.412115
_symmetry_space_group_name_H-M "C 2 2 2"
_symmetry_group_IT_number 21
_symmetry_cell_setting 'orthorhombic'
loop_
_space_group_symop_operation_xyz
x,y,z
-x,-y,z
x,-y,-z
-x,y,-z
1/2+x,1/2+y,z
1/2-x,1/2-y,z
1/2+x,1/2-y,-z
1/2-x,1/2+y,-z
loop_
_atom_site_type_symbol
_atom_site_label
_atom_site_fract_x
_atom_site_fract_y
_atom_site_fract_z
Si Si1 0.000000 0.500000 0.500000
Si Si2 0.841763 0.000000 0.500000
Si Si3 0.919661 0.115905 0.837860
Si Si4 0.427327 0.867139 0.191817
Si Si5 0.757545 0.915229 0.884368
Si Si6 0.000000 0.763181 0.500000
O O1 0.943627 0.443891 0.342994
O O2 0.899118 0.040633 0.688182
O O3 0.784943 0.064467 0.372072
O O4 0.943754 0.183964 0.665638
O O5 0.835341 0.127578 0.990023
O O6 0.000000 0.104454 0.000000
O O7 0.331823 0.871507 0.098469
O O8 0.441697 0.792726 0.348208
O O9 0.500000 0.866139 0.000000
O O10 0.746916 0.000000 0.000000
#
# Coordination Sequence:
#
# PCOD9323433 Si02
#       6
#     2   4   8   8   8   4
#     4  10  20  36  70 100 132 164 200 266 322 378
#     4  10  23  41  69  99 126 162 211 267 325 375
#     4  11  24  44  65  94 131 168 215 264 317 379
#     4  11  23  43  67  96 131 169 213 260 317 381
#     4  10  22  40  68 100 126 160 212 269 319 374
#     4  11  26  44  62  91 134 178 212 257 318 374
#
# _framework density 21.324475
#
# number of rings (size 3 to 8) (size 9 to 14) (size 15 to 20)
#    0.000    1.412    0.000    4.588    0.000   16.941 
#    0.000   17.647    0.000    0.000    0.000    0.000 
#    0.000    0.000    0.000    0.000    0.000    0.000 
#
# Total GULP energy -95169.707907 kJ/mol
# GULP energy per Si atom -5598.218112 kJ/mol
# Density = 2.127594 g / cm^3
# Si number density = 21.324475 Si / 1000 Ang^3
#
#
#
# Elastic Constant Matrix: (Units=GPa)
#
#
# Indices 1 2 3 4 5 6 
#
# 1 219.8971 56.1183 88.5156 0.0000 0.0000 0.0000
# 2 56.1183 70.3063 33.3861 0.0000 0.0000 0.0000
# 3 88.5156 33.3861 126.2647 0.0000 0.0000 0.0000
# 4 0.0000 0.0000 0.0000 19.6551 0.0000 0.0000
# 5 0.0000 0.0000 0.0000 0.0000 25.4396 0.0000
# 6 0.0000 0.0000 0.0000 0.0000 0.0000 4.8738
#
#
#
# Elastic Compliance Matrix: (Units=1/GPa)
#
#
# Indices 1 2 3 4 5 6 
#
# 1 0.007121 -0.003789 -0.003990 0.000000 0.000000 0.000000
# 2 -0.003789 0.018282 -0.002178 0.000000 0.000000 0.000000
# 3 -0.003990 -0.002178 0.011293 0.000000 0.000000 0.000000
# 4 0.000000 0.000000 0.000000 0.050877 0.000000 0.000000
# 5 0.000000 0.000000 0.000000 0.000000 0.039309 0.000000
# 6 0.000000 0.000000 0.000000 0.000000 0.000000 0.205179
#
#
# Mechanical properties :
#
#
# Convention : Reuss Voigt Hill
#
# Bulk Modulus (GPa) = 59.58780 85.83423 72.71101
# Shear Modulus (GPa) = 13.98336 25.89024 19.93680
#
# Velocity S-wave (km/s) = 2.56352 3.48819 3.06097
# Velocity P-wave (km/s) = 6.06352 7.52078 6.83112
#
# Compressibility (1/GPa) = 0.01678196
#
# Stress axis : x y z
#
# Youngs Moduli (GPa) = 140.43758 54.69868 88.55220
#
# Poissons Ratio (x) = 0.20725 0.35332
# Poissons Ratio (y) = 0.53211 0.19285
# Poissons Ratio (z) = 0.56033 0.11912
#
# Static dielectric constant tensor:
#      x y z
#    x 1.756360 0.000000 0.000000 
#    y 0.000000 1.756250 0.000000 
#    z 0.000000 0.000000 1.805100 
# 
# From -- ./inp_files/3742.got.cif
#   From: 2010.05.17/outbox.cif.g08.bks.cpg/sg21_2_cif.got.tgz:3742.got - 2010.06.03 23:14:55.
