data_PCOD9323598
_publ_section_title
;
Structure prediction by ZEFSAII (Michael W. Deem and Ramdas Pophale) SiO2 
 PCOD9323598
Probable space group: C 2 2 2
;
_chemical_formula_sum "Si O2"
_cell_formula_units_Z 48
_cell_length_a 16.567216
_cell_length_b 14.261470
_cell_length_c 9.260175
_cell_angle_alpha 90.000000
_cell_angle_beta 90.000000
_cell_angle_gamma 90.000000
_cell_volume 2187.927975
_symmetry_space_group_name_H-M "C 2 2 2"
_symmetry_group_IT_number 21
_symmetry_cell_setting 'orthorhombic'
loop_
_space_group_symop_operation_xyz
x,y,z
-x,-y,z
x,-y,-z
-x,y,-z
1/2+x,1/2+y,z
1/2-x,1/2-y,z
1/2+x,1/2-y,-z
1/2-x,1/2+y,-z
loop_
_atom_site_type_symbol
_atom_site_label
_atom_site_fract_x
_atom_site_fract_y
_atom_site_fract_z
Si Si1 0.711144 0.470253 0.146191
Si Si2 0.623176 0.782170 0.470080
Si Si3 0.374884 0.130563 0.964965
Si Si4 0.341477 0.719379 0.230190
Si Si5 0.973284 0.400820 0.753577
Si Si6 0.719390 0.404359 0.590550
O O1 0.795095 0.420902 0.095332
O O2 0.659425 0.391805 0.227778
O O3 0.726586 0.558179 0.247196
O O4 0.668326 0.500000 0.000000
O O5 0.607460 0.763888 0.639942
O O6 0.556302 0.827985 0.367242
O O7 0.654272 0.679499 0.418844
O O8 0.697337 0.856173 0.459932
O O9 0.359183 0.239980 0.929028
O O10 0.450274 0.112700 0.859644
O O11 0.401006 0.101941 0.125378
O O12 0.250000 0.750000 0.265791
O O13 0.000000 0.500000 0.683884
O O14 0.704688 0.500000 0.500000
#
# Coordination Sequence:
#
# PCOD9323598 Si02
#       6
#     8   8   8   8   8   8
#     4  11  21  35  62  95 125 170 222 273 341 400
#     4  11  22  37  62  95 130 175 222 267 345 408
#     4  10  21  39  61  88 134 172 214 275 335 397
#     4  10  20  39  57  90 131 169 212 285 328 393
#     4  11  23  40  61  92 133 174 218 276 335 413
#     4  11  20  37  60  91 132 171 211 279 336 399
#
# _framework density 21.938566000000002
#
# number of rings (size 3 to 8) (size 9 to 14) (size 15 to 20)
#    0.000    1.333    3.333    5.000    2.333    0.667 
#    0.000    1.667    0.000    1.000    0.000    0.000 
#    0.000    0.000    0.000    0.000    0.000    0.000 
#
# Total GULP energy -133826.941194 kJ/mol
# GULP energy per Si atom -5576.122550 kJ/mol
# Density = 2.188863 g / cm^3
# Si number density = 21.938566 Si / 1000 Ang^3
#
#
#
# Elastic Constant Matrix: (Units=GPa)
#
#
# Indices 1 2 3 4 5 6 
#
# 1 61.7555 36.3892 29.3598 0.0000 0.0000 0.0000
# 2 36.3892 151.9460 65.4316 0.0000 0.0000 0.0000
# 3 29.3598 65.4316 140.3581 0.0000 0.0000 0.0000
# 4 0.0000 0.0000 0.0000 46.5047 0.0000 0.0000
# 5 0.0000 0.0000 0.0000 0.0000 28.0499 0.0000
# 6 0.0000 0.0000 0.0000 0.0000 0.0000 24.7667
#
#
#
# Elastic Compliance Matrix: (Units=1/GPa)
#
#
# Indices 1 2 3 4 5 6 
#
# 1 0.019467 -0.003639 -0.002376 0.000000 0.000000 0.000000
# 2 -0.003639 0.008915 -0.003395 0.000000 0.000000 0.000000
# 3 -0.002376 -0.003395 0.009204 0.000000 0.000000 0.000000
# 4 0.000000 0.000000 0.000000 0.021503 0.000000 0.000000
# 5 0.000000 0.000000 0.000000 0.000000 0.035651 0.000000
# 6 0.000000 0.000000 0.000000 0.000000 0.000000 0.040377
#
#
# Mechanical properties :
#
#
# Convention : Reuss Voigt Hill
#
# Bulk Modulus (GPa) = 53.28536 68.49118 60.88827
# Shear Modulus (GPa) = 31.21298 34.72286 32.96792
#
# Velocity S-wave (km/s) = 3.77602 3.98267 3.88072
# Velocity P-wave (km/s) = 6.58425 7.24129 6.92057
#
# Compressibility (1/GPa) = 0.01876688
#
# Stress axis : x y z
#
# Youngs Moduli (GPa) = 51.37011 112.17599 108.64841
#
# Poissons Ratio (x) = 0.40821 0.25810
# Poissons Ratio (y) = 0.18694 0.36881
# Poissons Ratio (z) = 0.12203 0.38079
#
# Static dielectric constant tensor:
#      x y z
#    x 1.853560 0.000000 0.000000 
#    y 0.000000 1.920840 0.000000 
#    z 0.000000 0.000000 1.857710 
# 
# From -- ./inp_files/16422.got.cif
#   From: 2010.05.17/outbox.cif.g08.bks.cpg/sg21_9_cif.got.tgz:16422.got - 2010.06.03 23:14:55.
