data_PCOD9323004
_publ_section_title
;
Structure prediction by ZEFSAII (Michael W. Deem and Ramdas Pophale) SiO2 
 PCOD9323004
Probable space group: C 2 2 2
;
_chemical_formula_sum "Si O2"
_cell_formula_units_Z 60
_cell_length_a 14.335568
_cell_length_b 14.582833
_cell_length_c 14.575722
_cell_angle_alpha 90.000000
_cell_angle_beta 90.000000
_cell_angle_gamma 90.000000
_cell_volume 3047.101240
_symmetry_space_group_name_H-M "C 2 2 2"
_symmetry_group_IT_number 21
_symmetry_cell_setting 'orthorhombic'
loop_
_space_group_symop_operation_xyz
x,y,z
-x,-y,z
x,-y,-z
-x,y,-z
1/2+x,1/2+y,z
1/2-x,1/2-y,z
1/2+x,1/2-y,-z
1/2-x,1/2+y,-z
loop_
_atom_site_type_symbol
_atom_site_label
_atom_site_fract_x
_atom_site_fract_y
_atom_site_fract_z
Si Si1 0.814872 0.336341 0.857786
Si Si2 0.811464 0.107050 0.699399
Si Si3 0.774956 0.348633 0.135629
Si Si4 0.500187 0.600363 0.187197
Si Si5 0.891190 0.112617 0.506326
Si Si6 0.825581 0.103558 0.315821
Si Si7 0.266211 0.000000 0.000000
Si Si8 0.020955 0.292883 0.893909
O O1 0.750000 0.250000 0.890063
O O2 0.774682 0.356531 0.757001
O O3 0.923827 0.316538 0.846199
O O4 0.808435 0.421281 0.930507
O O5 0.845196 0.144606 0.601463
O O6 0.897360 0.114907 0.771185
O O7 0.791726 0.000680 0.679405
O O8 0.750000 0.250000 0.094954
O O9 0.737426 0.350618 0.238742
O O10 0.727606 0.430548 0.077779
O O11 0.887662 0.350850 0.132761
O O12 0.500000 0.500000 0.141506
O O13 0.429682 0.596977 0.273213
O O14 0.466166 0.684839 0.126301
O O15 0.835595 0.145040 0.416344
O O16 0.000000 0.139267 0.500000
O O17 0.890658 0.000000 0.500000
O O18 0.000000 0.307064 0.000000
#
# Coordination Sequence:
#
# PCOD9323004 Si02
#       8
#     8   8   8   8   8   8   4   8
#     4  12  25  43  65  90 127 164 216 265 314 368
#     4  10  19  37  62  95 128 167 201 259 320 375
#     4  12  25  43  65  90 127 164 216 265 314 368
#     4  10  20  36  60  92 129 159 198 258 335 368
#     4   9  16  30  63  99 129 160 207 253 314 387
#     4  10  19  37  62  95 128 167 201 259 320 375
#     4  12  26  45  64  89 122 174 220 257 306 381
#     4  12  26  41  61  87 123 172 219 263 304 372
#
# _framework density 19.690846000000001
#
# number of rings (size 3 to 8) (size 9 to 14) (size 15 to 20)
#    0.000    1.200    6.667    0.400    0.000    1.333 
#    0.000    0.667    0.000    0.800    0.000    2.800 
#    0.000    0.000    0.000    0.000    0.000    0.000 
#
# Total GULP energy -167149.185099 kJ/mol
# GULP energy per Si atom -5571.639503 kJ/mol
# Density = 1.964603 g / cm^3
# Si number density = 19.690846 Si / 1000 Ang^3
#
#
#
# Elastic Constant Matrix: (Units=GPa)
#
#
# Indices 1 2 3 4 5 6 
#
# 1 102.1151 16.0182 53.2402 0.0000 0.0000 0.0000
# 2 16.0182 70.4916 24.8452 0.0000 0.0000 0.0000
# 3 53.2402 24.8452 120.8546 0.0000 0.0000 0.0000
# 4 0.0000 0.0000 0.0000 15.2887 0.0000 0.0000
# 5 0.0000 0.0000 0.0000 0.0000 103.5752 0.0000
# 6 0.0000 0.0000 0.0000 0.0000 0.0000 17.8941
#
#
#
# Elastic Compliance Matrix: (Units=1/GPa)
#
#
# Indices 1 2 3 4 5 6 
#
# 1 0.012777 -0.000991 -0.005425 0.000000 0.000000 0.000000
# 2 -0.000991 0.015371 -0.002723 0.000000 0.000000 0.000000
# 3 -0.005425 -0.002723 0.011224 0.000000 0.000000 0.000000
# 4 0.000000 0.000000 0.000000 0.065408 0.000000 0.000000
# 5 0.000000 0.000000 0.000000 0.000000 0.009655 0.000000
# 6 0.000000 0.000000 0.000000 0.000000 0.000000 0.055884
#
#
# Mechanical properties :
#
#
# Convention : Reuss Voigt Hill
#
# Bulk Modulus (GPa) = 47.40866 53.51872 50.46369
# Shear Modulus (GPa) = 25.55864 40.64213 33.10038
#
# Velocity S-wave (km/s) = 3.60668 4.54807 4.10445
# Velocity P-wave (km/s) = 6.43995 7.40394 6.93871
#
# Compressibility (1/GPa) = 0.02109319
#
# Stress axis : x y z
#
# Youngs Moduli (GPa) = 78.26754 65.05682 89.09466
#
# Poissons Ratio (x) = 0.06449 0.48331
# Poissons Ratio (y) = 0.07759 0.24263
# Poissons Ratio (z) = 0.42458 0.17717
#
# Static dielectric constant tensor:
#      x y z
#    x 1.756200 0.000000 0.000000 
#    y 0.000000 1.682300 0.000000 
#    z 0.000000 0.000000 1.728890 
# 
# From -- ./inp_files/32428.got.cif
#   From: 2010.05.17/outbox.cif.g08.bks.cpg/sg21_17_cif.got.tgz:32428.got - 2010.06.03 23:14:55.
