data_PCOD9323289
_publ_section_title
;
Structure prediction by ZEFSAII (Michael W. Deem and Ramdas Pophale) SiO2 
 PCOD9323289
Probable space group: C 2 2 2
;
_chemical_formula_sum "Si O2"
_cell_formula_units_Z 64
_cell_length_a 9.046972
_cell_length_b 31.107542
_cell_length_c 12.714934
_cell_angle_alpha 90.000000
_cell_angle_beta 90.000000
_cell_angle_gamma 90.000000
_cell_volume 3578.351942
_symmetry_space_group_name_H-M "C 2 2 2"
_symmetry_group_IT_number 21
_symmetry_cell_setting 'orthorhombic'
loop_
_space_group_symop_operation_xyz
x,y,z
-x,-y,z
x,-y,-z
-x,y,-z
1/2+x,1/2+y,z
1/2-x,1/2-y,z
1/2+x,1/2-y,-z
1/2-x,1/2+y,-z
loop_
_atom_site_type_symbol
_atom_site_label
_atom_site_fract_x
_atom_site_fract_y
_atom_site_fract_z
Si Si1 0.334282 0.708622 0.123987
Si Si2 0.676410 0.588896 0.623028
Si Si3 0.823590 0.088896 0.623028
Si Si4 0.177231 0.379374 0.824917
Si Si5 0.820570 0.550408 1.000000
Si Si6 0.834282 0.208622 0.876013
Si Si7 0.822769 0.620626 0.175083
Si Si8 0.166509 0.500000 0.626227
O O1 0.250000 0.750000 0.170310
O O2 0.241100 0.665086 0.131787
O O3 0.500000 0.703211 0.168308
O O4 0.350778 0.717053 0.000000
O O5 0.500000 0.590150 0.634946
O O6 0.710657 0.597628 0.500000
O O7 0.757900 0.617864 0.707726
O O8 0.740604 0.541989 0.650880
O O9 0.742100 0.117864 0.707726
O O10 0.759396 0.041989 0.650880
O O11 0.222777 0.420281 0.898487
O O12 1.000000 0.378880 0.823834
O O13 0.770481 0.500000 0.000000
O O14 0.777223 0.579719 0.101513
O O15 0.000000 0.548824 0.000000
O O16 0.750000 0.250000 0.829690
O O17 0.741100 0.165086 0.868213
O O18 0.151006 0.500000 0.500000
O O19 0.000000 0.500000 0.672393
#
# Coordination Sequence:
#
# PCOD9323289 Si02
#       8
#     8   8   8   8   8   8   8   8
#     4  10  20  35  57  83 113 144 182 230 281 334
#     4  10  21  36  53  76 109 147 187 234 284 329
#     4  10  21  36  53  76 109 147 187 234 284 329
#     4  11  21  35  58  83 113 149 190 233 278 334
#     4   9  20  36  52  77 114 153 189 228 273 324
#     4  10  20  35  57  83 113 144 182 230 281 334
#     4  11  21  35  58  83 113 149 190 233 278 334
#     4   9  17  31  51  74  99 134 185 235 277 322
#
# _framework density 17.88533
#
# number of rings (size 3 to 8) (size 9 to 14) (size 15 to 20)
#    0.000    2.000    1.250    2.625    1.750    4.000 
#    0.000    0.000    0.000    3.750    0.000    0.000 
#    0.000    0.000    0.000    0.000    0.000    0.000 
#
# Total GULP energy -178300.922631 kJ/mol
# GULP energy per Si atom -5571.903832 kJ/mol
# Density = 1.784462 g / cm^3
# Si number density = 17.885330 Si / 1000 Ang^3
#
#
#
# Elastic Constant Matrix: (Units=GPa)
#
#
# Indices 1 2 3 4 5 6 
#
# 1 97.7760 42.7792 43.4595 0.0000 0.0000 0.0000
# 2 42.7792 109.0906 30.9570 0.0000 0.0000 0.0000
# 3 43.4595 30.9570 68.9291 0.0000 0.0000 0.0000
# 4 0.0000 0.0000 0.0000 11.2401 0.0000 0.0000
# 5 0.0000 0.0000 0.0000 0.0000 22.1084 0.0000
# 6 0.0000 0.0000 0.0000 0.0000 0.0000 48.6784
#
#
#
# Elastic Compliance Matrix: (Units=1/GPa)
#
#
# Indices 1 2 3 4 5 6 
#
# 1 0.015458 -0.003778 -0.008050 0.000000 0.000000 0.000000
# 2 -0.003778 0.011429 -0.002751 0.000000 0.000000 0.000000
# 3 -0.008050 -0.002751 0.020819 0.000000 0.000000 0.000000
# 4 0.000000 0.000000 0.000000 0.088968 0.000000 0.000000
# 5 0.000000 0.000000 0.000000 0.000000 0.045232 0.000000
# 6 0.000000 0.000000 0.000000 0.000000 0.000000 0.020543
#
#
# Mechanical properties :
#
#
# Convention : Reuss Voigt Hill
#
# Bulk Modulus (GPa) = 53.91218 56.68747 55.29982
# Shear Modulus (GPa) = 21.02719 26.97870 24.00294
#
# Velocity S-wave (km/s) = 3.43252 3.88806 3.66737
# Velocity P-wave (km/s) = 6.77630 7.20554 6.99421
#
# Compressibility (1/GPa) = 0.01854869
#
# Stress axis : x y z
#
# Youngs Moduli (GPa) = 64.69075 87.49893 48.03412
#
# Poissons Ratio (x) = 0.33053 0.38666
# Poissons Ratio (y) = 0.24437 0.13215
# Poissons Ratio (z) = 0.52075 0.24072
#
# Static dielectric constant tensor:
#      x y z
#    x 1.618020 0.000000 0.000000 
#    y 0.000000 1.477710 0.000000 
#    z 0.000000 0.000000 1.634970 
# 
# From -- ./inp_files/23119.got.cif
#   From: 2010.05.17/outbox.cif.g08.bks.cpg/sg21_12_cif.got.tgz:23119.got - 2010.06.03 23:14:55.
