data_PCOD9323560
_publ_section_title
;
Structure prediction by ZEFSAII (Michael W. Deem and Ramdas Pophale) SiO2 
 PCOD9323560
Probable space group: C 2 2 2
;
_chemical_formula_sum "Si O2"
_cell_formula_units_Z 26
_cell_length_a 8.165425
_cell_length_b 31.438118
_cell_length_c 5.030093
_cell_angle_alpha 90.000000
_cell_angle_beta 90.000000
_cell_angle_gamma 90.000000
_cell_volume 1291.253015
_symmetry_space_group_name_H-M "C 2 2 2"
_symmetry_group_IT_number 21
_symmetry_cell_setting 'orthorhombic'
loop_
_space_group_symop_operation_xyz
x,y,z
-x,-y,z
x,-y,-z
-x,y,-z
1/2+x,1/2+y,z
1/2-x,1/2-y,z
1/2+x,1/2-y,-z
1/2-x,1/2+y,-z
loop_
_atom_site_type_symbol
_atom_site_label
_atom_site_fract_x
_atom_site_fract_y
_atom_site_fract_z
Si Si1 0.608008 0.582401 0.739721
Si Si2 0.316913 0.703662 0.616862
Si Si3 0.181500 0.342677 0.885517
Si Si4 0.000000 0.000000 0.500000
O O1 0.500000 0.602135 0.500000
O O2 0.767337 0.609965 0.793515
O O3 0.615040 0.532635 0.661772
O O4 0.500000 0.584384 0.000000
O O5 0.500000 0.706058 0.500000
O O6 0.250000 0.750000 0.694303
O O7 0.207215 0.686039 0.374299
O O8 0.298110 0.674070 0.876427
O O9 0.000000 0.340766 0.000000
#
# Coordination Sequence:
#
# PCOD9323560 Si02
#       4
#     8   8   8   2
#     4  10  20  38  64  95 121 164 214 260 315 381
#     4  12  25  43  64  93 130 173 218 265 315 374
#     4  12  24  40  64  97 131 171 213 265 318 382
#     4   8  22  36  70  94 126 160 220 268 310 396
#
# _framework density 20.135480999999999
#
# number of rings (size 3 to 8) (size 9 to 14) (size 15 to 20)
#    0.923    0.000    0.000    9.692    0.000    0.000 
#    0.000    0.000    0.000    5.538    0.000    0.000 
#    0.000    0.000    0.000    0.000    0.000    0.000 
#
# Total GULP energy -72597.802400 kJ/mol
# GULP energy per Si atom -5584.446338 kJ/mol
# Density = 2.008965 g / cm^3
# Si number density = 20.135481 Si / 1000 Ang^3
#
#
#
# Elastic Constant Matrix: (Units=GPa)
#
#
# Indices 1 2 3 4 5 6 
#
# 1 74.4078 35.6248 9.2654 0.0000 0.0000 0.0000
# 2 35.6248 136.3028 30.6143 0.0000 0.0000 0.0000
# 3 9.2654 30.6143 122.3230 0.0000 0.0000 0.0000
# 4 0.0000 0.0000 0.0000 -99.0680 0.0000 0.0000
# 5 0.0000 0.0000 0.0000 0.0000 32.5977 0.0000
# 6 0.0000 0.0000 0.0000 0.0000 0.0000 22.9168
#
#
#
# Elastic Compliance Matrix: (Units=1/GPa)
#
#
# Indices 1 2 3 4 5 6 
#
# 1 0.015365 -0.003978 -0.000168 0.000000 0.000000 0.000000
# 2 -0.003978 0.008804 -0.001902 0.000000 0.000000 0.000000
# 3 -0.000168 -0.001902 0.008664 0.000000 0.000000 0.000000
# 4 0.000000 0.000000 0.000000 -0.010094 0.000000 0.000000
# 5 0.000000 0.000000 0.000000 0.000000 0.030677 0.000000
# 6 0.000000 0.000000 0.000000 0.000000 0.000000 0.043636
#
#
# Mechanical properties :
#
#
# Convention : Reuss Voigt Hill
#
# Bulk Modulus (GPa) = 48.22574 53.78251 51.00412
# Shear Modulus (GPa) = 43.08117 8.45789 25.76953
#
# Velocity S-wave (km/s) = 4.63056 2.05173 3.58132
# Velocity P-wave (km/s) = 7.25204 5.69044 6.51817
#
# Compressibility (1/GPa) = 0.02073582
#
# Stress axis : x y z
#
# Youngs Moduli (GPa) = 65.08292 113.59079 115.42231
#
# Poissons Ratio (x) = 0.45187 0.01942
# Poissons Ratio (y) = 0.25891 0.21953
# Poissons Ratio (z) = 0.01095 0.21605
#
# Static dielectric constant tensor:
#      x y z
#    x 1.701060 0.000000 0.000000 
#    y 0.000000 1.751800 0.000000 
#    z 0.000000 0.000000 1.706200 
# 
# From -- ./inp_files/1317.got.cif
#   From: 2010.05.17/outbox.cif.g08.bks.cpg/sg21_1_cif.got.tgz:1317.got - 2010.06.03 23:14:55.
