data_PCOD9323864
_publ_section_title
;
Structure prediction by ZEFSAII (Michael W. Deem and Ramdas Pophale) SiO2 
 PCOD9323864
Probable space group: C 2 2 2
;
_chemical_formula_sum "Si O2"
_cell_formula_units_Z 54
_cell_length_a 15.424157
_cell_length_b 11.355230
_cell_length_c 16.155784
_cell_angle_alpha 90.000000
_cell_angle_beta 90.000000
_cell_angle_gamma 90.000000
_cell_volume 2829.602370
_symmetry_space_group_name_H-M "C 2 2 2"
_symmetry_group_IT_number 21
_symmetry_cell_setting 'orthorhombic'
loop_
_space_group_symop_operation_xyz
x,y,z
-x,-y,z
x,-y,-z
-x,y,-z
1/2+x,1/2+y,z
1/2-x,1/2-y,z
1/2+x,1/2-y,-z
1/2-x,1/2+y,-z
loop_
_atom_site_type_symbol
_atom_site_label
_atom_site_fract_x
_atom_site_fract_y
_atom_site_fract_z
Si Si1 0.408275 0.693817 0.026843
Si Si2 0.145492 0.740022 0.205949
Si Si3 0.765226 0.000000 0.000000
Si Si4 0.170655 0.341932 0.117191
Si Si5 0.622483 0.330345 0.386560
Si Si6 0.184216 0.427921 0.583105
Si Si7 0.600176 0.018642 0.737355
Si Si8 0.000000 0.000000 0.500000
O O1 0.404993 0.730735 0.121969
O O2 0.327354 0.607439 0.019846
O O3 0.500000 0.640976 0.000000
O O4 0.388456 0.792688 0.957539
O O5 0.250000 0.750000 0.197471
O O6 0.113575 0.815488 0.286208
O O7 0.128555 0.603949 0.222435
O O8 0.710371 0.960948 0.078689
O O9 0.250000 0.250000 0.132128
O O10 0.119780 0.375099 0.200073
O O11 0.717889 0.384963 0.400625
O O12 0.627415 0.192952 0.415858
O O13 0.556705 0.413147 0.439148
O O14 0.178026 0.500000 0.500000
O O15 0.154856 0.518583 0.653938
O O16 0.500000 0.000000 0.717805
#
# Coordination Sequence:
#
# PCOD9323864 Si02
#       8
#     8   8   4   8   8   8   8   2
#     4  11  22  37  58  87 123 160 209 267 310 373
#     4  11  20  40  68  85 120 176 219 248 319 405
#     4  10  21  36  57  76 112 164 204 246 315 381
#     4  10  21  38  55  87 121 159 210 262 322 376
#     4  10  22  42  67 101 126 171 219 258 337 402
#     4  10  21  43  68  91 131 172 213 261 329 404
#     4  11  22  37  61  91 122 158 211 266 308 379
#     4  12  24  44  70 104 140 156 212 290 324 388
#
# _framework density 19.083953000000001
#
# number of rings (size 3 to 8) (size 9 to 14) (size 15 to 20)
#    0.000    1.481    3.704    4.222    0.000    2.667 
#    5.333    4.444    0.000    0.000    0.000    0.000 
#    0.000    0.000    0.000    0.000    0.000    0.000 
#
# Total GULP energy -150526.175431 kJ/mol
# GULP energy per Si atom -5575.043534 kJ/mol
# Density = 1.904052 g / cm^3
# Si number density = 19.083953 Si / 1000 Ang^3
#
#
#
# Elastic Constant Matrix: (Units=GPa)
#
#
# Indices 1 2 3 4 5 6 
#
# 1 65.7320 22.0978 31.2477 0.0000 0.0000 0.0000
# 2 22.0978 58.8858 58.7710 0.0000 0.0000 0.0000
# 3 31.2477 58.7710 176.1534 0.0000 0.0000 0.0000
# 4 0.0000 0.0000 0.0000 30.0803 0.0000 0.0000
# 5 0.0000 0.0000 0.0000 0.0000 27.5495 0.0000
# 6 0.0000 0.0000 0.0000 0.0000 0.0000 12.4919
#
#
#
# Elastic Compliance Matrix: (Units=1/GPa)
#
#
# Indices 1 2 3 4 5 6 
#
# 1 0.017630 -0.005239 -0.001379 0.000000 0.000000 0.000000
# 2 -0.005239 0.027017 -0.008084 0.000000 0.000000 0.000000
# 3 -0.001379 -0.008084 0.008619 0.000000 0.000000 0.000000
# 4 0.000000 0.000000 0.000000 0.033244 0.000000 0.000000
# 5 0.000000 0.000000 0.000000 0.000000 0.036298 0.000000
# 6 0.000000 0.000000 0.000000 0.000000 0.000000 0.080052
#
#
# Mechanical properties :
#
#
# Convention : Reuss Voigt Hill
#
# Bulk Modulus (GPa) = 41.91163 58.33381 50.12272
# Shear Modulus (GPa) = 20.81429 26.60134 23.70782
#
# Velocity S-wave (km/s) = 3.30611 3.73756 3.52844
# Velocity P-wave (km/s) = 6.04841 7.01849 6.55143
#
# Compressibility (1/GPa) = 0.02385972
#
# Stress axis : x y z
#
# Youngs Moduli (GPa) = 56.72025 37.01405 116.02558
#
# Poissons Ratio (x) = 0.19393 0.16005
# Poissons Ratio (y) = 0.29718 0.93799
# Poissons Ratio (z) = 0.07824 0.29923
#
# Static dielectric constant tensor:
#      x y z
#    x 1.629660 0.000000 0.000000 
#    y 0.000000 1.668680 0.000000 
#    z 0.000000 0.000000 2.229580 
# 
# From -- ./inp_files/32340.got.cif
#   From: 2010.05.17/outbox.cif.g08.bks.cpg/sg21_17_cif.got.tgz:32340.got - 2010.06.03 23:14:55.
