data_PCOD9323696
_publ_section_title
;
Structure prediction by ZEFSAII (Michael W. Deem and Ramdas Pophale) SiO2 
 PCOD9323696
Probable space group: C 2 2 2
;
_chemical_formula_sum "Si O2"
_cell_formula_units_Z 32
_cell_length_a 15.567583
_cell_length_b 9.904261
_cell_length_c 9.074444
_cell_angle_alpha 90.000000
_cell_angle_beta 90.000000
_cell_angle_gamma 90.000000
_cell_volume 1399.146825
_symmetry_space_group_name_H-M "C 2 2 2"
_symmetry_group_IT_number 21
_symmetry_cell_setting 'orthorhombic'
loop_
_space_group_symop_operation_xyz
x,y,z
-x,-y,z
x,-y,-z
-x,y,-z
1/2+x,1/2+y,z
1/2-x,1/2-y,z
1/2+x,1/2-y,-z
1/2-x,1/2+y,-z
loop_
_atom_site_type_symbol
_atom_site_label
_atom_site_fract_x
_atom_site_fract_y
_atom_site_fract_z
Si Si1 0.915347 0.077206 0.711543
Si Si2 0.000000 0.727699 0.500000
Si Si3 0.425173 0.102119 0.789516
Si Si4 0.744056 0.914688 0.647724
Si Si5 0.500000 0.686089 0.000000
O O1 0.923236 0.199688 0.595385
O O2 0.938442 0.115345 0.879540
O O3 0.834271 0.981396 0.695707
O O4 0.000000 0.000000 0.661705
O O5 0.049130 0.647252 0.374560
O O6 0.328226 0.054185 0.771193
O O7 0.436316 0.226440 0.898982
O O8 0.500000 0.000000 0.834817
O O9 0.750000 0.750000 0.630946
O O10 0.721828 0.000000 0.500000
#
# Coordination Sequence:
#
# PCOD9323696 Si02
#       5
#     8   4   8   8   4
#     4  11  22  41  68  97 132 175 228 283 337 406
#     4  10  20  40  70 100 137 180 223 284 349 416
#     4  11  23  43  68 100 141 181 228 287 350 411
#     4  12  25  43  72 108 139 179 235 293 350 414
#     4  10  24  46  66  94 140 190 230 278 346 418
#
# _framework density 22.871081
#
# number of rings (size 3 to 8) (size 9 to 14) (size 15 to 20)
#    0.000    1.000    0.000    9.000    0.000    2.000 
#    0.000   12.500    0.000   12.000    0.000    0.000 
#    0.000    0.000    0.000    0.000    0.000    0.000 
#
# Total GULP energy -89338.026320 kJ/mol
# GULP energy per Si atom -5583.626645 kJ/mol
# Density = 2.281903 g / cm^3
# Si number density = 22.871081 Si / 1000 Ang^3
#
#
#
# Elastic Constant Matrix: (Units=GPa)
#
#
# Indices 1 2 3 4 5 6 
#
# 1 182.5151 51.5552 33.4127 0.0000 0.0000 0.0000
# 2 51.5552 88.2851 46.7880 0.0000 0.0000 0.0000
# 3 33.4127 46.7880 157.1751 0.0000 0.0000 0.0000
# 4 0.0000 0.0000 0.0000 17.4842 0.0000 0.0000
# 5 0.0000 0.0000 0.0000 0.0000 103.3572 0.0000
# 6 0.0000 0.0000 0.0000 0.0000 0.0000 43.2239
#
#
#
# Elastic Compliance Matrix: (Units=1/GPa)
#
#
# Indices 1 2 3 4 5 6 
#
# 1 0.006573 -0.003678 -0.000302 0.000000 0.000000 0.000000
# 2 -0.003678 0.015507 -0.003834 0.000000 0.000000 0.000000
# 3 -0.000302 -0.003834 0.007568 0.000000 0.000000 0.000000
# 4 0.000000 0.000000 0.000000 0.057195 0.000000 0.000000
# 5 0.000000 0.000000 0.000000 0.000000 0.009675 0.000000
# 6 0.000000 0.000000 0.000000 0.000000 0.000000 0.023135
#
#
# Mechanical properties :
#
#
# Convention : Reuss Voigt Hill
#
# Bulk Modulus (GPa) = 71.33459 76.83191 74.08325
# Shear Modulus (GPa) = 35.72550 52.56102 44.14326
#
# Velocity S-wave (km/s) = 3.95655 4.79910 4.39805
# Velocity P-wave (km/s) = 7.22011 8.02339 7.63233
#
# Compressibility (1/GPa) = 0.01401845
#
# Stress axis : x y z
#
# Youngs Moduli (GPa) = 152.12866 64.48734 132.13572
#
# Poissons Ratio (x) = 0.23721 0.03996
# Poissons Ratio (y) = 0.55958 0.50663
# Poissons Ratio (z) = 0.04601 0.24725
#
# Static dielectric constant tensor:
#      x y z
#    x 1.903230 0.000000 0.000000 
#    y 0.000000 1.506760 0.000000 
#    z 0.000000 0.000000 1.839170 
# 
# From -- ./inp_files/14134.got.cif
#   From: 2010.05.17/outbox.cif.g08.bks.cpg/sg21_8_cif.got.tgz:14134.got - 2010.06.03 23:14:55.
