data_PCOD9323193
_publ_section_title
;
Structure prediction by ZEFSAII (Michael W. Deem and Ramdas Pophale) SiO2 
 PCOD9323193
Probable space group: C 2 2 2
;
_chemical_formula_sum "Si O2"
_cell_formula_units_Z 48
_cell_length_a 8.348316
_cell_length_b 27.126686
_cell_length_c 11.841085
_cell_angle_alpha 90.000000
_cell_angle_beta 90.000000
_cell_angle_gamma 90.000000
_cell_volume 2681.557529
_symmetry_space_group_name_H-M "C 2 2 2"
_symmetry_group_IT_number 21
_symmetry_cell_setting 'orthorhombic'
loop_
_space_group_symop_operation_xyz
x,y,z
-x,-y,z
x,-y,-z
-x,y,-z
1/2+x,1/2+y,z
1/2-x,1/2-y,z
1/2+x,1/2-y,-z
1/2-x,1/2+y,-z
loop_
_atom_site_type_symbol
_atom_site_label
_atom_site_fract_x
_atom_site_fract_y
_atom_site_fract_z
Si Si1 0.294634 0.125585 0.696251
Si Si2 0.664816 0.857981 0.358048
Si Si3 0.173610 0.796180 0.457577
Si Si4 0.308401 0.443229 0.517785
Si Si5 0.814925 0.195289 0.850066
Si Si6 0.696273 0.693932 0.886823
O O1 0.475055 0.137296 0.657052
O O2 0.168801 0.158731 0.626420
O O3 0.248066 0.072795 0.644261
O O4 0.276125 0.148291 0.820095
O O5 0.714346 0.812789 0.439367
O O6 0.728327 0.906177 0.425788
O O7 0.746682 0.844470 0.238605
O O8 0.250000 0.750000 0.397255
O O9 0.000000 0.784177 0.500000
O O10 0.263615 0.500000 0.500000
O O11 0.500000 0.438646 0.500000
O O12 0.750000 0.250000 0.817788
O O13 0.007395 0.193505 0.857445
O O14 0.765997 0.187065 0.980451
O O15 0.750000 0.750000 0.859435
#
# Coordination Sequence:
#
# PCOD9323193 Si02
#       6
#     8   8   8   8   8   8
#     4  11  21  33  51  75 103 133 168 209 255 306
#     4  11  21  33  51  75 103 133 168 209 255 306
#     4  11  20  31  46  67  99 133 168 206 249 301
#     4  10  21  38  59  80 102 130 167 212 263 315
#     4  10  20  34  52  75 106 143 180 214 250 297
#     4  10  20  34  52  75 106 143 180 214 250 297
#
# _framework density 17.900044000000001
#
# number of rings (size 3 to 8) (size 9 to 14) (size 15 to 20)
#    0.000    1.500    0.000    9.000    0.000    3.333 
#    0.000    0.000    0.000    1.000    0.000    7.000 
#    0.000    0.000    0.000    0.000    0.000    0.000 
#
# Total GULP energy -133789.235315 kJ/mol
# GULP energy per Si atom -5574.551471 kJ/mol
# Density = 1.785930 g / cm^3
# Si number density = 17.900044 Si / 1000 Ang^3
#
#
#
# Elastic Constant Matrix: (Units=GPa)
#
#
# Indices 1 2 3 4 5 6 
#
# 1 52.6307 21.4895 21.8395 0.0000 0.0000 0.0000
# 2 21.4895 107.7185 47.6628 0.0000 0.0000 0.0000
# 3 21.8395 47.6628 114.7481 0.0000 0.0000 0.0000
# 4 0.0000 0.0000 0.0000 23.5390 0.0000 0.0000
# 5 0.0000 0.0000 0.0000 0.0000 20.4384 0.0000
# 6 0.0000 0.0000 0.0000 0.0000 0.0000 21.7485
#
#
#
# Elastic Compliance Matrix: (Units=1/GPa)
#
#
# Indices 1 2 3 4 5 6 
#
# 1 0.021404 -0.003023 -0.002818 0.000000 0.000000 0.000000
# 2 -0.003023 0.011801 -0.004326 0.000000 0.000000 0.000000
# 3 -0.002818 -0.004326 0.011048 0.000000 0.000000 0.000000
# 4 0.000000 0.000000 0.000000 0.042483 0.000000 0.000000
# 5 0.000000 0.000000 0.000000 0.000000 0.048927 0.000000
# 6 0.000000 0.000000 0.000000 0.000000 0.000000 0.045980
#
#
# Mechanical properties :
#
#
# Convention : Reuss Voigt Hill
#
# Bulk Modulus (GPa) = 41.80946 50.78676 46.29811
# Shear Modulus (GPa) = 23.81508 25.41889 24.61699
#
# Velocity S-wave (km/s) = 3.65149 3.77244 3.71246
# Velocity P-wave (km/s) = 6.41761 6.88542 6.65563
#
# Compressibility (1/GPa) = 0.02391803
#
# Stress axis : x y z
#
# Youngs Moduli (GPa) = 46.72017 84.73966 90.51331
#
# Poissons Ratio (x) = 0.25618 0.25507
# Poissons Ratio (y) = 0.14124 0.39159
# Poissons Ratio (z) = 0.13166 0.36661
#
# Static dielectric constant tensor:
#      x y z
#    x 1.604870 0.000000 0.000000 
#    y 0.000000 1.834340 0.000000 
#    z 0.000000 0.000000 1.672710 
# 
# From -- ./inp_files/22896.got.cif
#   From: 2010.05.17/outbox.cif.g08.bks.cpg/sg21_12_cif.got.tgz:22896.got - 2010.06.03 23:14:55.
