data_PCOD9323705
_publ_section_title
;
Structure prediction by ZEFSAII (Michael W. Deem and Ramdas Pophale) SiO2 
 PCOD9323705
Probable space group: C 2 2 2
;
_chemical_formula_sum "Si O2"
_cell_formula_units_Z 30
_cell_length_a 17.081155
_cell_length_b 5.060518
_cell_length_c 14.130415
_cell_angle_alpha 90.000000
_cell_angle_beta 90.000000
_cell_angle_gamma 90.000000
_cell_volume 1221.425899
_symmetry_space_group_name_H-M "C 2 2 2"
_symmetry_group_IT_number 21
_symmetry_cell_setting 'orthorhombic'
loop_
_space_group_symop_operation_xyz
x,y,z
-x,-y,z
x,-y,-z
-x,y,-z
1/2+x,1/2+y,z
1/2-x,1/2-y,z
1/2+x,1/2-y,-z
1/2-x,1/2+y,-z
loop_
_atom_site_type_symbol
_atom_site_label
_atom_site_fract_x
_atom_site_fract_y
_atom_site_fract_z
Si Si1 0.868897 0.242960 0.435079
Si Si2 0.118381 0.434897 0.161304
Si Si3 0.500000 0.000000 0.312996
Si Si4 0.250000 0.750000 0.937120
Si Si5 0.500000 0.000000 0.000000
Si Si6 0.250000 0.750000 0.277548
O O1 0.843092 0.500000 0.500000
O O2 0.808975 0.128993 0.355707
O O3 0.944995 0.330002 0.378506
O O4 0.887412 0.000000 0.500000
O O5 0.058839 0.347699 0.242666
O O6 0.168789 0.197192 0.117463
O O7 0.065838 0.582105 0.080748
O O8 0.189865 0.592150 0.210996
O O9 0.231990 0.500000 0.000000
#
# Coordination Sequence:
#
# PCOD9323705 Si02
#       6
#     8   8   4   4   2   4
#     4  11  24  45  75 108 147 193 239 294 362 434
#     4  10  22  43  74 104 148 187 244 295 356 428
#     4   9  23  45  71 110 150 190 237 301 359 421
#     4  12  25  46  75 104 136 190 248 297 352 423
#     4  10  20  40  76 100 144 186 240 284 370 418
#     4  10  23  44  75 110 146 186 246 303 354 419
#
# _framework density 24.561457000000001
#
# number of rings (size 3 to 8) (size 9 to 14) (size 15 to 20)
#    0.000    1.600    1.333    2.000    0.000    6.400 
#    0.000    6.000    0.000    1.600    0.000    0.000 
#    0.000    0.000    0.000    0.000    0.000    0.000 
#
# Total GULP energy -83519.711648 kJ/mol
# GULP energy per Si atom -5567.980777 kJ/mol
# Density = 2.450555 g / cm^3
# Si number density = 24.561457 Si / 1000 Ang^3
#
#
#
# Elastic Constant Matrix: (Units=GPa)
#
#
# Indices 1 2 3 4 5 6 
#
# 1 184.8296 13.2449 81.3988 0.0000 0.0000 0.0000
# 2 13.2449 40.1736 27.7928 0.0000 0.0000 0.0000
# 3 81.3988 27.7928 159.8613 0.0000 0.0000 0.0000
# 4 0.0000 0.0000 0.0000 7.3744 0.0000 0.0000
# 5 0.0000 0.0000 0.0000 0.0000 6.8704 0.0000
# 6 0.0000 0.0000 0.0000 0.0000 0.0000 4.5323
#
#
#
# Elastic Compliance Matrix: (Units=1/GPa)
#
#
# Indices 1 2 3 4 5 6 
#
# 1 0.006975 0.000179 -0.003583 0.000000 0.000000 0.000000
# 2 0.000179 0.028300 -0.005011 0.000000 0.000000 0.000000
# 3 -0.003583 -0.005011 0.008951 0.000000 0.000000 0.000000
# 4 0.000000 0.000000 0.000000 0.135605 0.000000 0.000000
# 5 0.000000 0.000000 0.000000 0.000000 0.145552 0.000000
# 6 0.000000 0.000000 0.000000 0.000000 0.000000 0.220641
#
#
# Mechanical properties :
#
#
# Convention : Reuss Voigt Hill
#
# Bulk Modulus (GPa) = 36.50173 69.97083 53.23628
# Shear Modulus (GPa) = 8.74147 21.25061 14.99604
#
# Velocity S-wave (km/s) = 1.88858 2.94462 2.47361
# Velocity P-wave (km/s) = 4.43275 6.33332 5.46627
#
# Compressibility (1/GPa) = 0.02739596
#
# Stress axis : x y z
#
# Youngs Moduli (GPa) = 143.35940 35.33596 111.71922
#
# Poissons Ratio (x) = -0.00632 0.40028
# Poissons Ratio (y) = -0.02566 0.55985
# Poissons Ratio (z) = 0.51364 0.17708
#
# Static dielectric constant tensor:
#      x y z
#    x 1.987140 0.000000 0.000000 
#    y 0.000000 2.000850 0.000000 
#    z 0.000000 0.000000 2.099810 
# 
# From -- ./inp_files/32572.got.cif
#   From: 2010.05.17/outbox.cif.g08.bks.cpg/sg21_17_cif.got.tgz:32572.got - 2010.06.03 23:14:55.
