data_PCOD9323374
_publ_section_title
;
Structure prediction by ZEFSAII (Michael W. Deem and Ramdas Pophale) SiO2 
 PCOD9323374
Probable space group: C 2 2 2
;
_chemical_formula_sum "Si O2"
_cell_formula_units_Z 52
_cell_length_a 8.605276
_cell_length_b 24.161572
_cell_length_c 14.110830
_cell_angle_alpha 90.000000
_cell_angle_beta 90.000000
_cell_angle_gamma 90.000000
_cell_volume 2933.881380
_symmetry_space_group_name_H-M "C 2 2 2"
_symmetry_group_IT_number 21
_symmetry_cell_setting 'orthorhombic'
loop_
_space_group_symop_operation_xyz
x,y,z
-x,-y,z
x,-y,-z
-x,y,-z
1/2+x,1/2+y,z
1/2-x,1/2-y,z
1/2+x,1/2-y,-z
1/2-x,1/2+y,-z
loop_
_atom_site_type_symbol
_atom_site_label
_atom_site_fract_x
_atom_site_fract_y
_atom_site_fract_z
Si Si1 0.683750 0.503397 0.386149
Si Si2 0.832939 0.387553 0.344496
Si Si3 0.158183 0.803524 0.833539
Si Si4 0.250000 0.250000 0.978569
Si Si5 0.699451 0.878673 0.313064
Si Si6 0.685617 0.688093 0.489940
Si Si7 0.207764 0.805650 0.200840
O O1 0.500000 0.500000 0.366371
O O2 0.702445 0.500000 0.500000
O O3 0.780181 0.450830 0.350147
O O4 0.741301 0.560514 0.341012
O O5 0.765327 0.353613 0.434471
O O6 0.758123 0.359824 0.252780
O O7 0.016181 0.379313 0.332807
O O8 0.250000 0.750000 0.792249
O O9 0.162759 0.789089 0.946077
O O10 0.247201 0.856410 0.790277
O O11 0.976848 0.805973 0.810753
O O12 0.302563 0.205720 0.897738
O O13 0.775201 0.835740 0.386689
O O14 0.500000 0.687513 0.500000
O O15 0.750000 0.750000 0.500968
O O16 0.250000 0.750000 0.259480
#
# Coordination Sequence:
#
# PCOD9323374 Si02
#       7
#     8   8   8   4   8   8   8
#     4  11  23  41  63  84 114 159 206 248 293 344
#     4  12  24  38  59  86 119 157 200 244 292 352
#     4  10  20  36  59  89 121 154 193 240 296 353
#     4   8  22  36  66  88 122 152 198 236 306 356
#     4  12  24  38  59  86 119 157 200 244 292 352
#     4  12  24  39  56  81 118 158 196 242 296 348
#     4  10  20  36  59  89 121 154 193 240 296 353
#
# _framework density 17.723962
#
# number of rings (size 3 to 8) (size 9 to 14) (size 15 to 20)
#    0.923    0.154    1.538    6.923    0.000    0.615 
#    0.000    0.000    0.000    0.923    0.000    5.385 
#    0.000    0.000    0.000    0.000    0.000    0.000 
#
# Total GULP energy -144802.890730 kJ/mol
# GULP energy per Si atom -5569.341951 kJ/mol
# Density = 1.768362 g / cm^3
# Si number density = 17.723962 Si / 1000 Ang^3
#
#
#
# Elastic Constant Matrix: (Units=GPa)
#
#
# Indices 1 2 3 4 5 6 
#
# 1 116.3913 33.5009 27.5261 0.0000 0.0000 0.0000
# 2 33.5009 104.1422 31.6074 0.0000 0.0000 0.0000
# 3 27.5261 31.6074 72.8424 0.0000 0.0000 0.0000
# 4 0.0000 0.0000 0.0000 21.9220 0.0000 0.0000
# 5 0.0000 0.0000 0.0000 0.0000 -5.2637 0.0000
# 6 0.0000 0.0000 0.0000 0.0000 0.0000 30.8205
#
#
#
# Elastic Compliance Matrix: (Units=1/GPa)
#
#
# Indices 1 2 3 4 5 6 
#
# 1 0.009916 -0.002364 -0.002721 0.000000 0.000000 0.000000
# 2 -0.002364 0.011622 -0.004150 0.000000 0.000000 0.000000
# 3 -0.002721 -0.004150 0.016557 0.000000 0.000000 0.000000
# 4 0.000000 0.000000 0.000000 0.045616 0.000000 0.000000
# 5 0.000000 0.000000 0.000000 0.000000 -0.189982 0.000000
# 6 0.000000 0.000000 0.000000 0.000000 0.000000 0.032446
#
#
# Mechanical properties :
#
#
# Convention : Reuss Voigt Hill
#
# Bulk Modulus (GPa) = 50.95459 53.18272 52.06866
# Shear Modulus (GPa) = -102.43132 22.87853 -39.77639
#
# Velocity S-wave (km/s) = -7.61039 3.59670 -4.74245
# Velocity P-wave (km/s) = 6.95792 6.87893 0.73926
#
# Compressibility (1/GPa) = 0.01962532
#
# Stress axis : x y z
#
# Youngs Moduli (GPa) = 100.85061 86.04289 60.39648
#
# Poissons Ratio (x) = 0.20339 0.16436
# Poissons Ratio (y) = 0.23839 0.25063
# Poissons Ratio (z) = 0.27445 0.35706
#
# Static dielectric constant tensor:
#      x y z
#    x 1.628670 0.000000 0.000000 
#    y 0.000000 1.662100 0.000000 
#    z 0.000000 0.000000 1.649750 
# 
# From -- ./inp_files/30838.got.cif
#   From: 2010.05.17/outbox.cif.g08.bks.cpg/sg21_16_cif.got.tgz:30838.got - 2010.06.03 23:14:55.
