data_PCOD9323257
_publ_section_title
;
Structure prediction by ZEFSAII (Michael W. Deem and Ramdas Pophale) SiO2 
 PCOD9323257
Probable space group: C 2 2 2
;
_chemical_formula_sum "Si O2"
_cell_formula_units_Z 40
_cell_length_a 15.665277
_cell_length_b 14.451569
_cell_length_c 8.826117
_cell_angle_alpha 90.000000
_cell_angle_beta 90.000000
_cell_angle_gamma 90.000000
_cell_volume 1998.125488
_symmetry_space_group_name_H-M "C 2 2 2"
_symmetry_group_IT_number 21
_symmetry_cell_setting 'orthorhombic'
loop_
_space_group_symop_operation_xyz
x,y,z
-x,-y,z
x,-y,-z
-x,y,-z
1/2+x,1/2+y,z
1/2-x,1/2-y,z
1/2+x,1/2-y,-z
1/2-x,1/2+y,-z
loop_
_atom_site_type_symbol
_atom_site_label
_atom_site_fract_x
_atom_site_fract_y
_atom_site_fract_z
Si Si1 0.500000 0.500000 0.500000
Si Si2 0.000000 0.000000 0.000000
Si Si3 0.250000 0.750000 0.808933
Si Si4 0.758163 0.546290 0.335600
Si Si5 0.596642 0.966399 0.841769
Si Si6 0.098948 0.257969 0.938014
Si Si7 0.115751 0.913401 0.244332
O O1 0.560370 0.436161 0.394421
O O2 0.055998 0.061533 0.894178
O O3 0.253281 0.655390 0.705738
O O4 0.166191 0.747033 0.920313
O O5 0.741921 0.500000 0.500000
O O6 0.852299 0.515024 0.290565
O O7 0.693125 0.484936 0.236830
O O8 0.599519 0.857306 0.857382
O O9 0.500000 0.000000 0.836450
O O10 0.636681 0.000000 0.000000
O O11 0.133576 0.191030 0.802993
O O12 0.000000 0.246066 0.000000
#
# Coordination Sequence:
#
# PCOD9323257 Si02
#       7
#     2   2   4   8   8   8   8
#     4  10  24  46  60  98 156 178 204 282 344 434
#     4  10  20  34  64  90 132 166 228 270 316 394
#     4  12  26  44  70 102 136 180 240 286 342 416
#     4  12  27  45  67  99 144 183 219 285 352 420
#     4  11  22  46  71  97 135 173 237 295 335 390
#     4  12  23  40  74 106 128 180 235 291 342 402
#     4  11  23  41  65 102 138 179 223 277 345 410
#
# _framework density 20.018763
#
# number of rings (size 3 to 8) (size 9 to 14) (size 15 to 20)
#    0.000    0.600    6.000    2.400    4.200    2.000 
#    0.000    0.000    0.000    0.000    0.000    0.000 
#    0.000    0.000    0.000    0.000    0.000    0.000 
#
# Total GULP energy -111399.485408 kJ/mol
# GULP energy per Si atom -5569.974270 kJ/mol
# Density = 1.997320 g / cm^3
# Si number density = 20.018763 Si / 1000 Ang^3
#
#
#
# Elastic Constant Matrix: (Units=GPa)
#
#
# Indices 1 2 3 4 5 6 
#
# 1 103.2348 40.7198 33.8886 0.0000 0.0000 0.0000
# 2 40.7198 215.8103 55.1212 0.0000 0.0000 0.0000
# 3 33.8886 55.1212 86.8155 0.0000 0.0000 0.0000
# 4 0.0000 0.0000 0.0000 36.4431 0.0000 0.0000
# 5 0.0000 0.0000 0.0000 0.0000 37.5056 0.0000
# 6 0.0000 0.0000 0.0000 0.0000 0.0000 28.6871
#
#
#
# Elastic Compliance Matrix: (Units=1/GPa)
#
#
# Indices 1 2 3 4 5 6 
#
# 1 0.011368 -0.001207 -0.003671 0.000000 0.000000 0.000000
# 2 -0.001207 0.005659 -0.003122 0.000000 0.000000 0.000000
# 3 -0.003671 -0.003122 0.014934 0.000000 0.000000 0.000000
# 4 0.000000 0.000000 0.000000 0.027440 0.000000 0.000000
# 5 0.000000 0.000000 0.000000 0.000000 0.026663 0.000000
# 6 0.000000 0.000000 0.000000 0.000000 0.000000 0.034859
#
#
# Mechanical properties :
#
#
# Convention : Reuss Voigt Hill
#
# Bulk Modulus (GPa) = 62.65431 73.92440 68.28935
# Shear Modulus (GPa) = 35.15136 38.93588 37.04362
#
# Velocity S-wave (km/s) = 4.19492 4.41497 4.30635
# Velocity P-wave (km/s) = 7.40465 7.93706 7.67547
#
# Compressibility (1/GPa) = 0.01596059
#
# Stress axis : x y z
#
# Youngs Moduli (GPa) = 87.96681 176.71548 66.96290
#
# Poissons Ratio (x) = 0.21335 0.24582
# Poissons Ratio (y) = 0.10620 0.20903
# Poissons Ratio (z) = 0.32292 0.55164
#
# Static dielectric constant tensor:
#      x y z
#    x 1.715480 0.000000 0.000000 
#    y 0.000000 2.154200 0.000000 
#    z 0.000000 0.000000 1.781320 
# 
# From -- ./inp_files/14608.got.cif
#   From: 2010.05.17/outbox.cif.g08.bks.cpg/sg21_8_cif.got.tgz:14608.got - 2010.06.03 23:14:55.
