data_PCOD9323223
_publ_section_title
;
Structure prediction by ZEFSAII (Michael W. Deem and Ramdas Pophale) SiO2 
 PCOD9323223
Probable space group: C 2 2 2
;
_chemical_formula_sum "Si O2"
_cell_formula_units_Z 40
_cell_length_a 18.842645
_cell_length_b 20.382882
_cell_length_c 5.219191
_cell_angle_alpha 90.000000
_cell_angle_beta 90.000000
_cell_angle_gamma 90.000000
_cell_volume 2004.521168
_symmetry_space_group_name_H-M "C 2 2 2"
_symmetry_group_IT_number 21
_symmetry_cell_setting 'orthorhombic'
loop_
_space_group_symop_operation_xyz
x,y,z
-x,-y,z
x,-y,-z
-x,y,-z
1/2+x,1/2+y,z
1/2-x,1/2-y,z
1/2+x,1/2-y,-z
1/2-x,1/2+y,-z
loop_
_atom_site_type_symbol
_atom_site_label
_atom_site_fract_x
_atom_site_fract_y
_atom_site_fract_z
Si Si1 0.583556 0.111656 0.555462
Si Si2 0.278946 0.319005 0.919435
Si Si3 0.840777 0.429067 0.066782
Si Si4 0.612068 0.257805 0.408227
Si Si5 0.071226 0.178605 0.086598
O O1 0.500000 0.114465 0.500000
O O2 0.604787 0.089726 0.839294
O O3 0.615387 0.184170 0.504133
O O4 0.619026 0.067558 0.336353
O O5 0.250000 0.250000 0.036982
O O6 0.313336 0.293822 0.650693
O O7 0.217744 0.371989 0.914303
O O8 0.349406 0.349433 0.051254
O O9 0.809285 0.500000 0.000000
O O10 0.570423 0.296841 0.625465
O O11 0.575328 0.262716 0.127614
O O12 0.000000 0.141312 0.000000
#
# Coordination Sequence:
#
# PCOD9323223 Si02
#       5
#     8   8   8   8   8
#     4  12  24  42  66  92 129 176 222 270 321 390
#     4  10  22  38  62  90 127 162 216 264 328 376
#     4  12  27  44  63  91 131 179 224 268 326 394
#     4  10  21  34  60  90 127 155 210 255 323 371
#     4  10  20  34  57  91 128 158 196 261 324 387
#
# _framework density 19.954892000000001
#
# number of rings (size 3 to 8) (size 9 to 14) (size 15 to 20)
#    1.200    0.000    2.000    5.400    2.800    3.200 
#    0.000    0.000    0.000    0.600    0.000    0.000 
#    6.000    0.000    0.000    0.000    0.000    0.000 
#
# Total GULP energy -111384.074822 kJ/mol
# GULP energy per Si atom -5569.203741 kJ/mol
# Density = 1.990947 g / cm^3
# Si number density = 19.954892 Si / 1000 Ang^3
#
#
#
# Elastic Constant Matrix: (Units=GPa)
#
#
# Indices 1 2 3 4 5 6 
#
# 1 130.3554 42.8190 44.5144 0.0000 0.0000 0.0000
# 2 42.8190 79.7709 4.2687 0.0000 0.0000 0.0000
# 3 44.5144 4.2687 102.6864 0.0000 0.0000 0.0000
# 4 0.0000 0.0000 0.0000 19.7561 0.0000 0.0000
# 5 0.0000 0.0000 0.0000 0.0000 27.9727 0.0000
# 6 0.0000 0.0000 0.0000 0.0000 0.0000 5.6003
#
#
#
# Elastic Compliance Matrix: (Units=1/GPa)
#
#
# Indices 1 2 3 4 5 6 
#
# 1 0.011115 -0.005721 -0.004580 0.000000 0.000000 0.000000
# 2 -0.005721 0.015509 0.001835 0.000000 0.000000 0.000000
# 3 -0.004580 0.001835 0.011648 0.000000 0.000000 0.000000
# 4 0.000000 0.000000 0.000000 0.050617 0.000000 0.000000
# 5 0.000000 0.000000 0.000000 0.000000 0.035749 0.000000
# 6 0.000000 0.000000 0.000000 0.000000 0.000000 0.178561
#
#
# Mechanical properties :
#
#
# Convention : Reuss Voigt Hill
#
# Bulk Modulus (GPa) = 46.86275 55.11298 50.98787
# Shear Modulus (GPa) = 15.27915 25.41321 20.34618
#
# Velocity S-wave (km/s) = 2.77010 3.57253 3.19660
# Velocity P-wave (km/s) = 5.81090 6.68551 6.26349
#
# Compressibility (1/GPa) = 0.02133891
#
# Stress axis : x y z
#
# Youngs Moduli (GPa) = 89.97101 64.48049 85.85397
#
# Poissons Ratio (x) = 0.36889 0.39324
# Poissons Ratio (y) = 0.51472 -0.15757
# Poissons Ratio (z) = 0.41210 -0.11834
#
# Static dielectric constant tensor:
#      x y z
#    x 1.797280 0.000000 0.000000 
#    y 0.000000 1.681480 0.000000 
#    z 0.000000 0.000000 1.730830 
# 
# From -- ./inp_files/5823.got.cif
#   From: 2010.05.17/outbox.cif.g08.bks.cpg/sg21_3_cif.got.tgz:5823.got - 2010.06.03 23:14:55.
