data_PCOD9323905
_publ_section_title
;
Structure prediction by ZEFSAII (Michael W. Deem and Ramdas Pophale) SiO2 
 PCOD9323905
Probable space group: C 2 2 2
;
_chemical_formula_sum "Si O2"
_cell_formula_units_Z 52
_cell_length_a 17.604822
_cell_length_b 9.310491
_cell_length_c 16.659813
_cell_angle_alpha 90.000000
_cell_angle_beta 90.000000
_cell_angle_gamma 90.000000
_cell_volume 2730.702232
_symmetry_space_group_name_H-M "C 2 2 2"
_symmetry_group_IT_number 21
_symmetry_cell_setting 'orthorhombic'
loop_
_space_group_symop_operation_xyz
x,y,z
-x,-y,z
x,-y,-z
-x,y,-z
1/2+x,1/2+y,z
1/2-x,1/2-y,z
1/2+x,1/2-y,-z
1/2-x,1/2+y,-z
loop_
_atom_site_type_symbol
_atom_site_label
_atom_site_fract_x
_atom_site_fract_y
_atom_site_fract_z
Si Si1 0.917840 0.485755 0.187222
Si Si2 0.250000 0.250000 0.000817
Si Si3 0.692641 0.500987 0.709990
Si Si4 0.425784 0.251989 0.672719
Si Si5 0.264104 0.012235 0.885888
Si Si6 0.330655 0.034255 0.588979
Si Si7 0.901353 0.722495 0.318011
O O1 0.924974 0.370521 0.258574
O O2 0.849022 0.434076 0.132922
O O3 0.900296 0.636337 0.232780
O O4 0.000000 0.500000 0.146835
O O5 0.219164 0.367362 0.064220
O O6 0.218395 0.130983 0.937458
O O7 0.624989 0.615413 0.700942
O O8 0.723191 0.491161 0.800926
O O9 0.761809 0.547091 0.652243
O O10 0.660215 0.347285 0.684298
O O11 0.383812 0.174542 0.598059
O O12 0.514853 0.283076 0.663068
O O13 0.302900 0.000000 0.500000
O O14 0.379934 0.897936 0.617466
#
# Coordination Sequence:
#
# PCOD9323905 Si02
#       7
#     8   4   8   8   8   8   8
#     4   9  18  35  61  85 115 158 203 236 286 363
#     4  10  24  34  56  90 120 154 196 254 294 362
#     4  12  22  36  65  90 121 159 198 252 305 350
#     4  10  21  37  58  89 119 159 202 243 299 355
#     4  11  20  38  59  88 124 153 200 248 302 348
#     4  11  24  40  60  88 119 159 208 248 291 358
#     4  10  21  37  58  89 119 159 202 243 299 355
#
# _framework density 19.042721
#
# number of rings (size 3 to 8) (size 9 to 14) (size 15 to 20)
#    0.000    1.538    3.077    4.615    0.000    3.692 
#    0.000    1.538    0.000    6.462    0.000   10.769 
#    0.000    0.000    0.000    0.000    0.000    0.000 
#
# Total GULP energy -144794.999048 kJ/mol
# GULP energy per Si atom -5569.038425 kJ/mol
# Density = 1.899938 g / cm^3
# Si number density = 19.042721 Si / 1000 Ang^3
#
#
#
# Elastic Constant Matrix: (Units=GPa)
#
#
# Indices 1 2 3 4 5 6 
#
# 1 78.5295 4.8561 6.1183 0.0000 0.0000 0.0000
# 2 4.8561 45.2802 -6.9061 0.0000 0.0000 0.0000
# 3 6.1183 -6.9061 70.2797 0.0000 0.0000 0.0000
# 4 0.0000 0.0000 0.0000 16.1060 0.0000 0.0000
# 5 0.0000 0.0000 0.0000 0.0000 26.5785 0.0000
# 6 0.0000 0.0000 0.0000 0.0000 0.0000 32.0416
#
#
#
# Elastic Compliance Matrix: (Units=1/GPa)
#
#
# Indices 1 2 3 4 5 6 
#
# 1 0.012932 -0.001582 -0.001281 0.000000 0.000000 0.000000
# 2 -0.001582 0.022614 0.002360 0.000000 0.000000 0.000000
# 3 -0.001281 0.002360 0.014572 0.000000 0.000000 0.000000
# 4 0.000000 0.000000 0.000000 0.062089 0.000000 0.000000
# 5 0.000000 0.000000 0.000000 0.000000 0.037624 0.000000
# 6 0.000000 0.000000 0.000000 0.000000 0.000000 0.031209
#
#
# Mechanical properties :
#
#
# Convention : Reuss Voigt Hill
#
# Bulk Modulus (GPa) = 20.36195 22.46955 21.41575
# Shear Modulus (GPa) = 25.19927 27.61328 26.40627
#
# Velocity S-wave (km/s) = 3.64167 3.81211 3.72786
# Velocity P-wave (km/s) = 5.32901 5.58582 5.45892
#
# Compressibility (1/GPa) = 0.04911120
#
# Stress axis : x y z
#
# Youngs Moduli (GPa) = 77.32911 44.21972 68.62329
#
# Poissons Ratio (x) = 0.06997 0.08792
# Poissons Ratio (y) = 0.12236 -0.16195
# Poissons Ratio (z) = 0.09908 -0.10436
#
# Static dielectric constant tensor:
#      x y z
#    x 1.684730 0.000000 0.000000 
#    y 0.000000 1.677840 0.000000 
#    z 0.000000 0.000000 1.674690 
# 
# From -- ./inp_files/36907.got.cif
#   From: 2010.05.17/outbox.cif.g08.bks.cpg/sg21_19_cif.got.tgz:36907.got - 2010.06.03 23:14:55.
