data_PCOD9323955
_publ_section_title
;
Structure prediction by ZEFSAII (Michael W. Deem and Ramdas Pophale) SiO2 
 PCOD9323955
Probable space group: C 2 2 2
;
_chemical_formula_sum "Si O2"
_cell_formula_units_Z 56
_cell_length_a 20.783465
_cell_length_b 27.763689
_cell_length_c 5.171933
_cell_angle_alpha 90.000000
_cell_angle_beta 90.000000
_cell_angle_gamma 90.000000
_cell_volume 2984.338046
_symmetry_space_group_name_H-M "C 2 2 2"
_symmetry_group_IT_number 21
_symmetry_cell_setting 'orthorhombic'
loop_
_space_group_symop_operation_xyz
x,y,z
-x,-y,z
x,-y,-z
-x,y,-z
1/2+x,1/2+y,z
1/2-x,1/2-y,z
1/2+x,1/2-y,-z
1/2-x,1/2+y,-z
loop_
_atom_site_type_symbol
_atom_site_label
_atom_site_fract_x
_atom_site_fract_y
_atom_site_fract_z
Si Si1 0.850651 0.210601 0.516140
Si Si2 0.561636 0.765378 0.173771
Si Si3 0.300701 0.658620 0.027069
Si Si4 0.163495 0.300236 0.797512
Si Si5 0.671420 0.053994 0.488849
Si Si6 0.570693 0.864389 0.477461
Si Si7 0.258260 0.554486 0.982547
O O1 0.922201 0.226607 0.605729
O O2 0.844039 0.178218 0.261645
O O3 0.821519 0.263178 0.435506
O O4 0.817740 0.182228 0.751689
O O5 0.557066 0.819023 0.290481
O O6 0.500000 0.755057 0.000000
O O7 0.626953 0.768160 0.007463
O O8 0.227733 0.675140 0.100436
O O9 0.302823 0.600865 0.016584
O O10 0.108852 0.338175 0.711543
O O11 0.620321 0.093395 0.581609
O O12 0.702544 0.059674 0.203690
O O13 0.643947 0.000000 0.500000
O O14 0.728076 0.057608 0.697718
O O15 0.500000 0.886422 0.500000
O O16 0.285097 0.500000 0.000000
#
# Coordination Sequence:
#
# PCOD9323955 Si02
#       7
#     8   8   8   8   8   8   8
#     4  11  26  36  57  87 116 152 189 237 295 346
#     4  11  23  41  58  80 117 160 200 239 284 354
#     4  12  23  38  58  86 119 149 191 244 296 351
#     4  11  23  37  56  80 116 155 192 239 286 344
#     4  10  21  38  56  79 109 148 199 254 305 341
#     4  11  22  35  56  82 107 155 211 250 288 337
#     4  10  21  39  61  82 111 154 193 235 301 361
#
# _framework density 18.764628999999999
#
# number of rings (size 3 to 8) (size 9 to 14) (size 15 to 20)
#    0.000    1.143    4.286    2.143    6.000    0.286 
#    0.000    0.000    0.000    2.571    0.000    0.000 
#    0.000    0.571    5.143    0.000    0.000    0.000 
#
# Total GULP energy -156131.456897 kJ/mol
# GULP energy per Si atom -5576.123461 kJ/mol
# Density = 1.872192 g / cm^3
# Si number density = 18.764629 Si / 1000 Ang^3
#
#
#
# Elastic Constant Matrix: (Units=GPa)
#
#
# Indices 1 2 3 4 5 6 
#
# 1 27.0524 21.4863 13.2891 0.0000 0.0000 0.0000
# 2 21.4863 118.0128 25.5709 0.0000 0.0000 0.0000
# 3 13.2891 25.5709 84.5276 0.0000 0.0000 0.0000
# 4 0.0000 0.0000 0.0000 18.1937 0.0000 0.0000
# 5 0.0000 0.0000 0.0000 0.0000 26.9815 0.0000
# 6 0.0000 0.0000 0.0000 0.0000 0.0000 15.4720
#
#
#
# Elastic Compliance Matrix: (Units=1/GPa)
#
#
# Indices 1 2 3 4 5 6 
#
# 1 0.045052 -0.007135 -0.004924 0.000000 0.000000 0.000000
# 2 -0.007135 0.010198 -0.001963 0.000000 0.000000 0.000000
# 3 -0.004924 -0.001963 0.013199 0.000000 0.000000 0.000000
# 4 0.000000 0.000000 0.000000 0.054964 0.000000 0.000000
# 5 0.000000 0.000000 0.000000 0.000000 0.037062 0.000000
# 6 0.000000 0.000000 0.000000 0.000000 0.000000 0.064633
#
#
# Mechanical properties :
#
#
# Convention : Reuss Voigt Hill
#
# Bulk Modulus (GPa) = 24.75107 38.92060 31.83583
# Shear Modulus (GPa) = 18.75321 23.41254 21.08287
#
# Velocity S-wave (km/s) = 3.16474 3.53611 3.35557
# Velocity P-wave (km/s) = 5.15491 6.12034 5.65825
#
# Compressibility (1/GPa) = 0.04040229
#
# Stress axis : x y z
#
# Youngs Moduli (GPa) = 22.19682 98.05660 75.76587
#
# Poissons Ratio (x) = 0.69968 0.37309
# Poissons Ratio (y) = 0.15838 0.14875
# Poissons Ratio (z) = 0.10930 0.19251
#
# Static dielectric constant tensor:
#      x y z
#    x 1.651730 0.000000 0.000000 
#    y 0.000000 1.698570 0.000000 
#    z 0.000000 0.000000 1.763360 
# 
# From -- ./inp_files/6154.got.cif
#   From: 2010.05.17/outbox.cif.g08.bks.cpg/sg21_4_cif.got.tgz:6154.got - 2010.06.03 23:14:55.
