data_PCOD9323530
_publ_section_title
;
Structure prediction by ZEFSAII (Michael W. Deem and Ramdas Pophale) SiO2 
 PCOD9323530
Probable space group: C 2 2 2
;
_chemical_formula_sum "Si O2"
_cell_formula_units_Z 32
_cell_length_a 19.426500
_cell_length_b 5.099684
_cell_length_c 15.985571
_cell_angle_alpha 90.000000
_cell_angle_beta 90.000000
_cell_angle_gamma 90.000000
_cell_volume 1583.674713
_symmetry_space_group_name_H-M "C 2 2 2"
_symmetry_group_IT_number 21
_symmetry_cell_setting 'orthorhombic'
loop_
_space_group_symop_operation_xyz
x,y,z
-x,-y,z
x,-y,-z
-x,y,-z
1/2+x,1/2+y,z
1/2-x,1/2-y,z
1/2+x,1/2-y,-z
1/2-x,1/2+y,-z
loop_
_atom_site_type_symbol
_atom_site_label
_atom_site_fract_x
_atom_site_fract_y
_atom_site_fract_z
Si Si1 0.300163 0.999814 0.684843
Si Si2 0.799284 0.500000 0.500000
Si Si3 0.896395 0.913058 0.095123
Si Si4 0.750000 0.250000 0.945645
Si Si5 0.571406 0.927326 0.806044
O O1 0.250000 0.750000 0.694174
O O2 0.333559 0.996658 0.591192
O O3 0.250000 0.250000 0.692660
O O4 0.361588 0.014328 0.750734
O O5 0.750000 0.250000 0.499202
O O6 0.813843 0.872997 0.103050
O O7 0.927479 0.633269 0.117375
O O8 0.922489 0.134997 0.158166
O O9 0.909122 0.000000 0.000000
O O10 0.776637 0.500000 0.000000
O O11 0.500000 0.000000 0.760715
#
# Coordination Sequence:
#
# PCOD9323530 Si02
#       5
#     8   4   8   4   8
#     4  10  21  39  64  91 117 155 195 243 295 355
#     4   8  16  34  61  90 117 144 192 240 288 352
#     4  11  24  41  61  83 116 162 205 254 300 352
#     4  10  20  38  60  88 114 140 200 272 312 344
#     4  12  26  40  58  89 125 158 201 249 300 359
#
# _framework density 20.206168000000002
#
# number of rings (size 3 to 8) (size 9 to 14) (size 15 to 20)
#    0.000    1.500    0.000    6.000    5.250    3.000 
#    0.000    0.625    0.000    0.000    0.000   14.000 
#    0.000    0.000    0.000    0.000    0.000    0.000 
#
# Total GULP energy -89345.362520 kJ/mol
# GULP energy per Si atom -5584.085157 kJ/mol
# Density = 2.016018 g / cm^3
# Si number density = 20.206168 Si / 1000 Ang^3
#
#
#
# Elastic Constant Matrix: (Units=GPa)
#
#
# Indices 1 2 3 4 5 6 
#
# 1 116.5190 33.0250 31.6004 0.0000 0.0000 0.0000
# 2 33.0250 140.0542 18.0753 0.0000 0.0000 0.0000
# 3 31.6004 18.0753 91.5355 0.0000 0.0000 0.0000
# 4 0.0000 0.0000 0.0000 19.6517 0.0000 0.0000
# 5 0.0000 0.0000 0.0000 0.0000 -2.7268 0.0000
# 6 0.0000 0.0000 0.0000 0.0000 0.0000 30.5035
#
#
#
# Elastic Compliance Matrix: (Units=1/GPa)
#
#
# Indices 1 2 3 4 5 6 
#
# 1 0.009965 -0.001956 -0.003054 0.000000 0.000000 0.000000
# 2 -0.001956 0.007711 -0.000847 0.000000 0.000000 0.000000
# 3 -0.003054 -0.000847 0.012146 0.000000 0.000000 0.000000
# 4 0.000000 0.000000 0.000000 0.050886 0.000000 0.000000
# 5 0.000000 0.000000 0.000000 0.000000 -0.366735 0.000000
# 6 0.000000 0.000000 0.000000 0.000000 0.000000 0.032783
#
#
# Mechanical properties :
#
#
# Convention : Reuss Voigt Hill
#
# Bulk Modulus (GPa) = 55.22489 57.05667 56.14078
# Shear Modulus (GPa) = -21.23199 27.17956 2.97378
#
# Velocity S-wave (km/s) = -3.24507 3.67156 1.21446
# Velocity P-wave (km/s) = 3.65368 6.80238 5.45993
#
# Compressibility (1/GPa) = 0.01810778
#
# Stress axis : x y z
#
# Youngs Moduli (GPa) = 100.35322 129.69171 82.32916
#
# Poissons Ratio (x) = 0.25362 0.25143
# Poissons Ratio (y) = 0.19625 0.06977
# Poissons Ratio (z) = 0.30647 0.10991
#
# Static dielectric constant tensor:
#      x y z
#    x 1.764400 0.000000 0.000000 
#    y 0.000000 1.703300 0.000000 
#    z 0.000000 0.000000 1.772900 
# 
# From -- ./inp_files/33059.got.cif
#   From: 2010.05.17/outbox.cif.g08.bks.cpg/sg21_17_cif.got.tgz:33059.got - 2010.06.03 23:14:55.
