data_PCOD9323331
_publ_section_title
;
Structure prediction by ZEFSAII (Michael W. Deem and Ramdas Pophale) SiO2 
 PCOD9323331
Probable space group: C 2 2 2
;
_chemical_formula_sum "Si O2"
_cell_formula_units_Z 38
_cell_length_a 10.768050
_cell_length_b 21.444521
_cell_length_c 7.065521
_cell_angle_alpha 90.000000
_cell_angle_beta 90.000000
_cell_angle_gamma 90.000000
_cell_volume 1631.539546
_symmetry_space_group_name_H-M "C 2 2 2"
_symmetry_group_IT_number 21
_symmetry_cell_setting 'orthorhombic'
loop_
_space_group_symop_operation_xyz
x,y,z
-x,-y,z
x,-y,-z
-x,y,-z
1/2+x,1/2+y,z
1/2-x,1/2-y,z
1/2+x,1/2-y,-z
1/2-x,1/2+y,-z
loop_
_atom_site_type_symbol
_atom_site_label
_atom_site_fract_x
_atom_site_fract_y
_atom_site_fract_z
Si Si1 0.188338 0.627420 0.841478
Si Si2 0.550836 0.794470 0.688772
Si Si3 0.500000 0.000000 0.500000
Si Si4 0.641907 0.510260 0.227143
Si Si5 0.250000 0.750000 0.022362
Si Si6 0.327528 0.089185 0.727037
O O1 0.061952 0.660169 0.760813
O O2 0.271513 0.572727 0.743475
O O3 0.267665 0.688845 0.894548
O O4 0.156064 0.598914 0.048428
O O5 0.500000 0.761705 0.500000
O O6 0.624816 0.756972 0.849788
O O7 0.658912 0.843782 0.631961
O O8 0.428689 0.044761 0.639641
O O9 0.500000 0.500000 0.283423
O O10 0.705398 0.449143 0.311677
O O11 0.644562 0.500000 0.000000
#
# Coordination Sequence:
#
# PCOD9323331 Si02
#       6
#     8   8   2   8   4   8
#     4  10  22  42  66  98 133 177 233 285 349 428
#     4  11  23  43  69  99 137 176 237 296 352 420
#     4  12  20  32  64  96 130 176 216 282 348 424
#     4   9  19  38  63  96 133 172 219 283 348 418
#     4  10  22  42  66  98 134 186 238 290 350 420
#     4  10  20  35  61  96 130 174 218 279 353 415
#
# _framework density 23.290886
#
# number of rings (size 3 to 8) (size 9 to 14) (size 15 to 20)
#    0.000    1.895    1.053    3.789    0.000    4.211 
#   22.737    0.526    0.000    0.000    0.000    0.000 
#    0.000    0.000    0.000    0.000    0.000    0.000 
#
# Total GULP energy -105836.334131 kJ/mol
# GULP energy per Si atom -5570.333375 kJ/mol
# Density = 2.323788 g / cm^3
# Si number density = 23.290886 Si / 1000 Ang^3
#
#
#
# Elastic Constant Matrix: (Units=GPa)
#
#
# Indices 1 2 3 4 5 6 
#
# 1 126.4187 41.6610 20.6950 0.0000 0.0000 0.0000
# 2 41.6610 92.1580 17.8889 0.0000 0.0000 0.0000
# 3 20.6950 17.8889 78.0720 0.0000 0.0000 0.0000
# 4 0.0000 0.0000 0.0000 48.4281 0.0000 0.0000
# 5 0.0000 0.0000 0.0000 0.0000 30.8545 0.0000
# 6 0.0000 0.0000 0.0000 0.0000 0.0000 2.3460
#
#
#
# Elastic Compliance Matrix: (Units=1/GPa)
#
#
# Indices 1 2 3 4 5 6 
#
# 1 0.009483 -0.003976 -0.001603 0.000000 0.000000 0.000000
# 2 -0.003976 0.013023 -0.001930 0.000000 0.000000 0.000000
# 3 -0.001603 -0.001930 0.013676 0.000000 0.000000 0.000000
# 4 0.000000 0.000000 0.000000 0.020649 0.000000 0.000000
# 5 0.000000 0.000000 0.000000 0.000000 0.032410 0.000000
# 6 0.000000 0.000000 0.000000 0.000000 0.000000 0.426262
#
#
# Mechanical properties :
#
#
# Convention : Reuss Voigt Hill
#
# Bulk Modulus (GPa) = 47.24913 50.79318 49.02116
# Shear Modulus (GPa) = 9.30103 30.75263 20.02683
#
# Velocity S-wave (km/s) = 2.00052 3.63763 2.93551
# Velocity P-wave (km/s) = 5.06623 6.28480 5.70813
#
# Compressibility (1/GPa) = 0.02116441
#
# Stress axis : x y z
#
# Youngs Moduli (GPa) = 105.45441 76.78818 73.12193
#
# Poissons Ratio (x) = 0.30529 0.11719
# Poissons Ratio (y) = 0.41925 0.14113
# Poissons Ratio (z) = 0.16901 0.14821
#
# Static dielectric constant tensor:
#      x y z
#    x 1.930750 0.000000 0.000000 
#    y 0.000000 1.886860 0.000000 
#    z 0.000000 0.000000 2.013120 
# 
# From -- ./inp_files/10997.got.cif
#   From: 2010.05.17/outbox.cif.g08.bks.cpg/sg21_6_cif.got.tgz:10997.got - 2010.06.03 23:14:55.
