data_PCOD9323643
_publ_section_title
;
Structure prediction by ZEFSAII (Michael W. Deem and Ramdas Pophale) SiO2 
 PCOD9323643
Probable space group: C 2 2 2
;
_chemical_formula_sum "Si O2"
_cell_formula_units_Z 34
_cell_length_a 6.257352
_cell_length_b 30.146973
_cell_length_c 8.687892
_cell_angle_alpha 90.000000
_cell_angle_beta 90.000000
_cell_angle_gamma 90.000000
_cell_volume 1638.885874
_symmetry_space_group_name_H-M "C 2 2 2"
_symmetry_group_IT_number 21
_symmetry_cell_setting 'orthorhombic'
loop_
_space_group_symop_operation_xyz
x,y,z
-x,-y,z
x,-y,-z
-x,y,-z
1/2+x,1/2+y,z
1/2-x,1/2-y,z
1/2+x,1/2-y,-z
1/2-x,1/2+y,-z
loop_
_atom_site_type_symbol
_atom_site_label
_atom_site_fract_x
_atom_site_fract_y
_atom_site_fract_z
Si Si1 0.500000 0.641096 0.000000
Si Si2 0.000000 0.911021 0.500000
Si Si3 0.745293 0.430489 0.793717
Si Si4 0.500000 0.500000 0.000000
Si Si5 0.397164 0.123294 0.665572
Si Si6 0.849821 0.704666 0.854291
O O1 0.636014 0.610428 0.114839
O O2 0.337631 0.672907 0.086571
O O3 0.150451 0.936608 0.621024
O O4 0.150947 0.883781 0.381788
O O5 0.993257 0.415004 0.771670
O O6 0.660867 0.471448 0.893464
O O7 0.500000 0.119829 0.500000
O O8 0.457656 0.171334 0.733775
O O9 0.750000 0.750000 0.791599
O O10 0.000000 0.715501 0.000000
#
# Coordination Sequence:
#
# PCOD9323643 Si02
#       6
#     4   4   8   2   8   8
#     4  11  20  37  62  88 128 178 210 273 336 395
#     4  10  20  39  68  90 128 180 216 260 330 415
#     4  10  21  40  66  93 130 169 214 270 337 403
#     4  10  24  42  66 108 128 164 224 292 334 406
#     4  10  22  41  64  92 127 182 222 264 340 402
#     4  12  23  38  61  94 130 173 231 281 327 390
#
# _framework density 20.745801
#
# number of rings (size 3 to 8) (size 9 to 14) (size 15 to 20)
#    0.000    1.412    5.882    0.000    0.000    0.471 
#    2.118    2.353    0.000    4.235    0.000    0.000 
#    0.000    0.000    0.000    0.000    0.000    0.000 
#
# Total GULP energy -94678.918168 kJ/mol
# GULP energy per Si atom -5569.348128 kJ/mol
# Density = 2.069858 g / cm^3
# Si number density = 20.745801 Si / 1000 Ang^3
#
#
#
# Elastic Constant Matrix: (Units=GPa)
#
#
# Indices 1 2 3 4 5 6 
#
# 1 73.8180 28.3478 22.0767 0.0000 0.0000 0.0000
# 2 28.3478 118.2263 45.4038 0.0000 0.0000 0.0000
# 3 22.0767 45.4038 84.5276 0.0000 0.0000 0.0000
# 4 0.0000 0.0000 0.0000 30.8593 0.0000 0.0000
# 5 0.0000 0.0000 0.0000 0.0000 21.1543 0.0000
# 6 0.0000 0.0000 0.0000 0.0000 0.0000 33.9175
#
#
#
# Elastic Compliance Matrix: (Units=1/GPa)
#
#
# Indices 1 2 3 4 5 6 
#
# 1 0.015348 -0.002697 -0.002560 0.000000 0.000000 0.000000
# 2 -0.002697 0.011131 -0.005274 0.000000 0.000000 0.000000
# 3 -0.002560 -0.005274 0.015332 0.000000 0.000000 0.000000
# 4 0.000000 0.000000 0.000000 0.032405 0.000000 0.000000
# 5 0.000000 0.000000 0.000000 0.000000 0.047272 0.000000
# 6 0.000000 0.000000 0.000000 0.000000 0.000000 0.029483
#
#
# Mechanical properties :
#
#
# Convention : Reuss Voigt Hill
#
# Bulk Modulus (GPa) = 48.19663 52.02539 50.11101
# Shear Modulus (GPa) = 27.94079 29.23579 28.58829
#
# Velocity S-wave (km/s) = 3.67388 3.75806 3.71621
# Velocity P-wave (km/s) = 6.42487 6.63043 6.52846
#
# Compressibility (1/GPa) = 0.02074834
#
# Stress axis : x y z
#
# Youngs Moduli (GPa) = 65.15450 89.84228 65.22236
#
# Poissons Ratio (x) = 0.24230 0.16696
# Poissons Ratio (y) = 0.17572 0.34401
# Poissons Ratio (z) = 0.16679 0.47386
#
# Static dielectric constant tensor:
#      x y z
#    x 1.854850 0.000000 0.000000 
#    y 0.000000 1.717330 0.000000 
#    z 0.000000 0.000000 1.734700 
# 
# From -- ./inp_files/9245.got.cif
#   From: 2010.05.17/outbox.cif.g08.bks.cpg/sg21_5_cif.got.tgz:9245.got - 2010.06.03 23:14:55.
