data_PCOD9323745
_publ_section_title
;
Structure prediction by ZEFSAII (Michael W. Deem and Ramdas Pophale) SiO2 
 PCOD9323745
Probable space group: C 2 2 2
;
_chemical_formula_sum "Si O2"
_cell_formula_units_Z 32
_cell_length_a 7.699562
_cell_length_b 29.729163
_cell_length_c 6.669760
_cell_angle_alpha 90.000000
_cell_angle_beta 90.000000
_cell_angle_gamma 90.000000
_cell_volume 1526.718294
_symmetry_space_group_name_H-M "C 2 2 2"
_symmetry_group_IT_number 21
_symmetry_cell_setting 'orthorhombic'
loop_
_space_group_symop_operation_xyz
x,y,z
-x,-y,z
x,-y,-z
-x,y,-z
1/2+x,1/2+y,z
1/2-x,1/2-y,z
1/2+x,1/2-y,-z
1/2-x,1/2+y,-z
loop_
_atom_site_type_symbol
_atom_site_label
_atom_site_fract_x
_atom_site_fract_y
_atom_site_fract_z
Si Si1 0.172669 0.362129 0.625548
Si Si2 0.250000 0.250000 0.204874
Si Si3 0.253783 0.462344 0.677652
Si Si4 0.500000 0.178041 0.000000
Si Si5 0.000000 0.000000 0.000000
Si Si6 0.500000 0.000000 0.000000
Si Si7 0.500000 0.302222 0.500000
O O1 0.227453 0.413489 0.584897
O O2 0.341721 0.332008 0.585273
O O3 0.000000 0.349688 0.500000
O O4 0.102484 0.353606 0.847024
O O5 0.403554 0.271651 0.336986
O O6 0.349633 0.210902 0.085350
O O7 0.257388 0.500000 0.500000
O O8 0.103710 0.470356 0.841081
O O9 0.411170 0.467441 0.835018
#
# Coordination Sequence:
#
# PCOD9323745 Si02
#       7
#     8   4   8   4   2   2   4
#     4  12  26  47  71 112 145 187 249 299 364 432
#     4  12  24  48  74 106 144 192 242 296 398 426
#     4  11  24  43  71  99 147 193 238 302 365 428
#     4  12  25  46  75 107 144 190 245 309 360 451
#     4  10  26  42  66 104 132 200 246 288 356 444
#     4  10  20  42  64 104 128 196 238 290 360 434
#     4  12  26  46  75 106 146 190 241 306 362 456
#
# _framework density 20.959987999999999
#
# number of rings (size 3 to 8) (size 9 to 14) (size 15 to 20)
#    0.000    0.500    2.500    6.000    3.500    4.000 
#    0.000    0.000    0.000    0.000    0.000    0.000 
#    0.000    0.000    0.000    0.000    0.000    0.000 
#
# Total GULP energy -89219.363003 kJ/mol
# GULP energy per Si atom -5576.210188 kJ/mol
# Density = 2.091228 g / cm^3
# Si number density = 20.959988 Si / 1000 Ang^3
#
#
#
# Elastic Constant Matrix: (Units=GPa)
#
#
# Indices 1 2 3 4 5 6 
#
# 1 118.0267 29.6241 42.9237 0.0000 0.0000 0.0000
# 2 29.6241 102.3504 41.3729 0.0000 0.0000 0.0000
# 3 42.9237 41.3729 113.6064 0.0000 0.0000 0.0000
# 4 0.0000 0.0000 0.0000 33.0242 0.0000 0.0000
# 5 0.0000 0.0000 0.0000 0.0000 29.2825 0.0000
# 6 0.0000 0.0000 0.0000 0.0000 0.0000 43.8832
#
#
#
# Elastic Compliance Matrix: (Units=1/GPa)
#
#
# Indices 1 2 3 4 5 6 
#
# 1 0.010044 -0.001610 -0.003208 0.000000 0.000000 0.000000
# 2 -0.001610 0.011715 -0.003658 0.000000 0.000000 0.000000
# 3 -0.003208 -0.003658 0.011347 0.000000 0.000000 0.000000
# 4 0.000000 0.000000 0.000000 0.030281 0.000000 0.000000
# 5 0.000000 0.000000 0.000000 0.000000 0.034150 0.000000
# 6 0.000000 0.000000 0.000000 0.000000 0.000000 0.022788
#
#
# Mechanical properties :
#
#
# Convention : Reuss Voigt Hill
#
# Bulk Modulus (GPa) = 61.91045 62.42498 62.16772
# Shear Modulus (GPa) = 35.04810 35.90885 35.47848
#
# Velocity S-wave (km/s) = 4.09362 4.14358 4.11868
# Velocity P-wave (km/s) = 7.20730 7.26223 7.23482
#
# Compressibility (1/GPa) = 0.01615236
#
# Stress axis : x y z
#
# Youngs Moduli (GPa) = 99.56585 85.36030 88.13122
#
# Poissons Ratio (x) = 0.13744 0.28276
# Poissons Ratio (y) = 0.16031 0.32239
# Poissons Ratio (z) = 0.31945 0.31225
#
# Static dielectric constant tensor:
#      x y z
#    x 1.981740 0.000000 0.000000 
#    y 0.000000 1.780550 0.000000 
#    z 0.000000 0.000000 1.706760 
# 
# From -- ./inp_files/1555.got.cif
#   From: 2010.05.17/outbox.cif.g08.bks.cpg/sg21_1_cif.got.tgz:1555.got - 2010.06.03 23:14:55.
