data_PCOD9323613
_publ_section_title
;
Structure prediction by ZEFSAII (Michael W. Deem and Ramdas Pophale) SiO2 
 PCOD9323613
Probable space group: C 2 2 2
;
_chemical_formula_sum "Si O2"
_cell_formula_units_Z 64
_cell_length_a 25.511723
_cell_length_b 8.340407
_cell_length_c 15.013806
_cell_angle_alpha 90.000000
_cell_angle_beta 90.000000
_cell_angle_gamma 90.000000
_cell_volume 3194.609912
_symmetry_space_group_name_H-M "C 2 2 2"
_symmetry_group_IT_number 21
_symmetry_cell_setting 'orthorhombic'
loop_
_space_group_symop_operation_xyz
x,y,z
-x,-y,z
x,-y,-z
-x,y,-z
1/2+x,1/2+y,z
1/2-x,1/2-y,z
1/2+x,1/2-y,-z
1/2-x,1/2+y,-z
loop_
_atom_site_type_symbol
_atom_site_label
_atom_site_fract_x
_atom_site_fract_y
_atom_site_fract_z
Si Si1 0.085453 0.695027 0.506677
Si Si2 0.695986 0.847481 0.437319
Si Si3 0.495018 0.806051 0.357001
Si Si4 0.208960 0.607473 0.089385
Si Si5 0.610881 0.304167 0.089782
Si Si6 0.299119 0.862580 0.763896
Si Si7 0.499212 0.690280 0.157657
Si Si8 0.115764 0.172037 0.119750
O O1 0.086438 0.500000 0.500000
O O2 0.144771 0.746156 0.525520
O O3 0.055271 0.741626 0.416490
O O4 0.046768 0.742329 0.587354
O O5 0.750000 0.750000 0.439371
O O6 0.682229 0.902834 0.335998
O O7 0.703204 0.000000 0.500000
O O8 0.491321 0.728696 0.260851
O O9 0.500000 0.000000 0.348567
O O10 0.250000 0.750000 0.072561
O O11 0.153375 0.678264 0.121316
O O12 0.224208 0.500563 0.173365
O O13 0.204767 0.500000 0.000000
O O14 0.551117 0.248535 0.103585
O O15 0.616555 0.479143 0.135989
O O16 0.625376 0.317602 0.985659
O O17 0.250000 0.750000 0.749152
O O18 0.343450 0.769299 0.820612
O O19 0.500000 0.500000 0.139982
O O20 0.557646 0.743433 0.133559
#
# Coordination Sequence:
#
# PCOD9323613 Si02
#       8
#     8   8   8   8   8   8   8   8
#     4   8  16  33  57  82 108 148 192 242 303 358
#     4  10  22  40  61  85 119 159 198 246 310 372
#     4   9  17  33  57  83 110 146 198 248 297 354
#     4  12  25  40  63  92 122 157 204 259 307 358
#     4  10  22  37  59  87 119 162 205 248 299 365
#     4  11  23  41  64  92 122 160 205 255 312 371
#     4  10  21  36  55  85 121 162 198 243 304 366
#     4  10  20  39  62  82 122 166 205 243 303 362
#
# _framework density 20.033746000000001
#
# number of rings (size 3 to 8) (size 9 to 14) (size 15 to 20)
#    0.000    2.000    1.250    3.000    1.750    6.000 
#    0.000    7.500    0.000    0.000    0.000    0.000 
#    0.000    0.000    0.000    0.000    0.000    0.000 
#
# Total GULP energy -178461.910936 kJ/mol
# GULP energy per Si atom -5576.934717 kJ/mol
# Density = 1.998815 g / cm^3
# Si number density = 20.033746 Si / 1000 Ang^3
#
#
#
# Elastic Constant Matrix: (Units=GPa)
#
#
# Indices 1 2 3 4 5 6 
#
# 1 112.6063 25.7778 21.5957 0.0000 0.0000 0.0000
# 2 25.7778 33.8969 18.7821 0.0000 0.0000 0.0000
# 3 21.5957 18.7821 84.7588 0.0000 0.0000 0.0000
# 4 0.0000 0.0000 0.0000 19.3172 0.0000 0.0000
# 5 0.0000 0.0000 0.0000 0.0000 27.3175 0.0000
# 6 0.0000 0.0000 0.0000 0.0000 0.0000 24.8825
#
#
#
# Elastic Compliance Matrix: (Units=1/GPa)
#
#
# Indices 1 2 3 4 5 6 
#
# 1 0.010836 -0.007650 -0.001066 0.000000 0.000000 0.000000
# 2 -0.007650 0.039031 -0.006700 0.000000 0.000000 0.000000
# 3 -0.001066 -0.006700 0.013554 0.000000 0.000000 0.000000
# 4 0.000000 0.000000 0.000000 0.051767 0.000000 0.000000
# 5 0.000000 0.000000 0.000000 0.000000 0.036607 0.000000
# 6 0.000000 0.000000 0.000000 0.000000 0.000000 0.040189
#
#
# Mechanical properties :
#
#
# Convention : Reuss Voigt Hill
#
# Bulk Modulus (GPa) = 30.68401 40.39703 35.54052
# Shear Modulus (GPa) = 21.39681 25.31053 23.35367
#
# Velocity S-wave (km/s) = 3.27163 3.55828 3.41796
# Velocity P-wave (km/s) = 5.44250 6.09016 5.77542
#
# Compressibility (1/GPa) = 0.03259027
#
# Stress axis : x y z
#
# Youngs Moduli (GPa) = 92.28377 25.62045 73.77674
#
# Poissons Ratio (x) = 0.19600 0.07863
# Poissons Ratio (y) = 0.70598 0.49430
# Poissons Ratio (z) = 0.09835 0.17166
#
# Static dielectric constant tensor:
#      x y z
#    x 1.741600 0.000000 0.000000 
#    y 0.000000 1.703400 0.000000 
#    z 0.000000 0.000000 1.711650 
# 
# From -- ./inp_files/33627.got.cif
#   From: 2010.05.17/outbox.cif.g08.bks.cpg/sg21_17_cif.got.tgz:33627.got - 2010.06.03 23:14:55.
