data_PCOD9323073
_publ_section_title
;
Structure prediction by ZEFSAII (Michael W. Deem and Ramdas Pophale) SiO2 
 PCOD9323073
Probable space group: C 2 2 2
;
_chemical_formula_sum "Si O2"
_cell_formula_units_Z 60
_cell_length_a 20.259771
_cell_length_b 12.785549
_cell_length_c 11.107417
_cell_angle_alpha 90.000000
_cell_angle_beta 90.000000
_cell_angle_gamma 90.000000
_cell_volume 2877.179715
_symmetry_space_group_name_H-M "C 2 2 2"
_symmetry_group_IT_number 21
_symmetry_cell_setting 'orthorhombic'
loop_
_space_group_symop_operation_xyz
x,y,z
-x,-y,z
x,-y,-z
-x,y,-z
1/2+x,1/2+y,z
1/2-x,1/2-y,z
1/2+x,1/2-y,-z
1/2-x,1/2+y,-z
loop_
_atom_site_type_symbol
_atom_site_label
_atom_site_fract_x
_atom_site_fract_y
_atom_site_fract_z
Si Si1 0.308573 0.333904 0.550877
Si Si2 0.480360 0.116089 0.213372
Si Si3 0.728154 0.556750 0.334783
Si Si4 0.883642 0.311842 0.293756
Si Si5 0.770386 0.602100 0.060794
Si Si6 0.500000 0.277197 0.000000
Si Si7 0.353202 0.712094 0.036603
Si Si8 0.131163 0.532788 0.625803
O O1 0.250000 0.250000 0.568249
O O2 0.318451 0.366781 0.411851
O O3 0.294604 0.439582 0.628944
O O4 0.369961 0.271701 0.604200
O O5 0.540364 0.154787 0.295206
O O6 0.414527 0.100570 0.289256
O O7 0.500000 0.000000 0.167714
O O8 0.481860 0.199707 0.108693
O O9 0.742430 0.581329 0.195227
O O10 0.798385 0.582757 0.399141
O O11 0.858923 0.263199 0.168460
O O12 0.849611 0.424276 0.309310
O O13 0.801584 0.500000 0.000000
O O14 0.706250 0.630449 0.979051
O O15 0.824526 0.694935 0.050550
O O16 0.428084 0.330971 0.982717
O O17 0.098630 0.500000 0.500000
#
# Coordination Sequence:
#
# PCOD9323073 Si02
#       8
#     8   8   8   8   8   4   8   8
#     4  11  21  36  59  84 124 166 202 251 301 391
#     4   9  20  32  57  82 120 162 201 251 297 385
#     4  11  22  36  59  94 121 166 209 253 326 374
#     4  10  20  36  56  82 119 170 201 242 311 377
#     4  11  23  39  60  93 125 159 206 273 315 372
#     4  10  19  40  55  86 124 164 210 246 324 374
#     4  10  23  38  62  88 123 164 205 260 316 382
#     4  11  19  36  55  91 126 155 209 251 317 387
#
# _framework density 20.853753999999999
#
# number of rings (size 3 to 8) (size 9 to 14) (size 15 to 20)
#    0.000    1.600    2.667    2.600    3.733    4.533 
#    2.400    0.333    0.000    0.000    0.000    0.000 
#    8.000    0.000    0.000    0.000    0.000    0.000 
#
# Total GULP energy -167220.200349 kJ/mol
# GULP energy per Si atom -5574.006678 kJ/mol
# Density = 2.080629 g / cm^3
# Si number density = 20.853754 Si / 1000 Ang^3
#
#
#
# Elastic Constant Matrix: (Units=GPa)
#
#
# Indices 1 2 3 4 5 6 
#
# 1 69.7114 3.9716 -2.4543 0.0000 0.0000 0.0000
# 2 3.9716 56.0881 8.3597 0.0000 0.0000 0.0000
# 3 -2.4543 8.3597 85.7847 0.0000 0.0000 0.0000
# 4 0.0000 0.0000 0.0000 35.0657 0.0000 0.0000
# 5 0.0000 0.0000 0.0000 0.0000 18.9060 0.0000
# 6 0.0000 0.0000 0.0000 0.0000 0.0000 26.0524
#
#
#
# Elastic Compliance Matrix: (Units=1/GPa)
#
#
# Indices 1 2 3 4 5 6 
#
# 1 0.014426 -0.001099 0.000520 0.000000 0.000000 0.000000
# 2 -0.001099 0.018176 -0.001803 0.000000 0.000000 0.000000
# 3 0.000520 -0.001803 0.011848 0.000000 0.000000 0.000000
# 4 0.000000 0.000000 0.000000 0.028518 0.000000 0.000000
# 5 0.000000 0.000000 0.000000 0.000000 0.052893 0.000000
# 6 0.000000 0.000000 0.000000 0.000000 0.000000 0.038384
#
#
# Mechanical properties :
#
#
# Convention : Reuss Voigt Hill
#
# Bulk Modulus (GPa) = 25.19821 25.70426 25.45123
# Shear Modulus (GPa) = 27.43687 29.45195 28.44441
#
# Velocity S-wave (km/s) = 3.63117 3.76215 3.69724
# Velocity P-wave (km/s) = 5.44885 5.58788 5.51880
#
# Compressibility (1/GPa) = 0.03968537
#
# Stress axis : x y z
#
# Youngs Moduli (GPa) = 69.32040 55.01883 84.40512
#
# Poissons Ratio (x) = 0.06046 -0.04387
# Poissons Ratio (y) = 0.07618 0.15215
# Poissons Ratio (z) = -0.03603 0.09918
#
# Static dielectric constant tensor:
#      x y z
#    x 1.857180 0.000000 0.000000 
#    y 0.000000 1.782090 0.000000 
#    z 0.000000 0.000000 1.816730 
# 
# From -- ./inp_files/26891.got.cif
#   From: 2010.05.17/outbox.cif.g08.bks.cpg/sg21_14_cif.got.tgz:26891.got - 2010.06.03 23:14:55.
