data_PCOD9323261
_publ_section_title
;
Structure prediction by ZEFSAII (Michael W. Deem and Ramdas Pophale) SiO2 
 PCOD9323261
Probable space group: C 2 2 2
;
_chemical_formula_sum "Si O2"
_cell_formula_units_Z 34
_cell_length_a 23.336038
_cell_length_b 9.153665
_cell_length_c 7.480473
_cell_angle_alpha 90.000000
_cell_angle_beta 90.000000
_cell_angle_gamma 90.000000
_cell_volume 1597.905889
_symmetry_space_group_name_H-M "C 2 2 2"
_symmetry_group_IT_number 21
_symmetry_cell_setting 'orthorhombic'
loop_
_space_group_symop_operation_xyz
x,y,z
-x,-y,z
x,-y,-z
-x,y,-z
1/2+x,1/2+y,z
1/2-x,1/2-y,z
1/2+x,1/2-y,-z
1/2-x,1/2+y,-z
loop_
_atom_site_type_symbol
_atom_site_label
_atom_site_fract_x
_atom_site_fract_y
_atom_site_fract_z
Si Si1 0.500000 0.000000 0.500000
Si Si2 0.500000 0.000000 0.000000
Si Si3 0.651564 0.500000 0.500000
Si Si4 0.700958 0.628221 0.144605
Si Si5 0.054623 0.783525 0.380446
Si Si6 0.077365 0.236453 0.042919
Si Si7 0.000000 0.000000 0.000000
O O1 0.457008 0.889699 0.400903
O O2 0.455577 0.885388 0.907837
O O3 0.689337 0.545508 0.330567
O O4 0.609885 0.362278 0.462449
O O5 0.750000 0.750000 0.153477
O O6 0.711589 0.500000 0.000000
O O7 0.642402 0.714333 0.093056
O O8 0.066798 0.792226 0.167723
O O9 0.000000 0.837996 0.500000
O O10 0.041085 0.100959 0.120384
#
# Coordination Sequence:
#
# PCOD9323261 Si02
#       7
#     2   2   4   8   8   8   2
#     4   8  22  34  58 110 166 204 226 286 372 474
#     4  10  26  34  68 110 146 190 234 286 396 452
#     4  12  25  48  77 106 142 204 260 324 384 456
#     4  12  29  54  76 107 147 206 271 327 383 452
#     4  10  22  38  67 108 158 189 239 297 386 475
#     4  11  22  43  69 105 150 192 240 312 374 465
#     4  10  20  34  68  98 136 170 234 288 384 452
#
# _framework density 21.277847000000001
#
# number of rings (size 3 to 8) (size 9 to 14) (size 15 to 20)
#    0.706    0.471    3.529    1.059   11.529    0.941 
#    0.000    0.000    0.000    0.000    0.000    0.000 
#    0.000    0.000    0.000    0.000    0.000    0.000 
#
# Total GULP energy -94722.762420 kJ/mol
# GULP energy per Si atom -5571.927201 kJ/mol
# Density = 2.122942 g / cm^3
# Si number density = 21.277847 Si / 1000 Ang^3
#
#
#
# Elastic Constant Matrix: (Units=GPa)
#
#
# Indices 1 2 3 4 5 6 
#
# 1 180.4488 86.9150 64.2382 0.0000 0.0000 0.0000
# 2 86.9150 190.3748 54.1658 0.0000 0.0000 0.0000
# 3 64.2382 54.1658 172.5756 0.0000 0.0000 0.0000
# 4 0.0000 0.0000 0.0000 27.3017 0.0000 0.0000
# 5 0.0000 0.0000 0.0000 0.0000 13.5376 0.0000
# 6 0.0000 0.0000 0.0000 0.0000 0.0000 38.1595
#
#
#
# Elastic Compliance Matrix: (Units=1/GPa)
#
#
# Indices 1 2 3 4 5 6 
#
# 1 0.007643 -0.002943 -0.001921 0.000000 0.000000 0.000000
# 2 -0.002943 0.006901 -0.001071 0.000000 0.000000 0.000000
# 3 -0.001921 -0.001071 0.006846 0.000000 0.000000 0.000000
# 4 0.000000 0.000000 0.000000 0.036628 0.000000 0.000000
# 5 0.000000 0.000000 0.000000 0.000000 0.073869 0.000000
# 6 0.000000 0.000000 0.000000 0.000000 0.000000 0.026206
#
#
# Mechanical properties :
#
#
# Convention : Reuss Voigt Hill
#
# Bulk Modulus (GPa) = 105.03793 106.00415 105.52104
# Shear Modulus (GPa) = 28.87922 38.33844 33.60883
#
# Velocity S-wave (km/s) = 3.68808 4.24937 3.97863
# Velocity P-wave (km/s) = 8.22241 8.60252 8.41461
#
# Compressibility (1/GPa) = 0.00952037
#
# Stress axis : x y z
#
# Youngs Moduli (GPa) = 130.83604 144.90831 146.07534
#
# Poissons Ratio (x) = 0.42643 0.28067
# Poissons Ratio (y) = 0.38502 0.15638
# Poissons Ratio (z) = 0.25139 0.15513
#
# Static dielectric constant tensor:
#      x y z
#    x 1.769260 0.000000 0.000000 
#    y 0.000000 1.834740 0.000000 
#    z 0.000000 0.000000 1.907300 
# 
# From -- ./inp_files/17225.got.cif
#   From: 2010.05.17/outbox.cif.g08.bks.cpg/sg21_9_cif.got.tgz:17225.got - 2010.06.03 23:14:55.
