data_PCOD9323324
_publ_section_title
;
Structure prediction by ZEFSAII (Michael W. Deem and Ramdas Pophale) SiO2 
 PCOD9323324
Probable space group: C 2 2 2
;
_chemical_formula_sum "Si O2"
_cell_formula_units_Z 48
_cell_length_a 8.624613
_cell_length_b 30.287634
_cell_length_c 10.442515
_cell_angle_alpha 90.000000
_cell_angle_beta 90.000000
_cell_angle_gamma 90.000000
_cell_volume 2727.784599
_symmetry_space_group_name_H-M "C 2 2 2"
_symmetry_group_IT_number 21
_symmetry_cell_setting 'orthorhombic'
loop_
_space_group_symop_operation_xyz
x,y,z
-x,-y,z
x,-y,-z
-x,y,-z
1/2+x,1/2+y,z
1/2-x,1/2-y,z
1/2+x,1/2-y,-z
1/2-x,1/2+y,-z
loop_
_atom_site_type_symbol
_atom_site_label
_atom_site_fract_x
_atom_site_fract_y
_atom_site_fract_z
Si Si1 0.324480 0.867455 0.484514
Si Si2 0.679159 0.996559 0.152833
Si Si3 0.380458 0.286036 0.608781
Si Si4 0.510535 0.661918 0.855374
Si Si5 0.826892 0.090725 0.728468
Si Si6 0.675864 0.584467 0.739210
O O1 0.500000 0.851863 0.500000
O O2 0.205947 0.827812 0.455869
O O3 0.274680 0.893282 0.610982
O O4 0.299760 0.899734 0.364248
O O5 0.754916 0.951152 0.201023
O O6 0.500000 0.000000 0.195331
O O7 0.773824 0.038498 0.202871
O O8 0.682197 0.000000 0.000000
O O9 0.500000 0.269789 0.500000
O O10 0.250000 0.250000 0.638486
O O11 0.459983 0.303542 0.740086
O O12 0.646492 0.624545 0.840131
O O13 0.500000 0.679060 0.000000
O O14 0.641043 0.632591 0.178740
O O15 0.002442 0.080093 0.680781
#
# Coordination Sequence:
#
# PCOD9323324 Si02
#       6
#     8   8   8   8   8   8
#     4  11  20  37  59  87 118 152 196 249 316 368
#     4  11  22  34  50  83 121 160 209 253 299 353
#     4  11  21  40  63  93 119 151 202 250 310 374
#     4   9  19  36  63  85 116 159 198 244 299 366
#     4  10  20  35  60  80 118 157 203 249 290 360
#     4   9  20  34  55  81 115 154 210 240 297 353
#
# _framework density 17.596696999999999
#
# number of rings (size 3 to 8) (size 9 to 14) (size 15 to 20)
#    1.000    0.833    1.667    3.500    0.000    1.333 
#    0.000    4.167    0.000    0.000    0.000    0.000 
#    0.000    0.000    0.000    0.000    0.000    0.000 
#
# Total GULP energy -133668.608966 kJ/mol
# GULP energy per Si atom -5569.525374 kJ/mol
# Density = 1.755665 g / cm^3
# Si number density = 17.596697 Si / 1000 Ang^3
#
#
#
# Elastic Constant Matrix: (Units=GPa)
#
#
# Indices 1 2 3 4 5 6 
#
# 1 56.9824 5.4965 20.1493 0.0000 0.0000 0.0000
# 2 5.4965 72.6195 31.0273 0.0000 0.0000 0.0000
# 3 20.1493 31.0273 98.8017 0.0000 0.0000 0.0000
# 4 0.0000 0.0000 0.0000 10.4733 0.0000 0.0000
# 5 0.0000 0.0000 0.0000 0.0000 20.2100 0.0000
# 6 0.0000 0.0000 0.0000 0.0000 0.0000 31.1492
#
#
#
# Elastic Compliance Matrix: (Units=1/GPa)
#
#
# Indices 1 2 3 4 5 6 
#
# 1 0.018917 0.000250 -0.003936 0.000000 0.000000 0.000000
# 2 0.000250 0.015908 -0.005047 0.000000 0.000000 0.000000
# 3 -0.003936 -0.005047 0.012509 0.000000 0.000000 0.000000
# 4 0.000000 0.000000 0.000000 0.095481 0.000000 0.000000
# 5 0.000000 0.000000 0.000000 0.000000 0.049481 0.000000
# 6 0.000000 0.000000 0.000000 0.000000 0.000000 0.032104
#
#
# Mechanical properties :
#
#
# Convention : Reuss Voigt Hill
#
# Bulk Modulus (GPa) = 33.48092 37.97221 35.72656
# Shear Modulus (GPa) = 19.85537 23.81516 21.83527
#
# Velocity S-wave (km/s) = 3.36275 3.68283 3.52642
# Velocity P-wave (km/s) = 5.84342 6.30162 6.07684
#
# Compressibility (1/GPa) = 0.02986775
#
# Stress axis : x y z
#
# Youngs Moduli (GPa) = 52.86219 62.86271 79.94324
#
# Poissons Ratio (x) = -0.01572 0.31469
# Poissons Ratio (y) = -0.01322 0.40344
# Poissons Ratio (z) = 0.20809 0.31724
#
# Static dielectric constant tensor:
#      x y z
#    x 1.610820 0.000000 0.000000 
#    y 0.000000 1.587610 0.000000 
#    z 0.000000 0.000000 1.595600 
# 
# From -- ./inp_files/11516.got.cif
#   From: 2010.05.17/outbox.cif.g08.bks.cpg/sg21_6_cif.got.tgz:11516.got - 2010.06.03 23:14:55.
