data_PCOD9323599
_publ_section_title
;
Structure prediction by ZEFSAII (Michael W. Deem and Ramdas Pophale) SiO2 
 PCOD9323599
Probable space group: C 2 2 2
;
_chemical_formula_sum "Si O2"
_cell_formula_units_Z 48
_cell_length_a 19.086718
_cell_length_b 9.471477
_cell_length_c 14.239175
_cell_angle_alpha 90.000000
_cell_angle_beta 90.000000
_cell_angle_gamma 90.000000
_cell_volume 2574.149663
_symmetry_space_group_name_H-M "C 2 2 2"
_symmetry_group_IT_number 21
_symmetry_cell_setting 'orthorhombic'
loop_
_space_group_symop_operation_xyz
x,y,z
-x,-y,z
x,-y,-z
-x,y,-z
1/2+x,1/2+y,z
1/2-x,1/2-y,z
1/2+x,1/2-y,-z
1/2-x,1/2+y,-z
loop_
_atom_site_type_symbol
_atom_site_label
_atom_site_fract_x
_atom_site_fract_y
_atom_site_fract_z
Si Si1 0.516569 0.649437 0.742115
Si Si2 0.926218 0.136299 0.052775
Si Si3 0.309859 0.000000 0.500000
Si Si4 0.750000 0.750000 0.378499
Si Si5 0.818393 0.660390 0.025793
Si Si6 0.127008 0.686223 0.763829
Si Si7 0.073660 0.574138 0.353322
O O1 0.500000 0.500000 0.693401
O O2 0.558888 0.614748 0.837619
O O3 0.442536 0.719632 0.769525
O O4 0.555938 0.769740 0.683152
O O5 0.880344 0.272908 0.035358
O O6 0.000000 0.155676 0.000000
O O7 0.893370 0.000000 0.000000
O O8 0.263210 0.112945 0.443477
O O9 0.364605 0.076732 0.570321
O O10 0.818139 0.751518 0.310823
O O11 0.750000 0.750000 0.005952
O O12 0.838437 0.675376 0.134804
O O13 0.807087 0.500000 0.000000
O O14 0.102476 0.532121 0.727083
O O15 0.000000 0.500000 0.385156
#
# Coordination Sequence:
#
# PCOD9323599 Si02
#       7
#     8   8   4   4   8   8   8
#     4  11  20  35  60  90 121 153 197 246 291 339
#     4  11  20  37  57  84 122 164 198 242 292 335
#     4  10  21  40  64  86 117 152 190 244 300 368
#     4  10  22  40  64  84 116 152 194 238 304 360
#     4  12  24  37  57  82 119 162 209 244 288 345
#     4  10  20  39  58  82 117 159 192 240 292 352
#     4   9  20  36  60  87 114 149 193 241 300 351
#
# _framework density 18.646934999999999
#
# number of rings (size 3 to 8) (size 9 to 14) (size 15 to 20)
#    0.000    1.500    4.167    1.750    0.000    1.667 
#    0.000    0.000    9.167    9.000    0.000    0.000 
#    0.000    0.000    0.000    0.000    0.000    0.000 
#
# Total GULP energy -133965.642813 kJ/mol
# GULP energy per Si atom -5581.901784 kJ/mol
# Density = 1.860449 g / cm^3
# Si number density = 18.646935 Si / 1000 Ang^3
#
#
#
# Elastic Constant Matrix: (Units=GPa)
#
#
# Indices 1 2 3 4 5 6 
#
# 1 66.2915 52.1013 23.4522 0.0000 0.0000 0.0000
# 2 52.1013 160.9105 45.5348 0.0000 0.0000 0.0000
# 3 23.4522 45.5348 70.0696 0.0000 0.0000 0.0000
# 4 0.0000 0.0000 0.0000 16.9988 0.0000 0.0000
# 5 0.0000 0.0000 0.0000 0.0000 13.2662 0.0000
# 6 0.0000 0.0000 0.0000 0.0000 0.0000 34.5533
#
#
#
# Elastic Compliance Matrix: (Units=1/GPa)
#
#
# Indices 1 2 3 4 5 6 
#
# 1 0.020792 -0.005836 -0.003166 0.000000 0.000000 0.000000
# 2 -0.005836 0.009253 -0.004060 0.000000 0.000000 0.000000
# 3 -0.003166 -0.004060 0.017970 0.000000 0.000000 0.000000
# 4 0.000000 0.000000 0.000000 0.058828 0.000000 0.000000
# 5 0.000000 0.000000 0.000000 0.000000 0.075380 0.000000
# 6 0.000000 0.000000 0.000000 0.000000 0.000000 0.028941
#
#
# Mechanical properties :
#
#
# Convention : Reuss Voigt Hill
#
# Bulk Modulus (GPa) = 45.68312 59.93870 52.81091
# Shear Modulus (GPa) = 20.44284 24.70921 22.57602
#
# Velocity S-wave (km/s) = 3.31465 3.64415 3.48330
# Velocity P-wave (km/s) = 6.26110 7.06543 6.67539
#
# Compressibility (1/GPa) = 0.02188993
#
# Stress axis : x y z
#
# Youngs Moduli (GPa) = 48.09535 108.07062 55.64959
#
# Poissons Ratio (x) = 0.63072 0.17621
# Poissons Ratio (y) = 0.28070 0.22593
# Poissons Ratio (z) = 0.15229 0.43875
#
# Static dielectric constant tensor:
#      x y z
#    x 1.634680 0.000000 0.000000 
#    y 0.000000 1.601660 0.000000 
#    z 0.000000 0.000000 1.638470 
# 
# From -- ./inp_files/30573.got.cif
#   From: 2010.05.17/outbox.cif.g08.bks.cpg/sg21_16_cif.got.tgz:30573.got - 2010.06.03 23:14:55.
