data_PCOD9323810
_publ_section_title
;
Structure prediction by ZEFSAII (Michael W. Deem and Ramdas Pophale) SiO2 
 PCOD9323810
Probable space group: C 2 2 2
;
_chemical_formula_sum "Si O2"
_cell_formula_units_Z 44
_cell_length_a 31.127497
_cell_length_b 5.509014
_cell_length_c 13.528177
_cell_angle_alpha 90.000000
_cell_angle_beta 90.000000
_cell_angle_gamma 90.000000
_cell_volume 2319.836369
_symmetry_space_group_name_H-M "C 2 2 2"
_symmetry_group_IT_number 21
_symmetry_cell_setting 'orthorhombic'
loop_
_space_group_symop_operation_xyz
x,y,z
-x,-y,z
x,-y,-z
-x,y,-z
1/2+x,1/2+y,z
1/2-x,1/2-y,z
1/2+x,1/2-y,-z
1/2-x,1/2+y,-z
loop_
_atom_site_type_symbol
_atom_site_label
_atom_site_fract_x
_atom_site_fract_y
_atom_site_fract_z
Si Si1 0.250000 0.750000 0.252318
Si Si2 0.328242 0.564682 0.750186
Si Si3 0.698186 0.249694 0.558893
Si Si4 0.882219 0.169119 0.099873
Si Si5 0.017713 0.252546 0.887609
Si Si6 0.696353 0.950060 0.104602
O O1 0.292401 0.620688 0.294405
O O2 0.228061 0.549814 0.185899
O O3 0.328568 0.755097 0.661402
O O4 0.371563 0.451834 0.793029
O O5 0.312942 0.683913 0.854376
O O6 0.688156 0.500000 0.500000
O O7 0.750000 0.250000 0.578734
O O8 0.690144 0.000000 0.500000
O O9 0.930994 0.256924 0.103926
O O10 0.846970 0.385965 0.097608
O O11 0.878474 0.000000 0.000000
O O12 0.000000 0.500000 0.840236
O O13 0.000000 0.000000 0.843022
O O14 0.000000 0.251712 0.000000
O O15 0.717703 0.000000 0.000000
#
# Coordination Sequence:
#
# PCOD9323810 Si02
#       6
#     4   8   8   8   8   8
#     4  10  24  34  52  74 112 154 214 244 296 336
#     4  11  24  39  57  82 118 156 209 257 298 369
#     4  10  23  40  64  84 110 152 209 266 321 358
#     4  11  22  37  53  86 119 169 200 243 300 353
#     4  10  21  34  58  80 115 160 207 241 283 353
#     4  11  23  32  53  73 116 158 203 239 288 352
#
# _framework density 18.966856
#
# number of rings (size 3 to 8) (size 9 to 14) (size 15 to 20)
#    0.000    1.455    3.636    1.636   16.545    0.000 
#    0.000    0.000    0.000    0.000    0.000    0.000 
#    0.000    0.727    2.182    0.000    0.000    0.000 
#
# Total GULP energy -122467.863037 kJ/mol
# GULP energy per Si atom -5566.721047 kJ/mol
# Density = 1.892369 g / cm^3
# Si number density = 18.966856 Si / 1000 Ang^3
#
#
#
# Elastic Constant Matrix: (Units=GPa)
#
#
# Indices 1 2 3 4 5 6 
#
# 1 114.1807 31.3723 20.4192 0.0000 0.0000 0.0000
# 2 31.3723 94.1994 23.3641 0.0000 0.0000 0.0000
# 3 20.4192 23.3641 93.5134 0.0000 0.0000 0.0000
# 4 0.0000 0.0000 0.0000 20.6484 0.0000 0.0000
# 5 0.0000 0.0000 0.0000 0.0000 12.8968 0.0000
# 6 0.0000 0.0000 0.0000 0.0000 0.0000 39.7644
#
#
#
# Elastic Compliance Matrix: (Units=1/GPa)
#
#
# Indices 1 2 3 4 5 6 
#
# 1 0.009812 -0.002917 -0.001414 0.000000 0.000000 0.000000
# 2 -0.002917 0.012184 -0.002407 0.000000 0.000000 0.000000
# 3 -0.001414 -0.002407 0.011604 0.000000 0.000000 0.000000
# 4 0.000000 0.000000 0.000000 0.048430 0.000000 0.000000
# 5 0.000000 0.000000 0.000000 0.000000 0.077539 0.000000
# 6 0.000000 0.000000 0.000000 0.000000 0.000000 0.025148
#
#
# Mechanical properties :
#
#
# Convention : Reuss Voigt Hill
#
# Bulk Modulus (GPa) = 49.69163 50.24498 49.96831
# Shear Modulus (GPa) = 24.40191 29.77777 27.08984
#
# Velocity S-wave (km/s) = 3.59075 3.96661 3.78335
# Velocity P-wave (km/s) = 6.59146 6.89399 6.74442
#
# Compressibility (1/GPa) = 0.02012411
#
# Stress axis : x y z
#
# Youngs Moduli (GPa) = 101.91163 82.07200 86.17876
#
# Poissons Ratio (x) = 0.23943 0.12183
# Poissons Ratio (y) = 0.29731 0.20745
# Poissons Ratio (z) = 0.14407 0.19757
#
# Static dielectric constant tensor:
#      x y z
#    x 1.666220 0.000000 0.000000 
#    y 0.000000 1.799530 0.000000 
#    z 0.000000 0.000000 1.670590 
# 
# From -- ./inp_files/33953.got.cif
#   From: 2010.05.17/outbox.cif.g08.bks.cpg/sg21_17_cif.got.tgz:33953.got - 2010.06.03 23:14:55.
