data_PCOD9323262
_publ_section_title
;
Structure prediction by ZEFSAII (Michael W. Deem and Ramdas Pophale) SiO2 
 PCOD9323262
Probable space group: C 2 2 2
;
_chemical_formula_sum "Si O2"
_cell_formula_units_Z 38
_cell_length_a 8.566538
_cell_length_b 19.385799
_cell_length_c 12.681337
_cell_angle_alpha 90.000000
_cell_angle_beta 90.000000
_cell_angle_gamma 90.000000
_cell_volume 2105.979285
_symmetry_space_group_name_H-M "C 2 2 2"
_symmetry_group_IT_number 21
_symmetry_cell_setting 'orthorhombic'
loop_
_space_group_symop_operation_xyz
x,y,z
-x,-y,z
x,-y,-z
-x,y,-z
1/2+x,1/2+y,z
1/2-x,1/2-y,z
1/2+x,1/2-y,-z
1/2-x,1/2+y,-z
loop_
_atom_site_type_symbol
_atom_site_label
_atom_site_fract_x
_atom_site_fract_y
_atom_site_fract_z
Si Si1 0.910269 0.606019 0.831184
Si Si2 0.000000 0.117264 0.500000
Si Si3 0.755776 0.000000 0.500000
Si Si4 0.000000 0.500000 0.326913
Si Si5 0.859988 0.182898 0.289428
Si Si6 0.563842 0.748299 0.112026
Si Si7 0.000000 0.500000 0.000000
O O1 0.019271 0.566515 0.746832
O O2 0.751901 0.627872 0.770660
O O3 0.897724 0.550820 0.926063
O O4 0.991241 0.675362 0.872259
O O5 0.936208 0.158933 0.399248
O O6 0.139435 0.065257 0.470185
O O7 0.645442 0.984952 0.598469
O O8 0.750000 0.250000 0.307475
O O9 0.994808 0.204051 0.207718
O O10 0.750000 0.750000 0.111020
O O11 0.500000 0.721708 0.000000
#
# Coordination Sequence:
#
# PCOD9323262 Si02
#       7
#     8   4   4   4   8   8   2
#     4  10  20  39  62  94 120 161 203 251 307 376
#     4  11  22  42  60  90 128 159 214 254 312 359
#     4  10  22  38  64  84 118 174 196 262 298 368
#     4  10  20  38  62  88 122 160 208 246 310 364
#     4  10  23  42  62  89 128 159 207 262 306 370
#     4  11  23  40  65  90 121 163 201 255 316 369
#     4  10  20  34  72  88 128 154 202 248 308 366
#
# _framework density 18.043862000000001
#
# number of rings (size 3 to 8) (size 9 to 14) (size 15 to 20)
#    0.000    1.684    3.158    1.895    2.947    0.842 
#    3.789    0.000    0.000    1.263    0.000    0.000 
#    0.000    0.000    0.000    0.000    0.000    0.000 
#
# Total GULP energy -105934.039033 kJ/mol
# GULP energy per Si atom -5575.475739 kJ/mol
# Density = 1.800279 g / cm^3
# Si number density = 18.043862 Si / 1000 Ang^3
#
#
#
# Elastic Constant Matrix: (Units=GPa)
#
#
# Indices 1 2 3 4 5 6 
#
# 1 115.2397 29.3706 61.3995 0.0000 0.0000 0.0000
# 2 29.3706 71.9781 55.9682 0.0000 0.0000 0.0000
# 3 61.3995 55.9682 143.1852 0.0000 0.0000 0.0000
# 4 0.0000 0.0000 0.0000 693.3824 0.0000 0.0000
# 5 0.0000 0.0000 0.0000 0.0000 32.4742 0.0000
# 6 0.0000 0.0000 0.0000 0.0000 0.0000 13.2836
#
#
#
# Elastic Compliance Matrix: (Units=1/GPa)
#
#
# Indices 1 2 3 4 5 6 
#
# 1 0.011321 -0.001214 -0.004380 0.000000 0.000000 0.000000
# 2 -0.001214 0.020090 -0.007332 0.000000 0.000000 0.000000
# 3 -0.004380 -0.007332 0.011728 0.000000 0.000000 0.000000
# 4 0.000000 0.000000 0.000000 0.001442 0.000000 0.000000
# 5 0.000000 0.000000 0.000000 0.000000 0.030794 0.000000
# 6 0.000000 0.000000 0.000000 0.000000 0.000000 0.075281
#
#
# Mechanical properties :
#
#
# Convention : Reuss Voigt Hill
#
# Bulk Modulus (GPa) = 57.84783 69.31994 63.58388
# Shear Modulus (GPa) = 27.43202 160.07235 93.75218
#
# Velocity S-wave (km/s) = 3.90333 9.42897 7.21601
# Velocity P-wave (km/s) = 7.24181 12.53162 10.23439
#
# Compressibility (1/GPa) = 0.01728673
#
# Stress axis : x y z
#
# Youngs Moduli (GPa) = 88.33514 49.77690 85.26463
#
# Poissons Ratio (x) = 0.06041 0.37346
# Poissons Ratio (y) = 0.10720 0.62518
# Poissons Ratio (z) = 0.38691 0.36498
#
# Static dielectric constant tensor:
#      x y z
#    x 1.583320 0.000000 0.000000 
#    y 0.000000 1.631160 0.000000 
#    z 0.000000 0.000000 1.626910 
# 
# From -- ./inp_files/22368.got.cif
#   From: 2010.05.17/outbox.cif.g08.bks.cpg/sg21_12_cif.got.tgz:22368.got - 2010.06.03 23:14:55.
