data_PCOD9323581
_publ_section_title
;
Structure prediction by ZEFSAII (Michael W. Deem and Ramdas Pophale) SiO2 
 PCOD9323581
Probable space group: C 2 2 2
;
_chemical_formula_sum "Si O2"
_cell_formula_units_Z 40
_cell_length_a 8.413494
_cell_length_b 15.972989
_cell_length_c 13.167381
_cell_angle_alpha 90.000000
_cell_angle_beta 90.000000
_cell_angle_gamma 90.000000
_cell_volume 1769.546519
_symmetry_space_group_name_H-M "C 2 2 2"
_symmetry_group_IT_number 21
_symmetry_cell_setting 'orthorhombic'
loop_
_space_group_symop_operation_xyz
x,y,z
-x,-y,z
x,-y,-z
-x,y,-z
1/2+x,1/2+y,z
1/2-x,1/2-y,z
1/2+x,1/2-y,-z
1/2-x,1/2+y,-z
loop_
_atom_site_type_symbol
_atom_site_label
_atom_site_fract_x
_atom_site_fract_y
_atom_site_fract_z
Si Si1 0.120930 0.580550 0.721880
Si Si2 0.172443 0.843978 0.132306
Si Si3 0.671217 0.404177 0.526513
Si Si4 0.177135 0.340475 0.668024
Si Si5 0.203234 0.848411 0.906008
O O1 0.260359 0.593576 0.639614
O O2 0.195395 0.593272 0.831859
O O3 0.000000 0.500000 0.708131
O O4 0.003576 0.658205 0.701285
O O5 0.250000 0.750000 0.134448
O O6 0.229666 0.885199 0.238013
O O7 0.982360 0.847947 0.125159
O O8 0.226366 0.877508 0.022609
O O9 0.651733 0.500000 0.500000
O O10 0.500000 0.362232 0.500000
O O11 0.799900 0.375408 0.444094
O O12 0.250000 0.250000 0.661608
O O13 0.250000 0.750000 0.899651
#
# Coordination Sequence:
#
# PCOD9323581 Si02
#       5
#     8   8   8   8   8
#     4  12  25  43  69  99 140 180 223 277 348 411
#     4   9  19  38  64 100 138 175 223 285 342 389
#     4  11  24  43  67  92 129 176 219 271 342 402
#     4  11  23  40  67  98 131 170 225 279 324 398
#     4  10  20  38  67  99 136 181 228 278 337 402
#
# _framework density 22.604662000000001
#
# number of rings (size 3 to 8) (size 9 to 14) (size 15 to 20)
#    0.000    1.400    2.000    4.200    0.000    4.800 
#    0.000    2.000    0.000    2.400    0.000    0.000 
#    0.000    0.000    0.000    0.000    0.000    0.000 
#
# Total GULP energy -111521.863386 kJ/mol
# GULP energy per Si atom -5576.093169 kJ/mol
# Density = 2.255321 g / cm^3
# Si number density = 22.604662 Si / 1000 Ang^3
#
#
#
# Elastic Constant Matrix: (Units=GPa)
#
#
# Indices 1 2 3 4 5 6 
#
# 1 72.3305 13.2361 11.4753 0.0000 0.0000 0.0000
# 2 13.2361 32.5452 14.3465 0.0000 0.0000 0.0000
# 3 11.4753 14.3465 128.1095 0.0000 0.0000 0.0000
# 4 0.0000 0.0000 0.0000 32.7877 0.0000 0.0000
# 5 0.0000 0.0000 0.0000 0.0000 45.5132 0.0000
# 6 0.0000 0.0000 0.0000 0.0000 0.0000 9.9233
#
#
#
# Elastic Compliance Matrix: (Units=1/GPa)
#
#
# Indices 1 2 3 4 5 6 
#
# 1 0.014996 -0.005793 -0.000695 0.000000 0.000000 0.000000
# 2 -0.005793 0.034560 -0.003351 0.000000 0.000000 0.000000
# 3 -0.000695 -0.003351 0.008243 0.000000 0.000000 0.000000
# 4 0.000000 0.000000 0.000000 0.030499 0.000000 0.000000
# 5 0.000000 0.000000 0.000000 0.000000 0.021972 0.000000
# 6 0.000000 0.000000 0.000000 0.000000 0.000000 0.100773
#
#
# Mechanical properties :
#
#
# Convention : Reuss Voigt Hill
#
# Bulk Modulus (GPa) = 26.23174 34.56679 30.39926
# Shear Modulus (GPa) = 20.54004 30.57331 25.55668
#
# Velocity S-wave (km/s) = 3.01768 3.68166 3.36608
# Velocity P-wave (km/s) = 4.87561 5.77909 5.34647
#
# Compressibility (1/GPa) = 0.03812176
#
# Stress axis : x y z
#
# Youngs Moduli (GPa) = 66.68608 28.93543 121.30999
#
# Poissons Ratio (x) = 0.16761 0.08425
# Poissons Ratio (y) = 0.38628 0.40655
# Poissons Ratio (z) = 0.04632 0.09697
#
# Static dielectric constant tensor:
#      x y z
#    x 2.476200 0.000000 0.000000 
#    y 0.000000 1.861690 0.000000 
#    z 0.000000 0.000000 1.936560 
# 
# From -- ./inp_files/22294.got.cif
#   From: 2010.05.17/outbox.cif.g08.bks.cpg/sg21_12_cif.got.tgz:22294.got - 2010.06.03 23:14:55.
