data_PCOD9323805
_publ_section_title
;
Structure prediction by ZEFSAII (Michael W. Deem and Ramdas Pophale) SiO2 
 PCOD9323805
Probable space group: C 2 2 2
;
_chemical_formula_sum "Si O2"
_cell_formula_units_Z 40
_cell_length_a 16.762904
_cell_length_b 22.749755
_cell_length_c 5.223219
_cell_angle_alpha 90.000000
_cell_angle_beta 90.000000
_cell_angle_gamma 90.000000
_cell_volume 1991.884798
_symmetry_space_group_name_H-M "C 2 2 2"
_symmetry_group_IT_number 21
_symmetry_cell_setting 'orthorhombic'
loop_
_space_group_symop_operation_xyz
x,y,z
-x,-y,z
x,-y,-z
-x,y,-z
1/2+x,1/2+y,z
1/2-x,1/2-y,z
1/2+x,1/2-y,-z
1/2-x,1/2+y,-z
loop_
_atom_site_type_symbol
_atom_site_label
_atom_site_fract_x
_atom_site_fract_y
_atom_site_fract_z
Si Si1 0.078575 0.371470 0.603443
Si Si2 0.246378 0.181148 0.613216
Si Si3 0.295396 0.387008 0.122802
Si Si4 0.036307 0.933425 0.755300
Si Si5 0.382281 0.064016 0.110325
O O1 0.161343 0.337384 0.580655
O O2 0.084751 0.423926 0.393100
O O3 0.000000 0.338533 0.500000
O O4 0.080406 0.393207 0.895061
O O5 0.250000 0.250000 0.666906
O O6 0.206745 0.162369 0.344828
O O7 0.205563 0.144320 0.844728
O O8 0.369363 0.429050 0.199352
O O9 0.212482 0.422909 0.127012
O O10 0.000000 0.906275 0.500000
O O11 0.000000 0.000000 0.754237
O O12 0.000000 0.901766 0.000000
O O13 0.396223 0.000000 0.000000
#
# Coordination Sequence:
#
# PCOD9323805 Si02
#       5
#     8   8   8   8   8
#     4  10  21  37  55  83 115 145 191 238 291 352
#     4  10  21  40  63  84 111 156 202 256 305 348
#     4  10  21  38  58  85 119 151 205 242 285 380
#     4  10  21  36  55  85 119 166 196 238 303 358
#     4  10  21  34  55  85 113 155 186 223 287 348
#
# _framework density 20.081482000000001
#
# number of rings (size 3 to 8) (size 9 to 14) (size 15 to 20)
#    0.000    2.000    0.000    3.000    2.800    2.400 
#    7.200    3.000    0.000    2.400    0.000    0.000 
#    0.000    0.000    0.000    0.000    0.000    0.000 
#
# Total GULP energy -111432.446719 kJ/mol
# GULP energy per Si atom -5571.622336 kJ/mol
# Density = 2.003578 g / cm^3
# Si number density = 20.081482 Si / 1000 Ang^3
#
#
#
# Elastic Constant Matrix: (Units=GPa)
#
#
# Indices 1 2 3 4 5 6 
#
# 1 142.2694 19.8112 50.2845 0.0000 0.0000 0.0000
# 2 19.8112 54.1756 3.4425 0.0000 0.0000 0.0000
# 3 50.2845 3.4425 140.0883 0.0000 0.0000 0.0000
# 4 0.0000 0.0000 0.0000 12.1002 0.0000 0.0000
# 5 0.0000 0.0000 0.0000 0.0000 32.2267 0.0000
# 6 0.0000 0.0000 0.0000 0.0000 0.0000 19.0438
#
#
#
# Elastic Compliance Matrix: (Units=1/GPa)
#
#
# Indices 1 2 3 4 5 6 
#
# 1 0.008486 -0.002914 -0.002974 0.000000 0.000000 0.000000
# 2 -0.002914 0.019488 0.000567 0.000000 0.000000 0.000000
# 3 -0.002974 0.000567 0.008192 0.000000 0.000000 0.000000
# 4 0.000000 0.000000 0.000000 0.082643 0.000000 0.000000
# 5 0.000000 0.000000 0.000000 0.000000 0.031030 0.000000
# 6 0.000000 0.000000 0.000000 0.000000 0.000000 0.052510
#
#
# Mechanical properties :
#
#
# Convention : Reuss Voigt Hill
#
# Bulk Modulus (GPa) = 39.17990 53.73440 46.45715
# Shear Modulus (GPa) = 22.57327 30.20714 26.39020
#
# Velocity S-wave (km/s) = 3.35637 3.88265 3.62906
# Velocity P-wave (km/s) = 5.87989 6.84954 6.38316
#
# Compressibility (1/GPa) = 0.02552329
#
# Stress axis : x y z
#
# Youngs Moduli (GPa) = 117.84078 51.31322 122.06899
#
# Poissons Ratio (x) = 0.14954 0.36309
# Poissons Ratio (y) = 0.34341 -0.06923
# Poissons Ratio (z) = 0.35051 -0.02910
#
# Static dielectric constant tensor:
#      x y z
#    x 1.787640 0.000000 0.000000 
#    y 0.000000 1.672600 0.000000 
#    z 0.000000 0.000000 1.583330 
# 
# From -- ./inp_files/3848.got.cif
#   From: 2010.05.17/outbox.cif.g08.bks.cpg/sg21_2_cif.got.tgz:3848.got - 2010.06.03 23:14:55.
