data_PCOD9323034
_publ_section_title
;
Structure prediction by ZEFSAII (Michael W. Deem and Ramdas Pophale) SiO2 
 PCOD9323034
Probable space group: C 2 2 2
;
_chemical_formula_sum "Si O2"
_cell_formula_units_Z 48
_cell_length_a 12.567550
_cell_length_b 16.300817
_cell_length_c 11.762904
_cell_angle_alpha 90.000000
_cell_angle_beta 90.000000
_cell_angle_gamma 90.000000
_cell_volume 2409.764190
_symmetry_space_group_name_H-M "C 2 2 2"
_symmetry_group_IT_number 21
_symmetry_cell_setting 'orthorhombic'
loop_
_space_group_symop_operation_xyz
x,y,z
-x,-y,z
x,-y,-z
-x,y,-z
1/2+x,1/2+y,z
1/2-x,1/2-y,z
1/2+x,1/2-y,-z
1/2-x,1/2+y,-z
loop_
_atom_site_type_symbol
_atom_site_label
_atom_site_fract_x
_atom_site_fract_y
_atom_site_fract_z
Si Si1 0.221978 0.653157 0.234273
Si Si2 0.080126 0.857036 0.358533
Si Si3 0.203668 0.656863 0.755241
Si Si4 0.482103 0.172263 0.634031
Si Si5 0.374499 0.901333 0.997256
Si Si6 0.641405 0.579881 0.422220
O O1 0.250000 0.750000 0.244833
O O2 0.333085 0.611909 0.269734
O O3 0.125967 0.630952 0.320054
O O4 0.181918 0.632890 0.109501
O O5 0.034152 0.767797 0.333888
O O6 0.140961 0.849607 0.479971
O O7 0.978545 0.914326 0.374954
O O8 0.250000 0.750000 0.747949
O O9 0.185776 0.631166 0.885595
O O10 0.280372 0.599608 0.679792
O O11 0.087819 0.646715 0.698936
O O12 0.500000 0.162813 0.500000
O O13 0.500000 0.877063 0.000000
O O14 0.370765 0.000000 0.000000
O O15 0.661992 0.500000 0.500000
#
# Coordination Sequence:
#
# PCOD9323034 Si02
#       6
#     8   8   8   8   8   8
#     4  10  22  39  66  96 126 172 221 277 328 389
#     4  10  19  38  62  93 137 167 207 259 331 402
#     4  12  23  42  70  95 128 175 229 270 321 401
#     4  11  19  36  63 100 129 162 223 277 322 393
#     4  11  25  46  65  87 129 174 223 286 339 379
#     4  11  23  39  63 100 137 174 199 256 338 400
#
# _framework density 19.918960999999999
#
# number of rings (size 3 to 8) (size 9 to 14) (size 15 to 20)
#    0.000    1.167    5.000    2.500    2.333    1.333 
#    0.000    0.833    0.000    1.000    0.000    0.000 
#    0.000    0.000    0.000    0.000    0.000    0.000 
#
# Total GULP energy -133968.764228 kJ/mol
# GULP energy per Si atom -5582.031843 kJ/mol
# Density = 1.987362 g / cm^3
# Si number density = 19.918961 Si / 1000 Ang^3
#
#
#
# Elastic Constant Matrix: (Units=GPa)
#
#
# Indices 1 2 3 4 5 6 
#
# 1 151.4657 27.7033 107.3161 0.0000 0.0000 0.0000
# 2 27.7033 39.0995 22.5335 0.0000 0.0000 0.0000
# 3 107.3161 22.5335 157.2791 0.0000 0.0000 0.0000
# 4 0.0000 0.0000 0.0000 24.1314 0.0000 0.0000
# 5 0.0000 0.0000 0.0000 0.0000 38.8861 0.0000
# 6 0.0000 0.0000 0.0000 0.0000 0.0000 11.5190
#
#
#
# Elastic Compliance Matrix: (Units=1/GPa)
#
#
# Indices 1 2 3 4 5 6 
#
# 1 0.013513 -0.004644 -0.008555 0.000000 0.000000 0.000000
# 2 -0.004644 0.029474 -0.001054 0.000000 0.000000 0.000000
# 3 -0.008555 -0.001054 0.012346 0.000000 0.000000 0.000000
# 4 0.000000 0.000000 0.000000 0.041440 0.000000 0.000000
# 5 0.000000 0.000000 0.000000 0.000000 0.025716 0.000000
# 6 0.000000 0.000000 0.000000 0.000000 0.000000 0.086813
#
#
# Mechanical properties :
#
#
# Convention : Reuss Voigt Hill
#
# Bulk Modulus (GPa) = 37.27565 73.66113 55.46839
# Shear Modulus (GPa) = 20.26342 27.59338 23.92840
#
# Velocity S-wave (km/s) = 3.19296 3.72598 3.46972
# Velocity P-wave (km/s) = 5.68750 7.45461 6.63019
#
# Compressibility (1/GPa) = 0.02682717
#
# Stress axis : x y z
#
# Youngs Moduli (GPa) = 74.00392 33.92859 80.99575
#
# Poissons Ratio (x) = 0.15757 0.69290
# Poissons Ratio (y) = 0.34368 0.08537
# Poissons Ratio (z) = 0.63309 0.03576
#
# Static dielectric constant tensor:
#      x y z
#    x 1.717610 0.000000 0.000000 
#    y 0.000000 1.760600 0.000000 
#    z 0.000000 0.000000 1.688730 
# 
# From -- ./inp_files/24066.got.cif
#   From: 2010.05.17/outbox.cif.g08.bks.cpg/sg21_13_cif.got.tgz:24066.got - 2010.06.03 23:14:55.
