data_PCOD9323818
_publ_section_title
;
Structure prediction by ZEFSAII (Michael W. Deem and Ramdas Pophale) SiO2 
 PCOD9323818
Probable space group: C 2 2 2
;
_chemical_formula_sum "Si O2"
_cell_formula_units_Z 64
_cell_length_a 12.015243
_cell_length_b 14.591917
_cell_length_c 15.521816
_cell_angle_alpha 90.000000
_cell_angle_beta 90.000000
_cell_angle_gamma 90.000000
_cell_volume 2721.369043
_symmetry_space_group_name_H-M "C 2 2 2"
_symmetry_group_IT_number 21
_symmetry_cell_setting 'orthorhombic'
loop_
_space_group_symop_operation_xyz
x,y,z
-x,-y,z
x,-y,-z
-x,y,-z
1/2+x,1/2+y,z
1/2-x,1/2-y,z
1/2+x,1/2-y,-z
1/2-x,1/2+y,-z
loop_
_atom_site_type_symbol
_atom_site_label
_atom_site_fract_x
_atom_site_fract_y
_atom_site_fract_z
Si Si1 0.921804 0.814243 0.917450
Si Si2 0.056520 0.615879 0.091882
Si Si3 0.269165 0.100569 0.675173
Si Si4 0.731413 0.538821 0.867739
Si Si5 0.374883 0.388807 0.518491
Si Si6 0.489670 0.889131 0.717177
Si Si7 0.757032 0.615051 0.356990
Si Si8 0.426745 0.409318 0.218094
O O1 0.993094 0.841180 0.832455
O O2 0.876161 0.712139 0.907786
O O3 0.836073 0.896062 0.930283
O O4 0.000000 0.812281 0.000000
O O5 0.142216 0.532838 0.104029
O O6 0.986623 0.624118 0.179695
O O7 0.000000 0.609926 0.000000
O O8 0.235561 0.090662 0.774922
O O9 0.172837 0.136378 0.612511
O O10 0.392390 0.144675 0.677418
O O11 0.276884 0.994929 0.643633
O O12 0.663332 0.447768 0.850404
O O13 0.379803 0.500000 0.500000
O O14 0.500000 0.355557 0.500000
O O15 0.283857 0.354876 0.449964
O O16 0.376494 0.850477 0.676098
O O17 0.500000 0.000000 0.705938
O O18 0.650510 0.627997 0.294195
O O19 0.500000 0.500000 0.244967
#
# Coordination Sequence:
#
# PCOD9323818 Si02
#       8
#     8   8   8   8   8   8   8   8
#     4  10  21  35  53  79 109 141 180 227 283 337
#     4  10  21  37  56  78 104 141 190 235 271 331
#     4   8  16  30  47  73 103 139 177 218 263 326
#     4   9  18  34  56  76 107 145 180 223 272 335
#     4   9  17  24  44  76 109 138 170 214 274 326
#     4   9  18  34  51  72 104 141 185 223 272 327
#     4   9  17  28  46  74 107 139 168 222 276 319
#     4   9  19  32  53  78 110 140 176 224 279 332
#
# _framework density 23.517575999999998
#
# number of rings (size 3 to 8) (size 9 to 14) (size 15 to 20)
#    0.000    2.875    0.000    1.125    7.000    4.000 
#    0.000    8.125    0.000    0.000    0.000   10.500 
#    0.000    0.000    0.000    0.000    0.000    0.000 
#
# Total GULP energy -178550.194017 kJ/mol
# GULP energy per Si atom -5579.693563 kJ/mol
# Density = 2.346405 g / cm^3
# Si number density = 23.517576 Si / 1000 Ang^3
#
#
#
# Elastic Constant Matrix: (Units=GPa)
#
#
# Indices 1 2 3 4 5 6 
#
# 1 131.5555 -3.2030 61.5586 0.0000 0.0000 0.0000
# 2 -3.2030 54.9916 -2.8683 0.0000 0.0000 0.0000
# 3 61.5586 -2.8683 106.4253 0.0000 0.0000 0.0000
# 4 0.0000 0.0000 0.0000 -10.9868 0.0000 0.0000
# 5 0.0000 0.0000 0.0000 0.0000 21.5432 0.0000
# 6 0.0000 0.0000 0.0000 0.0000 0.0000 -8.0586
#
#
#
# Elastic Compliance Matrix: (Units=1/GPa)
#
#
# Indices 1 2 3 4 5 6 
#
# 1 0.010427 0.000293 -0.006023 0.000000 0.000000 0.000000
# 2 0.000293 0.018218 0.000321 0.000000 0.000000 0.000000
# 3 -0.006023 0.000321 0.012889 0.000000 0.000000 0.000000
# 4 0.000000 0.000000 0.000000 -0.091018 0.000000 0.000000
# 5 0.000000 0.000000 0.000000 0.000000 0.046418 0.000000
# 6 0.000000 0.000000 0.000000 0.000000 0.000000 -0.124092
#
#
# Mechanical properties :
#
#
# Convention : Reuss Voigt Hill
#
# Bulk Modulus (GPa) = 32.55530 44.88301 38.71916
# Shear Modulus (GPa) = -47.12486 16.33190 -15.39648
#
# Velocity S-wave (km/s) = -4.48125 2.63811 -2.56145
# Velocity P-wave (km/s) = 3.59201 5.32971 2.78418
#
# Compressibility (1/GPa) = 0.03071696
#
# Stress axis : x y z
#
# Youngs Moduli (GPa) = 95.90531 54.88942 77.58606
#
# Poissons Ratio (x) = -0.01609 0.46732
# Poissons Ratio (y) = -0.02811 -0.02494
# Poissons Ratio (z) = 0.57766 -0.01764
#
# Static dielectric constant tensor:
#      x y z
#    x 1.914880 0.000000 0.000000 
#    y 0.000000 1.962760 0.000000 
#    z 0.000000 0.000000 1.981870 
# 
# From -- ./inp_files/31750.got.cif
#   From: 2010.05.17/outbox.cif.g08.bks.cpg/sg21_16_cif.got.tgz:31750.got - 2010.06.03 23:14:55.
