data_PCOD9323945
_publ_section_title
;
Structure prediction by ZEFSAII (Michael W. Deem and Ramdas Pophale) SiO2 
 PCOD9323945
Probable space group: C 2 2 2
;
_chemical_formula_sum "Si O2"
_cell_formula_units_Z 40
_cell_length_a 13.566120
_cell_length_b 14.387353
_cell_length_c 7.827931
_cell_angle_alpha 90.000000
_cell_angle_beta 90.000000
_cell_angle_gamma 90.000000
_cell_volume 1527.859935
_symmetry_space_group_name_H-M "C 2 2 2"
_symmetry_group_IT_number 21
_symmetry_cell_setting 'orthorhombic'
loop_
_space_group_symop_operation_xyz
x,y,z
-x,-y,z
x,-y,-z
-x,y,-z
1/2+x,1/2+y,z
1/2-x,1/2-y,z
1/2+x,1/2-y,-z
1/2-x,1/2+y,-z
loop_
_atom_site_type_symbol
_atom_site_label
_atom_site_fract_x
_atom_site_fract_y
_atom_site_fract_z
Si Si1 0.160671 0.847448 0.289721
Si Si2 0.735503 0.602712 0.067456
Si Si3 0.038597 0.859670 0.809124
Si Si4 0.941494 0.361476 0.762402
Si Si5 0.864177 0.368041 0.385049
O O1 0.147711 0.744235 0.366985
O O2 0.253604 0.902713 0.362404
O O3 0.053569 0.893641 0.302736
O O4 0.193888 0.835990 0.090432
O O5 0.652243 0.613598 0.213328
O O6 0.848160 0.618433 0.118394
O O7 0.726382 0.500000 0.000000
O O8 0.040083 0.748154 0.788835
O O9 0.000000 0.884664 0.000000
O O10 0.902559 0.385087 0.573723
O O11 0.054101 0.400957 0.753993
#
# Coordination Sequence:
#
# PCOD9323945 Si02
#       5
#     8   8   8   8   8
#     4   9  20  36  58  91 125 156 204 273 309 367
#     4  11  24  38  59  93 128 169 207 255 316 393
#     4   9  20  35  62  93 117 156 209 266 315 356
#     4  10  21  37  65  93 123 164 212 265 326 374
#     4   9  20  38  61  95 124 155 210 277 315 370
#
# _framework density 26.180412
#
# number of rings (size 3 to 8) (size 9 to 14) (size 15 to 20)
#    0.000    2.400    0.000    0.600   19.600    3.600 
#    0.000    3.000    0.000    2.400   10.400    0.000 
#    0.000    0.000    0.000    0.000    0.000    0.000 
#
# Total GULP energy -111656.726931 kJ/mol
# GULP energy per Si atom -5582.836347 kJ/mol
# Density = 2.612082 g / cm^3
# Si number density = 26.180412 Si / 1000 Ang^3
#
#
#
# Elastic Constant Matrix: (Units=GPa)
#
#
# Indices 1 2 3 4 5 6 
#
# 1 175.2154 12.6280 47.8101 0.0000 0.0000 0.0000
# 2 12.6280 50.1312 -9.6199 0.0000 0.0000 0.0000
# 3 47.8101 -9.6199 57.8275 0.0000 0.0000 0.0000
# 4 0.0000 0.0000 0.0000 400.5394 0.0000 0.0000
# 5 0.0000 0.0000 0.0000 0.0000 44.9113 0.0000
# 6 0.0000 0.0000 0.0000 0.0000 0.0000 12.1398
#
#
#
# Elastic Compliance Matrix: (Units=1/GPa)
#
#
# Indices 1 2 3 4 5 6 
#
# 1 0.007877 -0.003340 -0.007068 0.000000 0.000000 0.000000
# 2 -0.003340 0.022022 0.006425 0.000000 0.000000 0.000000
# 3 -0.007068 0.006425 0.024205 0.000000 0.000000 0.000000
# 4 0.000000 0.000000 0.000000 0.002497 0.000000 0.000000
# 5 0.000000 0.000000 0.000000 0.000000 0.022266 0.000000
# 6 0.000000 0.000000 0.000000 0.000000 0.000000 0.082374
#
#
# Mechanical properties :
#
#
# Convention : Reuss Voigt Hill
#
# Bulk Modulus (GPa) = 21.67419 42.75673 32.21546
# Shear Modulus (GPa) = 27.08771 107.00847 67.04809
#
# Velocity S-wave (km/s) = 3.22010 6.40017 5.06612
# Velocity P-wave (km/s) = 4.70341 8.42516 6.82296
#
# Compressibility (1/GPa) = 0.04613783
#
# Stress axis : x y z
#
# Youngs Moduli (GPa) = 126.95888 45.40898 41.31353
#
# Poissons Ratio (x) = 0.15168 0.29200
# Poissons Ratio (y) = 0.42409 -0.26545
# Poissons Ratio (z) = 0.89732 -0.29176
#
# Static dielectric constant tensor:
#      x y z
#    x 2.167350 0.000000 0.000000 
#    y 0.000000 2.046160 0.000000 
#    z 0.000000 0.000000 2.141910 
# 
# From -- ./inp_files/14527.got.cif
#   From: 2010.05.17/outbox.cif.g08.bks.cpg/sg21_8_cif.got.tgz:14527.got - 2010.06.03 23:14:55.
