data_PCOD9323421
_publ_section_title
;
Structure prediction by ZEFSAII (Michael W. Deem and Ramdas Pophale) SiO2 
 PCOD9323421
Probable space group: C 2 2 2
;
_chemical_formula_sum "Si O2"
_cell_formula_units_Z 34
_cell_length_a 23.922636
_cell_length_b 5.348034
_cell_length_c 12.181764
_cell_angle_alpha 90.000000
_cell_angle_beta 90.000000
_cell_angle_gamma 90.000000
_cell_volume 1558.523566
_symmetry_space_group_name_H-M "C 2 2 2"
_symmetry_group_IT_number 21
_symmetry_cell_setting 'orthorhombic'
loop_
_space_group_symop_operation_xyz
x,y,z
-x,-y,z
x,-y,-z
-x,y,-z
1/2+x,1/2+y,z
1/2-x,1/2-y,z
1/2+x,1/2-y,-z
1/2-x,1/2+y,-z
loop_
_atom_site_type_symbol
_atom_site_label
_atom_site_fract_x
_atom_site_fract_y
_atom_site_fract_z
Si Si1 0.750000 0.250000 0.804747
Si Si2 0.476119 0.250424 0.376684
Si Si3 0.000000 0.500000 0.000000
Si Si4 0.693628 0.500000 0.000000
Si Si5 0.128143 0.748331 0.741814
Si Si6 0.398485 0.753941 0.120710
O O1 0.805309 0.265095 0.732104
O O2 0.732152 0.460440 0.893887
O O3 0.500000 0.500000 0.322774
O O4 0.500000 0.250045 0.500000
O O5 0.409670 0.252733 0.367053
O O6 0.500000 0.000000 0.322946
O O7 0.042009 0.316860 0.933543
O O8 0.650098 0.278416 0.028498
O O9 0.113568 0.493166 0.804514
O O10 0.109051 0.994716 0.810935
#
# Coordination Sequence:
#
# PCOD9323421 Si02
#       6
#     4   8   2   4   8   8
#     4  10  20  36  64  82 130 162 228 258 294 372
#     4  10  22  42  68  92 122 153 197 257 329 399
#     4  12  24  40  52  86 134 180 208 262 306 358
#     4  10  20  40  56  86 125 185 218 262 310 348
#     4  11  24  40  61  96 115 169 210 263 311 371
#     4  11  25  37  58  85 131 170 219 248 308 363
#
# _framework density 21.815518999999998
#
# number of rings (size 3 to 8) (size 9 to 14) (size 15 to 20)
#    0.000    1.412    0.000    5.647    4.941    6.118 
#    0.000    0.000    0.000    5.647    0.000    0.000 
#    0.000    0.000    0.000    0.000    0.000    0.000 
#
# Total GULP energy -94826.081567 kJ/mol
# GULP energy per Si atom -5578.004798 kJ/mol
# Density = 2.176587 g / cm^3
# Si number density = 21.815519 Si / 1000 Ang^3
#
#
#
# Elastic Constant Matrix: (Units=GPa)
#
#
# Indices 1 2 3 4 5 6 
#
# 1 250.0674 47.3052 65.8818 0.0000 0.0000 0.0000
# 2 47.3052 172.3956 18.9508 0.0000 0.0000 0.0000
# 3 65.8818 18.9508 60.3749 0.0000 0.0000 0.0000
# 4 0.0000 0.0000 0.0000 -15.5207 0.0000 0.0000
# 5 0.0000 0.0000 0.0000 0.0000 39.4849 0.0000
# 6 0.0000 0.0000 0.0000 0.0000 0.0000 33.2162
#
#
#
# Elastic Compliance Matrix: (Units=1/GPa)
#
#
# Indices 1 2 3 4 5 6 
#
# 1 0.005750 -0.000920 -0.005986 0.000000 0.000000 0.000000
# 2 -0.000920 0.006155 -0.000928 0.000000 0.000000 0.000000
# 3 -0.005986 -0.000928 0.023386 0.000000 0.000000 0.000000
# 4 0.000000 0.000000 0.000000 -0.064430 0.000000 0.000000
# 5 0.000000 0.000000 0.000000 0.000000 0.025326 0.000000
# 6 0.000000 0.000000 0.000000 0.000000 0.000000 0.030106
#
#
# Mechanical properties :
#
#
# Convention : Reuss Voigt Hill
#
# Bulk Modulus (GPa) = 50.95890 83.01258 66.98574
# Shear Modulus (GPa) = 103.08992 34.81610 68.95301
#
# Velocity S-wave (km/s) = 6.88171 3.99925 5.62814
# Velocity P-wave (km/s) = 9.30342 7.71103 8.54440
#
# Compressibility (1/GPa) = 0.01962366
#
# Stress axis : x y z
#
# Youngs Moduli (GPa) = 173.91714 162.46839 42.76037
#
# Poissons Ratio (x) = 0.14944 0.25595
# Poissons Ratio (y) = 0.15997 0.03969
# Poissons Ratio (z) = 1.04100 0.15082
#
# Static dielectric constant tensor:
#      x y z
#    x 1.844630 0.000000 0.000000 
#    y 0.000000 1.884880 0.000000 
#    z 0.000000 0.000000 1.756810 
# 
# From -- ./inp_files/28960.got.cif
#   From: 2010.05.17/outbox.cif.g08.bks.cpg/sg21_15_cif.got.tgz:28960.got - 2010.06.03 23:14:55.
