data_PCOD9323503
_publ_section_title
;
Structure prediction by ZEFSAII (Michael W. Deem and Ramdas Pophale) SiO2 
 PCOD9323503
Probable space group: C 2 2 2
;
_chemical_formula_sum "Si O2"
_cell_formula_units_Z 48
_cell_length_a 5.557544
_cell_length_b 13.859354
_cell_length_c 26.010137
_cell_angle_alpha 90.000000
_cell_angle_beta 90.000000
_cell_angle_gamma 90.000000
_cell_volume 2003.404003
_symmetry_space_group_name_H-M "C 2 2 2"
_symmetry_group_IT_number 21
_symmetry_cell_setting 'orthorhombic'
loop_
_space_group_symop_operation_xyz
x,y,z
-x,-y,z
x,-y,-z
-x,y,-z
1/2+x,1/2+y,z
1/2-x,1/2-y,z
1/2+x,1/2-y,-z
1/2-x,1/2+y,-z
loop_
_atom_site_type_symbol
_atom_site_label
_atom_site_fract_x
_atom_site_fract_y
_atom_site_fract_z
Si Si1 0.750000 0.250000 0.678309
Si Si2 0.630089 0.401441 0.849928
Si Si3 0.393317 0.648084 0.388526
Si Si4 0.891320 0.349720 0.947963
Si Si5 0.500000 0.500000 0.685219
Si Si6 0.500000 0.688537 0.500000
Si Si7 0.250000 0.750000 0.126755
Si Si8 0.869021 0.600884 0.250902
O O1 0.644851 0.327137 0.638604
O O2 0.936973 0.305074 0.716262
O O3 0.500000 0.500000 0.836538
O O4 0.717805 0.406384 0.909065
O O5 0.445551 0.313346 0.844057
O O6 0.845064 0.384268 0.809751
O O7 0.250000 0.750000 0.384940
O O8 0.317983 0.556718 0.353710
O O9 0.435648 0.629883 0.448523
O O10 0.750000 0.250000 0.961409
O O11 0.110801 0.321981 0.911171
O O12 0.000000 0.391477 0.000000
O O13 0.607366 0.422003 0.724892
O O14 0.750000 0.750000 0.489968
O O15 0.000000 0.500000 0.259540
#
# Coordination Sequence:
#
# PCOD9323503 Si02
#       8
#     4   8   8   8   4   4   4   8
#     4  10  22  38  61  94 119 172 224 264 336 398
#     4  11  26  42  65  98 132 169 212 265 327 396
#     4  10  20  38  62  89 130 171 224 278 339 403
#     4  10  21  42  72  93 122 165 205 261 317 380
#     4  10  22  41  60  94 128 173 222 278 338 402
#     4  10  20  37  66  95 134 182 228 288 349 405
#     4  10  24  44  69  92 125 162 214 260 314 390
#     4  11  24  41  64  91 129 171 217 274 328 392
#
# _framework density 23.959219999999998
#
# number of rings (size 3 to 8) (size 9 to 14) (size 15 to 20)
#    0.000    1.667    2.500    1.000    5.833    0.333 
#    6.000    2.500    0.000    1.000    0.000    0.000 
#    0.000    0.000    0.000    0.000    0.000    0.000 
#
# Total GULP energy -133838.666915 kJ/mol
# GULP energy per Si atom -5576.611121 kJ/mol
# Density = 2.390469 g / cm^3
# Si number density = 23.959220 Si / 1000 Ang^3
#
#
#
# Elastic Constant Matrix: (Units=GPa)
#
#
# Indices 1 2 3 4 5 6 
#
# 1 38.7236 9.6055 14.4911 0.0000 0.0000 0.0000
# 2 9.6055 98.5726 51.2686 0.0000 0.0000 0.0000
# 3 14.4911 51.2686 171.6576 0.0000 0.0000 0.0000
# 4 0.0000 0.0000 0.0000 18.8526 0.0000 0.0000
# 5 0.0000 0.0000 0.0000 0.0000 23.7571 0.0000
# 6 0.0000 0.0000 0.0000 0.0000 0.0000 31.6327
#
#
#
# Elastic Compliance Matrix: (Units=1/GPa)
#
#
# Indices 1 2 3 4 5 6 
#
# 1 0.026906 -0.001705 -0.001762 0.000000 0.000000 0.000000
# 2 -0.001705 0.012119 -0.003475 0.000000 0.000000 0.000000
# 3 -0.001762 -0.003475 0.007012 0.000000 0.000000 0.000000
# 4 0.000000 0.000000 0.000000 0.053043 0.000000 0.000000
# 5 0.000000 0.000000 0.000000 0.000000 0.042093 0.000000
# 6 0.000000 0.000000 0.000000 0.000000 0.000000 0.031613
#
#
# Mechanical properties :
#
#
# Convention : Reuss Voigt Hill
#
# Bulk Modulus (GPa) = 31.10281 51.07603 41.08942
# Shear Modulus (GPa) = 25.33067 30.42106 27.87586
#
# Velocity S-wave (km/s) = 3.25505 3.56715 3.41467
# Velocity P-wave (km/s) = 5.20931 6.19115 5.72133
#
# Compressibility (1/GPa) = 0.03215143
#
# Stress axis : x y z
#
# Youngs Moduli (GPa) = 37.16579 82.51758 142.60634
#
# Poissons Ratio (x) = 0.14073 0.25128
# Poissons Ratio (y) = 0.06339 0.49562
# Poissons Ratio (z) = 0.06549 0.28679
#
# Static dielectric constant tensor:
#      x y z
#    x 2.048750 0.000000 0.000000 
#    y 0.000000 2.062160 0.000000 
#    z 0.000000 0.000000 1.877090 
# 
# From -- ./inp_files/39112.got.cif
#   From: 2010.05.17/outbox.cif.g08.bks.cpg/sg21_20_cif.got.tgz:39112.got - 2010.06.03 23:14:55.
