data_PCOD9323775
_publ_section_title
;
Structure prediction by ZEFSAII (Michael W. Deem and Ramdas Pophale) SiO2 
 PCOD9323775
Probable space group: C 2 2 2
;
_chemical_formula_sum "Si O2"
_cell_formula_units_Z 48
_cell_length_a 14.598290
_cell_length_b 11.022930
_cell_length_c 14.536340
_cell_angle_alpha 90.000000
_cell_angle_beta 90.000000
_cell_angle_gamma 90.000000
_cell_volume 2339.128652
_symmetry_space_group_name_H-M "C 2 2 2"
_symmetry_group_IT_number 21
_symmetry_cell_setting 'orthorhombic'
loop_
_space_group_symop_operation_xyz
x,y,z
-x,-y,z
x,-y,-z
-x,y,-z
1/2+x,1/2+y,z
1/2-x,1/2-y,z
1/2+x,1/2-y,-z
1/2-x,1/2+y,-z
loop_
_atom_site_type_symbol
_atom_site_label
_atom_site_fract_x
_atom_site_fract_y
_atom_site_fract_z
Si Si1 0.595480 0.239294 0.200251
Si Si2 0.940839 0.618162 0.301037
Si Si3 0.353192 0.309538 0.427197
Si Si4 0.895400 0.033763 0.104847
Si Si5 0.225513 0.523467 0.235609
Si Si6 0.644504 0.587009 0.629045
O O1 0.500190 0.176777 0.220267
O O2 0.603704 0.321616 0.112215
O O3 0.672224 0.136941 0.193910
O O4 0.605147 0.332100 0.287664
O O5 0.920457 0.710706 0.383354
O O6 0.844779 0.582307 0.255462
O O7 0.000000 0.500000 0.331001
O O8 0.250000 0.250000 0.416078
O O9 0.366198 0.342935 0.534137
O O10 0.377154 0.442267 0.380959
O O11 0.814463 0.990658 0.174460
O O12 0.000000 0.000000 0.132338
O O13 0.878382 0.000000 0.000000
O O14 0.251076 0.573398 0.337436
#
# Coordination Sequence:
#
# PCOD9323775 Si02
#       6
#     8   8   8   8   8   8
#     4  10  22  40  65  88 133 171 216 262 328 381
#     4  10  23  40  63  95 127 180 223 264 321 387
#     4  11  21  36  59  90 128 168 233 272 311 372
#     4  10  22  40  66  98 126 156 207 263 326 397
#     4  10  20  44  67  90 131 176 212 260 334 389
#     4  10  21  36  60  88 125 174 219 274 322 364
#
# _framework density 20.520461000000001
#
# number of rings (size 3 to 8) (size 9 to 14) (size 15 to 20)
#    0.000    1.833    1.667    3.000    4.667    0.667 
#    0.000   12.500    0.000    3.500    0.000    0.000 
#    0.000    0.000    0.000    0.000    0.000    0.000 
#
# Total GULP energy -133630.492495 kJ/mol
# GULP energy per Si atom -5567.937187 kJ/mol
# Density = 2.047376 g / cm^3
# Si number density = 20.520461 Si / 1000 Ang^3
#
#
#
# Elastic Constant Matrix: (Units=GPa)
#
#
# Indices 1 2 3 4 5 6 
#
# 1 110.0083 39.0753 47.9441 0.0000 0.0000 0.0000
# 2 39.0753 103.1770 50.5121 0.0000 0.0000 0.0000
# 3 47.9441 50.5121 101.8125 0.0000 0.0000 0.0000
# 4 0.0000 0.0000 0.0000 -29.9628 0.0000 0.0000
# 5 0.0000 0.0000 0.0000 0.0000 -14.2068 0.0000
# 6 0.0000 0.0000 0.0000 0.0000 0.0000 30.8761
#
#
#
# Elastic Compliance Matrix: (Units=1/GPa)
#
#
# Indices 1 2 3 4 5 6 
#
# 1 0.011843 -0.002318 -0.004427 0.000000 0.000000 0.000000
# 2 -0.002318 0.013255 -0.005485 0.000000 0.000000 0.000000
# 3 -0.004427 -0.005485 0.014628 0.000000 0.000000 0.000000
# 4 0.000000 0.000000 0.000000 -0.033375 0.000000 0.000000
# 5 0.000000 0.000000 0.000000 0.000000 -0.070389 0.000000
# 6 0.000000 0.000000 0.000000 0.000000 0.000000 0.032388
#
#
# Mechanical properties :
#
#
# Convention : Reuss Voigt Hill
#
# Bulk Modulus (GPa) = 65.50209 65.56231 65.53220
# Shear Modulus (GPa) = -2378.09307 9.17239 -1184.46034
#
# Velocity S-wave (km/s) = -34.07939 2.11650 -24.05125
# Velocity P-wave (km/s) = 38.94290 6.16375 27.18968
#
# Compressibility (1/GPa) = 0.01526669
#
# Stress axis : x y z
#
# Youngs Moduli (GPa) = 84.43887 75.44300 68.36323
#
# Poissons Ratio (x) = 0.17487 0.30264
# Poissons Ratio (y) = 0.19572 0.37495
# Poissons Ratio (z) = 0.37380 0.41378
#
# Static dielectric constant tensor:
#      x y z
#    x 1.867750 0.000000 0.000000 
#    y 0.000000 1.918420 0.000000 
#    z 0.000000 0.000000 1.728220 
# 
# From -- ./inp_files/32265.got.cif
#   From: 2010.05.17/outbox.cif.g08.bks.cpg/sg21_17_cif.got.tgz:32265.got - 2010.06.03 23:14:55.
