data_PCOD9323081
_publ_section_title
;
Structure prediction by ZEFSAII (Michael W. Deem and Ramdas Pophale) SiO2 
 PCOD9323081
Probable space group: C 2 2 2
;
_chemical_formula_sum "Si O2"
_cell_formula_units_Z 32
_cell_length_a 15.789573
_cell_length_b 8.277818
_cell_length_c 10.071191
_cell_angle_alpha 90.000000
_cell_angle_beta 90.000000
_cell_angle_gamma 90.000000
_cell_volume 1316.337008
_symmetry_space_group_name_H-M "C 2 2 2"
_symmetry_group_IT_number 21
_symmetry_cell_setting 'orthorhombic'
loop_
_space_group_symop_operation_xyz
x,y,z
-x,-y,z
x,-y,-z
-x,y,-z
1/2+x,1/2+y,z
1/2-x,1/2-y,z
1/2+x,1/2-y,-z
1/2-x,1/2+y,-z
loop_
_atom_site_type_symbol
_atom_site_label
_atom_site_fract_x
_atom_site_fract_y
_atom_site_fract_z
Si Si1 0.660312 0.000000 0.000000
Si Si2 0.778059 0.928655 0.210844
Si Si3 0.044830 0.177724 0.620797
Si Si4 0.198422 0.000000 0.500000
Si Si5 0.448816 0.713663 0.874281
O O1 0.725900 0.049969 0.118068
O O2 0.600668 0.869024 0.069546
O O3 0.750000 0.750000 0.169233
O O4 0.878594 0.914766 0.181056
O O5 0.756040 0.943532 0.366554
O O6 0.000000 0.269592 0.500000
O O7 0.016807 0.254139 0.758924
O O8 0.138534 0.139122 0.566835
O O9 0.000000 0.000000 0.627706
O O10 0.500000 0.655892 0.000000
#
# Coordination Sequence:
#
# PCOD9323081 Si02
#       5
#     4   8   8   4   8
#     4  10  25  44  55  90 138 178 202 264 335 406
#     4  10  22  41  62  92 132 167 213 267 333 394
#     4   9  17  34  62  95 118 148 213 280 318 363
#     4  10  19  40  64  98 125 156 224 282 319 388
#     4  11  22  39  66  90 126 173 219 267 317 391
#
# _framework density 24.309884
#
# number of rings (size 3 to 8) (size 9 to 14) (size 15 to 20)
#    0.000    2.250    5.000    0.375    3.500    0.500 
#    4.500    0.000    0.000    1.500    0.000    0.000 
#    0.000    0.000    0.000    0.000    0.000    0.000 
#
# Total GULP energy -89120.012027 kJ/mol
# GULP energy per Si atom -5570.000752 kJ/mol
# Density = 2.425455 g / cm^3
# Si number density = 24.309884 Si / 1000 Ang^3
#
#
#
# Elastic Constant Matrix: (Units=GPa)
#
#
# Indices 1 2 3 4 5 6 
#
# 1 57.4204 12.1314 46.5542 0.0000 0.0000 0.0000
# 2 12.1314 47.5025 29.1076 0.0000 0.0000 0.0000
# 3 46.5542 29.1076 231.1813 0.0000 0.0000 0.0000
# 4 0.0000 0.0000 0.0000 37.5310 0.0000 0.0000
# 5 0.0000 0.0000 0.0000 0.0000 -1.9832 0.0000
# 6 0.0000 0.0000 0.0000 0.0000 0.0000 6.9217
#
#
#
# Elastic Compliance Matrix: (Units=1/GPa)
#
#
# Indices 1 2 3 4 5 6 
#
# 1 0.021209 -0.003033 -0.003889 0.000000 0.000000 0.000000
# 2 -0.003033 0.023245 -0.002316 0.000000 0.000000 0.000000
# 3 -0.003889 -0.002316 0.005400 0.000000 0.000000 0.000000
# 4 0.000000 0.000000 0.000000 0.026645 0.000000 0.000000
# 5 0.000000 0.000000 0.000000 0.000000 -0.504245 0.000000
# 6 0.000000 0.000000 0.000000 0.000000 0.000000 0.144474
#
#
# Mechanical properties :
#
#
# Convention : Reuss Voigt Hill
#
# Bulk Modulus (GPa) = 31.86933 56.85451 44.36192
# Shear Modulus (GPa) = -19.65910 25.04798 2.69444
#
# Velocity S-wave (km/s) = -2.84683 3.21341 1.05393
# Velocity P-wave (km/s) = 1.52714 6.09969 4.44625
#
# Compressibility (1/GPa) = 0.03137813
#
# Stress axis : x y z
#
# Youngs Moduli (GPa) = 47.14878 43.01944 185.17237
#
# Poissons Ratio (x) = 0.13050 0.72016
# Poissons Ratio (y) = 0.14302 0.42884
# Poissons Ratio (z) = 0.18337 0.09963
#
# Static dielectric constant tensor:
#      x y z
#    x 2.024600 0.000000 0.000000 
#    y 0.000000 2.004710 0.000000 
#    z 0.000000 0.000000 2.013720 
# 
# From -- ./inp_files/12606.got.cif
#   From: 2010.05.17/outbox.cif.g08.bks.cpg/sg21_7_cif.got.tgz:12606.got - 2010.06.03 23:14:55.
