data_PCOD9323472
_publ_section_title
;
Structure prediction by ZEFSAII (Michael W. Deem and Ramdas Pophale) SiO2 
 PCOD9323472
Probable space group: C 2 2 2
;
_chemical_formula_sum "Si O2"
_cell_formula_units_Z 48
_cell_length_a 17.857428
_cell_length_b 16.217080
_cell_length_c 7.837140
_cell_angle_alpha 90.000000
_cell_angle_beta 90.000000
_cell_angle_gamma 90.000000
_cell_volume 2269.599211
_symmetry_space_group_name_H-M "C 2 2 2"
_symmetry_group_IT_number 21
_symmetry_cell_setting 'orthorhombic'
loop_
_space_group_symop_operation_xyz
x,y,z
-x,-y,z
x,-y,-z
-x,y,-z
1/2+x,1/2+y,z
1/2-x,1/2-y,z
1/2+x,1/2-y,-z
1/2-x,1/2+y,-z
loop_
_atom_site_type_symbol
_atom_site_label
_atom_site_fract_x
_atom_site_fract_y
_atom_site_fract_z
Si Si1 0.506736 0.131063 0.792282
Si Si2 0.778885 0.001566 0.798144
Si Si3 0.382864 0.002429 0.791358
Si Si4 0.408545 0.415753 0.608314
Si Si5 0.024891 0.188553 0.195127
Si Si6 0.183709 0.818526 0.664247
O O1 0.584930 0.087479 0.743410
O O2 0.496092 0.223786 0.735672
O O3 0.442246 0.069866 0.732938
O O4 0.500000 0.133153 0.000000
O O5 0.698637 0.972271 0.729931
O O6 0.784227 0.094404 0.729143
O O7 0.848951 0.946584 0.747493
O O8 0.775345 0.000000 0.000000
O O9 0.383381 0.000000 0.000000
O O10 0.417864 0.500000 0.500000
O O11 0.484738 0.381559 0.692031
O O12 0.364200 0.344252 0.504361
O O13 0.114671 0.198693 0.205906
O O14 0.000000 0.175961 0.000000
O O15 0.250000 0.750000 0.651226
#
# Coordination Sequence:
#
# PCOD9323472 Si02
#       6
#     8   8   8   8   8   8
#     4   8  15  28  50  82 116 146 179 230 297 357
#     4  10  20  37  61  88 116 154 206 260 306 352
#     4   8  14  28  51  81 117 149 178 227 297 358
#     4  10  24  43  60  83 120 165 205 246 309 379
#     4  11  22  39  64  92 118 153 207 263 304 350
#     4  11  24  41  61  87 125 165 201 246 303 371
#
# _framework density 21.149108999999999
#
# number of rings (size 3 to 8) (size 9 to 14) (size 15 to 20)
#    0.000    2.333    0.000    3.500    0.000    7.333 
#    0.000    5.833    0.000    0.000    0.000   10.500 
#    0.000    0.000    0.000    0.000    0.000    0.000 
#
# Total GULP energy -133792.573479 kJ/mol
# GULP energy per Si atom -5574.690562 kJ/mol
# Density = 2.110097 g / cm^3
# Si number density = 21.149109 Si / 1000 Ang^3
#
#
#
# Elastic Constant Matrix: (Units=GPa)
#
#
# Indices 1 2 3 4 5 6 
#
# 1 142.4500 38.1412 21.2411 0.0000 0.0000 0.0000
# 2 38.1412 81.0885 12.3154 0.0000 0.0000 0.0000
# 3 21.2411 12.3154 47.7733 0.0000 0.0000 0.0000
# 4 0.0000 0.0000 0.0000 16.4141 0.0000 0.0000
# 5 0.0000 0.0000 0.0000 0.0000 43.7799 0.0000
# 6 0.0000 0.0000 0.0000 0.0000 0.0000 39.8126
#
#
#
# Elastic Compliance Matrix: (Units=1/GPa)
#
#
# Indices 1 2 3 4 5 6 
#
# 1 0.008381 -0.003514 -0.002821 0.000000 0.000000 0.000000
# 2 -0.003514 0.014308 -0.002126 0.000000 0.000000 0.000000
# 3 -0.002821 -0.002126 0.022734 0.000000 0.000000 0.000000
# 4 0.000000 0.000000 0.000000 0.060923 0.000000 0.000000
# 5 0.000000 0.000000 0.000000 0.000000 0.022842 0.000000
# 6 0.000000 0.000000 0.000000 0.000000 0.000000 0.025118
#
#
# Mechanical properties :
#
#
# Convention : Reuss Voigt Hill
#
# Bulk Modulus (GPa) = 35.08480 46.07859 40.58169
# Shear Modulus (GPa) = 27.66581 33.30894 30.48737
#
# Velocity S-wave (km/s) = 3.62073 3.97288 3.80089
# Velocity P-wave (km/s) = 5.83994 6.54827 6.20422
#
# Compressibility (1/GPa) = 0.02850237
#
# Stress axis : x y z
#
# Youngs Moduli (GPa) = 119.31062 69.89127 43.98616
#
# Poissons Ratio (x) = 0.24559 0.12407
# Poissons Ratio (y) = 0.41925 0.09352
# Poissons Ratio (z) = 0.33654 0.14859
#
# Static dielectric constant tensor:
#      x y z
#    x 1.827900 0.000000 0.000000 
#    y 0.000000 1.494560 0.000000 
#    z 0.000000 0.000000 1.794440 
# 
# From -- ./inp_files/16427.got.cif
#   From: 2010.05.17/outbox.cif.g08.bks.cpg/sg21_9_cif.got.tgz:16427.got - 2010.06.03 23:14:55.
