data_PCOD9323876
_publ_section_title
;
Structure prediction by ZEFSAII (Michael W. Deem and Ramdas Pophale) SiO2 
 PCOD9323876
Probable space group: C 2 2 2
;
_chemical_formula_sum "Si O2"
_cell_formula_units_Z 56
_cell_length_a 15.160579
_cell_length_b 13.916440
_cell_length_c 13.853346
_cell_angle_alpha 90.000000
_cell_angle_beta 90.000000
_cell_angle_gamma 90.000000
_cell_volume 2922.796782
_symmetry_space_group_name_H-M "C 2 2 2"
_symmetry_group_IT_number 21
_symmetry_cell_setting 'orthorhombic'
loop_
_space_group_symop_operation_xyz
x,y,z
-x,-y,z
x,-y,-z
-x,y,-z
1/2+x,1/2+y,z
1/2-x,1/2-y,z
1/2+x,1/2-y,-z
1/2-x,1/2+y,-z
loop_
_atom_site_type_symbol
_atom_site_label
_atom_site_fract_x
_atom_site_fract_y
_atom_site_fract_z
Si Si1 0.227349 0.510019 0.793108
Si Si2 0.658566 0.191339 0.269404
Si Si3 0.910439 0.044563 0.890450
Si Si4 0.104122 0.388254 0.520703
Si Si5 0.828963 0.678842 0.327326
Si Si6 0.476930 0.749878 0.822772
Si Si7 0.429701 0.937557 0.904514
O O1 0.186628 0.404060 0.789875
O O2 0.327044 0.514095 0.827242
O O3 0.204836 0.571365 0.698276
O O4 0.168998 0.569854 0.868393
O O5 0.750000 0.250000 0.279787
O O6 0.626402 0.150529 0.372985
O O7 0.577745 0.249700 0.218285
O O8 0.932592 0.157166 0.873444
O O9 0.000000 0.000000 0.850623
O O10 0.899851 0.000000 0.000000
O O11 0.128474 0.500000 0.500000
O O12 0.149611 0.322254 0.439971
O O13 0.000000 0.382629 0.500000
O O14 0.750000 0.750000 0.302239
O O15 0.914104 0.712064 0.265043
O O16 0.471244 0.833834 0.901519
O O17 0.500000 0.000000 0.840722
O O18 0.420774 0.000000 0.000000
#
# Coordination Sequence:
#
# PCOD9323876 Si02
#       7
#     8   8   8   8   8   8   8
#     4  11  22  41  63  96 123 171 218 273 330 389
#     4  12  24  41  64  93 137 173 221 271 329 397
#     4  11  25  45  67  89 132 174 224 274 324 402
#     4  11  22  37  65  98 132 171 213 274 335 393
#     4  11  21  39  69  93 130 170 220 272 321 399
#     4  11  23  42  66  95 123 175 218 265 340 394
#     4  10  21  36  61  91 125 156 207 279 326 388
#
# _framework density 19.15973
#
# number of rings (size 3 to 8) (size 9 to 14) (size 15 to 20)
#    0.000    1.000    5.714    1.714    0.000    2.286 
#    2.571    0.000    0.000    0.000    0.000    2.000 
#    0.000    0.000    0.000    0.000    0.000    0.000 
#
# Total GULP energy -155871.868952 kJ/mol
# GULP energy per Si atom -5566.852463 kJ/mol
# Density = 1.911612 g / cm^3
# Si number density = 19.159730 Si / 1000 Ang^3
#
#
#
# Elastic Constant Matrix: (Units=GPa)
#
#
# Indices 1 2 3 4 5 6 
#
# 1 141.4593 20.2101 38.9877 0.0000 0.0000 0.0000
# 2 20.2101 79.2015 23.6428 0.0000 0.0000 0.0000
# 3 38.9877 23.6428 85.8990 0.0000 0.0000 0.0000
# 4 0.0000 0.0000 0.0000 24.0169 0.0000 0.0000
# 5 0.0000 0.0000 0.0000 0.0000 -4.8582 0.0000
# 6 0.0000 0.0000 0.0000 0.0000 0.0000 32.3718
#
#
#
# Elastic Compliance Matrix: (Units=1/GPa)
#
#
# Indices 1 2 3 4 5 6 
#
# 1 0.008161 -0.001064 -0.003411 0.000000 0.000000 0.000000
# 2 -0.001064 0.013895 -0.003341 0.000000 0.000000 0.000000
# 3 -0.003411 -0.003341 0.014110 0.000000 0.000000 0.000000
# 4 0.000000 0.000000 0.000000 0.041637 0.000000 0.000000
# 5 0.000000 0.000000 0.000000 0.000000 -0.205838 0.000000
# 6 0.000000 0.000000 0.000000 0.000000 0.000000 0.030891
#
#
# Mechanical properties :
#
#
# Convention : Reuss Voigt Hill
#
# Bulk Modulus (GPa) = 48.70442 52.47123 50.58782
# Shear Modulus (GPa) = -66.96537 25.22071 -20.87233
#
# Velocity S-wave (km/s) = -5.91836 3.63208 -3.30416
# Velocity P-wave (km/s) = 4.60730 6.71081 3.45020
#
# Compressibility (1/GPa) = 0.02053202
#
# Stress axis : x y z
#
# Youngs Moduli (GPa) = 122.52753 71.96809 70.87358
#
# Poissons Ratio (x) = 0.07659 0.24178
# Poissons Ratio (y) = 0.13040 0.23682
# Poissons Ratio (z) = 0.41799 0.24048
#
# Static dielectric constant tensor:
#      x y z
#    x 1.706540 0.000000 0.000000 
#    y 0.000000 1.735600 0.000000 
#    z 0.000000 0.000000 1.722250 
# 
# From -- ./inp_files/32315.got.cif
#   From: 2010.05.17/outbox.cif.g08.bks.cpg/sg21_17_cif.got.tgz:32315.got - 2010.06.03 23:14:55.
