data_PCOD9323250
_publ_section_title
;
Structure prediction by ZEFSAII (Michael W. Deem and Ramdas Pophale) SiO2 
 PCOD9323250
Probable space group: C 2 2 2
;
_chemical_formula_sum "Si O2"
_cell_formula_units_Z 40
_cell_length_a 18.136806
_cell_length_b 6.171529
_cell_length_c 17.698688
_cell_angle_alpha 90.000000
_cell_angle_beta 90.000000
_cell_angle_gamma 90.000000
_cell_volume 1981.046434
_symmetry_space_group_name_H-M "C 2 2 2"
_symmetry_group_IT_number 21
_symmetry_cell_setting 'orthorhombic'
loop_
_space_group_symop_operation_xyz
x,y,z
-x,-y,z
x,-y,-z
-x,y,-z
1/2+x,1/2+y,z
1/2-x,1/2-y,z
1/2+x,1/2-y,-z
1/2-x,1/2+y,-z
loop_
_atom_site_type_symbol
_atom_site_label
_atom_site_fract_x
_atom_site_fract_y
_atom_site_fract_z
Si Si1 0.161020 0.248471 0.028380
Si Si2 0.912855 0.011470 0.657061
Si Si3 0.674062 0.171475 0.555898
Si Si4 0.160695 0.735230 0.795364
Si Si5 0.178077 0.377980 0.694783
O O1 0.250000 0.250000 0.017302
O O2 0.142905 0.238504 0.117454
O O3 0.137990 0.500000 0.000000
O O4 0.137526 0.000000 0.000000
O O5 0.880626 0.148133 0.587185
O O6 0.880123 0.109364 0.735732
O O7 0.879100 0.774643 0.653653
O O8 0.000000 0.000000 0.658098
O O9 0.750000 0.250000 0.517341
O O10 0.637930 0.000000 0.500000
O O11 0.701271 0.051502 0.632070
O O12 0.250000 0.750000 0.787730
O O13 0.142161 0.495716 0.765543
O O14 0.250000 0.250000 0.719545
#
# Coordination Sequence:
#
# PCOD9323250 Si02
#       5
#     8   8   8   8   8
#     4   9  19  32  53  92 134 166 213 275 334 384
#     4  11  24  41  61  93 127 160 206 264 319 376
#     4  11  23  39  65  92 116 161 210 255 316 387
#     4  10  20  34  61  94 122 166 212 261 319 381
#     4  11  19  37  64  89 118 155 214 259 308 379
#
# _framework density 20.191348999999999
#
# number of rings (size 3 to 8) (size 9 to 14) (size 15 to 20)
#    0.000    1.600    4.000    1.800    2.800    4.000 
#    0.000    3.000    0.000    0.600    0.000    0.000 
#    0.000    0.000    0.000    0.000    0.000    0.000 
#
# Total GULP energy -111390.048216 kJ/mol
# GULP energy per Si atom -5569.502411 kJ/mol
# Density = 2.014539 g / cm^3
# Si number density = 20.191349 Si / 1000 Ang^3
#
#
#
# Elastic Constant Matrix: (Units=GPa)
#
#
# Indices 1 2 3 4 5 6 
#
# 1 87.1596 33.8843 17.8385 0.0000 0.0000 0.0000
# 2 33.8843 132.8358 56.3573 0.0000 0.0000 0.0000
# 3 17.8385 56.3573 112.6152 0.0000 0.0000 0.0000
# 4 0.0000 0.0000 0.0000 15.4286 0.0000 0.0000
# 5 0.0000 0.0000 0.0000 0.0000 13.8559 0.0000
# 6 0.0000 0.0000 0.0000 0.0000 0.0000 11.4693
#
#
#
# Elastic Compliance Matrix: (Units=1/GPa)
#
#
# Indices 1 2 3 4 5 6 
#
# 1 0.012758 -0.003043 -0.000498 0.000000 0.000000 0.000000
# 2 -0.003043 0.010283 -0.004664 0.000000 0.000000 0.000000
# 3 -0.000498 -0.004664 0.011293 0.000000 0.000000 0.000000
# 4 0.000000 0.000000 0.000000 0.064815 0.000000 0.000000
# 5 0.000000 0.000000 0.000000 0.000000 0.072172 0.000000
# 6 0.000000 0.000000 0.000000 0.000000 0.000000 0.087190
#
#
# Mechanical properties :
#
#
# Convention : Reuss Voigt Hill
#
# Bulk Modulus (GPa) = 55.79211 60.97452 58.38332
# Shear Modulus (GPa) = 17.80026 23.11946 20.45986
#
# Velocity S-wave (km/s) = 2.97236 3.38748 3.18669
# Velocity P-wave (km/s) = 6.28264 6.75011 6.52056
#
# Compressibility (1/GPa) = 0.01792368
#
# Stress axis : x y z
#
# Youngs Moduli (GPa) = 78.38110 97.24673 88.55226
#
# Poissons Ratio (x) = 0.29593 0.04410
# Poissons Ratio (y) = 0.23852 0.41301
# Poissons Ratio (z) = 0.03904 0.45356
#
# Static dielectric constant tensor:
#      x y z
#    x 1.859270 0.000000 0.000000 
#    y 0.000000 1.876640 0.000000 
#    z 0.000000 0.000000 1.712660 
# 
# From -- ./inp_files/34642.got.cif
#   From: 2010.05.17/outbox.cif.g08.bks.cpg/sg21_18_cif.got.tgz:34642.got - 2010.06.03 23:14:55.
