data_PCOD9323550
_publ_section_title
;
Structure prediction by ZEFSAII (Michael W. Deem and Ramdas Pophale) SiO2 
 PCOD9323550
Probable space group: C 2 2 2
;
_chemical_formula_sum "Si O2"
_cell_formula_units_Z 48
_cell_length_a 27.032665
_cell_length_b 5.966354
_cell_length_c 14.191401
_cell_angle_alpha 90.000000
_cell_angle_beta 90.000000
_cell_angle_gamma 90.000000
_cell_volume 2288.880673
_symmetry_space_group_name_H-M "C 2 2 2"
_symmetry_group_IT_number 21
_symmetry_cell_setting 'orthorhombic'
loop_
_space_group_symop_operation_xyz
x,y,z
-x,-y,z
x,-y,-z
-x,y,-z
1/2+x,1/2+y,z
1/2-x,1/2-y,z
1/2+x,1/2-y,-z
1/2-x,1/2+y,-z
loop_
_atom_site_type_symbol
_atom_site_label
_atom_site_fract_x
_atom_site_fract_y
_atom_site_fract_z
Si Si1 0.483571 0.249832 0.389997
Si Si2 0.056688 0.577723 0.895555
Si Si3 0.378054 0.825537 0.252317
Si Si4 0.619714 0.544379 0.391840
Si Si5 0.307834 0.208071 0.255638
Si Si6 0.369019 0.564213 0.894906
O O1 0.500000 0.500000 0.350584
O O2 0.500000 0.255109 0.500000
O O3 0.424194 0.274299 0.384642
O O4 0.500000 0.000000 0.355028
O O5 0.082242 0.474618 0.803253
O O6 0.075088 0.834944 0.891856
O O7 0.000000 0.500000 0.893379
O O8 0.075588 0.500000 0.000000
O O9 0.397063 0.686882 0.341804
O O10 0.365399 0.646969 0.171967
O O11 0.329167 0.963370 0.279008
O O12 0.630699 0.500000 0.500000
O O13 0.665823 0.632399 0.332113
O O14 0.250000 0.250000 0.255103
O O15 0.331754 0.260359 0.153144
O O16 0.356287 0.500000 0.000000
#
# Coordination Sequence:
#
# PCOD9323550 Si02
#       6
#     8   8   8   8   8   8
#     4  10  21  40  67  99 138 185 242 295 346 426
#     4  10  20  38  62  96 138 187 233 278 350 431
#     4  10  23  43  66  93 141 175 228 295 349 431
#     4  11  24  45  66 100 137 192 237 295 364 430
#     4  10  25  47  67 100 134 174 236 305 371 437
#     4  10  20  41  66  95 135 177 226 285 355 424
#
# _framework density 20.970949000000001
#
# number of rings (size 3 to 8) (size 9 to 14) (size 15 to 20)
#    0.000    1.833    3.333    0.000    2.333    4.000 
#   15.000    0.833    0.000    0.000    0.000    0.000 
#    0.000    0.000    0.000    0.000    0.000    0.000 
#
# Total GULP energy -133817.529153 kJ/mol
# GULP energy per Si atom -5575.730381 kJ/mol
# Density = 2.092322 g / cm^3
# Si number density = 20.970949 Si / 1000 Ang^3
#
#
#
# Elastic Constant Matrix: (Units=GPa)
#
#
# Indices 1 2 3 4 5 6 
#
# 1 145.8736 38.2302 38.5129 0.0000 0.0000 0.0000
# 2 38.2302 112.5067 38.1137 0.0000 0.0000 0.0000
# 3 38.5129 38.1137 147.4447 0.0000 0.0000 0.0000
# 4 0.0000 0.0000 0.0000 26.6736 0.0000 0.0000
# 5 0.0000 0.0000 0.0000 0.0000 18.5412 0.0000
# 6 0.0000 0.0000 0.0000 0.0000 0.0000 25.2699
#
#
#
# Elastic Compliance Matrix: (Units=1/GPa)
#
#
# Indices 1 2 3 4 5 6 
#
# 1 0.007811 -0.002151 -0.001484 0.000000 0.000000 0.000000
# 2 -0.002151 0.010334 -0.002109 0.000000 0.000000 0.000000
# 3 -0.001484 -0.002109 0.007715 0.000000 0.000000 0.000000
# 4 0.000000 0.000000 0.000000 0.037490 0.000000 0.000000
# 5 0.000000 0.000000 0.000000 0.000000 0.053934 0.000000
# 6 0.000000 0.000000 0.000000 0.000000 0.000000 0.039573
#
#
# Mechanical properties :
#
#
# Convention : Reuss Voigt Hill
#
# Bulk Modulus (GPa) = 69.58786 70.61542 70.10164
# Shear Modulus (GPa) = 28.87888 33.49481 31.18685
#
# Velocity S-wave (km/s) = 3.71494 4.00083 3.86054
# Velocity P-wave (km/s) = 7.18722 7.42215 7.30563
#
# Compressibility (1/GPa) = 0.01437032
#
# Stress axis : x y z
#
# Youngs Moduli (GPa) = 128.02599 96.76805 129.61589
#
# Poissons Ratio (x) = 0.20819 0.19236
# Poissons Ratio (y) = 0.27544 0.27340
# Poissons Ratio (z) = 0.19000 0.20412
#
# Static dielectric constant tensor:
#      x y z
#    x 1.753790 0.000000 0.000000 
#    y 0.000000 1.882590 0.000000 
#    z 0.000000 0.000000 1.739950 
# 
# From -- ./inp_files/33813.got.cif
#   From: 2010.05.17/outbox.cif.g08.bks.cpg/sg21_17_cif.got.tgz:33813.got - 2010.06.03 23:14:55.
