data_PCOD9323637
_publ_section_title
;
Structure prediction by ZEFSAII (Michael W. Deem and Ramdas Pophale) SiO2 
 PCOD9323637
Probable space group: C 2 2 2
;
_chemical_formula_sum "Si O2"
_cell_formula_units_Z 58
_cell_length_a 18.467079
_cell_length_b 7.043357
_cell_length_c 22.786124
_cell_angle_alpha 90.000000
_cell_angle_beta 90.000000
_cell_angle_gamma 90.000000
_cell_volume 2963.796393
_symmetry_space_group_name_H-M "C 2 2 2"
_symmetry_group_IT_number 21
_symmetry_cell_setting 'orthorhombic'
loop_
_space_group_symop_operation_xyz
x,y,z
-x,-y,z
x,-y,-z
-x,y,-z
1/2+x,1/2+y,z
1/2-x,1/2-y,z
1/2+x,1/2-y,-z
1/2-x,1/2+y,-z
loop_
_atom_site_type_symbol
_atom_site_label
_atom_site_fract_x
_atom_site_fract_y
_atom_site_fract_z
Si Si1 0.673526 0.642852 0.870309
Si Si2 0.913760 0.505917 0.104648
Si Si3 0.430728 0.629635 0.556298
Si Si4 0.000000 0.500000 0.500000
Si Si5 0.327326 0.325793 0.040184
Si Si6 0.415816 0.053470 0.242892
Si Si7 0.666910 0.325339 0.668191
Si Si8 0.831652 0.813683 0.741470
O O1 0.750000 0.750000 0.869887
O O2 0.686487 0.442551 0.900338
O O3 0.644512 0.607668 0.804879
O O4 0.619695 0.794403 0.900877
O O5 0.877971 0.651091 0.058428
O O6 0.897594 0.567962 0.172851
O O7 0.000000 0.500000 0.097395
O O8 0.500000 0.500000 0.578019
O O9 0.406674 0.500000 0.500000
O O10 0.455096 0.843205 0.537392
O O11 0.370648 0.666592 0.605087
O O12 0.250000 0.250000 0.016408
O O13 0.355627 0.500000 0.000000
O O14 0.377589 0.870146 0.269515
O O15 0.500000 0.000000 0.245722
O O16 0.383787 0.218577 0.283602
O O17 0.750000 0.250000 0.668710
O O18 0.666946 0.538948 0.690406
O O19 0.750000 0.750000 0.749581
#
# Coordination Sequence:
#
# PCOD9323637 Si02
#       8
#     8   8   8   2   8   8   8   8
#     4  10  20  39  66  90 120 170 205 248 311 374
#     4  10  23  44  65  94 133 161 205 261 317 383
#     4   9  22  43  65  89 119 168 224 262 309 370
#     4   8  18  44  68  82 112 168 220 260 308 376
#     4  12  25  40  68  93 119 160 218 262 306 375
#     4  10  23  39  64  97 128 170 206 251 320 383
#     4  12  24  38  60  97 133 164 209 266 316 371
#     4  10  21  38  59  91 131 162 204 253 310 378
#
# _framework density 19.569493999999999
#
# number of rings (size 3 to 8) (size 9 to 14) (size 15 to 20)
#    0.000    1.793    2.759    1.241    2.897    2.759 
#    1.241    6.207    0.000    0.000    0.000    0.000 
#    0.000    0.000    0.000    0.000    0.000    0.000 
#
# Total GULP energy -161614.121718 kJ/mol
# GULP energy per Si atom -5572.900749 kJ/mol
# Density = 1.952495 g / cm^3
# Si number density = 19.569494 Si / 1000 Ang^3
#
#
#
# Elastic Constant Matrix: (Units=GPa)
#
#
# Indices 1 2 3 4 5 6 
#
# 1 92.1663 40.0298 23.5072 0.0000 0.0000 0.0000
# 2 40.0298 101.7192 45.3867 0.0000 0.0000 0.0000
# 3 23.5072 45.3867 67.2956 0.0000 0.0000 0.0000
# 4 0.0000 0.0000 0.0000 50.7679 0.0000 0.0000
# 5 0.0000 0.0000 0.0000 0.0000 27.7471 0.0000
# 6 0.0000 0.0000 0.0000 0.0000 0.0000 14.7373
#
#
#
# Elastic Compliance Matrix: (Units=1/GPa)
#
#
# Indices 1 2 3 4 5 6 
#
# 1 0.013204 -0.004489 -0.001585 0.000000 0.000000 0.000000
# 2 -0.004489 0.015589 -0.008946 0.000000 0.000000 0.000000
# 3 -0.001585 -0.008946 0.021447 0.000000 0.000000 0.000000
# 4 0.000000 0.000000 0.000000 0.019697 0.000000 0.000000
# 5 0.000000 0.000000 0.000000 0.000000 0.036040 0.000000
# 6 0.000000 0.000000 0.000000 0.000000 0.000000 0.067855
#
#
# Mechanical properties :
#
#
# Convention : Reuss Voigt Hill
#
# Bulk Modulus (GPa) = 49.50343 53.22540 51.36442
# Shear Modulus (GPa) = 23.74116 28.80095 26.27105
#
# Velocity S-wave (km/s) = 3.48684 3.84047 3.66792
# Velocity P-wave (km/s) = 6.44685 6.85002 6.65149
#
# Compressibility (1/GPa) = 0.02020062
#
# Stress axis : x y z
#
# Youngs Moduli (GPa) = 75.73565 64.14708 46.62705
#
# Poissons Ratio (x) = 0.28796 0.07389
# Poissons Ratio (y) = 0.33998 0.41712
# Poissons Ratio (z) = 0.12002 0.57385
#
# Static dielectric constant tensor:
#      x y z
#    x 1.563170 0.000000 0.000000 
#    y 0.000000 1.687690 0.000000 
#    z 0.000000 0.000000 1.747980 
# 
# From -- ./inp_files/39403.got.cif
#   From: 2010.05.17/outbox.cif.g08.bks.cpg/sg21_20_cif.got.tgz:39403.got - 2010.06.03 23:14:55.
