data_PCOD9323648
_publ_section_title
;
Structure prediction by ZEFSAII (Michael W. Deem and Ramdas Pophale) SiO2 
 PCOD9323648
Probable space group: C 2 2 2
;
_chemical_formula_sum "Si O2"
_cell_formula_units_Z 40
_cell_length_a 18.897252
_cell_length_b 8.759361
_cell_length_c 11.705301
_cell_angle_alpha 90.000000
_cell_angle_beta 90.000000
_cell_angle_gamma 90.000000
_cell_volume 1937.553334
_symmetry_space_group_name_H-M "C 2 2 2"
_symmetry_group_IT_number 21
_symmetry_cell_setting 'orthorhombic'
loop_
_space_group_symop_operation_xyz
x,y,z
-x,-y,z
x,-y,-z
-x,y,-z
1/2+x,1/2+y,z
1/2-x,1/2-y,z
1/2+x,1/2-y,-z
1/2-x,1/2+y,-z
loop_
_atom_site_type_symbol
_atom_site_label
_atom_site_fract_x
_atom_site_fract_y
_atom_site_fract_z
Si Si1 0.567567 0.659487 0.066389
Si Si2 0.402496 0.133924 0.719960
Si Si3 0.327234 0.814066 0.498561
Si Si4 0.062014 0.281388 0.309471
Si Si5 0.320554 0.834389 0.051315
O O1 0.559662 0.663839 0.202998
O O2 0.573606 0.500000 0.000000
O O3 0.500000 0.735175 0.000000
O O4 0.640748 0.744545 0.048696
O O5 0.347623 0.211082 0.633023
O O6 0.478858 0.186570 0.672761
O O7 0.377345 0.172251 0.846564
O O8 0.407094 0.949031 0.723632
O O9 0.250000 0.750000 0.527992
O O10 0.387893 0.745462 0.582403
O O11 0.328382 0.000000 0.500000
O O12 0.250000 0.750000 0.088500
O O13 0.305274 0.000000 0.000000
#
# Coordination Sequence:
#
# PCOD9323648 Si02
#       5
#     8   8   8   8   8
#     4  11  23  41  62  95 132 170 221 272 330 392
#     4  10  20  39  68  95 125 168 227 278 323 392
#     4  10  22  42  63  97 131 172 218 276 335 395
#     4  10  20  39  69  93 123 173 226 275 323 395
#     4  12  24  40  62  95 132 175 218 271 336 406
#
# _framework density 20.644591999999999
#
# number of rings (size 3 to 8) (size 9 to 14) (size 15 to 20)
#    0.000    1.400    4.000    1.800    0.000    3.600 
#   10.800    0.000    0.000    1.200    0.000    0.000 
#    0.000    0.000    0.000    0.000    0.000    0.000 
#
# Total GULP energy -111354.154514 kJ/mol
# GULP energy per Si atom -5567.707726 kJ/mol
# Density = 2.059760 g / cm^3
# Si number density = 20.644592 Si / 1000 Ang^3
#
#
#
# Elastic Constant Matrix: (Units=GPa)
#
#
# Indices 1 2 3 4 5 6 
#
# 1 93.6482 22.6343 27.0009 0.0000 0.0000 0.0000
# 2 22.6343 49.5467 19.0110 0.0000 0.0000 0.0000
# 3 27.0009 19.0110 102.9508 0.0000 0.0000 0.0000
# 4 0.0000 0.0000 0.0000 9.8993 0.0000 0.0000
# 5 0.0000 0.0000 0.0000 0.0000 42.2513 0.0000
# 6 0.0000 0.0000 0.0000 0.0000 0.0000 24.2536
#
#
#
# Elastic Compliance Matrix: (Units=1/GPa)
#
#
# Indices 1 2 3 4 5 6 
#
# 1 0.012531 -0.004804 -0.002399 0.000000 0.000000 0.000000
# 2 -0.004804 0.023564 -0.003091 0.000000 0.000000 0.000000
# 3 -0.002399 -0.003091 0.010914 0.000000 0.000000 0.000000
# 4 0.000000 0.000000 0.000000 0.101017 0.000000 0.000000
# 5 0.000000 0.000000 0.000000 0.000000 0.023668 0.000000
# 6 0.000000 0.000000 0.000000 0.000000 0.000000 0.041231
#
#
# Mechanical properties :
#
#
# Convention : Reuss Voigt Hill
#
# Bulk Modulus (GPa) = 37.85167 42.60423 40.22795
# Shear Modulus (GPa) = 20.63387 27.11415 23.87401
#
# Velocity S-wave (km/s) = 3.16489 3.62799 3.40432
# Velocity P-wave (km/s) = 5.63294 6.18316 5.91446
#
# Compressibility (1/GPa) = 0.02641892
#
# Stress axis : x y z
#
# Youngs Moduli (GPa) = 79.80105 42.43809 91.62928
#
# Poissons Ratio (x) = 0.20387 0.21986
# Poissons Ratio (y) = 0.38336 0.28326
# Poissons Ratio (z) = 0.19148 0.13119
#
# Static dielectric constant tensor:
#      x y z
#    x 1.745850 0.000000 0.000000 
#    y 0.000000 1.738570 0.000000 
#    z 0.000000 0.000000 1.765950 
# 
# From -- ./inp_files/25806.got.cif
#   From: 2010.05.17/outbox.cif.g08.bks.cpg/sg21_13_cif.got.tgz:25806.got - 2010.06.03 23:14:55.
