data_PCOD9323233
_publ_section_title
;
Structure prediction by ZEFSAII (Michael W. Deem and Ramdas Pophale) SiO2 
 PCOD9323233
Probable space group: C 2 2 2
;
_chemical_formula_sum "Si O2"
_cell_formula_units_Z 56
_cell_length_a 16.957131
_cell_length_b 30.683344
_cell_length_c 5.291603
_cell_angle_alpha 90.000000
_cell_angle_beta 90.000000
_cell_angle_gamma 90.000000
_cell_volume 2753.228892
_symmetry_space_group_name_H-M "C 2 2 2"
_symmetry_group_IT_number 21
_symmetry_cell_setting 'orthorhombic'
loop_
_space_group_symop_operation_xyz
x,y,z
-x,-y,z
x,-y,-z
-x,y,-z
1/2+x,1/2+y,z
1/2-x,1/2-y,z
1/2+x,1/2-y,-z
1/2-x,1/2+y,-z
loop_
_atom_site_type_symbol
_atom_site_label
_atom_site_fract_x
_atom_site_fract_y
_atom_site_fract_z
Si Si1 0.706763 0.627086 0.936844
Si Si2 0.417748 0.741860 0.360490
Si Si3 0.684482 0.949984 0.044859
Si Si4 0.590295 0.077590 0.457050
Si Si5 0.951547 0.147820 0.239931
Si Si6 0.652126 0.829773 0.630631
Si Si7 0.281702 0.706877 0.736616
O O1 0.739625 0.581635 0.035919
O O2 0.632856 0.623988 0.750291
O O3 0.782715 0.649613 0.811828
O O4 0.682459 0.663981 0.137123
O O5 0.500000 0.750605 0.500000
O O6 0.434095 0.699399 0.194479
O O7 0.391279 0.788175 0.249333
O O8 0.347289 0.724944 0.543140
O O9 0.625950 0.937537 0.811816
O O10 0.641446 0.941380 0.311498
O O11 0.705747 0.000000 0.000000
O O12 0.500000 0.064724 0.500000
O O13 0.598009 0.130326 0.456864
O O14 0.000000 0.144603 0.500000
O O15 0.000000 0.130979 0.000000
O O16 0.704043 0.811471 0.400814
O O17 0.250000 0.750000 0.887049
#
# Coordination Sequence:
#
# PCOD9323233 Si02
#       7
#     8   8   8   8   8   8   8
#     4  11  22  39  62  86 124 160 210 257 306 373
#     4  10  20  37  54  84 122 164 207 252 298 358
#     4  11  25  43  67  95 121 161 210 257 314 370
#     4  11  23  42  64  92 129 165 205 256 312 363
#     4  11  24  39  60  91 123 163 205 256 313 365
#     4  10  21  37  55  85 122 166 211 245 301 360
#     4  10  20  34  59  82 119 164 208 253 298 362
#
# _framework density 20.339753000000002
#
# number of rings (size 3 to 8) (size 9 to 14) (size 15 to 20)
#    0.000    1.429    2.857    3.000    2.000    1.714 
#    0.000    1.429    0.000    0.429    0.000    4.000 
#    0.000    0.000    0.000    0.000    0.000    0.000 
#
# Total GULP energy -156267.680192 kJ/mol
# GULP energy per Si atom -5580.988578 kJ/mol
# Density = 2.029346 g / cm^3
# Si number density = 20.339753 Si / 1000 Ang^3
#
#
#
# Elastic Constant Matrix: (Units=GPa)
#
#
# Indices 1 2 3 4 5 6 
#
# 1 66.6867 16.8377 -0.8968 0.0000 0.0000 0.0000
# 2 16.8377 94.8921 5.2642 0.0000 0.0000 0.0000
# 3 -0.8968 5.2642 53.9719 0.0000 0.0000 0.0000
# 4 0.0000 0.0000 0.0000 13.5911 0.0000 0.0000
# 5 0.0000 0.0000 0.0000 0.0000 17.5577 0.0000
# 6 0.0000 0.0000 0.0000 0.0000 0.0000 12.4539
#
#
#
# Elastic Compliance Matrix: (Units=1/GPa)
#
#
# Indices 1 2 3 4 5 6 
#
# 1 0.015714 -0.002818 0.000536 0.000000 0.000000 0.000000
# 2 -0.002818 0.011101 -0.001130 0.000000 0.000000 0.000000
# 3 0.000536 -0.001130 0.018647 0.000000 0.000000 0.000000
# 4 0.000000 0.000000 0.000000 0.073578 0.000000 0.000000
# 5 0.000000 0.000000 0.000000 0.000000 0.056955 0.000000
# 6 0.000000 0.000000 0.000000 0.000000 0.000000 0.080296
#
#
# Mechanical properties :
#
#
# Convention : Reuss Voigt Hill
#
# Bulk Modulus (GPa) = 25.88053 28.66234 27.27143
# Shear Modulus (GPa) = 18.11629 21.67690 19.89659
#
# Velocity S-wave (km/s) = 2.98767 3.26811 3.13103
# Velocity P-wave (km/s) = 4.96521 5.32570 5.14861
#
# Compressibility (1/GPa) = 0.03863909
#
# Stress axis : x y z
#
# Youngs Moduli (GPa) = 63.63655 90.08205 53.62726
#
# Poissons Ratio (x) = 0.25386 -0.02874
# Poissons Ratio (y) = 0.17933 0.06058
# Poissons Ratio (z) = -0.03411 0.10175
#
# Static dielectric constant tensor:
#      x y z
#    x 1.851320 0.000000 0.000000 
#    y 0.000000 1.738630 0.000000 
#    z 0.000000 0.000000 1.777420 
# 
# From -- ./inp_files/4307.got.cif
#   From: 2010.05.17/outbox.cif.g08.bks.cpg/sg21_3_cif.got.tgz:4307.got - 2010.06.03 23:14:55.
