data_PCOD9323410
_publ_section_title
;
Structure prediction by ZEFSAII (Michael W. Deem and Ramdas Pophale) SiO2 
 PCOD9323410
Probable space group: C 2 2 2
;
_chemical_formula_sum "Si O2"
_cell_formula_units_Z 54
_cell_length_a 10.403884
_cell_length_b 16.665665
_cell_length_c 15.734018
_cell_angle_alpha 90.000000
_cell_angle_beta 90.000000
_cell_angle_gamma 90.000000
_cell_volume 2728.084334
_symmetry_space_group_name_H-M "C 2 2 2"
_symmetry_group_IT_number 21
_symmetry_cell_setting 'orthorhombic'
loop_
_space_group_symop_operation_xyz
x,y,z
-x,-y,z
x,-y,-z
-x,y,-z
1/2+x,1/2+y,z
1/2-x,1/2-y,z
1/2+x,1/2-y,-z
1/2-x,1/2+y,-z
loop_
_atom_site_type_symbol
_atom_site_label
_atom_site_fract_x
_atom_site_fract_y
_atom_site_fract_z
Si Si1 0.565690 0.867522 0.865920
Si Si2 0.750000 0.750000 0.945173
Si Si3 0.349615 0.816711 0.484623
Si Si4 0.865016 0.404120 0.319216
Si Si5 0.500000 0.000000 0.000000
Si Si6 0.354066 0.588909 0.968278
Si Si7 0.330749 0.077995 0.359209
Si Si8 0.769693 0.344768 0.810790
O O1 0.624526 0.782689 0.895612
O O2 0.643711 0.889388 0.780786
O O3 0.571473 0.937870 0.936263
O O4 0.415069 0.862001 0.842994
O O5 0.712967 0.669132 0.994754
O O6 0.500000 0.795635 0.500000
O O7 0.250000 0.750000 0.513108
O O8 0.326071 0.836427 0.385937
O O9 0.320661 0.892906 0.544571
O O10 0.795794 0.486143 0.344261
O O11 0.017351 0.414587 0.337579
O O12 0.312976 0.500000 0.000000
O O13 0.500000 0.594965 0.000000
O O14 0.325355 0.601498 0.868357
O O15 0.261402 0.131655 0.288220
O O16 0.750000 0.250000 0.821198
#
# Coordination Sequence:
#
# PCOD9323410 Si02
#       8
#     8   4   8   8   2   8   8   8
#     4  11  25  38  62  96 122 164 218 270 337 380
#     4  12  26  38  62  88 122 160 212 268 318 396
#     4  10  20  36  62  93 126 167 206 263 327 393
#     4   9  19  36  58  90 126 155 209 267 319 382
#     4  12  24  40  64  88 126 168 232 280 318 388
#     4  11  26  44  60  85 124 172 217 266 332 395
#     4   9  18  34  60  92 117 159 210 263 318 381
#     4  11  21  38  63  88 124 161 214 272 319 395
#
# _framework density 19.79411
#
# number of rings (size 3 to 8) (size 9 to 14) (size 15 to 20)
#    0.000    1.630    0.741    4.444    8.296    1.778 
#    0.000    0.000    0.000    1.778    0.000    0.000 
#    0.000    0.000    0.000    0.000    0.000    0.000 
#
# Total GULP energy -150519.783031 kJ/mol
# GULP energy per Si atom -5574.806779 kJ/mol
# Density = 1.974906 g / cm^3
# Si number density = 19.794110 Si / 1000 Ang^3
#
#
#
# Elastic Constant Matrix: (Units=GPa)
#
#
# Indices 1 2 3 4 5 6 
#
# 1 54.1401 21.8688 21.5508 0.0000 0.0000 0.0000
# 2 21.8688 122.4377 42.6300 0.0000 0.0000 0.0000
# 3 21.5508 42.6300 117.0544 0.0000 0.0000 0.0000
# 4 0.0000 0.0000 0.0000 27.1227 0.0000 0.0000
# 5 0.0000 0.0000 0.0000 0.0000 16.9631 0.0000
# 6 0.0000 0.0000 0.0000 0.0000 0.0000 33.3872
#
#
#
# Elastic Compliance Matrix: (Units=1/GPa)
#
#
# Indices 1 2 3 4 5 6 
#
# 1 0.020689 -0.002713 -0.002821 0.000000 0.000000 0.000000
# 2 -0.002713 0.009709 -0.003036 0.000000 0.000000 0.000000
# 3 -0.002821 -0.003036 0.010168 0.000000 0.000000 0.000000
# 4 0.000000 0.000000 0.000000 0.036869 0.000000 0.000000
# 5 0.000000 0.000000 0.000000 0.000000 0.058951 0.000000
# 6 0.000000 0.000000 0.000000 0.000000 0.000000 0.029952
#
#
# Mechanical properties :
#
#
# Convention : Reuss Voigt Hill
#
# Bulk Modulus (GPa) = 42.68828 51.74794 47.21811
# Shear Modulus (GPa) = 26.13842 29.33345 27.73594
#
# Velocity S-wave (km/s) = 3.63783 3.85376 3.74735
# Velocity P-wave (km/s) = 6.26563 6.78246 6.52916
#
# Compressibility (1/GPa) = 0.02342563
#
# Stress axis : x y z
#
# Youngs Moduli (GPa) = 48.33380 102.99445 98.34515
#
# Poissons Ratio (x) = 0.27944 0.27743
# Poissons Ratio (y) = 0.13114 0.29862
# Poissons Ratio (z) = 0.13635 0.31274
#
# Static dielectric constant tensor:
#      x y z
#    x 1.714700 0.000000 0.000000 
#    y 0.000000 1.695290 0.000000 
#    z 0.000000 0.000000 1.756530 
# 
# From -- ./inp_files/31622.got.cif
#   From: 2010.05.17/outbox.cif.g08.bks.cpg/sg21_16_cif.got.tgz:31622.got - 2010.06.03 23:14:55.
