data_PCOD9323490
_publ_section_title
;
Structure prediction by ZEFSAII (Michael W. Deem and Ramdas Pophale) SiO2 
 PCOD9323490
Probable space group: C 2 2 2
;
_chemical_formula_sum "Si O2"
_cell_formula_units_Z 58
_cell_length_a 17.610224
_cell_length_b 9.336321
_cell_length_c 16.286714
_cell_angle_alpha 90.000000
_cell_angle_beta 90.000000
_cell_angle_gamma 90.000000
_cell_volume 2677.775264
_symmetry_space_group_name_H-M "C 2 2 2"
_symmetry_group_IT_number 21
_symmetry_cell_setting 'orthorhombic'
loop_
_space_group_symop_operation_xyz
x,y,z
-x,-y,z
x,-y,-z
-x,y,-z
1/2+x,1/2+y,z
1/2-x,1/2-y,z
1/2+x,1/2-y,-z
1/2-x,1/2+y,-z
loop_
_atom_site_type_symbol
_atom_site_label
_atom_site_fract_x
_atom_site_fract_y
_atom_site_fract_z
Si Si1 0.786442 0.596555 0.077863
Si Si2 0.757489 0.593028 0.607789
Si Si3 0.788530 0.104435 0.202280
Si Si4 0.575747 0.430804 0.775240
Si Si5 0.935553 0.616131 0.169952
Si Si6 0.087845 0.455626 0.362412
Si Si7 0.633968 0.644894 0.398325
Si Si8 0.500000 0.500000 0.500000
O O1 0.750000 0.750000 0.065969
O O2 0.753532 0.527232 0.160460
O O3 0.874408 0.602761 0.098438
O O4 0.768848 0.500000 0.000000
O O5 0.750000 0.750000 0.566398
O O6 0.725230 0.610957 0.700571
O O7 0.847794 0.569796 0.615198
O O8 0.707903 0.452922 0.579637
O O9 0.750000 0.250000 0.168474
O O10 0.875789 0.060464 0.184685
O O11 0.500000 0.500000 0.740983
O O12 0.551898 0.288192 0.824330
O O13 0.625618 0.376454 0.699517
O O14 0.910969 0.571359 0.263595
O O15 0.000000 0.500000 0.151811
O O16 0.122086 0.314960 0.407062
O O17 0.000000 0.500000 0.382540
O O18 0.559163 0.585143 0.443266
#
# Coordination Sequence:
#
# PCOD9323490 Si02
#       8
#     8   8   8   8   8   8   8   2
#     4  12  24  42  61  85 125 171 219 264 332 406
#     4  10  21  37  66 101 129 162 220 280 325 376
#     4  10  21  35  61  93 123 161 207 272 321 377
#     4  10  20  37  62  96 122 160 217 268 324 376
#     4  10  22  37  63  94 127 164 207 273 330 384
#     4  10  21  38  68 102 129 163 220 276 331 380
#     4  10  23  38  65  91 138 173 215 266 329 400
#     4  12  24  44  62 100 138 184 212 268 348 416
#
# _framework density 21.659772
#
# number of rings (size 3 to 8) (size 9 to 14) (size 15 to 20)
#    0.000    1.655    3.448    0.828    3.862    3.586 
#    0.000    1.724    0.000    0.414    0.000    0.000 
#    0.000    0.000    0.000    0.000    0.000    0.000 
#
# Total GULP energy -161459.436533 kJ/mol
# GULP energy per Si atom -5567.566777 kJ/mol
# Density = 2.161047 g / cm^3
# Si number density = 21.659772 Si / 1000 Ang^3
#
#
#
# Elastic Constant Matrix: (Units=GPa)
#
#
# Indices 1 2 3 4 5 6 
#
# 1 142.9048 77.4075 -1.0696 0.0000 0.0000 0.0000
# 2 77.4075 158.5475 29.9618 0.0000 0.0000 0.0000
# 3 -1.0696 29.9618 13.6039 0.0000 0.0000 0.0000
# 4 0.0000 0.0000 0.0000 20.2572 0.0000 0.0000
# 5 0.0000 0.0000 0.0000 0.0000 0.7269 0.0000
# 6 0.0000 0.0000 0.0000 0.0000 0.0000 30.9111
#
#
#
# Elastic Compliance Matrix: (Units=1/GPa)
#
#
# Indices 1 2 3 4 5 6 
#
# 1 0.013498 -0.011632 0.026681 0.000000 0.000000 0.000000
# 2 -0.011632 0.020828 -0.046787 0.000000 0.000000 0.000000
# 3 0.026681 -0.046787 0.178653 0.000000 0.000000 0.000000
# 4 0.000000 0.000000 0.000000 0.049365 0.000000 0.000000
# 5 0.000000 0.000000 0.000000 0.000000 1.375682 0.000000
# 6 0.000000 0.000000 0.000000 0.000000 0.000000 0.032351
#
#
# Mechanical properties :
#
#
# Convention : Reuss Voigt Hill
#
# Bulk Modulus (GPa) = 6.68892 58.62840 32.65866
# Shear Modulus (GPa) = 2.80318 24.29614 13.54966
#
# Velocity S-wave (km/s) = 1.13886 3.35284 2.50385
# Velocity P-wave (km/s) = 2.19641 6.48963 4.84456
#
# Compressibility (1/GPa) = 0.14950094
#
# Stress axis : x y z
#
# Youngs Moduli (GPa) = 74.08385 48.01183 5.59745
#
# Poissons Ratio (x) = 0.55849 -0.14934
# Poissons Ratio (y) = 0.86176 0.26189
# Poissons Ratio (z) = -1.97660 2.24635
#
# Static dielectric constant tensor:
#      x y z
#    x 1.870670 0.000000 0.000000 
#    y 0.000000 1.799390 0.000000 
#    z 0.000000 0.000000 1.794620 
# 
# From -- ./inp_files/36925.got.cif
#   From: 2010.05.17/outbox.cif.g08.bks.cpg/sg21_19_cif.got.tgz:36925.got - 2010.06.03 23:14:55.
