data_PCOD9323523
_publ_section_title
;
Structure prediction by ZEFSAII (Michael W. Deem and Ramdas Pophale) SiO2 
 PCOD9323523
Probable space group: C 2 2 2
;
_chemical_formula_sum "Si O2"
_cell_formula_units_Z 40
_cell_length_a 25.061231
_cell_length_b 5.425186
_cell_length_c 12.647836
_cell_angle_alpha 90.000000
_cell_angle_beta 90.000000
_cell_angle_gamma 90.000000
_cell_volume 1719.623049
_symmetry_space_group_name_H-M "C 2 2 2"
_symmetry_group_IT_number 21
_symmetry_cell_setting 'orthorhombic'
loop_
_space_group_symop_operation_xyz
x,y,z
-x,-y,z
x,-y,-z
-x,y,-z
1/2+x,1/2+y,z
1/2-x,1/2-y,z
1/2+x,1/2-y,-z
1/2-x,1/2+y,-z
loop_
_atom_site_type_symbol
_atom_site_label
_atom_site_fract_x
_atom_site_fract_y
_atom_site_fract_z
Si Si1 0.919408 0.995886 0.379228
Si Si2 0.882130 0.414711 0.773017
Si Si3 0.191840 0.235368 0.673801
Si Si4 0.469375 0.746420 0.192714
Si Si5 0.197289 0.088175 0.119096
O O1 0.857499 0.088185 0.377671
O O2 0.957292 0.182693 0.315232
O O3 0.935746 0.000000 0.500000
O O4 0.919093 0.749473 0.305636
O O5 0.833802 0.500254 0.697740
O O6 0.856638 0.239798 0.859628
O O7 0.909187 0.651548 0.829933
O O8 0.250000 0.250000 0.621195
O O9 0.199762 0.113254 0.788829
O O10 0.500000 0.500000 0.149667
O O11 0.500000 0.000000 0.170245
O O12 0.250000 0.250000 0.133750
O O13 0.197815 0.000000 0.000000
#
# Coordination Sequence:
#
# PCOD9323523 Si02
#       5
#     8   8   8   8   8
#     4  10  23  41  60  95 133 171 225 281 332 395
#     4  10  22  41  63  92 139 174 220 277 335 403
#     4  10  20  38  59  88 133 182 217 263 322 398
#     4  11  22  43  67  96 129 176 223 279 345 400
#     4  11  22  36  63 100 139 172 218 272 337 401
#
# _framework density 23.260909999999999
#
# number of rings (size 3 to 8) (size 9 to 14) (size 15 to 20)
#    0.000    1.600    4.000    0.600    0.000    3.600 
#    7.200    0.000    0.000    0.000    0.000   40.600 
#    0.000    0.000    0.000    0.000    0.000    0.000 
#
# Total GULP energy -111431.890371 kJ/mol
# GULP energy per Si atom -5571.594519 kJ/mol
# Density = 2.320797 g / cm^3
# Si number density = 23.260910 Si / 1000 Ang^3
#
#
#
# Elastic Constant Matrix: (Units=GPa)
#
#
# Indices 1 2 3 4 5 6 
#
# 1 120.7934 37.2892 -12.1616 0.0000 0.0000 0.0000
# 2 37.2892 114.9656 7.3635 0.0000 0.0000 0.0000
# 3 -12.1616 7.3635 49.6717 0.0000 0.0000 0.0000
# 4 0.0000 0.0000 0.0000 5.0203 0.0000 0.0000
# 5 0.0000 0.0000 0.0000 0.0000 -0.8682 0.0000
# 6 0.0000 0.0000 0.0000 0.0000 0.0000 73.0331
#
#
#
# Elastic Compliance Matrix: (Units=1/GPa)
#
#
# Indices 1 2 3 4 5 6 
#
# 1 0.009579 -0.003288 0.002833 0.000000 0.000000 0.000000
# 2 -0.003288 0.009911 -0.002274 0.000000 0.000000 0.000000
# 3 0.002833 -0.002274 0.021163 0.000000 0.000000 0.000000
# 4 0.000000 0.000000 0.000000 0.199192 0.000000 0.000000
# 5 0.000000 0.000000 0.000000 0.000000 -1.151770 0.000000
# 6 0.000000 0.000000 0.000000 0.000000 0.000000 0.013692
#
#
# Mechanical properties :
#
#
# Convention : Reuss Voigt Hill
#
# Bulk Modulus (GPa) = 28.41509 38.93479 33.67494
# Shear Modulus (GPa) = -5.67509 32.29968 13.31230
#
# Velocity S-wave (km/s) = -1.56367 3.73041 2.39488
# Velocity P-wave (km/s) = 2.99704 5.94384 4.70699
#
# Compressibility (1/GPa) = 0.03519257
#
# Stress axis : x y z
#
# Youngs Moduli (GPa) = 104.39578 100.90301 47.25249
#
# Poissons Ratio (x) = 0.33181 -0.13386
# Poissons Ratio (y) = 0.34329 0.10747
# Poissons Ratio (z) = -0.29573 0.22948
#
# Static dielectric constant tensor:
#      x y z
#    x 2.053260 0.000000 0.000000 
#    y 0.000000 1.996190 0.000000 
#    z 0.000000 0.000000 1.783650 
# 
# From -- ./inp_files/27622.got.cif
#   From: 2010.05.17/outbox.cif.g08.bks.cpg/sg21_14_cif.got.tgz:27622.got - 2010.06.03 23:14:55.
