data_PCOD9323075
_publ_section_title
;
Structure prediction by ZEFSAII (Michael W. Deem and Ramdas Pophale) SiO2 
 PCOD9323075
Probable space group: C 2 2 2
;
_chemical_formula_sum "Si O2"
_cell_formula_units_Z 58
_cell_length_a 13.967596
_cell_length_b 22.943772
_cell_length_c 9.180569
_cell_angle_alpha 90.000000
_cell_angle_beta 90.000000
_cell_angle_gamma 90.000000
_cell_volume 2942.090870
_symmetry_space_group_name_H-M "C 2 2 2"
_symmetry_group_IT_number 21
_symmetry_cell_setting 'orthorhombic'
loop_
_space_group_symop_operation_xyz
x,y,z
-x,-y,z
x,-y,-z
-x,y,-z
1/2+x,1/2+y,z
1/2-x,1/2-y,z
1/2+x,1/2-y,-z
1/2-x,1/2+y,-z
loop_
_atom_site_type_symbol
_atom_site_label
_atom_site_fract_x
_atom_site_fract_y
_atom_site_fract_z
Si Si1 0.500000 0.000000 0.500000
Si Si2 0.776063 0.082144 0.752385
Si Si3 0.552986 0.279197 0.135465
Si Si4 0.168316 0.417226 0.532700
Si Si5 0.979309 0.879044 0.338581
Si Si6 0.342704 0.453679 0.741046
Si Si7 0.832644 0.701278 0.689582
Si Si8 0.227690 0.854965 0.048971
O O1 0.424494 0.044609 0.576178
O O2 0.690103 0.075527 0.638237
O O3 0.867261 0.109014 0.669688
O O4 0.819818 0.018841 0.792117
O O5 0.749103 0.122936 0.888313
O O6 0.501974 0.334972 0.206964
O O7 0.574259 0.237547 0.270176
O O8 0.650576 0.303346 0.062832
O O9 0.500000 0.251200 0.000000
O O10 0.263227 0.439676 0.617153
O O11 0.158600 0.349135 0.571515
O O12 0.000000 0.855448 0.500000
O O13 0.051933 0.934377 0.316376
O O14 0.320483 0.410231 0.872503
O O15 0.750000 0.750000 0.658445
O O16 0.808786 0.667158 0.840680
#
# Coordination Sequence:
#
# PCOD9323075 Si02
#       8
#     2   8   8   8   8   8   8   8
#     4  12  24  48  64  88 128 172 224 264 308 374
#     4  12  20  35  59  96 125 158 207 249 307 376
#     4  10  19  40  60  84 121 167 199 253 318 372
#     4  11  23  42  65  87 121 171 213 262 320 367
#     4  11  22  33  58  93 135 160 198 244 317 398
#     4  10  20  36  58  88 127 169 192 243 316 376
#     4   9  21  43  65  83 120 167 209 260 326 375
#     4   9  20  36  59  87 123 160 209 247 301 370
#
# _framework density 19.713871000000001
#
# number of rings (size 3 to 8) (size 9 to 14) (size 15 to 20)
#    0.000    1.655    4.138    1.655    0.000    0.552 
#    3.724    3.448    0.000    3.310    0.000    0.000 
#    0.000    0.000    0.000    0.000    0.000    0.000 
#
# Total GULP energy -161530.061085 kJ/mol
# GULP energy per Si atom -5570.002106 kJ/mol
# Density = 1.966900 g / cm^3
# Si number density = 19.713871 Si / 1000 Ang^3
#
#
#
# Elastic Constant Matrix: (Units=GPa)
#
#
# Indices 1 2 3 4 5 6 
#
# 1 50.3576 6.3732 6.0186 0.0000 0.0000 0.0000
# 2 6.3732 81.8286 8.2874 0.0000 0.0000 0.0000
# 3 6.0186 8.2874 55.9595 0.0000 0.0000 0.0000
# 4 0.0000 0.0000 0.0000 16.3545 0.0000 0.0000
# 5 0.0000 0.0000 0.0000 0.0000 16.1487 0.0000
# 6 0.0000 0.0000 0.0000 0.0000 0.0000 11.4246
#
#
#
# Elastic Compliance Matrix: (Units=1/GPa)
#
#
# Indices 1 2 3 4 5 6 
#
# 1 0.020269 -0.001379 -0.001976 0.000000 0.000000 0.000000
# 2 -0.001379 0.012501 -0.001703 0.000000 0.000000 0.000000
# 3 -0.001976 -0.001703 0.018335 0.000000 0.000000 0.000000
# 4 0.000000 0.000000 0.000000 0.061145 0.000000 0.000000
# 5 0.000000 0.000000 0.000000 0.000000 0.061925 0.000000
# 6 0.000000 0.000000 0.000000 0.000000 0.000000 0.087530
#
#
# Mechanical properties :
#
#
# Convention : Reuss Voigt Hill
#
# Bulk Modulus (GPa) = 24.39666 25.50047 24.94856
# Shear Modulus (GPa) = 17.51425 19.94998 18.73211
#
# Velocity S-wave (km/s) = 2.98388 3.18461 3.08587
# Velocity P-wave (km/s) = 4.92682 5.14642 5.03782
#
# Compressibility (1/GPa) = 0.04098921
#
# Stress axis : x y z
#
# Youngs Moduli (GPa) = 49.33742 79.99674 54.54110
#
# Poissons Ratio (x) = 0.11028 0.10776
# Poissons Ratio (y) = 0.06801 0.09288
# Poissons Ratio (z) = 0.09748 0.13624
#
# Static dielectric constant tensor:
#      x y z
#    x 1.758410 0.000000 0.000000 
#    y 0.000000 1.739060 0.000000 
#    z 0.000000 0.000000 1.694220 
# 
# From -- ./inp_files/15435.got.cif
#   From: 2010.05.17/outbox.cif.g08.bks.cpg/sg21_8_cif.got.tgz:15435.got - 2010.06.03 23:14:55.
