data_PCOD9323023
_publ_section_title
;
Structure prediction by ZEFSAII (Michael W. Deem and Ramdas Pophale) SiO2 
 PCOD9323023
Probable space group: C 2 2 2
;
_chemical_formula_sum "Si O2"
_cell_formula_units_Z 56
_cell_length_a 22.389719
_cell_length_b 20.655626
_cell_length_c 6.058582
_cell_angle_alpha 90.000000
_cell_angle_beta 90.000000
_cell_angle_gamma 90.000000
_cell_volume 2801.934604
_symmetry_space_group_name_H-M "C 2 2 2"
_symmetry_group_IT_number 21
_symmetry_cell_setting 'orthorhombic'
loop_
_space_group_symop_operation_xyz
x,y,z
-x,-y,z
x,-y,-z
-x,y,-z
1/2+x,1/2+y,z
1/2-x,1/2-y,z
1/2+x,1/2-y,-z
1/2-x,1/2+y,-z
loop_
_atom_site_type_symbol
_atom_site_label
_atom_site_fract_x
_atom_site_fract_y
_atom_site_fract_z
Si Si1 0.133693 0.219241 0.918665
Si Si2 0.550755 0.377984 0.848584
Si Si3 0.841809 0.936407 0.352239
Si Si4 0.264790 0.931055 0.984511
Si Si5 0.232489 0.157135 0.636068
Si Si6 0.014259 0.743567 0.257296
Si Si7 0.803003 0.300886 0.750196
O O1 0.102773 0.153190 0.999375
O O2 0.142183 0.264956 0.133247
O O3 0.195469 0.202006 0.801498
O O4 0.085705 0.249138 0.752985
O O5 0.588428 0.424670 0.694367
O O6 0.518486 0.314447 0.744602
O O7 0.500000 0.409539 0.000000
O O8 0.816094 0.870999 0.465283
O O9 0.834415 0.000000 0.500000
O O10 0.797790 0.942966 0.142855
O O11 0.254088 0.904154 0.226807
O O12 0.296040 0.871371 0.859336
O O13 0.296808 0.000000 0.000000
O O14 0.288898 0.186575 0.506806
O O15 0.000000 0.713558 0.500000
O O16 0.000000 0.719197 0.000000
O O17 0.750000 0.250000 0.801623
#
# Coordination Sequence:
#
# PCOD9323023 Si02
#       7
#     8   8   8   8   8   8   8
#     4  10  19  38  57  81 117 155 192 266 326 384
#     4   9  19  36  58  80 110 147 202 260 327 377
#     4  11  20  33  58  80 101 157 215 252 312 381
#     4  11  22  39  54  77 116 160 202 243 313 382
#     4  11  21  34  58  75 115 151 199 257 308 382
#     4   9  19  35  58  82 112 154 195 245 323 378
#     4  11  23  34  52  89 113 148 208 254 317 377
#
# _framework density 19.986191999999999
#
# number of rings (size 3 to 8) (size 9 to 14) (size 15 to 20)
#    0.000    2.000    4.286    1.714    2.000    1.143 
#    0.000    0.000    0.000   30.857    0.000    0.000 
#    0.000    9.143    0.000    7.429    0.000    0.000 
#
# Total GULP energy -155914.348169 kJ/mol
# GULP energy per Si atom -5568.369577 kJ/mol
# Density = 1.994070 g / cm^3
# Si number density = 19.986192 Si / 1000 Ang^3
#
#
#
# Elastic Constant Matrix: (Units=GPa)
#
#
# Indices 1 2 3 4 5 6 
#
# 1 48.5812 12.6719 21.1199 0.0000 0.0000 0.0000
# 2 12.6719 70.8284 25.8564 0.0000 0.0000 0.0000
# 3 21.1199 25.8564 104.5443 0.0000 0.0000 0.0000
# 4 0.0000 0.0000 0.0000 42.0719 0.0000 0.0000
# 5 0.0000 0.0000 0.0000 0.0000 34.4480 0.0000
# 6 0.0000 0.0000 0.0000 0.0000 0.0000 15.5089
#
#
#
# Elastic Compliance Matrix: (Units=1/GPa)
#
#
# Indices 1 2 3 4 5 6 
#
# 1 0.023013 -0.002660 -0.003991 0.000000 0.000000 0.000000
# 2 -0.002660 0.015827 -0.003377 0.000000 0.000000 0.000000
# 3 -0.003991 -0.003377 0.011207 0.000000 0.000000 0.000000
# 4 0.000000 0.000000 0.000000 0.023769 0.000000 0.000000
# 5 0.000000 0.000000 0.000000 0.000000 0.029029 0.000000
# 6 0.000000 0.000000 0.000000 0.000000 0.000000 0.064479
#
#
# Mechanical properties :
#
#
# Convention : Reuss Voigt Hill
#
# Bulk Modulus (GPa) = 33.34409 38.13895 35.74152
# Shear Modulus (GPa) = 25.33208 29.35947 27.34578
#
# Velocity S-wave (km/s) = 3.56403 3.83690 3.70298
# Velocity P-wave (km/s) = 5.80140 6.22520 6.01703
#
# Compressibility (1/GPa) = 0.02999033
#
# Stress axis : x y z
#
# Youngs Moduli (GPa) = 43.45358 63.18153 89.23123
#
# Poissons Ratio (x) = 0.16808 0.35613
# Poissons Ratio (y) = 0.11560 0.30134
# Poissons Ratio (z) = 0.17343 0.21337
#
# Static dielectric constant tensor:
#      x y z
#    x 1.730770 0.000000 0.000000 
#    y 0.000000 1.740620 0.000000 
#    z 0.000000 0.000000 1.850590 
# 
# From -- ./inp_files/6799.got.cif
#   From: 2010.05.17/outbox.cif.g08.bks.cpg/sg21_4_cif.got.tgz:6799.got - 2010.06.03 23:14:55.
