data_PCOD9323676
_publ_section_title
;
Structure prediction by ZEFSAII (Michael W. Deem and Ramdas Pophale) SiO2 
 PCOD9323676
Probable space group: C 2 2 2
;
_chemical_formula_sum "Si O2"
_cell_formula_units_Z 48
_cell_length_a 15.317171
_cell_length_b 11.715764
_cell_length_c 11.453453
_cell_angle_alpha 90.000000
_cell_angle_beta 90.000000
_cell_angle_gamma 90.000000
_cell_volume 2055.349178
_symmetry_space_group_name_H-M "C 2 2 2"
_symmetry_group_IT_number 21
_symmetry_cell_setting 'orthorhombic'
loop_
_space_group_symop_operation_xyz
x,y,z
-x,-y,z
x,-y,-z
-x,y,-z
1/2+x,1/2+y,z
1/2-x,1/2-y,z
1/2+x,1/2-y,-z
1/2-x,1/2+y,-z
loop_
_atom_site_type_symbol
_atom_site_label
_atom_site_fract_x
_atom_site_fract_y
_atom_site_fract_z
Si Si1 0.434182 0.350760 0.669704
Si Si2 0.402765 0.965122 0.862846
Si Si3 0.874897 0.076367 0.759718
Si Si4 0.100864 0.228433 0.039059
Si Si5 0.166868 0.683195 0.206512
Si Si6 0.703518 0.628853 0.471401
O O1 0.380585 0.440271 0.750617
O O2 0.532932 0.380993 0.702144
O O3 0.412675 0.224850 0.713405
O O4 0.389644 0.368589 0.543105
O O5 0.333720 0.047028 0.800465
O O6 0.500000 0.000000 0.823132
O O7 0.391347 0.830551 0.866362
O O8 0.400345 0.000000 0.000000
O O9 0.867279 0.118513 0.891482
O O10 0.807013 0.124632 0.667733
O O11 0.150282 0.267787 0.923513
O O12 0.000000 0.216148 0.000000
O O13 0.250000 0.750000 0.252398
O O14 0.740381 0.500000 0.500000
O O15 0.750000 0.750000 0.499055
#
# Coordination Sequence:
#
# PCOD9323676 Si02
#       6
#     8   8   8   8   8   8
#     4  10  20  40  63  89 118 164 209 257 326 383
#     4   9  15  33  58  76 109 164 211 238 308 385
#     4  10  21  38  65  91 117 163 216 256 310 391
#     4  11  19  38  61  85 124 166 211 266 311 385
#     4  11  22  36  57  89 124 161 211 267 324 382
#     4  10  22  43  68  91 129 166 210 265 331 391
#
# _framework density 23.353694999999998
#
# number of rings (size 3 to 8) (size 9 to 14) (size 15 to 20)
#    0.000    1.833    5.000    1.000    0.000    3.333 
#   18.000    0.000    0.000    1.000    0.000    0.000 
#    0.000    0.000    0.000    0.000    0.000    0.000 
#
# Total GULP energy -133888.778493 kJ/mol
# GULP energy per Si atom -5578.699104 kJ/mol
# Density = 2.330054 g / cm^3
# Si number density = 23.353695 Si / 1000 Ang^3
#
#
#
# Elastic Constant Matrix: (Units=GPa)
#
#
# Indices 1 2 3 4 5 6 
#
# 1 42.3190 8.4544 -1.4612 0.0000 0.0000 0.0000
# 2 8.4544 102.3108 32.8146 0.0000 0.0000 0.0000
# 3 -1.4612 32.8146 81.2757 0.0000 0.0000 0.0000
# 4 0.0000 0.0000 0.0000 16.0512 0.0000 0.0000
# 5 0.0000 0.0000 0.0000 0.0000 14.7062 0.0000
# 6 0.0000 0.0000 0.0000 0.0000 0.0000 27.0769
#
#
#
# Elastic Compliance Matrix: (Units=1/GPa)
#
#
# Indices 1 2 3 4 5 6 
#
# 1 0.024170 -0.002454 0.001426 0.000000 0.000000 0.000000
# 2 -0.002454 0.011477 -0.004678 0.000000 0.000000 0.000000
# 3 0.001426 -0.004678 0.014218 0.000000 0.000000 0.000000
# 4 0.000000 0.000000 0.000000 0.062301 0.000000 0.000000
# 5 0.000000 0.000000 0.000000 0.000000 0.067999 0.000000
# 6 0.000000 0.000000 0.000000 0.000000 0.000000 0.036932
#
#
# Mechanical properties :
#
#
# Convention : Reuss Voigt Hill
#
# Bulk Modulus (GPa) = 26.00703 33.94680 29.97691
# Shear Modulus (GPa) = 20.71873 23.97336 22.34605
#
# Velocity S-wave (km/s) = 2.98177 3.20743 3.09666
# Velocity P-wave (km/s) = 4.79739 5.31830 5.06455
#
# Compressibility (1/GPa) = 0.03845115
#
# Stress axis : x y z
#
# Youngs Moduli (GPa) = 41.37427 87.12789 70.33255
#
# Poissons Ratio (x) = 0.21385 -0.10026
# Poissons Ratio (y) = 0.10155 0.32902
# Poissons Ratio (z) = -0.05898 0.40759
#
# Static dielectric constant tensor:
#      x y z
#    x 1.939120 0.000000 0.000000 
#    y 0.000000 1.902910 0.000000 
#    z 0.000000 0.000000 1.862530 
# 
# From -- ./inp_files/24031.got.cif
#   From: 2010.05.17/outbox.cif.g08.bks.cpg/sg21_13_cif.got.tgz:24031.got - 2010.06.03 23:14:55.
