data_PCOD9323756
_publ_section_title
;
Structure prediction by ZEFSAII (Michael W. Deem and Ramdas Pophale) SiO2 
 PCOD9323756
Probable space group: C 2 2 2
;
_chemical_formula_sum "Si O2"
_cell_formula_units_Z 48
_cell_length_a 8.739267
_cell_length_b 11.459699
_cell_length_c 19.212725
_cell_angle_alpha 90.000000
_cell_angle_beta 90.000000
_cell_angle_gamma 90.000000
_cell_volume 1924.142291
_symmetry_space_group_name_H-M "C 2 2 2"
_symmetry_group_IT_number 21
_symmetry_cell_setting 'orthorhombic'
loop_
_space_group_symop_operation_xyz
x,y,z
-x,-y,z
x,-y,-z
-x,y,-z
1/2+x,1/2+y,z
1/2-x,1/2-y,z
1/2+x,1/2-y,-z
1/2-x,1/2+y,-z
loop_
_atom_site_type_symbol
_atom_site_label
_atom_site_fract_x
_atom_site_fract_y
_atom_site_fract_z
Si Si1 0.867396 0.639290 0.650012
Si Si2 0.384566 0.841689 0.198524
Si Si3 0.928159 0.631321 0.070204
Si Si4 0.846707 0.073506 0.692900
Si Si5 0.832195 0.942932 0.154675
Si Si6 0.416043 0.269651 0.437982
O O1 0.750000 0.750000 0.645402
O O2 0.953549 0.646748 0.724761
O O3 0.774716 0.519047 0.660570
O O4 0.982511 0.658684 0.586093
O O5 0.250000 0.750000 0.204701
O O6 0.500391 0.808439 0.138084
O O7 0.291447 0.956206 0.175020
O O8 0.747708 0.617078 0.087395
O O9 0.000000 0.500000 0.069366
O O10 0.000000 0.684951 0.000000
O O11 0.885884 0.164550 0.633609
O O12 0.825977 0.123225 0.770871
O O13 0.000000 0.000000 0.703442
O O14 0.000000 0.000000 0.141623
O O15 0.500000 0.336373 0.500000
O O16 0.250000 0.250000 0.468071
#
# Coordination Sequence:
#
# PCOD9323756 Si02
#       6
#     8   8   8   8   8   8
#     4  10  20  42  68  96 125 173 230 282 332 410
#     4   9  19  35  60  85 123 163 208 268 324 380
#     4   9  18  36  59  86 129 172 206 260 332 389
#     4  10  21  41  72  94 128 177 225 284 344 405
#     4   9  19  36  61  96 118 159 227 267 317 402
#     4  12  28  46  65  99 139 176 229 288 357 419
#
# _framework density 24.946180999999999
#
# number of rings (size 3 to 8) (size 9 to 14) (size 15 to 20)
#    0.000    2.167    1.667    0.500    4.667    1.000 
#    0.000   10.000    0.000    0.000    0.000    0.000 
#    0.000    0.000    0.000    0.000    0.000    0.000 
#
# Total GULP energy -133966.038869 kJ/mol
# GULP energy per Si atom -5581.918286 kJ/mol
# Density = 2.488940 g / cm^3
# Si number density = 24.946181 Si / 1000 Ang^3
#
#
#
# Elastic Constant Matrix: (Units=GPa)
#
#
# Indices 1 2 3 4 5 6 
#
# 1 140.9084 20.6551 77.7923 0.0000 0.0000 0.0000
# 2 20.6551 54.0061 23.4188 0.0000 0.0000 0.0000
# 3 77.7923 23.4188 158.7997 0.0000 0.0000 0.0000
# 4 0.0000 0.0000 0.0000 19.2002 0.0000 0.0000
# 5 0.0000 0.0000 0.0000 0.0000 44.9481 0.0000
# 6 0.0000 0.0000 0.0000 0.0000 0.0000 35.7796
#
#
#
# Elastic Compliance Matrix: (Units=1/GPa)
#
#
# Indices 1 2 3 4 5 6 
#
# 1 0.009888 -0.001796 -0.004579 0.000000 0.000000 0.000000
# 2 -0.001796 0.020108 -0.002085 0.000000 0.000000 0.000000
# 3 -0.004579 -0.002085 0.008848 0.000000 0.000000 0.000000
# 4 0.000000 0.000000 0.000000 0.052083 0.000000 0.000000
# 5 0.000000 0.000000 0.000000 0.000000 0.022248 0.000000
# 6 0.000000 0.000000 0.000000 0.000000 0.000000 0.027949
#
#
# Mechanical properties :
#
#
# Convention : Reuss Voigt Hill
#
# Bulk Modulus (GPa) = 45.61541 66.38295 55.99918
# Shear Modulus (GPa) = 30.23848 35.44211 32.84030
#
# Velocity S-wave (km/s) = 3.48537 3.77336 3.63222
# Velocity P-wave (km/s) = 5.87557 6.75667 6.33146
#
# Compressibility (1/GPa) = 0.02192242
#
# Stress axis : x y z
#
# Youngs Moduli (GPa) = 101.13170 49.73212 113.02023
#
# Poissons Ratio (x) = 0.08933 0.51753
# Poissons Ratio (y) = 0.18165 0.23570
# Poissons Ratio (z) = 0.46309 0.10372
#
# Static dielectric constant tensor:
#      x y z
#    x 1.925970 0.000000 0.000000 
#    y 0.000000 2.080400 0.000000 
#    z 0.000000 0.000000 2.021760 
# 
# From -- ./inp_files/35703.got.cif
#   From: 2010.05.17/outbox.cif.g08.bks.cpg/sg21_18_cif.got.tgz:35703.got - 2010.06.03 23:14:55.
