data_PCOD9323830
_publ_section_title
;
Structure prediction by ZEFSAII (Michael W. Deem and Ramdas Pophale) SiO2 
 PCOD9323830
Probable space group: C 2 2 2
;
_chemical_formula_sum "Si O2"
_cell_formula_units_Z 48
_cell_length_a 15.635328
_cell_length_b 11.817641
_cell_length_c 11.633518
_cell_angle_alpha 90.000000
_cell_angle_beta 90.000000
_cell_angle_gamma 90.000000
_cell_volume 2149.556452
_symmetry_space_group_name_H-M "C 2 2 2"
_symmetry_group_IT_number 21
_symmetry_cell_setting 'orthorhombic'
loop_
_space_group_symop_operation_xyz
x,y,z
-x,-y,z
x,-y,-z
-x,y,-z
1/2+x,1/2+y,z
1/2-x,1/2-y,z
1/2+x,1/2-y,-z
1/2-x,1/2+y,-z
loop_
_atom_site_type_symbol
_atom_site_label
_atom_site_fract_x
_atom_site_fract_y
_atom_site_fract_z
Si Si1 0.383299 0.419373 0.749951
Si Si2 0.405505 0.029408 0.864045
Si Si3 0.931054 0.146828 0.661783
Si Si4 0.158486 0.307435 0.194658
Si Si5 0.147985 0.760623 0.058252
Si Si6 0.705758 0.628114 0.529700
O O1 0.383802 0.554332 0.742549
O O2 0.470674 0.378464 0.687307
O O3 0.377875 0.374919 0.878937
O O4 0.309735 0.373353 0.666350
O O5 0.385942 0.160791 0.859721
O O6 0.500000 0.000000 0.821063
O O7 0.338017 0.942743 0.810658
O O8 0.403738 0.000000 0.000000
O O9 0.904874 0.269024 0.706177
O O10 0.885253 0.128683 0.539597
O O11 0.250000 0.250000 0.211672
O O12 0.119975 0.262587 0.072632
O O13 0.250000 0.750000 0.053359
O O14 0.742365 0.500000 0.500000
O O15 0.750000 0.750000 0.499767
#
# Coordination Sequence:
#
# PCOD9323830 Si02
#       6
#     8   8   8   8   8   8
#     4  10  21  37  59  85 114 150 190 234 290 351
#     4   9  18  34  54  75 108 156 197 231 287 353
#     4  10  21  37  59  85 114 150 190 234 290 351
#     4  10  21  35  55  83 117 153 195 242 286 340
#     4  10  21  35  55  83 117 153 195 242 286 340
#     4  10  21  41  65  87 115 150 192 240 291 351
#
# _framework density 22.330188
#
# number of rings (size 3 to 8) (size 9 to 14) (size 15 to 20)
#    0.000    2.167    0.000    2.500    2.333    4.667 
#    3.000    1.667    0.000    1.000    0.000    0.000 
#    0.000    0.000    0.000    0.000    0.000    0.000 
#
# Total GULP energy -133824.695804 kJ/mol
# GULP energy per Si atom -5576.028992 kJ/mol
# Density = 2.227936 g / cm^3
# Si number density = 22.330188 Si / 1000 Ang^3
#
#
#
# Elastic Constant Matrix: (Units=GPa)
#
#
# Indices 1 2 3 4 5 6 
#
# 1 46.2723 3.8397 -11.4658 0.0000 0.0000 0.0000
# 2 3.8397 67.5909 8.5026 0.0000 0.0000 0.0000
# 3 -11.4658 8.5026 52.7115 0.0000 0.0000 0.0000
# 4 0.0000 0.0000 0.0000 39.1938 0.0000 0.0000
# 5 0.0000 0.0000 0.0000 0.0000 149.6589 0.0000
# 6 0.0000 0.0000 0.0000 0.0000 0.0000 27.1973
#
#
#
# Elastic Compliance Matrix: (Units=1/GPa)
#
#
# Indices 1 2 3 4 5 6 
#
# 1 0.023100 -0.001985 0.005345 0.000000 0.000000 0.000000
# 2 -0.001985 0.015272 -0.002895 0.000000 0.000000 0.000000
# 3 0.005345 -0.002895 0.020601 0.000000 0.000000 0.000000
# 4 0.000000 0.000000 0.000000 0.025514 0.000000 0.000000
# 5 0.000000 0.000000 0.000000 0.000000 0.006682 0.000000
# 6 0.000000 0.000000 0.000000 0.000000 0.000000 0.036768
#
#
# Mechanical properties :
#
#
# Convention : Reuss Voigt Hill
#
# Bulk Modulus (GPa) = 16.69359 18.70308 17.69833
# Shear Modulus (GPa) = 34.01943 54.25654 44.13799
#
# Velocity S-wave (km/s) = 3.90740 4.93459 4.45073
# Velocity P-wave (km/s) = 5.27722 6.39224 5.86131
#
# Compressibility (1/GPa) = 0.05990323
#
# Stress axis : x y z
#
# Youngs Moduli (GPa) = 43.28949 65.48008 48.54176
#
# Poissons Ratio (x) = 0.12995 -0.25945
# Poissons Ratio (y) = 0.08591 0.14053
# Poissons Ratio (z) = -0.23138 0.18957
#
# Static dielectric constant tensor:
#      x y z
#    x 1.763410 0.000000 0.000000 
#    y 0.000000 1.774690 0.000000 
#    z 0.000000 0.000000 1.833050 
# 
# From -- ./inp_files/24032.got.cif
#   From: 2010.05.17/outbox.cif.g08.bks.cpg/sg21_13_cif.got.tgz:24032.got - 2010.06.03 23:14:55.
