data_PCOD9323273
_publ_section_title
;
Structure prediction by ZEFSAII (Michael W. Deem and Ramdas Pophale) SiO2 
 PCOD9323273
Probable space group: C 2 2 2
;
_chemical_formula_sum "Si O2"
_cell_formula_units_Z 52
_cell_length_a 24.175622
_cell_length_b 5.539444
_cell_length_c 17.487775
_cell_angle_alpha 90.000000
_cell_angle_beta 90.000000
_cell_angle_gamma 90.000000
_cell_volume 2341.954158
_symmetry_space_group_name_H-M "C 2 2 2"
_symmetry_group_IT_number 21
_symmetry_cell_setting 'orthorhombic'
loop_
_space_group_symop_operation_xyz
x,y,z
-x,-y,z
x,-y,-z
-x,y,-z
1/2+x,1/2+y,z
1/2-x,1/2-y,z
1/2+x,1/2-y,-z
1/2-x,1/2+y,-z
loop_
_atom_site_type_symbol
_atom_site_label
_atom_site_fract_x
_atom_site_fract_y
_atom_site_fract_z
Si Si1 0.054041 0.356945 0.608527
Si Si2 0.854170 0.256549 0.643948
Si Si3 0.894054 0.951478 0.918482
Si Si4 0.201980 0.430565 0.755471
Si Si5 0.911525 0.879905 0.752241
Si Si6 0.177023 0.548985 0.919713
Si Si7 0.616931 0.500000 0.500000
O O1 0.105833 0.533794 0.615215
O O2 0.000000 0.500000 0.587286
O O3 0.046066 0.241475 0.693230
O O4 0.074631 0.169475 0.546147
O O5 0.804664 0.366695 0.691861
O O6 0.889140 0.109122 0.706430
O O7 0.844868 0.103732 0.567765
O O8 0.865208 0.684309 0.922326
O O9 0.927235 0.944736 0.838754
O O10 0.852076 0.185338 0.914286
O O11 0.923186 0.000000 0.000000
O O12 0.250000 0.250000 0.734019
O O13 0.211119 0.519952 0.841966
O O14 0.142650 0.293408 0.757445
O O15 0.208321 0.500000 0.000000
#
# Coordination Sequence:
#
# PCOD9323273 Si02
#       7
#     8   8   8   8   8   8   4
#     4  10  22  38  61  94 124 153 189 247 323 398
#     4  10  20  37  58  86 118 160 202 251 315 375
#     4   9  16  30  54  83 121 165 218 260 307 365
#     4  10  20  35  55  84 119 168 212 261 312 370
#     4   9  19  35  55  86 120 162 207 253 308 370
#     4   9  17  31  51  80 122 164 212 265 318 367
#     4  10  22  37  60  92 120 160 194 260 318 399
#
# _framework density 22.203679000000001
#
# number of rings (size 3 to 8) (size 9 to 14) (size 15 to 20)
#    0.000    2.462    1.538    0.462    0.000    4.923 
#    0.000    6.154    0.000    0.000  144.000    3.231 
#    0.000    0.000    0.000    0.000    0.000    0.000 
#
# Total GULP energy -144986.983562 kJ/mol
# GULP energy per Si atom -5576.422445 kJ/mol
# Density = 2.215314 g / cm^3
# Si number density = 22.203679 Si / 1000 Ang^3
#
#
#
# Elastic Constant Matrix: (Units=GPa)
#
#
# Indices 1 2 3 4 5 6 
#
# 1 41.1715 24.1393 35.7740 0.0000 0.0000 0.0000
# 2 24.1393 96.2348 42.3414 0.0000 0.0000 0.0000
# 3 35.7740 42.3414 223.5069 0.0000 0.0000 0.0000
# 4 0.0000 0.0000 0.0000 39.8983 0.0000 0.0000
# 5 0.0000 0.0000 0.0000 0.0000 16.6778 0.0000
# 6 0.0000 0.0000 0.0000 0.0000 0.0000 13.0407
#
#
#
# Elastic Compliance Matrix: (Units=1/GPa)
#
#
# Indices 1 2 3 4 5 6 
#
# 1 0.031222 -0.006145 -0.003833 0.000000 0.000000 0.000000
# 2 -0.006145 0.012546 -0.001393 0.000000 0.000000 0.000000
# 3 -0.003833 -0.001393 0.005352 0.000000 0.000000 0.000000
# 4 0.000000 0.000000 0.000000 0.025064 0.000000 0.000000
# 5 0.000000 0.000000 0.000000 0.000000 0.059960 0.000000
# 6 0.000000 0.000000 0.000000 0.000000 0.000000 0.076683
#
#
# Mechanical properties :
#
#
# Convention : Reuss Voigt Hill
#
# Bulk Modulus (GPa) = 37.91243 62.82473 50.36858
# Shear Modulus (GPa) = 20.63033 31.16724 25.89879
#
# Velocity S-wave (km/s) = 3.05149 3.75066 3.41899
# Velocity P-wave (km/s) = 5.43391 6.86387 6.19032
#
# Compressibility (1/GPa) = 0.02637657
#
# Stress axis : x y z
#
# Youngs Moduli (GPa) = 32.02836 79.70916 186.86079
#
# Poissons Ratio (x) = 0.48983 0.71628
# Poissons Ratio (y) = 0.19682 0.26031
# Poissons Ratio (z) = 0.12277 0.11104
#
# Static dielectric constant tensor:
#      x y z
#    x 1.754320 0.000000 0.000000 
#    y 0.000000 1.869610 0.000000 
#    z 0.000000 0.000000 1.882250 
# 
# From -- ./inp_files/37179.got.cif
#   From: 2010.05.17/outbox.cif.g08.bks.cpg/sg21_19_cif.got.tgz:37179.got - 2010.06.03 23:14:55.
