data_PCOD9323029
_publ_section_title
;
Structure prediction by ZEFSAII (Michael W. Deem and Ramdas Pophale) SiO2 
 PCOD9323029
Probable space group: C 2 2 2
;
_chemical_formula_sum "Si O2"
_cell_formula_units_Z 48
_cell_length_a 4.929029
_cell_length_b 27.745318
_cell_length_c 17.201593
_cell_angle_alpha 90.000000
_cell_angle_beta 90.000000
_cell_angle_gamma 90.000000
_cell_volume 2352.446460
_symmetry_space_group_name_H-M "C 2 2 2"
_symmetry_group_IT_number 21
_symmetry_cell_setting 'orthorhombic'
loop_
_space_group_symop_operation_xyz
x,y,z
-x,-y,z
x,-y,-z
-x,y,-z
1/2+x,1/2+y,z
1/2-x,1/2-y,z
1/2+x,1/2-y,-z
1/2-x,1/2+y,-z
loop_
_atom_site_type_symbol
_atom_site_label
_atom_site_fract_x
_atom_site_fract_y
_atom_site_fract_z
Si Si1 0.071129 0.555660 0.832573
Si Si2 0.588259 0.098247 0.666125
Si Si3 0.921053 0.056258 0.414526
Si Si4 0.232833 0.305450 0.822034
Si Si5 0.906583 0.100541 0.088250
Si Si6 0.234516 0.804735 0.716537
O O1 0.002701 0.584280 0.753309
O O2 0.000000 0.500000 0.816917
O O3 0.871208 0.571848 0.900626
O O4 0.369996 0.572359 0.859271
O O5 0.382164 0.071962 0.607537
O O6 0.638816 0.155338 0.660134
O O7 0.885836 0.077565 0.651132
O O8 0.000000 0.075149 0.500000
O O9 0.000000 0.000000 0.415161
O O10 0.250000 0.250000 0.849689
O O11 0.336824 0.345883 0.880708
O O12 0.427897 0.311987 0.746295
O O13 0.923498 0.309891 0.793405
O O14 0.000000 0.101877 0.000000
O O15 0.250000 0.750000 0.687713
#
# Coordination Sequence:
#
# PCOD9323029 Si02
#       6
#     8   8   8   8   8   8
#     4  12  25  40  61  88 118 163 219 261 303 367
#     4  12  21  40  66  91 123 161 208 260 304 363
#     4  11  24  40  61  94 132 167 201 245 310 375
#     4  10  19  38  60  85 116 152 197 255 314 368
#     4  12  24  41  59  85 124 164 205 263 321 374
#     4  10  20  36  63  91 117 150 199 253 307 360
#
# _framework density 20.404288000000001
#
# number of rings (size 3 to 8) (size 9 to 14) (size 15 to 20)
#    0.000    0.833    3.333    5.000    0.000    3.333 
#    0.000    4.167    0.000    2.000    0.000    0.000 
#    0.000    0.000    0.000    0.000    0.000    0.000 
#
# Total GULP energy -133958.923517 kJ/mol
# GULP energy per Si atom -5581.621813 kJ/mol
# Density = 2.035785 g / cm^3
# Si number density = 20.404288 Si / 1000 Ang^3
#
#
#
# Elastic Constant Matrix: (Units=GPa)
#
#
# Indices 1 2 3 4 5 6 
#
# 1 86.2306 13.2869 -7.4271 0.0000 0.0000 0.0000
# 2 13.2869 151.8501 12.5276 0.0000 0.0000 0.0000
# 3 -7.4271 12.5276 36.1597 0.0000 0.0000 0.0000
# 4 0.0000 0.0000 0.0000 14.9889 0.0000 0.0000
# 5 0.0000 0.0000 0.0000 0.0000 11.6732 0.0000
# 6 0.0000 0.0000 0.0000 0.0000 0.0000 98.7988
#
#
#
# Elastic Compliance Matrix: (Units=1/GPa)
#
#
# Indices 1 2 3 4 5 6 
#
# 1 0.012048 -0.001295 0.002923 0.000000 0.000000 0.000000
# 2 -0.001295 0.006918 -0.002663 0.000000 0.000000 0.000000
# 3 0.002923 -0.002663 0.029178 0.000000 0.000000 0.000000
# 4 0.000000 0.000000 0.000000 0.066716 0.000000 0.000000
# 5 0.000000 0.000000 0.000000 0.000000 0.085666 0.000000
# 6 0.000000 0.000000 0.000000 0.000000 0.000000 0.010122
#
#
# Mechanical properties :
#
#
# Convention : Reuss Voigt Hill
#
# Bulk Modulus (GPa) = 21.70372 34.55723 28.13048
# Shear Modulus (GPa) = 21.92238 42.14903 32.03571
#
# Velocity S-wave (km/s) = 3.28136 4.54992 3.96668
# Velocity P-wave (km/s) = 5.00164 6.67648 5.89880
#
# Compressibility (1/GPa) = 0.04607505
#
# Stress axis : x y z
#
# Youngs Moduli (GPa) = 82.99987 144.54028 34.27215
#
# Poissons Ratio (x) = 0.18724 -0.10019
# Poissons Ratio (y) = 0.10752 0.09127
# Poissons Ratio (z) = -0.24265 0.38491
#
# Static dielectric constant tensor:
#      x y z
#    x 1.687610 0.000000 0.000000 
#    y 0.000000 1.920870 0.000000 
#    z 0.000000 0.000000 1.652330 
# 
# From -- ./inp_files/29384.got.cif
#   From: 2010.05.17/outbox.cif.g08.bks.cpg/sg21_15_cif.got.tgz:29384.got - 2010.06.03 23:14:55.
