data_PCOD9323545
_publ_section_title
;
Structure prediction by ZEFSAII (Michael W. Deem and Ramdas Pophale) SiO2 
 PCOD9323545
Probable space group: C 2 2 2
;
_chemical_formula_sum "Si O2"
_cell_formula_units_Z 58
_cell_length_a 9.229642
_cell_length_b 26.244075
_cell_length_c 12.490755
_cell_angle_alpha 90.000000
_cell_angle_beta 90.000000
_cell_angle_gamma 90.000000
_cell_volume 3025.553355
_symmetry_space_group_name_H-M "C 2 2 2"
_symmetry_group_IT_number 21
_symmetry_cell_setting 'orthorhombic'
loop_
_space_group_symop_operation_xyz
x,y,z
-x,-y,z
x,-y,-z
-x,y,-z
1/2+x,1/2+y,z
1/2-x,1/2-y,z
1/2+x,1/2-y,-z
1/2-x,1/2+y,-z
loop_
_atom_site_type_symbol
_atom_site_label
_atom_site_fract_x
_atom_site_fract_y
_atom_site_fract_z
Si Si1 0.000000 0.500000 0.000000
Si Si2 0.199624 0.443147 0.832266
Si Si3 0.859457 0.033188 0.722826
Si Si4 0.907960 0.267701 0.396427
Si Si5 0.138945 0.798093 0.719612
Si Si6 0.772013 0.385599 0.570218
Si Si7 0.404210 0.876771 0.350179
Si Si8 0.004307 0.115402 0.127280
O O1 0.107382 0.536296 0.068391
O O2 0.243622 0.493090 0.764944
O O3 0.104878 0.409326 0.754833
O O4 0.342807 0.407812 0.849931
O O5 0.811855 0.067413 0.623016
O O6 0.896534 0.070369 0.822758
O O7 0.000000 0.000000 0.695582
O O8 0.750000 0.250000 0.429936
O O9 0.894817 0.317250 0.323747
O O10 0.000000 0.283534 0.500000
O O11 0.998404 0.225402 0.336558
O O12 0.250000 0.750000 0.744586
O O13 0.212283 0.835166 0.630567
O O14 0.072861 0.834299 0.814161
O O15 0.779619 0.385162 0.440948
O O16 0.939063 0.388908 0.602882
O O17 0.000000 0.122317 0.000000
#
# Coordination Sequence:
#
# PCOD9323545 Si02
#       8
#     2   8   8   8   8   8   8   8
#     4  12  24  40  66  86 124 172 224 278 324 394
#     4  11  23  40  60  94 120 162 217 263 324 378
#     4   9  20  39  63  88 120 161 205 259 312 385
#     4  12  22  37  62  93 129 169 210 257 312 384
#     4  11  21  41  66  93 126 170 213 260 316 393
#     4  10  20  38  62  90 126 162 198 246 319 376
#     4  11  21  36  58  91 127 160 200 253 308 383
#     4  10  22  41  65  88 122 162 215 272 325 373
#
# _framework density 19.170045999999999
#
# number of rings (size 3 to 8) (size 9 to 14) (size 15 to 20)
#    0.000    1.379    2.759    3.724    0.000    3.586 
#    0.000   12.414    0.000    0.000    0.000    0.000 
#    0.000    0.000    0.000    0.000    0.000    0.000 
#
# Total GULP energy -161660.891187 kJ/mol
# GULP energy per Si atom -5574.513489 kJ/mol
# Density = 1.912641 g / cm^3
# Si number density = 19.170046 Si / 1000 Ang^3
#
#
#
# Elastic Constant Matrix: (Units=GPa)
#
#
# Indices 1 2 3 4 5 6 
#
# 1 70.2376 45.0797 20.3174 0.0000 0.0000 0.0000
# 2 45.0797 127.1774 50.3337 0.0000 0.0000 0.0000
# 3 20.3174 50.3337 78.0433 0.0000 0.0000 0.0000
# 4 0.0000 0.0000 0.0000 29.1492 0.0000 0.0000
# 5 0.0000 0.0000 0.0000 0.0000 18.6027 0.0000
# 6 0.0000 0.0000 0.0000 0.0000 0.0000 24.2829
#
#
#
# Elastic Compliance Matrix: (Units=1/GPa)
#
#
# Indices 1 2 3 4 5 6 
#
# 1 0.018466 -0.006234 -0.000787 0.000000 0.000000 0.000000
# 2 -0.006234 0.012663 -0.006544 0.000000 0.000000 0.000000
# 3 -0.000787 -0.006544 0.017239 0.000000 0.000000 0.000000
# 4 0.000000 0.000000 0.000000 0.034306 0.000000 0.000000
# 5 0.000000 0.000000 0.000000 0.000000 0.053756 0.000000
# 6 0.000000 0.000000 0.000000 0.000000 0.000000 0.041181
#
#
# Mechanical properties :
#
#
# Convention : Reuss Voigt Hill
#
# Bulk Modulus (GPa) = 47.08509 56.32441 51.70475
# Shear Modulus (GPa) = 23.60502 25.05546 24.33024
#
# Velocity S-wave (km/s) = 3.51287 3.61918 3.56642
# Velocity P-wave (km/s) = 6.40849 6.84908 6.63244
#
# Compressibility (1/GPa) = 0.02123815
#
# Stress axis : x y z
#
# Youngs Moduli (GPa) = 54.15302 78.97208 58.00950
#
# Poissons Ratio (x) = 0.49233 0.04563
# Poissons Ratio (y) = 0.33760 0.37960
# Poissons Ratio (z) = 0.04260 0.51677
#
# Static dielectric constant tensor:
#      x y z
#    x 1.689430 0.000000 0.000000 
#    y 0.000000 1.707490 0.000000 
#    z 0.000000 0.000000 1.676890 
# 
# From -- ./inp_files/22996.got.cif
#   From: 2010.05.17/outbox.cif.g08.bks.cpg/sg21_12_cif.got.tgz:22996.got - 2010.06.03 23:14:55.
