data_PCOD9323521
_publ_section_title
;
Structure prediction by ZEFSAII (Michael W. Deem and Ramdas Pophale) SiO2 
 PCOD9323521
Probable space group: C 2 2 2
;
_chemical_formula_sum "Si O2"
_cell_formula_units_Z 48
_cell_length_a 16.589156
_cell_length_b 9.743210
_cell_length_c 15.942218
_cell_angle_alpha 90.000000
_cell_angle_beta 90.000000
_cell_angle_gamma 90.000000
_cell_volume 2576.766691
_symmetry_space_group_name_H-M "C 2 2 2"
_symmetry_group_IT_number 21
_symmetry_cell_setting 'orthorhombic'
loop_
_space_group_symop_operation_xyz
x,y,z
-x,-y,z
x,-y,-z
-x,y,-z
1/2+x,1/2+y,z
1/2-x,1/2-y,z
1/2+x,1/2-y,-z
1/2-x,1/2+y,-z
loop_
_atom_site_type_symbol
_atom_site_label
_atom_site_fract_x
_atom_site_fract_y
_atom_site_fract_z
Si Si1 0.136397 0.498798 0.734125
Si Si2 0.765143 0.589294 0.416566
Si Si3 0.385373 0.728193 0.841164
Si Si4 0.097246 0.343847 0.986431
Si Si5 0.186903 0.983391 0.259645
Si Si6 0.931029 0.243995 0.195889
O O1 0.155901 0.560712 0.642099
O O2 0.124520 0.624629 0.796856
O O3 0.222763 0.429838 0.757083
O O4 0.070348 0.381862 0.747472
O O5 0.769415 0.500000 0.500000
O O6 0.750000 0.750000 0.432245
O O7 0.693584 0.535012 0.355553
O O8 0.329946 0.615724 0.797753
O O9 0.479114 0.692915 0.824457
O O10 0.369960 0.747850 0.939661
O O11 0.108167 0.287915 0.893114
O O12 0.126302 0.500000 0.000000
O O13 0.000000 0.348299 0.000000
O O14 0.120204 0.871903 0.241128
#
# Coordination Sequence:
#
# PCOD9323521 Si02
#       6
#     8   8   8   8   8   8
#     4  10  20  38  59  85 113 148 197 229 284 345
#     4  10  22  39  66  86 112 151 190 230 288 367
#     4  11  19  38  59  80 118 160 192 236 283 332
#     4   9  18  32  53  81 114 157 204 233 271 338
#     4  10  22  38  55  88 120 141 191 239 296 337
#     4  11  21  34  60  87 112 158 200 234 276 335
#
# _framework density 18.627996
#
# number of rings (size 3 to 8) (size 9 to 14) (size 15 to 20)
#    1.000    0.833    3.333    2.000    2.333    0.667 
#    0.000    7.500    0.000    6.000    0.000    0.000 
#    0.000    0.000    0.000    0.000    0.000    0.000 
#
# Total GULP energy -133734.485731 kJ/mol
# GULP energy per Si atom -5572.270239 kJ/mol
# Density = 1.858560 g / cm^3
# Si number density = 18.627996 Si / 1000 Ang^3
#
#
#
# Elastic Constant Matrix: (Units=GPa)
#
#
# Indices 1 2 3 4 5 6 
#
# 1 29.6303 -5.1495 4.9814 0.0000 0.0000 0.0000
# 2 -5.1495 64.1816 27.8380 0.0000 0.0000 0.0000
# 3 4.9814 27.8380 118.2407 0.0000 0.0000 0.0000
# 4 0.0000 0.0000 0.0000 28.7719 0.0000 0.0000
# 5 0.0000 0.0000 0.0000 0.0000 26.1369 0.0000
# 6 0.0000 0.0000 0.0000 0.0000 0.0000 34.9571
#
#
#
# Elastic Compliance Matrix: (Units=1/GPa)
#
#
# Indices 1 2 3 4 5 6 
#
# 1 0.034811 0.003819 -0.002366 0.000000 0.000000 0.000000
# 2 0.003819 0.017772 -0.004345 0.000000 0.000000 0.000000
# 3 -0.002366 -0.004345 0.009580 0.000000 0.000000 0.000000
# 4 0.000000 0.000000 0.000000 0.034756 0.000000 0.000000
# 5 0.000000 0.000000 0.000000 0.000000 0.038260 0.000000
# 6 0.000000 0.000000 0.000000 0.000000 0.000000 0.028607
#
#
# Mechanical properties :
#
#
# Convention : Reuss Voigt Hill
#
# Bulk Modulus (GPa) = 17.73704 29.71026 23.72365
# Shear Modulus (GPa) = 26.54470 30.26535 28.40503
#
# Velocity S-wave (km/s) = 3.77900 4.03516 3.90918
# Velocity P-wave (km/s) = 5.34635 6.13954 5.75662
#
# Compressibility (1/GPa) = 0.05637919
#
# Stress axis : x y z
#
# Youngs Moduli (GPa) = 28.72679 56.26894 104.38466
#
# Poissons Ratio (x) = -0.21489 0.24694
# Poissons Ratio (y) = -0.10971 0.45355
# Poissons Ratio (z) = 0.06796 0.24449
#
# Static dielectric constant tensor:
#      x y z
#    x 1.691850 0.000000 0.000000 
#    y 0.000000 1.624450 0.000000 
#    z 0.000000 0.000000 1.631400 
# 
# From -- ./inp_files/32799.got.cif
#   From: 2010.05.17/outbox.cif.g08.bks.cpg/sg21_17_cif.got.tgz:32799.got - 2010.06.03 23:14:55.
