data_PCOD9323486
_publ_section_title
;
Structure prediction by ZEFSAII (Michael W. Deem and Ramdas Pophale) SiO2 
 PCOD9323486
Probable space group: C 2 2 2
;
_chemical_formula_sum "Si O2"
_cell_formula_units_Z 58
_cell_length_a 9.638288
_cell_length_b 22.837948
_cell_length_c 14.154378
_cell_angle_alpha 90.000000
_cell_angle_beta 90.000000
_cell_angle_gamma 90.000000
_cell_volume 3115.643570
_symmetry_space_group_name_H-M "C 2 2 2"
_symmetry_group_IT_number 21
_symmetry_cell_setting 'orthorhombic'
loop_
_space_group_symop_operation_xyz
x,y,z
-x,-y,z
x,-y,-z
-x,y,-z
1/2+x,1/2+y,z
1/2-x,1/2-y,z
1/2+x,1/2-y,-z
1/2-x,1/2+y,-z
loop_
_atom_site_type_symbol
_atom_site_label
_atom_site_fract_x
_atom_site_fract_y
_atom_site_fract_z
Si Si1 0.017435 0.785327 0.230093
Si Si2 0.709199 0.683980 0.072227
Si Si3 0.000000 0.500000 0.500000
Si Si4 0.678267 0.062952 0.657709
Si Si5 0.965332 0.348828 0.800506
Si Si6 0.528603 0.377414 0.609420
Si Si7 0.134590 0.963416 0.260058
Si Si8 0.229187 0.139831 0.869788
O O1 0.912979 0.808844 0.148250
O O2 0.990335 0.716534 0.240876
O O3 0.988712 0.820111 0.326147
O O4 0.165515 0.806462 0.190866
O O5 0.750000 0.750000 0.041653
O O6 0.838243 0.656635 0.127331
O O7 0.682886 0.648468 0.977318
O O8 0.094905 0.539626 0.567776
O O9 0.580088 0.103764 0.722447
O O10 0.816548 0.098079 0.626896
O O11 0.740183 0.006643 0.713467
O O12 0.105785 0.362348 0.856761
O O13 0.500000 0.367152 0.500000
O O14 0.419196 0.425394 0.650075
O O15 0.171700 0.918239 0.178710
O O16 0.000000 0.000000 0.230765
#
# Coordination Sequence:
#
# PCOD9323486 Si02
#       8
#     8   8   2   8   8   8   8   8
#     4  10  21  39  61  91 127 161 200 253 308 367
#     4  10  20  37  62  91 123 165 203 241 304 374
#     4  12  24  36  58  88 110 160 212 258 302 348
#     4  11  22  40  60  84 124 159 209 258 308 365
#     4  11  22  37  62  89 131 164 191 255 320 365
#     4  10  20  38  66  88 114 161 209 252 308 371
#     4   9  21  40  63  88 118 161 207 261 301 353
#     4  11  21  36  63  94 123 158 213 252 299 367
#
# _framework density 18.615735999999998
#
# number of rings (size 3 to 8) (size 9 to 14) (size 15 to 20)
#    0.000    1.655    1.379    3.724    0.000    5.241 
#    1.241    0.690    6.069    1.655    0.000    0.000 
#    0.000    0.000    0.000    0.000    0.000    0.000 
#
# Total GULP energy -161955.520304 kJ/mol
# GULP energy per Si atom -5584.673114 kJ/mol
# Density = 1.857337 g / cm^3
# Si number density = 18.615736 Si / 1000 Ang^3
#
#
#
# Elastic Constant Matrix: (Units=GPa)
#
#
# Indices 1 2 3 4 5 6 
#
# 1 65.6813 26.6051 20.4024 0.0000 0.0000 0.0000
# 2 26.6051 103.0102 55.3675 0.0000 0.0000 0.0000
# 3 20.4024 55.3675 94.3929 0.0000 0.0000 0.0000
# 4 0.0000 0.0000 0.0000 7.7841 0.0000 0.0000
# 5 0.0000 0.0000 0.0000 0.0000 17.2539 0.0000
# 6 0.0000 0.0000 0.0000 0.0000 0.0000 28.2144
#
#
#
# Elastic Compliance Matrix: (Units=1/GPa)
#
#
# Indices 1 2 3 4 5 6 
#
# 1 0.017172 -0.003564 -0.001621 0.000000 0.000000 0.000000
# 2 -0.003564 0.014917 -0.007980 0.000000 0.000000 0.000000
# 3 -0.001621 -0.007980 0.015625 0.000000 0.000000 0.000000
# 4 0.000000 0.000000 0.000000 0.128467 0.000000 0.000000
# 5 0.000000 0.000000 0.000000 0.000000 0.057958 0.000000
# 6 0.000000 0.000000 0.000000 0.000000 0.000000 0.035443
#
#
# Mechanical properties :
#
#
# Convention : Reuss Voigt Hill
#
# Bulk Modulus (GPa) = 46.76152 51.98161 49.37156
# Shear Modulus (GPa) = 16.49946 21.36444 18.93195
#
# Velocity S-wave (km/s) = 2.98034 3.39138 3.19248
# Velocity P-wave (km/s) = 6.08417 6.58175 6.33784
#
# Compressibility (1/GPa) = 0.02138511
#
# Stress axis : x y z
#
# Youngs Moduli (GPa) = 58.23364 67.03655 63.99991
#
# Poissons Ratio (x) = 0.23890 0.10376
# Poissons Ratio (y) = 0.20753 0.51070
# Poissons Ratio (z) = 0.09441 0.53493
#
# Static dielectric constant tensor:
#      x y z
#    x 1.659970 0.000000 0.000000 
#    y 0.000000 1.649360 0.000000 
#    z 0.000000 0.000000 1.601340 
# 
# From -- ./inp_files/30867.got.cif
#   From: 2010.05.17/outbox.cif.g08.bks.cpg/sg21_16_cif.got.tgz:30867.got - 2010.06.03 23:14:55.
