data_PCOD9323736
_publ_section_title
;
Structure prediction by ZEFSAII (Michael W. Deem and Ramdas Pophale) SiO2 
 PCOD9323736
Probable space group: C 2 2 2
;
_chemical_formula_sum "Si O2"
_cell_formula_units_Z 40
_cell_length_a 16.266967
_cell_length_b 8.664106
_cell_length_c 12.399877
_cell_angle_alpha 90.000000
_cell_angle_beta 90.000000
_cell_angle_gamma 90.000000
_cell_volume 1747.622872
_symmetry_space_group_name_H-M "C 2 2 2"
_symmetry_group_IT_number 21
_symmetry_cell_setting 'orthorhombic'
loop_
_space_group_symop_operation_xyz
x,y,z
-x,-y,z
x,-y,-z
-x,y,-z
1/2+x,1/2+y,z
1/2-x,1/2-y,z
1/2+x,1/2-y,-z
1/2-x,1/2+y,-z
loop_
_atom_site_type_symbol
_atom_site_label
_atom_site_fract_x
_atom_site_fract_y
_atom_site_fract_z
Si Si1 0.585108 0.408428 0.600182
Si Si2 0.161685 0.314820 0.994776
Si Si3 0.109083 0.647871 0.239548
Si Si4 0.083466 0.711053 0.787826
Si Si5 0.336237 0.177666 0.524975
O O1 0.500000 0.500000 0.614832
O O2 0.628448 0.500000 0.500000
O O3 0.617234 0.355072 0.716990
O O4 0.587007 0.242709 0.542612
O O5 0.250000 0.250000 0.026021
O O6 0.097561 0.260372 0.085421
O O7 0.161206 0.500000 0.000000
O O8 0.143174 0.278593 0.870404
O O9 0.120138 0.460506 0.236017
O O10 0.149401 0.708443 0.348760
O O11 0.012585 0.689533 0.239302
O O12 0.250000 0.250000 0.488096
O O13 0.332175 0.000000 0.500000
#
# Coordination Sequence:
#
# PCOD9323736 Si02
#       5
#     8   8   8   8   8
#     4  11  23  43  63  99 141 187 234 295 351 419
#     4  10  22  43  66  98 134 179 227 289 362 430
#     4  10  20  41  70  99 129 179 234 292 352 430
#     4  10  21  40  69  97 131 180 235 290 351 423
#     4  12  25  44  69 104 146 191 242 301 369 437
#
# _framework density 22.888231999999999
#
# number of rings (size 3 to 8) (size 9 to 14) (size 15 to 20)
#    0.000    1.400    2.000    4.200    0.000    3.200 
#   14.400    0.000    0.000    0.000    0.000    0.000 
#    0.000    0.000    0.000    0.000    0.000    0.000 
#
# Total GULP energy -111536.601514 kJ/mol
# GULP energy per Si atom -5576.830076 kJ/mol
# Density = 2.283614 g / cm^3
# Si number density = 22.888232 Si / 1000 Ang^3
#
#
#
# Elastic Constant Matrix: (Units=GPa)
#
#
# Indices 1 2 3 4 5 6 
#
# 1 67.0753 23.3723 21.0559 0.0000 0.0000 0.0000
# 2 23.3723 73.9292 33.6053 0.0000 0.0000 0.0000
# 3 21.0559 33.6053 160.4202 0.0000 0.0000 0.0000
# 4 0.0000 0.0000 0.0000 -155.8778 0.0000 0.0000
# 5 0.0000 0.0000 0.0000 0.0000 21.5328 0.0000
# 6 0.0000 0.0000 0.0000 0.0000 0.0000 32.1438
#
#
#
# Elastic Compliance Matrix: (Units=1/GPa)
#
#
# Indices 1 2 3 4 5 6 
#
# 1 0.016967 -0.004810 -0.001219 0.000000 0.000000 0.000000
# 2 -0.004810 0.016313 -0.002786 0.000000 0.000000 0.000000
# 3 -0.001219 -0.002786 0.006977 0.000000 0.000000 0.000000
# 4 0.000000 0.000000 0.000000 -0.006415 0.000000 0.000000
# 5 0.000000 0.000000 0.000000 0.000000 0.046441 0.000000
# 6 0.000000 0.000000 0.000000 0.000000 0.000000 0.031110
#
#
# Mechanical properties :
#
#
# Convention : Reuss Voigt Hill
#
# Bulk Modulus (GPa) = 44.19409 50.83242 47.51326
# Shear Modulus (GPa) = 36.61200 -5.54751 15.53225
#
# Velocity S-wave (km/s) = 4.00384 -1.55852 2.60785
# Velocity P-wave (km/s) = 6.38160 4.36102 5.46550
#
# Compressibility (1/GPa) = 0.02262746
#
# Stress axis : x y z
#
# Youngs Moduli (GPa) = 58.93652 61.29893 143.32130
#
# Poissons Ratio (x) = 0.29484 0.17478
# Poissons Ratio (y) = 0.28347 0.39931
# Poissons Ratio (z) = 0.07187 0.17078
#
# Static dielectric constant tensor:
#      x y z
#    x 1.876310 0.000000 0.000000 
#    y 0.000000 1.970720 0.000000 
#    z 0.000000 0.000000 1.899980 
# 
# From -- ./inp_files/25833.got.cif
#   From: 2010.05.17/outbox.cif.g08.bks.cpg/sg21_13_cif.got.tgz:25833.got - 2010.06.03 23:14:55.
