data_PCOD9323212
_publ_section_title
;
Structure prediction by ZEFSAII (Michael W. Deem and Ramdas Pophale) SiO2 
 PCOD9323212
Probable space group: C 2 2 2
;
_chemical_formula_sum "Si O2"
_cell_formula_units_Z 52
_cell_length_a 13.969031
_cell_length_b 7.340933
_cell_length_c 23.836302
_cell_angle_alpha 90.000000
_cell_angle_beta 90.000000
_cell_angle_gamma 90.000000
_cell_volume 2444.310766
_symmetry_space_group_name_H-M "C 2 2 2"
_symmetry_group_IT_number 21
_symmetry_cell_setting 'orthorhombic'
loop_
_space_group_symop_operation_xyz
x,y,z
-x,-y,z
x,-y,-z
-x,y,-z
1/2+x,1/2+y,z
1/2-x,1/2-y,z
1/2+x,1/2-y,-z
1/2-x,1/2+y,-z
loop_
_atom_site_type_symbol
_atom_site_label
_atom_site_fract_x
_atom_site_fract_y
_atom_site_fract_z
Si Si1 0.250000 0.250000 0.905135
Si Si2 0.291518 0.453302 0.188862
Si Si3 0.500000 0.500000 0.152405
Si Si4 0.392006 0.430081 0.412882
Si Si5 0.041568 0.296815 0.941048
Si Si6 0.720062 0.000000 0.500000
Si Si7 0.265083 0.529833 0.685857
Si Si8 0.890409 0.498293 0.401165
O O1 0.260823 0.421671 0.863238
O O2 0.156310 0.286661 0.941808
O O3 0.250000 0.250000 0.182084
O O4 0.406350 0.458964 0.188086
O O5 0.262071 0.527430 0.249830
O O6 0.513404 0.328309 0.111202
O O7 0.500000 0.500000 0.426672
O O8 0.300259 0.473929 0.451583
O O9 0.361491 0.497522 0.350587
O O10 0.381749 0.212081 0.415588
O O11 0.000000 0.500000 0.933415
O O12 0.000000 0.228316 0.000000
O O13 0.642594 0.897257 0.541406
O O14 0.250000 0.750000 0.686648
O O15 0.178279 0.447925 0.649798
O O16 0.000000 0.500000 0.384707
#
# Coordination Sequence:
#
# PCOD9323212 Si02
#       8
#     4   8   4   8   8   4   8   8
#     4  10  22  40  62  96 128 162 218 262 302 390
#     4  10  20  39  63  88 126 167 205 261 318 362
#     4  10  21  36  62  94 122 161 220 252 308 384
#     4  10  21  36  56  81 111 144 191 235 297 359
#     4  10  21  41  60  92 130 168 209 262 317 373
#     4  10  20  34  56  76 110 146 184 240 284 354
#     4   8  18  38  57  78 111 151 191 238 294 362
#     4  10  21  38  56  81 110 146 191 239 297 359
#
# _framework density 21.273890999999999
#
# number of rings (size 3 to 8) (size 9 to 14) (size 15 to 20)
#    0.000    2.308    0.000    3.000    1.077    3.692 
#   15.231    5.385    0.000    0.000    0.000    0.000 
#    0.000    0.000    0.000    0.000    0.000    0.000 
#
# Total GULP energy -144788.589306 kJ/mol
# GULP energy per Si atom -5568.791896 kJ/mol
# Density = 2.122547 g / cm^3
# Si number density = 21.273891 Si / 1000 Ang^3
#
#
#
# Elastic Constant Matrix: (Units=GPa)
#
#
# Indices 1 2 3 4 5 6 
#
# 1 166.4189 15.2542 65.7849 0.0000 0.0000 0.0000
# 2 15.2542 76.4469 11.1048 0.0000 0.0000 0.0000
# 3 65.7849 11.1048 103.1780 0.0000 0.0000 0.0000
# 4 0.0000 0.0000 0.0000 -9.6965 0.0000 0.0000
# 5 0.0000 0.0000 0.0000 0.0000-3189.5422 0.0000
# 6 0.0000 0.0000 0.0000 0.0000 0.0000 15.3961
#
#
#
# Elastic Compliance Matrix: (Units=1/GPa)
#
#
# Indices 1 2 3 4 5 6 
#
# 1 0.008091 -0.000879 -0.005064 0.000000 0.000000 0.000000
# 2 -0.000879 0.013384 -0.000880 0.000000 0.000000 0.000000
# 3 -0.005064 -0.000880 0.013016 0.000000 0.000000 0.000000
# 4 0.000000 0.000000 0.000000 -0.103130 0.000000 0.000000
# 5 0.000000 0.000000 0.000000 0.000000 -0.000314 0.000000
# 6 0.000000 0.000000 0.000000 0.000000 0.000000 0.064952
#
#
# Mechanical properties :
#
#
# Convention : Reuss Voigt Hill
#
# Bulk Modulus (GPa) = 47.97433 58.92574 53.45004
# Shear Modulus (GPa) = 301.29858 -619.84187 -159.27164
#
# Velocity S-wave (km/s) = 11.91368 -17.08787 -8.66197
# Velocity P-wave (km/s) = 14.55498 19.01495 8.65219
#
# Compressibility (1/GPa) = 0.02084448
#
# Stress axis : x y z
#
# Youngs Moduli (GPa) = 123.58747 74.71500 76.83022
#
# Poissons Ratio (x) = 0.06567 0.38910
# Poissons Ratio (y) = 0.10862 0.06762
# Poissons Ratio (z) = 0.62590 0.06576
#
# Static dielectric constant tensor:
#      x y z
#    x 1.809550 0.000000 0.000000 
#    y 0.000000 4.660760 0.000000 
#    z 0.000000 0.000000 1.765460 
# 
# From -- ./inp_files/37573.got.cif
#   From: 2010.05.17/outbox.cif.g08.bks.cpg/sg21_19_cif.got.tgz:37573.got - 2010.06.03 23:14:55.
