data_PCOD9323417
_publ_section_title
;
Structure prediction by ZEFSAII (Michael W. Deem and Ramdas Pophale) SiO2 
 PCOD9323417
Probable space group: C 2 2 2
;
_chemical_formula_sum "Si O2"
_cell_formula_units_Z 56
_cell_length_a 15.568620
_cell_length_b 11.115505
_cell_length_c 15.329277
_cell_angle_alpha 90.000000
_cell_angle_beta 90.000000
_cell_angle_gamma 90.000000
_cell_volume 2652.778499
_symmetry_space_group_name_H-M "C 2 2 2"
_symmetry_group_IT_number 21
_symmetry_cell_setting 'orthorhombic'
loop_
_space_group_symop_operation_xyz
x,y,z
-x,-y,z
x,-y,-z
-x,y,-z
1/2+x,1/2+y,z
1/2-x,1/2-y,z
1/2+x,1/2-y,-z
1/2-x,1/2+y,-z
loop_
_atom_site_type_symbol
_atom_site_label
_atom_site_fract_x
_atom_site_fract_y
_atom_site_fract_z
Si Si1 0.928086 0.657258 0.336403
Si Si2 0.091668 0.698688 0.015071
Si Si3 0.621243 0.123927 0.310172
Si Si4 0.316144 0.854434 0.499409
Si Si5 0.844718 0.295094 0.834618
Si Si6 0.711747 0.062999 0.139547
Si Si7 0.589338 0.447077 0.098033
O O1 0.901010 0.518317 0.319515
O O2 0.897445 0.669114 0.436317
O O3 0.880249 0.730742 0.260992
O O4 0.026796 0.680004 0.313877
O O5 0.173251 0.626757 0.053242
O O6 0.077031 0.804773 0.083951
O O7 0.111586 0.755314 0.920869
O O8 0.000000 0.634113 0.000000
O O9 0.665718 0.166784 0.398133
O O10 0.678741 0.136694 0.224186
O O11 0.250000 0.750000 0.528636
O O12 0.293565 0.000000 0.500000
O O13 0.750000 0.250000 0.835270
O O14 0.839433 0.437658 0.853075
O O15 0.814421 0.040572 0.138694
O O16 0.500000 0.500000 0.137553
O O17 0.595643 0.500000 0.000000
#
# Coordination Sequence:
#
# PCOD9323417 Si02
#       7
#     8   8   8   8   8   8   8
#     4   9  18  36  60  90 120 157 208 268 320 383
#     4  12  23  37  59  87 118 167 210 270 324 378
#     4   9  19  36  59  91 123 156 211 267 319 380
#     4  10  20  36  63  93 124 168 208 261 325 397
#     4  11  22  35  57  86 124 158 206 263 329 383
#     4  11  23  38  60  89 127 163 215 276 327 382
#     4  11  22  41  60  81 117 171 227 265 319 403
#
# _framework density 21.109942
#
# number of rings (size 3 to 8) (size 9 to 14) (size 15 to 20)
#    0.000    1.571    1.429    5.143    0.000    5.143 
#    0.000    0.000    0.000    1.714    0.000    0.000 
#    0.000    0.000    0.000    0.000    0.000    0.000 
#
# Total GULP energy -155962.989737 kJ/mol
# GULP energy per Si atom -5570.106776 kJ/mol
# Density = 2.106189 g / cm^3
# Si number density = 21.109942 Si / 1000 Ang^3
#
#
#
# Elastic Constant Matrix: (Units=GPa)
#
#
# Indices 1 2 3 4 5 6 
#
# 1 136.7838 5.4883 46.0564 0.0000 0.0000 0.0000
# 2 5.4883 41.9331 -2.5682 0.0000 0.0000 0.0000
# 3 46.0564 -2.5682 121.6532 0.0000 0.0000 0.0000
# 4 0.0000 0.0000 0.0000 12.8387 0.0000 0.0000
# 5 0.0000 0.0000 0.0000 0.0000 26.7873 0.0000
# 6 0.0000 0.0000 0.0000 0.0000 0.0000 67.5835
#
#
#
# Elastic Compliance Matrix: (Units=1/GPa)
#
#
# Indices 1 2 3 4 5 6 
#
# 1 0.008449 -0.001303 -0.003226 0.000000 0.000000 0.000000
# 2 -0.001303 0.024079 0.001002 0.000000 0.000000 0.000000
# 3 -0.003226 0.001002 0.009463 0.000000 0.000000 0.000000
# 4 0.000000 0.000000 0.000000 0.077890 0.000000 0.000000
# 5 0.000000 0.000000 0.000000 0.000000 0.037331 0.000000
# 6 0.000000 0.000000 0.000000 0.000000 0.000000 0.014797
#
#
# Mechanical properties :
#
#
# Convention : Reuss Voigt Hill
#
# Bulk Modulus (GPa) = 28.62413 44.25812 36.44113
# Shear Modulus (GPa) = 26.21778 38.20147 32.20963
#
# Velocity S-wave (km/s) = 3.52797 4.25861 3.91039
# Velocity P-wave (km/s) = 5.49404 6.72250 6.13907
#
# Compressibility (1/GPa) = 0.03493556
#
# Stress axis : x y z
#
# Youngs Moduli (GPa) = 118.35072 41.52913 105.67804
#
# Poissons Ratio (x) = 0.05413 0.34096
# Poissons Ratio (y) = 0.15427 -0.10587
# Poissons Ratio (z) = 0.38184 -0.04160
#
# Static dielectric constant tensor:
#      x y z
#    x 1.735420 0.000000 0.000000 
#    y 0.000000 1.825650 0.000000 
#    z 0.000000 0.000000 1.753780 
# 
# From -- ./inp_files/31620.got.cif
#   From: 2010.05.17/outbox.cif.g08.bks.cpg/sg21_16_cif.got.tgz:31620.got - 2010.06.03 23:14:55.
