data_PCOD9323802
_publ_section_title
;
Structure prediction by ZEFSAII (Michael W. Deem and Ramdas Pophale) SiO2 
 PCOD9323802
Probable space group: C 2 2 2
;
_chemical_formula_sum "Si O2"
_cell_formula_units_Z 38
_cell_length_a 31.794705
_cell_length_b 12.774835
_cell_length_c 4.910615
_cell_angle_alpha 90.000000
_cell_angle_beta 90.000000
_cell_angle_gamma 90.000000
_cell_volume 1994.554857
_symmetry_space_group_name_H-M "C 2 2 2"
_symmetry_group_IT_number 21
_symmetry_cell_setting 'orthorhombic'
loop_
_space_group_symop_operation_xyz
x,y,z
-x,-y,z
x,-y,-z
-x,y,-z
1/2+x,1/2+y,z
1/2-x,1/2-y,z
1/2+x,1/2-y,-z
1/2-x,1/2+y,-z
loop_
_atom_site_type_symbol
_atom_site_label
_atom_site_fract_x
_atom_site_fract_y
_atom_site_fract_z
Si Si1 0.500000 0.844953 0.500000
Si Si2 0.127732 0.616055 0.884073
Si Si3 0.163253 0.119786 0.586771
Si Si4 0.500000 0.000000 0.000000
Si Si5 0.909591 0.276641 0.382835
Si Si6 0.298382 0.730060 0.909945
O O1 0.513903 0.915736 0.236496
O O2 0.458977 0.778112 0.429762
O O3 0.112074 0.635307 0.577738
O O4 0.174402 0.663263 0.921204
O O5 0.124168 0.500000 0.000000
O O6 0.099016 0.688937 0.074806
O O7 0.117183 0.172565 0.558358
O O8 0.194370 0.183280 0.388300
O O9 0.162868 0.000000 0.500000
O O10 0.180233 0.146861 0.885949
O O11 0.250000 0.750000 0.971487
#
# Coordination Sequence:
#
# PCOD9323802 Si02
#       6
#     4   8   8   2   8   8
#     4  11  22  36  51  82 112 144 189 226 277 324
#     4  10  21  34  52  78 110 146 175 220 278 330
#     4  10  21  39  59  82 109 150 187 229 277 324
#     4  10  24  30  52  82 106 146 184 218 276 342
#     4  10  22  35  54  77 112 142 185 227 268 330
#     4  10  21  38  57  84 112 140 186 230 272 331
#
# _framework density 19.051870000000001
#
# number of rings (size 3 to 8) (size 9 to 14) (size 15 to 20)
#    0.000    1.895    0.000    3.158    8.842    1.684 
#    0.000    0.526    0.000    0.000    0.000   10.316 
#    0.000    0.000    0.000    0.000    0.000    0.000 
#
# Total GULP energy -105872.656526 kJ/mol
# GULP energy per Si atom -5572.245080 kJ/mol
# Density = 1.900851 g / cm^3
# Si number density = 19.051870 Si / 1000 Ang^3
#
#
#
# Elastic Constant Matrix: (Units=GPa)
#
#
# Indices 1 2 3 4 5 6 
#
# 1 142.4097 14.6656 -13.1652 0.0000 0.0000 0.0000
# 2 14.6656 56.6970 -22.3635 0.0000 0.0000 0.0000
# 3 -13.1652 -22.3635 66.6041 0.0000 0.0000 0.0000
# 4 0.0000 0.0000 0.0000 19.2816 0.0000 0.0000
# 5 0.0000 0.0000 0.0000 0.0000 21.3215 0.0000
# 6 0.0000 0.0000 0.0000 0.0000 0.0000 -117.0541
#
#
#
# Elastic Compliance Matrix: (Units=1/GPa)
#
#
# Indices 1 2 3 4 5 6 
#
# 1 0.007264 -0.001513 0.000928 0.000000 0.000000 0.000000
# 2 -0.001513 0.020645 0.006633 0.000000 0.000000 0.000000
# 3 0.000928 0.006633 0.017425 0.000000 0.000000 0.000000
# 4 0.000000 0.000000 0.000000 0.051863 0.000000 0.000000
# 5 0.000000 0.000000 0.000000 0.000000 0.046901 0.000000
# 6 0.000000 0.000000 0.000000 0.000000 0.000000 -0.008543
#
#
# Mechanical properties :
#
#
# Convention : Reuss Voigt Hill
#
# Bulk Modulus (GPa) = 17.41277 24.88717 21.14997
# Shear Modulus (GPa) = 35.06269 3.81473 19.43871
#
# Velocity S-wave (km/s) = 4.29462 1.41656 3.19769
# Velocity P-wave (km/s) = 5.80958 3.97073 4.97584
#
# Compressibility (1/GPa) = 0.05742913
#
# Stress axis : x y z
#
# Youngs Moduli (GPa) = 137.67355 48.43727 57.39008
#
# Poissons Ratio (x) = 0.07328 -0.05324
# Poissons Ratio (y) = 0.20828 -0.38067
# Poissons Ratio (z) = -0.12773 -0.32128
#
# Static dielectric constant tensor:
#      x y z
#    x 1.670830 0.000000 0.000000 
#    y 0.000000 1.638610 0.000000 
#    z 0.000000 0.000000 1.663230 
# 
# From -- ./inp_files/7189.got.cif
#   From: 2010.05.17/outbox.cif.g08.bks.cpg/sg21_4_cif.got.tgz:7189.got - 2010.06.03 23:14:55.
