data_PCOD9323357
_publ_section_title
;
Structure prediction by ZEFSAII (Michael W. Deem and Ramdas Pophale) SiO2 
 PCOD9323357
Probable space group: C 2 2 2
;
_chemical_formula_sum "Si O2"
_cell_formula_units_Z 56
_cell_length_a 9.430981
_cell_length_b 21.201250
_cell_length_c 12.968166
_cell_angle_alpha 90.000000
_cell_angle_beta 90.000000
_cell_angle_gamma 90.000000
_cell_volume 2592.966454
_symmetry_space_group_name_H-M "C 2 2 2"
_symmetry_group_IT_number 21
_symmetry_cell_setting 'orthorhombic'
loop_
_space_group_symop_operation_xyz
x,y,z
-x,-y,z
x,-y,-z
-x,y,-z
1/2+x,1/2+y,z
1/2-x,1/2-y,z
1/2+x,1/2-y,-z
1/2-x,1/2+y,-z
loop_
_atom_site_type_symbol
_atom_site_label
_atom_site_fract_x
_atom_site_fract_y
_atom_site_fract_z
Si Si1 0.781257 0.903390 0.566716
Si Si2 0.453425 0.681383 0.291848
Si Si3 0.224660 0.679546 0.115708
Si Si4 0.670470 0.498104 0.719861
Si Si5 0.652061 0.959693 0.908855
Si Si6 0.739545 0.636545 0.331766
Si Si7 0.944560 0.683255 0.676150
O O1 0.909880 0.875143 0.633778
O O2 0.794250 0.884777 0.448844
O O3 0.644496 0.866830 0.611418
O O4 0.783506 0.974593 0.608257
O O5 0.368716 0.672204 0.185179
O O6 0.621256 0.681792 0.284299
O O7 0.411959 0.744796 0.352827
O O8 0.250000 0.750000 0.066079
O O9 0.170406 0.615090 0.059897
O O10 0.106000 0.684138 0.205386
O O11 0.500000 0.500000 0.732378
O O12 0.757806 0.537071 0.804533
O O13 0.727376 0.427637 0.732036
O O14 0.500000 0.000000 0.893651
O O15 0.721713 0.000000 0.000000
O O16 0.892995 0.666231 0.331485
#
# Coordination Sequence:
#
# PCOD9323357 Si02
#       7
#     8   8   8   8   8   8   8
#     4  11  22  37  54  81 120 170 213 244 311 366
#     4  10  20  36  58  83 119 168 211 252 303 368
#     4   9  18  40  67  91 126 176 209 250 329 403
#     4  12  24  41  60  84 121 162 212 255 317 380
#     4  11  23  42  72 102 124 156 210 272 338 398
#     4  12  23  33  55  86 125 163 208 269 298 354
#     4  10  21  36  56  85 121 161 212 258 308 364
#
# _framework density 21.596886000000001
#
# number of rings (size 3 to 8) (size 9 to 14) (size 15 to 20)
#    0.000    1.286    4.286    3.857    0.000    4.286 
#    0.000    1.429    0.000   12.000    0.000    0.000 
#    0.000    0.000    0.000    0.000    0.000    0.000 
#
# Total GULP energy -155921.514412 kJ/mol
# GULP energy per Si atom -5568.625515 kJ/mol
# Density = 2.154773 g / cm^3
# Si number density = 21.596886 Si / 1000 Ang^3
#
#
#
# Elastic Constant Matrix: (Units=GPa)
#
#
# Indices 1 2 3 4 5 6 
#
# 1 126.1486 32.2959 0.7855 0.0000 0.0000 0.0000
# 2 32.2959 131.3243 9.7231 0.0000 0.0000 0.0000
# 3 0.7855 9.7231 34.1304 0.0000 0.0000 0.0000
# 4 0.0000 0.0000 0.0000 18.5416 0.0000 0.0000
# 5 0.0000 0.0000 0.0000 0.0000 36.5558 0.0000
# 6 0.0000 0.0000 0.0000 0.0000 0.0000 20.5931
#
#
#
# Elastic Compliance Matrix: (Units=1/GPa)
#
#
# Indices 1 2 3 4 5 6 
#
# 1 0.008465 -0.002112 0.000407 0.000000 0.000000 0.000000
# 2 -0.002112 0.008306 -0.002318 0.000000 0.000000 0.000000
# 3 0.000407 -0.002318 0.029950 0.000000 0.000000 0.000000
# 4 0.000000 0.000000 0.000000 0.053933 0.000000 0.000000
# 5 0.000000 0.000000 0.000000 0.000000 0.027355 0.000000
# 6 0.000000 0.000000 0.000000 0.000000 0.000000 0.048560
#
#
# Mechanical properties :
#
#
# Convention : Reuss Voigt Hill
#
# Bulk Modulus (GPa) = 25.85588 41.91249 33.88418
# Shear Modulus (GPa) = 25.31560 31.72469 28.52014
#
# Velocity S-wave (km/s) = 3.42744 3.83684 3.63790
# Velocity P-wave (km/s) = 5.25938 6.25119 5.77661
#
# Compressibility (1/GPa) = 0.03867593
#
# Stress axis : x y z
#
# Youngs Moduli (GPa) = 118.12908 120.39923 33.38872
#
# Poissons Ratio (x) = 0.25428 -0.01358
# Poissons Ratio (y) = 0.24948 0.07738
# Poissons Ratio (z) = -0.04806 0.27903
#
# Static dielectric constant tensor:
#      x y z
#    x 1.838900 0.000000 0.000000 
#    y 0.000000 1.587180 0.000000 
#    z 0.000000 0.000000 1.771980 
# 
# From -- ./inp_files/30747.got.cif
#   From: 2010.05.17/outbox.cif.g08.bks.cpg/sg21_16_cif.got.tgz:30747.got - 2010.06.03 23:14:55.
