data_PCOD9323227
_publ_section_title
;
Structure prediction by ZEFSAII (Michael W. Deem and Ramdas Pophale) SiO2 
 PCOD9323227
Probable space group: C 2 2 2
;
_chemical_formula_sum "Si O2"
_cell_formula_units_Z 48
_cell_length_a 15.689289
_cell_length_b 24.975467
_cell_length_c 5.161484
_cell_angle_alpha 90.000000
_cell_angle_beta 90.000000
_cell_angle_gamma 90.000000
_cell_volume 2022.513671
_symmetry_space_group_name_H-M "C 2 2 2"
_symmetry_group_IT_number 21
_symmetry_cell_setting 'orthorhombic'
loop_
_space_group_symop_operation_xyz
x,y,z
-x,-y,z
x,-y,-z
-x,y,-z
1/2+x,1/2+y,z
1/2-x,1/2-y,z
1/2+x,1/2-y,-z
1/2-x,1/2+y,-z
loop_
_atom_site_type_symbol
_atom_site_label
_atom_site_fract_x
_atom_site_fract_y
_atom_site_fract_z
Si Si1 0.781045 0.797813 0.664784
Si Si2 0.729706 0.103926 0.585862
Si Si3 0.611702 0.367119 0.965888
Si Si4 0.943365 0.638981 0.236923
Si Si5 0.422995 0.260683 0.303042
Si Si6 0.647040 0.466030 0.255748
O O1 0.750000 0.750000 0.844215
O O2 0.714526 0.841338 0.575279
O O3 0.832185 0.767948 0.440036
O O4 0.850361 0.831436 0.808962
O O5 0.809954 0.114618 0.778649
O O6 0.640572 0.101450 0.732850
O O7 0.768508 0.060881 0.385399
O O8 0.561384 0.320963 0.811779
O O9 0.585958 0.420066 0.130316
O O10 0.920206 0.702003 0.168159
O O11 0.000000 0.637616 0.500000
O O12 0.000000 0.619326 0.000000
O O13 0.500000 0.253960 0.500000
O O14 0.610452 0.500000 0.500000
O O15 0.669521 0.500000 0.000000
#
# Coordination Sequence:
#
# PCOD9323227 Si02
#       6
#     8   8   8   8   8   8
#     4  10  20  34  58  90 135 177 222 271 313 388
#     4  10  22  40  61  98 133 170 222 277 334 387
#     4  10  23  35  64  97 129 171 219 276 331 389
#     4  11  26  39  60  93 141 191 218 255 316 402
#     4  10  23  38  56  93 144 186 218 254 319 402
#     4  11  22  42  69 100 127 161 223 296 351 387
#
# _framework density 23.732842000000002
#
# number of rings (size 3 to 8) (size 9 to 14) (size 15 to 20)
#    0.000    1.667    3.333    0.000   11.667    0.000 
#    0.000    0.000    0.000    0.500    4.333   33.833 
#    0.000    0.000    0.000    0.000    0.000    0.000 
#
# Total GULP energy -133622.875927 kJ/mol
# GULP energy per Si atom -5567.619830 kJ/mol
# Density = 2.367883 g / cm^3
# Si number density = 23.732842 Si / 1000 Ang^3
#
#
#
# Elastic Constant Matrix: (Units=GPa)
#
#
# Indices 1 2 3 4 5 6 
#
# 1 79.9753 4.0597 27.4002 0.0000 0.0000 0.0000
# 2 4.0597 96.1720 22.3811 0.0000 0.0000 0.0000
# 3 27.4002 22.3811 105.5663 0.0000 0.0000 0.0000
# 4 0.0000 0.0000 0.0000 1620.2293 0.0000 0.0000
# 5 0.0000 0.0000 0.0000 0.0000 17.2125 0.0000
# 6 0.0000 0.0000 0.0000 0.0000 0.0000 8.8960
#
#
#
# Elastic Compliance Matrix: (Units=1/GPa)
#
#
# Indices 1 2 3 4 5 6 
#
# 1 0.013731 0.000263 -0.003620 0.000000 0.000000 0.000000
# 2 0.000263 0.010943 -0.002388 0.000000 0.000000 0.000000
# 3 -0.003620 -0.002388 0.010919 0.000000 0.000000 0.000000
# 4 0.000000 0.000000 0.000000 0.000617 0.000000 0.000000
# 5 0.000000 0.000000 0.000000 0.000000 0.058097 0.000000
# 6 0.000000 0.000000 0.000000 0.000000 0.000000 0.112410
#
#
# Mechanical properties :
#
#
# Convention : Reuss Voigt Hill
#
# Bulk Modulus (GPa) = 41.49052 43.26617 42.37835
# Shear Modulus (GPa) = 22.10040 344.45907 183.27973
#
# Velocity S-wave (km/s) = 3.05489 12.06049 8.79738
# Velocity P-wave (km/s) = 5.47389 14.56745 11.00395
#
# Compressibility (1/GPa) = 0.02410189
#
# Stress axis : x y z
#
# Youngs Moduli (GPa) = 72.83000 91.38499 91.58761
#
# Poissons Ratio (x) = -0.02401 0.33151
# Poissons Ratio (y) = -0.01914 0.21873
# Poissons Ratio (z) = 0.26361 0.21824
#
# Static dielectric constant tensor:
#      x y z
#    x -0.733420 0.000000 0.000000 
#    y 0.000000 2.101160 0.000000 
#    z 0.000000 0.000000 2.071030 
# 
# From -- ./inp_files/5171.got.cif
#   From: 2010.05.17/outbox.cif.g08.bks.cpg/sg21_3_cif.got.tgz:5171.got - 2010.06.03 23:14:55.
