data_PCOD9323067
_publ_section_title
;
Structure prediction by ZEFSAII (Michael W. Deem and Ramdas Pophale) SiO2 
 PCOD9323067
Probable space group: C 2 2 2
;
_chemical_formula_sum "Si O2"
_cell_formula_units_Z 56
_cell_length_a 15.087993
_cell_length_b 11.372417
_cell_length_c 13.715604
_cell_angle_alpha 90.000000
_cell_angle_beta 90.000000
_cell_angle_gamma 90.000000
_cell_volume 2353.418632
_symmetry_space_group_name_H-M "C 2 2 2"
_symmetry_group_IT_number 21
_symmetry_cell_setting 'orthorhombic'
loop_
_space_group_symop_operation_xyz
x,y,z
-x,-y,z
x,-y,-z
-x,y,-z
1/2+x,1/2+y,z
1/2-x,1/2-y,z
1/2+x,1/2-y,-z
1/2-x,1/2+y,-z
loop_
_atom_site_type_symbol
_atom_site_label
_atom_site_fract_x
_atom_site_fract_y
_atom_site_fract_z
Si Si1 0.403347 0.497991 0.702858
Si Si2 0.719923 0.082266 0.631517
Si Si3 0.413280 0.769957 0.256937
Si Si4 0.139255 0.927351 0.909866
Si Si5 0.665731 0.172847 0.440705
Si Si6 0.174960 0.497404 0.833563
Si Si7 0.440229 0.188646 0.094981
O O1 0.500000 0.500000 0.654208
O O2 0.326352 0.562595 0.641265
O O3 0.380179 0.364302 0.735376
O O4 0.410850 0.558870 0.807573
O O5 0.673540 0.173506 0.558002
O O6 0.686423 0.086562 0.741458
O O7 0.687881 0.957946 0.591333
O O8 0.418543 0.797632 0.373651
O O9 0.500374 0.783629 0.190966
O O10 0.348570 0.868133 0.207333
O O11 0.233785 0.988735 0.890474
O O12 0.136073 0.787018 0.923293
O O13 0.099729 0.000000 0.000000
O O14 0.750000 0.250000 0.407866
O O15 0.098163 0.558425 0.894081
O O16 0.500000 0.199302 0.000000
#
# Coordination Sequence:
#
# PCOD9323067 Si02
#       7
#     8   8   8   8   8   8   8
#     4  11  21  41  69 102 144 186 240 299 380 443
#     4   9  21  39  68  98 133 180 235 303 352 441
#     4  11  23  42  71 100 140 188 233 301 371 443
#     4  11  25  42  68 102 141 193 248 302 370 453
#     4  10  19  39  67  96 130 179 236 282 361 436
#     4  10  25  45  68 100 139 189 250 301 369 451
#     4  12  26  45  69 100 149 187 243 311 380 440
#
# _framework density 23.795169999999999
#
# number of rings (size 3 to 8) (size 9 to 14) (size 15 to 20)
#    0.000    1.429    2.857    1.714    2.000    2.857 
#    2.571    2.143    0.000    3.429    0.000    0.000 
#    0.000    0.000    0.000    0.000    0.000    0.000 
#
# Total GULP energy -156081.735095 kJ/mol
# GULP energy per Si atom -5574.347682 kJ/mol
# Density = 2.374101 g / cm^3
# Si number density = 23.795170 Si / 1000 Ang^3
#
#
#
# Elastic Constant Matrix: (Units=GPa)
#
#
# Indices 1 2 3 4 5 6 
#
# 1 97.0268 27.9558 31.2383 0.0000 0.0000 0.0000
# 2 27.9558 111.6661 20.3407 0.0000 0.0000 0.0000
# 3 31.2383 20.3407 112.7954 0.0000 0.0000 0.0000
# 4 0.0000 0.0000 0.0000 16.3351 0.0000 0.0000
# 5 0.0000 0.0000 0.0000 0.0000 -8.4625 0.0000
# 6 0.0000 0.0000 0.0000 0.0000 0.0000 25.9629
#
#
#
# Elastic Compliance Matrix: (Units=1/GPa)
#
#
# Indices 1 2 3 4 5 6 
#
# 1 0.011939 -0.002468 -0.002861 0.000000 0.000000 0.000000
# 2 -0.002468 0.009769 -0.001078 0.000000 0.000000 0.000000
# 3 -0.002861 -0.001078 0.009853 0.000000 0.000000 0.000000
# 4 0.000000 0.000000 0.000000 0.061218 0.000000 0.000000
# 5 0.000000 0.000000 0.000000 0.000000 -0.118168 0.000000
# 6 0.000000 0.000000 0.000000 0.000000 0.000000 0.038517
#
#
# Mechanical properties :
#
#
# Convention : Reuss Voigt Hill
#
# Bulk Modulus (GPa) = 53.34496 53.39532 53.37014
# Shear Modulus (GPa) = 155.32762 22.89733 89.11247
#
# Velocity S-wave (km/s) = 8.08818 3.10541 6.12626
# Velocity P-wave (km/s) = 10.47339 5.94528 8.51582
#
# Compressibility (1/GPa) = 0.01874591
#
# Stress axis : x y z
#
# Youngs Moduli (GPa) = 83.76149 102.35966 101.49689
#
# Poissons Ratio (x) = 0.25259 0.29042
# Poissons Ratio (y) = 0.20669 0.10945
# Poissons Ratio (z) = 0.23967 0.11038
#
# Static dielectric constant tensor:
#      x y z
#    x 1.921420 0.000000 0.000000 
#    y 0.000000 1.930890 0.000000 
#    z 0.000000 0.000000 2.018220 
# 
# From -- ./inp_files/32322.got.cif
#   From: 2010.05.17/outbox.cif.g08.bks.cpg/sg21_17_cif.got.tgz:32322.got - 2010.06.03 23:14:55.
