data_PCOD9323218
_publ_section_title
;
Structure prediction by ZEFSAII (Michael W. Deem and Ramdas Pophale) SiO2 
 PCOD9323218
Probable space group: C 2 2 2
;
_chemical_formula_sum "Si O2"
_cell_formula_units_Z 30
_cell_length_a 15.083672
_cell_length_b 10.180483
_cell_length_c 10.832700
_cell_angle_alpha 90.000000
_cell_angle_beta 90.000000
_cell_angle_gamma 90.000000
_cell_volume 1663.459298
_symmetry_space_group_name_H-M "C 2 2 2"
_symmetry_group_IT_number 21
_symmetry_cell_setting 'orthorhombic'
loop_
_space_group_symop_operation_xyz
x,y,z
-x,-y,z
x,-y,-z
-x,y,-z
1/2+x,1/2+y,z
1/2-x,1/2-y,z
1/2+x,1/2-y,-z
1/2-x,1/2+y,-z
loop_
_atom_site_type_symbol
_atom_site_label
_atom_site_fract_x
_atom_site_fract_y
_atom_site_fract_z
Si Si1 0.000000 0.500000 0.000000
Si Si2 0.398018 0.542227 0.218380
Si Si3 0.357736 0.159381 0.855613
Si Si4 0.242978 0.598717 0.394759
Si Si5 0.714831 0.500000 0.000000
O O1 0.941270 0.587370 0.910585
O O2 0.500000 0.500000 0.234390
O O3 0.385498 0.689963 0.164633
O O4 0.337375 0.546580 0.341038
O O5 0.348057 0.456738 0.113359
O O6 0.321787 0.107790 0.723721
O O7 0.279326 0.114185 0.948898
O O8 0.212210 0.500000 0.500000
O O9 0.250000 0.750000 0.438999
#
# Coordination Sequence:
#
# PCOD9323218 Si02
#       5
#     2   8   8   8   4
#     4  10  20  36  58  80 122 152 178 236 304 334
#     4  10  20  34  56  87 115 146 195 243 288 338
#     4   9  20  37  54  83 119 149 190 237 284 350
#     4   9  19  40  60  80 114 154 197 243 285 344
#     4   9  17  33  55  80 112 154 177 227 291 341
#
# _framework density 18.034707000000001
#
# number of rings (size 3 to 8) (size 9 to 14) (size 15 to 20)
#    0.000    2.667    0.000    2.800    3.733    0.533 
#    4.800    6.000    0.000    0.000    0.000    0.000 
#    0.000    0.000    0.000    0.000    0.000    0.000 
#
# Total GULP energy -83505.377487 kJ/mol
# GULP energy per Si atom -5567.025166 kJ/mol
# Density = 1.799366 g / cm^3
# Si number density = 18.034707 Si / 1000 Ang^3
#
#
#
# Elastic Constant Matrix: (Units=GPa)
#
#
# Indices 1 2 3 4 5 6 
#
# 1 128.4955 42.6799 35.5255 0.0000 0.0000 0.0000
# 2 42.6799 84.9883 70.8148 0.0000 0.0000 0.0000
# 3 35.5255 70.8148 82.5197 0.0000 0.0000 0.0000
# 4 0.0000 0.0000 0.0000 17.9614 0.0000 0.0000
# 5 0.0000 0.0000 0.0000 0.0000 -2.5379 0.0000
# 6 0.0000 0.0000 0.0000 0.0000 0.0000 23.0376
#
#
#
# Elastic Compliance Matrix: (Units=1/GPa)
#
#
# Indices 1 2 3 4 5 6 
#
# 1 0.009340 -0.004703 0.000015 0.000000 0.000000 0.000000
# 2 -0.004703 0.043659 -0.035442 0.000000 0.000000 0.000000
# 3 0.000015 -0.035442 0.042527 0.000000 0.000000 0.000000
# 4 0.000000 0.000000 0.000000 0.055675 0.000000 0.000000
# 5 0.000000 0.000000 0.000000 0.000000 -0.394023 0.000000
# 6 0.000000 0.000000 0.000000 0.000000 0.000000 0.043407
#
#
# Mechanical properties :
#
#
# Convention : Reuss Voigt Hill
#
# Bulk Modulus (GPa) = 65.50407 66.00488 65.75448
# Shear Modulus (GPa) = -43.83472 17.49108 -13.17182
#
# Velocity S-wave (km/s) = -4.93544 3.11763 -2.70545
# Velocity P-wave (km/s) = 1.98039 7.04541 5.17493
#
# Compressibility (1/GPa) = 0.01526623
#
# Stress axis : x y z
#
# Youngs Moduli (GPa) = 107.06219 22.90465 23.51459
#
# Poissons Ratio (x) = 0.10771 -0.00034
# Poissons Ratio (y) = 0.50349 0.83340
# Poissons Ratio (z) = -0.00156 0.81178
#
# Static dielectric constant tensor:
#      x y z
#    x 1.649390 0.000000 0.000000 
#    y 0.000000 1.672940 0.000000 
#    z 0.000000 0.000000 1.618400 
# 
# From -- ./inp_files/12220.got.cif
#   From: 2010.05.17/outbox.cif.g08.bks.cpg/sg21_7_cif.got.tgz:12220.got - 2010.06.03 23:14:55.
