data_PCOD9323823
_publ_section_title
;
Structure prediction by ZEFSAII (Michael W. Deem and Ramdas Pophale) SiO2 
 PCOD9323823
Probable space group: C 2 2 2
;
_chemical_formula_sum "Si O2"
_cell_formula_units_Z 56
_cell_length_a 21.126245
_cell_length_b 9.988119
_cell_length_c 14.213837
_cell_angle_alpha 90.000000
_cell_angle_beta 90.000000
_cell_angle_gamma 90.000000
_cell_volume 2999.282342
_symmetry_space_group_name_H-M "C 2 2 2"
_symmetry_group_IT_number 21
_symmetry_cell_setting 'orthorhombic'
loop_
_space_group_symop_operation_xyz
x,y,z
-x,-y,z
x,-y,-z
-x,y,-z
1/2+x,1/2+y,z
1/2-x,1/2-y,z
1/2+x,1/2-y,-z
1/2-x,1/2+y,-z
loop_
_atom_site_type_symbol
_atom_site_label
_atom_site_fract_x
_atom_site_fract_y
_atom_site_fract_z
Si Si1 0.750000 0.250000 0.451250
Si Si2 0.693963 0.423227 0.289999
Si Si3 0.014185 0.846886 0.889545
Si Si4 0.617163 0.694712 0.259373
Si Si5 0.825669 0.500000 0.500000
Si Si6 0.337893 0.016311 0.288318
Si Si7 0.592524 0.768877 0.764867
Si Si8 0.501210 0.337804 0.390544
O O1 0.701641 0.333865 0.385062
O O2 0.784317 0.364780 0.509209
O O3 0.655745 0.562382 0.289525
O O4 0.767073 0.460417 0.271540
O O5 0.654145 0.325723 0.221969
O O6 0.961995 0.757362 0.839053
O O7 0.082396 0.818789 0.842267
O O8 0.000000 0.000000 0.861012
O O9 0.000000 0.836250 0.000000
O O10 0.657764 0.829097 0.262849
O O11 0.560776 0.710747 0.335208
O O12 0.856705 0.492140 0.398125
O O13 0.385845 0.921210 0.233671
O O14 0.561010 0.720159 0.666201
O O15 0.500000 0.500000 0.384456
O O16 0.500000 0.300223 0.500000
#
# Coordination Sequence:
#
# PCOD9323823 Si02
#       8
#     4   8   8   8   4   8   8   8
#     4  10  22  34  52  82 120 168 210 244 282 338
#     4  11  19  39  58  82 119 163 197 237 298 357
#     4  10  21  40  71  97 111 145 204 257 307 369
#     4  11  22  39  61  87 119 156 196 255 302 353
#     4  10  22  36  48  83 120 163 220 234 280 338
#     4  11  25  36  55  88 125 164 201 246 293 354
#     4  11  19  41  61  83 119 156 195 245 302 360
#     4  10  21  35  54  80 106 153 203 244 292 345
#
# _framework density 18.671133000000001
#
# number of rings (size 3 to 8) (size 9 to 14) (size 15 to 20)
#    0.000    1.429    5.714    1.286    6.000    2.286 
#    5.143    2.143    0.000    5.143    0.000    0.000 
#    0.000    0.000    0.000    0.000    0.000    0.000 
#
# Total GULP energy -156096.022512 kJ/mol
# GULP energy per Si atom -5574.857947 kJ/mol
# Density = 1.862864 g / cm^3
# Si number density = 18.671133 Si / 1000 Ang^3
#
#
#
# Elastic Constant Matrix: (Units=GPa)
#
#
# Indices 1 2 3 4 5 6 
#
# 1 66.3744 19.5374 13.3216 0.0000 0.0000 0.0000
# 2 19.5374 113.1326 8.9687 0.0000 0.0000 0.0000
# 3 13.3216 8.9687 47.8042 0.0000 0.0000 0.0000
# 4 0.0000 0.0000 0.0000 18.2950 0.0000 0.0000
# 5 0.0000 0.0000 0.0000 0.0000 41.0489 0.0000
# 6 0.0000 0.0000 0.0000 0.0000 0.0000 17.1876
#
#
#
# Elastic Compliance Matrix: (Units=1/GPa)
#
#
# Indices 1 2 3 4 5 6 
#
# 1 0.016651 -0.002546 -0.004163 0.000000 0.000000 0.000000
# 2 -0.002546 0.009362 -0.001047 0.000000 0.000000 0.000000
# 3 -0.004163 -0.001047 0.022275 0.000000 0.000000 0.000000
# 4 0.000000 0.000000 0.000000 0.054660 0.000000 0.000000
# 5 0.000000 0.000000 0.000000 0.000000 0.024361 0.000000
# 6 0.000000 0.000000 0.000000 0.000000 0.000000 0.058182
#
#
# Mechanical properties :
#
#
# Convention : Reuss Voigt Hill
#
# Bulk Modulus (GPa) = 30.50871 34.55184 32.53027
# Shear Modulus (GPa) = 23.59314 27.67185 25.63250
#
# Velocity S-wave (km/s) = 3.55859 3.85394 3.70921
# Velocity P-wave (km/s) = 5.76717 6.19269 5.98372
#
# Compressibility (1/GPa) = 0.03277752
#
# Stress axis : x y z
#
# Youngs Moduli (GPa) = 60.05730 106.81721 44.89322
#
# Poissons Ratio (x) = 0.27190 0.18687
# Poissons Ratio (y) = 0.15288 0.04700
# Poissons Ratio (z) = 0.24999 0.11184
#
# Static dielectric constant tensor:
#      x y z
#    x 1.718580 0.000000 0.000000 
#    y 0.000000 1.628610 0.000000 
#    z 0.000000 0.000000 1.660970 
# 
# From -- ./inp_files/30799.got.cif
#   From: 2010.05.17/outbox.cif.g08.bks.cpg/sg21_16_cif.got.tgz:30799.got - 2010.06.03 23:14:55.
