data_PCOD9323540
_publ_section_title
;
Structure prediction by ZEFSAII (Michael W. Deem and Ramdas Pophale) SiO2 
 PCOD9323540
Probable space group: C 2 2 2
;
_chemical_formula_sum "Si O2"
_cell_formula_units_Z 40
_cell_length_a 21.748588
_cell_length_b 14.711592
_cell_length_c 5.129686
_cell_angle_alpha 90.000000
_cell_angle_beta 90.000000
_cell_angle_gamma 90.000000
_cell_volume 1641.275626
_symmetry_space_group_name_H-M "C 2 2 2"
_symmetry_group_IT_number 21
_symmetry_cell_setting 'orthorhombic'
loop_
_space_group_symop_operation_xyz
x,y,z
-x,-y,z
x,-y,-z
-x,y,-z
1/2+x,1/2+y,z
1/2-x,1/2-y,z
1/2+x,1/2-y,-z
1/2-x,1/2+y,-z
loop_
_atom_site_type_symbol
_atom_site_label
_atom_site_fract_x
_atom_site_fract_y
_atom_site_fract_z
Si Si1 0.725248 0.890941 0.054857
Si Si2 0.866511 0.892050 0.002077
Si Si3 0.959982 0.370472 0.265455
Si Si4 0.329082 0.901019 0.435110
Si Si5 0.432109 0.670273 0.495962
O O1 0.796940 0.876126 0.098590
O O2 0.678612 0.857908 0.279816
O O3 0.708415 0.846978 0.778946
O O4 0.717561 0.000000 0.000000
O O5 0.908887 0.837807 0.207896
O O6 0.881961 0.868505 0.703281
O O7 0.878382 0.000000 0.000000
O O8 0.893929 0.417995 0.290853
O O9 0.943815 0.268919 0.365851
O O10 0.000000 0.407795 0.500000
O O11 0.000000 0.373833 0.000000
O O12 0.301197 0.000000 0.500000
O O13 0.500000 0.625140 0.500000
#
# Coordination Sequence:
#
# PCOD9323540 Si02
#       5
#     8   8   8   8   8
#     4   9  19  36  58  85 118 151 189 247 312 356
#     4  11  22  38  61  87 116 154 201 250 298 359
#     4  11  23  41  61  84 121 163 197 244 309 368
#     4  10  20  38  62  87 115 153 199 246 298 364
#     4  11  23  39  57  83 120 159 198 245 306 363
#
# _framework density 24.371286999999999
#
# number of rings (size 3 to 8) (size 9 to 14) (size 15 to 20)
#    0.000    1.600    0.000    6.000    0.000    6.000 
#    0.000    7.000    0.000    0.000    0.000    0.000 
#    0.000    0.000    0.000    0.000    0.000    0.000 
#
# Total GULP energy -111504.620684 kJ/mol
# GULP energy per Si atom -5575.231034 kJ/mol
# Density = 2.431582 g / cm^3
# Si number density = 24.371287 Si / 1000 Ang^3
#
#
#
# Elastic Constant Matrix: (Units=GPa)
#
#
# Indices 1 2 3 4 5 6 
#
# 1 101.1477 -5.5901 47.0992 0.0000 0.0000 0.0000
# 2 -5.5901 54.8995 11.8387 0.0000 0.0000 0.0000
# 3 47.0992 11.8387 186.1001 0.0000 0.0000 0.0000
# 4 0.0000 0.0000 0.0000 36.4985 0.0000 0.0000
# 5 0.0000 0.0000 0.0000 0.0000 50.1799 0.0000
# 6 0.0000 0.0000 0.0000 0.0000 0.0000 17.1777
#
#
#
# Elastic Compliance Matrix: (Units=1/GPa)
#
#
# Indices 1 2 3 4 5 6 
#
# 1 0.011381 0.001805 -0.002995 0.000000 0.000000 0.000000
# 2 0.001805 0.018755 -0.001650 0.000000 0.000000 0.000000
# 3 -0.002995 -0.001650 0.006236 0.000000 0.000000 0.000000
# 4 0.000000 0.000000 0.000000 0.027398 0.000000 0.000000
# 5 0.000000 0.000000 0.000000 0.000000 0.019928 0.000000
# 6 0.000000 0.000000 0.000000 0.000000 0.000000 0.058215
#
#
# Mechanical properties :
#
#
# Convention : Reuss Voigt Hill
#
# Bulk Modulus (GPa) = 32.58222 49.87142 41.22682
# Shear Modulus (GPa) = 31.68073 40.02453 35.85263
#
# Velocity S-wave (km/s) = 3.60935 4.05690 3.83965
# Velocity P-wave (km/s) = 5.54689 6.51554 6.05063
#
# Compressibility (1/GPa) = 0.03069159
#
# Stress axis : x y z
#
# Youngs Moduli (GPa) = 87.86596 53.32009 160.34788
#
# Poissons Ratio (x) = -0.09623 0.48027
# Poissons Ratio (y) = -0.15858 0.26455
# Poissons Ratio (z) = 0.26317 0.08797
#
# Static dielectric constant tensor:
#      x y z
#    x 1.978960 0.000000 0.000000 
#    y 0.000000 2.039400 0.000000 
#    z 0.000000 0.000000 2.005340 
# 
# From -- ./inp_files/4818.got.cif
#   From: 2010.05.17/outbox.cif.g08.bks.cpg/sg21_3_cif.got.tgz:4818.got - 2010.06.03 23:14:55.
