data_PCOD9323335
_publ_section_title
;
Structure prediction by ZEFSAII (Michael W. Deem and Ramdas Pophale) SiO2 
 PCOD9323335
Probable space group: C 2 2 2
;
_chemical_formula_sum "Si O2"
_cell_formula_units_Z 34
_cell_length_a 9.706111
_cell_length_b 17.809555
_cell_length_c 9.195227
_cell_angle_alpha 90.000000
_cell_angle_beta 90.000000
_cell_angle_gamma 90.000000
_cell_volume 1589.500895
_symmetry_space_group_name_H-M "C 2 2 2"
_symmetry_group_IT_number 21
_symmetry_cell_setting 'orthorhombic'
loop_
_space_group_symop_operation_xyz
x,y,z
-x,-y,z
x,-y,-z
-x,y,-z
1/2+x,1/2+y,z
1/2-x,1/2-y,z
1/2+x,1/2-y,-z
1/2-x,1/2+y,-z
loop_
_atom_site_type_symbol
_atom_site_label
_atom_site_fract_x
_atom_site_fract_y
_atom_site_fract_z
Si Si1 0.385854 0.780460 0.897501
Si Si2 0.500000 0.000000 0.500000
Si Si3 0.141340 0.815414 0.411720
Si Si4 0.217700 0.402517 0.327593
Si Si5 0.981513 0.886080 0.169678
O O1 0.250000 0.750000 0.979508
O O2 0.347128 0.839505 0.776496
O O3 0.442772 0.703023 0.833618
O O4 0.500000 0.814292 0.000000
O O5 0.398600 0.044305 0.391049
O O6 0.250000 0.750000 0.365651
O O7 0.220376 0.860882 0.534534
O O8 0.000000 0.789724 0.500000
O O9 0.104822 0.875921 0.284652
O O10 0.352680 0.431225 0.238272
O O11 0.000000 0.906881 0.000000
#
# Coordination Sequence:
#
# PCOD9323335 Si02
#       5
#     8   2   8   8   8
#     4   9  18  36  62  98 132 151 190 258 336 402
#     4  12  28  44  60  84 132 188 240 266 292 368
#     4  10  20  35  63  97 129 163 204 268 337 395
#     4  10  22  41  59  88 127 172 221 263 309 377
#     4   9  19  37  65 101 127 156 202 266 350 400
#
# _framework density 21.390363000000001
#
# number of rings (size 3 to 8) (size 9 to 14) (size 15 to 20)
#    0.000    2.353    0.000    3.529    4.941    7.529 
#    0.000    5.882    0.000    1.412    0.000    0.000 
#    0.000    0.000    0.000    0.000    0.000    0.000 
#
# Total GULP energy -94682.018407 kJ/mol
# GULP energy per Si atom -5569.530495 kJ/mol
# Density = 2.134168 g / cm^3
# Si number density = 21.390363 Si / 1000 Ang^3
#
#
#
# Elastic Constant Matrix: (Units=GPa)
#
#
# Indices 1 2 3 4 5 6 
#
# 1 149.5197 55.5698 93.4357 0.0000 0.0000 0.0000
# 2 55.5698 47.1938 36.8665 0.0000 0.0000 0.0000
# 3 93.4357 36.8665 173.5907 0.0000 0.0000 0.0000
# 4 0.0000 0.0000 0.0000 583.6582 0.0000 0.0000
# 5 0.0000 0.0000 0.0000 0.0000 50.7776 0.0000
# 6 0.0000 0.0000 0.0000 0.0000 0.0000 9.8675
#
#
#
# Elastic Compliance Matrix: (Units=1/GPa)
#
#
# Indices 1 2 3 4 5 6 
#
# 1 0.014969 -0.013586 -0.005172 0.000000 0.000000 0.000000
# 2 -0.013586 0.037734 -0.000701 0.000000 0.000000 0.000000
# 3 -0.005172 -0.000701 0.008693 0.000000 0.000000 0.000000
# 4 0.000000 0.000000 0.000000 0.001713 0.000000 0.000000
# 5 0.000000 0.000000 0.000000 0.000000 0.019694 0.000000
# 6 0.000000 0.000000 0.000000 0.000000 0.000000 0.101343
#
#
# Mechanical properties :
#
#
# Convention : Reuss Voigt Hill
#
# Bulk Modulus (GPa) = 44.48637 82.44979 63.46808
# Shear Modulus (GPa) = 21.68649 141.15614 81.42132
#
# Velocity S-wave (km/s) = 3.18755 8.13227 6.17634
# Velocity P-wave (km/s) = 5.86428 11.26088 8.97767
#
# Compressibility (1/GPa) = 0.02247879
#
# Stress axis : x y z
#
# Youngs Moduli (GPa) = 66.80312 26.50118 115.02959
#
# Poissons Ratio (x) = 0.36004 0.59493
# Poissons Ratio (y) = 0.90758 0.08065
# Poissons Ratio (z) = 0.34550 0.01858
#
# Static dielectric constant tensor:
#      x y z
#    x 0.727730 0.000000 0.000000 
#    y 0.000000 1.787450 0.000000 
#    z 0.000000 0.000000 1.801900 
# 
# From -- ./inp_files/10562.got.cif
#   From: 2010.05.17/outbox.cif.g08.bks.cpg/sg21_6_cif.got.tgz:10562.got - 2010.06.03 23:14:55.
