data_PCOD9323359
_publ_section_title
;
Structure prediction by ZEFSAII (Michael W. Deem and Ramdas Pophale) SiO2 
 PCOD9323359
Probable space group: C 2 2 2
;
_chemical_formula_sum "Si O2"
_cell_formula_units_Z 44
_cell_length_a 24.956462
_cell_length_b 10.636501
_cell_length_c 9.489305
_cell_angle_alpha 90.000000
_cell_angle_beta 90.000000
_cell_angle_gamma 90.000000
_cell_volume 2518.930632
_symmetry_space_group_name_H-M "C 2 2 2"
_symmetry_group_IT_number 21
_symmetry_cell_setting 'orthorhombic'
loop_
_space_group_symop_operation_xyz
x,y,z
-x,-y,z
x,-y,-z
-x,y,-z
1/2+x,1/2+y,z
1/2-x,1/2-y,z
1/2+x,1/2-y,-z
1/2-x,1/2+y,-z
loop_
_atom_site_type_symbol
_atom_site_label
_atom_site_fract_x
_atom_site_fract_y
_atom_site_fract_z
Si Si1 0.000000 0.500000 0.500000
Si Si2 0.500000 0.500000 0.000000
Si Si3 0.590005 0.686474 0.082699
Si Si4 0.817094 0.500000 0.500000
Si Si5 0.732825 0.111246 0.223162
Si Si6 0.385514 0.895552 0.117529
Si Si7 0.316177 0.500000 0.000000
Si Si8 0.907319 0.606392 0.330088
O O1 0.037339 0.407020 0.410417
O O2 0.540053 0.590957 0.087395
O O3 0.644351 0.606482 0.062862
O O4 0.593860 0.783166 0.214089
O O5 0.586198 0.771111 0.939893
O O6 0.781819 0.461805 0.365832
O O7 0.857396 0.607482 0.438649
O O8 0.750000 0.250000 0.264339
O O9 0.678016 0.123826 0.133345
O O10 0.777923 0.050037 0.124549
O O11 0.403031 0.967815 0.257188
O O12 0.395290 0.000000 0.000000
#
# Coordination Sequence:
#
# PCOD9323359 Si02
#       8
#     2   2   8   4   8   8   4   8
#     4  10  20  36  58  86 100 156 196 236 306 350
#     4  10  24  36  54  86 116 152 184 240 306 330
#     4  10  21  38  56  86 119 147 192 246 284 352
#     4   9  22  37  52  86 118 149 190 235 294 336
#     4  11  20  34  57  83 116 155 191 231 280 347
#     4   9  17  33  56  84 112 141 181 241 292 329
#     4  11  22  35  60  90 116 161 194 227 290 346
#     4   9  20  37  58  82 114 146 192 245 293 341
#
# _framework density 17.46773
#
# number of rings (size 3 to 8) (size 9 to 14) (size 15 to 20)
#    0.000    2.182    2.727    0.000    2.545    1.455 
#    0.000    0.000    0.000    2.727    0.000    0.000 
#    0.000    0.000    0.000    0.000    0.000    0.000 
#
# Total GULP energy -122483.797922 kJ/mol
# GULP energy per Si atom -5567.445360 kJ/mol
# Density = 1.742797 g / cm^3
# Si number density = 17.467730 Si / 1000 Ang^3
#
#
#
# Elastic Constant Matrix: (Units=GPa)
#
#
# Indices 1 2 3 4 5 6 
#
# 1 114.2818 56.2018 55.3613 0.0000 0.0000 0.0000
# 2 56.2018 94.6254 44.1921 0.0000 0.0000 0.0000
# 3 55.3613 44.1921 95.5760 0.0000 0.0000 0.0000
# 4 0.0000 0.0000 0.0000 -25.4127 0.0000 0.0000
# 5 0.0000 0.0000 0.0000 0.0000 25.9105 0.0000
# 6 0.0000 0.0000 0.0000 0.0000 0.0000 21.8781
#
#
#
# Elastic Compliance Matrix: (Units=1/GPa)
#
#
# Indices 1 2 3 4 5 6 
#
# 1 0.014370 -0.005928 -0.005583 0.000000 0.000000 0.000000
# 2 -0.005928 0.015924 -0.003929 0.000000 0.000000 0.000000
# 3 -0.005583 -0.003929 0.015513 0.000000 0.000000 0.000000
# 4 0.000000 0.000000 0.000000 -0.039350 0.000000 0.000000
# 5 0.000000 0.000000 0.000000 0.000000 0.038594 0.000000
# 6 0.000000 0.000000 0.000000 0.000000 0.000000 0.045708
#
#
# Mechanical properties :
#
#
# Convention : Reuss Voigt Hill
#
# Bulk Modulus (GPa) = 66.98949 68.44375 67.71662
# Shear Modulus (GPa) = 39.49023 14.39040 26.94032
#
# Velocity S-wave (km/s) = 4.75990 2.87335 3.93146
# Velocity P-wave (km/s) = 8.28508 7.09057 7.71099
#
# Compressibility (1/GPa) = 0.01492772
#
# Stress axis : x y z
#
# Youngs Moduli (GPa) = 69.59037 62.79977 64.46023
#
# Poissons Ratio (x) = 0.37225 0.35987
# Poissons Ratio (y) = 0.41250 0.25328
# Poissons Ratio (z) = 0.38851 0.24676
#
# Static dielectric constant tensor:
#      x y z
#    x 1.659900 0.000000 0.000000 
#    y 0.000000 1.603000 0.000000 
#    z 0.000000 0.000000 1.613530 
# 
# From -- ./inp_files/18451.got.cif
#   From: 2010.05.17/outbox.cif.g08.bks.cpg/sg21_10_cif.got.tgz:18451.got - 2010.06.03 23:14:55.
