data_PCOD9323914
_publ_section_title
;
Structure prediction by ZEFSAII (Michael W. Deem and Ramdas Pophale) SiO2 
 PCOD9323914
Probable space group: C 2 2 2
;
_chemical_formula_sum "Si O2"
_cell_formula_units_Z 32
_cell_length_a 8.201799
_cell_length_b 32.727985
_cell_length_c 5.239772
_cell_angle_alpha 90.000000
_cell_angle_beta 90.000000
_cell_angle_gamma 90.000000
_cell_volume 1406.503377
_symmetry_space_group_name_H-M "C 2 2 2"
_symmetry_group_IT_number 21
_symmetry_cell_setting 'orthorhombic'
loop_
_space_group_symop_operation_xyz
x,y,z
-x,-y,z
x,-y,-z
-x,y,-z
1/2+x,1/2+y,z
1/2-x,1/2-y,z
1/2+x,1/2-y,-z
1/2-x,1/2+y,-z
loop_
_atom_site_type_symbol
_atom_site_label
_atom_site_fract_x
_atom_site_fract_y
_atom_site_fract_z
Si Si1 0.604538 0.418856 0.743448
Si Si2 0.195583 0.704563 0.015093
Si Si3 0.070248 0.545764 0.757601
Si Si4 0.301881 0.841305 0.518446
O O1 0.500000 0.431224 0.500000
O O2 0.737969 0.453838 0.789010
O O3 0.712555 0.380926 0.635520
O O4 0.500000 0.411050 0.000000
O O5 0.250000 0.750000 0.083935
O O6 0.247096 0.692586 0.729225
O O7 0.251568 0.672807 0.235129
O O8 0.000000 0.703261 0.000000
O O9 0.000000 0.500000 0.758314
O O10 0.000000 0.564166 0.500000
O O11 0.000000 0.569356 0.000000
O O12 0.500000 0.844680 0.500000
#
# Coordination Sequence:
#
# PCOD9323914 Si02
#       4
#     8   8   8   8
#     4  12  25  41  65 101 132 162 215 281 325 369
#     4  10  21  37  59  88 122 168 219 268 319 381
#     4  10  22  44  69  93 126 174 211 245 318 401
#     4  10  22  40  61  86 125 176 220 256 320 401
#
# _framework density 22.751456999999998
#
# number of rings (size 3 to 8) (size 9 to 14) (size 15 to 20)
#    0.000    1.500    0.000    4.500    0.000    6.000 
#    0.000   15.000    0.000    0.000    0.000    0.000 
#    0.000    0.000    0.000    0.000    0.000    0.000 
#
# Total GULP energy -89315.530280 kJ/mol
# GULP energy per Si atom -5582.220643 kJ/mol
# Density = 2.269967 g / cm^3
# Si number density = 22.751457 Si / 1000 Ang^3
#
#
#
# Elastic Constant Matrix: (Units=GPa)
#
#
# Indices 1 2 3 4 5 6 
#
# 1 104.4426 31.8833 69.4063 0.0000 0.0000 0.0000
# 2 31.8833 80.7294 21.6162 0.0000 0.0000 0.0000
# 3 69.4063 21.6162 212.3474 0.0000 0.0000 0.0000
# 4 0.0000 0.0000 0.0000 -137.5313 0.0000 0.0000
# 5 0.0000 0.0000 0.0000 0.0000 34.2341 0.0000
# 6 0.0000 0.0000 0.0000 0.0000 0.0000 27.2793
#
#
#
# Elastic Compliance Matrix: (Units=1/GPa)
#
#
# Indices 1 2 3 4 5 6 
#
# 1 0.013529 -0.004276 -0.003987 0.000000 0.000000 0.000000
# 2 -0.004276 0.014085 -0.000036 0.000000 0.000000 0.000000
# 3 -0.003987 -0.000036 0.006016 0.000000 0.000000 0.000000
# 4 0.000000 0.000000 0.000000 -0.007271 0.000000 0.000000
# 5 0.000000 0.000000 0.000000 0.000000 0.029211 0.000000
# 6 0.000000 0.000000 0.000000 0.000000 0.000000 0.036658
#
#
# Mechanical properties :
#
#
# Convention : Reuss Voigt Hill
#
# Bulk Modulus (GPa) = 58.70941 71.48123 65.09532
# Shear Modulus (GPa) = 43.66668 3.10398 23.38533
#
# Velocity S-wave (km/s) = 4.38572 1.16930 3.20950
# Velocity P-wave (km/s) = 7.17682 5.77144 6.51216
#
# Compressibility (1/GPa) = 0.01703304
#
# Stress axis : x y z
#
# Youngs Moduli (GPa) = 73.91355 70.99528 166.22151
#
# Poissons Ratio (x) = 0.30356 0.66270
# Poissons Ratio (y) = 0.31604 0.00604
# Poissons Ratio (z) = 0.29468 0.00258
#
# Static dielectric constant tensor:
#      x y z
#    x 1.934270 0.000000 0.000000 
#    y 0.000000 1.787830 0.000000 
#    z 0.000000 0.000000 1.886430 
# 
# From -- ./inp_files/1485.got.cif
#   From: 2010.05.17/outbox.cif.g08.bks.cpg/sg21_1_cif.got.tgz:1485.got - 2010.06.03 23:14:55.
