data_PCOD9323418
_publ_section_title
;
Structure prediction by ZEFSAII (Michael W. Deem and Ramdas Pophale) SiO2 
 PCOD9323418
Probable space group: C 2 2 2
;
_chemical_formula_sum "Si O2"
_cell_formula_units_Z 24
_cell_length_a 4.826866
_cell_length_b 15.958913
_cell_length_c 13.568135
_cell_angle_alpha 90.000000
_cell_angle_beta 90.000000
_cell_angle_gamma 90.000000
_cell_volume 1045.174260
_symmetry_space_group_name_H-M "C 2 2 2"
_symmetry_group_IT_number 21
_symmetry_cell_setting 'orthorhombic'
loop_
_space_group_symop_operation_xyz
x,y,z
-x,-y,z
x,-y,-z
-x,y,-z
1/2+x,1/2+y,z
1/2-x,1/2-y,z
1/2+x,1/2-y,-z
1/2-x,1/2+y,-z
loop_
_atom_site_type_symbol
_atom_site_label
_atom_site_fract_x
_atom_site_fract_y
_atom_site_fract_z
Si Si1 0.677040 0.916754 0.183240
Si Si2 0.500000 0.805823 0.000000
Si Si3 0.299014 0.650025 0.292891
Si Si4 0.000000 0.188626 0.500000
O O1 0.628378 0.858791 0.088475
O O2 0.504317 0.886042 0.277295
O O3 0.993826 0.899539 0.217971
O O4 0.500000 0.000000 0.156241
O O5 0.750000 0.750000 0.959322
O O6 0.250000 0.750000 0.275769
O O7 0.405671 0.639279 0.403671
O O8 0.750000 0.250000 0.530409
#
# Coordination Sequence:
#
# PCOD9323418 Si02
#       4
#     8   4   8   4
#     4  12  25  42  62  93 131 166 203 262 328 383
#     4  12  25  42  67  92 118 162 216 262 309 380
#     4  11  22  41  66  92 124 167 216 261 310 377
#     4  10  20  36  63  94 121 158 212 266 306 356
#
# _framework density 22.962679999999999
#
# number of rings (size 3 to 8) (size 9 to 14) (size 15 to 20)
#    0.000    0.667    0.000   11.500    0.000    0.000 
#    0.000   10.000    0.000    0.000    0.000    0.000 
#    0.000    0.000    0.000    0.000    0.000    0.000 
#
# Total GULP energy -66962.605562 kJ/mol
# GULP energy per Si atom -5580.217130 kJ/mol
# Density = 2.291042 g / cm^3
# Si number density = 22.962680 Si / 1000 Ang^3
#
#
#
# Elastic Constant Matrix: (Units=GPa)
#
#
# Indices 1 2 3 4 5 6 
#
# 1 114.3194 -0.4483 3.6662 0.0000 0.0000 0.0000
# 2 -0.4483 63.4020 -1.4729 0.0000 0.0000 0.0000
# 3 3.6662 -1.4729 122.3860 0.0000 0.0000 0.0000
# 4 0.0000 0.0000 0.0000 25.5129 0.0000 0.0000
# 5 0.0000 0.0000 0.0000 0.0000 37.6295 0.0000
# 6 0.0000 0.0000 0.0000 0.0000 0.0000 32.9247
#
#
#
# Elastic Compliance Matrix: (Units=1/GPa)
#
#
# Indices 1 2 3 4 5 6 
#
# 1 0.008756 0.000056 -0.000262 0.000000 0.000000 0.000000
# 2 0.000056 0.015777 0.000188 0.000000 0.000000 0.000000
# 3 -0.000262 0.000188 0.008181 0.000000 0.000000 0.000000
# 4 0.000000 0.000000 0.000000 0.039196 0.000000 0.000000
# 5 0.000000 0.000000 0.000000 0.000000 0.026575 0.000000
# 6 0.000000 0.000000 0.000000 0.000000 0.000000 0.030372
#
#
# Mechanical properties :
#
#
# Convention : Reuss Voigt Hill
#
# Bulk Modulus (GPa) = 30.60073 33.73305 32.16689
# Shear Modulus (GPa) = 35.76910 39.10423 37.43667
#
# Velocity S-wave (km/s) = 3.95106 4.13115 4.04211
# Velocity P-wave (km/s) = 5.84549 6.12189 5.98528
#
# Compressibility (1/GPa) = 0.03267896
#
# Stress axis : x y z
#
# Youngs Moduli (GPa) = 114.20700 63.38280 122.23487
#
# Poissons Ratio (x) = -0.00354 0.03198
# Poissons Ratio (y) = -0.00638 -0.02300
# Poissons Ratio (z) = 0.02988 -0.01193
#
# Static dielectric constant tensor:
#      x y z
#    x 1.850000 0.000000 0.000000 
#    y 0.000000 1.963250 0.000000 
#    z 0.000000 0.000000 1.822730 
# 
# From -- ./inp_files/28368.got.cif
#   From: 2010.05.17/outbox.cif.g08.bks.cpg/sg21_15_cif.got.tgz:28368.got - 2010.06.03 23:14:55.
