data_PCOD9323199
_publ_section_title
;
Structure prediction by ZEFSAII (Michael W. Deem and Ramdas Pophale) SiO2 
 PCOD9323199
Probable space group: C 2 2 2
;
_chemical_formula_sum "Si O2"
_cell_formula_units_Z 34
_cell_length_a 28.176927
_cell_length_b 5.094010
_cell_length_c 14.948170
_cell_angle_alpha 90.000000
_cell_angle_beta 90.000000
_cell_angle_gamma 90.000000
_cell_volume 2145.563875
_symmetry_space_group_name_H-M "C 2 2 2"
_symmetry_group_IT_number 21
_symmetry_cell_setting 'orthorhombic'
loop_
_space_group_symop_operation_xyz
x,y,z
-x,-y,z
x,-y,-z
-x,y,-z
1/2+x,1/2+y,z
1/2-x,1/2-y,z
1/2+x,1/2-y,-z
1/2-x,1/2+y,-z
loop_
_atom_site_type_symbol
_atom_site_label
_atom_site_fract_x
_atom_site_fract_y
_atom_site_fract_z
Si Si1 0.782702 0.000000 0.500000
Si Si2 0.332494 0.826378 0.798859
Si Si3 0.750000 0.250000 0.939888
Si Si4 0.407626 0.240284 0.057611
Si Si5 0.000000 0.500000 0.000000
Si Si6 0.305734 0.317826 0.687631
O O1 0.750000 0.750000 0.469303
O O2 0.812187 0.883929 0.582883
O O3 0.292753 0.849427 0.876669
O O4 0.381838 0.764994 0.848167
O O5 0.316870 0.578862 0.741247
O O6 0.332931 0.078910 0.734774
O O7 0.734927 0.500000 0.000000
O O8 0.399919 0.500000 0.000000
O O9 0.463845 0.174661 0.058338
O O10 0.386522 0.000000 0.000000
O O11 0.250000 0.250000 0.695614
#
# Coordination Sequence:
#
# PCOD9323199 Si02
#       6
#     4   8   4   8   2   8
#     4  10  20  34  54  72  98 143 186 219 272 306
#     4  12  21  33  50  72 105 137 183 220 260 307
#     4  12  22  32  44  66 102 146 176 208 244 308
#     4  10  20  36  53  73 100 139 175 223 266 311
#     4   8  22  36  58  72 102 134 182 232 266 314
#     4  11  20  35  49  74 104 139 179 224 256 307
#
# _framework density 15.846648999999999
#
# number of rings (size 3 to 8) (size 9 to 14) (size 15 to 20)
#    0.706    0.471    2.353    7.412    0.000    0.000 
#    0.000    0.000    0.000    0.000    0.000    0.000 
#    0.000    5.647    0.000    0.000    0.000    0.000 
#
# Total GULP energy -94776.204069 kJ/mol
# GULP energy per Si atom -5575.070828 kJ/mol
# Density = 1.581058 g / cm^3
# Si number density = 15.846649 Si / 1000 Ang^3
#
#
#
# Elastic Constant Matrix: (Units=GPa)
#
#
# Indices 1 2 3 4 5 6 
#
# 1 46.9415 -13.5726 36.4333 0.0000 0.0000 0.0000
# 2 -13.5726 99.8713 48.4531 0.0000 0.0000 0.0000
# 3 36.4333 48.4531 114.8335 0.0000 0.0000 0.0000
# 4 0.0000 0.0000 0.0000 39.2782 0.0000 0.0000
# 5 0.0000 0.0000 0.0000 0.0000 17.3306 0.0000
# 6 0.0000 0.0000 0.0000 0.0000 0.0000 -43.7351
#
#
#
# Elastic Compliance Matrix: (Units=1/GPa)
#
#
# Indices 1 2 3 4 5 6 
#
# 1 0.040268 0.014675 -0.018968 0.000000 0.000000 0.000000
# 2 0.014675 0.017938 -0.012225 0.000000 0.000000 0.000000
# 3 -0.018968 -0.012225 0.019884 0.000000 0.000000 0.000000
# 4 0.000000 0.000000 0.000000 0.025459 0.000000 0.000000
# 5 0.000000 0.000000 0.000000 0.000000 0.057701 0.000000
# 6 0.000000 0.000000 0.000000 0.000000 0.000000 -0.022865
#
#
# Mechanical properties :
#
#
# Convention : Reuss Voigt Hill
#
# Bulk Modulus (GPa) = 22.19526 44.91934 33.55730
# Shear Modulus (GPa) = 26.81840 15.26356 21.04098
#
# Velocity S-wave (km/s) = 4.11831 3.10692 3.64783
# Velocity P-wave (km/s) = 6.05397 6.42483 6.24216
#
# Compressibility (1/GPa) = 0.04505466
#
# Stress axis : x y z
#
# Youngs Moduli (GPa) = 24.83385 55.74751 50.29118
#
# Poissons Ratio (x) = -0.81807 0.95390
# Poissons Ratio (y) = -0.36443 0.61479
# Poissons Ratio (z) = 0.47104 0.68149
#
# Static dielectric constant tensor:
#      x y z
#    x 1.512380 0.000000 0.000000 
#    y 0.000000 1.551760 0.000000 
#    z 0.000000 0.000000 0.671880 
# 
# From -- ./inp_files/27927.got.cif
#   From: 2010.05.17/outbox.cif.g08.bks.cpg/sg21_14_cif.got.tgz:27927.got - 2010.06.03 23:14:55.
