data_PCOD9323960
_publ_section_title
;
Structure prediction by ZEFSAII (Michael W. Deem and Ramdas Pophale) SiO2 
 PCOD9323960
Probable space group: C 2 2 2
;
_chemical_formula_sum "Si O2"
_cell_formula_units_Z 48
_cell_length_a 8.887925
_cell_length_b 30.535279
_cell_length_c 9.709846
_cell_angle_alpha 90.000000
_cell_angle_beta 90.000000
_cell_angle_gamma 90.000000
_cell_volume 2635.206273
_symmetry_space_group_name_H-M "C 2 2 2"
_symmetry_group_IT_number 21
_symmetry_cell_setting 'orthorhombic'
loop_
_space_group_symop_operation_xyz
x,y,z
-x,-y,z
x,-y,-z
-x,y,-z
1/2+x,1/2+y,z
1/2-x,1/2-y,z
1/2+x,1/2-y,-z
1/2-x,1/2+y,-z
loop_
_atom_site_type_symbol
_atom_site_label
_atom_site_fract_x
_atom_site_fract_y
_atom_site_fract_z
Si Si1 0.361209 0.922900 0.910029
Si Si2 0.456198 0.546358 0.839377
Si Si3 0.582300 0.231832 0.644054
Si Si4 0.488659 0.866836 0.334398
Si Si5 0.190575 0.122387 0.832493
Si Si6 0.600058 0.278550 0.128841
O O1 0.224256 0.950200 0.844471
O O2 0.429058 0.897600 0.778132
O O3 0.500000 0.943147 0.000000
O O4 0.277227 0.894116 0.028912
O O5 0.500000 0.500000 0.772735
O O6 0.558269 0.587847 0.791989
O O7 0.500000 0.544377 0.000000
O O8 0.500000 0.232640 0.500000
O O9 0.750000 0.250000 0.634972
O O10 0.559355 0.181506 0.691516
O O11 0.492325 0.264478 0.739728
O O12 0.500000 0.876161 0.500000
O O13 0.314286 0.870277 0.287242
O O14 0.127332 0.169881 0.868555
O O15 0.750000 0.250000 0.125300
O O16 0.500000 0.265975 0.000000
#
# Coordination Sequence:
#
# PCOD9323960 Si02
#       6
#     8   8   8   8   8   8
#     4   9  19  36  61  87 118 151 192 242 298 353
#     4   9  18  36  62  92 119 148 195 250 300 357
#     4  11  25  40  57  80 118 159 208 253 290 348
#     4  10  22  39  58  81 118 158 200 243 295 357
#     4  10  21  38  58  85 121 151 195 247 294 357
#     4  12  24  36  56  87 120 160 201 242 299 352
#
# _framework density 18.214893
#
# number of rings (size 3 to 8) (size 9 to 14) (size 15 to 20)
#    0.000    1.833    1.667    2.500    9.333    0.000 
#    0.000   15.000    0.000    3.000    0.000    0.000 
#    0.000    0.000    0.000    0.000    0.000    0.000 
#
# Total GULP energy -133633.523141 kJ/mol
# GULP energy per Si atom -5568.063464 kJ/mol
# Density = 1.817343 g / cm^3
# Si number density = 18.214893 Si / 1000 Ang^3
#
#
#
# Elastic Constant Matrix: (Units=GPa)
#
#
# Indices 1 2 3 4 5 6 
#
# 1 154.3699 60.3135 11.7294 0.0000 0.0000 0.0000
# 2 60.3135 87.9294 1.7321 0.0000 0.0000 0.0000
# 3 11.7294 1.7321 33.8797 0.0000 0.0000 0.0000
# 4 0.0000 0.0000 0.0000 17.8135 0.0000 0.0000
# 5 0.0000 0.0000 0.0000 0.0000 464.0408 0.0000
# 6 0.0000 0.0000 0.0000 0.0000 0.0000 17.5153
#
#
#
# Elastic Compliance Matrix: (Units=1/GPa)
#
#
# Indices 1 2 3 4 5 6 
#
# 1 0.009114 -0.006196 -0.002839 0.000000 0.000000 0.000000
# 2 -0.006196 0.015596 0.001348 0.000000 0.000000 0.000000
# 3 -0.002839 0.001348 0.030430 0.000000 0.000000 0.000000
# 4 0.000000 0.000000 0.000000 0.056137 0.000000 0.000000
# 5 0.000000 0.000000 0.000000 0.000000 0.002155 0.000000
# 6 0.000000 0.000000 0.000000 0.000000 0.000000 0.057093
#
#
# Mechanical properties :
#
#
# Convention : Reuss Voigt Hill
#
# Bulk Modulus (GPa) = 25.14658 47.08101 36.11379
# Shear Modulus (GPa) = 25.10603 113.36752 69.23678
#
# Velocity S-wave (km/s) = 3.71661 7.89772 6.17200
# Velocity P-wave (km/s) = 5.67918 10.44361 8.40601
#
# Compressibility (1/GPa) = 0.03976683
#
# Stress axis : x y z
#
# Youngs Moduli (GPa) = 109.71585 64.11807 32.86221
#
# Poissons Ratio (x) = 0.39727 0.09329
# Poissons Ratio (y) = 0.67980 -0.04429
# Poissons Ratio (z) = 0.31145 -0.08641
#
# Static dielectric constant tensor:
#      x y z
#    x 1.686110 0.000000 0.000000 
#    y 0.000000 -0.700300 0.000000 
#    z 0.000000 0.000000 1.642910 
# 
# From -- ./inp_files/11528.got.cif
#   From: 2010.05.17/outbox.cif.g08.bks.cpg/sg21_6_cif.got.tgz:11528.got - 2010.06.03 23:14:55.
