data_PCOD9323588
_publ_section_title
;
Structure prediction by ZEFSAII (Michael W. Deem and Ramdas Pophale) SiO2 
 PCOD9323588
Probable space group: C 2 2 2
;
_chemical_formula_sum "Si O2"
_cell_formula_units_Z 48
_cell_length_a 13.681333
_cell_length_b 15.524571
_cell_length_c 8.537065
_cell_angle_alpha 90.000000
_cell_angle_beta 90.000000
_cell_angle_gamma 90.000000
_cell_volume 1813.245505
_symmetry_space_group_name_H-M "C 2 2 2"
_symmetry_group_IT_number 21
_symmetry_cell_setting 'orthorhombic'
loop_
_space_group_symop_operation_xyz
x,y,z
-x,-y,z
x,-y,-z
-x,y,-z
1/2+x,1/2+y,z
1/2-x,1/2-y,z
1/2+x,1/2-y,-z
1/2-x,1/2+y,-z
loop_
_atom_site_type_symbol
_atom_site_label
_atom_site_fract_x
_atom_site_fract_y
_atom_site_fract_z
Si Si1 0.869211 0.546197 0.663862
Si Si2 0.750000 0.250000 0.066730
Si Si3 0.500000 0.378121 0.500000
Si Si4 0.280531 0.660679 0.485766
Si Si5 0.455322 0.387581 0.170389
Si Si6 0.460234 0.795620 0.163226
Si Si7 0.266473 0.900731 0.819555
O O1 0.897929 0.500000 0.500000
O O2 0.762623 0.586465 0.622833
O O3 0.938282 0.625321 0.718272
O O4 0.844693 0.477057 0.799609
O O5 0.642651 0.256249 0.144645
O O6 0.728893 0.165464 0.961509
O O7 0.605127 0.335128 0.511222
O O8 0.509822 0.417459 0.326823
O O9 0.250000 0.750000 0.416152
O O10 0.227696 0.648533 0.652979
O O11 0.462288 0.282045 0.191666
O O12 0.347257 0.427468 0.174459
O O13 0.500000 0.403853 0.000000
O O14 0.500000 0.833812 0.000000
#
# Coordination Sequence:
#
# PCOD9323588 Si02
#       7
#     8   4   4   8   8   8   8
#     4  10  24  44  71 114 159 208 261 339 416 475
#     4  12  22  42  76 102 152 208 262 318 394 492
#     4  10  22  34  65 104 143 190 260 320 390 463
#     4  10  20  38  69 103 145 206 261 314 397 490
#     4  10  20  41  68 108 142 191 269 318 373 479
#     4  11  24  44  79 114 152 210 273 323 403 497
#     4  10  21  42  68 104 150 199 250 322 397 457
#
# _framework density 26.471871
#
# number of rings (size 3 to 8) (size 9 to 14) (size 15 to 20)
#    0.000    1.667    4.167    1.000    3.500    0.667 
#    0.000   12.083    0.000   11.000    0.000    0.000 
#    0.000    0.000    0.000    0.000    0.000    0.000 
#
# Total GULP energy -134002.495485 kJ/mol
# GULP energy per Si atom -5583.437312 kJ/mol
# Density = 2.641162 g / cm^3
# Si number density = 26.471871 Si / 1000 Ang^3
#
#
#
# Elastic Constant Matrix: (Units=GPa)
#
#
# Indices 1 2 3 4 5 6 
#
# 1 113.7040 35.5649 20.9708 0.0000 0.0000 0.0000
# 2 35.5649 143.8558 38.2869 0.0000 0.0000 0.0000
# 3 20.9708 38.2869 147.4209 0.0000 0.0000 0.0000
# 4 0.0000 0.0000 0.0000 98.8970 0.0000 0.0000
# 5 0.0000 0.0000 0.0000 0.0000 28.8124 0.0000
# 6 0.0000 0.0000 0.0000 0.0000 0.0000 -3.4131
#
#
#
# Elastic Compliance Matrix: (Units=1/GPa)
#
#
# Indices 1 2 3 4 5 6 
#
# 1 0.009620 -0.002164 -0.000807 0.000000 0.000000 0.000000
# 2 -0.002164 0.007954 -0.001758 0.000000 0.000000 0.000000
# 3 -0.000807 -0.001758 0.007355 0.000000 0.000000 0.000000
# 4 0.000000 0.000000 0.000000 0.010112 0.000000 0.000000
# 5 0.000000 0.000000 0.000000 0.000000 0.034707 0.000000
# 6 0.000000 0.000000 0.000000 0.000000 0.000000 -0.292986
#
#
# Mechanical properties :
#
#
# Convention : Reuss Voigt Hill
#
# Bulk Modulus (GPa) = 64.63060 66.06956 65.35008
# Shear Modulus (GPa) = -23.96656 45.53646 10.78495
#
# Velocity S-wave (km/s) = -3.01218 4.15201 2.02063
# Velocity P-wave (km/s) = 3.51712 6.92807 5.49401
#
# Compressibility (1/GPa) = 0.01547255
#
# Stress axis : x y z
#
# Youngs Moduli (GPa) = 103.94686 125.71938 135.96921
#
# Poissons Ratio (x) = 0.27202 0.10967
# Poissons Ratio (y) = 0.22491 0.23904
# Poissons Ratio (z) = 0.08384 0.22102
#
# Static dielectric constant tensor:
#      x y z
#    x 2.037390 0.000000 0.000000 
#    y 0.000000 2.111780 0.000000 
#    z 0.000000 0.000000 2.191310 
# 
# From -- ./inp_files/15022.got.cif
#   From: 2010.05.17/outbox.cif.g08.bks.cpg/sg21_8_cif.got.tgz:15022.got - 2010.06.03 23:14:55.
