data_PCOD9323789
_publ_section_title
;
Structure prediction by ZEFSAII (Michael W. Deem and Ramdas Pophale) SiO2 
 PCOD9323789
Probable space group: C 2 2 2
;
_chemical_formula_sum "Si O2"
_cell_formula_units_Z 32
_cell_length_a 5.300696
_cell_length_b 27.200520
_cell_length_c 8.797968
_cell_angle_alpha 90.000000
_cell_angle_beta 90.000000
_cell_angle_gamma 90.000000
_cell_volume 1268.505873
_symmetry_space_group_name_H-M "C 2 2 2"
_symmetry_group_IT_number 21
_symmetry_cell_setting 'orthorhombic'
loop_
_space_group_symop_operation_xyz
x,y,z
-x,-y,z
x,-y,-z
-x,y,-z
1/2+x,1/2+y,z
1/2-x,1/2-y,z
1/2+x,1/2-y,-z
1/2-x,1/2+y,-z
loop_
_atom_site_type_symbol
_atom_site_label
_atom_site_fract_x
_atom_site_fract_y
_atom_site_fract_z
Si Si1 0.586552 0.834107 0.706490
Si Si2 0.000000 0.500000 0.000000
Si Si3 0.250000 0.750000 0.096705
Si Si4 0.750000 0.250000 0.601526
Si Si5 0.000000 0.875327 0.500000
Si Si6 0.500000 0.000000 0.500000
Si Si7 0.784712 0.429478 0.749792
O O1 0.771435 0.799956 0.805168
O O2 0.349402 0.796227 0.696319
O O3 0.481539 0.884855 0.772542
O O4 0.743702 0.847904 0.553423
O O5 0.819674 0.464912 0.895760
O O6 0.500000 0.754960 0.000000
O O7 0.500000 0.259180 0.500000
O O8 0.050920 0.903289 0.662071
O O9 0.649529 0.034796 0.610979
#
# Coordination Sequence:
#
# PCOD9323789 Si02
#       7
#     8   2   4   4   4   2   8
#     4  12  29  48  82 125 169 227 292 363 438 527
#     4  10  28  54  86 118 180 236 300 360 468 554
#     4  12  32  54  76 114 180 240 280 350 444 538
#     4  12  28  44  78 126 178 214 272 352 436 514
#     4  12  26  49  87 130 170 221 298 385 434 524
#     4  10  20  52  74 114 166 216 282 354 450 504
#     4  11  25  50  82 123 166 226 290 368 445 531
#
# _framework density 25.226531000000001
#
# number of rings (size 3 to 8) (size 9 to 14) (size 15 to 20)
#    0.000    0.500    2.500    3.000   19.250    0.500 
#    0.000    1.250    0.000    0.000    0.000    0.000 
#    0.000    0.000    0.000    0.000    0.000    0.000 
#
# Total GULP energy -89245.567517 kJ/mol
# GULP energy per Si atom -5577.847970 kJ/mol
# Density = 2.516911 g / cm^3
# Si number density = 25.226531 Si / 1000 Ang^3
#
#
#
# Elastic Constant Matrix: (Units=GPa)
#
#
# Indices 1 2 3 4 5 6 
#
# 1 154.7071 48.9087 50.0161 0.0000 0.0000 0.0000
# 2 48.9087 176.2757 65.5334 0.0000 0.0000 0.0000
# 3 50.0161 65.5334 145.5928 0.0000 0.0000 0.0000
# 4 0.0000 0.0000 0.0000 65.9596 0.0000 0.0000
# 5 0.0000 0.0000 0.0000 0.0000 31.9685 0.0000
# 6 0.0000 0.0000 0.0000 0.0000 0.0000 19.0205
#
#
#
# Elastic Compliance Matrix: (Units=1/GPa)
#
#
# Indices 1 2 3 4 5 6 
#
# 1 0.007531 -0.001354 -0.001978 0.000000 0.000000 0.000000
# 2 -0.001354 0.007057 -0.002711 0.000000 0.000000 0.000000
# 3 -0.001978 -0.002711 0.008768 0.000000 0.000000 0.000000
# 4 0.000000 0.000000 0.000000 0.015161 0.000000 0.000000
# 5 0.000000 0.000000 0.000000 0.000000 0.031281 0.000000
# 6 0.000000 0.000000 0.000000 0.000000 0.000000 0.052575
#
#
# Mechanical properties :
#
#
# Convention : Reuss Voigt Hill
#
# Bulk Modulus (GPa) = 88.73118 89.49912 89.11515
# Shear Modulus (GPa) = 36.17549 44.19755 40.18652
#
# Velocity S-wave (km/s) = 3.79096 4.19026 3.99560
# Velocity P-wave (km/s) = 7.37645 7.67895 7.52922
#
# Compressibility (1/GPa) = 0.01126999
#
# Stress axis : x y z
#
# Youngs Moduli (GPa) = 132.77796 141.71191 114.04964
#
# Poissons Ratio (x) = 0.19193 0.22555
# Poissons Ratio (y) = 0.17983 0.30919
# Poissons Ratio (z) = 0.26259 0.38418
#
# Static dielectric constant tensor:
#      x y z
#    x 2.228520 0.000000 0.000000 
#    y 0.000000 2.488160 0.000000 
#    z 0.000000 0.000000 2.057940 
# 
# From -- ./inp_files/9270.got.cif
#   From: 2010.05.17/outbox.cif.g08.bks.cpg/sg21_5_cif.got.tgz:9270.got - 2010.06.03 23:14:55.
