data_PCOD9323846
_publ_section_title
;
Structure prediction by ZEFSAII (Michael W. Deem and Ramdas Pophale) SiO2 
 PCOD9323846
Probable space group: C 2 2 2
;
_chemical_formula_sum "Si O2"
_cell_formula_units_Z 54
_cell_length_a 14.863318
_cell_length_b 30.320842
_cell_length_c 5.989343
_cell_angle_alpha 90.000000
_cell_angle_beta 90.000000
_cell_angle_gamma 90.000000
_cell_volume 2699.207128
_symmetry_space_group_name_H-M "C 2 2 2"
_symmetry_group_IT_number 21
_symmetry_cell_setting 'orthorhombic'
loop_
_space_group_symop_operation_xyz
x,y,z
-x,-y,z
x,-y,-z
-x,y,-z
1/2+x,1/2+y,z
1/2-x,1/2-y,z
1/2+x,1/2-y,-z
1/2-x,1/2+y,-z
loop_
_atom_site_type_symbol
_atom_site_label
_atom_site_fract_x
_atom_site_fract_y
_atom_site_fract_z
Si Si1 0.000000 0.000000 0.500000
Si Si2 0.102951 0.267259 0.057871
Si Si3 0.671824 0.176776 0.560313
Si Si4 0.500000 0.653818 0.500000
Si Si5 0.573169 0.575201 0.197487
Si Si6 0.911872 0.361843 0.152954
Si Si7 0.334474 0.309687 0.763033
Si Si8 0.245267 0.885554 0.942390
O O1 0.942301 0.967127 0.349644
O O2 0.124566 0.282521 0.309707
O O3 0.118850 0.313408 0.932752
O O4 0.158863 0.228260 0.948646
O O5 0.000000 0.256189 0.000000
O O6 0.599130 0.148297 0.416406
O O7 0.752878 0.195260 0.409927
O O8 0.719577 0.142700 0.730967
O O9 0.552599 0.620475 0.333846
O O10 0.572289 0.683294 0.631275
O O11 0.676370 0.576814 0.122825
O O12 0.500000 0.573601 0.000000
O O13 0.835191 0.396125 0.080839
O O14 0.000000 0.370226 0.000000
O O15 0.313782 0.354265 0.897468
#
# Coordination Sequence:
#
# PCOD9323846 Si02
#       8
#     2   8   8   4   8   8   8   8
#     4  10  26  36  64  98 136 174 186 224 324 366
#     4  10  24  37  51  73 109 152 212 262 331 371
#     4  10  22  41  56  76 112 154 198 277 316 374
#     4  11  22  35  60  88 116 160 206 260 312 366
#     4  11  21  41  62  93 133 161 197 248 296 396
#     4   9  21  39  56  81 108 154 209 269 318 368
#     4  11  23  37  56  85 106 161 215 262 320 378
#     4  10  21  35  61  85 114 154 203 254 310 365
#
# _framework density 20.005875
#
# number of rings (size 3 to 8) (size 9 to 14) (size 15 to 20)
#    0.000    1.778    2.963    0.222    2.074   14.222 
#    0.000    4.444    0.000    0.000    0.000    0.000 
#    0.000   16.593    0.000    0.000    0.000    0.000 
#
# Total GULP energy -150641.926337 kJ/mol
# GULP energy per Si atom -5579.330605 kJ/mol
# Density = 1.996034 g / cm^3
# Si number density = 20.005875 Si / 1000 Ang^3
#
#
#
# Elastic Constant Matrix: (Units=GPa)
#
#
# Indices 1 2 3 4 5 6 
#
# 1 138.5250 42.4303 64.1355 0.0000 0.0000 0.0000
# 2 42.4303 54.2397 31.1214 0.0000 0.0000 0.0000
# 3 64.1355 31.1214 114.3695 0.0000 0.0000 0.0000
# 4 0.0000 0.0000 0.0000 5.8308 0.0000 0.0000
# 5 0.0000 0.0000 0.0000 0.0000 28.6316 0.0000
# 6 0.0000 0.0000 0.0000 0.0000 0.0000 7.5040
#
#
#
# Elastic Compliance Matrix: (Units=1/GPa)
#
#
# Indices 1 2 3 4 5 6 
#
# 1 0.011245 -0.006137 -0.004636 0.000000 0.000000 0.000000
# 2 -0.006137 0.025197 -0.003415 0.000000 0.000000 0.000000
# 3 -0.004636 -0.003415 0.012273 0.000000 0.000000 0.000000
# 4 0.000000 0.000000 0.000000 0.171504 0.000000 0.000000
# 5 0.000000 0.000000 0.000000 0.000000 0.034926 0.000000
# 6 0.000000 0.000000 0.000000 0.000000 0.000000 0.133262
#
#
# Mechanical properties :
#
#
# Convention : Reuss Voigt Hill
#
# Bulk Modulus (GPa) = 49.16704 64.72318 56.94511
# Shear Modulus (GPa) = 11.80464 19.68975 15.74720
#
# Velocity S-wave (km/s) = 2.43175 3.14060 2.80862
# Velocity P-wave (km/s) = 5.70212 6.75081 6.24851
#
# Compressibility (1/GPa) = 0.02033883
#
# Stress axis : x y z
#
# Youngs Moduli (GPa) = 88.92829 39.68782 81.48196
#
# Poissons Ratio (x) = 0.24355 0.37776
# Poissons Ratio (y) = 0.54572 0.27827
# Poissons Ratio (z) = 0.41228 0.13554
#
# Static dielectric constant tensor:
#      x y z
#    x 1.782540 0.000000 0.000000 
#    y 0.000000 1.658190 0.000000 
#    z 0.000000 0.000000 1.850790 
# 
# From -- ./inp_files/4344.got.cif
#   From: 2010.05.17/outbox.cif.g08.bks.cpg/sg21_3_cif.got.tgz:4344.got - 2010.06.03 23:14:55.
