data_PCOD9323027
_publ_section_title
;
Structure prediction by ZEFSAII (Michael W. Deem and Ramdas Pophale) SiO2 
 PCOD9323027
Probable space group: C 2 2 2
;
_chemical_formula_sum "Si O2"
_cell_formula_units_Z 48
_cell_length_a 31.448993
_cell_length_b 9.722520
_cell_length_c 8.486837
_cell_angle_alpha 90.000000
_cell_angle_beta 90.000000
_cell_angle_gamma 90.000000
_cell_volume 2594.964675
_symmetry_space_group_name_H-M "C 2 2 2"
_symmetry_group_IT_number 21
_symmetry_cell_setting 'orthorhombic'
loop_
_space_group_symop_operation_xyz
x,y,z
-x,-y,z
x,-y,-z
-x,y,-z
1/2+x,1/2+y,z
1/2-x,1/2-y,z
1/2+x,1/2-y,-z
1/2-x,1/2+y,-z
loop_
_atom_site_type_symbol
_atom_site_label
_atom_site_fract_x
_atom_site_fract_y
_atom_site_fract_z
Si Si1 0.351411 0.007055 0.184571
Si Si2 0.178800 0.014306 0.184279
Si Si3 0.113079 0.769682 0.697363
Si Si4 0.451546 0.495746 0.691804
Si Si5 0.762276 0.588793 0.342093
Si Si6 0.120082 0.783025 0.321282
O O1 0.386643 0.122157 0.222638
O O2 0.309577 0.057058 0.279586
O O3 0.368352 0.860034 0.241319
O O4 0.341642 0.000000 0.000000
O O5 0.158104 0.888813 0.280965
O O6 0.154734 0.149044 0.245569
O O7 0.228329 0.030759 0.217320
O O8 0.170092 0.000000 0.000000
O O9 0.115713 0.760033 0.508303
O O10 0.074101 0.868604 0.742138
O O11 0.500000 0.500000 0.747324
O O12 0.451985 0.500000 0.500000
O O13 0.422714 0.363135 0.734288
O O14 0.756313 0.500000 0.500000
O O15 0.750000 0.750000 0.366688
#
# Coordination Sequence:
#
# PCOD9323027 Si02
#       6
#     8   8   8   8   8   8
#     4  12  25  40  58  84 119 158 198 248 298 347
#     4  11  22  38  59  83 116 154 196 240 290 345
#     4  10  19  38  59  87 117 154 196 240 289 356
#     4   8  16  34  63  94 117 144 190 244 290 346
#     4  12  26  42  61  85 116 153 204 250 296 344
#     4  10  21  36  63  86 117 155 196 238 294 347
#
# _framework density 18.497363
#
# number of rings (size 3 to 8) (size 9 to 14) (size 15 to 20)
#    0.000    1.500    1.667    5.500    2.333    0.000 
#    0.000    0.833    0.000   23.000    0.000    0.000 
#    0.000    0.000    0.000    0.000    0.000    0.000 
#
# Total GULP energy -133995.774365 kJ/mol
# GULP energy per Si atom -5583.157265 kJ/mol
# Density = 1.845526 g / cm^3
# Si number density = 18.497363 Si / 1000 Ang^3
#
#
#
# Elastic Constant Matrix: (Units=GPa)
#
#
# Indices 1 2 3 4 5 6 
#
# 1 108.7055 45.7556 1.3897 0.0000 0.0000 0.0000
# 2 45.7556 157.0207 24.7423 0.0000 0.0000 0.0000
# 3 1.3897 24.7423 57.1272 0.0000 0.0000 0.0000
# 4 0.0000 0.0000 0.0000 13.0129 0.0000 0.0000
# 5 0.0000 0.0000 0.0000 0.0000 3.0126 0.0000
# 6 0.0000 0.0000 0.0000 0.0000 0.0000 22.3481
#
#
#
# Elastic Compliance Matrix: (Units=1/GPa)
#
#
# Indices 1 2 3 4 5 6 
#
# 1 0.010556 -0.003258 0.001154 0.000000 0.000000 0.000000
# 2 -0.003258 0.007840 -0.003317 0.000000 0.000000 0.000000
# 3 0.001154 -0.003317 0.018913 0.000000 0.000000 0.000000
# 4 0.000000 0.000000 0.000000 0.076847 0.000000 0.000000
# 5 0.000000 0.000000 0.000000 0.000000 0.331936 0.000000
# 6 0.000000 0.000000 0.000000 0.000000 0.000000 0.044747
#
#
# Mechanical properties :
#
#
# Convention : Reuss Voigt Hill
#
# Bulk Modulus (GPa) = 37.77995 51.84761 44.81378
# Shear Modulus (GPa) = 9.79427 24.40578 17.10002
#
# Velocity S-wave (km/s) = 2.30357 3.63632 3.04379
# Velocity P-wave (km/s) = 5.24825 6.76173 6.05248
#
# Compressibility (1/GPa) = 0.02646907
#
# Stress axis : x y z
#
# Youngs Moduli (GPa) = 94.73598 127.54295 52.87324
#
# Poissons Ratio (x) = 0.41551 -0.06103
# Poissons Ratio (y) = 0.30863 0.17536
# Poissons Ratio (z) = -0.10934 0.42300
#
# Static dielectric constant tensor:
#      x y z
#    x 1.635630 0.000000 0.000000 
#    y 0.000000 1.635030 0.000000 
#    z 0.000000 0.000000 1.612730 
# 
# From -- ./inp_files/11536.got.cif
#   From: 2010.05.17/outbox.cif.g08.bks.cpg/sg21_6_cif.got.tgz:11536.got - 2010.06.03 23:14:55.
