data_PCOD9323217
_publ_section_title
;
Structure prediction by ZEFSAII (Michael W. Deem and Ramdas Pophale) SiO2 
 PCOD9323217
Probable space group: C 2 2 2
;
_chemical_formula_sum "Si O2"
_cell_formula_units_Z 48
_cell_length_a 5.897741
_cell_length_b 13.426196
_cell_length_c 26.691067
_cell_angle_alpha 90.000000
_cell_angle_beta 90.000000
_cell_angle_gamma 90.000000
_cell_volume 2113.511498
_symmetry_space_group_name_H-M "C 2 2 2"
_symmetry_group_IT_number 21
_symmetry_cell_setting 'orthorhombic'
loop_
_space_group_symop_operation_xyz
x,y,z
-x,-y,z
x,-y,-z
-x,y,-z
1/2+x,1/2+y,z
1/2-x,1/2-y,z
1/2+x,1/2-y,-z
1/2-x,1/2+y,-z
loop_
_atom_site_type_symbol
_atom_site_label
_atom_site_fract_x
_atom_site_fract_y
_atom_site_fract_z
Si Si1 0.500000 0.500000 0.906631
Si Si2 0.500000 0.500000 0.316047
Si Si3 0.000000 0.809018 0.500000
Si Si4 0.374278 0.106992 0.144852
Si Si5 0.128459 0.605586 0.742309
Si Si6 0.360080 0.145221 0.951791
Si Si7 0.250000 0.250000 0.331484
Si Si8 0.392936 0.352828 0.608268
O O1 0.620764 0.418765 0.871654
O O2 0.681000 0.559420 0.939119
O O3 0.378077 0.424109 0.277810
O O4 0.327182 0.557288 0.354316
O O5 0.750000 0.750000 0.490546
O O6 0.935110 0.870778 0.549688
O O7 0.385656 0.145320 0.201151
O O8 0.492063 0.162197 0.098664
O O9 0.500000 0.000000 0.146495
O O10 0.069623 0.693643 0.703990
O O11 0.000000 0.500000 0.739585
O O12 0.250000 0.250000 0.964812
O O13 0.500000 0.114384 0.000000
O O14 0.364048 0.327835 0.368156
O O15 0.250000 0.250000 0.611323
#
# Coordination Sequence:
#
# PCOD9323217 Si02
#       8
#     4   4   4   8   8   8   4   8
#     4  10  23  45  67  86 127 160 205 263 314 394
#     4  10  21  35  59  90 123 165 215 270 330 398
#     4  10  20  37  64  89 130 176 226 286 345 407
#     4   9  21  41  65  93 123 166 210 257 327 391
#     4  10  20  37  59  88 123 158 204 263 317 388
#     4  11  27  45  65  97 126 166 213 265 325 394
#     4  10  20  34  56  86 116 162 208 252 324 388
#     4  10  20  36  57  84 121 166 217 268 335 393
#
# _framework density 22.711020999999999
#
# number of rings (size 3 to 8) (size 9 to 14) (size 15 to 20)
#    0.000    2.000    0.833    1.500    2.333    5.333 
#    0.000    4.167    0.000    1.000    0.000    0.000 
#    0.000    0.000    0.000    0.000    0.000    0.000 
#
# Total GULP energy -133732.384529 kJ/mol
# GULP energy per Si atom -5572.182689 kJ/mol
# Density = 2.265933 g / cm^3
# Si number density = 22.711021 Si / 1000 Ang^3
#
#
#
# Elastic Constant Matrix: (Units=GPa)
#
#
# Indices 1 2 3 4 5 6 
#
# 1 51.2012 4.8247 36.2641 0.0000 0.0000 0.0000
# 2 4.8247 68.8577 23.8512 0.0000 0.0000 0.0000
# 3 36.2641 23.8512 173.6240 0.0000 0.0000 0.0000
# 4 0.0000 0.0000 0.0000 -13.8618 0.0000 0.0000
# 5 0.0000 0.0000 0.0000 0.0000 19.9414 0.0000
# 6 0.0000 0.0000 0.0000 0.0000 0.0000 32.4574
#
#
#
# Elastic Compliance Matrix: (Units=1/GPa)
#
#
# Indices 1 2 3 4 5 6 
#
# 1 0.022922 0.000055 -0.004795 0.000000 0.000000 0.000000
# 2 0.000055 0.015248 -0.002106 0.000000 0.000000 0.000000
# 3 -0.004795 -0.002106 0.007050 0.000000 0.000000 0.000000
# 4 0.000000 0.000000 0.000000 -0.072141 0.000000 0.000000
# 5 0.000000 0.000000 0.000000 0.000000 0.050147 0.000000
# 6 0.000000 0.000000 0.000000 0.000000 0.000000 0.030810
#
#
# Mechanical properties :
#
#
# Convention : Reuss Voigt Hill
#
# Bulk Modulus (GPa) = 31.71801 47.06255 39.39028
# Shear Modulus (GPa) = 63.90720 22.95694 43.43207
#
# Velocity S-wave (km/s) = 5.31040 3.18280 4.37782
# Velocity P-wave (km/s) = 7.18309 5.85443 6.55252
#
# Compressibility (1/GPa) = 0.03152783
#
# Stress axis : x y z
#
# Youngs Moduli (GPa) = 43.62651 65.58067 141.83502
#
# Poissons Ratio (x) = -0.00360 0.68012
# Poissons Ratio (y) = -0.00239 0.29873
# Poissons Ratio (z) = 0.20919 0.13812
#
# Static dielectric constant tensor:
#      x y z
#    x 1.917530 0.000000 0.000000 
#    y 0.000000 1.969660 0.000000 
#    z 0.000000 0.000000 1.835330 
# 
# From -- ./inp_files/39114.got.cif
#   From: 2010.05.17/outbox.cif.g08.bks.cpg/sg21_20_cif.got.tgz:39114.got - 2010.06.03 23:14:55.
