data_PCOD9323942
_publ_section_title
;
Structure prediction by ZEFSAII (Michael W. Deem and Ramdas Pophale) SiO2 
 PCOD9323942
Probable space group: C 2 2 2
;
_chemical_formula_sum "Si O2"
_cell_formula_units_Z 64
_cell_length_a 32.091073
_cell_length_b 5.286167
_cell_length_c 18.911111
_cell_angle_alpha 90.000000
_cell_angle_beta 90.000000
_cell_angle_gamma 90.000000
_cell_volume 3208.057630
_symmetry_space_group_name_H-M "C 2 2 2"
_symmetry_group_IT_number 21
_symmetry_cell_setting 'orthorhombic'
loop_
_space_group_symop_operation_xyz
x,y,z
-x,-y,z
x,-y,-z
-x,y,-z
1/2+x,1/2+y,z
1/2-x,1/2-y,z
1/2+x,1/2-y,-z
1/2-x,1/2+y,-z
loop_
_atom_site_type_symbol
_atom_site_label
_atom_site_fract_x
_atom_site_fract_y
_atom_site_fract_z
Si Si1 0.586687 0.078059 0.080901
Si Si2 0.797071 0.628992 0.575010
Si Si3 0.887302 0.888817 0.578467
Si Si4 0.357285 0.040446 0.792290
Si Si5 0.224568 0.494415 0.278684
Si Si6 0.980756 0.743396 0.580109
Si Si7 0.046989 0.920688 0.858677
Si Si8 0.602429 0.544145 0.270547
O O1 0.628277 0.053029 0.127340
O O2 0.556413 0.863029 0.114704
O O3 0.571686 0.364545 0.096220
O O4 0.591314 0.000000 0.000000
O O5 0.804669 0.500000 0.500000
O O6 0.750000 0.750000 0.567910
O O7 0.839711 0.788594 0.588813
O O8 0.794564 0.445758 0.642995
O O9 0.930479 0.724387 0.579042
O O10 0.897159 0.068840 0.645176
O O11 0.887390 0.000000 0.500000
O O12 0.370256 0.770220 0.760873
O O13 0.309009 0.060397 0.779422
O O14 0.379073 0.267986 0.748897
O O15 0.250000 0.750000 0.288554
O O16 0.250000 0.250000 0.258422
O O17 0.000000 0.500000 0.617232
O O18 0.000000 0.744709 0.500000
O O19 0.000000 0.000000 0.611714
O O20 0.060904 0.939676 0.776657
O O21 0.000000 0.000000 0.866911
#
# Coordination Sequence:
#
# PCOD9323942 Si02
#       8
#     8   8   8   8   8   8   8   8
#     4  10  21  37  64  95 127 165 203 249 304 373
#     4  11  25  40  59  94 129 160 211 269 338 389
#     4  12  25  40  67  91 121 172 216 273 335 385
#     4  10  21  42  62  89 126 157 208 245 301 378
#     4  11  23  40  66  88 120 165 210 253 311 381
#     4  10  22  43  59  83 114 144 207 267 306 371
#     4  10  21  38  59  90 133 165 205 255 308 371
#     4  10  23  40  60  88 119 165 210 256 310 370
#
# _framework density 19.949767000000001
#
# number of rings (size 3 to 8) (size 9 to 14) (size 15 to 20)
#    0.000    1.500    2.500    2.250    5.250    3.000 
#    0.000    2.500    0.000    0.750    0.000    0.000 
#    0.000    0.000    0.000    0.000    0.000    0.000 
#
# Total GULP energy -178369.414111 kJ/mol
# GULP energy per Si atom -5574.044191 kJ/mol
# Density = 1.990436 g / cm^3
# Si number density = 19.949767 Si / 1000 Ang^3
#
#
#
# Elastic Constant Matrix: (Units=GPa)
#
#
# Indices 1 2 3 4 5 6 
#
# 1 87.3498 -4.2482 20.7994 0.0000 0.0000 0.0000
# 2 -4.2482 -4.8313 -10.2935 0.0000 0.0000 0.0000
# 3 20.7994 -10.2935 98.0451 0.0000 0.0000 0.0000
# 4 0.0000 0.0000 0.0000 -1.9158 0.0000 0.0000
# 5 0.0000 0.0000 0.0000 0.0000 -29.6953 0.0000
# 6 0.0000 0.0000 0.0000 0.0000 0.0000 1.8486
#
#
#
# Elastic Compliance Matrix: (Units=1/GPa)
#
#
# Indices 1 2 3 4 5 6 
#
# 1 0.011953 -0.004174 -0.002974 0.000000 0.000000 0.000000
# 2 -0.004174 -0.167690 -0.016720 0.000000 0.000000 0.000000
# 3 -0.002974 -0.016720 0.009075 0.000000 0.000000 0.000000
# 4 0.000000 0.000000 0.000000 -0.521980 0.000000 0.000000
# 5 0.000000 0.000000 0.000000 0.000000 -0.033675 0.000000
# 6 0.000000 0.000000 0.000000 0.000000 0.000000 0.540953
#
#
# Mechanical properties :
#
#
# Convention : Reuss Voigt Hill
#
# Bulk Modulus (GPa) = -5.14408 21.45322 8.15457
# Shear Modulus (GPa) = -28.02259 5.66789 -11.17735
#
# Velocity S-wave (km/s) = -3.75194 1.68738 -2.36958
# Velocity P-wave (km/s) = 4.62099 3.81750 1.84123
#
# Compressibility (1/GPa) = -0.19439823
#
# Stress axis : x y z
#
# Youngs Moduli (GPa) = 83.65835 -5.96338 110.19363
#
# Poissons Ratio (x) = -0.02489 0.32772
# Poissons Ratio (y) = 0.34921 1.84242
# Poissons Ratio (z) = 0.24880 -0.09971
#
# Static dielectric constant tensor:
#      x y z
#    x 1.736990 0.000000 0.000000 
#    y 0.000000 2.012650 0.000000 
#    z 0.000000 0.000000 1.818070 
# 
# From -- ./inp_files/35276.got.cif
#   From: 2010.05.17/outbox.cif.g08.bks.cpg/sg21_18_cif.got.tgz:35276.got - 2010.06.03 23:14:55.
