data_PCOD9323875
_publ_section_title
;
Structure prediction by ZEFSAII (Michael W. Deem and Ramdas Pophale) SiO2 
 PCOD9323875
Probable space group: C 2 2 2
;
_chemical_formula_sum "Si O2"
_cell_formula_units_Z 48
_cell_length_a 13.449708
_cell_length_b 16.748813
_cell_length_c 10.362027
_cell_angle_alpha 90.000000
_cell_angle_beta 90.000000
_cell_angle_gamma 90.000000
_cell_volume 2334.219049
_symmetry_space_group_name_H-M "C 2 2 2"
_symmetry_group_IT_number 21
_symmetry_cell_setting 'orthorhombic'
loop_
_space_group_symop_operation_xyz
x,y,z
-x,-y,z
x,-y,-z
-x,y,-z
1/2+x,1/2+y,z
1/2-x,1/2-y,z
1/2+x,1/2-y,-z
1/2-x,1/2+y,-z
loop_
_atom_site_type_symbol
_atom_site_label
_atom_site_fract_x
_atom_site_fract_y
_atom_site_fract_z
Si Si1 0.125613 0.830775 0.390232
Si Si2 0.747468 0.481427 0.363179
Si Si3 0.635331 0.273400 0.895662
Si Si4 0.092856 0.880510 0.663631
Si Si5 0.387882 0.968678 0.135923
Si Si6 0.424530 0.783465 0.167095
O O1 0.214999 0.889437 0.355108
O O2 0.127266 0.821438 0.545744
O O3 0.114710 0.753060 0.301286
O O4 0.025151 0.880082 0.355174
O O5 0.797175 0.500000 0.500000
O O6 0.650427 0.537782 0.360562
O O7 0.819863 0.501636 0.248354
O O8 0.750000 0.250000 0.877699
O O9 0.618033 0.350681 0.806837
O O10 0.545443 0.217413 0.840817
O O11 0.613148 0.273069 0.049167
O O12 0.389349 0.872725 0.139908
O O13 0.500000 0.000000 0.149615
O O14 0.348973 0.000000 0.000000
#
# Coordination Sequence:
#
# PCOD9323875 Si02
#       6
#     8   8   8   8   8   8
#     4   9  19  40  61  92 121 155 191 251 310 357
#     4  10  22  39  61  91 120 159 201 241 301 367
#     4  10  21  36  61  87 119 157 198 254 300 361
#     4   9  19  37  63  90 122 153 195 243 306 369
#     4  11  25  43  62  81 120 167 208 248 298 363
#     4  10  23  41  60  90 121 157 204 250 309 362
#
# _framework density 20.563624000000001
#
# number of rings (size 3 to 8) (size 9 to 14) (size 15 to 20)
#    0.000    2.167    0.000    2.500    7.000    2.333 
#    6.000    3.333    0.000    5.000    0.000    0.000 
#    0.000    0.000    0.000    0.000    0.000    0.000 
#
# Total GULP energy -133857.932098 kJ/mol
# GULP energy per Si atom -5577.413837 kJ/mol
# Density = 2.051682 g / cm^3
# Si number density = 20.563624 Si / 1000 Ang^3
#
#
#
# Elastic Constant Matrix: (Units=GPa)
#
#
# Indices 1 2 3 4 5 6 
#
# 1 67.3069 10.0501 44.5108 0.0000 0.0000 0.0000
# 2 10.0501 73.4700 62.3262 0.0000 0.0000 0.0000
# 3 44.5108 62.3262 133.2526 0.0000 0.0000 0.0000
# 4 0.0000 0.0000 0.0000 25.7659 0.0000 0.0000
# 5 0.0000 0.0000 0.0000 0.0000 4.2070 0.0000
# 6 0.0000 0.0000 0.0000 0.0000 0.0000 11.0642
#
#
#
# Elastic Compliance Matrix: (Units=1/GPa)
#
#
# Indices 1 2 3 4 5 6 
#
# 1 0.020071 0.004877 -0.008986 0.000000 0.000000 0.000000
# 2 0.004877 0.023749 -0.012737 0.000000 0.000000 0.000000
# 3 -0.008986 -0.012737 0.016464 0.000000 0.000000 0.000000
# 4 0.000000 0.000000 0.000000 0.038811 0.000000 0.000000
# 5 0.000000 0.000000 0.000000 0.000000 0.237697 0.000000
# 6 0.000000 0.000000 0.000000 0.000000 0.000000 0.090382
#
#
# Mechanical properties :
#
#
# Convention : Reuss Voigt Hill
#
# Bulk Modulus (GPa) = 37.60455 56.42264 47.01359
# Shear Modulus (GPa) = 10.64442 18.68360 14.66401
#
# Velocity S-wave (km/s) = 2.27762 3.01753 2.67330
# Velocity P-wave (km/s) = 5.02428 6.29589 5.69569
#
# Compressibility (1/GPa) = 0.02659253
#
# Stress axis : x y z
#
# Youngs Moduli (GPa) = 49.82209 42.10673 60.73975
#
# Poissons Ratio (x) = -0.20536 0.54579
# Poissons Ratio (y) = -0.24299 0.77366
# Poissons Ratio (z) = 0.44769 0.53633
#
# Static dielectric constant tensor:
#      x y z
#    x 1.739790 0.000000 0.000000 
#    y 0.000000 1.953510 0.000000 
#    z 0.000000 0.000000 1.744360 
# 
# From -- ./inp_files/14975.got.cif
#   From: 2010.05.17/outbox.cif.g08.bks.cpg/sg21_8_cif.got.tgz:14975.got - 2010.06.03 23:14:55.
