data_PCOD9323910
_publ_section_title
;
Structure prediction by ZEFSAII (Michael W. Deem and Ramdas Pophale) SiO2 
 PCOD9323910
Probable space group: C 2 2 2
;
_chemical_formula_sum "Si O2"
_cell_formula_units_Z 64
_cell_length_a 33.339302
_cell_length_b 9.422313
_cell_length_c 10.968945
_cell_angle_alpha 90.000000
_cell_angle_beta 90.000000
_cell_angle_gamma 90.000000
_cell_volume 3445.711314
_symmetry_space_group_name_H-M "C 2 2 2"
_symmetry_group_IT_number 21
_symmetry_cell_setting 'orthorhombic'
loop_
_space_group_symop_operation_xyz
x,y,z
-x,-y,z
x,-y,-z
-x,y,-z
1/2+x,1/2+y,z
1/2-x,1/2-y,z
1/2+x,1/2-y,-z
1/2-x,1/2+y,-z
loop_
_atom_site_type_symbol
_atom_site_label
_atom_site_fract_x
_atom_site_fract_y
_atom_site_fract_z
Si Si1 0.704695 0.701177 0.604731
Si Si2 0.688778 0.628601 0.331559
Si Si3 0.143980 0.656051 0.008919
Si Si4 0.614174 0.176564 0.742661
Si Si5 0.449850 0.660772 0.359700
Si Si6 0.785132 0.849768 0.059083
Si Si7 0.959327 0.838043 0.348204
Si Si8 0.126153 0.352395 0.711868
O O1 0.750000 0.750000 0.642520
O O2 0.703767 0.699824 0.456875
O O3 0.692313 0.540707 0.644713
O O4 0.668528 0.796901 0.657865
O O5 0.645798 0.703737 0.303984
O O6 0.712589 0.650846 0.205729
O O7 0.116561 0.663596 0.889181
O O8 0.174418 0.783144 0.991766
O O9 0.164480 0.500000 0.000000
O O10 0.125580 0.665861 0.141869
O O11 0.570547 0.224803 0.705261
O O12 0.623568 0.021239 0.688261
O O13 0.445286 0.498066 0.313969
O O14 0.494782 0.696851 0.313767
O O15 0.454903 0.661099 0.505698
O O16 0.412129 0.761625 0.333229
O O17 0.750000 0.750000 0.016971
O O18 0.779177 0.000000 0.000000
#
# Coordination Sequence:
#
# PCOD9323910 Si02
#       8
#     8   8   8   8   8   8   8   8
#     4  11  24  39  58  81 112 151 189 230 280 340
#     4  10  23  40  56  80 113 148 183 230 285 335
#     4   9  21  39  54  74 107 146 185 227 276 330
#     4  10  21  37  59  82 112 148 184 231 282 332
#     4   9  19  35  59  84 114 147 182 225 271 338
#     4  11  22  36  57  80 104 139 187 236 279 325
#     4   9  18  36  58  85 114 147 182 220 278 336
#     4  11  22  37  58  84 111 146 190 232 280 333
#
# _framework density 18.573813999999999
#
# number of rings (size 3 to 8) (size 9 to 14) (size 15 to 20)
#    0.000    2.000    0.000    3.750    0.000   12.500 
#    0.000    1.875    0.000    3.750    0.000    0.000 
#    0.000    0.000    0.000    0.000    0.000    0.000 
#
# Total GULP energy -178315.862044 kJ/mol
# GULP energy per Si atom -5572.370689 kJ/mol
# Density = 1.853154 g / cm^3
# Si number density = 18.573814 Si / 1000 Ang^3
#
#
#
# Elastic Constant Matrix: (Units=GPa)
#
#
# Indices 1 2 3 4 5 6 
#
# 1 135.0475 90.9762 41.8898 0.0000 0.0000 0.0000
# 2 90.9762 121.3492 36.0705 0.0000 0.0000 0.0000
# 3 41.8898 36.0705 39.9829 0.0000 0.0000 0.0000
# 4 0.0000 0.0000 0.0000 26.2556 0.0000 0.0000
# 5 0.0000 0.0000 0.0000 0.0000 20.8402 0.0000
# 6 0.0000 0.0000 0.0000 0.0000 0.0000 22.5689
#
#
#
# Elastic Compliance Matrix: (Units=1/GPa)
#
#
# Indices 1 2 3 4 5 6 
#
# 1 0.016861 -0.010098 -0.008556 0.000000 0.000000 0.000000
# 2 -0.010098 0.017308 -0.005035 0.000000 0.000000 0.000000
# 3 -0.008556 -0.005035 0.038516 0.000000 0.000000 0.000000
# 4 0.000000 0.000000 0.000000 0.038087 0.000000 0.000000
# 5 0.000000 0.000000 0.000000 0.000000 0.047984 0.000000
# 6 0.000000 0.000000 0.000000 0.000000 0.000000 0.044309
#
#
# Mechanical properties :
#
#
# Convention : Reuss Voigt Hill
#
# Bulk Modulus (GPa) = 39.51164 70.47250 54.99207
# Shear Modulus (GPa) = 19.31418 22.42913 20.87166
#
# Velocity S-wave (km/s) = 3.22819 3.47878 3.35582
# Velocity P-wave (km/s) = 5.93413 7.35935 6.68483
#
# Compressibility (1/GPa) = 0.02530900
#
# Stress axis : x y z
#
# Youngs Moduli (GPa) = 59.30833 57.77828 25.96307
#
# Poissons Ratio (x) = 0.58343 0.22213
# Poissons Ratio (y) = 0.59888 0.13072
# Poissons Ratio (z) = 0.50741 0.29089
#
# Static dielectric constant tensor:
#      x y z
#    x 1.637030 0.000000 0.000000 
#    y 0.000000 1.652130 0.000000 
#    z 0.000000 0.000000 1.677000 
# 
# From -- ./inp_files/28089.got.cif
#   From: 2010.05.17/outbox.cif.g08.bks.cpg/sg21_15_cif.got.tgz:28089.got - 2010.06.03 23:14:55.
