data_PCOD9323404
_publ_section_title
;
Structure prediction by ZEFSAII (Michael W. Deem and Ramdas Pophale) SiO2 
 PCOD9323404
Probable space group: C 2 2 2
;
_chemical_formula_sum "Si O2"
_cell_formula_units_Z 48
_cell_length_a 29.702135
_cell_length_b 8.390021
_cell_length_c 9.782035
_cell_angle_alpha 90.000000
_cell_angle_beta 90.000000
_cell_angle_gamma 90.000000
_cell_volume 2437.698151
_symmetry_space_group_name_H-M "C 2 2 2"
_symmetry_group_IT_number 21
_symmetry_cell_setting 'orthorhombic'
loop_
_space_group_symop_operation_xyz
x,y,z
-x,-y,z
x,-y,-z
-x,y,-z
1/2+x,1/2+y,z
1/2-x,1/2-y,z
1/2+x,1/2-y,-z
1/2-x,1/2+y,-z
loop_
_atom_site_type_symbol
_atom_site_label
_atom_site_fract_x
_atom_site_fract_y
_atom_site_fract_z
Si Si1 0.699589 0.687248 0.292846
Si Si2 0.456116 0.671033 0.573684
Si Si3 0.066788 0.903390 0.867808
Si Si4 0.862485 0.313227 0.481169
Si Si5 0.142084 0.679482 0.950580
Si Si6 0.652469 0.379378 0.212110
O O1 0.750000 0.750000 0.296316
O O2 0.674718 0.715442 0.435444
O O3 0.671814 0.791701 0.182990
O O4 0.691657 0.502859 0.252326
O O5 0.449140 0.500000 0.500000
O O6 0.500000 0.742257 0.500000
O O7 0.462717 0.640671 0.735742
O O8 0.411164 0.770336 0.544843
O O9 0.091924 0.744762 0.920556
O O10 0.107786 0.012177 0.808770
O O11 0.049129 0.000000 0.000000
O O12 0.854277 0.500000 0.500000
O O13 0.858776 0.250738 0.326797
O O14 0.141937 0.500000 0.000000
O O15 0.161405 0.792708 0.069640
#
# Coordination Sequence:
#
# PCOD9323404 Si02
#       6
#     8   8   8   8   8   8
#     4  11  23  40  61  89 123 167 218 267 315 375
#     4  11  21  39  66  94 121 164 212 262 318 384
#     4   9  18  36  63  89 122 162 209 253 314 377
#     4  12  23  39  62  89 129 168 210 265 321 378
#     4  10  20  36  61  93 123 169 206 256 321 379
#     4  10  20  38  63  86 120 170 205 257 315 371
#
# _framework density 19.690708000000001
#
# number of rings (size 3 to 8) (size 9 to 14) (size 15 to 20)
#    0.000    1.500    5.000    3.000    0.000    3.000 
#    0.000    4.167    0.000    0.000    0.000    1.167 
#    0.000    0.000    0.000    0.000    0.000    0.000 
#
# Total GULP energy -134042.179770 kJ/mol
# GULP energy per Si atom -5585.090824 kJ/mol
# Density = 1.964589 g / cm^3
# Si number density = 19.690708 Si / 1000 Ang^3
#
#
#
# Elastic Constant Matrix: (Units=GPa)
#
#
# Indices 1 2 3 4 5 6 
#
# 1 81.7112 0.9645 13.0486 0.0000 0.0000 0.0000
# 2 0.9645 72.3460 -10.3329 0.0000 0.0000 0.0000
# 3 13.0486 -10.3329 96.1079 0.0000 0.0000 0.0000
# 4 0.0000 0.0000 0.0000 28.9311 0.0000 0.0000
# 5 0.0000 0.0000 0.0000 0.0000 17.1497 0.0000
# 6 0.0000 0.0000 0.0000 0.0000 0.0000 11.0930
#
#
#
# Elastic Compliance Matrix: (Units=1/GPa)
#
#
# Indices 1 2 3 4 5 6 
#
# 1 0.012522 -0.000416 -0.001745 0.000000 0.000000 0.000000
# 2 -0.000416 0.014052 0.001567 0.000000 0.000000 0.000000
# 3 -0.001745 0.001567 0.010810 0.000000 0.000000 0.000000
# 4 0.000000 0.000000 0.000000 0.034565 0.000000 0.000000
# 5 0.000000 0.000000 0.000000 0.000000 0.058310 0.000000
# 6 0.000000 0.000000 0.000000 0.000000 0.000000 0.090147
#
#
# Mechanical properties :
#
#
# Convention : Reuss Voigt Hill
#
# Bulk Modulus (GPa) = 27.62690 28.61394 28.12042
# Shear Modulus (GPa) = 21.39872 27.86709 24.63291
#
# Velocity S-wave (km/s) = 3.30015 3.76605 3.54077
# Velocity P-wave (km/s) = 5.34624 5.78568 5.57029
#
# Compressibility (1/GPa) = 0.03619660
#
# Stress axis : x y z
#
# Youngs Moduli (GPa) = 79.86093 71.16498 92.50377
#
# Poissons Ratio (x) = 0.02961 0.16140
# Poissons Ratio (y) = 0.03323 -0.14498
# Poissons Ratio (z) = 0.13934 -0.11153
#
# Static dielectric constant tensor:
#      x y z
#    x 1.696260 0.000000 0.000000 
#    y 0.000000 1.681640 0.000000 
#    z 0.000000 0.000000 1.718870 
# 
# From -- ./inp_files/11499.got.cif
#   From: 2010.05.17/outbox.cif.g08.bks.cpg/sg21_6_cif.got.tgz:11499.got - 2010.06.03 23:14:55.
