data_PCOD9323750
_publ_section_title
;
Structure prediction by ZEFSAII (Michael W. Deem and Ramdas Pophale) SiO2 
 PCOD9323750
Probable space group: C 2 2 2
;
_chemical_formula_sum "Si O2"
_cell_formula_units_Z 56
_cell_length_a 21.160419
_cell_length_b 14.365471
_cell_length_c 9.121842
_cell_angle_alpha 90.000000
_cell_angle_beta 90.000000
_cell_angle_gamma 90.000000
_cell_volume 2772.851926
_symmetry_space_group_name_H-M "C 2 2 2"
_symmetry_group_IT_number 21
_symmetry_cell_setting 'orthorhombic'
loop_
_space_group_symop_operation_xyz
x,y,z
-x,-y,z
x,-y,-z
-x,y,-z
1/2+x,1/2+y,z
1/2-x,1/2-y,z
1/2+x,1/2-y,-z
1/2-x,1/2+y,-z
loop_
_atom_site_type_symbol
_atom_site_label
_atom_site_fract_x
_atom_site_fract_y
_atom_site_fract_z
Si Si1 0.436916 0.213009 0.060026
Si Si2 0.096169 0.912820 0.897788
Si Si3 0.343149 0.915436 0.098193
Si Si4 0.067476 0.694360 0.587074
Si Si5 0.757471 0.139177 0.889368
Si Si6 0.570480 0.405445 0.564368
Si Si7 0.672229 0.959359 0.358632
O O1 0.433285 0.321950 0.030104
O O2 0.438377 0.201271 0.235380
O O3 0.500000 0.167870 0.000000
O O4 0.380123 0.171360 0.965881
O O5 0.170550 0.891203 0.875612
O O6 0.067630 0.922929 0.737176
O O7 0.087050 0.000000 0.000000
O O8 0.350551 0.951872 0.261836
O O9 0.271571 0.897758 0.043305
O O10 0.368711 0.000000 0.000000
O O11 0.094104 0.797875 0.541368
O O12 0.116818 0.608156 0.578960
O O13 0.000000 0.680269 0.500000
O O14 0.750000 0.250000 0.883394
O O15 0.715336 0.096596 0.757345
O O16 0.602093 0.500000 0.500000
O O17 0.500000 0.401864 0.500000
O O18 0.707379 0.000000 0.500000
#
# Coordination Sequence:
#
# PCOD9323750 Si02
#       7
#     8   8   8   8   8   8   8
#     4  11  23  39  62  96 129 173 215 267 326 391
#     4  11  23  39  66 100 123 166 224 276 332 391
#     4  10  20  42  66  91 126 170 218 268 320 393
#     4  10  21  40  60  90 131 177 218 263 326 399
#     4  11  20  44  74  89 127 172 221 277 335 389
#     4   9  20  40  62  86 128 177 217 264 335 393
#     4  11  24  41  62  97 136 169 214 274 336 390
#
# _framework density 20.195813000000001
#
# number of rings (size 3 to 8) (size 9 to 14) (size 15 to 20)
#    0.000    1.571    4.286    2.143    2.000    7.143 
#    0.000    0.714    0.000    0.000    0.000    0.000 
#    0.000    0.000    0.000    0.000    0.000    0.000 
#
# Total GULP energy -155969.512000 kJ/mol
# GULP energy per Si atom -5570.339714 kJ/mol
# Density = 2.014985 g / cm^3
# Si number density = 20.195813 Si / 1000 Ang^3
#
#
#
# Elastic Constant Matrix: (Units=GPa)
#
#
# Indices 1 2 3 4 5 6 
#
# 1 83.6630 21.2042 27.6436 0.0000 0.0000 0.0000
# 2 21.2042 112.1868 65.2984 0.0000 0.0000 0.0000
# 3 27.6436 65.2984 100.5677 0.0000 0.0000 0.0000
# 4 0.0000 0.0000 0.0000 34.1058 0.0000 0.0000
# 5 0.0000 0.0000 0.0000 0.0000 19.7168 0.0000
# 6 0.0000 0.0000 0.0000 0.0000 0.0000 30.0691
#
#
#
# Elastic Compliance Matrix: (Units=1/GPa)
#
#
# Indices 1 2 3 4 5 6 
#
# 1 0.013173 -0.000614 -0.003222 0.000000 0.000000 0.000000
# 2 -0.000614 0.014358 -0.009153 0.000000 0.000000 0.000000
# 3 -0.003222 -0.009153 0.016773 0.000000 0.000000 0.000000
# 4 0.000000 0.000000 0.000000 0.029321 0.000000 0.000000
# 5 0.000000 0.000000 0.000000 0.000000 0.050718 0.000000
# 6 0.000000 0.000000 0.000000 0.000000 0.000000 0.033257
#
#
# Mechanical properties :
#
#
# Convention : Reuss Voigt Hill
#
# Bulk Modulus (GPa) = 54.57513 58.30111 56.43812
# Shear Modulus (GPa) = 26.35930 28.92975 27.64453
#
# Velocity S-wave (km/s) = 3.61666 3.78890 3.70378
# Velocity P-wave (km/s) = 6.67247 6.93337 6.80417
#
# Compressibility (1/GPa) = 0.01832336
#
# Stress axis : x y z
#
# Youngs Moduli (GPa) = 75.91259 69.64941 59.62125
#
# Poissons Ratio (x) = 0.04280 0.19210
# Poissons Ratio (y) = 0.04664 0.54574
# Poissons Ratio (z) = 0.24459 0.63753
#
# Static dielectric constant tensor:
#      x y z
#    x 1.740930 0.000000 0.000000 
#    y 0.000000 1.779750 0.000000 
#    z 0.000000 0.000000 1.658720 
# 
# From -- ./inp_files/17676.got.cif
#   From: 2010.05.17/outbox.cif.g08.bks.cpg/sg21_9_cif.got.tgz:17676.got - 2010.06.03 23:14:55.
