data_PCOD9323845
_publ_section_title
;
Structure prediction by ZEFSAII (Michael W. Deem and Ramdas Pophale) SiO2 
 PCOD9323845
Probable space group: C 2 2 2
;
_chemical_formula_sum "Si O2"
_cell_formula_units_Z 64
_cell_length_a 8.896449
_cell_length_b 25.174587
_cell_length_c 14.232075
_cell_angle_alpha 90.000000
_cell_angle_beta 90.000000
_cell_angle_gamma 90.000000
_cell_volume 3187.478556
_symmetry_space_group_name_H-M "C 2 2 2"
_symmetry_group_IT_number 21
_symmetry_cell_setting 'orthorhombic'
loop_
_space_group_symop_operation_xyz
x,y,z
-x,-y,z
x,-y,-z
-x,y,-z
1/2+x,1/2+y,z
1/2-x,1/2-y,z
1/2+x,1/2-y,-z
1/2-x,1/2+y,-z
loop_
_atom_site_type_symbol
_atom_site_label
_atom_site_fract_x
_atom_site_fract_y
_atom_site_fract_z
Si Si1 0.111988 0.456405 0.839457
Si Si2 0.327571 0.498475 0.682697
Si Si3 0.388503 0.791784 0.408278
Si Si4 0.157809 0.119165 0.372999
Si Si5 0.862240 0.298093 0.739426
Si Si6 0.913105 0.627995 0.100641
Si Si7 0.830167 0.935827 0.997463
Si Si8 0.326591 0.385035 0.594731
O O1 0.198775 0.485834 0.757562
O O2 0.240836 0.428943 0.901283
O O3 0.000000 0.500000 0.887435
O O4 0.002341 0.407591 0.823110
O O5 0.500000 0.500000 0.722210
O O6 0.307276 0.557038 0.642382
O O7 0.316657 0.448558 0.611361
O O8 0.500000 0.793683 0.500000
O O9 0.250000 0.750000 0.423089
O O10 0.493753 0.779310 0.319731
O O11 0.314330 0.848563 0.380038
O O12 0.274716 0.155197 0.317485
O O13 0.163069 0.127581 0.484444
O O14 0.981123 0.129954 0.351085
O O15 0.750000 0.250000 0.742014
O O16 0.891251 0.317698 0.845253
O O17 0.763165 0.594653 0.076731
O O18 0.000000 0.631414 0.000000
O O19 0.000000 0.917504 0.000000
O O20 0.829242 0.000000 0.000000
#
# Coordination Sequence:
#
# PCOD9323845 Si02
#       8
#     8   8   8   8   8   8   8   8
#     4  11  20  34  55  86 124 165 209 258 320 380
#     4  10  22  36  58  91 131 177 216 261 320 395
#     4  12  25  42  69  98 129 169 224 283 331 384
#     4  10  21  38  64  90 132 174 219 264 322 392
#     4  12  25  45  68  97 125 173 223 280 333 396
#     4  10  23  43  66  92 131 169 212 272 339 401
#     4  10  21  35  60  91 124 163 209 263 323 396
#     4  10  21  39  61  92 131 173 216 265 324 388
#
# _framework density 20.078567
#
# number of rings (size 3 to 8) (size 9 to 14) (size 15 to 20)
#    0.000    1.375    2.500    3.000    3.500    2.500 
#    0.000    3.750    0.000    0.000    0.000    0.000 
#    0.000    0.000    0.000    0.000    0.000    0.000 
#
# Total GULP energy -178345.921145 kJ/mol
# GULP energy per Si atom -5573.310036 kJ/mol
# Density = 2.003287 g / cm^3
# Si number density = 20.078567 Si / 1000 Ang^3
#
#
#
# Elastic Constant Matrix: (Units=GPa)
#
#
# Indices 1 2 3 4 5 6 
#
# 1 127.1546 45.4457 40.4937 0.0000 0.0000 0.0000
# 2 45.4457 84.7915 14.6011 0.0000 0.0000 0.0000
# 3 40.4937 14.6011 58.8573 0.0000 0.0000 0.0000
# 4 0.0000 0.0000 0.0000 17.2545 0.0000 0.0000
# 5 0.0000 0.0000 0.0000 0.0000 18.7783 0.0000
# 6 0.0000 0.0000 0.0000 0.0000 0.0000 30.8827
#
#
#
# Elastic Compliance Matrix: (Units=1/GPa)
#
#
# Indices 1 2 3 4 5 6 
#
# 1 0.011925 -0.005201 -0.006914 0.000000 0.000000 0.000000
# 2 -0.005201 0.014588 -0.000041 0.000000 0.000000 0.000000
# 3 -0.006914 -0.000041 0.021757 0.000000 0.000000 0.000000
# 4 0.000000 0.000000 0.000000 0.057956 0.000000 0.000000
# 5 0.000000 0.000000 0.000000 0.000000 0.053253 0.000000
# 6 0.000000 0.000000 0.000000 0.000000 0.000000 0.032381
#
#
# Mechanical properties :
#
#
# Convention : Reuss Voigt Hill
#
# Bulk Modulus (GPa) = 41.73826 52.43158 47.08492
# Shear Modulus (GPa) = 22.30567 24.73398 23.51983
#
# Velocity S-wave (km/s) = 3.33666 3.51359 3.42627
# Velocity P-wave (km/s) = 5.97302 6.52919 6.25729
#
# Compressibility (1/GPa) = 0.02395883
#
# Stress axis : x y z
#
# Youngs Moduli (GPa) = 83.85603 68.54860 45.96146
#
# Poissons Ratio (x) = 0.35652 0.31779
# Poissons Ratio (y) = 0.43613 0.00187
# Poissons Ratio (z) = 0.57980 0.00279
#
# Static dielectric constant tensor:
#      x y z
#    x 1.763350 0.000000 0.000000 
#    y 0.000000 1.692490 0.000000 
#    z 0.000000 0.000000 1.723570 
# 
# From -- ./inp_files/30902.got.cif
#   From: 2010.05.17/outbox.cif.g08.bks.cpg/sg21_16_cif.got.tgz:30902.got - 2010.06.03 23:14:55.
