data_PCOD9323185
_publ_section_title
;
Structure prediction by ZEFSAII (Michael W. Deem and Ramdas Pophale) SiO2 
 PCOD9323185
Probable space group: C 2 2 2
;
_chemical_formula_sum "Si O2"
_cell_formula_units_Z 48
_cell_length_a 30.111289
_cell_length_b 5.465600
_cell_length_c 16.084646
_cell_angle_alpha 90.000000
_cell_angle_beta 90.000000
_cell_angle_gamma 90.000000
_cell_volume 2647.150901
_symmetry_space_group_name_H-M "C 2 2 2"
_symmetry_group_IT_number 21
_symmetry_cell_setting 'orthorhombic'
loop_
_space_group_symop_operation_xyz
x,y,z
-x,-y,z
x,-y,-z
-x,y,-z
1/2+x,1/2+y,z
1/2-x,1/2-y,z
1/2+x,1/2-y,-z
1/2-x,1/2+y,-z
loop_
_atom_site_type_symbol
_atom_site_label
_atom_site_fract_x
_atom_site_fract_y
_atom_site_fract_z
Si Si1 0.800591 0.691353 0.717392
Si Si2 0.590818 0.733107 0.282788
Si Si3 0.500000 0.500000 0.682000
Si Si4 0.750000 0.750000 0.052482
Si Si5 0.859177 0.912665 0.585065
Si Si6 0.324493 0.305169 0.191120
Si Si7 0.553732 0.119094 0.411837
O O1 0.750000 0.750000 0.699335
O O2 0.829368 0.723224 0.634969
O O3 0.805214 0.419647 0.753567
O O4 0.816394 0.914553 0.778156
O O5 0.545996 0.569812 0.271461
O O6 0.625296 0.618769 0.349806
O O7 0.622120 0.746631 0.201051
O O8 0.572552 0.969333 0.331891
O O9 0.512814 0.725314 0.622918
O O10 0.705166 0.722549 0.108222
O O11 0.753975 0.500000 0.000000
O O12 0.905743 0.793203 0.562940
O O13 0.837420 0.000000 0.500000
O O14 0.544577 0.000000 0.500000
#
# Coordination Sequence:
#
# PCOD9323185 Si02
#       7
#     8   8   4   4   8   8   8
#     4  11  20  37  60  84 115 166 206 249 303 361
#     4  10  21  36  55  76 113 161 204 253 308 358
#     4  10  24  35  48  84 111 152 222 264 313 354
#     4  12  24  42  70 108 134 150 182 240 310 398
#     4  10  20  34  49  75 108 156 215 264 304 351
#     4  11  22  40  64  90 126 161 192 238 306 380
#     4  11  20  35  51  72 115 157 207 271 319 352
#
# _framework density 18.132702999999999
#
# number of rings (size 3 to 8) (size 9 to 14) (size 15 to 20)
#    0.000    1.333    5.000    1.500    0.000    2.000 
#    0.000    4.167    0.000    0.000    0.000    0.583 
#    0.000    0.000    0.000    0.000    0.000    0.000 
#
# Total GULP energy -133608.078573 kJ/mol
# GULP energy per Si atom -5567.003274 kJ/mol
# Density = 1.809143 g / cm^3
# Si number density = 18.132703 Si / 1000 Ang^3
#
#
#
# Elastic Constant Matrix: (Units=GPa)
#
#
# Indices 1 2 3 4 5 6 
#
# 1 109.7893 14.3384 38.0260 0.0000 0.0000 0.0000
# 2 14.3384 61.7718 20.0163 0.0000 0.0000 0.0000
# 3 38.0260 20.0163 73.5772 0.0000 0.0000 0.0000
# 4 0.0000 0.0000 0.0000 21.6802 0.0000 0.0000
# 5 0.0000 0.0000 0.0000 0.0000 2.9256 0.0000
# 6 0.0000 0.0000 0.0000 0.0000 0.0000 34.5835
#
#
#
# Elastic Compliance Matrix: (Units=1/GPa)
#
#
# Indices 1 2 3 4 5 6 
#
# 1 0.011129 -0.000789 -0.005537 0.000000 0.000000 0.000000
# 2 -0.000789 0.017810 -0.004437 0.000000 0.000000 0.000000
# 3 -0.005537 -0.004437 0.017660 0.000000 0.000000 0.000000
# 4 0.000000 0.000000 0.000000 0.046125 0.000000 0.000000
# 5 0.000000 0.000000 0.000000 0.000000 0.341813 0.000000
# 6 0.000000 0.000000 0.000000 0.000000 0.000000 0.028916
#
#
# Mechanical properties :
#
#
# Convention : Reuss Voigt Hill
#
# Bulk Modulus (GPa) = 39.88513 43.32217 41.60365
# Shear Modulus (GPa) = 10.13507 23.35503 16.74505
#
# Velocity S-wave (km/s) = 2.36675 3.59277 3.04217
# Velocity P-wave (km/s) = 5.43256 6.41516 5.94420
#
# Compressibility (1/GPa) = 0.02507200
#
# Stress axis : x y z
#
# Youngs Moduli (GPa) = 89.85372 56.14954 56.62532
#
# Poissons Ratio (x) = 0.04431 0.31354
# Poissons Ratio (y) = 0.07090 0.25126
# Poissons Ratio (z) = 0.49753 0.24915
#
# Static dielectric constant tensor:
#      x y z
#    x 1.658620 0.000000 0.000000 
#    y 0.000000 1.716150 0.000000 
#    z 0.000000 0.000000 1.649800 
# 
# From -- ./inp_files/33822.got.cif
#   From: 2010.05.17/outbox.cif.g08.bks.cpg/sg21_17_cif.got.tgz:33822.got - 2010.06.03 23:14:55.
