data_PCOD9323064
_publ_section_title
;
Structure prediction by ZEFSAII (Michael W. Deem and Ramdas Pophale) SiO2 
 PCOD9323064
Probable space group: C 2 2 2
;
_chemical_formula_sum "Si O2"
_cell_formula_units_Z 58
_cell_length_a 9.319665
_cell_length_b 16.320744
_cell_length_c 17.528757
_cell_angle_alpha 90.000000
_cell_angle_beta 90.000000
_cell_angle_gamma 90.000000
_cell_volume 2666.191717
_symmetry_space_group_name_H-M "C 2 2 2"
_symmetry_group_IT_number 21
_symmetry_cell_setting 'orthorhombic'
loop_
_space_group_symop_operation_xyz
x,y,z
-x,-y,z
x,-y,-z
-x,y,-z
1/2+x,1/2+y,z
1/2-x,1/2-y,z
1/2+x,1/2-y,-z
1/2-x,1/2+y,-z
loop_
_atom_site_type_symbol
_atom_site_label
_atom_site_fract_x
_atom_site_fract_y
_atom_site_fract_z
Si Si1 0.442145 0.091858 0.328800
Si Si2 0.246301 0.103989 0.061824
Si Si3 0.451705 0.175305 0.167197
Si Si4 0.500000 0.000000 0.000000
Si Si5 0.975190 0.870590 0.187757
Si Si6 0.079586 0.268145 0.578889
Si Si7 0.339396 0.335600 0.340428
Si Si8 0.746402 0.651143 0.891472
O O1 0.414948 0.122950 0.242004
O O2 0.556357 0.155738 0.363888
O O3 0.289994 0.108009 0.371889
O O4 0.500000 0.000000 0.331636
O O5 0.329723 0.176464 0.103836
O O6 0.380005 0.042542 0.053618
O O7 0.115795 0.089200 0.119143
O O8 0.200985 0.123035 0.975741
O O9 0.474267 0.270590 0.186084
O O10 0.591813 0.134476 0.130866
O O11 0.904745 0.885131 0.268936
O O12 0.140636 0.887645 0.170426
O O13 0.250000 0.250000 0.570585
O O14 0.000000 0.289420 0.500000
O O15 0.977775 0.194644 0.611801
O O16 0.250000 0.250000 0.322875
O O17 0.750000 0.750000 0.892724
#
# Coordination Sequence:
#
# PCOD9323064 Si02
#       8
#     8   8   8   2   8   8   8   8
#     4  11  24  40  68 103 144 186 230 275 350 421
#     4  12  22  39  56  78 117 174 224 284 342 407
#     4  11  20  36  63  88 127 167 222 277 343 400
#     4  12  28  40  58  76 124 184 240 282 364 436
#     4  11  20  35  63  91 121 160 219 296 337 391
#     4  11  24  45  78 108 140 178 229 283 337 408
#     4  10  19  39  65  99 136 177 229 278 335 408
#     4  10  22  34  57  89 117 151 219 284 350 396
#
# _framework density 21.753874
#
# number of rings (size 3 to 8) (size 9 to 14) (size 15 to 20)
#    0.000    1.103    5.517    2.897    2.897    2.483 
#    0.000    2.069    0.000    0.828    0.000    0.000 
#    0.000    0.000    0.000    0.000    0.000    0.000 
#
# Total GULP energy -161568.342689 kJ/mol
# GULP energy per Si atom -5571.322162 kJ/mol
# Density = 2.170436 g / cm^3
# Si number density = 21.753874 Si / 1000 Ang^3
#
#
#
# Elastic Constant Matrix: (Units=GPa)
#
#
# Indices 1 2 3 4 5 6 
#
# 1 120.8195 39.2538 19.8789 0.0000 0.0000 0.0000
# 2 39.2538 73.1481 -3.5710 0.0000 0.0000 0.0000
# 3 19.8789 -3.5710 50.1977 0.0000 0.0000 0.0000
# 4 0.0000 0.0000 0.0000 -0.8185 0.0000 0.0000
# 5 0.0000 0.0000 0.0000 0.0000 36.0705 0.0000
# 6 0.0000 0.0000 0.0000 0.0000 0.0000 8.5500
#
#
#
# Elastic Compliance Matrix: (Units=1/GPa)
#
#
# Indices 1 2 3 4 5 6 
#
# 1 0.011079 -0.006181 -0.004827 0.000000 0.000000 0.000000
# 2 -0.006181 0.017167 0.003669 0.000000 0.000000 0.000000
# 3 -0.004827 0.003669 0.022094 0.000000 0.000000 0.000000
# 4 0.000000 0.000000 0.000000 -1.221783 0.000000 0.000000
# 5 0.000000 0.000000 0.000000 0.000000 0.027723 0.000000
# 6 0.000000 0.000000 0.000000 0.000000 0.000000 0.116959
#
#
# Mechanical properties :
#
#
# Convention : Reuss Voigt Hill
#
# Bulk Modulus (GPa) = 28.04144 39.47651 33.75898
# Shear Modulus (GPa) = -4.99903 21.33399 8.16748
#
# Velocity S-wave (km/s) = -1.51756 3.13501 1.93975
# Velocity P-wave (km/s) = 3.13810 5.59380 4.53532
#
# Compressibility (1/GPa) = 0.03566150
#
# Stress axis : x y z
#
# Youngs Moduli (GPa) = 90.25841 58.25109 45.26138
#
# Poissons Ratio (x) = 0.36006 0.21849
# Poissons Ratio (y) = 0.55790 -0.16607
# Poissons Ratio (z) = 0.43570 -0.21373
#
# Static dielectric constant tensor:
#      x y z
#    x 2.096860 0.000000 0.000000 
#    y 0.000000 1.856460 0.000000 
#    z 0.000000 0.000000 1.895300 
# 
# From -- ./inp_files/35814.got.cif
#   From: 2010.05.17/outbox.cif.g08.bks.cpg/sg21_18_cif.got.tgz:35814.got - 2010.06.03 23:14:55.
