data_PCOD9323923
_publ_section_title
;
Structure prediction by ZEFSAII (Michael W. Deem and Ramdas Pophale) SiO2 
 PCOD9323923
Probable space group: C 2 2 2
;
_chemical_formula_sum "Si O2"
_cell_formula_units_Z 58
_cell_length_a 12.528972
_cell_length_b 28.504069
_cell_length_c 8.302558
_cell_angle_alpha 90.000000
_cell_angle_beta 90.000000
_cell_angle_gamma 90.000000
_cell_volume 2965.064994
_symmetry_space_group_name_H-M "C 2 2 2"
_symmetry_group_IT_number 21
_symmetry_cell_setting 'orthorhombic'
loop_
_space_group_symop_operation_xyz
x,y,z
-x,-y,z
x,-y,-z
-x,y,-z
1/2+x,1/2+y,z
1/2-x,1/2-y,z
1/2+x,1/2-y,-z
1/2-x,1/2+y,-z
loop_
_atom_site_type_symbol
_atom_site_label
_atom_site_fract_x
_atom_site_fract_y
_atom_site_fract_z
Si Si1 0.315659 0.639199 0.939281
Si Si2 0.430488 0.660207 0.266493
Si Si3 0.790770 0.297706 0.680505
Si Si4 0.994155 0.259503 0.182468
Si Si5 0.000000 0.000000 0.500000
Si Si6 0.116181 0.083444 0.333520
Si Si7 0.784083 0.373721 0.432886
Si Si8 0.096878 0.358979 0.872714
O O1 0.297596 0.678554 0.798569
O O2 0.341832 0.591275 0.846619
O O3 0.399110 0.650218 0.079898
O O4 0.201562 0.636141 0.020968
O O5 0.464325 0.714285 0.286471
O O6 0.520845 0.623659 0.329796
O O7 0.317714 0.651818 0.351937
O O8 0.750000 0.250000 0.599405
O O9 0.831539 0.336516 0.557637
O O10 0.890959 0.280769 0.781289
O O11 0.917138 0.304734 0.183970
O O12 0.000000 0.242475 0.000000
O O13 0.934233 0.965241 0.385297
O O14 0.217414 0.090444 0.453845
O O15 0.870488 0.386051 0.294325
O O16 0.000000 0.369648 0.000000
#
# Coordination Sequence:
#
# PCOD9323923 Si02
#       8
#     8   8   8   8   2   8   8   8
#     4  10  21  37  61  81 127 163 210 256 319 367
#     4  11  21  38  59  83 128 170 208 257 322 372
#     4  11  21  33  49  82 122 168 223 263 297 359
#     4  11  20  34  53  82 122 174 219 257 282 350
#     4  12  24  44  74  92 134 144 206 260 340 428
#     4  11  22  43  62  95 117 160 192 261 333 396
#     4  10  23  37  56  82 123 161 199 256 331 366
#     4  10  21  39  57  86 121 167 221 255 284 354
#
# _framework density 19.561121
#
# number of rings (size 3 to 8) (size 9 to 14) (size 15 to 20)
#    0.000    1.379    4.138    3.724    1.931    1.655 
#    0.000    1.379    0.000    0.000    0.000    2.897 
#    0.000    0.000    0.000    0.000    0.000    0.000 
#
# Total GULP energy -161464.468299 kJ/mol
# GULP energy per Si atom -5567.740286 kJ/mol
# Density = 1.951660 g / cm^3
# Si number density = 19.561121 Si / 1000 Ang^3
#
#
#
# Elastic Constant Matrix: (Units=GPa)
#
#
# Indices 1 2 3 4 5 6 
#
# 1 72.1913 28.4032 30.8319 0.0000 0.0000 0.0000
# 2 28.4032 81.9194 26.9356 0.0000 0.0000 0.0000
# 3 30.8319 26.9356 71.9105 0.0000 0.0000 0.0000
# 4 0.0000 0.0000 0.0000 18.4323 0.0000 0.0000
# 5 0.0000 0.0000 0.0000 0.0000 39.2204 0.0000
# 6 0.0000 0.0000 0.0000 0.0000 0.0000 8.6432
#
#
#
# Elastic Compliance Matrix: (Units=1/GPa)
#
#
# Indices 1 2 3 4 5 6 
#
# 1 0.018176 -0.004265 -0.006196 0.000000 0.000000 0.000000
# 2 -0.004265 0.014922 -0.003761 0.000000 0.000000 0.000000
# 3 -0.006196 -0.003761 0.017971 0.000000 0.000000 0.000000
# 4 0.000000 0.000000 0.000000 0.054253 0.000000 0.000000
# 5 0.000000 0.000000 0.000000 0.000000 0.025497 0.000000
# 6 0.000000 0.000000 0.000000 0.000000 0.000000 0.115698
#
#
# Mechanical properties :
#
#
# Convention : Reuss Voigt Hill
#
# Bulk Modulus (GPa) = 44.19488 44.26252 44.22870
# Shear Modulus (GPa) = 17.69895 22.58254 20.14075
#
# Velocity S-wave (km/s) = 3.01126 3.40142 3.21227
# Velocity P-wave (km/s) = 5.89343 6.17277 6.03472
#
# Compressibility (1/GPa) = 0.02262706
#
# Stress axis : x y z
#
# Youngs Moduli (GPa) = 55.01720 67.01297 55.64436
#
# Poissons Ratio (x) = 0.28580 0.34475
# Poissons Ratio (y) = 0.23464 0.20927
# Poissons Ratio (z) = 0.34086 0.25203
#
# Static dielectric constant tensor:
#      x y z
#    x 1.741660 0.000000 0.000000 
#    y 0.000000 1.683460 0.000000 
#    z 0.000000 0.000000 1.780580 
# 
# From -- ./inp_files/13561.got.cif
#   From: 2010.05.17/outbox.cif.g08.bks.cpg/sg21_7_cif.got.tgz:13561.got - 2010.06.03 23:14:55.
