data_PCOD9323090
_publ_section_title
;
Structure prediction by ZEFSAII (Michael W. Deem and Ramdas Pophale) SiO2 
 PCOD9323090
Probable space group: C 2 2 2
;
_chemical_formula_sum "Si O2"
_cell_formula_units_Z 28
_cell_length_a 7.937127
_cell_length_b 17.464842
_cell_length_c 8.633046
_cell_angle_alpha 90.000000
_cell_angle_beta 90.000000
_cell_angle_gamma 90.000000
_cell_volume 1196.718612
_symmetry_space_group_name_H-M "C 2 2 2"
_symmetry_group_IT_number 21
_symmetry_cell_setting 'orthorhombic'
loop_
_space_group_symop_operation_xyz
x,y,z
-x,-y,z
x,-y,-z
-x,y,-z
1/2+x,1/2+y,z
1/2-x,1/2-y,z
1/2+x,1/2-y,-z
1/2-x,1/2+y,-z
loop_
_atom_site_type_symbol
_atom_site_label
_atom_site_fract_x
_atom_site_fract_y
_atom_site_fract_z
Si Si1 0.500000 0.194988 0.500000
Si Si2 0.354015 0.049674 0.845399
Si Si3 0.940147 0.275560 0.165376
Si Si4 0.182356 0.915624 0.436977
O O1 0.477151 0.238142 0.334398
O O2 0.667855 0.142977 0.477711
O O3 0.438078 0.132917 0.857656
O O4 0.188992 0.068522 0.747081
O O5 0.500000 0.000000 0.761070
O O6 0.320656 0.000000 0.000000
O O7 0.750000 0.250000 0.185314
O O8 0.000000 0.241568 0.000000
O O9 0.000000 0.893235 0.500000
O O10 0.220308 0.000000 0.500000
#
# Coordination Sequence:
#
# PCOD9323090 Si02
#       4
#     4   8   8   8
#     4  10  23  46  72  92 146 199 238 296 364 436
#     4  10  19  40  74  96 135 189 242 288 358 424
#     4  11  24  46  70 107 141 191 243 297 364 431
#     4  10  20  36  64 106 136 174 239 300 356 418
#
# _framework density 23.397314999999999
#
# number of rings (size 3 to 8) (size 9 to 14) (size 15 to 20)
#    0.000    1.714    2.857    3.857    0.000    1.143 
#   20.571    2.857    0.000    0.000    0.000    0.000 
#    0.000    0.000    0.000    0.000    0.000    0.000 
#
# Total GULP energy -78002.828173 kJ/mol
# GULP energy per Si atom -5571.630584 kJ/mol
# Density = 2.334406 g / cm^3
# Si number density = 23.397315 Si / 1000 Ang^3
#
#
#
# Elastic Constant Matrix: (Units=GPa)
#
#
# Indices 1 2 3 4 5 6 
#
# 1 132.6213 9.5243 63.0553 0.0000 0.0000 0.0000
# 2 9.5243 61.9282 16.9470 0.0000 0.0000 0.0000
# 3 63.0553 16.9470 217.6318 0.0000 0.0000 0.0000
# 4 0.0000 0.0000 0.0000 19.3886 0.0000 0.0000
# 5 0.0000 0.0000 0.0000 0.0000 -205.7783 0.0000
# 6 0.0000 0.0000 0.0000 0.0000 0.0000 14.1514
#
#
#
# Elastic Compliance Matrix: (Units=1/GPa)
#
#
# Indices 1 2 3 4 5 6 
#
# 1 0.008772 -0.000668 -0.002490 0.000000 0.000000 0.000000
# 2 -0.000668 0.016550 -0.001095 0.000000 0.000000 0.000000
# 3 -0.002490 -0.001095 0.005402 0.000000 0.000000 0.000000
# 4 0.000000 0.000000 0.000000 0.051577 0.000000 0.000000
# 5 0.000000 0.000000 0.000000 0.000000 -0.004860 0.000000
# 6 0.000000 0.000000 0.000000 0.000000 0.000000 0.070665
#
#
# Mechanical properties :
#
#
# Convention : Reuss Voigt Hill
#
# Bulk Modulus (GPa) = 45.00784 65.69274 55.35029
# Shear Modulus (GPa) = 30.48474 -12.93736 8.77369
#
# Velocity S-wave (km/s) = 3.61351 -2.35402 1.93856
# Velocity P-wave (km/s) = 6.05706 4.55515 5.35899
#
# Compressibility (1/GPa) = 0.02221835
#
# Stress axis : x y z
#
# Youngs Moduli (GPa) = 114.00071 60.42233 185.13367
#
# Poissons Ratio (x) = 0.04035 0.46089
# Poissons Ratio (y) = 0.07613 0.20277
# Poissons Ratio (z) = 0.28381 0.06618
#
# Static dielectric constant tensor:
#      x y z
#    x 1.851290 0.000000 0.000000 
#    y 0.000000 2.236480 0.000000 
#    z 0.000000 0.000000 2.110170 
# 
# From -- ./inp_files/10301.got.cif
#   From: 2010.05.17/outbox.cif.g08.bks.cpg/sg21_6_cif.got.tgz:10301.got - 2010.06.03 23:14:55.
