data_PCOD9323493
_publ_section_title
;
Structure prediction by ZEFSAII (Michael W. Deem and Ramdas Pophale) SiO2 
 PCOD9323493
Probable space group: C 2 2 2
;
_chemical_formula_sum "Si O2"
_cell_formula_units_Z 32
_cell_length_a 8.055815
_cell_length_b 31.217318
_cell_length_c 5.896885
_cell_angle_alpha 90.000000
_cell_angle_beta 90.000000
_cell_angle_gamma 90.000000
_cell_volume 1482.954175
_symmetry_space_group_name_H-M "C 2 2 2"
_symmetry_group_IT_number 21
_symmetry_cell_setting 'orthorhombic'
loop_
_space_group_symop_operation_xyz
x,y,z
-x,-y,z
x,-y,-z
-x,y,-z
1/2+x,1/2+y,z
1/2-x,1/2-y,z
1/2+x,1/2-y,-z
1/2-x,1/2+y,-z
loop_
_atom_site_type_symbol
_atom_site_label
_atom_site_fract_x
_atom_site_fract_y
_atom_site_fract_z
Si Si1 0.677456 0.202835 0.624267
Si Si2 0.183911 0.042674 0.388602
Si Si3 0.500000 0.155318 0.000000
Si Si4 0.500000 0.420992 0.000000
Si Si5 0.757526 0.876570 0.654978
O O1 0.500000 0.205300 0.500000
O O2 0.750000 0.250000 0.632639
O O3 0.636704 0.184098 0.871898
O O4 0.780471 0.167793 0.480481
O O5 0.270303 0.085460 0.476200
O O6 0.000000 0.043284 0.500000
O O7 0.138238 0.049368 0.124595
O O8 0.261387 0.000000 0.500000
O O9 0.402313 0.128456 0.813926
O O10 0.590679 0.391087 0.184468
#
# Coordination Sequence:
#
# PCOD9323493 Si02
#       5
#     8   8   4   4   8
#     4  10  23  41  60  85 117 154 199 246 292 352
#     4   9  19  34  57  89 122 153 195 245 291 344
#     4  10  22  40  61  83 121 162 191 239 303 350
#     4  10  20  37  63  90 119 156 195 244 299 343
#     4  10  21  38  60  88 120 155 195 243 293 353
#
# _framework density 21.578548000000001
#
# number of rings (size 3 to 8) (size 9 to 14) (size 15 to 20)
#    0.000    2.250    0.000    1.500    0.000   17.000 
#    0.000    2.500    0.000   30.750    0.000    0.000 
#    0.000    0.000    0.000    0.000    0.000    0.000 
#
# Total GULP energy -89286.634877 kJ/mol
# GULP energy per Si atom -5580.414680 kJ/mol
# Density = 2.152943 g / cm^3
# Si number density = 21.578548 Si / 1000 Ang^3
#
#
#
# Elastic Constant Matrix: (Units=GPa)
#
#
# Indices 1 2 3 4 5 6 
#
# 1 38.9637 44.5700 24.8052 0.0000 0.0000 0.0000
# 2 44.5700 181.8379 73.8335 0.0000 0.0000 0.0000
# 3 24.8052 73.8335 116.9540 0.0000 0.0000 0.0000
# 4 0.0000 0.0000 0.0000 16.3086 0.0000 0.0000
# 5 0.0000 0.0000 0.0000 0.0000 37.0635 0.0000
# 6 0.0000 0.0000 0.0000 0.0000 0.0000 23.1070
#
#
#
# Elastic Compliance Matrix: (Units=1/GPa)
#
#
# Indices 1 2 3 4 5 6 
#
# 1 0.036335 -0.007768 -0.002802 0.000000 0.000000 0.000000
# 2 -0.007768 0.009056 -0.004069 0.000000 0.000000 0.000000
# 3 -0.002802 -0.004069 0.011714 0.000000 0.000000 0.000000
# 4 0.000000 0.000000 0.000000 0.061317 0.000000 0.000000
# 5 0.000000 0.000000 0.000000 0.000000 0.026981 0.000000
# 6 0.000000 0.000000 0.000000 0.000000 0.000000 0.043277
#
#
# Mechanical properties :
#
#
# Convention : Reuss Voigt Hill
#
# Bulk Modulus (GPa) = 35.93937 69.35256 52.64596
# Shear Modulus (GPa) = 22.00375 28.26559 25.13467
#
# Velocity S-wave (km/s) = 3.19675 3.62317 3.41662
# Velocity P-wave (km/s) = 5.50608 7.05071 6.32572
#
# Compressibility (1/GPa) = 0.02782464
#
# Stress axis : x y z
#
# Youngs Moduli (GPa) = 27.52184 110.42694 85.36978
#
# Poissons Ratio (x) = 0.85781 0.23924
# Poissons Ratio (y) = 0.21379 0.34740
# Poissons Ratio (z) = 0.07713 0.44937
#
# Static dielectric constant tensor:
#      x y z
#    x 1.820020 0.000000 0.000000 
#    y 0.000000 1.817250 0.000000 
#    z 0.000000 0.000000 1.885380 
# 
# From -- ./inp_files/1599.got.cif
#   From: 2010.05.17/outbox.cif.g08.bks.cpg/sg21_1_cif.got.tgz:1599.got - 2010.06.03 23:14:55.
