data_PCOD9323416
_publ_section_title
;
Structure prediction by ZEFSAII (Michael W. Deem and Ramdas Pophale) SiO2 
 PCOD9323416
Probable space group: C 2 2 2
;
_chemical_formula_sum "Si O2"
_cell_formula_units_Z 64
_cell_length_a 30.575619
_cell_length_b 16.559240
_cell_length_c 5.389405
_cell_angle_alpha 90.000000
_cell_angle_beta 90.000000
_cell_angle_gamma 90.000000
_cell_volume 2728.704327
_symmetry_space_group_name_H-M "C 2 2 2"
_symmetry_group_IT_number 21
_symmetry_cell_setting 'orthorhombic'
loop_
_space_group_symop_operation_xyz
x,y,z
-x,-y,z
x,-y,-z
-x,y,-z
1/2+x,1/2+y,z
1/2-x,1/2-y,z
1/2+x,1/2-y,-z
1/2-x,1/2+y,-z
loop_
_atom_site_type_symbol
_atom_site_label
_atom_site_fract_x
_atom_site_fract_y
_atom_site_fract_z
Si Si1 0.383850 0.208744 0.849717
Si Si2 0.957278 0.890330 0.148619
Si Si3 0.035666 0.284739 0.188272
Si Si4 0.302811 0.412308 0.735978
Si Si5 0.918273 0.410308 0.511780
Si Si6 0.099184 0.880189 0.352386
Si Si7 0.233556 0.904574 0.755273
Si Si8 0.333770 0.910615 0.874517
O O1 0.404495 0.125888 0.748102
O O2 0.388177 0.282724 0.655165
O O3 0.417110 0.232832 0.065775
O O4 0.339643 0.170476 0.956301
O O5 0.978475 0.805534 0.246622
O O6 0.928474 0.908633 0.402446
O O7 0.924928 0.893955 0.910980
O O8 0.000000 0.923778 0.000000
O O9 0.045756 0.348644 0.393577
O O10 0.000000 0.317887 0.000000
O O11 0.353923 0.421553 0.681502
O O12 0.281076 0.501011 0.747348
O O13 0.283302 0.366669 0.499119
O O14 0.290287 0.372142 0.997717
O O15 0.934901 0.500000 0.500000
O O16 0.874152 0.409137 0.680231
O O17 0.285628 0.903418 0.762568
O O18 0.335382 0.000000 0.000000
#
# Coordination Sequence:
#
# PCOD9323416 Si02
#       8
#     8   8   8   8   8   8   8   8
#     4  10  22  36  55  83 112 157 199 249 323 359
#     4  10  20  36  63  92 121 166 206 243 297 371
#     4   9  20  37  53  77 114 150 201 255 299 366
#     4  10  21  37  63  91 121 159 195 256 306 362
#     4  11  21  33  57  78 102 153 205 250 319 359
#     4  11  21  39  61  90 134 156 199 262 313 365
#     4  10  22  39  63  91 116 152 217 242 298 375
#     4  11  21  36  61  78 110 151 206 266 290 364
#
# _framework density 23.454357000000002
#
# number of rings (size 3 to 8) (size 9 to 14) (size 15 to 20)
#    0.000    1.750    3.750    1.125    3.500    0.500 
#    0.000    2.500    0.000    0.000    0.000   26.250 
#    0.000    0.000    0.000    0.000    0.000    0.000 
#
# Total GULP energy -178157.994671 kJ/mol
# GULP energy per Si atom -5567.437333 kJ/mol
# Density = 2.340097 g / cm^3
# Si number density = 23.454357 Si / 1000 Ang^3
#
#
#
# Elastic Constant Matrix: (Units=GPa)
#
#
# Indices 1 2 3 4 5 6 
#
# 1 146.0147 26.2865 53.9184 0.0000 0.0000 0.0000
# 2 26.2865 77.0328 16.0213 0.0000 0.0000 0.0000
# 3 53.9184 16.0213 164.0464 0.0000 0.0000 0.0000
# 4 0.0000 0.0000 0.0000 -20.2128 0.0000 0.0000
# 5 0.0000 0.0000 0.0000 0.0000 47.6468 0.0000
# 6 0.0000 0.0000 0.0000 0.0000 0.0000 31.4647
#
#
#
# Elastic Compliance Matrix: (Units=1/GPa)
#
#
# Indices 1 2 3 4 5 6 
#
# 1 0.008167 -0.002275 -0.002462 0.000000 0.000000 0.000000
# 2 -0.002275 0.013884 -0.000608 0.000000 0.000000 0.000000
# 3 -0.002462 -0.000608 0.006965 0.000000 0.000000 0.000000
# 4 0.000000 0.000000 0.000000 -0.049474 0.000000 0.000000
# 5 0.000000 0.000000 0.000000 0.000000 0.020988 0.000000
# 6 0.000000 0.000000 0.000000 0.000000 0.000000 0.031782
#
#
# Mechanical properties :
#
#
# Convention : Reuss Voigt Hill
#
# Bulk Modulus (GPa) = 54.56936 64.39403 59.48169
# Shear Modulus (GPa) = 101.80959 31.17092 66.49025
#
# Velocity S-wave (km/s) = 6.59559 3.64950 5.33013
# Velocity P-wave (km/s) = 9.01771 6.72853 7.95589
#
# Compressibility (1/GPa) = 0.01832530
#
# Stress axis : x y z
#
# Youngs Moduli (GPa) = 122.43786 72.02386 143.58460
#
# Poissons Ratio (x) = 0.16385 0.35354
# Poissons Ratio (y) = 0.27854 0.08734
# Poissons Ratio (z) = 0.30147 0.04381
#
# Static dielectric constant tensor:
#      x y z
#    x 2.023530 0.000000 0.000000 
#    y 0.000000 1.984490 0.000000 
#    z 0.000000 0.000000 2.045380 
# 
# From -- ./inp_files/7522.got.cif
#   From: 2010.05.17/outbox.cif.g08.bks.cpg/sg21_4_cif.got.tgz:7522.got - 2010.06.03 23:14:55.
