data_PCOD9323456
_publ_section_title
;
Structure prediction by ZEFSAII (Michael W. Deem and Ramdas Pophale) SiO2 
 PCOD9323456
Probable space group: C 2 2 2
;
_chemical_formula_sum "Si O2"
_cell_formula_units_Z 36
_cell_length_a 8.433701
_cell_length_b 19.397361
_cell_length_c 9.968936
_cell_angle_alpha 90.000000
_cell_angle_beta 90.000000
_cell_angle_gamma 90.000000
_cell_volume 1630.833621
_symmetry_space_group_name_H-M "C 2 2 2"
_symmetry_group_IT_number 21
_symmetry_cell_setting 'orthorhombic'
loop_
_space_group_symop_operation_xyz
x,y,z
-x,-y,z
x,-y,-z
-x,y,-z
1/2+x,1/2+y,z
1/2-x,1/2-y,z
1/2+x,1/2-y,-z
1/2-x,1/2+y,-z
loop_
_atom_site_type_symbol
_atom_site_label
_atom_site_fract_x
_atom_site_fract_y
_atom_site_fract_z
Si Si1 0.778675 0.930084 0.710285
Si Si2 0.500000 0.247022 0.000000
Si Si3 0.310975 0.673266 0.521671
Si Si4 0.261444 0.355385 0.969559
Si Si5 0.658456 0.580887 0.241265
O O1 0.742186 0.883486 0.581721
O O2 0.970255 0.925811 0.731245
O O3 0.753418 0.011920 0.708006
O O4 0.699959 0.896091 0.841349
O O5 0.397520 0.302247 0.915138
O O6 0.365506 0.193589 0.043182
O O7 0.500000 0.674238 0.500000
O O8 0.250000 0.750000 0.498851
O O9 0.282278 0.645212 0.671219
O O10 0.321341 0.406974 0.083262
#
# Coordination Sequence:
#
# PCOD9323456 Si02
#       5
#     8   4   8   8   8
#     4  10  20  37  60  86 114 150 192 233 278 336
#     4  10  24  34  56  88 124 140 186 238 292 322
#     4  10  23  37  59  85 115 148 190 235 283 331
#     4  11  21  37  60  85 115 150 188 234 283 338
#     4  10  20  37  60  86 114 150 192 233 278 336
#
# _framework density 22.074598999999999
#
# number of rings (size 3 to 8) (size 9 to 14) (size 15 to 20)
#    0.000    1.778    2.222    1.333    6.222    4.444 
#    0.000    2.222    0.000    1.333    0.000    0.000 
#    0.000    0.000    0.000    0.000    0.000    0.000 
#
# Total GULP energy -100290.444576 kJ/mol
# GULP energy per Si atom -5571.691365 kJ/mol
# Density = 2.202436 g / cm^3
# Si number density = 22.074599 Si / 1000 Ang^3
#
#
#
# Elastic Constant Matrix: (Units=GPa)
#
#
# Indices 1 2 3 4 5 6 
#
# 1 16.1521 17.7439 2.0433 0.0000 0.0000 0.0000
# 2 17.7439 133.3466 28.1636 0.0000 0.0000 0.0000
# 3 2.0433 28.1636 99.8300 0.0000 0.0000 0.0000
# 4 0.0000 0.0000 0.0000 19.7690 0.0000 0.0000
# 5 0.0000 0.0000 0.0000 0.0000 9.0005 0.0000
# 6 0.0000 0.0000 0.0000 0.0000 0.0000 25.9339
#
#
#
# Elastic Compliance Matrix: (Units=1/GPa)
#
#
# Indices 1 2 3 4 5 6 
#
# 1 0.072674 -0.009949 0.001319 0.000000 0.000000 0.000000
# 2 -0.009949 0.009336 -0.002430 0.000000 0.000000 0.000000
# 3 0.001319 -0.002430 0.010676 0.000000 0.000000 0.000000
# 4 0.000000 0.000000 0.000000 0.050584 0.000000 0.000000
# 5 0.000000 0.000000 0.000000 0.000000 0.111105 0.000000
# 6 0.000000 0.000000 0.000000 0.000000 0.000000 0.038560
#
#
# Mechanical properties :
#
#
# Convention : Reuss Voigt Hill
#
# Bulk Modulus (GPa) = 14.17116 38.35893 26.26504
# Shear Modulus (GPa) = 14.76771 24.36589 19.56680
#
# Velocity S-wave (km/s) = 2.58929 3.32595 2.98047
# Velocity P-wave (km/s) = 3.92082 5.67133 4.87528
#
# Compressibility (1/GPa) = 0.07056586
#
# Stress axis : x y z
#
# Youngs Moduli (GPa) = 13.76010 107.10734 93.67101
#
# Poissons Ratio (x) = 1.06562 -0.12358
# Poissons Ratio (y) = 0.13690 0.22765
# Poissons Ratio (z) = -0.01815 0.26031
#
# Static dielectric constant tensor:
#      x y z
#    x 1.870360 0.000000 0.000000 
#    y 0.000000 1.807160 0.000000 
#    z 0.000000 0.000000 1.775230 
# 
# From -- ./inp_files/10563.got.cif
#   From: 2010.05.17/outbox.cif.g08.bks.cpg/sg21_6_cif.got.tgz:10563.got - 2010.06.03 23:14:55.
