data_PCOD9323650
_publ_section_title
;
Structure prediction by ZEFSAII (Michael W. Deem and Ramdas Pophale) SiO2 
 PCOD9323650
Probable space group: C 2 2 2
;
_chemical_formula_sum "Si O2"
_cell_formula_units_Z 40
_cell_length_a 21.186085
_cell_length_b 8.396436
_cell_length_c 8.843812
_cell_angle_alpha 90.000000
_cell_angle_beta 90.000000
_cell_angle_gamma 90.000000
_cell_volume 1573.204552
_symmetry_space_group_name_H-M "C 2 2 2"
_symmetry_group_IT_number 21
_symmetry_cell_setting 'orthorhombic'
loop_
_space_group_symop_operation_xyz
x,y,z
-x,-y,z
x,-y,-z
-x,y,-z
1/2+x,1/2+y,z
1/2-x,1/2-y,z
1/2+x,1/2-y,-z
1/2-x,1/2+y,-z
loop_
_atom_site_type_symbol
_atom_site_label
_atom_site_fract_x
_atom_site_fract_y
_atom_site_fract_z
Si Si1 0.643048 0.068510 0.271103
Si Si2 0.351527 0.650860 0.079015
Si Si3 0.318341 0.779137 0.559826
Si Si4 0.582852 0.449766 0.668379
Si Si5 0.550923 0.178907 0.865846
O O1 0.676387 0.196111 0.163497
O O2 0.634225 0.161163 0.429469
O O3 0.686208 0.920086 0.318498
O O4 0.579532 0.985606 0.203619
O O5 0.401780 0.578478 0.201581
O O6 0.317947 0.500000 0.000000
O O7 0.390436 0.736053 0.947315
O O8 0.250000 0.750000 0.492699
O O9 0.348311 0.628094 0.637502
O O10 0.564158 0.500000 0.500000
O O11 0.538059 0.308589 0.733822
O O12 0.500000 0.168215 0.000000
#
# Coordination Sequence:
#
# PCOD9323650 Si02
#       5
#     8   8   8   8   8
#     4  10  21  38  67 101 139 184 242 292 364 448
#     4  10  21  37  64  96 135 188 229 295 367 427
#     4  10  22  39  70 105 137 185 240 312 382 430
#     4  10  20  39  69 100 138 178 238 316 367 430
#     4  10  23  43  66  97 136 200 242 290 377 445
#
# _framework density 25.425808
#
# number of rings (size 3 to 8) (size 9 to 14) (size 15 to 20)
#    0.000    2.000    2.000    0.600    2.800    5.200 
#    0.000    2.000    0.000   64.800    0.000    0.000 
#    0.000    0.000    0.000    0.000    0.000    0.000 
#
# Total GULP energy -111565.193663 kJ/mol
# GULP energy per Si atom -5578.259683 kJ/mol
# Density = 2.536794 g / cm^3
# Si number density = 25.425808 Si / 1000 Ang^3
#
#
#
# Elastic Constant Matrix: (Units=GPa)
#
#
# Indices 1 2 3 4 5 6 
#
# 1 66.2778 20.8820 35.6029 0.0000 0.0000 0.0000
# 2 20.8820 113.2073 69.3441 0.0000 0.0000 0.0000
# 3 35.6029 69.3441 168.9692 0.0000 0.0000 0.0000
# 4 0.0000 0.0000 0.0000 82.6760 0.0000 0.0000
# 5 0.0000 0.0000 0.0000 0.0000 19.9706 0.0000
# 6 0.0000 0.0000 0.0000 0.0000 0.0000 5.9620
#
#
#
# Elastic Compliance Matrix: (Units=1/GPa)
#
#
# Indices 1 2 3 4 5 6 
#
# 1 0.017149 -0.001269 -0.003093 0.000000 0.000000 0.000000
# 2 -0.001269 0.011893 -0.004614 0.000000 0.000000 0.000000
# 3 -0.003093 -0.004614 0.008463 0.000000 0.000000 0.000000
# 4 0.000000 0.000000 0.000000 0.012095 0.000000 0.000000
# 5 0.000000 0.000000 0.000000 0.000000 0.050074 0.000000
# 6 0.000000 0.000000 0.000000 0.000000 0.000000 0.167729
#
#
# Mechanical properties :
#
#
# Convention : Reuss Voigt Hill
#
# Bulk Modulus (GPa) = 51.13672 66.67916 58.90794
# Shear Modulus (GPa) = 17.13071 36.56339 26.84705
#
# Velocity S-wave (km/s) = 2.59849 3.79627 3.25298
# Velocity P-wave (km/s) = 5.39988 6.74518 6.10967
#
# Compressibility (1/GPa) = 0.01955542
#
# Stress axis : x y z
#
# Youngs Moduli (GPa) = 58.31200 84.07987 118.15724
#
# Poissons Ratio (x) = 0.10669 0.36542
# Poissons Ratio (y) = 0.07399 0.54514
# Poissons Ratio (z) = 0.18034 0.38791
#
# Static dielectric constant tensor:
#      x y z
#    x 1.950830 0.000000 0.000000 
#    y 0.000000 2.126030 0.000000 
#    z 0.000000 0.000000 2.035830 
# 
# From -- ./inp_files/18227.got.cif
#   From: 2010.05.17/outbox.cif.g08.bks.cpg/sg21_10_cif.got.tgz:18227.got - 2010.06.03 23:14:55.
