data_PCOD9323743
_publ_section_title
;
Structure prediction by ZEFSAII (Michael W. Deem and Ramdas Pophale) SiO2 
 PCOD9323743
Probable space group: C 2 2 2
;
_chemical_formula_sum "Si O2"
_cell_formula_units_Z 58
_cell_length_a 5.916977
_cell_length_b 28.309195
_cell_length_c 18.031913
_cell_angle_alpha 90.000000
_cell_angle_beta 90.000000
_cell_angle_gamma 90.000000
_cell_volume 3020.432985
_symmetry_space_group_name_H-M "C 2 2 2"
_symmetry_group_IT_number 21
_symmetry_cell_setting 'orthorhombic'
loop_
_space_group_symop_operation_xyz
x,y,z
-x,-y,z
x,-y,-z
-x,y,-z
1/2+x,1/2+y,z
1/2-x,1/2-y,z
1/2+x,1/2-y,-z
1/2-x,1/2+y,-z
loop_
_atom_site_type_symbol
_atom_site_label
_atom_site_fract_x
_atom_site_fract_y
_atom_site_fract_z
Si Si1 0.500000 0.000000 0.500000
Si Si2 0.046628 0.108667 0.286927
Si Si3 0.833001 0.363675 0.169551
Si Si4 0.085595 0.794611 0.083874
Si Si5 0.141629 0.452399 0.188844
Si Si6 0.387908 0.450043 0.578367
Si Si7 0.243171 0.946181 0.973817
Si Si8 0.261390 0.197237 0.224343
O O1 0.360548 0.034162 0.554296
O O2 0.211599 0.067316 0.256758
O O3 0.179856 0.158285 0.284053
O O4 0.859547 0.120831 0.226081
O O5 0.930059 0.089466 0.360782
O O6 0.729486 0.342131 0.095429
O O7 0.976504 0.410389 0.164820
O O8 0.993633 0.322095 0.200947
O O9 0.250000 0.750000 0.098208
O O10 0.892235 0.799335 0.148175
O O11 0.000000 0.790347 0.000000
O O12 0.287911 0.453431 0.114615
O O13 0.000000 0.500000 0.202688
O O14 0.500000 0.500000 0.602468
O O15 0.500000 0.436342 0.500000
O O16 0.500000 0.927997 0.000000
O O17 0.000000 0.924497 0.000000
O O18 0.249354 0.000000 0.000000
O O19 0.250000 0.250000 0.254900
#
# Coordination Sequence:
#
# PCOD9323743 Si02
#       8
#     2   8   8   8   8   8   8   8
#     4   8  18  36  68  90 136 180 196 244 316 370
#     4  10  24  39  62  98 126 161 212 266 313 389
#     4  10  24  40  56  90 125 156 215 263 333 388
#     4  11  22  38  62  87 117 158 207 282 342 396
#     4  11  24  42  58  87 123 177 216 270 319 387
#     4   9  20  40  64  96 134 169 205 244 305 381
#     4  10  21  40  60  75 107 166 225 271 323 378
#     4  10  20  42  63  86 122 161 209 264 334 394
#
# _framework density 19.202542999999999
#
# number of rings (size 3 to 8) (size 9 to 14) (size 15 to 20)
#    0.000    2.069    2.759    0.414    3.862    4.414 
#    8.690    0.690    0.000    0.000    3.586    0.000 
#    0.000    0.000    0.000    0.000    0.000    0.000 
#
# Total GULP energy -161479.062139 kJ/mol
# GULP energy per Si atom -5568.243522 kJ/mol
# Density = 1.915884 g / cm^3
# Si number density = 19.202543 Si / 1000 Ang^3
#
#
#
# Elastic Constant Matrix: (Units=GPa)
#
#
# Indices 1 2 3 4 5 6 
#
# 1 92.6023 43.9109 28.4212 0.0000 0.0000 0.0000
# 2 43.9109 119.8138 60.2187 0.0000 0.0000 0.0000
# 3 28.4212 60.2187 76.2844 0.0000 0.0000 0.0000
# 4 0.0000 0.0000 0.0000 31.9277 0.0000 0.0000
# 5 0.0000 0.0000 0.0000 0.0000 -12.4746 0.0000
# 6 0.0000 0.0000 0.0000 0.0000 0.0000 92.8905
#
#
#
# Elastic Compliance Matrix: (Units=1/GPa)
#
#
# Indices 1 2 3 4 5 6 
#
# 1 0.013222 -0.003929 -0.001825 0.000000 0.000000 0.000000
# 2 -0.003929 0.015003 -0.010380 0.000000 0.000000 0.000000
# 3 -0.001825 -0.010380 0.021982 0.000000 0.000000 0.000000
# 4 0.000000 0.000000 0.000000 0.031321 0.000000 0.000000
# 5 0.000000 0.000000 0.000000 0.000000 -0.080163 0.000000
# 6 0.000000 0.000000 0.000000 0.000000 0.000000 0.010765
#
#
# Mechanical properties :
#
#
# Convention : Reuss Voigt Hill
#
# Bulk Modulus (GPa) = 55.73802 61.53356 58.63579
# Shear Modulus (GPa) = 99.25303 32.87870 66.06586
#
# Velocity S-wave (km/s) = 7.19720 4.14237 5.87192
# Velocity P-wave (km/s) = 9.90735 7.41573 8.75067
#
# Compressibility (1/GPa) = 0.01794108
#
# Stress axis : x y z
#
# Youngs Moduli (GPa) = 75.63260 66.65408 45.49106
#
# Poissons Ratio (x) = 0.26185 0.08302
# Poissons Ratio (y) = 0.29712 0.47218
# Poissons Ratio (z) = 0.13802 0.69184
#
# Static dielectric constant tensor:
#      x y z
#    x 1.765630 0.000000 0.000000 
#    y 0.000000 1.680630 0.000000 
#    z 0.000000 0.000000 1.590170 
# 
# From -- ./inp_files/35184.got.cif
#   From: 2010.05.17/outbox.cif.g08.bks.cpg/sg21_18_cif.got.tgz:35184.got - 2010.06.03 23:14:55.
