data_PCOD9323021
_publ_section_title
;
Structure prediction by ZEFSAII (Michael W. Deem and Ramdas Pophale) SiO2 
 PCOD9323021
Probable space group: C 2 2 2
;
_chemical_formula_sum "Si O2"
_cell_formula_units_Z 64
_cell_length_a 8.650288
_cell_length_b 22.380708
_cell_length_c 14.667403
_cell_angle_alpha 90.000000
_cell_angle_beta 90.000000
_cell_angle_gamma 90.000000
_cell_volume 2839.602912
_symmetry_space_group_name_H-M "C 2 2 2"
_symmetry_group_IT_number 21
_symmetry_cell_setting 'orthorhombic'
loop_
_space_group_symop_operation_xyz
x,y,z
-x,-y,z
x,-y,-z
-x,y,-z
1/2+x,1/2+y,z
1/2-x,1/2-y,z
1/2+x,1/2-y,-z
1/2-x,1/2+y,-z
loop_
_atom_site_type_symbol
_atom_site_label
_atom_site_fract_x
_atom_site_fract_y
_atom_site_fract_z
Si Si1 0.813544 0.014510 0.399017
Si Si2 0.926801 0.438758 0.139452
Si Si3 0.915634 0.723376 0.293355
Si Si4 0.645884 0.696989 0.791640
Si Si5 0.584832 0.181915 0.918629
Si Si6 0.176654 0.983410 0.798591
Si Si7 0.385777 0.883834 0.316361
Si Si8 0.097253 0.872638 0.916001
O O1 0.731666 0.079062 0.379808
O O2 0.755421 0.000000 0.500000
O O3 0.767642 0.979583 0.306241
O O4 0.000000 0.000000 0.403104
O O5 0.751544 0.461006 0.147395
O O6 0.970477 0.428107 0.245506
O O7 0.000000 0.500000 0.103844
O O8 0.981743 0.378921 0.091624
O O9 0.750000 0.750000 0.321846
O O10 0.905429 0.707111 0.184428
O O11 0.046734 0.774178 0.290874
O O12 0.986536 0.665577 0.345188
O O13 0.750000 0.750000 0.834327
O O14 0.769612 0.652379 0.749620
O O15 0.523990 0.664277 0.855558
O O16 0.760132 0.168257 0.947212
O O17 0.500000 0.217152 0.000000
O O18 0.182417 0.922797 0.855180
O O19 0.000000 0.000000 0.791025
O O20 0.000000 0.898106 0.000000
#
# Coordination Sequence:
#
# PCOD9323021 Si02
#       8
#     8   8   8   8   8   8   8   8
#     4   9  17  34  64  99 137 170 209 262 346 425
#     4  10  19  38  56  75 111 170 204 258 332 390
#     4  10  20  40  60  84 119 173 229 272 350 389
#     4  10  21  39  59  81 121 162 216 276 333 385
#     4  11  25  39  52  79 119 162 231 287 331 394
#     4  10  21  38  58  86 124 164 218 269 327 409
#     4   9  20  35  61  91 129 161 211 278 328 406
#     4  12  25  37  54  82 122 168 225 283 335 393
#
# _framework density 22.538364000000001
#
# number of rings (size 3 to 8) (size 9 to 14) (size 15 to 20)
#    0.000    1.875    2.500    2.250    7.000    1.000 
#    0.000    0.000    0.000    6.000    0.000    0.875 
#   41.250    0.000    0.000    0.000    0.000    0.000 
#
# Total GULP energy -178310.407255 kJ/mol
# GULP energy per Si atom -5572.200227 kJ/mol
# Density = 2.248707 g / cm^3
# Si number density = 22.538364 Si / 1000 Ang^3
#
#
#
# Elastic Constant Matrix: (Units=GPa)
#
#
# Indices 1 2 3 4 5 6 
#
# 1 137.3913 43.6476 35.8279 0.0000 0.0000 0.0000
# 2 43.6476 104.8887 35.9943 0.0000 0.0000 0.0000
# 3 35.8279 35.9943 64.5911 0.0000 0.0000 0.0000
# 4 0.0000 0.0000 0.0000 10.8462 0.0000 0.0000
# 5 0.0000 0.0000 0.0000 0.0000 12.6081 0.0000
# 6 0.0000 0.0000 0.0000 0.0000 0.0000 50.2398
#
#
#
# Elastic Compliance Matrix: (Units=1/GPa)
#
#
# Indices 1 2 3 4 5 6 
#
# 1 0.009017 -0.002517 -0.003599 0.000000 0.000000 0.000000
# 2 -0.002517 0.012491 -0.005565 0.000000 0.000000 0.000000
# 3 -0.003599 -0.005565 0.020579 0.000000 0.000000 0.000000
# 4 0.000000 0.000000 0.000000 0.092198 0.000000 0.000000
# 5 0.000000 0.000000 0.000000 0.000000 0.079314 0.000000
# 6 0.000000 0.000000 0.000000 0.000000 0.000000 0.019905
#
#
# Mechanical properties :
#
#
# Convention : Reuss Voigt Hill
#
# Bulk Modulus (GPa) = 53.40196 59.75673 56.57934
# Shear Modulus (GPa) = 19.00372 27.49889 23.25130
#
# Velocity S-wave (km/s) = 2.90689 3.49677 3.21539
# Velocity P-wave (km/s) = 5.91709 6.54783 6.24043
#
# Compressibility (1/GPa) = 0.01872591
#
# Stress axis : x y z
#
# Youngs Moduli (GPa) = 110.90670 80.05804 48.59306
#
# Poissons Ratio (x) = 0.20152 0.17487
# Poissons Ratio (y) = 0.27917 0.27040
# Poissons Ratio (z) = 0.39912 0.44548
#
# Static dielectric constant tensor:
#      x y z
#    x 1.857240 0.000000 0.000000 
#    y 0.000000 1.861710 0.000000 
#    z 0.000000 0.000000 1.814900 
# 
# From -- ./inp_files/30897.got.cif
#   From: 2010.05.17/outbox.cif.g08.bks.cpg/sg21_16_cif.got.tgz:30897.got - 2010.06.03 23:14:55.
