data_PCOD9323149
_publ_section_title
;
Structure prediction by ZEFSAII (Michael W. Deem and Ramdas Pophale) SiO2 
 PCOD9323149
Probable space group: C 2 2 2
;
_chemical_formula_sum "Si O2"
_cell_formula_units_Z 64
_cell_length_a 17.127198
_cell_length_b 11.296557
_cell_length_c 15.892771
_cell_angle_alpha 90.000000
_cell_angle_beta 90.000000
_cell_angle_gamma 90.000000
_cell_volume 3074.907403
_symmetry_space_group_name_H-M "C 2 2 2"
_symmetry_group_IT_number 21
_symmetry_cell_setting 'orthorhombic'
loop_
_space_group_symop_operation_xyz
x,y,z
-x,-y,z
x,-y,-z
-x,y,-z
1/2+x,1/2+y,z
1/2-x,1/2-y,z
1/2+x,1/2-y,-z
1/2-x,1/2+y,-z
loop_
_atom_site_type_symbol
_atom_site_label
_atom_site_fract_x
_atom_site_fract_y
_atom_site_fract_z
Si Si1 0.833129 0.783995 0.463732
Si Si2 0.304966 0.480261 0.323207
Si Si3 0.076056 0.161704 0.625809
Si Si4 0.518718 0.634895 0.098176
Si Si5 0.466491 0.882416 0.185695
Si Si6 0.177177 0.820427 0.823488
Si Si7 0.574022 0.791454 0.323683
Si Si8 0.315559 0.159142 0.725413
O O1 0.750000 0.750000 0.504328
O O2 0.895060 0.836241 0.529573
O O3 0.876655 0.682833 0.407917
O O4 0.807872 0.880661 0.394065
O O5 0.387392 0.546995 0.331068
O O6 0.295276 0.433567 0.228692
O O7 0.232443 0.567903 0.331577
O O8 0.126061 0.267011 0.667147
O O9 0.986423 0.188714 0.645773
O O10 0.500000 0.500000 0.129660
O O11 0.480523 0.750872 0.144449
O O12 0.610829 0.650635 0.111113
O O13 0.500000 0.639708 0.000000
O O14 0.518131 0.878182 0.272068
O O15 0.374794 0.894847 0.206301
O O16 0.500000 0.000000 0.139671
O O17 0.250000 0.750000 0.858235
O O18 0.135228 0.747397 0.747860
O O19 0.250000 0.250000 0.760405
#
# Coordination Sequence:
#
# PCOD9323149 Si02
#       8
#     8   8   8   8   8   8   8   8
#     4  11  21  32  51  74 117 164 216 273 345 384
#     4  10  20  32  57  83 118 157 218 280 329 384
#     4  10  20  35  49  78 113 167 215 273 328 404
#     4  10  24  45  71 100 138 174 209 257 327 404
#     4  10  22  38  67  94 125 169 219 268 319 395
#     4  10  22  37  66  95 124 162 210 267 325 381
#     4   9  20  36  54  82 118 156 217 275 321 379
#     4   9  20  35  55  84 119 161 215 269 331 386
#
# _framework density 20.813634
#
# number of rings (size 3 to 8) (size 9 to 14) (size 15 to 20)
#    0.000    2.125    0.000    3.375   12.250    1.750 
#    0.000    3.125    0.000    0.750    0.000    0.000 
#    0.000    0.000    0.000    0.000    0.000    0.000 
#
# Total GULP energy -178236.054682 kJ/mol
# GULP energy per Si atom -5569.876709 kJ/mol
# Density = 2.076626 g / cm^3
# Si number density = 20.813634 Si / 1000 Ang^3
#
#
#
# Elastic Constant Matrix: (Units=GPa)
#
#
# Indices 1 2 3 4 5 6 
#
# 1 125.7344 31.3246 21.5421 0.0000 0.0000 0.0000
# 2 31.3246 84.5243 25.4183 0.0000 0.0000 0.0000
# 3 21.5421 25.4183 54.2103 0.0000 0.0000 0.0000
# 4 0.0000 0.0000 0.0000 7.8066 0.0000 0.0000
# 5 0.0000 0.0000 0.0000 0.0000 16.7951 0.0000
# 6 0.0000 0.0000 0.0000 0.0000 0.0000 28.8658
#
#
#
# Elastic Compliance Matrix: (Units=1/GPa)
#
#
# Indices 1 2 3 4 5 6 
#
# 1 0.009011 -0.002634 -0.002346 0.000000 0.000000 0.000000
# 2 -0.002634 0.014543 -0.005772 0.000000 0.000000 0.000000
# 3 -0.002346 -0.005772 0.022085 0.000000 0.000000 0.000000
# 4 0.000000 0.000000 0.000000 0.128096 0.000000 0.000000
# 5 0.000000 0.000000 0.000000 0.000000 0.059541 0.000000
# 6 0.000000 0.000000 0.000000 0.000000 0.000000 0.034643
#
#
# Mechanical properties :
#
#
# Convention : Reuss Voigt Hill
#
# Bulk Modulus (GPa) = 41.43304 46.78212 44.10758
# Shear Modulus (GPa) = 16.80842 23.10577 19.95709
#
# Velocity S-wave (km/s) = 2.84486 3.33547 3.09988
# Velocity P-wave (km/s) = 5.54444 6.11222 5.83524
#
# Compressibility (1/GPa) = 0.02413533
#
# Stress axis : x y z
#
# Youngs Moduli (GPa) = 110.96996 68.76172 45.27889
#
# Poissons Ratio (x) = 0.18113 0.10622
# Poissons Ratio (y) = 0.29232 0.26136
# Poissons Ratio (z) = 0.26032 0.39691
#
# Static dielectric constant tensor:
#      x y z
#    x 1.798330 0.000000 0.000000 
#    y 0.000000 1.872160 0.000000 
#    z 0.000000 0.000000 1.750850 
# 
# From -- ./inp_files/36736.got.cif
#   From: 2010.05.17/outbox.cif.g08.bks.cpg/sg21_19_cif.got.tgz:36736.got - 2010.06.03 23:14:55.
