data_PCOD9323735
_publ_section_title
;
Structure prediction by ZEFSAII (Michael W. Deem and Ramdas Pophale) SiO2 
 PCOD9323735
Probable space group: C 2 2 2
;
_chemical_formula_sum "Si O2"
_cell_formula_units_Z 36
_cell_length_a 7.613109
_cell_length_b 26.711211
_cell_length_c 7.391803
_cell_angle_alpha 90.000000
_cell_angle_beta 90.000000
_cell_angle_gamma 90.000000
_cell_volume 1503.162767
_symmetry_space_group_name_H-M "C 2 2 2"
_symmetry_group_IT_number 21
_symmetry_cell_setting 'orthorhombic'
loop_
_space_group_symop_operation_xyz
x,y,z
-x,-y,z
x,-y,-z
-x,y,-z
1/2+x,1/2+y,z
1/2-x,1/2-y,z
1/2+x,1/2-y,-z
1/2-x,1/2+y,-z
loop_
_atom_site_type_symbol
_atom_site_label
_atom_site_fract_x
_atom_site_fract_y
_atom_site_fract_z
Si Si1 0.410684 0.601205 0.320576
Si Si2 0.708690 0.803794 0.511202
Si Si3 0.851419 0.825386 0.119351
Si Si4 0.000000 0.364546 0.000000
Si Si5 0.056496 0.444868 0.710184
O O1 0.500000 0.579964 0.500000
O O2 0.303264 0.650465 0.388791
O O3 0.554082 0.622522 0.182625
O O4 0.263953 0.562693 0.257944
O O5 0.500000 0.811238 0.500000
O O6 0.750000 0.750000 0.597318
O O7 0.792606 0.802611 0.309934
O O8 0.678215 0.833224 0.999486
O O9 0.000000 0.798391 0.000000
O O10 0.974808 0.400646 0.828190
O O11 0.000000 0.500000 0.767210
O O12 0.000000 0.439032 0.500000
#
# Coordination Sequence:
#
# PCOD9323735 Si02
#       5
#     8   8   8   4   8
#     4  10  20  41  70  97 133 185 239 287 363 428
#     4  11  23  43  71 104 141 189 244 300 359 439
#     4  11  23  41  68 101 135 187 233 288 364 436
#     4  12  23  44  70  96 140 188 232 294 374 419
#     4  11  23  41  67 100 136 180 238 296 355 428
#
# _framework density 23.9495
#
# number of rings (size 3 to 8) (size 9 to 14) (size 15 to 20)
#    0.000    1.111    2.222    7.000    0.000    0.000 
#    2.000    8.889    0.000    0.000    0.000    0.000 
#    0.000    0.000    0.000    0.000    0.000    0.000 
#
# Total GULP energy -100760.805361 kJ/mol
# GULP energy per Si atom -5597.822520 kJ/mol
# Density = 2.389499 g / cm^3
# Si number density = 23.949500 Si / 1000 Ang^3
#
#
#
# Elastic Constant Matrix: (Units=GPa)
#
#
# Indices 1 2 3 4 5 6 
#
# 1 182.9381 40.0745 13.4408 0.0000 0.0000 0.0000
# 2 40.0745 85.0693 0.0353 0.0000 0.0000 0.0000
# 3 13.4408 0.0353 83.3005 0.0000 0.0000 0.0000
# 4 0.0000 0.0000 0.0000 14.2352 0.0000 0.0000
# 5 0.0000 0.0000 0.0000 0.0000 48.4877 0.0000
# 6 0.0000 0.0000 0.0000 0.0000 0.0000 23.3859
#
#
#
# Elastic Compliance Matrix: (Units=1/GPa)
#
#
# Indices 1 2 3 4 5 6 
#
# 1 0.006177 -0.002909 -0.000995 0.000000 0.000000 0.000000
# 2 -0.002909 0.013125 0.000464 0.000000 0.000000 0.000000
# 3 -0.000995 0.000464 0.012165 0.000000 0.000000 0.000000
# 4 0.000000 0.000000 0.000000 0.070248 0.000000 0.000000
# 5 0.000000 0.000000 0.000000 0.000000 0.020624 0.000000
# 6 0.000000 0.000000 0.000000 0.000000 0.000000 0.042761
#
#
# Mechanical properties :
#
#
# Convention : Reuss Voigt Hill
#
# Bulk Modulus (GPa) = 40.67420 50.93435 45.80427
# Shear Modulus (GPa) = 27.75044 37.07224 32.41134
#
# Velocity S-wave (km/s) = 3.40767 3.93865 3.68274
# Velocity P-wave (km/s) = 5.70115 6.48055 6.10330
#
# Compressibility (1/GPa) = 0.02458561
#
# Stress axis : x y z
#
# Youngs Moduli (GPa) = 161.89636 76.18775 82.20209
#
# Poissons Ratio (x) = 0.22166 0.08183
# Poissons Ratio (y) = 0.47101 -0.03813
# Poissons Ratio (z) = 0.16115 -0.03534
#
# Static dielectric constant tensor:
#      x y z
#    x 2.016210 0.000000 0.000000 
#    y 0.000000 1.878050 0.000000 
#    z 0.000000 0.000000 1.976700 
# 
# From -- ./inp_files/11109.got.cif
#   From: 2010.05.17/outbox.cif.g08.bks.cpg/sg21_6_cif.got.tgz:11109.got - 2010.06.03 23:14:55.
