data_PCOD9323012
_publ_section_title
;
Structure prediction by ZEFSAII (Michael W. Deem and Ramdas Pophale) SiO2 
 PCOD9323012
Probable space group: C 2 2 2
;
_chemical_formula_sum "Si O2"
_cell_formula_units_Z 40
_cell_length_a 8.123759
_cell_length_b 20.845165
_cell_length_c 9.637453
_cell_angle_alpha 90.000000
_cell_angle_beta 90.000000
_cell_angle_gamma 90.000000
_cell_volume 1632.016861
_symmetry_space_group_name_H-M "C 2 2 2"
_symmetry_group_IT_number 21
_symmetry_cell_setting 'orthorhombic'
loop_
_space_group_symop_operation_xyz
x,y,z
-x,-y,z
x,-y,-z
-x,y,-z
1/2+x,1/2+y,z
1/2-x,1/2-y,z
1/2+x,1/2-y,-z
1/2-x,1/2+y,-z
loop_
_atom_site_type_symbol
_atom_site_label
_atom_site_fract_x
_atom_site_fract_y
_atom_site_fract_z
Si Si1 0.687599 0.648450 0.695668
Si Si2 0.998195 0.731442 0.667945
Si Si3 0.302510 0.933066 0.085468
Si Si4 0.657527 0.880955 0.186789
Si Si5 0.689668 0.566012 0.450368
O O1 0.838554 0.695019 0.730972
O O2 0.527408 0.693098 0.697362
O O3 0.678953 0.585490 0.791346
O O4 0.745156 0.624949 0.544241
O O5 0.000000 0.728007 0.500000
O O6 0.134980 0.688057 0.741510
O O7 0.482523 0.919023 0.155469
O O8 0.271841 0.879527 0.967260
O O9 0.289460 0.000000 0.000000
O O10 0.764793 0.922730 0.292516
O O11 0.769854 0.500000 0.500000
O O12 0.500000 0.563696 0.500000
#
# Coordination Sequence:
#
# PCOD9323012 Si02
#       5
#     8   8   8   8   8
#     4  10  21  38  66  93 133 178 223 289 358 416
#     4  10  19  37  66  92 128 173 229 287 346 418
#     4  10  21  39  67 102 136 172 226 292 355 421
#     4  10  20  38  64  94 134 177 228 288 350 416
#     4  11  23  39  62  96 134 177 232 289 355 430
#
# _framework density 24.509549
#
# number of rings (size 3 to 8) (size 9 to 14) (size 15 to 20)
#    0.000    1.800    2.000    3.000    0.000    1.600 
#    0.000    3.000   66.000    4.800    0.000    0.000 
#    0.000    0.000    0.000    0.000    0.000    0.000 
#
# Total GULP energy -111476.480418 kJ/mol
# GULP energy per Si atom -5573.824021 kJ/mol
# Density = 2.445376 g / cm^3
# Si number density = 24.509549 Si / 1000 Ang^3
#
#
#
# Elastic Constant Matrix: (Units=GPa)
#
#
# Indices 1 2 3 4 5 6 
#
# 1 54.8683 32.6919 38.2247 0.0000 0.0000 0.0000
# 2 32.6919 126.5805 41.1875 0.0000 0.0000 0.0000
# 3 38.2247 41.1875 155.7325 0.0000 0.0000 0.0000
# 4 0.0000 0.0000 0.0000 0.3805 0.0000 0.0000
# 5 0.0000 0.0000 0.0000 0.0000 18.1191 0.0000
# 6 0.0000 0.0000 0.0000 0.0000 0.0000 17.1073
#
#
#
# Elastic Compliance Matrix: (Units=1/GPa)
#
#
# Indices 1 2 3 4 5 6 
#
# 1 0.024344 -0.004752 -0.004718 0.000000 0.000000 0.000000
# 2 -0.004752 0.009572 -0.001365 0.000000 0.000000 0.000000
# 3 -0.004718 -0.001365 0.007940 0.000000 0.000000 0.000000
# 4 0.000000 0.000000 0.000000 2.627927 0.000000 0.000000
# 5 0.000000 0.000000 0.000000 0.000000 0.055190 0.000000
# 6 0.000000 0.000000 0.000000 0.000000 0.000000 0.058455
#
#
# Mechanical properties :
#
#
# Convention : Reuss Voigt Hill
#
# Bulk Modulus (GPa) = 49.54186 62.37661 55.95924
# Shear Modulus (GPa) = 1.77820 22.12653 11.95237
#
# Velocity S-wave (km/s) = 0.85270 3.00788 2.21070
# Velocity P-wave (km/s) = 4.60724 6.12930 5.42194
#
# Compressibility (1/GPa) = 0.02018495
#
# Stress axis : x y z
#
# Youngs Moduli (GPa) = 41.07794 104.47601 125.93741
#
# Poissons Ratio (x) = 0.49647 0.59423
# Poissons Ratio (y) = 0.19520 0.17191
# Poissons Ratio (z) = 0.19383 0.14262
#
# Static dielectric constant tensor:
#      x y z
#    x 2.199780 0.000000 0.000000 
#    y 0.000000 2.068350 0.000000 
#    z 0.000000 0.000000 1.901510 
# 
# From -- ./inp_files/10951.got.cif
#   From: 2010.05.17/outbox.cif.g08.bks.cpg/sg21_6_cif.got.tgz:10951.got - 2010.06.03 23:14:55.
