data_PCOD9323450
_publ_section_title
;
Structure prediction by ZEFSAII (Michael W. Deem and Ramdas Pophale) SiO2 
 PCOD9323450
Probable space group: C 2 2 2
;
_chemical_formula_sum "Si O2"
_cell_formula_units_Z 58
_cell_length_a 8.910693
_cell_length_b 16.448573
_cell_length_c 19.086124
_cell_angle_alpha 90.000000
_cell_angle_beta 90.000000
_cell_angle_gamma 90.000000
_cell_volume 2797.418540
_symmetry_space_group_name_H-M "C 2 2 2"
_symmetry_group_IT_number 21
_symmetry_cell_setting 'orthorhombic'
loop_
_space_group_symop_operation_xyz
x,y,z
-x,-y,z
x,-y,-z
-x,y,-z
1/2+x,1/2+y,z
1/2-x,1/2-y,z
1/2+x,1/2-y,-z
1/2-x,1/2+y,-z
loop_
_atom_site_type_symbol
_atom_site_label
_atom_site_fract_x
_atom_site_fract_y
_atom_site_fract_z
Si Si1 0.847179 0.119554 0.609715
Si Si2 0.763587 0.414038 0.760400
Si Si3 0.029587 0.707422 0.581352
Si Si4 0.500000 0.500000 0.500000
Si Si5 0.222834 0.086631 0.826490
Si Si6 0.567393 0.164324 0.280812
Si Si7 0.892768 0.691399 0.936256
Si Si8 0.545296 0.699854 0.180773
O O1 0.835007 0.084703 0.688724
O O2 0.953128 0.197972 0.600910
O O3 0.683636 0.159064 0.596093
O O4 0.897979 0.054776 0.551808
O O5 0.742456 0.493767 0.806309
O O6 0.708815 0.335878 0.804481
O O7 0.935044 0.399418 0.737830
O O8 0.000000 0.699837 0.500000
O O9 0.912125 0.670492 0.636325
O O10 0.288711 0.137582 0.761233
O O11 0.319602 0.117054 0.892973
O O12 0.054577 0.119024 0.832548
O O13 0.507592 0.249006 0.248623
O O14 0.750000 0.750000 0.954980
O O15 0.999194 0.742180 0.883166
O O16 0.000000 0.667929 0.000000
#
# Coordination Sequence:
#
# PCOD9323450 Si02
#       8
#     8   8   8   2   8   8   8   8
#     4  10  23  37  57  84 120 156 205 260 305 372
#     4  11  21  37  61  87 124 155 198 255 312 349
#     4  10  20  41  57  80 115 164 205 254 302 368
#     4  12  24  40  54  92 120 158 210 258 328 368
#     4  10  22  37  59  95 123 148 196 255 302 356
#     4  10  20  37  59  84 115 154 208 247 297 363
#     4   9  20  39  63  91 123 157 201 241 289 366
#     4  10  20  37  61  88 117 156 199 243 290 363
#
# _framework density 20.733401000000001
#
# number of rings (size 3 to 8) (size 9 to 14) (size 15 to 20)
#    0.000    1.931    2.069    2.483    1.931    3.310 
#    4.966    1.724    0.000   26.483    0.000    0.000 
#    0.000    0.000    0.000    0.000    0.000    0.000 
#
# Total GULP energy -161890.233418 kJ/mol
# GULP energy per Si atom -5582.421842 kJ/mol
# Density = 2.068621 g / cm^3
# Si number density = 20.733401 Si / 1000 Ang^3
#
#
#
# Elastic Constant Matrix: (Units=GPa)
#
#
# Indices 1 2 3 4 5 6 
#
# 1 37.5561 11.3840 26.6704 0.0000 0.0000 0.0000
# 2 11.3840 120.3192 34.7357 0.0000 0.0000 0.0000
# 3 26.6704 34.7357 121.1099 0.0000 0.0000 0.0000
# 4 0.0000 0.0000 0.0000 20.7130 0.0000 0.0000
# 5 0.0000 0.0000 0.0000 0.0000 29.9185 0.0000
# 6 0.0000 0.0000 0.0000 0.0000 0.0000 10.5678
#
#
#
# Elastic Compliance Matrix: (Units=1/GPa)
#
#
# Indices 1 2 3 4 5 6 
#
# 1 0.031689 -0.001072 -0.006671 0.000000 0.000000 0.000000
# 2 -0.001072 0.009098 -0.002373 0.000000 0.000000 0.000000
# 3 -0.006671 -0.002373 0.010407 0.000000 0.000000 0.000000
# 4 0.000000 0.000000 0.000000 0.048279 0.000000 0.000000
# 5 0.000000 0.000000 0.000000 0.000000 0.033424 0.000000
# 6 0.000000 0.000000 0.000000 0.000000 0.000000 0.094627
#
#
# Mechanical properties :
#
#
# Convention : Reuss Voigt Hill
#
# Bulk Modulus (GPa) = 32.29900 47.17393 39.73647
# Shear Modulus (GPa) = 19.37406 25.98621 22.68013
#
# Velocity S-wave (km/s) = 3.06017 3.54411 3.31099
# Velocity P-wave (km/s) = 5.30078 6.28885 5.81584
#
# Compressibility (1/GPa) = 0.03096071
#
# Stress axis : x y z
#
# Youngs Moduli (GPa) = 31.55642 109.91637 96.09218
#
# Poissons Ratio (x) = 0.11787 0.64102
# Poissons Ratio (y) = 0.03384 0.22805
# Poissons Ratio (z) = 0.21051 0.26085
#
# Static dielectric constant tensor:
#      x y z
#    x 1.781460 0.000000 0.000000 
#    y 0.000000 1.756400 0.000000 
#    z 0.000000 0.000000 1.750700 
# 
# From -- ./inp_files/35808.got.cif
#   From: 2010.05.17/outbox.cif.g08.bks.cpg/sg21_18_cif.got.tgz:35808.got - 2010.06.03 23:14:55.
