data_PCOD9323931
_publ_section_title
;
Structure prediction by ZEFSAII (Michael W. Deem and Ramdas Pophale) SiO2 
 PCOD9323931
Probable space group: C 2 2 2
;
_chemical_formula_sum "Si O2"
_cell_formula_units_Z 60
_cell_length_a 18.790864
_cell_length_b 5.614007
_cell_length_c 28.191768
_cell_angle_alpha 90.000000
_cell_angle_beta 90.000000
_cell_angle_gamma 90.000000
_cell_volume 2974.007175
_symmetry_space_group_name_H-M "C 2 2 2"
_symmetry_group_IT_number 21
_symmetry_cell_setting 'orthorhombic'
loop_
_space_group_symop_operation_xyz
x,y,z
-x,-y,z
x,-y,-z
-x,y,-z
1/2+x,1/2+y,z
1/2-x,1/2-y,z
1/2+x,1/2-y,-z
1/2-x,1/2+y,-z
loop_
_atom_site_type_symbol
_atom_site_label
_atom_site_fract_x
_atom_site_fract_y
_atom_site_fract_z
Si Si1 0.082781 0.749440 0.481040
Si Si2 0.667023 0.234264 0.386748
Si Si3 0.668968 0.269496 0.670616
Si Si4 0.321721 0.910035 0.896179
Si Si5 0.292591 0.000000 0.000000
Si Si6 0.069630 0.127269 0.158494
Si Si7 0.672219 0.767153 0.802537
Si Si8 0.430900 0.896687 0.747377
O O1 0.113660 0.500000 0.500000
O O2 0.104550 0.744436 0.426002
O O3 0.000000 0.749264 0.500000
O O4 0.112978 0.000000 0.500000
O O5 0.750000 0.250000 0.405141
O O6 0.660943 0.480155 0.356878
O O7 0.659199 0.979085 0.359319
O O8 0.750000 0.250000 0.688770
O O9 0.613014 0.270965 0.713113
O O10 0.250000 0.750000 0.894913
O O11 0.392072 0.765326 0.883265
O O12 0.316958 0.089042 0.851854
O O13 0.329726 0.015759 0.948653
O O14 0.250000 0.750000 0.997577
O O15 0.043401 0.276425 0.203819
O O16 0.132011 0.968222 0.181260
O O17 0.000000 0.000000 0.139881
O O18 0.750000 0.750000 0.780740
O O19 0.622650 0.902467 0.765683
O O20 0.500000 0.000000 0.722122
#
# Coordination Sequence:
#
# PCOD9323931 Si02
#       8
#     8   8   8   8   4   8   8   8
#     4  10  21  39  64  94 127 163 211 264 317 377
#     4  10  22  43  65  95 131 170 214 267 326 384
#     4  10  24  42  66  94 133 175 217 267 326 390
#     4  10  21  37  62 100 122 167 219 270 333 393
#     4  10  22  38  66 101 135 164 214 284 332 396
#     4  11  23  40  63  90 134 169 213 278 336 389
#     4  11  22  37  65  90 125 165 223 274 324 390
#     4  11  25  41  59  96 125 172 225 271 331 396
#
# _framework density 20.174800999999999
#
# number of rings (size 3 to 8) (size 9 to 14) (size 15 to 20)
#    0.000    1.600    2.667    1.200    5.600    1.067 
#    7.200    0.000    0.000    2.400    0.000    0.000 
#    0.000    0.000    0.000    0.000    0.000    0.000 
#
# Total GULP energy -167183.904757 kJ/mol
# GULP energy per Si atom -5572.796825 kJ/mol
# Density = 2.012888 g / cm^3
# Si number density = 20.174801 Si / 1000 Ang^3
#
#
#
# Elastic Constant Matrix: (Units=GPa)
#
#
# Indices 1 2 3 4 5 6 
#
# 1 101.9333 22.5661 43.9134 0.0000 0.0000 0.0000
# 2 22.5661 107.1100 18.7246 0.0000 0.0000 0.0000
# 3 43.9134 18.7246 72.8764 0.0000 0.0000 0.0000
# 4 0.0000 0.0000 0.0000 39.2233 0.0000 0.0000
# 5 0.0000 0.0000 0.0000 0.0000 28.9472 0.0000
# 6 0.0000 0.0000 0.0000 0.0000 0.0000 27.7671
#
#
#
# Elastic Compliance Matrix: (Units=1/GPa)
#
#
# Indices 1 2 3 4 5 6 
#
# 1 0.013472 -0.001486 -0.007736 0.000000 0.000000 0.000000
# 2 -0.001486 0.009939 -0.001658 0.000000 0.000000 0.000000
# 3 -0.007736 -0.001658 0.018810 0.000000 0.000000 0.000000
# 4 0.000000 0.000000 0.000000 0.025495 0.000000 0.000000
# 5 0.000000 0.000000 0.000000 0.000000 0.034546 0.000000
# 6 0.000000 0.000000 0.000000 0.000000 0.000000 0.036014
#
#
# Mechanical properties :
#
#
# Convention : Reuss Voigt Hill
#
# Bulk Modulus (GPa) = 48.87592 50.25865 49.56729
# Shear Modulus (GPa) = 29.96595 32.30190 31.13393
#
# Velocity S-wave (km/s) = 3.85816 4.00572 3.93263
# Velocity P-wave (km/s) = 6.64274 6.80882 6.72629
#
# Compressibility (1/GPa) = 0.02045997
#
# Stress axis : x y z
#
# Youngs Moduli (GPa) = 74.22783 100.61215 53.16455
#
# Poissons Ratio (x) = 0.14950 0.41129
# Poissons Ratio (y) = 0.11030 0.08817
# Poissons Ratio (z) = 0.57423 0.16685
#
# Static dielectric constant tensor:
#      x y z
#    x 1.676980 0.000000 0.000000 
#    y 0.000000 1.758820 0.000000 
#    z 0.000000 0.000000 1.705660 
# 
# From -- ./inp_files/39419.got.cif
#   From: 2010.05.17/outbox.cif.g08.bks.cpg/sg21_20_cif.got.tgz:39419.got - 2010.06.03 23:14:55.
