data_PCOD9323198
_publ_section_title
;
Structure prediction by ZEFSAII (Michael W. Deem and Ramdas Pophale) SiO2 
 PCOD9323198
Probable space group: C 2 2 2
;
_chemical_formula_sum "Si O2"
_cell_formula_units_Z 48
_cell_length_a 9.809540
_cell_length_b 21.612999
_cell_length_c 11.741290
_cell_angle_alpha 90.000000
_cell_angle_beta 90.000000
_cell_angle_gamma 90.000000
_cell_volume 2489.312906
_symmetry_space_group_name_H-M "C 2 2 2"
_symmetry_group_IT_number 21
_symmetry_cell_setting 'orthorhombic'
loop_
_space_group_symop_operation_xyz
x,y,z
-x,-y,z
x,-y,-z
-x,y,-z
1/2+x,1/2+y,z
1/2-x,1/2-y,z
1/2+x,1/2-y,-z
1/2-x,1/2+y,-z
loop_
_atom_site_type_symbol
_atom_site_label
_atom_site_fract_x
_atom_site_fract_y
_atom_site_fract_z
Si Si1 0.156971 0.001825 0.792680
Si Si2 0.029811 0.652048 0.306744
Si Si3 0.713866 0.402260 0.407231
Si Si4 0.579276 0.056659 0.118940
Si Si5 0.479416 0.711274 0.366349
Si Si6 0.217194 0.879702 0.664965
O O1 0.198539 0.932117 0.759889
O O2 0.171969 0.042047 0.675663
O O3 0.264120 0.034199 0.878397
O O4 0.000000 0.000000 0.829632
O O5 0.127626 0.614632 0.392570
O O6 0.063033 0.619381 0.187560
O O7 0.058169 0.724843 0.307620
O O8 0.872010 0.642612 0.335406
O O9 0.634494 0.341624 0.362858
O O10 0.681399 0.408601 0.540589
O O11 0.500000 0.000000 0.181988
O O12 0.500000 0.062573 0.000000
O O13 0.500000 0.726704 0.500000
O O14 0.616013 0.678281 0.320983
#
# Coordination Sequence:
#
# PCOD9323198 Si02
#       6
#     8   8   8   8   8   8
#     4  11  21  37  60  91 118 154 196 239 296 353
#     4  11  21  35  57  83 113 158 206 245 288 351
#     4  10  21  32  54  85 129 165 198 232 277 342
#     4  10  22  43  65  85 107 141 197 260 321 350
#     4  10  20  34  53  82 126 171 197 226 278 348
#     4  11  20  33  53  88 124 166 197 234 278 343
#
# _framework density 19.282429
#
# number of rings (size 3 to 8) (size 9 to 14) (size 15 to 20)
#    0.000    1.500    3.333    3.000    0.000    3.333 
#    0.000    3.333    0.000    8.000    0.000    0.000 
#    0.000    0.000    0.000    0.000    0.000    0.000 
#
# Total GULP energy -133985.593832 kJ/mol
# GULP energy per Si atom -5582.733076 kJ/mol
# Density = 1.923854 g / cm^3
# Si number density = 19.282429 Si / 1000 Ang^3
#
#
#
# Elastic Constant Matrix: (Units=GPa)
#
#
# Indices 1 2 3 4 5 6 
#
# 1 125.7946 21.0976 9.1284 0.0000 0.0000 0.0000
# 2 21.0976 111.4196 30.1039 0.0000 0.0000 0.0000
# 3 9.1284 30.1039 52.0996 0.0000 0.0000 0.0000
# 4 0.0000 0.0000 0.0000 23.6889 0.0000 0.0000
# 5 0.0000 0.0000 0.0000 0.0000 19.4216 0.0000
# 6 0.0000 0.0000 0.0000 0.0000 0.0000 26.4022
#
#
#
# Elastic Compliance Matrix: (Units=1/GPa)
#
#
# Indices 1 2 3 4 5 6 
#
# 1 0.008228 -0.001385 -0.000642 0.000000 0.000000 0.000000
# 2 -0.001385 0.010868 -0.006037 0.000000 0.000000 0.000000
# 3 -0.000642 -0.006037 0.022795 0.000000 0.000000 0.000000
# 4 0.000000 0.000000 0.000000 0.042214 0.000000 0.000000
# 5 0.000000 0.000000 0.000000 0.000000 0.051489 0.000000
# 6 0.000000 0.000000 0.000000 0.000000 0.000000 0.037876
#
#
# Mechanical properties :
#
#
# Convention : Reuss Voigt Hill
#
# Bulk Modulus (GPa) = 38.81331 45.55265 42.18298
# Shear Modulus (GPa) = 25.22890 29.16814 27.19852
#
# Velocity S-wave (km/s) = 3.62109 3.89354 3.75978
# Velocity P-wave (km/s) = 6.13642 6.62481 6.38528
#
# Compressibility (1/GPa) = 0.02576436
#
# Stress axis : x y z
#
# Youngs Moduli (GPa) = 121.53243 92.00918 43.86946
#
# Poissons Ratio (x) = 0.12740 0.02815
# Poissons Ratio (y) = 0.16829 0.26486
# Poissons Ratio (z) = 0.07797 0.55549
#
# Static dielectric constant tensor:
#      x y z
#    x 1.714340 0.000000 0.000000 
#    y 0.000000 1.650790 0.000000 
#    z 0.000000 0.000000 1.686880 
# 
# From -- ./inp_files/22772.got.cif
#   From: 2010.05.17/outbox.cif.g08.bks.cpg/sg21_12_cif.got.tgz:22772.got - 2010.06.03 23:14:55.
