data_PCOD9323070
_publ_section_title
;
Structure prediction by ZEFSAII (Michael W. Deem and Ramdas Pophale) SiO2 
 PCOD9323070
Probable space group: C 2 2 2
;
_chemical_formula_sum "Si O2"
_cell_formula_units_Z 56
_cell_length_a 18.148723
_cell_length_b 14.766303
_cell_length_c 9.124903
_cell_angle_alpha 90.000000
_cell_angle_beta 90.000000
_cell_angle_gamma 90.000000
_cell_volume 2445.378584
_symmetry_space_group_name_H-M "C 2 2 2"
_symmetry_group_IT_number 21
_symmetry_cell_setting 'orthorhombic'
loop_
_space_group_symop_operation_xyz
x,y,z
-x,-y,z
x,-y,-z
-x,y,-z
1/2+x,1/2+y,z
1/2-x,1/2-y,z
1/2+x,1/2-y,-z
1/2-x,1/2+y,-z
loop_
_atom_site_type_symbol
_atom_site_label
_atom_site_fract_x
_atom_site_fract_y
_atom_site_fract_z
Si Si1 0.274184 0.654822 0.597439
Si Si2 0.700371 0.483910 0.848591
Si Si3 0.237904 0.644448 0.276800
Si Si4 0.075790 0.156390 0.077399
Si Si5 0.962466 0.403967 0.772798
Si Si6 0.893882 0.653518 0.939617
Si Si7 0.430560 0.264803 0.396891
O O1 0.250000 0.750000 0.667684
O O2 0.267926 0.578187 0.718829
O O3 0.229771 0.630850 0.450944
O O4 0.357156 0.683779 0.546698
O O5 0.694593 0.582372 0.776534
O O6 0.630131 0.427165 0.901293
O O7 0.743244 0.500000 0.000000
O O8 0.250000 0.750000 0.257142
O O9 0.168726 0.623304 0.173380
O O10 0.057682 0.189498 0.240196
O O11 0.113902 0.242866 0.997353
O O12 0.000000 0.132480 0.000000
O O13 0.927185 0.342887 0.644220
O O14 0.000000 0.500000 0.733000
O O15 0.031307 0.350260 0.844786
O O16 0.906736 0.405707 0.912272
O O17 0.500000 0.277960 0.500000
#
# Coordination Sequence:
#
# PCOD9323070 Si02
#       7
#     8   8   8   8   8   8   8
#     4  10  25  46  70 100 143 196 244 303 366 461
#     4  11  25  42  65 104 141 181 244 307 362 447
#     4  11  25  43  71  97 140 199 239 295 376 456
#     4  10  20  42  71 102 140 186 244 311 363 451
#     4  10  21  38  65 104 144 184 247 313 374 449
#     4  10  19  39  68  98 134 190 249 295 380 442
#     4  10  22  39  69  99 142 190 243 300 379 448
#
# _framework density 22.900338999999999
#
# number of rings (size 3 to 8) (size 9 to 14) (size 15 to 20)
#    0.000    1.714    2.857    2.143    4.000    8.000 
#    0.000    1.429    0.000    0.857    0.000    0.000 
#    0.000    0.000    0.000    0.000    0.000    0.000 
#
# Total GULP energy -156260.958546 kJ/mol
# GULP energy per Si atom -5580.748519 kJ/mol
# Density = 2.284822 g / cm^3
# Si number density = 22.900339 Si / 1000 Ang^3
#
#
#
# Elastic Constant Matrix: (Units=GPa)
#
#
# Indices 1 2 3 4 5 6 
#
# 1 83.1354 26.2711 55.5474 0.0000 0.0000 0.0000
# 2 26.2711 145.1686 64.0607 0.0000 0.0000 0.0000
# 3 55.5474 64.0607 131.8428 0.0000 0.0000 0.0000
# 4 0.0000 0.0000 0.0000 23.1751 0.0000 0.0000
# 5 0.0000 0.0000 0.0000 0.0000 40.1613 0.0000
# 6 0.0000 0.0000 0.0000 0.0000 0.0000 17.9028
#
#
#
# Elastic Compliance Matrix: (Units=1/GPa)
#
#
# Indices 1 2 3 4 5 6 
#
# 1 0.016743 0.000106 -0.007105 0.000000 0.000000 0.000000
# 2 0.000106 0.008769 -0.004305 0.000000 0.000000 0.000000
# 3 -0.007105 -0.004305 0.012670 0.000000 0.000000 0.000000
# 4 0.000000 0.000000 0.000000 0.043150 0.000000 0.000000
# 5 0.000000 0.000000 0.000000 0.000000 0.024900 0.000000
# 6 0.000000 0.000000 0.000000 0.000000 0.000000 0.055857
#
#
# Mechanical properties :
#
#
# Convention : Reuss Voigt Hill
#
# Bulk Modulus (GPa) = 64.21741 72.43392 68.32566
# Shear Modulus (GPa) = 26.33111 30.53235 28.43173
#
# Velocity S-wave (km/s) = 3.39457 3.65536 3.52737
# Velocity P-wave (km/s) = 6.59296 7.03664 6.81841
#
# Compressibility (1/GPa) = 0.01557210
#
# Stress axis : x y z
#
# Youngs Moduli (GPa) = 59.72793 114.03374 78.92520
#
# Poissons Ratio (x) = -0.01203 0.56078
# Poissons Ratio (y) = -0.00630 0.33980
# Poissons Ratio (z) = 0.42438 0.49096
#
# Static dielectric constant tensor:
#      x y z
#    x 2.003120 0.000000 0.000000 
#    y 0.000000 1.923430 0.000000 
#    z 0.000000 0.000000 1.851550 
# 
# From -- ./inp_files/17707.got.cif
#   From: 2010.05.17/outbox.cif.g08.bks.cpg/sg21_9_cif.got.tgz:17707.got - 2010.06.03 23:14:55.
