data_PCOD9323917
_publ_section_title
;
Structure prediction by ZEFSAII (Michael W. Deem and Ramdas Pophale) SiO2 
 PCOD9323917
Probable space group: C 2 2 2
;
_chemical_formula_sum "Si O2"
_cell_formula_units_Z 48
_cell_length_a 8.061612
_cell_length_b 28.633924
_cell_length_c 9.693409
_cell_angle_alpha 90.000000
_cell_angle_beta 90.000000
_cell_angle_gamma 90.000000
_cell_volume 2237.583740
_symmetry_space_group_name_H-M "C 2 2 2"
_symmetry_group_IT_number 21
_symmetry_cell_setting 'orthorhombic'
loop_
_space_group_symop_operation_xyz
x,y,z
-x,-y,z
x,-y,-z
-x,y,-z
1/2+x,1/2+y,z
1/2-x,1/2-y,z
1/2+x,1/2-y,-z
1/2-x,1/2+y,-z
loop_
_atom_site_type_symbol
_atom_site_label
_atom_site_fract_x
_atom_site_fract_y
_atom_site_fract_z
Si Si1 0.000000 0.141242 0.000000
Si Si2 0.500000 0.500000 0.247496
Si Si3 0.159882 0.612641 0.590517
Si Si4 0.277517 0.806342 0.171973
Si Si5 0.500000 0.430548 0.500000
Si Si6 0.269642 0.427948 0.134070
Si Si7 0.301804 0.696755 0.486914
Si Si8 0.000000 0.370792 0.000000
O O1 0.862924 0.172732 0.072202
O O2 0.075235 0.107154 0.116719
O O3 0.533524 0.459463 0.359538
O O4 0.350260 0.478978 0.155185
O O5 0.331697 0.596969 0.520955
O O6 0.161124 0.584889 0.732511
O O7 0.195092 0.667673 0.597884
O O8 0.000000 0.602670 0.500000
O O9 0.250000 0.750000 0.162643
O O10 0.249662 0.818544 0.332268
O O11 0.443038 0.833735 0.119128
O O12 0.151763 0.407749 0.014920
O O13 0.500000 0.692438 0.500000
O O14 0.250000 0.750000 0.502230
#
# Coordination Sequence:
#
# PCOD9323917 Si02
#       8
#     4   4   8   8   4   8   8   4
#     4  10  21  37  64  84 124 174 216 251 325 386
#     4   9  20  41  68  90 118 157 207 264 340 390
#     4  11  21  38  66  94 125 168 208 264 333 390
#     4  10  21  37  59  90 129 173 215 265 306 381
#     4   9  20  40  66  94 124 158 204 264 330 409
#     4  10  22  41  65  92 123 168 216 270 330 396
#     4  11  22  36  56  92 133 169 215 264 322 385
#     4  10  21  40  64  93 128 166 228 263 321 390
#
# _framework density 21.451709999999999
#
# number of rings (size 3 to 8) (size 9 to 14) (size 15 to 20)
#    0.000    1.833    0.833    3.000    2.333    1.667 
#    0.000   10.833    3.667    0.000    0.000    0.000 
#    0.000    0.000    0.000    0.000    0.000    0.000 
#
# Total GULP energy -133669.451394 kJ/mol
# GULP energy per Si atom -5569.560475 kJ/mol
# Density = 2.140289 g / cm^3
# Si number density = 21.451710 Si / 1000 Ang^3
#
#
#
# Elastic Constant Matrix: (Units=GPa)
#
#
# Indices 1 2 3 4 5 6 
#
# 1 76.0318 31.0843 19.0535 0.0000 0.0000 0.0000
# 2 31.0843 86.2719 32.3393 0.0000 0.0000 0.0000
# 3 19.0535 32.3393 52.8999 0.0000 0.0000 0.0000
# 4 0.0000 0.0000 0.0000 39.0629 0.0000 0.0000
# 5 0.0000 0.0000 0.0000 0.0000 33.3140 0.0000
# 6 0.0000 0.0000 0.0000 0.0000 0.0000 31.7250
#
#
#
# Elastic Compliance Matrix: (Units=1/GPa)
#
#
# Indices 1 2 3 4 5 6 
#
# 1 0.015751 -0.004603 -0.002859 0.000000 0.000000 0.000000
# 2 -0.004603 0.016383 -0.008357 0.000000 0.000000 0.000000
# 3 -0.002859 -0.008357 0.025042 0.000000 0.000000 0.000000
# 4 0.000000 0.000000 0.000000 0.025600 0.000000 0.000000
# 5 0.000000 0.000000 0.000000 0.000000 0.030017 0.000000
# 6 0.000000 0.000000 0.000000 0.000000 0.000000 0.031521
#
#
# Mechanical properties :
#
#
# Convention : Reuss Voigt Hill
#
# Bulk Modulus (GPa) = 39.15914 42.23974 40.69944
# Shear Modulus (GPa) = 27.10540 29.66881 28.38710
#
# Velocity S-wave (km/s) = 3.55851 3.72297 3.64167
# Velocity P-wave (km/s) = 5.93112 6.18175 6.05773
#
# Compressibility (1/GPa) = 0.02553682
#
# Stress axis : x y z
#
# Youngs Moduli (GPa) = 63.48850 61.04037 39.93240
#
# Poissons Ratio (x) = 0.28100 0.11416
# Poissons Ratio (y) = 0.29227 0.33372
# Poissons Ratio (z) = 0.18151 0.51012
#
# Static dielectric constant tensor:
#      x y z
#    x 1.792290 0.000000 0.000000 
#    y 0.000000 1.815990 0.000000 
#    z 0.000000 0.000000 1.832630 
# 
# From -- ./inp_files/11620.got.cif
#   From: 2010.05.17/outbox.cif.g08.bks.cpg/sg21_6_cif.got.tgz:11620.got - 2010.06.03 23:14:55.
