data_PCOD9323992
_publ_section_title
;
Structure prediction by ZEFSAII (Michael W. Deem and Ramdas Pophale) SiO2 
 PCOD9323992
Probable space group: C 2 2 2
;
_chemical_formula_sum "Si O2"
_cell_formula_units_Z 64
_cell_length_a 9.214010
_cell_length_b 23.834547
_cell_length_c 15.391824
_cell_angle_alpha 90.000000
_cell_angle_beta 90.000000
_cell_angle_gamma 90.000000
_cell_volume 3380.225472
_symmetry_space_group_name_H-M "C 2 2 2"
_symmetry_group_IT_number 21
_symmetry_cell_setting 'orthorhombic'
loop_
_space_group_symop_operation_xyz
x,y,z
-x,-y,z
x,-y,-z
-x,y,-z
1/2+x,1/2+y,z
1/2-x,1/2-y,z
1/2+x,1/2-y,-z
1/2-x,1/2+y,-z
loop_
_atom_site_type_symbol
_atom_site_label
_atom_site_fract_x
_atom_site_fract_y
_atom_site_fract_z
Si Si1 0.480837 0.644802 0.276039
Si Si2 0.166948 0.607166 0.517720
Si Si3 0.723034 0.445149 0.692236
Si Si4 0.234136 0.431936 0.669954
Si Si5 0.928954 0.803517 0.904908
Si Si6 0.379494 0.707666 0.569575
Si Si7 0.412954 0.825408 0.089932
Si Si8 0.013844 0.562661 0.810294
O O1 0.584481 0.593533 0.300361
O O2 0.319818 0.622846 0.297509
O O3 0.492424 0.661638 0.175633
O O4 0.534278 0.692240 0.342794
O O5 0.186255 0.571310 0.605571
O O6 0.206769 0.573019 0.431808
O O7 0.289407 0.655235 0.529169
O O8 0.000000 0.626532 0.500000
O O9 0.683994 0.510196 0.688545
O O10 0.823538 0.432478 0.775223
O O11 0.088439 0.438678 0.725373
O O12 0.761643 0.822637 0.916798
O O13 0.944411 0.737984 0.876004
O O14 0.000000 0.809699 0.000000
O O15 0.500000 0.726697 0.500000
O O16 0.250000 0.750000 0.589394
O O17 0.463679 0.881580 0.139451
O O18 0.500000 0.827659 0.000000
O O19 0.000000 0.500000 0.852562
#
# Coordination Sequence:
#
# PCOD9323992 Si02
#       8
#     8   8   8   8   8   8   8   8
#     4  11  23  42  63  89 123 164 207 255 325 377
#     4  11  21  37  59  87 122 164 211 260 308 365
#     4  10  23  34  61  92 122 163 210 256 311 366
#     4  11  20  39  60  86 125 165 207 259 304 377
#     4  10  23  43  66  94 121 160 208 263 319 378
#     4  11  24  43  58  89 125 168 211 257 316 381
#     4  10  22  42  67  93 121 155 204 257 317 381
#     4  10  21  38  61  93 126 163 204 252 317 376
#
# _framework density 18.933648000000002
#
# number of rings (size 3 to 8) (size 9 to 14) (size 15 to 20)
#    0.000    1.500    3.750    1.125    1.750    2.750 
#    6.750    1.250    0.000    1.500    0.000    0.000 
#    0.000    0.000    0.000    0.000    0.000    0.000 
#
# Total GULP energy -178338.199692 kJ/mol
# GULP energy per Si atom -5573.068740 kJ/mol
# Density = 1.889055 g / cm^3
# Si number density = 18.933648 Si / 1000 Ang^3
#
#
#
# Elastic Constant Matrix: (Units=GPa)
#
#
# Indices 1 2 3 4 5 6 
#
# 1 66.4179 22.2508 23.0712 0.0000 0.0000 0.0000
# 2 22.2508 89.8470 41.5851 0.0000 0.0000 0.0000
# 3 23.0712 41.5851 86.7641 0.0000 0.0000 0.0000
# 4 0.0000 0.0000 0.0000 23.5890 0.0000 0.0000
# 5 0.0000 0.0000 0.0000 0.0000 25.9874 0.0000
# 6 0.0000 0.0000 0.0000 0.0000 0.0000 26.0267
#
#
#
# Elastic Compliance Matrix: (Units=1/GPa)
#
#
# Indices 1 2 3 4 5 6 
#
# 1 0.017097 -0.002737 -0.003234 0.000000 0.000000 0.000000
# 2 -0.002737 0.014741 -0.006337 0.000000 0.000000 0.000000
# 3 -0.003234 -0.006337 0.015423 0.000000 0.000000 0.000000
# 4 0.000000 0.000000 0.000000 0.042393 0.000000 0.000000
# 5 0.000000 0.000000 0.000000 0.000000 0.038480 0.000000
# 6 0.000000 0.000000 0.000000 0.000000 0.000000 0.038422
#
#
# Mechanical properties :
#
#
# Convention : Reuss Voigt Hill
#
# Bulk Modulus (GPa) = 44.16344 46.31590 45.23967
# Shear Modulus (GPa) = 25.16090 25.52873 25.34482
#
# Velocity S-wave (km/s) = 3.64936 3.67594 3.66267
# Velocity P-wave (km/s) = 6.41351 6.52166 6.46781
#
# Compressibility (1/GPa) = 0.02264316
#
# Stress axis : x y z
#
# Youngs Moduli (GPa) = 58.49116 67.83741 64.83821
#
# Poissons Ratio (x) = 0.18567 0.20970
# Poissons Ratio (y) = 0.16009 0.41091
# Poissons Ratio (z) = 0.18918 0.42992
#
# Static dielectric constant tensor:
#      x y z
#    x 1.650150 0.000000 0.000000 
#    y 0.000000 1.696430 0.000000 
#    z 0.000000 0.000000 1.621230 
# 
# From -- ./inp_files/30924.got.cif
#   From: 2010.05.17/outbox.cif.g08.bks.cpg/sg21_16_cif.got.tgz:30924.got - 2010.06.03 23:14:55.
