data_PCOD9323713
_publ_section_title
;
Structure prediction by ZEFSAII (Michael W. Deem and Ramdas Pophale) SiO2 
 PCOD9323713
Probable space group: C 2 2 2
;
_chemical_formula_sum "Si O2"
_cell_formula_units_Z 48
_cell_length_a 28.633279
_cell_length_b 9.443098
_cell_length_c 9.867475
_cell_angle_alpha 90.000000
_cell_angle_beta 90.000000
_cell_angle_gamma 90.000000
_cell_volume 2668.035578
_symmetry_space_group_name_H-M "C 2 2 2"
_symmetry_group_IT_number 21
_symmetry_cell_setting 'orthorhombic'
loop_
_space_group_symop_operation_xyz
x,y,z
-x,-y,z
x,-y,-z
-x,y,-z
1/2+x,1/2+y,z
1/2-x,1/2-y,z
1/2+x,1/2-y,-z
1/2-x,1/2+y,-z
loop_
_atom_site_type_symbol
_atom_site_label
_atom_site_fract_x
_atom_site_fract_y
_atom_site_fract_z
Si Si1 0.194169 0.225597 0.159331
Si Si2 0.351509 0.511241 0.337701
Si Si3 0.544766 0.577642 0.646923
Si Si4 0.630186 0.997475 0.849666
Si Si5 0.547209 0.076411 0.354200
Si Si6 0.804556 0.227658 0.147414
O O1 0.250000 0.250000 0.177764
O O2 0.161618 0.363769 0.171002
O O3 0.173100 0.121983 0.270063
O O4 0.188295 0.167971 0.005167
O O5 0.349902 0.500000 0.500000
O O6 0.405216 0.535698 0.291769
O O7 0.323374 0.639734 0.272854
O O8 0.500000 0.500000 0.714301
O O9 0.546625 0.500000 0.500000
O O10 0.541460 0.750466 0.636209
O O11 0.590766 0.963852 0.739879
O O12 0.667753 0.873049 0.851238
O O13 0.608141 0.000000 0.000000
O O14 0.500000 0.000000 0.301447
O O15 0.554665 0.000000 0.500000
O O16 0.750000 0.250000 0.162378
#
# Coordination Sequence:
#
# PCOD9323713 Si02
#       6
#     8   8   8   8   8   8
#     4  10  22  39  63  86 116 164 208 236 291 353
#     4  11  23  36  60  92 122 154 192 250 304 341
#     4  10  21  38  60  87 122 155 195 238 297 360
#     4  10  22  38  60  89 120 153 198 252 294 340
#     4  11  23  38  65  91 114 159 199 240 298 361
#     4  10  20  41  63  84 117 162 202 243 286 363
#
# _framework density 17.990765
#
# number of rings (size 3 to 8) (size 9 to 14) (size 15 to 20)
#    0.000    1.667    1.667    3.500    7.000    3.667 
#    0.000    1.667    0.000    2.000    0.000    0.000 
#    0.000    0.000    0.000    0.000    0.000    0.000 
#
# Total GULP energy -133692.055879 kJ/mol
# GULP energy per Si atom -5570.502328 kJ/mol
# Density = 1.794982 g / cm^3
# Si number density = 17.990765 Si / 1000 Ang^3
#
#
#
# Elastic Constant Matrix: (Units=GPa)
#
#
# Indices 1 2 3 4 5 6 
#
# 1 155.5554 62.6855 76.0342 0.0000 0.0000 0.0000
# 2 62.6855 154.5138 67.6356 0.0000 0.0000 0.0000
# 3 76.0342 67.6356 99.3647 0.0000 0.0000 0.0000
# 4 0.0000 0.0000 0.0000 26.0678 0.0000 0.0000
# 5 0.0000 0.0000 0.0000 0.0000 34.0218 0.0000
# 6 0.0000 0.0000 0.0000 0.0000 0.0000 23.1254
#
#
#
# Elastic Compliance Matrix: (Units=1/GPa)
#
#
# Indices 1 2 3 4 5 6 
#
# 1 0.010387 -0.001047 -0.007236 0.000000 0.000000 0.000000
# 2 -0.001047 0.009324 -0.005546 0.000000 0.000000 0.000000
# 3 -0.007236 -0.005546 0.019376 0.000000 0.000000 0.000000
# 4 0.000000 0.000000 0.000000 0.038361 0.000000 0.000000
# 5 0.000000 0.000000 0.000000 0.000000 0.029393 0.000000
# 6 0.000000 0.000000 0.000000 0.000000 0.000000 0.043242
#
#
# Mechanical properties :
#
#
# Convention : Reuss Voigt Hill
#
# Bulk Modulus (GPa) = 87.48626 91.34939 89.41782
# Shear Modulus (GPa) = 27.54049 30.18158 28.86104
#
# Velocity S-wave (km/s) = 3.91680 4.10031 4.00961
# Velocity P-wave (km/s) = 8.31800 8.56170 8.44073
#
# Compressibility (1/GPa) = 0.01143037
#
# Stress axis : x y z
#
# Youngs Moduli (GPa) = 96.27239 107.24861 51.61076
#
# Poissons Ratio (x) = 0.11225 0.37345
# Poissons Ratio (y) = 0.10076 0.28623
# Poissons Ratio (z) = 0.69661 0.59478
#
# Static dielectric constant tensor:
#      x y z
#    x 1.591580 0.000000 0.000000 
#    y 0.000000 1.730550 0.000000 
#    z 0.000000 0.000000 1.617690 
# 
# From -- ./inp_files/11480.got.cif
#   From: 2010.05.17/outbox.cif.g08.bks.cpg/sg21_6_cif.got.tgz:11480.got - 2010.06.03 23:14:55.
