data_PCOD9323171
_publ_section_title
;
Structure prediction by ZEFSAII (Michael W. Deem and Ramdas Pophale) SiO2 
 PCOD9323171
Probable space group: C 2 2 2
;
_chemical_formula_sum "Si O2"
_cell_formula_units_Z 56
_cell_length_a 16.201627
_cell_length_b 19.918222
_cell_length_c 9.045839
_cell_angle_alpha 90.000000
_cell_angle_beta 90.000000
_cell_angle_gamma 90.000000
_cell_volume 2919.161024
_symmetry_space_group_name_H-M "C 2 2 2"
_symmetry_group_IT_number 21
_symmetry_cell_setting 'orthorhombic'
loop_
_space_group_symop_operation_xyz
x,y,z
-x,-y,z
x,-y,-z
-x,y,-z
1/2+x,1/2+y,z
1/2-x,1/2-y,z
1/2+x,1/2-y,-z
1/2-x,1/2+y,-z
loop_
_atom_site_type_symbol
_atom_site_label
_atom_site_fract_x
_atom_site_fract_y
_atom_site_fract_z
Si Si1 0.089727 0.466708 0.329086
Si Si2 0.335241 0.101650 0.788089
Si Si3 0.085170 0.363350 0.073866
Si Si4 0.755503 0.573874 0.517219
Si Si5 0.820868 0.200524 0.638103
Si Si6 0.964660 0.786938 0.150393
Si Si7 0.925740 0.280262 0.392039
O O1 0.132798 0.525790 0.234193
O O2 0.087166 0.401954 0.226108
O O3 0.149046 0.439153 0.461300
O O4 0.000000 0.500000 0.357217
O O5 0.253888 0.098608 0.686812
O O6 0.389022 0.158060 0.701432
O O7 0.341726 0.120608 0.959241
O O8 0.073527 0.284786 0.099728
O O9 0.000000 0.388157 0.000000
O O10 0.716883 0.500000 0.500000
O O11 0.718718 0.632233 0.419665
O O12 0.750000 0.250000 0.699416
O O13 0.890478 0.181551 0.756904
O O14 0.862179 0.242279 0.501239
O O15 0.035830 0.769736 0.269589
O O16 0.000000 0.818842 0.000000
O O17 0.000000 0.303395 0.500000
#
# Coordination Sequence:
#
# PCOD9323171 Si02
#       7
#     8   8   8   8   8   8   8
#     4  11  21  32  49  79 120 167 202 228 283 357
#     4  11  20  30  50  77 114 155 197 238 279 350
#     4  11  19  31  48  77 121 156 197 237 284 340
#     4  10  24  39  54  84 118 155 201 245 303 360
#     4  11  21  37  62  83 122 161 199 249 315 356
#     4  10  20  37  57  86 118 153 203 258 300 359
#     4  10  20  33  55  80 113 150 200 251 295 342
#
# _framework density 19.183595
#
# number of rings (size 3 to 8) (size 9 to 14) (size 15 to 20)
#    0.000    1.429    5.714    1.286    4.000    2.000 
#    0.000    3.571    0.000    3.857    0.000    1.000 
#    0.000    0.000    0.000    0.000    0.000    0.000 
#
# Total GULP energy -156020.249104 kJ/mol
# GULP energy per Si atom -5572.151754 kJ/mol
# Density = 1.913993 g / cm^3
# Si number density = 19.183595 Si / 1000 Ang^3
#
#
#
# Elastic Constant Matrix: (Units=GPa)
#
#
# Indices 1 2 3 4 5 6 
#
# 1 51.0284 19.7524 16.8318 0.0000 0.0000 0.0000
# 2 19.7524 58.9451 2.5663 0.0000 0.0000 0.0000
# 3 16.8318 2.5663 86.7934 0.0000 0.0000 0.0000
# 4 0.0000 0.0000 0.0000 9.0296 0.0000 0.0000
# 5 0.0000 0.0000 0.0000 0.0000 11.5395 0.0000
# 6 0.0000 0.0000 0.0000 0.0000 0.0000 17.0311
#
#
#
# Elastic Compliance Matrix: (Units=1/GPa)
#
#
# Indices 1 2 3 4 5 6 
#
# 1 0.024116 -0.007888 -0.004444 0.000000 0.000000 0.000000
# 2 -0.007888 0.019567 0.000951 0.000000 0.000000 0.000000
# 3 -0.004444 0.000951 0.012355 0.000000 0.000000 0.000000
# 4 0.000000 0.000000 0.000000 0.110746 0.000000 0.000000
# 5 0.000000 0.000000 0.000000 0.000000 0.086659 0.000000
# 6 0.000000 0.000000 0.000000 0.000000 0.000000 0.058716
#
#
# Mechanical properties :
#
#
# Convention : Reuss Voigt Hill
#
# Bulk Modulus (GPa) = 30.05037 30.56310 30.30674
# Shear Modulus (GPa) = 14.45035 18.02779 16.23907
#
# Velocity S-wave (km/s) = 2.74755 3.06886 2.91264
# Velocity P-wave (km/s) = 5.07582 5.34076 5.20997
#
# Compressibility (1/GPa) = 0.03327746
#
# Stress axis : x y z
#
# Youngs Moduli (GPa) = 41.46645 51.10722 80.93738
#
# Poissons Ratio (x) = 0.40312 0.35965
# Poissons Ratio (y) = 0.32708 -0.07698
# Poissons Ratio (z) = 0.18426 -0.04861
#
# Static dielectric constant tensor:
#      x y z
#    x 1.731860 0.000000 0.000000 
#    y 0.000000 1.658910 0.000000 
#    z 0.000000 0.000000 1.772380 
# 
# From -- ./inp_files/16796.got.cif
#   From: 2010.05.17/outbox.cif.g08.bks.cpg/sg21_9_cif.got.tgz:16796.got - 2010.06.03 23:14:55.
