data_PCOD9323447
_publ_section_title
;
Structure prediction by ZEFSAII (Michael W. Deem and Ramdas Pophale) SiO2 
 PCOD9323447
Probable space group: C 2 2 2
;
_chemical_formula_sum "Si O2"
_cell_formula_units_Z 48
_cell_length_a 5.467998
_cell_length_b 14.565407
_cell_length_c 28.510179
_cell_angle_alpha 90.000000
_cell_angle_beta 90.000000
_cell_angle_gamma 90.000000
_cell_volume 2270.653758
_symmetry_space_group_name_H-M "C 2 2 2"
_symmetry_group_IT_number 21
_symmetry_cell_setting 'orthorhombic'
loop_
_space_group_symop_operation_xyz
x,y,z
-x,-y,z
x,-y,-z
-x,y,-z
1/2+x,1/2+y,z
1/2-x,1/2-y,z
1/2+x,1/2-y,-z
1/2-x,1/2+y,-z
loop_
_atom_site_type_symbol
_atom_site_label
_atom_site_fract_x
_atom_site_fract_y
_atom_site_fract_z
Si Si1 0.500000 0.188585 0.500000
Si Si2 0.750000 0.250000 0.863358
Si Si3 0.500823 0.189347 0.295853
Si Si4 0.999669 0.689217 0.398712
Si Si5 0.759163 0.394619 0.019070
Si Si6 0.055797 0.394471 0.803295
Si Si7 0.100193 0.897443 0.118065
O O1 0.750000 0.250000 0.499999
O O2 0.500531 0.138791 0.449290
O O3 0.614096 0.177317 0.830032
O O4 0.579416 0.314910 0.893538
O O5 0.250000 0.250000 0.291208
O O6 0.494333 0.142761 0.347523
O O7 0.528387 0.123114 0.251598
O O8 0.750000 0.250000 0.294605
O O9 0.750000 0.750000 0.398984
O O10 0.250000 0.750000 0.398623
O O11 0.788308 0.395777 0.075398
O O12 0.759219 0.500000 0.000000
O O13 0.500000 0.359796 0.000000
O O14 0.000000 0.347822 0.000000
O O15 0.313182 0.377283 0.828904
O O16 0.000000 0.500000 0.814454
O O17 0.000000 0.000000 0.117380
#
# Coordination Sequence:
#
# PCOD9323447 Si02
#       7
#     4   4   8   8   8   8   8
#     4   8  12  20  36  66 103 144 199 256 316 384
#     4  12  26  46  70 102 136 168 226 274 320 404
#     4  10  20  37  58  85 124 167 214 273 330 391
#     4   8  14  24  43  70 107 153 200 260 324 378
#     4  10  22  40  73 105 132 172 212 260 321 385
#     4  12  26  42  68  95 133 176 222 277 336 393
#     4  12  25  45  75 106 133 182 221 272 335 395
#
# _framework density 21.139285999999998
#
# number of rings (size 3 to 8) (size 9 to 14) (size 15 to 20)
#    0.000    1.667    4.167    1.500    4.667    0.000 
#    0.000    0.000    3.667    0.000    0.000    0.583 
#    0.000    0.000    0.000   38.500    0.000    0.333 
#
# Total GULP energy -133656.256762 kJ/mol
# GULP energy per Si atom -5569.010698 kJ/mol
# Density = 2.109117 g / cm^3
# Si number density = 21.139286 Si / 1000 Ang^3
#
#
#
# Elastic Constant Matrix: (Units=GPa)
#
#
# Indices 1 2 3 4 5 6 
#
# 1 131.1884 25.6907 17.0204 0.0000 0.0000 0.0000
# 2 25.6907 97.7200 21.9729 0.0000 0.0000 0.0000
# 3 17.0204 21.9729 167.5900 0.0000 0.0000 0.0000
# 4 0.0000 0.0000 0.0000 15.7390 0.0000 0.0000
# 5 0.0000 0.0000 0.0000 0.0000 -6.1727 0.0000
# 6 0.0000 0.0000 0.0000 0.0000 0.0000 3.8216
#
#
#
# Elastic Compliance Matrix: (Units=1/GPa)
#
#
# Indices 1 2 3 4 5 6 
#
# 1 0.008087 -0.002000 -0.000559 0.000000 0.000000 0.000000
# 2 -0.002000 0.011039 -0.001244 0.000000 0.000000 0.000000
# 3 -0.000559 -0.001244 0.006187 0.000000 0.000000 0.000000
# 4 0.000000 0.000000 0.000000 0.063537 0.000000 0.000000
# 5 0.000000 0.000000 0.000000 0.000000 -0.162002 0.000000
# 6 0.000000 0.000000 0.000000 0.000000 0.000000 0.261669
#
#
# Mechanical properties :
#
#
# Convention : Reuss Voigt Hill
#
# Bulk Modulus (GPa) = 56.47937 58.42960 57.45449
# Shear Modulus (GPa) = 24.74939 24.79853 24.77396
#
# Velocity S-wave (km/s) = 3.42537 3.42877 3.42707
# Velocity P-wave (km/s) = 6.51306 6.58602 6.54964
#
# Compressibility (1/GPa) = 0.01770558
#
# Stress axis : x y z
#
# Youngs Moduli (GPa) = 123.65706 90.58817 161.63330
#
# Poissons Ratio (x) = 0.18121 0.09036
# Poissons Ratio (y) = 0.24736 0.20110
# Poissons Ratio (z) = 0.06913 0.11271
#
# Static dielectric constant tensor:
#      x y z
#    x 1.860920 0.000000 0.000000 
#    y 0.000000 1.746690 0.000000 
#    z 0.000000 0.000000 1.796950 
# 
# From -- ./inp_files/39082.got.cif
#   From: 2010.05.17/outbox.cif.g08.bks.cpg/sg21_20_cif.got.tgz:39082.got - 2010.06.03 23:14:55.
