data_PCOD9323407
_publ_section_title
;
Structure prediction by ZEFSAII (Michael W. Deem and Ramdas Pophale) SiO2 
 PCOD9323407
Probable space group: C 2 2 2
;
_chemical_formula_sum "Si O2"
_cell_formula_units_Z 40
_cell_length_a 11.499354
_cell_length_b 11.485363
_cell_length_c 13.404901
_cell_angle_alpha 90.000000
_cell_angle_beta 90.000000
_cell_angle_gamma 90.000000
_cell_volume 1770.442312
_symmetry_space_group_name_H-M "C 2 2 2"
_symmetry_group_IT_number 21
_symmetry_cell_setting 'orthorhombic'
loop_
_space_group_symop_operation_xyz
x,y,z
-x,-y,z
x,-y,-z
-x,y,-z
1/2+x,1/2+y,z
1/2-x,1/2-y,z
1/2+x,1/2-y,-z
1/2-x,1/2+y,-z
loop_
_atom_site_type_symbol
_atom_site_label
_atom_site_fract_x
_atom_site_fract_y
_atom_site_fract_z
Si Si1 0.440709 0.261016 0.321387
Si Si2 0.768829 0.554780 0.891720
Si Si3 0.558004 0.727753 0.890610
Si Si4 0.779598 0.569460 0.306651
Si Si5 0.894227 0.931278 0.604622
O O1 0.474090 0.270228 0.204736
O O2 0.327103 0.343689 0.333785
O O3 0.395464 0.131277 0.343508
O O4 0.549787 0.304122 0.387780
O O5 0.645507 0.619158 0.877626
O O6 0.866236 0.654447 0.884216
O O7 0.787327 0.454494 0.810499
O O8 0.772940 0.500000 0.000000
O O9 0.500000 0.721012 0.000000
O O10 0.732051 0.447156 0.348962
O O11 0.886788 0.000000 0.500000
O O12 0.000000 0.000000 0.661445
#
# Coordination Sequence:
#
# PCOD9323407 Si02
#       5
#     8   8   8   8   8
#     4  10  20  36  62  91 121 159 214 262 321 393
#     4  11  23  37  56  87 127 172 218 264 325 393
#     4  11  23  37  56  87 127 172 221 264 323 400
#     4  10  20  36  62  91 121 159 211 263 319 386
#     4   9  18  36  65  87 121 160 204 262 331 386
#
# _framework density 22.593222999999998
#
# number of rings (size 3 to 8) (size 9 to 14) (size 15 to 20)
#    0.000    1.800    2.000    2.400    0.000    8.000 
#    0.000    0.000   35.200    0.000    0.000    0.000 
#    0.000    0.000    0.000    0.000    0.000    0.000 
#
# Total GULP energy -111528.003624 kJ/mol
# GULP energy per Si atom -5576.400181 kJ/mol
# Density = 2.254180 g / cm^3
# Si number density = 22.593223 Si / 1000 Ang^3
#
#
#
# Elastic Constant Matrix: (Units=GPa)
#
#
# Indices 1 2 3 4 5 6 
#
# 1 72.4888 46.8417 33.0325 0.0000 0.0000 0.0000
# 2 46.8417 80.7845 22.7762 0.0000 0.0000 0.0000
# 3 33.0325 22.7762 92.1868 0.0000 0.0000 0.0000
# 4 0.0000 0.0000 0.0000-1362.3449 0.0000 0.0000
# 5 0.0000 0.0000 0.0000 0.0000 -2.4329 0.0000
# 6 0.0000 0.0000 0.0000 0.0000 0.0000 31.2163
#
#
#
# Elastic Compliance Matrix: (Units=1/GPa)
#
#
# Indices 1 2 3 4 5 6 
#
# 1 0.024543 -0.012631 -0.005673 0.000000 0.000000 0.000000
# 2 -0.012631 0.019806 -0.000367 0.000000 0.000000 0.000000
# 3 -0.005673 -0.000367 0.012971 0.000000 0.000000 0.000000
# 4 0.000000 0.000000 0.000000 -0.000734 0.000000 0.000000
# 5 0.000000 0.000000 0.000000 0.000000 -0.411029 0.000000
# 6 0.000000 0.000000 0.000000 0.000000 0.000000 0.032035
#
#
# Mechanical properties :
#
#
# Convention : Reuss Voigt Hill
#
# Bulk Modulus (GPa) = 50.05987 50.08454 50.07220
# Shear Modulus (GPa) = -17.95941 -257.19166 -137.57554
#
# Velocity S-wave (km/s) = -2.82246 -10.68096 -7.81182
# Velocity P-wave (km/s) = 3.40344 11.39712 7.69126
#
# Compressibility (1/GPa) = 0.01997608
#
# Stress axis : x y z
#
# Youngs Moduli (GPa) = 40.74527 50.48921 77.09364
#
# Poissons Ratio (x) = 0.63774 0.43739
# Poissons Ratio (y) = 0.51466 0.02833
# Poissons Ratio (z) = 0.23117 0.01855
#
# Static dielectric constant tensor:
#      x y z
#    x 2.010240 0.000000 0.000000 
#    y 0.000000 1.951550 0.000000 
#    z 0.000000 0.000000 1.847980 
# 
# From -- ./inp_files/31371.got.cif
#   From: 2010.05.17/outbox.cif.g08.bks.cpg/sg21_16_cif.got.tgz:31371.got - 2010.06.03 23:14:55.
