data_PCOD9323207
_publ_section_title
;
Structure prediction by ZEFSAII (Michael W. Deem and Ramdas Pophale) SiO2 
 PCOD9323207
Probable space group: C 2 2 2
;
_chemical_formula_sum "Si O2"
_cell_formula_units_Z 52
_cell_length_a 12.872744
_cell_length_b 17.913055
_cell_length_c 10.780562
_cell_angle_alpha 90.000000
_cell_angle_beta 90.000000
_cell_angle_gamma 90.000000
_cell_volume 2485.891638
_symmetry_space_group_name_H-M "C 2 2 2"
_symmetry_group_IT_number 21
_symmetry_cell_setting 'orthorhombic'
loop_
_space_group_symop_operation_xyz
x,y,z
-x,-y,z
x,-y,-z
-x,y,-z
1/2+x,1/2+y,z
1/2-x,1/2-y,z
1/2+x,1/2-y,-z
1/2-x,1/2+y,-z
loop_
_atom_site_type_symbol
_atom_site_label
_atom_site_fract_x
_atom_site_fract_y
_atom_site_fract_z
Si Si1 0.312726 0.436988 0.074326
Si Si2 0.500000 0.208332 0.000000
Si Si3 0.886892 0.474642 0.782711
Si Si4 0.902939 0.332142 0.635773
Si Si5 0.362257 0.887876 0.381990
Si Si6 0.858896 0.791236 0.195357
Si Si7 0.207822 0.333133 0.875275
O O1 0.213341 0.481706 0.130990
O O2 0.355420 0.380515 0.179637
O O3 0.376460 0.500000 0.000000
O O4 0.278290 0.379094 0.968667
O O5 0.445277 0.259767 0.102379
O O6 0.590847 0.162850 0.069065
O O7 0.881764 0.387357 0.750789
O O8 0.877434 0.525335 0.657284
O O9 0.000000 0.500000 0.833563
O O10 0.834922 0.364865 0.521947
O O11 0.882497 0.246807 0.671506
O O12 0.025405 0.347615 0.622797
O O13 0.294760 0.858864 0.267419
O O14 0.750000 0.750000 0.161658
O O15 0.250000 0.250000 0.876040
#
# Coordination Sequence:
#
# PCOD9323207 Si02
#       7
#     8   4   8   8   8   8   8
#     4  12  23  37  57  89 127 151 204 247 305 366
#     4  12  20  38  62  84 120 156 198 256 310 348
#     4  10  20  34  55  86 123 160 188 237 303 371
#     4  10  20  37  59  87 121 160 204 238 300 366
#     4  10  21  36  58  88 120 159 199 248 299 366
#     4  12  22  38  62  88 119 162 205 252 295 369
#     4  12  23  37  58  88 118 158 202 253 302 362
#
# _framework density 20.918049
#
# number of rings (size 3 to 8) (size 9 to 14) (size 15 to 20)
#    0.000    0.923    7.692    0.462    2.154    2.769 
#    0.000    0.385    0.000    0.000    0.000    0.000 
#    0.000    2.462    0.000    0.000    0.000    0.000 
#
# Total GULP energy -144873.276668 kJ/mol
# GULP energy per Si atom -5572.049103 kJ/mol
# Density = 2.087044 g / cm^3
# Si number density = 20.918049 Si / 1000 Ang^3
#
#
#
# Elastic Constant Matrix: (Units=GPa)
#
#
# Indices 1 2 3 4 5 6 
#
# 1 25.1355 8.2856 5.0952 0.0000 0.0000 0.0000
# 2 8.2856 128.4354 25.2812 0.0000 0.0000 0.0000
# 3 5.0952 25.2812 72.8711 0.0000 0.0000 0.0000
# 4 0.0000 0.0000 0.0000 27.8266 0.0000 0.0000
# 5 0.0000 0.0000 0.0000 0.0000 16.5651 0.0000
# 6 0.0000 0.0000 0.0000 0.0000 0.0000 25.3856
#
#
#
# Elastic Compliance Matrix: (Units=1/GPa)
#
#
# Indices 1 2 3 4 5 6 
#
# 1 0.040943 -0.002230 -0.002089 0.000000 0.000000 0.000000
# 2 -0.002230 0.008478 -0.002785 0.000000 0.000000 0.000000
# 3 -0.002089 -0.002785 0.014835 0.000000 0.000000 0.000000
# 4 0.000000 0.000000 0.000000 0.035937 0.000000 0.000000
# 5 0.000000 0.000000 0.000000 0.000000 0.060368 0.000000
# 6 0.000000 0.000000 0.000000 0.000000 0.000000 0.039392
#
#
# Mechanical properties :
#
#
# Convention : Reuss Voigt Hill
#
# Bulk Modulus (GPa) = 19.98112 33.75178 26.86645
# Shear Modulus (GPa) = 21.65957 26.47415 24.06686
#
# Velocity S-wave (km/s) = 3.22133 3.56140 3.39563
# Velocity P-wave (km/s) = 4.83826 5.75167 5.31463
#
# Compressibility (1/GPa) = 0.05004725
#
# Stress axis : x y z
#
# Youngs Moduli (GPa) = 24.42425 117.95016 67.40695
#
# Poissons Ratio (x) = 0.26304 0.14082
# Poissons Ratio (y) = 0.05447 0.18776
# Poissons Ratio (z) = 0.05102 0.32854
#
# Static dielectric constant tensor:
#      x y z
#    x 1.823750 0.000000 0.000000 
#    y 0.000000 1.810840 0.000000 
#    z 0.000000 0.000000 1.873730 
# 
# From -- ./inp_files/25396.got.cif
#   From: 2010.05.17/outbox.cif.g08.bks.cpg/sg21_13_cif.got.tgz:25396.got - 2010.06.03 23:14:55.
