data_PCOD9323967
_publ_section_title
;
Structure prediction by ZEFSAII (Michael W. Deem and Ramdas Pophale) SiO2 
 PCOD9323967
Probable space group: C 2 2 2
;
_chemical_formula_sum "Si O2"
_cell_formula_units_Z 40
_cell_length_a 16.808444
_cell_length_b 8.581124
_cell_length_c 14.135321
_cell_angle_alpha 90.000000
_cell_angle_beta 90.000000
_cell_angle_gamma 90.000000
_cell_volume 2038.812862
_symmetry_space_group_name_H-M "C 2 2 2"
_symmetry_group_IT_number 21
_symmetry_cell_setting 'orthorhombic'
loop_
_space_group_symop_operation_xyz
x,y,z
-x,-y,z
x,-y,-z
-x,y,-z
1/2+x,1/2+y,z
1/2-x,1/2-y,z
1/2+x,1/2-y,-z
1/2-x,1/2+y,-z
loop_
_atom_site_type_symbol
_atom_site_label
_atom_site_fract_x
_atom_site_fract_y
_atom_site_fract_z
Si Si1 0.652391 0.574961 0.602383
Si Si2 0.600727 0.691448 0.260312
Si Si3 0.701451 0.005665 0.729489
Si Si4 0.801334 0.097739 0.907338
Si Si5 0.050126 0.352607 0.661884
O O1 0.659098 0.500000 0.500000
O O2 0.607035 0.457745 0.672846
O O3 0.740123 0.569322 0.651037
O O4 0.599653 0.732711 0.596198
O O5 0.669203 0.817992 0.290071
O O6 0.621801 0.648644 0.153007
O O7 0.515739 0.764223 0.277875
O O8 0.748361 0.008025 0.828111
O O9 0.619452 0.913296 0.730382
O O10 0.750000 0.250000 0.932905
O O11 0.818065 0.000000 0.000000
O O12 0.000000 0.500000 0.619301
#
# Coordination Sequence:
#
# PCOD9323967 Si02
#       5
#     8   8   8   8   8
#     4  11  22  37  58  84 115 152 193 238 288 349
#     4   9  20  38  57  82 118 151 188 241 294 348
#     4   9  20  38  60  84 113 150 192 240 292 352
#     4   9  18  34  59  86 113 149 193 239 288 346
#     4  10  21  38  59  83 115 154 193 239 296 350
#
# _framework density 19.619261000000002
#
# number of rings (size 3 to 8) (size 9 to 14) (size 15 to 20)
#    0.000    2.400    0.000    3.000    0.000    8.000 
#    0.000    8.000    0.000   48.600    0.000    0.000 
#    0.000    0.000    0.000    0.000    0.000    0.000 
#
# Total GULP energy -111425.022442 kJ/mol
# GULP energy per Si atom -5571.251122 kJ/mol
# Density = 1.957461 g / cm^3
# Si number density = 19.619261 Si / 1000 Ang^3
#
#
#
# Elastic Constant Matrix: (Units=GPa)
#
#
# Indices 1 2 3 4 5 6 
#
# 1 146.5562 47.5300 33.6677 0.0000 0.0000 0.0000
# 2 47.5300 80.5146 41.2861 0.0000 0.0000 0.0000
# 3 33.6677 41.2861 82.5508 0.0000 0.0000 0.0000
# 4 0.0000 0.0000 0.0000 9.2069 0.0000 0.0000
# 5 0.0000 0.0000 0.0000 0.0000 -4.7723 0.0000
# 6 0.0000 0.0000 0.0000 0.0000 0.0000 37.0416
#
#
#
# Elastic Compliance Matrix: (Units=1/GPa)
#
#
# Indices 1 2 3 4 5 6 
#
# 1 0.008540 -0.004378 -0.001293 0.000000 0.000000 0.000000
# 2 -0.004378 0.018949 -0.007691 0.000000 0.000000 0.000000
# 3 -0.001293 -0.007691 0.016488 0.000000 0.000000 0.000000
# 4 0.000000 0.000000 0.000000 0.108615 0.000000 0.000000
# 5 0.000000 0.000000 0.000000 0.000000 -0.209542 0.000000
# 6 0.000000 0.000000 0.000000 0.000000 0.000000 0.026997
#
#
# Mechanical properties :
#
#
# Convention : Reuss Voigt Hill
#
# Bulk Modulus (GPa) = 57.96732 61.62102 59.79417
# Shear Modulus (GPa) = 1982.56403 20.77109 1001.66756
#
# Velocity S-wave (km/s) = 31.82315 3.25731 22.61994
# Velocity P-wave (km/s) = 37.14693 6.75451 26.69754
#
# Compressibility (1/GPa) = 0.01725110
#
# Stress axis : x y z
#
# Youngs Moduli (GPa) = 117.09032 52.77427 60.65098
#
# Poissons Ratio (x) = 0.23107 0.07844
# Poissons Ratio (y) = 0.51267 0.46647
# Poissons Ratio (z) = 0.15144 0.40589
#
# Static dielectric constant tensor:
#      x y z
#    x 1.709400 0.000000 0.000000 
#    y 0.000000 1.804050 0.000000 
#    z 0.000000 0.000000 1.622890 
# 
# From -- ./inp_files/25836.got.cif
#   From: 2010.05.17/outbox.cif.g08.bks.cpg/sg21_13_cif.got.tgz:25836.got - 2010.06.03 23:14:55.
