data_PCOD9323565
_publ_section_title
;
Structure prediction by ZEFSAII (Michael W. Deem and Ramdas Pophale) SiO2 
 PCOD9323565
Probable space group: C 2 2 2
;
_chemical_formula_sum "Si O2"
_cell_formula_units_Z 56
_cell_length_a 15.137327
_cell_length_b 8.635056
_cell_length_c 21.425336
_cell_angle_alpha 90.000000
_cell_angle_beta 90.000000
_cell_angle_gamma 90.000000
_cell_volume 2800.541370
_symmetry_space_group_name_H-M "C 2 2 2"
_symmetry_group_IT_number 21
_symmetry_cell_setting 'orthorhombic'
loop_
_space_group_symop_operation_xyz
x,y,z
-x,-y,z
x,-y,-z
-x,y,-z
1/2+x,1/2+y,z
1/2-x,1/2-y,z
1/2+x,1/2-y,-z
1/2-x,1/2+y,-z
loop_
_atom_site_type_symbol
_atom_site_label
_atom_site_fract_x
_atom_site_fract_y
_atom_site_fract_z
Si Si1 0.425308 0.606115 0.871330
Si Si2 0.997275 0.826551 0.574486
Si Si3 0.825125 0.621363 0.558538
Si Si4 0.500000 0.259629 0.000000
Si Si5 0.403326 0.913115 0.651168
Si Si6 0.240972 0.433986 0.879857
Si Si7 0.903616 0.420643 0.795390
Si Si8 0.141665 0.500000 0.000000
O O1 0.500000 0.500000 0.840152
O O2 0.336736 0.506897 0.871221
O O3 0.408307 0.765039 0.835650
O O4 0.462684 0.649094 0.940417
O O5 0.908198 0.727350 0.578867
O O6 0.000000 0.837495 0.500000
O O7 0.075983 0.732760 0.606893
O O8 0.000000 0.000000 0.600201
O O9 0.837108 0.500000 0.500000
O O10 0.750000 0.750000 0.546412
O O11 0.824058 0.508562 0.618703
O O12 0.579649 0.144291 0.017788
O O13 0.384800 0.882484 0.723268
O O14 0.500000 0.000000 0.650831
O O15 0.250000 0.250000 0.890510
O O16 0.172539 0.470626 0.824242
O O17 0.201381 0.522311 0.939939
O O18 0.000000 0.500000 0.800303
#
# Coordination Sequence:
#
# PCOD9323565 Si02
#       8
#     8   8   8   4   8   8   8   4
#     4  12  26  43  66  98 133 178 222 273 334 393
#     4  10  20  38  65  94 129 170 219 266 324 391
#     4  11  23  38  60  96 135 168 216 275 329 379
#     4  11  23  42  66  94 132 168 218 278 338 392
#     4   9  21  41  68  94 127 179 219 267 323 397
#     4  12  27  43  67  97 134 177 222 276 332 399
#     4  11  23  46  69  97 135 173 226 272 334 400
#     4  11  24  40  65  96 128 168 219 276 339 396
#
# _framework density 19.996134999999999
#
# number of rings (size 3 to 8) (size 9 to 14) (size 15 to 20)
#    0.000    1.143    2.857    3.214    6.000    1.143 
#    0.000    7.143    0.000    0.000    0.000    0.000 
#    0.000    0.000    0.000    0.000    0.000    0.000 
#
# Total GULP energy -156122.582669 kJ/mol
# GULP energy per Si atom -5575.806524 kJ/mol
# Density = 1.995062 g / cm^3
# Si number density = 19.996135 Si / 1000 Ang^3
#
#
#
# Elastic Constant Matrix: (Units=GPa)
#
#
# Indices 1 2 3 4 5 6 
#
# 1 108.8426 45.7520 28.4392 0.0000 0.0000 0.0000
# 2 45.7520 117.5148 38.8165 0.0000 0.0000 0.0000
# 3 28.4392 38.8165 113.4095 0.0000 0.0000 0.0000
# 4 0.0000 0.0000 0.0000 -210.0848 0.0000 0.0000
# 5 0.0000 0.0000 0.0000 0.0000 6.8772 0.0000
# 6 0.0000 0.0000 0.0000 0.0000 0.0000 -19.4960
#
#
#
# Elastic Compliance Matrix: (Units=1/GPa)
#
#
# Indices 1 2 3 4 5 6 
#
# 1 0.011203 -0.003871 -0.001484 0.000000 0.000000 0.000000
# 2 -0.003871 0.010932 -0.002771 0.000000 0.000000 0.000000
# 3 -0.001484 -0.002771 0.010138 0.000000 0.000000 0.000000
# 4 0.000000 0.000000 0.000000 -0.004760 0.000000 0.000000
# 5 0.000000 0.000000 0.000000 0.000000 0.145409 0.000000
# 6 0.000000 0.000000 0.000000 0.000000 0.000000 -0.051293
#
#
# Mechanical properties :
#
#
# Convention : Reuss Voigt Hill
#
# Bulk Modulus (GPa) = 62.42170 62.86472 62.64321
# Shear Modulus (GPa) = 34.91086 -29.42345 2.74370
#
# Velocity S-wave (km/s) = 4.18291 -3.84012 1.17264
# Velocity P-wave (km/s) = 7.39010 3.44161 5.76447
#
# Compressibility (1/GPa) = 0.01602007
#
# Stress axis : x y z
#
# Youngs Moduli (GPa) = 89.26432 91.47425 98.63693
#
# Poissons Ratio (x) = 0.35412 0.14640
# Poissons Ratio (y) = 0.34557 0.27331
# Poissons Ratio (z) = 0.13249 0.25347
#
# Static dielectric constant tensor:
#      x y z
#    x 2.262560 0.000000 0.000000 
#    y 0.000000 1.772290 0.000000 
#    z 0.000000 0.000000 1.751180 
# 
# From -- ./inp_files/37614.got.cif
#   From: 2010.05.17/outbox.cif.g08.bks.cpg/sg21_19_cif.got.tgz:37614.got - 2010.06.03 23:14:55.
