data_PCOD9323244
_publ_section_title
;
Structure prediction by ZEFSAII (Michael W. Deem and Ramdas Pophale) SiO2 
 PCOD9323244
Probable space group: C 2 2 2
;
_chemical_formula_sum "Si O2"
_cell_formula_units_Z 28
_cell_length_a 7.071537
_cell_length_b 12.087224
_cell_length_c 12.039910
_cell_angle_alpha 90.000000
_cell_angle_beta 90.000000
_cell_angle_gamma 90.000000
_cell_volume 1029.114338
_symmetry_space_group_name_H-M "C 2 2 2"
_symmetry_group_IT_number 21
_symmetry_cell_setting 'orthorhombic'
loop_
_space_group_symop_operation_xyz
x,y,z
-x,-y,z
x,-y,-z
-x,y,-z
1/2+x,1/2+y,z
1/2-x,1/2-y,z
1/2+x,1/2-y,-z
1/2-x,1/2+y,-z
loop_
_atom_site_type_symbol
_atom_site_label
_atom_site_fract_x
_atom_site_fract_y
_atom_site_fract_z
Si Si1 0.277324 0.373814 0.974528
Si Si2 0.723302 0.098037 0.273430
Si Si3 0.250000 0.750000 0.459206
Si Si4 0.167614 0.862072 0.680050
O O1 0.250000 0.250000 0.024002
O O2 0.188769 0.363108 0.850496
O O3 0.208928 0.500000 0.000000
O O4 0.500000 0.385744 0.000000
O O5 0.635728 0.172093 0.372446
O O6 0.951576 0.116108 0.287689
O O7 0.706114 0.966987 0.287776
O O8 0.174391 0.839204 0.547849
O O9 0.250000 0.750000 0.730540
#
# Coordination Sequence:
#
# PCOD9323244 Si02
#       4
#     8   8   4   8
#     4  11  25  45  72  95 129 170 225 281 334 381
#     4  11  20  41  62  90 124 168 204 260 321 371
#     4  10  20  34  60  92 126 170 198 252 312 380
#     4   9  21  34  63  90 127 164 207 245 306 388
#
# _framework density 27.207858999999999
#
# number of rings (size 3 to 8) (size 9 to 14) (size 15 to 20)
#    0.857    0.857    1.429    5.143    0.000    7.429 
#    0.000    1.429    6.286    0.000    0.000    0.000 
#    0.000    0.000    0.000    0.000    0.000    0.000 
#
# Total GULP energy -78027.797419 kJ/mol
# GULP energy per Si atom -5573.414101 kJ/mol
# Density = 2.714593 g / cm^3
# Si number density = 27.207859 Si / 1000 Ang^3
#
#
#
# Elastic Constant Matrix: (Units=GPa)
#
#
# Indices 1 2 3 4 5 6 
#
# 1 75.9026 16.0271 -17.6646 0.0000 0.0000 0.0000
# 2 16.0271 299.2478 31.4789 0.0000 0.0000 0.0000
# 3 -17.6646 31.4789 146.3518 0.0000 0.0000 0.0000
# 4 0.0000 0.0000 0.0000-7295.8621 0.0000 0.0000
# 5 0.0000 0.0000 0.0000 0.0000 11.3395 0.0000
# 6 0.0000 0.0000 0.0000 0.0000 0.0000 39.4800
#
#
#
# Elastic Compliance Matrix: (Units=1/GPa)
#
#
# Indices 1 2 3 4 5 6 
#
# 1 0.013807 -0.000936 0.001868 0.000000 0.000000 0.000000
# 2 -0.000936 0.003483 -0.000862 0.000000 0.000000 0.000000
# 3 0.001868 -0.000862 0.007244 0.000000 0.000000 0.000000
# 4 0.000000 0.000000 0.000000 -0.000137 0.000000 0.000000
# 5 0.000000 0.000000 0.000000 0.000000 0.088187 0.000000
# 6 0.000000 0.000000 0.000000 0.000000 0.000000 0.025329
#
#
# Mechanical properties :
#
#
# Convention : Reuss Voigt Hill
#
# Bulk Modulus (GPa) = 40.53011 64.57612 52.55312
# Shear Modulus (GPa) = 34.24722 -1416.23114 -690.99196
#
# Velocity S-wave (km/s) = 3.55170 -22.83972 -15.95366
# Velocity P-wave (km/s) = 5.63456 25.91816 17.88859
#
# Compressibility (1/GPa) = 0.02467301
#
# Stress axis : x y z
#
# Youngs Moduli (GPa) = 72.42643 287.14837 138.05081
#
# Poissons Ratio (x) = 0.26876 -0.25786
# Poissons Ratio (y) = 0.06779 0.11900
# Poissons Ratio (z) = -0.13528 0.24753
#
# Static dielectric constant tensor:
#      x y z
#    x 5.096520 0.000000 0.000000 
#    y 0.000000 2.182320 0.000000 
#    z 0.000000 0.000000 2.097650 
# 
# From -- ./inp_files/23364.got.cif
#   From: 2010.05.17/outbox.cif.g08.bks.cpg/sg21_12_cif.got.tgz:23364.got - 2010.06.03 23:14:55.
