data_PCOD9323722
_publ_section_title
;
Structure prediction by ZEFSAII (Michael W. Deem and Ramdas Pophale) SiO2 
 PCOD9323722
Probable space group: C 2 2 2
;
_chemical_formula_sum "Si O2"
_cell_formula_units_Z 48
_cell_length_a 10.459034
_cell_length_b 10.372238
_cell_length_c 22.876362
_cell_angle_alpha 90.000000
_cell_angle_beta 90.000000
_cell_angle_gamma 90.000000
_cell_volume 2481.709874
_symmetry_space_group_name_H-M "C 2 2 2"
_symmetry_group_IT_number 21
_symmetry_cell_setting 'orthorhombic'
loop_
_space_group_symop_operation_xyz
x,y,z
-x,-y,z
x,-y,-z
-x,y,-z
1/2+x,1/2+y,z
1/2-x,1/2-y,z
1/2+x,1/2-y,-z
1/2-x,1/2+y,-z
loop_
_atom_site_type_symbol
_atom_site_label
_atom_site_fract_x
_atom_site_fract_y
_atom_site_fract_z
Si Si1 0.898797 0.617613 0.653961
Si Si2 0.223951 0.546524 0.750856
Si Si3 0.861575 0.141217 0.026595
Si Si4 0.957485 0.221936 0.739452
Si Si5 0.846673 0.868321 0.836566
Si Si6 0.146684 0.646220 0.480112
O O1 0.806122 0.565551 0.704834
O O2 0.847159 0.644456 0.590184
O O3 0.000000 0.500000 0.646412
O O4 0.963084 0.743423 0.682057
O O5 0.103287 0.640591 0.758476
O O6 0.339942 0.629781 0.725690
O O7 0.270773 0.490958 0.812176
O O8 0.750000 0.250000 0.017999
O O9 0.882689 0.121887 0.096020
O O10 0.000000 0.179774 0.000000
O O11 0.827032 0.000000 0.000000
O O12 0.039046 0.160950 0.791626
O O13 0.750000 0.750000 0.831254
O O14 0.175011 0.500000 0.500000
O O15 0.250000 0.750000 0.502645
O O16 0.000000 0.675175 0.500000
#
# Coordination Sequence:
#
# PCOD9323722 Si02
#       6
#     8   8   8   8   8   8
#     4  10  20  41  65  92 135 169 214 266 327 397
#     4  10  22  37  60  96 128 165 204 264 329 387
#     4  10  25  45  66  97 131 184 229 278 332 400
#     4  10  22  37  60  96 128 165 204 264 329 387
#     4  11  22  40  64  90 134 170 214 263 330 395
#     4  11  25  46  69  97 132 187 227 279 333 396
#
# _framework density 19.341505000000002
#
# number of rings (size 3 to 8) (size 9 to 14) (size 15 to 20)
#    0.000    1.667    3.333    0.500    7.000    3.333 
#    0.000    3.333    0.000    0.000    0.000    0.000 
#    0.000    0.000    0.000    0.000    0.000    0.000 
#
# Total GULP energy -133952.934462 kJ/mol
# GULP energy per Si atom -5581.372269 kJ/mol
# Density = 1.929748 g / cm^3
# Si number density = 19.341505 Si / 1000 Ang^3
#
#
#
# Elastic Constant Matrix: (Units=GPa)
#
#
# Indices 1 2 3 4 5 6 
#
# 1 80.2594 41.1071 28.0538 0.0000 0.0000 0.0000
# 2 41.1071 79.7409 20.1684 0.0000 0.0000 0.0000
# 3 28.0538 20.1684 104.6902 0.0000 0.0000 0.0000
# 4 0.0000 0.0000 0.0000 26.4029 0.0000 0.0000
# 5 0.0000 0.0000 0.0000 0.0000 -38.1652 0.0000
# 6 0.0000 0.0000 0.0000 0.0000 0.0000 38.4665
#
#
#
# Elastic Compliance Matrix: (Units=1/GPa)
#
#
# Indices 1 2 3 4 5 6 
#
# 1 0.017877 -0.008414 -0.003170 0.000000 0.000000 0.000000
# 2 -0.008414 0.017143 -0.001048 0.000000 0.000000 0.000000
# 3 -0.003170 -0.001048 0.010603 0.000000 0.000000 0.000000
# 4 0.000000 0.000000 0.000000 0.037875 0.000000 0.000000
# 5 0.000000 0.000000 0.000000 0.000000 -0.026202 0.000000
# 6 0.000000 0.000000 0.000000 0.000000 0.000000 0.025997
#
#
# Mechanical properties :
#
#
# Convention : Reuss Voigt Hill
#
# Bulk Modulus (GPa) = 49.11501 49.26099 49.18800
# Shear Modulus (GPa) = 43.34917 17.03160 30.19038
#
# Velocity S-wave (km/s) = 4.73932 2.97066 3.95512
# Velocity P-wave (km/s) = 7.44291 6.10662 6.80763
#
# Compressibility (1/GPa) = 0.02036038
#
# Stress axis : x y z
#
# Youngs Moduli (GPa) = 55.93788 58.33226 94.31110
#
# Poissons Ratio (x) = 0.49081 0.29892
# Poissons Ratio (y) = 0.47067 0.09883
# Poissons Ratio (z) = 0.17730 0.06113
#
# Static dielectric constant tensor:
#      x y z
#    x 1.712400 0.000000 0.000000 
#    y 0.000000 1.730260 0.000000 
#    z 0.000000 0.000000 1.640080 
# 
# From -- ./inp_files/38488.got.cif
#   From: 2010.05.17/outbox.cif.g08.bks.cpg/sg21_20_cif.got.tgz:38488.got - 2010.06.03 23:14:55.
