data_PCOD9323320
_publ_section_title
;
Structure prediction by ZEFSAII (Michael W. Deem and Ramdas Pophale) SiO2 
 PCOD9323320
Probable space group: C 2 2 2
;
_chemical_formula_sum "Si O2"
_cell_formula_units_Z 64
_cell_length_a 8.614801
_cell_length_b 15.826974
_cell_length_c 24.299912
_cell_angle_alpha 90.000000
_cell_angle_beta 90.000000
_cell_angle_gamma 90.000000
_cell_volume 3313.201426
_symmetry_space_group_name_H-M "C 2 2 2"
_symmetry_group_IT_number 21
_symmetry_cell_setting 'orthorhombic'
loop_
_space_group_symop_operation_xyz
x,y,z
-x,-y,z
x,-y,-z
-x,y,-z
1/2+x,1/2+y,z
1/2-x,1/2-y,z
1/2+x,1/2-y,-z
1/2-x,1/2+y,-z
loop_
_atom_site_type_symbol
_atom_site_label
_atom_site_fract_x
_atom_site_fract_y
_atom_site_fract_z
Si Si1 0.185101 0.601157 0.000000
Si Si2 0.815087 0.500000 0.184105
Si Si3 0.687070 0.339787 0.618926
Si Si4 0.310823 0.401506 0.500000
Si Si5 0.812930 0.160213 0.381074
Si Si6 0.314842 0.341082 0.116807
Si Si7 0.814842 0.158918 0.116807
Si Si8 0.311897 0.500000 0.306958
O O1 0.257664 0.640321 0.054786
O O2 0.212265 0.500000 0.000000
O O3 0.257664 0.640321 0.945214
O O4 0.000000 0.615256 0.000000
O O5 0.748382 0.583016 0.154242
O O6 0.748382 0.416984 0.154242
O O7 0.764175 0.500000 0.247412
O O8 0.000000 0.500000 0.178472
O O9 0.750000 0.250000 0.637921
O O10 0.741878 0.358305 0.556448
O O11 0.500000 0.337563 0.617941
O O12 0.732367 0.417226 0.658066
O O13 0.265970 0.500000 0.500000
O O14 0.500000 0.399807 0.500000
O O15 0.258122 0.358305 0.556448
O O16 0.750000 0.250000 0.362079
O O17 0.767633 0.082774 0.341934
O O18 0.250000 0.250000 0.134321
O O19 0.500000 0.340316 0.118410
O O20 0.750000 0.250000 0.134321
O O21 0.500000 0.500000 0.301273
#
# Coordination Sequence:
#
# PCOD9323320 Si02
#       8
#     8   8   8   8   8   8   8   8
#     4  11  22  39  66  98 135 171 207 251 306 370
#     4  12  26  45  66  91 123 162 210 264 315 368
#     4  10  20  35  59  87 118 154 197 245 298 361
#     4   9  15  30  57  86 115 154 197 237 290 362
#     4  10  20  35  59  87 118 154 197 245 298 361
#     4  12  25  43  68  97 130 167 209 256 311 371
#     4  12  25  43  68  97 130 167 209 256 311 371
#     4  10  22  41  61  83 114 160 207 248 300 366
#
# _framework density 19.316662999999998
#
# number of rings (size 3 to 8) (size 9 to 14) (size 15 to 20)
#    0.000    1.250    2.500    4.500    0.000    2.500 
#    0.000    2.500    0.000    0.750    0.000    0.000 
#    0.000    0.000    0.000    0.000    0.000    0.000 
#
# Total GULP energy -178976.046821 kJ/mol
# GULP energy per Si atom -5593.001463 kJ/mol
# Density = 1.927270 g / cm^3
# Si number density = 19.316663 Si / 1000 Ang^3
#
#
#
# Elastic Constant Matrix: (Units=GPa)
#
#
# Indices 1 2 3 4 5 6 
#
# 1 95.6401 68.3580 50.0418 0.0000 0.0000 0.0000
# 2 68.3580 205.3426 90.7632 0.0000 0.0000 0.0000
# 3 50.0418 90.7632 144.2068 0.0000 0.0000 0.0000
# 4 0.0000 0.0000 0.0000 -4.6597 0.0000 0.0000
# 5 0.0000 0.0000 0.0000 0.0000 -34.7209 0.0000
# 6 0.0000 0.0000 0.0000 0.0000 0.0000 31.9825
#
#
#
# Elastic Compliance Matrix: (Units=1/GPa)
#
#
# Indices 1 2 3 4 5 6 
#
# 1 0.014470 -0.003599 -0.002756 0.000000 0.000000 0.000000
# 2 -0.003599 0.007642 -0.003561 0.000000 0.000000 0.000000
# 3 -0.002756 -0.003561 0.010132 0.000000 0.000000 0.000000
# 4 0.000000 0.000000 0.000000 -0.214607 0.000000 0.000000
# 5 0.000000 0.000000 0.000000 0.000000 -0.028801 0.000000
# 6 0.000000 0.000000 0.000000 0.000000 0.000000 0.031267
#
#
# Mechanical properties :
#
#
# Convention : Reuss Voigt Hill
#
# Bulk Modulus (GPa) = 80.56551 95.94616 88.25583
# Shear Modulus (GPa) = -32.06621 14.25548 -8.90537
#
# Velocity S-wave (km/s) = -4.07876 2.71954 -2.14947
# Velocity P-wave (km/s) = 4.42906 7.72264 6.29507
#
# Compressibility (1/GPa) = 0.01241226
#
# Stress axis : x y z
#
# Youngs Moduli (GPa) = 69.10723 130.85725 98.69507
#
# Poissons Ratio (x) = 0.47093 0.27203
# Poissons Ratio (y) = 0.24870 0.35145
# Poissons Ratio (z) = 0.19048 0.46598
#
# Static dielectric constant tensor:
#      x y z
#    x 1.649880 0.000000 0.000000 
#    y 0.000000 1.659360 0.000000 
#    z 0.000000 0.000000 1.649470 
# 
# From -- ./inp_files/38529.got.cif
#   From: 2010.05.17/outbox.cif.g08.bks.cpg/sg21_20_cif.got.tgz:38529.got - 2010.06.03 23:14:55.
