data_PCOD9323524
_publ_section_title
;
Structure prediction by ZEFSAII (Michael W. Deem and Ramdas Pophale) SiO2 
 PCOD9323524
Probable space group: C 2 2 2
;
_chemical_formula_sum "Si O2"
_cell_formula_units_Z 52
_cell_length_a 15.262857
_cell_length_b 19.433313
_cell_length_c 8.319138
_cell_angle_alpha 90.000000
_cell_angle_beta 90.000000
_cell_angle_gamma 90.000000
_cell_volume 2467.521864
_symmetry_space_group_name_H-M "C 2 2 2"
_symmetry_group_IT_number 21
_symmetry_cell_setting 'orthorhombic'
loop_
_space_group_symop_operation_xyz
x,y,z
-x,-y,z
x,-y,-z
-x,y,-z
1/2+x,1/2+y,z
1/2-x,1/2-y,z
1/2+x,1/2-y,-z
1/2-x,1/2+y,-z
loop_
_atom_site_type_symbol
_atom_site_label
_atom_site_fract_x
_atom_site_fract_y
_atom_site_fract_z
Si Si1 0.103902 0.495931 0.310343
Si Si2 0.000000 0.271453 0.000000
Si Si3 0.164041 0.356515 0.130700
Si Si4 0.488261 0.307397 0.323661
Si Si5 0.619584 0.430444 0.396686
Si Si6 0.752611 0.563204 0.878904
Si Si7 0.710086 0.685711 0.405023
O O1 0.124650 0.500000 0.500000
O O2 0.132480 0.426982 0.217065
O O3 0.158888 0.555844 0.225385
O O4 0.000000 0.500000 0.292442
O O5 0.081684 0.317608 0.056316
O O6 0.977545 0.227148 0.160587
O O7 0.214442 0.320274 0.274179
O O8 0.234538 0.370992 0.990516
O O9 0.500000 0.270857 0.500000
O O10 0.537551 0.380759 0.350957
O O11 0.383436 0.309837 0.314492
O O12 0.602598 0.500000 0.500000
O O13 0.669044 0.445999 0.232241
O O14 0.689637 0.381901 0.490520
O O15 0.750522 0.500000 0.000000
O O16 0.750000 0.750000 0.506568
#
# Coordination Sequence:
#
# PCOD9323524 Si02
#       7
#     8   4   8   8   8   8   8
#     4  10  20  38  59  93 135 179 232 292 361 441
#     4  12  24  46  69 105 150 186 248 314 376 470
#     4  11  23  38  67  99 137 187 232 299 374 445
#     4  10  26  47  72 100 143 189 244 306 375 444
#     4  11  24  46  74 104 143 193 250 309 374 453
#     4  10  21  37  62 100 135 175 235 296 366 443
#     4  11  23  45  70  97 143 182 236 303 368 437
#
# _framework density 21.073775000000001
#
# number of rings (size 3 to 8) (size 9 to 14) (size 15 to 20)
#    0.000    1.385    1.538    4.154    2.154    7.385 
#    5.538    0.000    0.000    0.000    0.000    0.000 
#    0.000    0.000    0.000    0.000    0.000    0.000 
#
# Total GULP energy -144900.528854 kJ/mol
# GULP energy per Si atom -5573.097264 kJ/mol
# Density = 2.102581 g / cm^3
# Si number density = 21.073775 Si / 1000 Ang^3
#
#
#
# Elastic Constant Matrix: (Units=GPa)
#
#
# Indices 1 2 3 4 5 6 
#
# 1 94.2743 35.4804 34.5430 0.0000 0.0000 0.0000
# 2 35.4804 94.7437 42.7984 0.0000 0.0000 0.0000
# 3 34.5430 42.7984 124.0396 0.0000 0.0000 0.0000
# 4 0.0000 0.0000 0.0000 23.5048 0.0000 0.0000
# 5 0.0000 0.0000 0.0000 0.0000 27.9691 0.0000
# 6 0.0000 0.0000 0.0000 0.0000 0.0000 17.0410
#
#
#
# Elastic Compliance Matrix: (Units=1/GPa)
#
#
# Indices 1 2 3 4 5 6 
#
# 1 0.012868 -0.003791 -0.002275 0.000000 0.000000 0.000000
# 2 -0.003791 0.013621 -0.003644 0.000000 0.000000 0.000000
# 3 -0.002275 -0.003644 0.009953 0.000000 0.000000 0.000000
# 4 0.000000 0.000000 0.000000 0.042545 0.000000 0.000000
# 5 0.000000 0.000000 0.000000 0.000000 0.035754 0.000000
# 6 0.000000 0.000000 0.000000 0.000000 0.000000 0.058682
#
#
# Mechanical properties :
#
#
# Convention : Reuss Voigt Hill
#
# Bulk Modulus (GPa) = 58.75216 59.85568 59.30392
# Shear Modulus (GPa) = 25.18693 27.05203 26.11948
#
# Velocity S-wave (km/s) = 3.46089 3.58674 3.52437
# Velocity P-wave (km/s) = 6.62647 6.75407 6.69058
#
# Compressibility (1/GPa) = 0.01702065
#
# Stress axis : x y z
#
# Youngs Moduli (GPa) = 77.71312 73.41874 100.47333
#
# Poissons Ratio (x) = 0.27833 0.22862
# Poissons Ratio (y) = 0.29461 0.36611
# Poissons Ratio (z) = 0.17683 0.26753
#
# Static dielectric constant tensor:
#      x y z
#    x 1.810390 0.000000 0.000000 
#    y 0.000000 1.927830 0.000000 
#    z 0.000000 0.000000 1.801960 
# 
# From -- ./inp_files/15229.got.cif
#   From: 2010.05.17/outbox.cif.g08.bks.cpg/sg21_8_cif.got.tgz:15229.got - 2010.06.03 23:14:55.
