data_PCOD9323111
_publ_section_title
;
Structure prediction by ZEFSAII (Michael W. Deem and Ramdas Pophale) SiO2 
 PCOD9323111
Probable space group: C 2 2 2
;
_chemical_formula_sum "Si O2"
_cell_formula_units_Z 46
_cell_length_a 10.041610
_cell_length_b 23.992276
_cell_length_c 11.139253
_cell_angle_alpha 90.000000
_cell_angle_beta 90.000000
_cell_angle_gamma 90.000000
_cell_volume 2683.680848
_symmetry_space_group_name_H-M "C 2 2 2"
_symmetry_group_IT_number 21
_symmetry_cell_setting 'orthorhombic'
loop_
_space_group_symop_operation_xyz
x,y,z
-x,-y,z
x,-y,-z
-x,y,-z
1/2+x,1/2+y,z
1/2-x,1/2-y,z
1/2+x,1/2-y,-z
1/2-x,1/2+y,-z
loop_
_atom_site_type_symbol
_atom_site_label
_atom_site_fract_x
_atom_site_fract_y
_atom_site_fract_z
Si Si1 0.594145 0.891174 0.393426
Si Si2 0.250000 0.250000 0.620032
Si Si3 0.218452 0.815731 0.048146
Si Si4 0.449268 0.818317 0.203801
Si Si5 0.874552 0.837456 0.439367
Si Si6 0.000000 0.500000 0.500000
Si Si7 0.053423 0.800379 0.825596
O O1 0.500000 0.866898 0.500000
O O2 0.535739 0.864142 0.272762
O O3 0.743965 0.873510 0.417736
O O4 0.579277 0.957344 0.414153
O O5 0.346778 0.212129 0.702432
O O6 0.164049 0.211046 0.532827
O O7 0.250000 0.750000 0.054189
O O8 0.352475 0.842394 0.100397
O O9 0.090127 0.824508 0.134128
O O10 0.163950 0.825471 0.914710
O O11 0.539638 0.766697 0.157605
O O12 0.914148 0.812342 0.311107
O O13 0.000000 0.867810 0.500000
#
# Coordination Sequence:
#
# PCOD9323111 Si02
#       7
#     8   4   8   8   8   2   8
#     4  10  22  36  57  77 106 145 185 229 304 342
#     4  12  18  30  42  76 114 152 170 234 256 334
#     4   9  19  33  45  64 113 160 189 221 259 307
#     4  11  18  34  50  75 111 158 191 214 280 341
#     4  12  22  31  51  81 113 144 191 227 280 354
#     4   8  20  44  58  76 114 132 182 260 308 348
#     4  10  20  30  45  74 114 153 186 222 265 333
#
# _framework density 17.140637999999999
#
# number of rings (size 3 to 8) (size 9 to 14) (size 15 to 20)
#    0.522    1.043    6.087    1.043    3.652    0.000 
#    0.000    0.435    0.000    0.000    0.000    2.435 
#    0.000    2.783    0.000    0.000    0.000    0.000 
#
# Total GULP energy -128189.554674 kJ/mol
# GULP energy per Si atom -5573.458899 kJ/mol
# Density = 1.710162 g / cm^3
# Si number density = 17.140638 Si / 1000 Ang^3
#
#
#
# Elastic Constant Matrix: (Units=GPa)
#
#
# Indices 1 2 3 4 5 6 
#
# 1 126.4142 37.4366 52.8136 0.0000 0.0000 0.0000
# 2 37.4366 50.6933 21.5976 0.0000 0.0000 0.0000
# 3 52.8136 21.5976 92.7612 0.0000 0.0000 0.0000
# 4 0.0000 0.0000 0.0000 7.4573 0.0000 0.0000
# 5 0.0000 0.0000 0.0000 0.0000 37.5141 0.0000
# 6 0.0000 0.0000 0.0000 0.0000 0.0000 8.5443
#
#
#
# Elastic Compliance Matrix: (Units=1/GPa)
#
#
# Indices 1 2 3 4 5 6 
#
# 1 0.012121 -0.006673 -0.005347 0.000000 0.000000 0.000000
# 2 -0.006673 0.025572 -0.002155 0.000000 0.000000 0.000000
# 3 -0.005347 -0.002155 0.014327 0.000000 0.000000 0.000000
# 4 0.000000 0.000000 0.000000 0.134097 0.000000 0.000000
# 5 0.000000 0.000000 0.000000 0.000000 0.026657 0.000000
# 6 0.000000 0.000000 0.000000 0.000000 0.000000 0.117036
#
#
# Mechanical properties :
#
#
# Convention : Reuss Voigt Hill
#
# Bulk Modulus (GPa) = 42.24812 54.84047 48.54429
# Shear Modulus (GPa) = 13.65936 21.23787 17.44861
#
# Velocity S-wave (km/s) = 2.82600 3.52381 3.19402
# Velocity P-wave (km/s) = 5.94557 6.97282 6.47958
#
# Compressibility (1/GPa) = 0.02366969
#
# Stress axis : x y z
#
# Youngs Moduli (GPa) = 82.50435 39.10479 69.80061
#
# Poissons Ratio (x) = 0.26094 0.37324
# Poissons Ratio (y) = 0.55053 0.15041
# Poissons Ratio (z) = 0.44117 0.08427
#
# Static dielectric constant tensor:
#      x y z
#    x 1.652150 0.000000 0.000000 
#    y 0.000000 1.534280 0.000000 
#    z 0.000000 0.000000 1.633320 
# 
# From -- ./inp_files/22923.got.cif
#   From: 2010.05.17/outbox.cif.g08.bks.cpg/sg21_12_cif.got.tgz:22923.got - 2010.06.03 23:14:55.
