data_PCOD9323863
_publ_section_title
;
Structure prediction by ZEFSAII (Michael W. Deem and Ramdas Pophale) SiO2 
 PCOD9323863
Probable space group: C 2 2 2
;
_chemical_formula_sum "Si O2"
_cell_formula_units_Z 32
_cell_length_a 5.215557
_cell_length_b 24.264064
_cell_length_c 12.231997
_cell_angle_alpha 90.000000
_cell_angle_beta 90.000000
_cell_angle_gamma 90.000000
_cell_volume 1547.966668
_symmetry_space_group_name_H-M "C 2 2 2"
_symmetry_group_IT_number 21
_symmetry_cell_setting 'orthorhombic'
loop_
_space_group_symop_operation_xyz
x,y,z
-x,-y,z
x,-y,-z
-x,y,-z
1/2+x,1/2+y,z
1/2-x,1/2-y,z
1/2+x,1/2-y,-z
1/2-x,1/2+y,-z
loop_
_atom_site_type_symbol
_atom_site_label
_atom_site_fract_x
_atom_site_fract_y
_atom_site_fract_z
Si Si1 0.988766 0.435023 0.764447
Si Si2 0.511727 0.369582 0.704822
Si Si3 0.115257 0.800000 0.105816
Si Si4 0.500000 0.711332 0.500000
Si Si5 0.000000 0.611964 0.000000
O O1 0.756624 0.408706 0.695849
O O2 0.000000 0.500000 0.746215
O O3 0.254418 0.404467 0.731813
O O4 0.928635 0.424208 0.893846
O O5 0.566917 0.330437 0.809827
O O6 0.473588 0.329270 0.603509
O O7 0.250000 0.750000 0.168974
O O8 0.285699 0.847606 0.050428
O O9 0.000000 0.770837 0.000000
O O10 0.750000 0.750000 0.489253
#
# Coordination Sequence:
#
# PCOD9323863 Si02
#       5
#     8   8   8   4   4
#     4  11  23  42  66  94 131 174 219 270 324 373
#     4  11  25  43  65  97 130 167 223 268 316 391
#     4  11  20  34  58  91 131 169 202 263 324 390
#     4  12  26  48  73  98 129 174 212 262 324 390
#     4  10  21  36  56  92 132 174 215 262 312 398
#
# _framework density 20.672280000000001
#
# number of rings (size 3 to 8) (size 9 to 14) (size 15 to 20)
#    0.000    1.000    3.750    3.375    0.000    3.000 
#    0.000    6.250    0.000    0.000    0.000    0.000 
#    0.000    0.000    0.000    0.000    0.000    0.000 
#
# Total GULP energy -89297.486422 kJ/mol
# GULP energy per Si atom -5581.092901 kJ/mol
# Density = 2.062523 g / cm^3
# Si number density = 20.672280 Si / 1000 Ang^3
#
#
#
# Elastic Constant Matrix: (Units=GPa)
#
#
# Indices 1 2 3 4 5 6 
#
# 1 105.9904 51.1799 14.4505 0.0000 0.0000 0.0000
# 2 51.1799 149.8711 46.2887 0.0000 0.0000 0.0000
# 3 14.4505 46.2887 87.9754 0.0000 0.0000 0.0000
# 4 0.0000 0.0000 0.0000 -5.8297 0.0000 0.0000
# 5 0.0000 0.0000 0.0000 0.0000 17.7280 0.0000
# 6 0.0000 0.0000 0.0000 0.0000 0.0000 36.2055
#
#
#
# Elastic Compliance Matrix: (Units=1/GPa)
#
#
# Indices 1 2 3 4 5 6 
#
# 1 0.011301 -0.003923 0.000208 0.000000 0.000000 0.000000
# 2 -0.003923 0.009329 -0.004264 0.000000 0.000000 0.000000
# 3 0.000208 -0.004264 0.013576 0.000000 0.000000 0.000000
# 4 0.000000 0.000000 0.000000 -0.171537 0.000000 0.000000
# 5 0.000000 0.000000 0.000000 0.000000 0.056408 0.000000
# 6 0.000000 0.000000 0.000000 0.000000 0.000000 0.027620
#
#
# Mechanical properties :
#
#
# Convention : Reuss Voigt Hill
#
# Bulk Modulus (GPa) = 54.80239 63.07500 58.93869
# Shear Modulus (GPa) = -159.94590 25.08195 -67.43197
#
# Velocity S-wave (km/s) = -8.80569 3.48704 -5.71755
# Velocity P-wave (km/s) = 8.76466 6.84038 3.87482
#
# Compressibility (1/GPa) = 0.01824738
#
# Stress axis : x y z
#
# Youngs Moduli (GPa) = 88.48783 107.18964 73.65804
#
# Poissons Ratio (x) = 0.42056 -0.01533
# Poissons Ratio (y) = 0.34718 0.31409
# Poissons Ratio (z) = -0.01841 0.45708
#
# Static dielectric constant tensor:
#      x y z
#    x 1.865700 0.000000 0.000000 
#    y 0.000000 1.707160 0.000000 
#    z 0.000000 0.000000 1.741800 
# 
# From -- ./inp_files/20872.got.cif
#   From: 2010.05.17/outbox.cif.g08.bks.cpg/sg21_11_cif.got.tgz:20872.got - 2010.06.03 23:14:55.
