data_PCOD9323106
_publ_section_title
;
Structure prediction by ZEFSAII (Michael W. Deem and Ramdas Pophale) SiO2 
 PCOD9323106
Probable space group: C 2 2 2
;
_chemical_formula_sum "Si O2"
_cell_formula_units_Z 26
_cell_length_a 13.355161
_cell_length_b 5.837545
_cell_length_c 15.596894
_cell_angle_alpha 90.000000
_cell_angle_beta 90.000000
_cell_angle_gamma 90.000000
_cell_volume 1215.954964
_symmetry_space_group_name_H-M "C 2 2 2"
_symmetry_group_IT_number 21
_symmetry_cell_setting 'orthorhombic'
loop_
_space_group_symop_operation_xyz
x,y,z
-x,-y,z
x,-y,-z
-x,y,-z
1/2+x,1/2+y,z
1/2-x,1/2-y,z
1/2+x,1/2-y,-z
1/2-x,1/2+y,-z
loop_
_atom_site_type_symbol
_atom_site_label
_atom_site_fract_x
_atom_site_fract_y
_atom_site_fract_z
Si Si1 0.750000 0.750000 0.546949
Si Si2 0.395754 0.112845 0.683942
Si Si3 0.250000 0.750000 0.766869
Si Si4 0.142143 0.134141 0.855916
Si Si5 0.500000 0.500000 0.000000
O O1 0.755973 0.500000 0.500000
O O2 0.652334 0.740676 0.608192
O O3 0.407187 0.253311 0.772078
O O4 0.500000 0.000000 0.659565
O O5 0.311139 0.925973 0.708517
O O6 0.329478 0.622271 0.827391
O O7 0.250000 0.250000 0.871711
O O8 0.071165 0.143449 0.937151
#
# Coordination Sequence:
#
# PCOD9323106 Si02
#       5
#     4   8   4   8   2
#     4  12  27  50  75 114 154 192 252 323 368 455
#     4  11  23  46  74 101 138 195 236 295 388 440
#     4  10  19  44  69  96 140 192 236 293 368 443
#     4  10  23  42  67 100 140 191 238 303 364 437
#     4  12  24  40  66 110 134 190 256 292 358 434
#
# _framework density 21.382370000000002
#
# number of rings (size 3 to 8) (size 9 to 14) (size 15 to 20)
#    0.000    1.231    4.615    2.769    2.154    0.615 
#    0.000   10.769    0.000    0.000    0.000    0.000 
#    0.000    0.000    0.000    0.000    0.000    0.000 
#
# Total GULP energy -72636.487008 kJ/mol
# GULP energy per Si atom -5587.422078 kJ/mol
# Density = 2.133370 g / cm^3
# Si number density = 21.382370 Si / 1000 Ang^3
#
#
#
# Elastic Constant Matrix: (Units=GPa)
#
#
# Indices 1 2 3 4 5 6 
#
# 1 108.0824 10.7169 54.7673 0.0000 0.0000 0.0000
# 2 10.7169 75.9014 40.9411 0.0000 0.0000 0.0000
# 3 54.7673 40.9411 126.3528 0.0000 0.0000 0.0000
# 4 0.0000 0.0000 0.0000 40.7531 0.0000 0.0000
# 5 0.0000 0.0000 0.0000 0.0000 -20.1309 0.0000
# 6 0.0000 0.0000 0.0000 0.0000 0.0000 28.4458
#
#
#
# Elastic Compliance Matrix: (Units=1/GPa)
#
#
# Indices 1 2 3 4 5 6 
#
# 1 0.011968 0.001343 -0.005623 0.000000 0.000000 0.000000
# 2 0.001343 0.016116 -0.005804 0.000000 0.000000 0.000000
# 3 -0.005623 -0.005804 0.012232 0.000000 0.000000 0.000000
# 4 0.000000 0.000000 0.000000 0.024538 0.000000 0.000000
# 5 0.000000 0.000000 0.000000 0.000000 -0.049675 0.000000
# 6 0.000000 0.000000 0.000000 0.000000 0.000000 0.035155
#
#
# Mechanical properties :
#
#
# Convention : Reuss Voigt Hill
#
# Bulk Modulus (GPa) = 49.63070 58.13192 53.88131
# Shear Modulus (GPa) = 64.75176 23.40769 44.07973
#
# Velocity S-wave (km/s) = 5.50895 3.31224 4.54530
# Velocity P-wave (km/s) = 7.98286 6.47100 7.26636
#
# Compressibility (1/GPa) = 0.02014882
#
# Stress axis : x y z
#
# Youngs Moduli (GPa) = 83.55487 62.04985 81.75157
#
# Poissons Ratio (x) = -0.08334 0.45967
# Poissons Ratio (y) = -0.11222 0.47450
# Poissons Ratio (z) = 0.46981 0.36014
#
# Static dielectric constant tensor:
#      x y z
#    x 1.746720 0.000000 0.000000 
#    y 0.000000 1.848090 0.000000 
#    z 0.000000 0.000000 1.786110 
# 
# From -- ./inp_files/28479.got.cif
#   From: 2010.05.17/outbox.cif.g08.bks.cpg/sg21_15_cif.got.tgz:28479.got - 2010.06.03 23:14:55.
