data_PCOD9323116
_publ_section_title
;
Structure prediction by ZEFSAII (Michael W. Deem and Ramdas Pophale) SiO2 
 PCOD9323116
Probable space group: C 2 2 2
;
_chemical_formula_sum "Si O2"
_cell_formula_units_Z 40
_cell_length_a 10.427656
_cell_length_b 22.048800
_cell_length_c 9.442459
_cell_angle_alpha 90.000000
_cell_angle_beta 90.000000
_cell_angle_gamma 90.000000
_cell_volume 2170.984694
_symmetry_space_group_name_H-M "C 2 2 2"
_symmetry_group_IT_number 21
_symmetry_cell_setting 'orthorhombic'
loop_
_space_group_symop_operation_xyz
x,y,z
-x,-y,z
x,-y,-z
-x,y,-z
1/2+x,1/2+y,z
1/2-x,1/2-y,z
1/2+x,1/2-y,-z
1/2-x,1/2+y,-z
loop_
_atom_site_type_symbol
_atom_site_label
_atom_site_fract_x
_atom_site_fract_y
_atom_site_fract_z
Si Si1 0.475195 0.098516 0.341675
Si Si2 0.950779 0.216573 0.150770
Si Si3 0.643012 0.060878 0.934750
Si Si4 0.804604 0.654708 0.844827
Si Si5 0.390166 0.764968 0.611340
O O1 0.500000 0.074572 0.500000
O O2 0.385985 0.061152 0.232599
O O3 0.610799 0.114424 0.263917
O O4 0.405726 0.163703 0.358696
O O5 0.885348 0.283315 0.134553
O O6 0.836394 0.173894 0.206468
O O7 0.072213 0.226735 0.251005
O O8 0.000000 0.195124 0.000000
O O9 0.500000 0.064086 0.000000
O O10 0.707103 0.119582 0.005528
O O11 0.702931 0.000000 0.000000
O O12 0.500000 0.749899 0.500000
O O13 0.250000 0.750000 0.557524
#
# Coordination Sequence:
#
# PCOD9323116 Si02
#       5
#     8   8   8   8   8
#     4   9  18  31  52  74 107 142 179 225 271 329
#     4  10  20  30  51  74 104 142 182 219 264 332
#     4   9  17  32  51  73 102 139 178 235 288 313
#     4   9  18  32  48  73 105 137 178 229 271 316
#     4  10  22  33  51  79 115 148 179 216 271 331
#
# _framework density 18.42482
#
# number of rings (size 3 to 8) (size 9 to 14) (size 15 to 20)
#    0.000    2.600    0.000    3.000   14.000    0.000 
#    0.000    8.000    0.000    0.600    0.000    0.000 
#    0.000    1.600    0.000    0.000    0.000    0.000 
#
# Total GULP energy -111417.573350 kJ/mol
# GULP energy per Si atom -5570.878667 kJ/mol
# Density = 1.838288 g / cm^3
# Si number density = 18.424820 Si / 1000 Ang^3
#
#
#
# Elastic Constant Matrix: (Units=GPa)
#
#
# Indices 1 2 3 4 5 6 
#
# 1 79.9316 14.1827 18.1644 0.0000 0.0000 0.0000
# 2 14.1827 46.3492 25.3019 0.0000 0.0000 0.0000
# 3 18.1644 25.3019 120.4587 0.0000 0.0000 0.0000
# 4 0.0000 0.0000 0.0000 46.7223 0.0000 0.0000
# 5 0.0000 0.0000 0.0000 0.0000 19.6236 0.0000
# 6 0.0000 0.0000 0.0000 0.0000 0.0000 11.1297
#
#
#
# Elastic Compliance Matrix: (Units=1/GPa)
#
#
# Indices 1 2 3 4 5 6 
#
# 1 0.013410 -0.003388 -0.001310 0.000000 0.000000 0.000000
# 2 -0.003388 0.025226 -0.004788 0.000000 0.000000 0.000000
# 3 -0.001310 -0.004788 0.009505 0.000000 0.000000 0.000000
# 4 0.000000 0.000000 0.000000 0.021403 0.000000 0.000000
# 5 0.000000 0.000000 0.000000 0.000000 0.050959 0.000000
# 6 0.000000 0.000000 0.000000 0.000000 0.000000 0.089850
#
#
# Mechanical properties :
#
#
# Convention : Reuss Voigt Hill
#
# Bulk Modulus (GPa) = 34.28418 40.22639 37.25529
# Shear Modulus (GPa) = 20.91642 28.10116 24.50879
#
# Velocity S-wave (km/s) = 3.37297 3.90959 3.65115
# Velocity P-wave (km/s) = 5.81526 6.50077 6.16755
#
# Compressibility (1/GPa) = 0.02916797
#
# Stress axis : x y z
#
# Youngs Moduli (GPa) = 74.57323 39.64229 105.20950
#
# Poissons Ratio (x) = 0.13430 0.13787
# Poissons Ratio (y) = 0.25265 0.50371
# Poissons Ratio (z) = 0.09773 0.18979
#
# Static dielectric constant tensor:
#      x y z
#    x 1.625110 0.000000 0.000000 
#    y 0.000000 1.698360 0.000000 
#    z 0.000000 0.000000 1.730330 
# 
# From -- ./inp_files/13040.got.cif
#   From: 2010.05.17/outbox.cif.g08.bks.cpg/sg21_7_cif.got.tgz:13040.got - 2010.06.03 23:14:55.
