data_PCOD9323776
_publ_section_title
;
Structure prediction by ZEFSAII (Michael W. Deem and Ramdas Pophale) SiO2 
 PCOD9323776
Probable space group: C 2 2 2
;
_chemical_formula_sum "Si O2"
_cell_formula_units_Z 30
_cell_length_a 12.454606
_cell_length_b 14.551858
_cell_length_c 8.340110
_cell_angle_alpha 90.000000
_cell_angle_beta 90.000000
_cell_angle_gamma 90.000000
_cell_volume 1511.542004
_symmetry_space_group_name_H-M "C 2 2 2"
_symmetry_group_IT_number 21
_symmetry_cell_setting 'orthorhombic'
loop_
_space_group_symop_operation_xyz
x,y,z
-x,-y,z
x,-y,-z
-x,y,-z
1/2+x,1/2+y,z
1/2-x,1/2-y,z
1/2+x,1/2-y,-z
1/2-x,1/2+y,-z
loop_
_atom_site_type_symbol
_atom_site_label
_atom_site_fract_x
_atom_site_fract_y
_atom_site_fract_z
Si Si1 0.383900 0.343778 0.931203
Si Si2 0.842173 0.346156 0.919274
Si Si3 0.250000 0.750000 0.629727
Si Si4 0.000000 0.500000 0.000000
Si Si5 0.880101 0.102513 0.438316
O O1 0.374890 0.381671 0.751959
O O2 0.500000 0.371409 0.000000
O O3 0.279372 0.375191 0.032778
O O4 0.376698 0.231677 0.949815
O O5 0.836872 0.292860 0.751570
O O6 0.921001 0.431280 0.907911
O O7 0.200647 0.828442 0.522254
O O8 0.000000 0.123626 0.500000
O O9 0.856325 0.000000 0.500000
#
# Coordination Sequence:
#
# PCOD9323776 Si02
#       5
#     8   8   4   2   8
#     4  10  20  44  67  95 128 179 215 269 340 391
#     4  10  23  39  69  95 132 174 218 278 328 406
#     4  10  22  46  62  96 136 172 216 276 346 378
#     4  12  24  40  66 106 126 168 242 262 320 416
#     4  11  24  41  66  96 132 169 220 277 334 399
#
# _framework density 19.847280999999999
#
# number of rings (size 3 to 8) (size 9 to 14) (size 15 to 20)
#    0.000    1.867    1.333    4.800    3.733    0.000 
#    0.000    0.000    0.000    3.200    0.000    0.000 
#    0.000    0.000    0.000    0.000    0.000    0.000 
#
# Total GULP energy -83742.673292 kJ/mol
# GULP energy per Si atom -5582.844886 kJ/mol
# Density = 1.980211 g / cm^3
# Si number density = 19.847281 Si / 1000 Ang^3
#
#
#
# Elastic Constant Matrix: (Units=GPa)
#
#
# Indices 1 2 3 4 5 6 
#
# 1 102.5433 45.1446 32.8397 0.0000 0.0000 0.0000
# 2 45.1446 105.1801 50.0360 0.0000 0.0000 0.0000
# 3 32.8397 50.0360 136.9818 0.0000 0.0000 0.0000
# 4 0.0000 0.0000 0.0000 -4.7305 0.0000 0.0000
# 5 0.0000 0.0000 0.0000 0.0000 0.8916 0.0000
# 6 0.0000 0.0000 0.0000 0.0000 0.0000 51.7785
#
#
#
# Elastic Compliance Matrix: (Units=1/GPa)
#
#
# Indices 1 2 3 4 5 6 
#
# 1 0.012191 -0.004650 -0.001224 0.000000 0.000000 0.000000
# 2 -0.004650 0.013281 -0.003736 0.000000 0.000000 0.000000
# 3 -0.001224 -0.003736 0.008958 0.000000 0.000000 0.000000
# 4 0.000000 0.000000 0.000000 -0.211393 0.000000 0.000000
# 5 0.000000 0.000000 0.000000 0.000000 1.121519 0.000000
# 6 0.000000 0.000000 0.000000 0.000000 0.000000 0.019313
#
#
# Mechanical properties :
#
#
# Convention : Reuss Voigt Hill
#
# Bulk Modulus (GPa) = 65.74951 66.74952 66.24951
# Shear Modulus (GPa) = 5.05990 24.03358 14.54674
#
# Velocity S-wave (km/s) = 1.59842 3.48361 2.71021
# Velocity P-wave (km/s) = 6.05031 7.06295 6.57615
#
# Compressibility (1/GPa) = 0.01520924
#
# Stress axis : x y z
#
# Youngs Moduli (GPa) = 82.02566 75.29595 111.62619
#
# Poissons Ratio (x) = 0.35015 0.13664
# Poissons Ratio (y) = 0.38145 0.41707
# Poissons Ratio (z) = 0.10040 0.28133
#
# Static dielectric constant tensor:
#      x y z
#    x 1.732470 0.000000 0.000000 
#    y 0.000000 1.720550 0.000000 
#    z 0.000000 0.000000 1.681840 
# 
# From -- ./inp_files/12215.got.cif
#   From: 2010.05.17/outbox.cif.g08.bks.cpg/sg21_7_cif.got.tgz:12215.got - 2010.06.03 23:14:55.
