data_PCOD9323623
_publ_section_title
;
Structure prediction by ZEFSAII (Michael W. Deem and Ramdas Pophale) SiO2 
 PCOD9323623
Probable space group: C 2 2 2
;
_chemical_formula_sum "Si O2"
_cell_formula_units_Z 40
_cell_length_a 31.431919
_cell_length_b 8.104399
_cell_length_c 7.744691
_cell_angle_alpha 90.000000
_cell_angle_beta 90.000000
_cell_angle_gamma 90.000000
_cell_volume 1972.857902
_symmetry_space_group_name_H-M "C 2 2 2"
_symmetry_group_IT_number 21
_symmetry_cell_setting 'orthorhombic'
loop_
_space_group_symop_operation_xyz
x,y,z
-x,-y,z
x,-y,-z
-x,y,-z
1/2+x,1/2+y,z
1/2-x,1/2-y,z
1/2+x,1/2-y,-z
1/2-x,1/2+y,-z
loop_
_atom_site_type_symbol
_atom_site_label
_atom_site_fract_x
_atom_site_fract_y
_atom_site_fract_z
Si Si1 0.250000 0.250000 0.243022
Si Si2 0.139694 0.602681 0.271618
Si Si3 0.000000 0.000000 0.500000
Si Si4 0.448432 0.747202 0.245809
Si Si5 0.657521 0.243961 0.893404
Si Si6 0.598345 0.500000 0.000000
Si Si7 0.500000 0.000000 0.000000
Si Si8 0.210813 0.500000 0.500000
O O1 0.292949 0.275831 0.136521
O O2 0.239365 0.405981 0.362649
O O3 0.093263 0.663863 0.328439
O O4 0.141366 0.408243 0.222895
O O5 0.178266 0.625371 0.404799
O O6 0.150572 0.691516 0.091720
O O7 0.973311 0.871661 0.620857
O O8 0.430615 0.626556 0.099666
O O9 0.473855 0.883912 0.133827
O O10 0.628794 0.403726 0.867168
#
# Coordination Sequence:
#
# PCOD9323623 Si02
#       8
#     4   8   2   8   8   4   2   4
#     4  10  22  36  54  84 120 150 200 252 290 346
#     4   9  20  39  59  79 114 162 201 233 297 382
#     4  12  28  40  62 104 132 148 188 276 334 340
#     4  11  24  42  64  92 125 158 203 253 306 375
#     4   9  19  36  60  86 111 156 207 250 290 341
#     4  10  20  39  64  87 118 162 208 249 292 359
#     4  12  24  44  72  90 116 172 212 246 304 376
#     4  10  22  36  55  83 118 156 190 241 303 350
#
# _framework density 20.275155999999999
#
# number of rings (size 3 to 8) (size 9 to 14) (size 15 to 20)
#    0.000    2.000    0.000    3.600    0.000   12.400 
#    0.000    0.000    0.000    0.000    0.000    0.000 
#    0.000    0.000    0.000    0.000    0.000    0.000 
#
# Total GULP energy -111557.396441 kJ/mol
# GULP energy per Si atom -5577.869822 kJ/mol
# Density = 2.022901 g / cm^3
# Si number density = 20.275156 Si / 1000 Ang^3
#
#
#
# Elastic Constant Matrix: (Units=GPa)
#
#
# Indices 1 2 3 4 5 6 
#
# 1 156.9180 87.5475 51.9117 0.0000 0.0000 0.0000
# 2 87.5475 113.9784 31.2921 0.0000 0.0000 0.0000
# 3 51.9117 31.2921 64.7138 0.0000 0.0000 0.0000
# 4 0.0000 0.0000 0.0000 23.2606 0.0000 0.0000
# 5 0.0000 0.0000 0.0000 0.0000 -32.0884 0.0000
# 6 0.0000 0.0000 0.0000 0.0000 0.0000 39.1693
#
#
#
# Elastic Compliance Matrix: (Units=1/GPa)
#
#
# Indices 1 2 3 4 5 6 
#
# 1 0.013188 -0.008331 -0.006550 0.000000 0.000000 0.000000
# 2 -0.008331 0.015380 -0.000754 0.000000 0.000000 0.000000
# 3 -0.006550 -0.000754 0.021072 0.000000 0.000000 0.000000
# 4 0.000000 0.000000 0.000000 0.042991 0.000000 0.000000
# 5 0.000000 0.000000 0.000000 0.000000 -0.031164 0.000000
# 6 0.000000 0.000000 0.000000 0.000000 0.000000 0.025530
#
#
# Mechanical properties :
#
#
# Convention : Reuss Voigt Hill
#
# Bulk Modulus (GPa) = 54.44083 75.23475 64.83779
# Shear Modulus (GPa) = 40.19579 17.05889 28.62734
#
# Velocity S-wave (km/s) = 4.45737 2.90378 3.76166
# Velocity P-wave (km/s) = 7.30754 6.95917 7.13548
#
# Compressibility (1/GPa) = 0.01836857
#
# Stress axis : x y z
#
# Youngs Moduli (GPa) = 75.82619 65.01977 47.45703
#
# Poissons Ratio (x) = 0.54171 0.31087
# Poissons Ratio (y) = 0.63174 0.03577
# Poissons Ratio (z) = 0.49670 0.04900
#
# Static dielectric constant tensor:
#      x y z
#    x 1.730130 0.000000 0.000000 
#    y 0.000000 1.787450 0.000000 
#    z 0.000000 0.000000 1.730090 
# 
# From -- ./inp_files/11271.got.cif
#   From: 2010.05.17/outbox.cif.g08.bks.cpg/sg21_6_cif.got.tgz:11271.got - 2010.06.03 23:14:55.
