data_PCOD9323478
_publ_section_title
;
Structure prediction by ZEFSAII (Michael W. Deem and Ramdas Pophale) SiO2 
 PCOD9323478
Probable space group: C 2 2 2
;
_chemical_formula_sum "Si O2"
_cell_formula_units_Z 56
_cell_length_a 14.039178
_cell_length_b 8.722128
_cell_length_c 22.042456
_cell_angle_alpha 90.000000
_cell_angle_beta 90.000000
_cell_angle_gamma 90.000000
_cell_volume 2699.131967
_symmetry_space_group_name_H-M "C 2 2 2"
_symmetry_group_IT_number 21
_symmetry_cell_setting 'orthorhombic'
loop_
_space_group_symop_operation_xyz
x,y,z
-x,-y,z
x,-y,-z
-x,y,-z
1/2+x,1/2+y,z
1/2-x,1/2-y,z
1/2+x,1/2-y,-z
1/2-x,1/2+y,-z
loop_
_atom_site_type_symbol
_atom_site_label
_atom_site_fract_x
_atom_site_fract_y
_atom_site_fract_z
Si Si1 0.492727 0.170294 0.751172
Si Si2 0.495066 0.313641 0.568651
Si Si3 0.491395 0.329573 0.928545
Si Si4 0.150891 0.170192 0.663277
Si Si5 0.341994 0.162355 0.857732
Si Si6 0.356574 0.306804 0.326089
Si Si7 0.328779 0.884470 0.941041
O O1 0.422716 0.273526 0.712799
O O2 0.433843 0.150607 0.813612
O O3 0.594517 0.248247 0.736776
O O4 0.500000 0.000000 0.725157
O O5 0.500000 0.500000 0.567098
O O6 0.500000 0.256220 0.500000
O O7 0.393744 0.279906 0.599123
O O8 0.576306 0.260097 0.616393
O O9 0.500000 0.500000 0.899729
O O10 0.388533 0.263248 0.911506
O O11 0.575346 0.204959 0.919660
O O12 0.500000 0.349439 0.000000
O O13 0.250000 0.250000 0.673092
O O14 0.151163 0.989026 0.670149
O O15 0.250000 0.250000 0.831644
O O16 0.308274 0.001412 0.885698
O O17 0.250000 0.250000 0.331712
O O18 0.250000 0.750000 0.950954
O O19 0.339217 0.000000 0.000000
#
# Coordination Sequence:
#
# PCOD9323478 Si02
#       7
#     8   8   8   8   8   8   8
#     4  11  23  42  66  91 125 161 213 267 323 377
#     4   8  16  32  55  87 129 172 218 269 319 378
#     4  11  24  41  67  97 129 164 202 250 305 369
#     4  10  20  37  61  91 124 171 215 265 325 380
#     4  12  26  46  68  98 127 165 208 259 315 382
#     4  10  21  38  64  93 127 173 221 267 329 384
#     4  12  25  43  70  99 130 166 206 249 310 386
#
# _framework density 20.747411
#
# number of rings (size 3 to 8) (size 9 to 14) (size 15 to 20)
#    0.000    1.429    1.429    5.143    2.000    1.714 
#    0.000    8.571    0.000   14.571    0.000    0.000 
#    0.000    0.000    0.000    0.000    0.000    0.000 
#
# Total GULP energy -156035.975395 kJ/mol
# GULP energy per Si atom -5572.713407 kJ/mol
# Density = 2.070019 g / cm^3
# Si number density = 20.747411 Si / 1000 Ang^3
#
#
#
# Elastic Constant Matrix: (Units=GPa)
#
#
# Indices 1 2 3 4 5 6 
#
# 1 121.8916 50.8295 15.5469 0.0000 0.0000 0.0000
# 2 50.8295 117.0090 27.8999 0.0000 0.0000 0.0000
# 3 15.5469 27.8999 59.2681 0.0000 0.0000 0.0000
# 4 0.0000 0.0000 0.0000 19.8085 0.0000 0.0000
# 5 0.0000 0.0000 0.0000 0.0000 23.9162 0.0000
# 6 0.0000 0.0000 0.0000 0.0000 0.0000 7.1365
#
#
#
# Elastic Compliance Matrix: (Units=1/GPa)
#
#
# Indices 1 2 3 4 5 6 
#
# 1 0.010041 -0.004206 -0.000654 0.000000 0.000000 0.000000
# 2 -0.004206 0.011389 -0.004258 0.000000 0.000000 0.000000
# 3 -0.000654 -0.004258 0.019048 0.000000 0.000000 0.000000
# 4 0.000000 0.000000 0.000000 0.050483 0.000000 0.000000
# 5 0.000000 0.000000 0.000000 0.000000 0.041813 0.000000
# 6 0.000000 0.000000 0.000000 0.000000 0.000000 0.140125
#
#
# Mechanical properties :
#
#
# Convention : Reuss Voigt Hill
#
# Bulk Modulus (GPa) = 44.95870 54.08013 49.51941
# Shear Modulus (GPa) = 16.74760 23.76505 20.25633
#
# Velocity S-wave (km/s) = 2.84423 3.38812 3.12802
# Velocity P-wave (km/s) = 5.70112 6.43648 6.07993
#
# Compressibility (1/GPa) = 0.02224264
#
# Stress axis : x y z
#
# Youngs Moduli (GPa) = 99.58777 87.80586 52.49788
#
# Poissons Ratio (x) = 0.36932 0.03433
# Poissons Ratio (y) = 0.41888 0.22353
# Poissons Ratio (z) = 0.06513 0.37386
#
# Static dielectric constant tensor:
#      x y z
#    x 1.761080 0.000000 0.000000 
#    y 0.000000 1.763910 0.000000 
#    z 0.000000 0.000000 1.842770 
# 
# From -- ./inp_files/37579.got.cif
#   From: 2010.05.17/outbox.cif.g08.bks.cpg/sg21_19_cif.got.tgz:37579.got - 2010.06.03 23:14:55.
