data_PCOD9323984
_publ_section_title
;
Structure prediction by ZEFSAII (Michael W. Deem and Ramdas Pophale) SiO2 
 PCOD9323984
Probable space group: C 2 2 2
;
_chemical_formula_sum "Si O2"
_cell_formula_units_Z 28
_cell_length_a 25.032917
_cell_length_b 5.278989
_cell_length_c 10.171312
_cell_angle_alpha 90.000000
_cell_angle_beta 90.000000
_cell_angle_gamma 90.000000
_cell_volume 1344.123558
_symmetry_space_group_name_H-M "C 2 2 2"
_symmetry_group_IT_number 21
_symmetry_cell_setting 'orthorhombic'
loop_
_space_group_symop_operation_xyz
x,y,z
-x,-y,z
x,-y,-z
-x,y,-z
1/2+x,1/2+y,z
1/2-x,1/2-y,z
1/2+x,1/2-y,-z
1/2-x,1/2+y,-z
loop_
_atom_site_type_symbol
_atom_site_label
_atom_site_fract_x
_atom_site_fract_y
_atom_site_fract_z
Si Si1 0.937035 0.525835 0.223560
Si Si2 0.375425 0.506189 0.145248
Si Si3 0.801007 0.122648 0.369644
Si Si4 0.386514 0.000000 0.500000
O O1 0.905524 0.272133 0.177012
O O2 0.923082 0.578379 0.377289
O O3 0.000000 0.500000 0.206205
O O4 0.916256 0.773089 0.148943
O O5 0.331925 0.462194 0.260275
O O6 0.350970 0.500000 0.000000
O O7 0.750000 0.250000 0.301930
O O8 0.846975 0.294597 0.435789
O O9 0.776279 0.000000 0.500000
#
# Coordination Sequence:
#
# PCOD9323984 Si02
#       4
#     8   8   8   4
#     4  11  23  40  66  94 129 173 216 263 321 382
#     4  11  25  43  63  95 135 168 212 269 319 383
#     4  11  21  40  67  94 125 167 217 265 326 384
#     4  10  21  38  60  96 130 158 211 278 316 372
#
# _framework density 20.831417999999999
#
# number of rings (size 3 to 8) (size 9 to 14) (size 15 to 20)
#    0.000    1.143    4.286    2.143    0.000    3.429 
#    0.000   10.000    0.000    0.000    0.000    0.000 
#    0.000    0.000    0.000    0.000    0.000    0.000 
#
# Total GULP energy -78092.755825 kJ/mol
# GULP energy per Si atom -5578.053987 kJ/mol
# Density = 2.078401 g / cm^3
# Si number density = 20.831418 Si / 1000 Ang^3
#
#
#
# Elastic Constant Matrix: (Units=GPa)
#
#
# Indices 1 2 3 4 5 6 
#
# 1 82.4523 13.0435 18.0890 0.0000 0.0000 0.0000
# 2 13.0435 82.6578 10.8052 0.0000 0.0000 0.0000
# 3 18.0890 10.8052 110.3617 0.0000 0.0000 0.0000
# 4 0.0000 0.0000 0.0000 4.1470 0.0000 0.0000
# 5 0.0000 0.0000 0.0000 0.0000 8.7385 0.0000
# 6 0.0000 0.0000 0.0000 0.0000 0.0000 30.9379
#
#
#
# Elastic Compliance Matrix: (Units=1/GPa)
#
#
# Indices 1 2 3 4 5 6 
#
# 1 0.012832 -0.001773 -0.001930 0.000000 0.000000 0.000000
# 2 -0.001773 0.012500 -0.000933 0.000000 0.000000 0.000000
# 3 -0.001930 -0.000933 0.009469 0.000000 0.000000 0.000000
# 4 0.000000 0.000000 0.000000 0.241138 0.000000 0.000000
# 5 0.000000 0.000000 0.000000 0.000000 0.114437 0.000000
# 6 0.000000 0.000000 0.000000 0.000000 0.000000 0.032323
#
#
# Mechanical properties :
#
#
# Convention : Reuss Voigt Hill
#
# Bulk Modulus (GPa) = 39.17063 39.92749 39.54906
# Shear Modulus (GPa) = 11.35127 24.33362 17.84244
#
# Velocity S-wave (km/s) = 2.33687 3.42149 2.92980
# Velocity P-wave (km/s) = 5.11133 5.90062 5.52010
#
# Compressibility (1/GPa) = 0.02552933
#
# Stress axis : x y z
#
# Youngs Moduli (GPa) = 77.93017 80.00130 105.61025
#
# Poissons Ratio (x) = 0.14181 0.20380
# Poissons Ratio (y) = 0.13814 0.09856
# Poissons Ratio (z) = 0.15038 0.07466
#
# Static dielectric constant tensor:
#      x y z
#    x 1.734830 0.000000 0.000000 
#    y 0.000000 1.833680 0.000000 
#    z 0.000000 0.000000 1.776010 
# 
# From -- ./inp_files/8866.got.cif
#   From: 2010.05.17/outbox.cif.g08.bks.cpg/sg21_5_cif.got.tgz:8866.got - 2010.06.03 23:14:55.
