data_PCOD9323633
_publ_section_title
;
Structure prediction by ZEFSAII (Michael W. Deem and Ramdas Pophale) SiO2 
 PCOD9323633
Probable space group: C 2 2 2
;
_chemical_formula_sum "Si O2"
_cell_formula_units_Z 40
_cell_length_a 20.407137
_cell_length_b 7.556965
_cell_length_c 10.769122
_cell_angle_alpha 90.000000
_cell_angle_beta 90.000000
_cell_angle_gamma 90.000000
_cell_volume 1660.771134
_symmetry_space_group_name_H-M "C 2 2 2"
_symmetry_group_IT_number 21
_symmetry_cell_setting 'orthorhombic'
loop_
_space_group_symop_operation_xyz
x,y,z
-x,-y,z
x,-y,-z
-x,y,-z
1/2+x,1/2+y,z
1/2-x,1/2-y,z
1/2+x,1/2-y,-z
1/2-x,1/2+y,-z
loop_
_atom_site_type_symbol
_atom_site_label
_atom_site_fract_x
_atom_site_fract_y
_atom_site_fract_z
Si Si1 0.872087 0.520634 0.363867
Si Si2 0.758434 0.965615 0.247120
Si Si3 0.393368 0.440902 0.362137
Si Si4 0.446373 0.671529 0.889814
Si Si5 0.672729 0.500000 0.000000
Si Si6 0.500000 0.000000 0.744717
O O1 0.844702 0.500000 0.500000
O O2 0.813597 0.464968 0.275774
O O3 0.888043 0.728726 0.362085
O O4 0.940816 0.422924 0.338562
O O5 0.750000 0.750000 0.244872
O O6 0.818796 0.008230 0.340086
O O7 0.782684 0.035576 0.116534
O O8 0.416954 0.500000 0.500000
O O9 0.433330 0.463453 0.229925
O O10 0.465471 0.856495 0.829927
O O11 0.500000 0.655197 0.000000
O O12 0.376777 0.656484 0.959095
#
# Coordination Sequence:
#
# PCOD9323633 Si02
#       6
#     8   8   8   8   4   4
#     4  10  20  39  65  98 136 176 232 291 348 433
#     4   9  19  39  64  93 137 181 227 296 360 426
#     4   9  19  39  68  96 131 180 231 293 365 422
#     4  10  21  42  70  96 140 187 240 298 359 435
#     4  10  21  42  66  97 140 178 244 300 362 419
#     4  10  22  42  68  96 136 196 238 292 363 434
#
# _framework density 24.0852
#
# number of rings (size 3 to 8) (size 9 to 14) (size 15 to 20)
#    0.000    2.400    0.000    2.700    0.000    0.000 
#   25.200    0.000    8.800    0.000    0.000    0.000 
#    0.000    0.000    0.000    0.000    0.000    0.000 
#
# Total GULP energy -111445.380938 kJ/mol
# GULP energy per Si atom -5572.269047 kJ/mol
# Density = 2.403038 g / cm^3
# Si number density = 24.085200 Si / 1000 Ang^3
#
#
#
# Elastic Constant Matrix: (Units=GPa)
#
#
# Indices 1 2 3 4 5 6 
#
# 1 174.7340 10.6132 83.5732 0.0000 0.0000 0.0000
# 2 10.6132 34.8212 11.7312 0.0000 0.0000 0.0000
# 3 83.5732 11.7312 184.9919 0.0000 0.0000 0.0000
# 4 0.0000 0.0000 0.0000 20.0714 0.0000 0.0000
# 5 0.0000 0.0000 0.0000 0.0000 30.0051 0.0000
# 6 0.0000 0.0000 0.0000 0.0000 0.0000 28.8679
#
#
#
# Elastic Compliance Matrix: (Units=1/GPa)
#
#
# Indices 1 2 3 4 5 6 
#
# 1 0.007345 -0.001145 -0.003246 0.000000 0.000000 0.000000
# 2 -0.001145 0.029524 -0.001355 0.000000 0.000000 0.000000
# 3 -0.003246 -0.001355 0.006958 0.000000 0.000000 0.000000
# 4 0.000000 0.000000 0.000000 0.049822 0.000000 0.000000
# 5 0.000000 0.000000 0.000000 0.000000 0.033328 0.000000
# 6 0.000000 0.000000 0.000000 0.000000 0.000000 0.034641
#
#
# Mechanical properties :
#
#
# Convention : Reuss Voigt Hill
#
# Bulk Modulus (GPa) = 30.92620 67.37582 49.15101
# Shear Modulus (GPa) = 27.19075 35.03086 31.11080
#
# Velocity S-wave (km/s) = 3.36362 3.81787 3.59792
# Velocity P-wave (km/s) = 5.28710 6.88981 6.14097
#
# Compressibility (1/GPa) = 0.03233505
#
# Stress axis : x y z
#
# Youngs Moduli (GPa) = 136.14992 33.87114 143.72393
#
# Poissons Ratio (x) = 0.03879 0.46646
# Poissons Ratio (y) = 0.15592 0.19473
# Poissons Ratio (z) = 0.44188 0.04589
#
# Static dielectric constant tensor:
#      x y z
#    x 2.471680 0.000000 0.000000 
#    y 0.000000 1.888980 0.000000 
#    z 0.000000 0.000000 2.001470 
# 
# From -- ./inp_files/26702.got.cif
#   From: 2010.05.17/outbox.cif.g08.bks.cpg/sg21_14_cif.got.tgz:26702.got - 2010.06.03 23:14:55.
