data_PCOD9323597
_publ_section_title
;
Structure prediction by ZEFSAII (Michael W. Deem and Ramdas Pophale) SiO2 
 PCOD9323597
Probable space group: C 2 2 2
;
_chemical_formula_sum "Si O2"
_cell_formula_units_Z 48
_cell_length_a 22.112388
_cell_length_b 14.276612
_cell_length_c 5.779279
_cell_angle_alpha 90.000000
_cell_angle_beta 90.000000
_cell_angle_gamma 90.000000
_cell_volume 1824.460494
_symmetry_space_group_name_H-M "C 2 2 2"
_symmetry_group_IT_number 21
_symmetry_cell_setting 'orthorhombic'
loop_
_space_group_symop_operation_xyz
x,y,z
-x,-y,z
x,-y,-z
-x,y,-z
1/2+x,1/2+y,z
1/2-x,1/2-y,z
1/2+x,1/2-y,-z
1/2-x,1/2+y,-z
loop_
_atom_site_type_symbol
_atom_site_label
_atom_site_fract_x
_atom_site_fract_y
_atom_site_fract_z
Si Si1 0.760919 0.598564 0.132566
Si Si2 0.307941 0.268854 0.760280
Si Si3 0.905820 0.381310 0.237532
Si Si4 0.642860 0.597877 0.416524
Si Si5 0.021482 0.890079 0.756312
Si Si6 0.898522 0.392646 0.742730
O O1 0.709929 0.581722 0.325176
O O2 0.825902 0.628166 0.240805
O O3 0.770227 0.500000 0.000000
O O4 0.723983 0.670605 0.964127
O O5 0.250000 0.250000 0.598090
O O6 0.341196 0.170621 0.790588
O O7 0.354931 0.333884 0.632186
O O8 0.925176 0.356324 0.499844
O O9 0.902096 0.493996 0.252484
O O10 0.930765 0.360907 0.980031
O O11 0.617571 0.500000 0.500000
O O12 0.593726 0.628446 0.232423
O O13 0.000000 0.856558 0.500000
O O14 0.000000 0.000000 0.762547
O O15 0.000000 0.848768 0.000000
#
# Coordination Sequence:
#
# PCOD9323597 Si02
#       6
#     8   8   8   8   8   8
#     4  12  23  33  52  75 115 157 210 260 307 361
#     4  12  24  38  53  83 122 165 221 269 319 370
#     4  10  21  36  55  73  99 151 205 261 301 353
#     4  12  26  38  60  90 120 169 220 279 316 395
#     4  10  22  41  67  87 118 152 212 270 334 380
#     4  10  20  39  55  71 105 154 217 250 303 357
#
# _framework density 26.309146999999999
#
# number of rings (size 3 to 8) (size 9 to 14) (size 15 to 20)
#    0.000    1.000    6.667    1.000    9.333    0.667 
#    0.000    0.000    0.000    0.000    0.000    0.000 
#    0.000    0.000    0.000    3.000   22.333    4.333 
#
# Total GULP energy -133847.489379 kJ/mol
# GULP energy per Si atom -5576.978724 kJ/mol
# Density = 2.624927 g / cm^3
# Si number density = 26.309147 Si / 1000 Ang^3
#
#
#
# Elastic Constant Matrix: (Units=GPa)
#
#
# Indices 1 2 3 4 5 6 
#
# 1 107.4450 3.8167 32.9797 0.0000 0.0000 0.0000
# 2 3.8167 94.9279 18.5224 0.0000 0.0000 0.0000
# 3 32.9797 18.5224 232.8547 0.0000 0.0000 0.0000
# 4 0.0000 0.0000 0.0000 15.1710 0.0000 0.0000
# 5 0.0000 0.0000 0.0000 0.0000 -162.7191 0.0000
# 6 0.0000 0.0000 0.0000 0.0000 0.0000 -1.9393
#
#
#
# Elastic Compliance Matrix: (Units=1/GPa)
#
#
# Indices 1 2 3 4 5 6 
#
# 1 0.009732 -0.000124 -0.001368 0.000000 0.000000 0.000000
# 2 -0.000124 0.010702 -0.000834 0.000000 0.000000 0.000000
# 3 -0.001368 -0.000834 0.004555 0.000000 0.000000 0.000000
# 4 0.000000 0.000000 0.000000 0.065915 0.000000 0.000000
# 5 0.000000 0.000000 0.000000 0.000000 -0.006146 0.000000
# 6 0.000000 0.000000 0.000000 0.000000 0.000000 -0.515656
#
#
# Mechanical properties :
#
#
# Convention : Reuss Voigt Hill
#
# Bulk Modulus (GPa) = 49.17528 60.65170 54.91349
# Shear Modulus (GPa) = -11.91989 -4.57022 -8.24505
#
# Velocity S-wave (km/s) = -2.13085 -1.31943 -1.77221
# Velocity P-wave (km/s) = 3.56060 4.55876 4.09024
#
# Compressibility (1/GPa) = 0.02033542
#
# Stress axis : x y z
#
# Youngs Moduli (GPa) = 102.75879 93.44071 219.55585
#
# Poissons Ratio (x) = 0.01161 0.30044
# Poissons Ratio (y) = 0.01277 0.18304
# Poissons Ratio (z) = 0.14062 0.07790
#
# Static dielectric constant tensor:
#      x y z
#    x 2.079340 0.000000 0.000000 
#    y 0.000000 2.191330 0.000000 
#    z 0.000000 0.000000 2.230840 
# 
# From -- ./inp_files/7333.got.cif
#   From: 2010.05.17/outbox.cif.g08.bks.cpg/sg21_4_cif.got.tgz:7333.got - 2010.06.03 23:14:55.
