data_PCOD9323585
_publ_section_title
;
Structure prediction by ZEFSAII (Michael W. Deem and Ramdas Pophale) SiO2 
 PCOD9323585
Probable space group: C 2 2 2
;
_chemical_formula_sum "Si O2"
_cell_formula_units_Z 52
_cell_length_a 11.757011
_cell_length_b 25.927344
_cell_length_c 8.207409
_cell_angle_alpha 90.000000
_cell_angle_beta 90.000000
_cell_angle_gamma 90.000000
_cell_volume 2501.848634
_symmetry_space_group_name_H-M "C 2 2 2"
_symmetry_group_IT_number 21
_symmetry_cell_setting 'orthorhombic'
loop_
_space_group_symop_operation_xyz
x,y,z
-x,-y,z
x,-y,-z
-x,y,-z
1/2+x,1/2+y,z
1/2-x,1/2-y,z
1/2+x,1/2-y,-z
1/2-x,1/2+y,-z
loop_
_atom_site_type_symbol
_atom_site_label
_atom_site_fract_x
_atom_site_fract_y
_atom_site_fract_z
Si Si1 0.256844 0.865658 0.326750
Si Si2 0.077623 0.219534 0.633947
Si Si3 0.250000 0.250000 0.378418
Si Si4 0.425612 0.566848 0.837012
Si Si5 0.638255 0.468247 0.328691
Si Si6 0.735650 0.142499 0.715489
Si Si7 0.991322 0.679189 0.807999
O O1 0.160914 0.822144 0.283707
O O2 0.228551 0.924534 0.284485
O O3 0.254683 0.867885 0.523257
O O4 0.376107 0.847578 0.254195
O O5 0.149014 0.256133 0.509142
O O6 0.015678 0.261006 0.747515
O O7 0.000000 0.190602 0.500000
O O8 0.226111 0.201572 0.267813
O O9 0.518843 0.563122 0.689961
O O10 0.368427 0.510999 0.812657
O O11 0.324096 0.607181 0.811516
O O12 0.500000 0.574684 0.000000
O O13 0.653266 0.500000 0.500000
O O14 0.601741 0.146494 0.752732
O O15 0.000000 0.680504 0.000000
#
# Coordination Sequence:
#
# PCOD9323585 Si02
#       7
#     8   8   4   8   8   8   8
#     4  11  24  42  73  98 131 185 244 286 338 419
#     4  11  20  40  67  98 133 185 235 288 340 405
#     4  10  20  38  68  94 126 180 242 278 324 404
#     4  11  25  43  67 101 142 175 209 297 374 413
#     4  11  23  42  70 105 131 170 238 297 342 418
#     4  11  23  43  69  94 133 185 235 280 345 416
#     4  12  25  44  62  97 146 185 226 286 350 426
#
# _framework density 20.784631999999998
#
# number of rings (size 3 to 8) (size 9 to 14) (size 15 to 20)
#    0.000    0.923    6.154    2.308    6.462    0.000 
#    2.769    3.077    0.000    0.923    0.000    0.000 
#    0.000    0.000    0.000    0.000    0.000    0.000 
#
# Total GULP energy -144880.517982 kJ/mol
# GULP energy per Si atom -5572.327615 kJ/mol
# Density = 2.073732 g / cm^3
# Si number density = 20.784632 Si / 1000 Ang^3
#
#
#
# Elastic Constant Matrix: (Units=GPa)
#
#
# Indices 1 2 3 4 5 6 
#
# 1 124.9655 78.8956 47.3498 0.0000 0.0000 0.0000
# 2 78.8956 144.2002 42.8569 0.0000 0.0000 0.0000
# 3 47.3498 42.8569 84.8999 0.0000 0.0000 0.0000
# 4 0.0000 0.0000 0.0000 14.3021 0.0000 0.0000
# 5 0.0000 0.0000 0.0000 0.0000 28.8939 0.0000
# 6 0.0000 0.0000 0.0000 0.0000 0.0000 45.2875
#
#
#
# Elastic Compliance Matrix: (Units=1/GPa)
#
#
# Indices 1 2 3 4 5 6 
#
# 1 0.013535 -0.006073 -0.004483 0.000000 0.000000 0.000000
# 2 -0.006073 0.010884 -0.002107 0.000000 0.000000 0.000000
# 3 -0.004483 -0.002107 0.015342 0.000000 0.000000 0.000000
# 4 0.000000 0.000000 0.000000 0.069920 0.000000 0.000000
# 5 0.000000 0.000000 0.000000 0.000000 0.034609 0.000000
# 6 0.000000 0.000000 0.000000 0.000000 0.000000 0.022081
#
#
# Mechanical properties :
#
#
# Convention : Reuss Voigt Hill
#
# Bulk Modulus (GPa) = 69.27596 76.91889 73.09742
# Shear Modulus (GPa) = 25.44413 30.02760 27.73586
#
# Velocity S-wave (km/s) = 3.50262 3.80505 3.65696
# Velocity P-wave (km/s) = 7.05412 7.50949 7.28536
#
# Compressibility (1/GPa) = 0.01443502
#
# Stress axis : x y z
#
# Youngs Moduli (GPa) = 73.88302 91.88067 65.17869
#
# Poissons Ratio (x) = 0.55798 0.29220
# Poissons Ratio (y) = 0.44869 0.13734
# Poissons Ratio (z) = 0.33122 0.19360
#
# Static dielectric constant tensor:
#      x y z
#    x 1.882290 0.000000 0.000000 
#    y 0.000000 1.817420 0.000000 
#    z 0.000000 0.000000 1.779060 
# 
# From -- ./inp_files/13499.got.cif
#   From: 2010.05.17/outbox.cif.g08.bks.cpg/sg21_7_cif.got.tgz:13499.got - 2010.06.03 23:14:55.
