data_PCOD9323057
_publ_section_title
;
Structure prediction by ZEFSAII (Michael W. Deem and Ramdas Pophale) SiO2 
 PCOD9323057
Probable space group: C 2 2 2
;
_chemical_formula_sum "Si O2"
_cell_formula_units_Z 34
_cell_length_a 22.848593
_cell_length_b 8.210629
_cell_length_c 7.995997
_cell_angle_alpha 90.000000
_cell_angle_beta 90.000000
_cell_angle_gamma 90.000000
_cell_volume 1500.059594
_symmetry_space_group_name_H-M "C 2 2 2"
_symmetry_group_IT_number 21
_symmetry_cell_setting 'orthorhombic'
loop_
_space_group_symop_operation_xyz
x,y,z
-x,-y,z
x,-y,-z
-x,y,-z
1/2+x,1/2+y,z
1/2-x,1/2-y,z
1/2+x,1/2-y,-z
1/2-x,1/2+y,-z
loop_
_atom_site_type_symbol
_atom_site_label
_atom_site_fract_x
_atom_site_fract_y
_atom_site_fract_z
Si Si1 0.888033 0.500000 0.000000
Si Si2 0.429928 0.240651 0.247718
Si Si3 0.904677 0.000000 0.000000
Si Si4 0.182622 0.751396 0.179315
Si Si5 0.188239 0.308410 0.445868
Si Si6 0.500000 0.000000 0.500000
O O1 0.928673 0.629758 0.084808
O O2 0.846114 0.422757 0.139312
O O3 0.439171 0.416122 0.156824
O O4 0.365252 0.241970 0.329222
O O5 0.466142 0.131009 0.380982
O O6 0.859759 0.127694 0.082888
O O7 0.250000 0.750000 0.123502
O O8 0.181821 0.783819 0.376518
O O9 0.188970 0.500000 0.500000
O O10 0.250000 0.250000 0.371109
#
# Coordination Sequence:
#
# PCOD9323057 Si02
#       6
#     4   8   4   8   8   2
#     4  10  19  39  62  94 136 170 237 291 354 442
#     4  11  24  44  73 105 139 187 245 302 369 430
#     4  10  25  40  64 105 148 180 233 313 360 430
#     4  10  20  34  59  96 142 190 227 280 354 427
#     4  11  23  39  64 105 145 193 241 292 356 432
#     4  12  24  50  84 106 136 196 256 310 356 472
#
# _framework density 22.665765
#
# number of rings (size 3 to 8) (size 9 to 14) (size 15 to 20)
#    0.000    1.412    3.529    0.706    6.588    4.235 
#    0.000    0.000    0.000   40.941    0.000    0.000 
#    0.000    0.000    0.000    0.000    0.000    0.000 
#
# Total GULP energy -94751.729211 kJ/mol
# GULP energy per Si atom -5573.631130 kJ/mol
# Density = 2.261418 g / cm^3
# Si number density = 22.665765 Si / 1000 Ang^3
#
#
#
# Elastic Constant Matrix: (Units=GPa)
#
#
# Indices 1 2 3 4 5 6 
#
# 1 103.4379 48.6072 55.9047 0.0000 0.0000 0.0000
# 2 48.6072 89.0378 34.1354 0.0000 0.0000 0.0000
# 3 55.9047 34.1354 94.4963 0.0000 0.0000 0.0000
# 4 0.0000 0.0000 0.0000 46.8566 0.0000 0.0000
# 5 0.0000 0.0000 0.0000 0.0000 1762.0013 0.0000
# 6 0.0000 0.0000 0.0000 0.0000 0.0000 19.7477
#
#
#
# Elastic Compliance Matrix: (Units=1/GPa)
#
#
# Indices 1 2 3 4 5 6 
#
# 1 0.016711 -0.006190 -0.007650 0.000000 0.000000 0.000000
# 2 -0.006190 0.015329 -0.001876 0.000000 0.000000 0.000000
# 3 -0.007650 -0.001876 0.015786 0.000000 0.000000 0.000000
# 4 0.000000 0.000000 0.000000 0.021342 0.000000 0.000000
# 5 0.000000 0.000000 0.000000 0.000000 0.000568 0.000000
# 6 0.000000 0.000000 0.000000 0.000000 0.000000 0.050639
#
#
# Mechanical properties :
#
#
# Convention : Reuss Voigt Hill
#
# Bulk Modulus (GPa) = 60.99485 62.69630 61.84557
# Shear Modulus (GPa) = 31.79222 375.60943 203.70082
#
# Velocity S-wave (km/s) = 3.74926 12.88706 9.49035
# Velocity P-wave (km/s) = 6.76104 15.78469 12.14224
#
# Compressibility (1/GPa) = 0.01639483
#
# Stress axis : x y z
#
# Youngs Moduli (GPa) = 59.84022 65.23419 63.34723
#
# Poissons Ratio (x) = 0.40379 0.48464
# Poissons Ratio (y) = 0.37040 0.11881
# Poissons Ratio (z) = 0.45781 0.12235
#
# Static dielectric constant tensor:
#      x y z
#    x 1.624790 0.000000 0.000000 
#    y 0.000000 -3.463840 0.000000 
#    z 0.000000 0.000000 1.864710 
# 
# From -- ./inp_files/10621.got.cif
#   From: 2010.05.17/outbox.cif.g08.bks.cpg/sg21_6_cif.got.tgz:10621.got - 2010.06.03 23:14:55.
