data_PCOD9323301
_publ_section_title
;
Structure prediction by ZEFSAII (Michael W. Deem and Ramdas Pophale) SiO2 
 PCOD9323301
Probable space group: C 2 2 2
;
_chemical_formula_sum "Si O2"
_cell_formula_units_Z 64
_cell_length_a 16.979998
_cell_length_b 22.273344
_cell_length_c 9.093004
_cell_angle_alpha 90.000000
_cell_angle_beta 90.000000
_cell_angle_gamma 90.000000
_cell_volume 3438.986266
_symmetry_space_group_name_H-M "C 2 2 2"
_symmetry_group_IT_number 21
_symmetry_cell_setting 'orthorhombic'
loop_
_space_group_symop_operation_xyz
x,y,z
-x,-y,z
x,-y,-z
-x,y,-z
1/2+x,1/2+y,z
1/2-x,1/2-y,z
1/2+x,1/2-y,-z
1/2-x,1/2+y,-z
loop_
_atom_site_type_symbol
_atom_site_label
_atom_site_fract_x
_atom_site_fract_y
_atom_site_fract_z
Si Si1 0.744202 0.986410 0.672536
Si Si2 0.082622 0.784865 0.316989
Si Si3 0.704644 0.371033 0.169730
Si Si4 0.792038 0.106018 0.830265
Si Si5 0.099061 0.802662 0.658194
Si Si6 0.674561 0.791464 0.137869
Si Si7 0.613904 0.831856 0.848882
Si Si8 0.418394 0.969471 0.159263
O O1 0.780939 0.041148 0.763173
O O2 0.745807 0.000000 0.500000
O O3 0.790890 0.926171 0.716843
O O4 0.654776 0.979776 0.732288
O O5 0.140961 0.821704 0.212714
O O6 0.108941 0.797961 0.483673
O O7 0.085254 0.714730 0.273217
O O8 0.992940 0.806238 0.305355
O O9 0.792511 0.343395 0.172619
O O10 0.689677 0.394115 0.003986
O O11 0.854966 0.143248 0.735887
O O12 0.710950 0.144398 0.820432
O O13 0.135210 0.742597 0.728275
O O14 0.750000 0.750000 0.090975
O O15 0.612368 0.799845 0.007572
O O16 0.573995 0.897222 0.854282
O O17 0.500000 0.000000 0.207924
O O18 0.399747 0.000000 0.000000
#
# Coordination Sequence:
#
# PCOD9323301 Si02
#       8
#     8   8   8   8   8   8   8   8
#     4  11  22  37  60  85 112 149 187 231 288 342
#     4  11  22  37  54  81 119 146 182 234 287 343
#     4  10  21  38  60  84 109 145 191 238 278 332
#     4  10  20  38  60  81 110 146 192 235 278 341
#     4  10  23  36  52  83 117 149 181 232 293 337
#     4   9  18  33  55  82 108 142 188 233 276 329
#     4  10  20  35  58  82 108 149 192 232 280 331
#     4  10  22  39  57  84 119 156 196 238 276 324
#
# _framework density 18.610136000000001
#
# number of rings (size 3 to 8) (size 9 to 14) (size 15 to 20)
#    0.000    1.875    0.000    6.000    0.000   10.250 
#    0.000    3.125    0.000    3.750    0.000    0.000 
#    0.000    0.000    0.000    0.000    0.000    0.000 
#
# Total GULP energy -178687.702362 kJ/mol
# GULP energy per Si atom -5583.990699 kJ/mol
# Density = 1.856778 g / cm^3
# Si number density = 18.610136 Si / 1000 Ang^3
#
#
#
# Elastic Constant Matrix: (Units=GPa)
#
#
# Indices 1 2 3 4 5 6 
#
# 1 47.3186 22.5765 41.3165 0.0000 0.0000 0.0000
# 2 22.5765 86.7026 32.0968 0.0000 0.0000 0.0000
# 3 41.3165 32.0968 80.5662 0.0000 0.0000 0.0000
# 4 0.0000 0.0000 0.0000 27.0941 0.0000 0.0000
# 5 0.0000 0.0000 0.0000 0.0000 18.8094 0.0000
# 6 0.0000 0.0000 0.0000 0.0000 0.0000 13.2601
#
#
#
# Elastic Compliance Matrix: (Units=1/GPa)
#
#
# Indices 1 2 3 4 5 6 
#
# 1 0.039025 -0.003229 -0.018727 0.000000 0.000000 0.000000
# 2 -0.003229 0.013796 -0.003840 0.000000 0.000000 0.000000
# 3 -0.018727 -0.003840 0.023546 0.000000 0.000000 0.000000
# 4 0.000000 0.000000 0.000000 0.036908 0.000000 0.000000
# 5 0.000000 0.000000 0.000000 0.000000 0.053165 0.000000
# 6 0.000000 0.000000 0.000000 0.000000 0.000000 0.075414
#
#
# Mechanical properties :
#
#
# Convention : Reuss Voigt Hill
#
# Bulk Modulus (GPa) = 40.36370 45.17412 42.76891
# Shear Modulus (GPa) = 16.57243 19.73921 18.15582
#
# Velocity S-wave (km/s) = 2.98737 3.26033 3.12683
# Velocity P-wave (km/s) = 5.79960 6.20480 6.00562
#
# Compressibility (1/GPa) = 0.02477473
#
# Stress axis : x y z
#
# Youngs Moduli (GPa) = 25.62428 72.48387 42.47061
#
# Poissons Ratio (x) = 0.23407 0.79534
# Poissons Ratio (y) = 0.08275 0.16310
# Poissons Ratio (z) = 0.47986 0.27835
#
# Static dielectric constant tensor:
#      x y z
#    x 1.633170 0.000000 0.000000 
#    y 0.000000 1.648930 0.000000 
#    z 0.000000 0.000000 1.638940 
# 
# From -- ./inp_files/16840.got.cif
#   From: 2010.05.17/outbox.cif.g08.bks.cpg/sg21_9_cif.got.tgz:16840.got - 2010.06.03 23:14:55.
