data_PCOD9323317
_publ_section_title
;
Structure prediction by ZEFSAII (Michael W. Deem and Ramdas Pophale) SiO2 
 PCOD9323317
Probable space group: C 2 2 2
;
_chemical_formula_sum "Si O2"
_cell_formula_units_Z 44
_cell_length_a 14.233390
_cell_length_b 28.651023
_cell_length_c 5.252939
_cell_angle_alpha 90.000000
_cell_angle_beta 90.000000
_cell_angle_gamma 90.000000
_cell_volume 2142.154745
_symmetry_space_group_name_H-M "C 2 2 2"
_symmetry_group_IT_number 21
_symmetry_cell_setting 'orthorhombic'
loop_
_space_group_symop_operation_xyz
x,y,z
-x,-y,z
x,-y,-z
-x,y,-z
1/2+x,1/2+y,z
1/2-x,1/2-y,z
1/2+x,1/2-y,-z
1/2-x,1/2+y,-z
loop_
_atom_site_type_symbol
_atom_site_label
_atom_site_fract_x
_atom_site_fract_y
_atom_site_fract_z
Si Si1 0.500000 0.586544 0.000000
Si Si2 0.886590 0.303452 0.501678
Si Si3 0.745513 0.112449 0.497084
Si Si4 0.079970 0.166602 0.664377
Si Si5 0.708634 0.445938 0.987377
Si Si6 0.888130 0.250777 0.004558
O O1 0.474565 0.621807 0.227685
O O2 0.405038 0.557837 0.961984
O O3 0.845421 0.355219 0.515805
O O4 0.850553 0.281140 0.238795
O O5 0.000000 0.305239 0.500000
O O6 0.853933 0.270816 0.737027
O O7 0.833140 0.148685 0.498445
O O8 0.758712 0.082889 0.236992
O O9 0.751674 0.078696 0.737055
O O10 0.118120 0.197365 0.899822
O O11 0.000000 0.193376 0.500000
O O12 0.735347 0.500000 0.000000
O O13 0.000000 0.258742 0.000000
#
# Coordination Sequence:
#
# PCOD9323317 Si02
#       6
#     4   8   8   8   8   8
#     4  10  21  36  58  90 128 168 196 238 295 372
#     4  10  22  41  60  85 117 161 211 252 305 351
#     4  11  24  40  63  89 121 162 204 258 311 366
#     4  11  20  36  56  88 129 163 203 239 300 353
#     4  11  23  41  64  92 123 158 204 255 314 377
#     4  10  20  35  59  84 119 164 205 250 288 349
#
# _framework density 20.540064999999998
#
# number of rings (size 3 to 8) (size 9 to 14) (size 15 to 20)
#    0.000    1.455    2.727    3.545    0.000    0.727 
#    0.000    7.273    0.000    3.273    0.000    0.000 
#    0.000    0.000    0.000    0.000    0.000    0.000 
#
# Total GULP energy -122950.142181 kJ/mol
# GULP energy per Si atom -5588.642826 kJ/mol
# Density = 2.049332 g / cm^3
# Si number density = 20.540065 Si / 1000 Ang^3
#
#
#
# Elastic Constant Matrix: (Units=GPa)
#
#
# Indices 1 2 3 4 5 6 
#
# 1 68.4364 38.0988 31.0053 0.0000 0.0000 0.0000
# 2 38.0988 134.0125 67.5110 0.0000 0.0000 0.0000
# 3 31.0053 67.5110 152.0218 0.0000 0.0000 0.0000
# 4 0.0000 0.0000 0.0000 32.4616 0.0000 0.0000
# 5 0.0000 0.0000 0.0000 0.0000 7.8941 0.0000
# 6 0.0000 0.0000 0.0000 0.0000 0.0000 -5.6699
#
#
#
# Elastic Compliance Matrix: (Units=1/GPa)
#
#
# Indices 1 2 3 4 5 6 
#
# 1 0.017723 -0.004145 -0.001774 0.000000 0.000000 0.000000
# 2 -0.004145 0.010582 -0.003854 0.000000 0.000000 0.000000
# 3 -0.001774 -0.003854 0.008651 0.000000 0.000000 0.000000
# 4 0.000000 0.000000 0.000000 0.030806 0.000000 0.000000
# 5 0.000000 0.000000 0.000000 0.000000 0.126676 0.000000
# 6 0.000000 0.000000 0.000000 0.000000 0.000000 -0.176370
#
#
# Mechanical properties :
#
#
# Convention : Reuss Voigt Hill
#
# Bulk Modulus (GPa) = 57.43570 69.74455 63.59012
# Shear Modulus (GPa) = 115.16006 21.46088 68.31047
#
# Velocity S-wave (km/s) = 7.49585 3.23589 5.77316
# Velocity P-wave (km/s) = 10.14596 6.92751 8.68709
#
# Compressibility (1/GPa) = 0.01741077
#
# Stress axis : x y z
#
# Youngs Moduli (GPa) = 56.42287 94.50164 115.58980
#
# Poissons Ratio (x) = 0.39170 0.20506
# Poissons Ratio (y) = 0.23387 0.44547
# Poissons Ratio (z) = 0.10009 0.36420
#
# Static dielectric constant tensor:
#      x y z
#    x 1.822200 0.000000 0.000000 
#    y 0.000000 1.719990 0.000000 
#    z 0.000000 0.000000 1.797520 
# 
# From -- ./inp_files/4037.got.cif
#   From: 2010.05.17/outbox.cif.g08.bks.cpg/sg21_3_cif.got.tgz:4037.got - 2010.06.03 23:14:55.
