data_PCOD9323836
_publ_section_title
;
Structure prediction by ZEFSAII (Michael W. Deem and Ramdas Pophale) SiO2 
 PCOD9323836
Probable space group: C 2 2 2
;
_chemical_formula_sum "Si O2"
_cell_formula_units_Z 48
_cell_length_a 5.716615
_cell_length_b 24.523096
_cell_length_c 15.359160
_cell_angle_alpha 90.000000
_cell_angle_beta 90.000000
_cell_angle_gamma 90.000000
_cell_volume 2153.186793
_symmetry_space_group_name_H-M "C 2 2 2"
_symmetry_group_IT_number 21
_symmetry_cell_setting 'orthorhombic'
loop_
_space_group_symop_operation_xyz
x,y,z
-x,-y,z
x,-y,-z
-x,y,-z
1/2+x,1/2+y,z
1/2-x,1/2-y,z
1/2+x,1/2-y,-z
1/2-x,1/2+y,-z
loop_
_atom_site_type_symbol
_atom_site_label
_atom_site_fract_x
_atom_site_fract_y
_atom_site_fract_z
Si Si1 0.629562 0.308715 0.765197
Si Si2 0.313463 0.690300 0.064468
Si Si3 0.251647 0.470706 0.740738
Si Si4 0.561545 0.859329 0.798968
Si Si5 0.748443 0.073808 0.454736
Si Si6 0.722500 0.311110 0.374483
O O1 0.750000 0.250000 0.772807
O O2 0.438914 0.304759 0.841506
O O3 0.532696 0.315006 0.668517
O O4 0.784989 0.361636 0.784937
O O5 0.250000 0.750000 0.029444
O O6 0.084466 0.661492 0.101604
O O7 0.500000 0.664067 0.000000
O O8 0.500000 0.500000 0.762090
O O9 0.217273 0.412614 0.788251
O O10 0.256603 0.455912 0.638324
O O11 0.000000 0.500000 0.757289
O O12 0.622268 0.821568 0.713346
O O13 0.500000 0.059875 0.500000
O O14 0.737617 0.139069 0.437968
O O15 0.000000 0.062882 0.500000
O O16 0.750000 0.250000 0.408626
#
# Coordination Sequence:
#
# PCOD9323836 Si02
#       6
#     8   8   8   8   8   8
#     4  11  18  34  61  87 128 170 218 259 316 381
#     4  11  22  34  55  97 137 175 208 252 316 397
#     4  11  26  45  71  95 119 161 225 286 342 396
#     4  10  22  38  61  91 124 165 216 274 324 378
#     4  11  26  42  63  93 129 164 207 268 343 408
#     4  10  21  35  58  87 125 171 214 253 310 392
#
# _framework density 22.292539999999999
#
# number of rings (size 3 to 8) (size 9 to 14) (size 15 to 20)
#    0.000    1.333    3.333    2.500   11.667    2.667 
#    0.000    0.000    0.000    0.500    0.000    0.000 
#    0.000    0.000    0.000    0.000    0.000    0.000 
#
# Total GULP energy -133754.966950 kJ/mol
# GULP energy per Si atom -5573.123623 kJ/mol
# Density = 2.224180 g / cm^3
# Si number density = 22.292540 Si / 1000 Ang^3
#
#
#
# Elastic Constant Matrix: (Units=GPa)
#
#
# Indices 1 2 3 4 5 6 
#
# 1 103.6042 21.7529 5.7140 0.0000 0.0000 0.0000
# 2 21.7529 94.6305 0.5989 0.0000 0.0000 0.0000
# 3 5.7140 0.5989 38.2108 0.0000 0.0000 0.0000
# 4 0.0000 0.0000 0.0000 -2.3407 0.0000 0.0000
# 5 0.0000 0.0000 0.0000 0.0000 8.3264 0.0000
# 6 0.0000 0.0000 0.0000 0.0000 0.0000 -62.2803
#
#
#
# Elastic Compliance Matrix: (Units=1/GPa)
#
#
# Indices 1 2 3 4 5 6 
#
# 1 0.010226 -0.002341 -0.001492 0.000000 0.000000 0.000000
# 2 -0.002341 0.011104 0.000176 0.000000 0.000000 0.000000
# 3 -0.001492 0.000176 0.026391 0.000000 0.000000 0.000000
# 4 0.000000 0.000000 0.000000 -0.427225 0.000000 0.000000
# 5 0.000000 0.000000 0.000000 0.000000 0.120100 0.000000
# 6 0.000000 0.000000 0.000000 0.000000 0.000000 -0.016056
#
#
# Mechanical properties :
#
#
# Convention : Reuss Voigt Hill
#
# Bulk Modulus (GPa) = 24.74866 32.50856 28.62861
# Shear Modulus (GPa) = -19.63279 2.63306 -8.49987
#
# Velocity S-wave (km/s) = -2.97086 1.08798 -1.95478
# Velocity P-wave (km/s) = 0.80134 4.02401 2.78841
#
# Compressibility (1/GPa) = 0.04040623
#
# Stress axis : x y z
#
# Youngs Moduli (GPa) = 97.78997 90.05369 37.89164
#
# Poissons Ratio (x) = 0.21084 0.05655
# Poissons Ratio (y) = 0.22895 -0.00667
# Poissons Ratio (z) = 0.14595 -0.01586
#
# Static dielectric constant tensor:
#      x y z
#    x 2.299050 0.000000 0.000000 
#    y 0.000000 2.107940 0.000000 
#    z 0.000000 0.000000 2.423900 
# 
# From -- ./inp_files/29374.got.cif
#   From: 2010.05.17/outbox.cif.g08.bks.cpg/sg21_15_cif.got.tgz:29374.got - 2010.06.03 23:14:55.
