data_PCOD9323078
_publ_section_title
;
Structure prediction by ZEFSAII (Michael W. Deem and Ramdas Pophale) SiO2 
 PCOD9323078
Probable space group: C 2 2 2
;
_chemical_formula_sum "Si O2"
_cell_formula_units_Z 56
_cell_length_a 19.508135
_cell_length_b 9.162300
_cell_length_c 15.806382
_cell_angle_alpha 90.000000
_cell_angle_beta 90.000000
_cell_angle_gamma 90.000000
_cell_volume 2825.223003
_symmetry_space_group_name_H-M "C 2 2 2"
_symmetry_group_IT_number 21
_symmetry_cell_setting 'orthorhombic'
loop_
_space_group_symop_operation_xyz
x,y,z
-x,-y,z
x,-y,-z
-x,y,-z
1/2+x,1/2+y,z
1/2-x,1/2-y,z
1/2+x,1/2-y,-z
1/2-x,1/2+y,-z
loop_
_atom_site_type_symbol
_atom_site_label
_atom_site_fract_x
_atom_site_fract_y
_atom_site_fract_z
Si Si1 0.730471 0.420592 0.085604
Si Si2 0.062677 0.739639 0.272678
Si Si3 0.177513 0.492151 0.752784
Si Si4 0.741513 0.083496 0.424290
Si Si5 0.101982 0.978226 0.404578
Si Si6 0.412377 0.732832 0.732241
Si Si7 0.423981 0.508760 0.132855
O O1 0.750000 0.250000 0.082527
O O2 0.769242 0.482681 0.169328
O O3 0.647850 0.444240 0.090457
O O4 0.754712 0.500000 0.000000
O O5 0.113273 0.617087 0.237007
O O6 0.984874 0.685592 0.276394
O O7 0.083109 0.823437 0.360132
O O8 0.064903 0.871672 0.205974
O O9 0.209487 0.429684 0.667164
O O10 0.149619 0.653688 0.733146
O O11 0.750000 0.250000 0.449948
O O12 0.703792 0.000000 0.500000
O O13 0.816333 0.016344 0.412342
O O14 0.084397 0.111430 0.341969
O O15 0.075207 0.000000 0.500000
O O16 0.410019 0.644203 0.820155
O O17 0.500000 0.500000 0.090909
#
# Coordination Sequence:
#
# PCOD9323078 Si02
#       7
#     8   8   8   8   8   8   8
#     4  12  27  45  71 101 134 168 218 275 336 395
#     4  10  19  40  61  88 125 173 215 262 329 391
#     4  12  23  40  67  92 132 170 211 276 333 382
#     4  11  24  39  61  89 122 164 212 267 329 393
#     4  10  21  37  59  87 126 167 221 276 325 385
#     4  10  23  35  62  95 122 169 222 261 320 398
#     4   9  20  42  68  93 127 169 214 257 319 395
#
# _framework density 19.821445000000001
#
# number of rings (size 3 to 8) (size 9 to 14) (size 15 to 20)
#    0.000    1.429    2.857    3.857    6.000    2.571 
#    0.000    0.000    0.000    4.286    0.000    0.000 
#    0.000    0.000    0.000    0.000    0.000    0.000 
#
# Total GULP energy -156109.011704 kJ/mol
# GULP energy per Si atom -5575.321847 kJ/mol
# Density = 1.977633 g / cm^3
# Si number density = 19.821445 Si / 1000 Ang^3
#
#
#
# Elastic Constant Matrix: (Units=GPa)
#
#
# Indices 1 2 3 4 5 6 
#
# 1 96.8599 18.1885 14.5934 0.0000 0.0000 0.0000
# 2 18.1885 80.2016 29.6759 0.0000 0.0000 0.0000
# 3 14.5934 29.6759 105.0897 0.0000 0.0000 0.0000
# 4 0.0000 0.0000 0.0000 16.7919 0.0000 0.0000
# 5 0.0000 0.0000 0.0000 0.0000 -90.0728 0.0000
# 6 0.0000 0.0000 0.0000 0.0000 0.0000 26.9673
#
#
#
# Elastic Compliance Matrix: (Units=1/GPa)
#
#
# Indices 1 2 3 4 5 6 
#
# 1 0.010860 -0.002127 -0.000907 0.000000 0.000000 0.000000
# 2 -0.002127 0.014340 -0.003754 0.000000 0.000000 0.000000
# 3 -0.000907 -0.003754 0.010702 0.000000 0.000000 0.000000
# 4 0.000000 0.000000 0.000000 0.059552 0.000000 0.000000
# 5 0.000000 0.000000 0.000000 0.000000 -0.011102 0.000000
# 6 0.000000 0.000000 0.000000 0.000000 0.000000 0.037082
#
#
# Mechanical properties :
#
#
# Convention : Reuss Voigt Hill
#
# Bulk Modulus (GPa) = 44.79319 45.22966 45.01143
# Shear Modulus (GPa) = 35.09921 5.38352 20.24136
#
# Velocity S-wave (km/s) = 4.21262 1.64982 3.19907
# Velocity P-wave (km/s) = 6.80507 5.14755 6.03350
#
# Compressibility (1/GPa) = 0.02232482
#
# Stress axis : x y z
#
# Youngs Moduli (GPa) = 92.07801 69.73477 93.44234
#
# Poissons Ratio (x) = 0.14834 0.08479
# Poissons Ratio (y) = 0.19587 0.35079
# Poissons Ratio (z) = 0.08356 0.26179
#
# Static dielectric constant tensor:
#      x y z
#    x 1.748750 0.000000 0.000000 
#    y 0.000000 1.700460 0.000000 
#    z 0.000000 0.000000 1.738290 
# 
# From -- ./inp_files/33278.got.cif
#   From: 2010.05.17/outbox.cif.g08.bks.cpg/sg21_17_cif.got.tgz:33278.got - 2010.06.03 23:14:55.
