data_PCOD9323519
_publ_section_title
;
Structure prediction by ZEFSAII (Michael W. Deem and Ramdas Pophale) SiO2 
 PCOD9323519
Probable space group: C 2 2 2
;
_chemical_formula_sum "Si O2"
_cell_formula_units_Z 48
_cell_length_a 25.172499
_cell_length_b 14.417945
_cell_length_c 5.829023
_cell_angle_alpha 90.000000
_cell_angle_beta 90.000000
_cell_angle_gamma 90.000000
_cell_volume 2115.560578
_symmetry_space_group_name_H-M "C 2 2 2"
_symmetry_group_IT_number 21
_symmetry_cell_setting 'orthorhombic'
loop_
_space_group_symop_operation_xyz
x,y,z
-x,-y,z
x,-y,-z
-x,y,-z
1/2+x,1/2+y,z
1/2-x,1/2-y,z
1/2+x,1/2-y,-z
1/2-x,1/2+y,-z
loop_
_atom_site_type_symbol
_atom_site_label
_atom_site_fract_x
_atom_site_fract_y
_atom_site_fract_z
Si Si1 0.500000 0.849941 0.500000
Si Si2 0.330411 0.000000 0.500000
Si Si3 0.649873 0.607700 0.042283
Si Si4 0.807418 0.736739 0.743899
Si Si5 0.556469 0.744620 0.124898
Si Si6 0.235656 0.402740 0.144024
Si Si7 0.402203 0.115131 0.763785
O O1 0.539644 0.782510 0.367889
O O2 0.539534 0.903999 0.663386
O O3 0.292921 0.923644 0.616645
O O4 0.368790 0.976423 0.285235
O O5 0.597695 0.660975 0.125081
O O6 0.702685 0.618660 0.195735
O O7 0.639371 0.500000 0.000000
O O8 0.670619 0.662967 0.818103
O O9 0.750000 0.750000 0.626938
O O10 0.859596 0.686097 0.645302
O O11 0.791486 0.673095 0.972790
O O12 0.500000 0.722992 0.000000
O O13 0.584618 0.831115 0.996112
O O14 0.236094 0.500000 0.000000
#
# Coordination Sequence:
#
# PCOD9323519 Si02
#       7
#     4   4   8   8   8   8   8
#     4  10  22  41  66  91 122 166 226 264 325 381
#     4  12  24  35  62  96 130 175 212 264 324 388
#     4   9  19  36  65  89 125 168 212 268 329 388
#     4   9  18  38  63  86 122 172 208 256 327 378
#     4   9  20  42  65  92 123 169 216 275 324 387
#     4  10  20  38  58  91 131 167 214 264 321 395
#     4  10  22  38  61  90 127 167 211 263 316 383
#
# _framework density 22.689022999999999
#
# number of rings (size 3 to 8) (size 9 to 14) (size 15 to 20)
#    0.000    2.333    1.667    0.000    4.667    0.667 
#    3.000    3.333    3.667    9.000    0.000    0.000 
#    0.000    0.000    0.000    0.000    0.000    0.000 
#
# Total GULP energy -133688.078657 kJ/mol
# GULP energy per Si atom -5570.336611 kJ/mol
# Density = 2.263738 g / cm^3
# Si number density = 22.689023 Si / 1000 Ang^3
#
#
#
# Elastic Constant Matrix: (Units=GPa)
#
#
# Indices 1 2 3 4 5 6 
#
# 1 182.3234 37.5703 38.5463 0.0000 0.0000 0.0000
# 2 37.5703 87.3895 14.6396 0.0000 0.0000 0.0000
# 3 38.5463 14.6396 43.2624 0.0000 0.0000 0.0000
# 4 0.0000 0.0000 0.0000 18.7271 0.0000 0.0000
# 5 0.0000 0.0000 0.0000 0.0000 40.5096 0.0000
# 6 0.0000 0.0000 0.0000 0.0000 0.0000 44.7603
#
#
#
# Elastic Compliance Matrix: (Units=1/GPa)
#
#
# Indices 1 2 3 4 5 6 
#
# 1 0.007108 -0.002115 -0.005618 0.000000 0.000000 0.000000
# 2 -0.002115 0.012760 -0.002434 0.000000 0.000000 0.000000
# 3 -0.005618 -0.002434 0.028944 0.000000 0.000000 0.000000
# 4 0.000000 0.000000 0.000000 0.053399 0.000000 0.000000
# 5 0.000000 0.000000 0.000000 0.000000 0.024686 0.000000
# 6 0.000000 0.000000 0.000000 0.000000 0.000000 0.022341
#
#
# Mechanical properties :
#
#
# Convention : Reuss Voigt Hill
#
# Bulk Modulus (GPa) = 35.11298 54.94308 45.02803
# Shear Modulus (GPa) = 27.92323 35.61400 31.76861
#
# Velocity S-wave (km/s) = 3.51193 3.96619 3.74595
# Velocity P-wave (km/s) = 5.65281 6.72625 6.21276
#
# Compressibility (1/GPa) = 0.02847949
#
# Stress axis : x y z
#
# Youngs Moduli (GPa) = 140.68187 78.37046 34.55006
#
# Poissons Ratio (x) = 0.16574 0.19409
# Poissons Ratio (y) = 0.29752 0.08408
# Poissons Ratio (z) = 0.79031 0.19072
#
# Static dielectric constant tensor:
#      x y z
#    x 1.883140 0.000000 0.000000 
#    y 0.000000 1.902900 0.000000 
#    z 0.000000 0.000000 1.964680 
# 
# From -- ./inp_files/7339.got.cif
#   From: 2010.05.17/outbox.cif.g08.bks.cpg/sg21_4_cif.got.tgz:7339.got - 2010.06.03 23:14:55.
