data_PCOD9323045
_publ_section_title
;
Structure prediction by ZEFSAII (Michael W. Deem and Ramdas Pophale) SiO2 
 PCOD9323045
Probable space group: C 2 2 2
;
_chemical_formula_sum "Si O2"
_cell_formula_units_Z 64
_cell_length_a 13.229649
_cell_length_b 17.019556
_cell_length_c 15.148799
_cell_angle_alpha 90.000000
_cell_angle_beta 90.000000
_cell_angle_gamma 90.000000
_cell_volume 3410.945273
_symmetry_space_group_name_H-M "C 2 2 2"
_symmetry_group_IT_number 21
_symmetry_cell_setting 'orthorhombic'
loop_
_space_group_symop_operation_xyz
x,y,z
-x,-y,z
x,-y,-z
-x,y,-z
1/2+x,1/2+y,z
1/2-x,1/2-y,z
1/2+x,1/2-y,-z
1/2-x,1/2+y,-z
loop_
_atom_site_type_symbol
_atom_site_label
_atom_site_fract_x
_atom_site_fract_y
_atom_site_fract_z
Si Si1 0.920529 0.936234 0.724978
Si Si2 0.211173 0.958543 0.592683
Si Si3 0.868387 0.720155 0.253932
Si Si4 0.410747 0.245467 0.066028
Si Si5 0.264012 0.619662 0.961347
Si Si6 0.609049 0.037272 0.719945
Si Si7 0.549641 0.676504 0.402624
Si Si8 0.757197 0.036539 0.143172
O O1 0.844851 0.917107 0.804534
O O2 0.974912 0.870977 0.664547
O O3 0.853058 0.987124 0.658049
O O4 0.000000 0.000000 0.760846
O O5 0.322104 0.955858 0.633042
O O6 0.150050 0.877216 0.587061
O O7 0.211365 0.000000 0.500000
O O8 0.750000 0.750000 0.249278
O O9 0.927791 0.758408 0.170673
O O10 0.886213 0.626949 0.245919
O O11 0.914717 0.748221 0.347056
O O12 0.360679 0.324796 0.029391
O O13 0.326399 0.177054 0.066652
O O14 0.500000 0.223202 0.000000
O O15 0.287464 0.550754 0.891479
O O16 0.232418 0.582331 0.054225
O O17 0.500000 0.000000 0.704156
O O18 0.665467 0.981024 0.790576
O O19 0.500000 0.687565 0.500000
#
# Coordination Sequence:
#
# PCOD9323045 Si02
#       8
#     8   8   8   8   8   8   8   8
#     4   9  20  31  59  92 122 154 204 256 324 376
#     4  10  19  38  64  91 126 160 201 268 322 377
#     4  12  23  45  69  90 133 177 221 270 329 401
#     4  11  24  39  62  90 123 169 216 256 317 384
#     4  10  22  39  59  89 125 160 216 256 313 381
#     4  11  24  42  64  93 124 173 222 258 321 395
#     4  11  22  39  67  98 123 161 219 267 328 400
#     4  10  21  39  60  87 127 165 203 269 314 376
#
# _framework density 18.763127000000001
#
# number of rings (size 3 to 8) (size 9 to 14) (size 15 to 20)
#    0.000    1.500    5.000    0.000    7.000    0.250 
#    2.250    2.500    0.000    0.000    0.000    0.000 
#    0.000    0.000    0.000    0.000    0.000    0.000 
#
# Total GULP energy -178343.875227 kJ/mol
# GULP energy per Si atom -5573.246101 kJ/mol
# Density = 1.872042 g / cm^3
# Si number density = 18.763127 Si / 1000 Ang^3
#
#
#
# Elastic Constant Matrix: (Units=GPa)
#
#
# Indices 1 2 3 4 5 6 
#
# 1 95.2816 21.0182 33.6669 0.0000 0.0000 0.0000
# 2 21.0182 56.6442 10.5463 0.0000 0.0000 0.0000
# 3 33.6669 10.5463 92.0958 0.0000 0.0000 0.0000
# 4 0.0000 0.0000 0.0000 41.2213 0.0000 0.0000
# 5 0.0000 0.0000 0.0000 0.0000 -24.4824 0.0000
# 6 0.0000 0.0000 0.0000 0.0000 0.0000 10.3191
#
#
#
# Elastic Compliance Matrix: (Units=1/GPa)
#
#
# Indices 1 2 3 4 5 6 
#
# 1 0.012877 -0.003987 -0.004251 0.000000 0.000000 0.000000
# 2 -0.003987 0.019273 -0.000750 0.000000 0.000000 0.000000
# 3 -0.004251 -0.000750 0.012498 0.000000 0.000000 0.000000
# 4 0.000000 0.000000 0.000000 0.024259 0.000000 0.000000
# 5 0.000000 0.000000 0.000000 0.000000 -0.040846 0.000000
# 6 0.000000 0.000000 0.000000 0.000000 0.000000 0.096907
#
#
# Mechanical properties :
#
#
# Convention : Reuss Voigt Hill
#
# Bulk Modulus (GPa) = 37.49025 41.60941 39.54983
# Shear Modulus (GPa) = 32.93087 17.33096 25.13091
#
# Velocity S-wave (km/s) = 4.19392 3.04249 3.66372
# Velocity P-wave (km/s) = 6.59364 5.87934 6.24671
#
# Compressibility (1/GPa) = 0.02667360
#
# Stress axis : x y z
#
# Youngs Moduli (GPa) = 77.66067 51.88644 80.01275
#
# Poissons Ratio (x) = 0.20685 0.34011
# Poissons Ratio (y) = 0.30959 0.05999
# Poissons Ratio (z) = 0.33011 0.03890
#
# Static dielectric constant tensor:
#      x y z
#    x 1.639510 0.000000 0.000000 
#    y 0.000000 1.669650 0.000000 
#    z 0.000000 0.000000 1.694110 
# 
# From -- ./inp_files/31755.got.cif
#   From: 2010.05.17/outbox.cif.g08.bks.cpg/sg21_16_cif.got.tgz:31755.got - 2010.06.03 23:14:55.
