data_PCOD9323076
_publ_section_title
;
Structure prediction by ZEFSAII (Michael W. Deem and Ramdas Pophale) SiO2 
 PCOD9323076
Probable space group: C 2 2 2
;
_chemical_formula_sum "Si O2"
_cell_formula_units_Z 56
_cell_length_a 14.999672
_cell_length_b 20.615966
_cell_length_c 9.637819
_cell_angle_alpha 90.000000
_cell_angle_beta 90.000000
_cell_angle_gamma 90.000000
_cell_volume 2980.329061
_symmetry_space_group_name_H-M "C 2 2 2"
_symmetry_group_IT_number 21
_symmetry_cell_setting 'orthorhombic'
loop_
_space_group_symop_operation_xyz
x,y,z
-x,-y,z
x,-y,-z
-x,y,-z
1/2+x,1/2+y,z
1/2-x,1/2-y,z
1/2+x,1/2-y,-z
1/2-x,1/2+y,-z
loop_
_atom_site_type_symbol
_atom_site_label
_atom_site_fract_x
_atom_site_fract_y
_atom_site_fract_z
Si Si1 0.405206 0.231682 0.581628
Si Si2 0.657931 0.068385 0.996164
Si Si3 0.812597 0.057396 0.222629
Si Si4 0.912970 0.293087 0.094407
Si Si5 0.704598 0.411392 0.771314
Si Si6 0.895590 0.844427 0.976634
Si Si7 0.229013 0.149392 0.528085
O O1 0.500000 0.232452 0.500000
O O2 0.427230 0.214652 0.741433
O O3 0.327958 0.180917 0.534291
O O4 0.348815 0.298809 0.567695
O O5 0.738273 0.053944 0.102601
O O6 0.622485 0.136065 0.055237
O O7 0.698074 0.080808 0.843303
O O8 0.604860 0.000000 0.000000
O O9 0.881691 0.106314 0.151081
O O10 0.776756 0.091391 0.360731
O O11 0.838056 0.982913 0.246937
O O12 0.858412 0.227567 0.056156
O O13 0.000000 0.288823 0.000000
O O14 0.710853 0.375894 0.625828
O O15 0.649671 0.371671 0.885332
O O16 0.000000 0.840746 0.000000
#
# Coordination Sequence:
#
# PCOD9323076 Si02
#       7
#     8   8   8   8   8   8   8
#     4  11  26  43  63  94 131 162 212 266 323 380
#     4   9  20  39  62  89 121 154 206 259 305 370
#     4  10  19  40  60  86 124 169 209 257 316 380
#     4  11  23  38  66  88 122 163 205 261 318 371
#     4  10  23  35  61  92 123 164 214 259 310 382
#     4  10  22  38  60  91 126 164 213 270 320 371
#     4  11  23  40  67  89 128 174 205 261 325 381
#
# _framework density 18.789870000000001
#
# number of rings (size 3 to 8) (size 9 to 14) (size 15 to 20)
#    0.000    1.714    2.857    1.714    6.000    4.857 
#    0.000    0.000    0.000    4.286    0.000    0.000 
#    0.000    0.000    0.000    0.000    0.000    0.000 
#
# Total GULP energy -155937.497129 kJ/mol
# GULP energy per Si atom -5569.196326 kJ/mol
# Density = 1.874710 g / cm^3
# Si number density = 18.789870 Si / 1000 Ang^3
#
#
#
# Elastic Constant Matrix: (Units=GPa)
#
#
# Indices 1 2 3 4 5 6 
#
# 1 78.1576 39.5653 30.9350 0.0000 0.0000 0.0000
# 2 39.5653 160.9249 65.3364 0.0000 0.0000 0.0000
# 3 30.9350 65.3364 138.2348 0.0000 0.0000 0.0000
# 4 0.0000 0.0000 0.0000 29.2983 0.0000 0.0000
# 5 0.0000 0.0000 0.0000 0.0000 21.7855 0.0000
# 6 0.0000 0.0000 0.0000 0.0000 0.0000 164.0837
#
#
#
# Elastic Compliance Matrix: (Units=1/GPa)
#
#
# Indices 1 2 3 4 5 6 
#
# 1 0.015049 -0.002887 -0.002003 0.000000 0.000000 0.000000
# 2 -0.002887 0.008243 -0.003250 0.000000 0.000000 0.000000
# 3 -0.002003 -0.003250 0.009219 0.000000 0.000000 0.000000
# 4 0.000000 0.000000 0.000000 0.034132 0.000000 0.000000
# 5 0.000000 0.000000 0.000000 0.000000 0.045902 0.000000
# 6 0.000000 0.000000 0.000000 0.000000 0.000000 0.006094
#
#
# Mechanical properties :
#
#
# Convention : Reuss Voigt Hill
#
# Bulk Modulus (GPa) = 61.61249 72.11006 66.86127
# Shear Modulus (GPa) = 35.63037 59.13219 47.38128
#
# Velocity S-wave (km/s) = 4.35932 5.61592 5.02704
# Velocity P-wave (km/s) = 7.62888 8.97284 8.32801
#
# Compressibility (1/GPa) = 0.01623048
#
# Stress axis : x y z
#
# Youngs Moduli (GPa) = 66.45019 121.30923 108.47604
#
# Poissons Ratio (x) = 0.35017 0.21732
# Poissons Ratio (y) = 0.19181 0.35257
# Poissons Ratio (z) = 0.13313 0.39429
#
# Static dielectric constant tensor:
#      x y z
#    x 1.665470 0.000000 0.000000 
#    y 0.000000 1.772570 0.000000 
#    z 0.000000 0.000000 1.616620 
# 
# From -- ./inp_files/15313.got.cif
#   From: 2010.05.17/outbox.cif.g08.bks.cpg/sg21_8_cif.got.tgz:15313.got - 2010.06.03 23:14:55.
