data_PCOD9323595
_publ_section_title
;
Structure prediction by ZEFSAII (Michael W. Deem and Ramdas Pophale) SiO2 
 PCOD9323595
Probable space group: C 2 2 2
;
_chemical_formula_sum "Si O2"
_cell_formula_units_Z 34
_cell_length_a 22.272448
_cell_length_b 8.252617
_cell_length_c 7.733593
_cell_angle_alpha 90.000000
_cell_angle_beta 90.000000
_cell_angle_gamma 90.000000
_cell_volume 1421.480663
_symmetry_space_group_name_H-M "C 2 2 2"
_symmetry_group_IT_number 21
_symmetry_cell_setting 'orthorhombic'
loop_
_space_group_symop_operation_xyz
x,y,z
-x,-y,z
x,-y,-z
-x,y,-z
1/2+x,1/2+y,z
1/2-x,1/2-y,z
1/2+x,1/2-y,-z
1/2-x,1/2+y,-z
loop_
_atom_site_type_symbol
_atom_site_label
_atom_site_fract_x
_atom_site_fract_y
_atom_site_fract_z
Si Si1 0.500000 0.000000 0.500000
Si Si2 0.500000 0.000000 0.000000
Si Si3 0.658414 0.500000 0.500000
Si Si4 0.792164 0.897469 0.158701
Si Si5 0.114785 0.655675 0.394710
Si Si6 0.094471 0.250233 0.971966
Si Si7 0.000000 0.000000 0.000000
O O1 0.455782 0.889048 0.390784
O O2 0.550192 0.873667 0.072168
O O3 0.697547 0.497714 0.327457
O O4 0.624583 0.326771 0.490561
O O5 0.750000 0.750000 0.202658
O O6 0.856461 0.829676 0.094112
O O7 0.766745 0.000000 0.000000
O O8 0.141325 0.500000 0.500000
O O9 0.129219 0.673514 0.191868
O O10 0.047343 0.114860 0.901041
#
# Coordination Sequence:
#
# PCOD9323595 Si02
#       7
#     2   2   4   8   8   8   2
#     4   8  22  38  62 122 152 216 252 304 388 432
#     4  10  26  34  76 106 154 198 242 314 356 472
#     4  12  26  51  77 110 146 203 253 328 396 452
#     4  12  29  53  79 111 148 199 261 326 392 470
#     4  10  23  42  69 108 162 196 260 311 373 462
#     4  11  22  46  70 113 150 202 254 308 392 447
#     4  10  20  38  78 100 156 194 250 316 372 476
#
# _framework density 23.918723
#
# number of rings (size 3 to 8) (size 9 to 14) (size 15 to 20)
#    0.706    0.471    3.529    0.706    4.941    5.176 
#    2.118    0.000    0.000    0.000    0.000    0.000 
#    0.000    0.000    0.000    0.000    0.000    0.000 
#
# Total GULP energy -94793.844352 kJ/mol
# GULP energy per Si atom -5576.108491 kJ/mol
# Density = 2.386428 g / cm^3
# Si number density = 23.918723 Si / 1000 Ang^3
#
#
#
# Elastic Constant Matrix: (Units=GPa)
#
#
# Indices 1 2 3 4 5 6 
#
# 1 47.8791 23.7902 -0.1926 0.0000 0.0000 0.0000
# 2 23.7902 143.8833 27.0448 0.0000 0.0000 0.0000
# 3 -0.1926 27.0448 130.8738 0.0000 0.0000 0.0000
# 4 0.0000 0.0000 0.0000 40.5276 0.0000 0.0000
# 5 0.0000 0.0000 0.0000 0.0000 -8.8117 0.0000
# 6 0.0000 0.0000 0.0000 0.0000 0.0000 37.7850
#
#
#
# Elastic Compliance Matrix: (Units=1/GPa)
#
#
# Indices 1 2 3 4 5 6 
#
# 1 0.022845 -0.003937 0.000847 0.000000 0.000000 0.000000
# 2 -0.003937 0.007909 -0.001640 0.000000 0.000000 0.000000
# 3 0.000847 -0.001640 0.007981 0.000000 0.000000 0.000000
# 4 0.000000 0.000000 0.000000 0.024675 0.000000 0.000000
# 5 0.000000 0.000000 0.000000 0.000000 -0.113485 0.000000
# 6 0.000000 0.000000 0.000000 0.000000 0.000000 0.026466
#
#
# Mechanical properties :
#
#
# Convention : Reuss Voigt Hill
#
# Bulk Modulus (GPa) = 34.15720 47.10234 40.62977
# Shear Modulus (GPa) = -1138.64332 32.03310 -553.30511
#
# Velocity S-wave (km/s) = -21.84217 3.66354 -15.22594
# Velocity P-wave (km/s) = 24.93583 6.13440 17.09042
#
# Compressibility (1/GPa) = 0.02927640
#
# Stress axis : x y z
#
# Youngs Moduli (GPa) = 43.77256 126.43394 125.29533
#
# Poissons Ratio (x) = 0.49772 -0.10614
# Poissons Ratio (y) = 0.17231 0.20551
# Poissons Ratio (z) = -0.03708 0.20738
#
# Static dielectric constant tensor:
#      x y z
#    x 1.865320 0.000000 0.000000 
#    y 0.000000 2.044650 0.000000 
#    z 0.000000 0.000000 2.116060 
# 
# From -- ./inp_files/17224.got.cif
#   From: 2010.05.17/outbox.cif.g08.bks.cpg/sg21_9_cif.got.tgz:17224.got - 2010.06.03 23:14:55.
