data_PCOD9323247
_publ_section_title
;
Structure prediction by ZEFSAII (Michael W. Deem and Ramdas Pophale) SiO2 
 PCOD9323247
Probable space group: C 2 2 2
;
_chemical_formula_sum "Si O2"
_cell_formula_units_Z 28
_cell_length_a 5.266518
_cell_length_b 21.264430
_cell_length_c 9.341636
_cell_angle_alpha 90.000000
_cell_angle_beta 90.000000
_cell_angle_gamma 90.000000
_cell_volume 1046.165176
_symmetry_space_group_name_H-M "C 2 2 2"
_symmetry_group_IT_number 21
_symmetry_cell_setting 'orthorhombic'
loop_
_space_group_symop_operation_xyz
x,y,z
-x,-y,z
x,-y,-z
-x,y,-z
1/2+x,1/2+y,z
1/2-x,1/2-y,z
1/2+x,1/2-y,-z
1/2-x,1/2+y,-z
loop_
_atom_site_type_symbol
_atom_site_label
_atom_site_fract_x
_atom_site_fract_y
_atom_site_fract_z
Si Si1 0.750000 0.750000 0.722720
Si Si2 0.500000 0.794867 0.000000
Si Si3 0.000000 0.500000 0.000000
Si Si4 0.280352 0.604966 0.838179
Si Si5 0.776370 0.611936 0.663666
Si Si6 0.000000 0.000000 0.500000
O O1 0.537749 0.760462 0.847698
O O2 0.729131 0.686550 0.629156
O O3 0.277927 0.842423 0.956232
O O4 0.814683 0.459388 0.903923
O O5 0.567159 0.604082 0.788735
O O6 0.071484 0.612567 0.709977
O O7 0.692661 0.551340 0.571974
#
# Coordination Sequence:
#
# PCOD9323247 Si02
#       6
#     4   4   2   8   8   2
#     4  10  20  40  66 102 136 176 222 274 336 420
#     4   9  18  33  64  95 136 171 206 266 342 409
#     4  10  20  34  60  96 144 180 216 268 340 422
#     4  10  22  38  62  99 133 175 221 272 337 416
#     4  11  25  43  66  93 131 178 234 282 335 396
#     4  12  28  50  72  96 136 188 236 298 344 376
#
# _framework density 26.764417000000002
#
# number of rings (size 3 to 8) (size 9 to 14) (size 15 to 20)
#    0.000    1.714    0.000    3.429    0.000   16.000 
#    0.000    5.714    0.000    0.000    0.000    0.000 
#    0.000    0.000    0.000    0.000    0.000    0.000 
#
# Total GULP energy -78032.992307 kJ/mol
# GULP energy per Si atom -5573.785165 kJ/mol
# Density = 2.670350 g / cm^3
# Si number density = 26.764417 Si / 1000 Ang^3
#
#
#
# Elastic Constant Matrix: (Units=GPa)
#
#
# Indices 1 2 3 4 5 6 
#
# 1 90.1815 8.2960 38.0571 0.0000 0.0000 0.0000
# 2 8.2960 221.2207 60.0232 0.0000 0.0000 0.0000
# 3 38.0571 60.0232 59.4956 0.0000 0.0000 0.0000
# 4 0.0000 0.0000 0.0000 870.9062 0.0000 0.0000
# 5 0.0000 0.0000 0.0000 0.0000 49.3725 0.0000
# 6 0.0000 0.0000 0.0000 0.0000 0.0000 37.3629
#
#
#
# Elastic Compliance Matrix: (Units=1/GPa)
#
#
# Indices 1 2 3 4 5 6 
#
# 1 0.016611 0.003112 -0.013765 0.000000 0.000000 0.000000
# 2 0.003112 0.006807 -0.008858 0.000000 0.000000 0.000000
# 3 -0.013765 -0.008858 0.034550 0.000000 0.000000 0.000000
# 4 0.000000 0.000000 0.000000 0.001148 0.000000 0.000000
# 5 0.000000 0.000000 0.000000 0.000000 0.020254 0.000000
# 6 0.000000 0.000000 0.000000 0.000000 0.000000 0.026765
#
#
# Mechanical properties :
#
#
# Convention : Reuss Voigt Hill
#
# Bulk Modulus (GPa) = 52.78299 64.85006 58.81653
# Shear Modulus (GPa) = 33.00913 209.16306 121.08610
#
# Velocity S-wave (km/s) = 3.51568 8.84982 6.73347
# Velocity P-wave (km/s) = 6.02031 11.34497 9.08164
#
# Compressibility (1/GPa) = 0.01894550
#
# Stress axis : x y z
#
# Youngs Moduli (GPa) = 60.19929 146.90535 28.94382
#
# Poissons Ratio (x) = -0.45716 0.39842
# Poissons Ratio (y) = -0.18734 0.25639
# Poissons Ratio (z) = 0.82866 1.30130
#
# Static dielectric constant tensor:
#      x y z
#    x 2.089840 0.000000 0.000000 
#    y 0.000000 2.147280 0.000000 
#    z 0.000000 0.000000 2.164960 
# 
# From -- ./inp_files/20841.got.cif
#   From: 2010.05.17/outbox.cif.g08.bks.cpg/sg21_11_cif.got.tgz:20841.got - 2010.06.03 23:14:55.
