data_PCOD9323604
_publ_section_title
;
Structure prediction by ZEFSAII (Michael W. Deem and Ramdas Pophale) SiO2 
 PCOD9323604
Probable space group: C 2 2 2
;
_chemical_formula_sum "Si O2"
_cell_formula_units_Z 48
_cell_length_a 18.585118
_cell_length_b 8.629939
_cell_length_c 12.902920
_cell_angle_alpha 90.000000
_cell_angle_beta 90.000000
_cell_angle_gamma 90.000000
_cell_volume 2069.479141
_symmetry_space_group_name_H-M "C 2 2 2"
_symmetry_group_IT_number 21
_symmetry_cell_setting 'orthorhombic'
loop_
_space_group_symop_operation_xyz
x,y,z
-x,-y,z
x,-y,-z
-x,y,-z
1/2+x,1/2+y,z
1/2-x,1/2-y,z
1/2+x,1/2-y,-z
1/2-x,1/2+y,-z
loop_
_atom_site_type_symbol
_atom_site_label
_atom_site_fract_x
_atom_site_fract_y
_atom_site_fract_z
Si Si1 0.279367 0.085969 0.591439
Si Si2 0.720632 0.414031 0.908561
Si Si3 0.351206 0.603024 0.685875
Si Si4 0.552338 0.624481 0.799068
Si Si5 0.148794 0.396975 0.814125
Si Si6 0.052338 0.375519 0.299067
O O1 0.250000 0.250000 0.554742
O O2 0.321740 0.122995 0.696628
O O3 0.321247 0.000000 0.500000
O O4 0.213773 0.970250 0.621351
O O5 0.750000 0.250000 0.945257
O O6 0.678260 0.377006 0.803372
O O7 0.786227 0.529751 0.878649
O O8 0.678753 0.500000 0.000000
O O9 0.410633 0.471001 0.705336
O O10 0.385982 0.765641 0.650486
O O11 0.500000 0.500000 0.855765
O O12 0.614018 0.734359 0.849515
O O13 0.500000 0.750000 0.750000
O O14 0.089367 0.528999 0.794664
O O15 0.000000 0.500000 0.355764
#
# Coordination Sequence:
#
# PCOD9323604 Si02
#       6
#     8   8   8   8   8   8
#     4  11  24  36  59  91 121 159 196 250 315 362
#     4  11  24  36  59  91 121 159 196 250 315 362
#     4  10  20  39  60  87 123 151 202 249 301 363
#     4   9  18  34  62  88 108 157 201 240 295 356
#     4  10  20  39  60  87 123 151 202 249 301 363
#     4   9  18  34  62  88 108 157 201 240 295 356
#
# _framework density 23.194241000000002
#
# number of rings (size 3 to 8) (size 9 to 14) (size 15 to 20)
#    0.000    2.000    3.333    0.000    4.667    0.000 
#    0.000    0.000    0.000   30.000    0.000    0.000 
#    0.000    0.000    0.000    0.000    0.000    0.000 
#
# Total GULP energy -133848.844613 kJ/mol
# GULP energy per Si atom -5577.035192 kJ/mol
# Density = 2.314145 g / cm^3
# Si number density = 23.194241 Si / 1000 Ang^3
#
#
#
# Elastic Constant Matrix: (Units=GPa)
#
#
# Indices 1 2 3 4 5 6 
#
# 1 98.8338 56.9178 13.6549 0.0000 0.0000 0.0000
# 2 56.9178 179.1057 41.2281 0.0000 0.0000 0.0000
# 3 13.6549 41.2281 55.0903 0.0000 0.0000 0.0000
# 4 0.0000 0.0000 0.0000 26.3859 0.0000 0.0000
# 5 0.0000 0.0000 0.0000 0.0000 -16.1710 0.0000
# 6 0.0000 0.0000 0.0000 0.0000 0.0000 74.6675
#
#
#
# Elastic Compliance Matrix: (Units=1/GPa)
#
#
# Indices 1 2 3 4 5 6 
#
# 1 0.012386 -0.003901 -0.000150 0.000000 0.000000 0.000000
# 2 -0.003901 0.007974 -0.005001 0.000000 0.000000 0.000000
# 3 -0.000150 -0.005001 0.021932 0.000000 0.000000 0.000000
# 4 0.000000 0.000000 0.000000 0.037899 0.000000 0.000000
# 5 0.000000 0.000000 0.000000 0.000000 -0.061839 0.000000
# 6 0.000000 0.000000 0.000000 0.000000 0.000000 0.013393
#
#
# Mechanical properties :
#
#
# Convention : Reuss Voigt Hill
#
# Bulk Modulus (GPa) = 41.34491 61.84795 51.59643
# Shear Modulus (GPa) = 86.33951 31.72508 59.03230
#
# Velocity S-wave (km/s) = 6.10781 3.70239 5.05040
# Velocity P-wave (km/s) = 8.22221 6.70821 7.50349
#
# Compressibility (1/GPa) = 0.02418677
#
# Stress axis : x y z
#
# Youngs Moduli (GPa) = 80.73922 125.40415 45.59631
#
# Poissons Ratio (x) = 0.48925 0.00685
# Poissons Ratio (y) = 0.31500 0.22801
# Poissons Ratio (z) = 0.01213 0.62710
#
# Static dielectric constant tensor:
#      x y z
#    x 2.086260 0.000000 0.000000 
#    y 0.000000 1.828930 0.000000 
#    z 0.000000 0.000000 1.801300 
# 
# From -- ./inp_files/33161.got.cif
#   From: 2010.05.17/outbox.cif.g08.bks.cpg/sg21_17_cif.got.tgz:33161.got - 2010.06.03 23:14:55.
