data_PCOD9323877
_publ_section_title
;
Structure prediction by ZEFSAII (Michael W. Deem and Ramdas Pophale) SiO2 
 PCOD9323877
Probable space group: C 2 2 2
;
_chemical_formula_sum "Si O2"
_cell_formula_units_Z 54
_cell_length_a 12.370790
_cell_length_b 20.988182
_cell_length_c 10.370353
_cell_angle_alpha 90.000000
_cell_angle_beta 90.000000
_cell_angle_gamma 90.000000
_cell_volume 2692.562518
_symmetry_space_group_name_H-M "C 2 2 2"
_symmetry_group_IT_number 21
_symmetry_cell_setting 'orthorhombic'
loop_
_space_group_symop_operation_xyz
x,y,z
-x,-y,z
x,-y,-z
-x,y,-z
1/2+x,1/2+y,z
1/2-x,1/2-y,z
1/2+x,1/2-y,-z
1/2-x,1/2+y,-z
loop_
_atom_site_type_symbol
_atom_site_label
_atom_site_fract_x
_atom_site_fract_y
_atom_site_fract_z
Si Si1 0.577833 0.942548 0.732929
Si Si2 0.724394 0.826606 0.697658
Si Si3 0.500000 0.500000 0.000000
Si Si4 0.566245 0.391714 0.369593
Si Si5 0.611259 0.601936 0.181964
Si Si6 0.500000 0.886241 0.000000
Si Si7 0.728995 0.824081 0.998672
Si Si8 0.287074 0.494313 0.351385
O O1 0.614976 0.871426 0.673429
O O2 0.500000 0.000000 0.675404
O O3 0.693736 0.976970 0.737109
O O4 0.528161 0.926359 0.872283
O O5 0.750000 0.750000 0.684591
O O6 0.820707 0.856255 0.615696
O O7 0.745720 0.841216 0.848603
O O8 0.571770 0.544656 0.090982
O O9 0.500000 0.388523 0.500000
O O10 0.493913 0.367851 0.250098
O O11 0.605168 0.463368 0.342122
O O12 0.685941 0.643846 0.092675
O O13 0.681804 0.574397 0.299974
O O14 0.606287 0.844408 0.029337
O O15 0.750000 0.750000 0.009643
O O16 0.251338 0.500000 0.500000
#
# Coordination Sequence:
#
# PCOD9323877 Si02
#       8
#     8   8   2   8   8   4   8   8
#     4  10  21  36  61  92 122 166 215 268 328 402
#     4   9  21  41  65  89 127 176 220 266 338 410
#     4  12  24  30  58  98 134 152 208 280 340 386
#     4  11  21  39  64  90 123 174 210 271 338 391
#     4  12  23  35  59  97 128 162 214 270 332 399
#     4  10  21  39  62  90 133 173 204 266 354 394
#     4  10  23  41  63  93 130 172 218 268 329 411
#     4  11  22  39  61  88 130 169 215 261 333 408
#
# _framework density 20.055243000000001
#
# number of rings (size 3 to 8) (size 9 to 14) (size 15 to 20)
#    0.000    1.481    2.963    2.000    4.148    5.630 
#    0.000    0.741    6.519    0.000    0.000    0.000 
#    0.000    0.000    0.000    0.000    0.000    0.000 
#
# Total GULP energy -150319.918240 kJ/mol
# GULP energy per Si atom -5567.404379 kJ/mol
# Density = 2.000960 g / cm^3
# Si number density = 20.055243 Si / 1000 Ang^3
#
#
#
# Elastic Constant Matrix: (Units=GPa)
#
#
# Indices 1 2 3 4 5 6 
#
# 1 116.4011 40.6159 41.8907 0.0000 0.0000 0.0000
# 2 40.6159 86.8808 27.3002 0.0000 0.0000 0.0000
# 3 41.8907 27.3002 60.9313 0.0000 0.0000 0.0000
# 4 0.0000 0.0000 0.0000 13.1475 0.0000 0.0000
# 5 0.0000 0.0000 0.0000 0.0000 122.0418 0.0000
# 6 0.0000 0.0000 0.0000 0.0000 0.0000 4.1414
#
#
#
# Elastic Compliance Matrix: (Units=1/GPa)
#
#
# Indices 1 2 3 4 5 6 
#
# 1 0.012314 -0.003604 -0.006851 0.000000 0.000000 0.000000
# 2 -0.003604 0.014451 -0.003997 0.000000 0.000000 0.000000
# 3 -0.006851 -0.003997 0.022913 0.000000 0.000000 0.000000
# 4 0.000000 0.000000 0.000000 0.076060 0.000000 0.000000
# 5 0.000000 0.000000 0.000000 0.000000 0.008194 0.000000
# 6 0.000000 0.000000 0.000000 0.000000 0.000000 0.241464
#
#
# Mechanical properties :
#
#
# Convention : Reuss Voigt Hill
#
# Bulk Modulus (GPa) = 48.13789 53.75852 50.94821
# Shear Modulus (GPa) = 12.15879 38.15989 25.15934
#
# Velocity S-wave (km/s) = 2.46492 4.36677 3.54574
# Velocity P-wave (km/s) = 5.67061 7.23107 6.49785
#
# Compressibility (1/GPa) = 0.02077366
#
# Stress axis : x y z
#
# Youngs Moduli (GPa) = 81.20731 69.20053 43.64309
#
# Poissons Ratio (x) = 0.24939 0.29901
# Poissons Ratio (y) = 0.29266 0.17444
# Poissons Ratio (z) = 0.55638 0.27659
#
# Static dielectric constant tensor:
#      x y z
#    x 1.747890 0.000000 0.000000 
#    y 0.000000 1.769900 0.000000 
#    z 0.000000 0.000000 1.733030 
# 
# From -- ./inp_files/24275.got.cif
#   From: 2010.05.17/outbox.cif.g08.bks.cpg/sg21_13_cif.got.tgz:24275.got - 2010.06.03 23:14:55.
