data_PCOD9323855
_publ_section_title
;
Structure prediction by ZEFSAII (Michael W. Deem and Ramdas Pophale) SiO2 
 PCOD9323855
Probable space group: C 2 2 2
;
_chemical_formula_sum "Si O2"
_cell_formula_units_Z 32
_cell_length_a 23.555275
_cell_length_b 8.241323
_cell_length_c 8.236614
_cell_angle_alpha 90.000000
_cell_angle_beta 90.000000
_cell_angle_gamma 90.000000
_cell_volume 1598.946115
_symmetry_space_group_name_H-M "C 2 2 2"
_symmetry_group_IT_number 21
_symmetry_cell_setting 'orthorhombic'
loop_
_space_group_symop_operation_xyz
x,y,z
-x,-y,z
x,-y,-z
-x,y,-z
1/2+x,1/2+y,z
1/2-x,1/2-y,z
1/2+x,1/2-y,-z
1/2-x,1/2+y,-z
loop_
_atom_site_type_symbol
_atom_site_label
_atom_site_fract_x
_atom_site_fract_y
_atom_site_fract_z
Si Si1 0.669583 0.357727 0.699007
Si Si2 0.939699 0.052790 0.310256
Si Si3 0.215750 0.525792 0.814633
Si Si4 0.372009 0.839838 0.393915
O O1 0.614764 0.456490 0.757362
O O2 0.727142 0.460143 0.709192
O O3 0.683151 0.197633 0.803012
O O4 0.656500 0.286043 0.520582
O O5 0.924325 0.243146 0.314529
O O6 0.942336 0.000000 0.500000
O O7 0.000000 0.000000 0.237611
O O8 0.173681 0.394281 0.738730
O O9 0.231658 0.500000 0.000000
O O10 0.387362 0.000000 0.500000
#
# Coordination Sequence:
#
# PCOD9323855 Si02
#       4
#     8   8   8   8
#     4   9  20  35  53  80 109 142 185 229 284 341
#     4   9  18  34  55  80 108 140 184 233 278 329
#     4  10  21  36  55  81 113 146 184 232 285 341
#     4   9  19  35  57  84 112 144 183 232 285 343
#
# _framework density 20.013182
#
# number of rings (size 3 to 8) (size 9 to 14) (size 15 to 20)
#    0.000    2.750    0.000    0.000    0.000   22.000 
#    0.000   21.250    0.000    8.250    0.000    0.000 
#    0.000    0.000    0.000    0.000    0.000    0.000 
#
# Total GULP energy -89243.250895 kJ/mol
# GULP energy per Si atom -5577.703181 kJ/mol
# Density = 1.996763 g / cm^3
# Si number density = 20.013182 Si / 1000 Ang^3
#
#
#
# Elastic Constant Matrix: (Units=GPa)
#
#
# Indices 1 2 3 4 5 6 
#
# 1 154.2621 80.6028 15.9511 0.0000 0.0000 0.0000
# 2 80.6028 95.4069 23.0752 0.0000 0.0000 0.0000
# 3 15.9511 23.0752 35.8539 0.0000 0.0000 0.0000
# 4 0.0000 0.0000 0.0000 9.5181 0.0000 0.0000
# 5 0.0000 0.0000 0.0000 0.0000 -11.3011 0.0000
# 6 0.0000 0.0000 0.0000 0.0000 0.0000 29.2670
#
#
#
# Elastic Compliance Matrix: (Units=1/GPa)
#
#
# Indices 1 2 3 4 5 6 
#
# 1 0.011662 -0.010182 0.001365 0.000000 0.000000 0.000000
# 2 -0.010182 0.021304 -0.009181 0.000000 0.000000 0.000000
# 3 0.001365 -0.009181 0.033193 0.000000 0.000000 0.000000
# 4 0.000000 0.000000 0.000000 0.105063 0.000000 0.000000
# 5 0.000000 0.000000 0.000000 0.000000 -0.088487 0.000000
# 6 0.000000 0.000000 0.000000 0.000000 0.000000 0.034168
#
#
# Mechanical properties :
#
#
# Convention : Reuss Voigt Hill
#
# Bulk Modulus (GPa) = 33.15471 58.30903 45.73187
# Shear Modulus (GPa) = 30.68354 16.55638 23.61996
#
# Velocity S-wave (km/s) = 3.91982 2.87936 3.43916
# Velocity P-wave (km/s) = 6.09007 6.34451 6.21859
#
# Compressibility (1/GPa) = 0.03016163
#
# Stress axis : x y z
#
# Youngs Moduli (GPa) = 85.75150 46.93895 30.12721
#
# Poissons Ratio (x) = 0.47794 -0.04112
# Poissons Ratio (y) = 0.87314 0.27660
# Poissons Ratio (z) = -0.11705 0.43096
#
# Static dielectric constant tensor:
#      x y z
#    x 1.729440 0.000000 0.000000 
#    y 0.000000 1.762410 0.000000 
#    z 0.000000 0.000000 1.720260 
# 
# From -- ./inp_files/10770.got.cif
#   From: 2010.05.17/outbox.cif.g08.bks.cpg/sg21_6_cif.got.tgz:10770.got - 2010.06.03 23:14:55.
