data_PCOD9323592
_publ_section_title
;
Structure prediction by ZEFSAII (Michael W. Deem and Ramdas Pophale) SiO2 
 PCOD9323592
Probable space group: C 2 2 2
;
_chemical_formula_sum "Si O2"
_cell_formula_units_Z 38
_cell_length_a 12.673863
_cell_length_b 7.917476
_cell_length_c 16.959570
_cell_angle_alpha 90.000000
_cell_angle_beta 90.000000
_cell_angle_gamma 90.000000
_cell_volume 1701.808156
_symmetry_space_group_name_H-M "C 2 2 2"
_symmetry_group_IT_number 21
_symmetry_cell_setting 'orthorhombic'
loop_
_space_group_symop_operation_xyz
x,y,z
-x,-y,z
x,-y,-z
-x,y,-z
1/2+x,1/2+y,z
1/2-x,1/2-y,z
1/2+x,1/2-y,-z
1/2-x,1/2+y,-z
loop_
_atom_site_type_symbol
_atom_site_label
_atom_site_fract_x
_atom_site_fract_y
_atom_site_fract_z
Si Si1 0.180657 0.078807 0.919324
Si Si2 0.986244 0.191728 0.608980
Si Si3 0.668340 0.927758 0.197732
Si Si4 0.250000 0.750000 0.659172
Si Si5 0.964614 0.232035 0.210496
Si Si6 0.000000 0.500000 0.500000
O O1 0.250000 0.250000 0.933340
O O2 0.092852 0.117442 0.853412
O O3 0.261051 0.950085 0.878180
O O4 0.139917 0.000000 0.000000
O O5 0.859691 0.231274 0.612587
O O6 0.038804 0.352256 0.562839
O O7 0.030623 0.183191 0.698026
O O8 0.000000 0.000000 0.579202
O O9 0.733093 0.901920 0.278407
O O10 0.584118 0.778828 0.189006
O O11 0.602420 0.097006 0.207514
#
# Coordination Sequence:
#
# PCOD9323592 Si02
#       6
#     8   8   8   4   8   2
#     4  10  21  37  62  91 132 181 229 293 348 403
#     4  11  23  44  72 103 142 182 230 292 358 443
#     4   9  18  35  64  92 130 172 227 285 343 416
#     4  10  20  38  72 102 128 180 230 284 354 436
#     4   9  19  40  67  95 126 183 233 273 358 424
#     4  12  26  48  68 106 146 178 230 300 364 426
#
# _framework density 22.329189
#
# number of rings (size 3 to 8) (size 9 to 14) (size 15 to 20)
#    0.000    2.105    0.000    4.105    1.474    0.000 
#    3.789   10.526   18.526    0.000    0.000    0.000 
#    0.000    0.000    0.000    0.000    0.000    0.000 
#
# Total GULP energy -105926.397793 kJ/mol
# GULP energy per Si atom -5575.073568 kJ/mol
# Density = 2.227837 g / cm^3
# Si number density = 22.329189 Si / 1000 Ang^3
#
#
#
# Elastic Constant Matrix: (Units=GPa)
#
#
# Indices 1 2 3 4 5 6 
#
# 1 71.7903 25.1668 46.1769 0.0000 0.0000 0.0000
# 2 25.1668 147.2934 60.3558 0.0000 0.0000 0.0000
# 3 46.1769 60.3558 175.8854 0.0000 0.0000 0.0000
# 4 0.0000 0.0000 0.0000 24.0762 0.0000 0.0000
# 5 0.0000 0.0000 0.0000 0.0000 -928.4417 0.0000
# 6 0.0000 0.0000 0.0000 0.0000 0.0000 27.6543
#
#
#
# Elastic Compliance Matrix: (Units=1/GPa)
#
#
# Indices 1 2 3 4 5 6 
#
# 1 0.016955 -0.001248 -0.004023 0.000000 0.000000 0.000000
# 2 -0.001248 0.007992 -0.002415 0.000000 0.000000 0.000000
# 3 -0.004023 -0.002415 0.007570 0.000000 0.000000 0.000000
# 4 0.000000 0.000000 0.000000 0.041535 0.000000 0.000000
# 5 0.000000 0.000000 0.000000 0.000000 -0.001077 0.000000
# 6 0.000000 0.000000 0.000000 0.000000 0.000000 0.036161
#
#
# Mechanical properties :
#
#
# Convention : Reuss Voigt Hill
#
# Bulk Modulus (GPa) = 58.32646 73.15201 65.73923
# Shear Modulus (GPa) = 38.39584 -157.79093 -59.69755
#
# Velocity S-wave (km/s) = 4.15123 -8.41541 -5.17622
# Velocity P-wave (km/s) = 7.01105 7.84817 2.49389
#
# Compressibility (1/GPa) = 0.01714488
#
# Stress axis : x y z
#
# Youngs Moduli (GPa) = 58.98066 125.12595 132.09534
#
# Poissons Ratio (x) = 0.15622 0.53140
# Poissons Ratio (y) = 0.07364 0.31897
# Poissons Ratio (z) = 0.23727 0.30214
#
# Static dielectric constant tensor:
#      x y z
#    x 1.853970 0.000000 0.000000 
#    y 0.000000 2.199900 0.000000 
#    z 0.000000 0.000000 1.823220 
# 
# From -- ./inp_files/36063.got.cif
#   From: 2010.05.17/outbox.cif.g08.bks.cpg/sg21_19_cif.got.tgz:36063.got - 2010.06.03 23:14:55.
