data_PCOD9323634
_publ_section_title
;
Structure prediction by ZEFSAII (Michael W. Deem and Ramdas Pophale) SiO2 
 PCOD9323634
Probable space group: C 2 2 2
;
_chemical_formula_sum "Si O2"
_cell_formula_units_Z 26
_cell_length_a 12.400695
_cell_length_b 8.387831
_cell_length_c 11.651249
_cell_angle_alpha 90.000000
_cell_angle_beta 90.000000
_cell_angle_gamma 90.000000
_cell_volume 1211.903895
_symmetry_space_group_name_H-M "C 2 2 2"
_symmetry_group_IT_number 21
_symmetry_cell_setting 'orthorhombic'
loop_
_space_group_symop_operation_xyz
x,y,z
-x,-y,z
x,-y,-z
-x,y,-z
1/2+x,1/2+y,z
1/2-x,1/2-y,z
1/2+x,1/2-y,-z
1/2-x,1/2+y,-z
loop_
_atom_site_type_symbol
_atom_site_label
_atom_site_fract_x
_atom_site_fract_y
_atom_site_fract_z
Si Si1 0.278571 0.936706 0.110805
Si Si2 0.063152 0.855778 0.880312
Si Si3 0.146634 0.367029 0.305081
Si Si4 0.500000 0.000000 0.500000
O O1 0.250000 0.750000 0.100414
O O2 0.180419 0.066043 0.102078
O O3 0.320194 0.970732 0.238981
O O4 0.346533 0.000000 0.000000
O O5 0.073700 0.713837 0.793369
O O6 0.000000 0.000000 0.821287
O O7 0.000000 0.825057 0.000000
O O8 0.250000 0.250000 0.323909
O O9 0.078154 0.398226 0.417768
#
# Coordination Sequence:
#
# PCOD9323634 Si02
#       4
#     8   8   8   2
#     4  11  22  38  66  99 138 172 208 280 348 417
#     4  10  20  39  66 102 137 162 212 268 351 430
#     4  10  26  47  66  98 135 178 238 285 335 407
#     4  12  28  48  72  90 136 188 254 282 332 382
#
# _framework density 21.453848000000001
#
# number of rings (size 3 to 8) (size 9 to 14) (size 15 to 20)
#    0.000    1.538    3.077    2.769    4.308    1.231 
#    5.538    1.538    0.000    0.000    0.000    0.000 
#    0.000    0.000    0.000    0.000    0.000    0.000 
#
# Total GULP energy -72469.826053 kJ/mol
# GULP energy per Si atom -5574.602004 kJ/mol
# Density = 2.140502 g / cm^3
# Si number density = 21.453848 Si / 1000 Ang^3
#
#
#
# Elastic Constant Matrix: (Units=GPa)
#
#
# Indices 1 2 3 4 5 6 
#
# 1 79.5448 32.6881 60.2391 0.0000 0.0000 0.0000
# 2 32.6881 138.4230 73.2449 0.0000 0.0000 0.0000
# 3 60.2391 73.2449 162.2244 0.0000 0.0000 0.0000
# 4 0.0000 0.0000 0.0000 19.1356 0.0000 0.0000
# 5 0.0000 0.0000 0.0000 0.0000 10.8924 0.0000
# 6 0.0000 0.0000 0.0000 0.0000 0.0000 27.4863
#
#
#
# Elastic Compliance Matrix: (Units=1/GPa)
#
#
# Indices 1 2 3 4 5 6 
#
# 1 0.017578 -0.000916 -0.006114 0.000000 0.000000 0.000000
# 2 -0.000916 0.009540 -0.003967 0.000000 0.000000 0.000000
# 3 -0.006114 -0.003967 0.010226 0.000000 0.000000 0.000000
# 4 0.000000 0.000000 0.000000 0.052259 0.000000 0.000000
# 5 0.000000 0.000000 0.000000 0.000000 0.091807 0.000000
# 6 0.000000 0.000000 0.000000 0.000000 0.000000 0.036382
#
#
# Mechanical properties :
#
#
# Convention : Reuss Voigt Hill
#
# Bulk Modulus (GPa) = 65.14766 79.17069 72.15917
# Shear Modulus (GPa) = 20.41648 25.77087 23.09367
#
# Velocity S-wave (km/s) = 3.08822 3.46963 3.28447
# Velocity P-wave (km/s) = 6.56875 7.28244 6.93479
#
# Compressibility (1/GPa) = 0.01534975
#
# Stress axis : x y z
#
# Youngs Moduli (GPa) = 56.89003 104.82550 97.79352
#
# Poissons Ratio (x) = 0.09602 0.59787
# Poissons Ratio (y) = 0.05211 0.38795
# Poissons Ratio (z) = 0.34780 0.41585
#
# Static dielectric constant tensor:
#      x y z
#    x 1.984160 0.000000 0.000000 
#    y 0.000000 1.825640 0.000000 
#    z 0.000000 0.000000 1.817820 
# 
# From -- ./inp_files/23276.got.cif
#   From: 2010.05.17/outbox.cif.g08.bks.cpg/sg21_12_cif.got.tgz:23276.got - 2010.06.03 23:14:55.
