data_PCOD9323231
_publ_section_title
;
Structure prediction by ZEFSAII (Michael W. Deem and Ramdas Pophale) SiO2 
 PCOD9323231
Probable space group: C 2 2 2
;
_chemical_formula_sum "Si O2"
_cell_formula_units_Z 32
_cell_length_a 20.863893
_cell_length_b 5.276858
_cell_length_c 15.538511
_cell_angle_alpha 90.000000
_cell_angle_beta 90.000000
_cell_angle_gamma 90.000000
_cell_volume 1710.724810
_symmetry_space_group_name_H-M "C 2 2 2"
_symmetry_group_IT_number 21
_symmetry_cell_setting 'orthorhombic'
loop_
_space_group_symop_operation_xyz
x,y,z
-x,-y,z
x,-y,-z
-x,y,-z
1/2+x,1/2+y,z
1/2-x,1/2-y,z
1/2+x,1/2-y,-z
1/2-x,1/2+y,-z
loop_
_atom_site_type_symbol
_atom_site_label
_atom_site_fract_x
_atom_site_fract_y
_atom_site_fract_z
Si Si1 0.382567 0.962290 0.758667
Si Si2 0.430265 0.451604 0.836829
Si Si3 0.677381 0.168891 0.079545
Si Si4 0.207214 0.499810 0.399517
O O1 0.411875 0.689773 0.778153
O O2 0.351710 0.991024 0.665725
O O3 0.430556 0.192686 0.780989
O O4 0.327592 0.010131 0.831501
O O5 0.500000 0.500000 0.876026
O O6 0.372425 0.396680 0.903016
O O7 0.750000 0.250000 0.064500
O O8 0.654843 0.000000 0.000000
O O9 0.188097 0.500000 0.500000
O O10 0.250000 0.250000 0.384495
O O11 0.250000 0.750000 0.383523
#
# Coordination Sequence:
#
# PCOD9323231 Si02
#       4
#     8   8   8   8
#     4  10  22  37  64  86 122 164 201 258 305 368
#     4  10  23  42  63  86 121 167 211 250 309 371
#     4  10  25  37  64  92 124 155 205 259 321 366
#     4  10  20  34  58  94 132 163 203 257 315 375
#
# _framework density 18.705521999999998
#
# number of rings (size 3 to 8) (size 9 to 14) (size 15 to 20)
#    1.500    0.500    0.000    3.000    7.000    0.000 
#    0.000    3.750    0.000    4.500    0.000    0.000 
#    0.000    0.000    0.000    0.000    0.000    0.000 
#
# Total GULP energy -89171.532480 kJ/mol
# GULP energy per Si atom -5573.220780 kJ/mol
# Density = 1.866295 g / cm^3
# Si number density = 18.705522 Si / 1000 Ang^3
#
#
#
# Elastic Constant Matrix: (Units=GPa)
#
#
# Indices 1 2 3 4 5 6 
#
# 1 102.8652 46.7403 35.2247 0.0000 0.0000 0.0000
# 2 46.7403 142.9870 31.3441 0.0000 0.0000 0.0000
# 3 35.2247 31.3441 62.7410 0.0000 0.0000 0.0000
# 4 0.0000 0.0000 0.0000 2.4118 0.0000 0.0000
# 5 0.0000 0.0000 0.0000 0.0000 -181.0144 0.0000
# 6 0.0000 0.0000 0.0000 0.0000 0.0000 24.2786
#
#
#
# Elastic Compliance Matrix: (Units=1/GPa)
#
#
# Indices 1 2 3 4 5 6 
#
# 1 0.013086 -0.002995 -0.005850 0.000000 0.000000 0.000000
# 2 -0.002995 0.008539 -0.002585 0.000000 0.000000 0.000000
# 3 -0.005850 -0.002585 0.020514 0.000000 0.000000 0.000000
# 4 0.000000 0.000000 0.000000 0.414621 0.000000 0.000000
# 5 0.000000 0.000000 0.000000 0.000000 -0.005524 0.000000
# 6 0.000000 0.000000 0.000000 0.000000 0.000000 0.041188
#
#
# Mechanical properties :
#
#
# Convention : Reuss Voigt Hill
#
# Bulk Modulus (GPa) = 51.86920 59.46792 55.66856
# Shear Modulus (GPa) = 9.58386 -17.84585 -4.13100
#
# Velocity S-wave (km/s) = 2.26598 -3.09211 -1.48769
# Velocity P-wave (km/s) = 5.88522 4.37178 5.18403
#
# Compressibility (1/GPa) = 0.01927926
#
# Stress axis : x y z
#
# Youngs Moduli (GPa) = 76.41879 117.10660 48.74635
#
# Poissons Ratio (x) = 0.35074 0.28519
# Poissons Ratio (y) = 0.22888 0.12599
# Poissons Ratio (z) = 0.44709 0.30266
#
# Static dielectric constant tensor:
#      x y z
#    x 1.641390 0.000000 0.000000 
#    y 0.000000 1.678860 0.000000 
#    z 0.000000 0.000000 1.621580 
# 
# From -- ./inp_files/32597.got.cif
#   From: 2010.05.17/outbox.cif.g08.bks.cpg/sg21_17_cif.got.tgz:32597.got - 2010.06.03 23:14:55.
