data_PCOD9323455
_publ_section_title
;
Structure prediction by ZEFSAII (Michael W. Deem and Ramdas Pophale) SiO2 
 PCOD9323455
Probable space group: C 2 2 2
;
_chemical_formula_sum "Si O2"
_cell_formula_units_Z 48
_cell_length_a 15.355359
_cell_length_b 18.588132
_cell_length_c 8.633653
_cell_angle_alpha 90.000000
_cell_angle_beta 90.000000
_cell_angle_gamma 90.000000
_cell_volume 2464.281474
_symmetry_space_group_name_H-M "C 2 2 2"
_symmetry_group_IT_number 21
_symmetry_cell_setting 'orthorhombic'
loop_
_space_group_symop_operation_xyz
x,y,z
-x,-y,z
x,-y,-z
-x,y,-z
1/2+x,1/2+y,z
1/2-x,1/2-y,z
1/2+x,1/2-y,-z
1/2-x,1/2+y,-z
loop_
_atom_site_type_symbol
_atom_site_label
_atom_site_fract_x
_atom_site_fract_y
_atom_site_fract_z
Si Si1 0.764555 0.924184 0.440541
Si Si2 0.846450 0.219241 0.628187
Si Si3 0.763026 0.577072 0.072982
Si Si4 0.405549 0.179084 0.921574
Si Si5 0.597584 0.331434 0.962347
Si Si6 0.408497 0.856883 0.437670
O O1 0.827881 0.855467 0.461047
O O2 0.742977 0.927521 0.258184
O O3 0.673992 0.906549 0.525050
O O4 0.800094 0.000000 0.500000
O O5 0.750000 0.250000 0.670125
O O6 0.895709 0.199568 0.786537
O O7 0.891733 0.281134 0.527906
O O8 0.669793 0.607852 0.019275
O O9 0.781010 0.500000 0.000000
O O10 0.836388 0.632563 0.017296
O O11 0.411234 0.155163 0.744943
O O12 0.500000 0.172423 0.000000
O O13 0.380590 0.262933 0.931203
O O14 0.500000 0.355459 0.000000
O O15 0.500000 0.886362 0.500000
#
# Coordination Sequence:
#
# PCOD9323455 Si02
#       6
#     8   8   8   8   8   8
#     4  10  21  38  57  80 112 149 190 229 279 338
#     4   9  19  37  58  82 114 149 186 233 283 335
#     4  11  23  38  58  84 118 154 189 235 285 338
#     4  11  22  37  59  88 117 147 189 236 285 339
#     4  10  20  37  60  85 115 149 189 237 284 333
#     4  11  21  35  58  84 112 147 187 231 281 338
#
# _framework density 19.478294000000002
#
# number of rings (size 3 to 8) (size 9 to 14) (size 15 to 20)
#    0.000    1.667    0.000    7.500    0.000    6.333 
#    0.000    3.333    0.000    2.500    0.000    0.000 
#    0.000    0.000    0.000    0.000    0.000    0.000 
#
# Total GULP energy -134149.788969 kJ/mol
# GULP energy per Si atom -5589.574540 kJ/mol
# Density = 1.943396 g / cm^3
# Si number density = 19.478294 Si / 1000 Ang^3
#
#
#
# Elastic Constant Matrix: (Units=GPa)
#
#
# Indices 1 2 3 4 5 6 
#
# 1 65.7669 0.9337 6.8296 0.0000 0.0000 0.0000
# 2 0.9337 46.4163 -22.4604 0.0000 0.0000 0.0000
# 3 6.8296 -22.4604 55.2626 0.0000 0.0000 0.0000
# 4 0.0000 0.0000 0.0000 6.0355 0.0000 0.0000
# 5 0.0000 0.0000 0.0000 0.0000 23.7098 0.0000
# 6 0.0000 0.0000 0.0000 0.0000 0.0000 1.3147
#
#
#
# Elastic Compliance Matrix: (Units=1/GPa)
#
#
# Indices 1 2 3 4 5 6 
#
# 1 0.015491 -0.001541 -0.002541 0.000000 0.000000 0.000000
# 2 -0.001541 0.026972 0.011153 0.000000 0.000000 0.000000
# 3 -0.002541 0.011153 0.022942 0.000000 0.000000 0.000000
# 4 0.000000 0.000000 0.000000 0.165687 0.000000 0.000000
# 5 0.000000 0.000000 0.000000 0.000000 0.042177 0.000000
# 6 0.000000 0.000000 0.000000 0.000000 0.000000 0.760615
#
#
# Mechanical properties :
#
#
# Convention : Reuss Voigt Hill
#
# Bulk Modulus (GPa) = 12.57126 15.33906 13.95516
# Shear Modulus (GPa) = 4.77894 18.35486 11.56690
#
# Velocity S-wave (km/s) = 1.56805 3.07306 2.43952
# Velocity P-wave (km/s) = 3.12192 4.52589 3.88780
#
# Compressibility (1/GPa) = 0.07954650
#
# Stress axis : x y z
#
# Youngs Moduli (GPa) = 64.55380 37.07572 43.58784
#
# Poissons Ratio (x) = 0.05714 0.11075
# Poissons Ratio (y) = 0.09948 -0.48612
# Poissons Ratio (z) = 0.16402 -0.41349
#
# Static dielectric constant tensor:
#      x y z
#    x 1.665750 0.000000 0.000000 
#    y 0.000000 1.688000 0.000000 
#    z 0.000000 0.000000 1.672950 
# 
# From -- ./inp_files/14935.got.cif
#   From: 2010.05.17/outbox.cif.g08.bks.cpg/sg21_8_cif.got.tgz:14935.got - 2010.06.03 23:14:55.
