data_PCOD9323471
_publ_section_title
;
Structure prediction by ZEFSAII (Michael W. Deem and Ramdas Pophale) SiO2 
 PCOD9323471
Probable space group: C 2 2 2
;
_chemical_formula_sum "Si O2"
_cell_formula_units_Z 48
_cell_length_a 16.093472
_cell_length_b 8.848266
_cell_length_c 16.864702
_cell_angle_alpha 90.000000
_cell_angle_beta 90.000000
_cell_angle_gamma 90.000000
_cell_volume 2401.522116
_symmetry_space_group_name_H-M "C 2 2 2"
_symmetry_group_IT_number 21
_symmetry_cell_setting 'orthorhombic'
loop_
_space_group_symop_operation_xyz
x,y,z
-x,-y,z
x,-y,-z
-x,y,-z
1/2+x,1/2+y,z
1/2-x,1/2-y,z
1/2+x,1/2-y,-z
1/2-x,1/2+y,-z
loop_
_atom_site_type_symbol
_atom_site_label
_atom_site_fract_x
_atom_site_fract_y
_atom_site_fract_z
Si Si1 0.836889 0.820702 0.327469
Si Si2 0.597347 0.179273 0.172648
Si Si3 1.000000 0.324388 0.594952
Si Si4 0.341349 0.181933 0.000000
Si Si5 0.097347 0.320727 0.172648
Si Si6 0.163111 0.820702 0.327469
O O1 0.750000 0.750000 0.355789
O O2 0.916813 0.753861 0.372530
O O3 0.850235 0.772516 0.235845
O O4 0.834619 0.000000 0.335203
O O5 0.614137 0.225291 0.081922
O O6 0.500000 0.199343 0.190346
O O7 0.649765 0.272515 0.235845
O O8 0.616585 1.000000 0.180814
O O9 0.000000 0.500000 0.620703
O O10 0.000000 0.318463 0.500000
O O11 0.083187 0.246139 0.627470
O O12 0.250000 0.250000 1.000000
O O13 0.385863 0.225291 0.081922
O O14 0.337567 0.000000 0.000000
O O15 0.250000 0.750000 0.355789
#
# Coordination Sequence:
#
# PCOD9323471 Si02
#       6
#     8   8   8   8   8   8
#     4  12  25  42  67  98 133 173 217 263 318 382
#     4  10  20  37  61  87 123 167 216 268 321 378
#     4  11  25  47  73 100 131 166 207 261 324 387
#     4  10  21  35  53  83 119 166 216 266 320 373
#     4  10  20  37  61  87 123 167 216 268 321 378
#     4  12  25  42  67  98 133 173 217 263 318 382
#
# _framework density 19.987323
#
# number of rings (size 3 to 8) (size 9 to 14) (size 15 to 20)
#    0.000    1.167    1.667    5.000    0.000    8.000 
#    0.000    0.000    0.000    3.000    0.000    0.000 
#    0.000    0.000    0.000    0.000    0.000    0.000 
#
# Total GULP energy -134247.851298 kJ/mol
# GULP energy per Si atom -5593.660471 kJ/mol
# Density = 1.994183 g / cm^3
# Si number density = 19.987323 Si / 1000 Ang^3
#
#
#
# Elastic Constant Matrix: (Units=GPa)
#
#
# Indices 1 2 3 4 5 6 
#
# 1 161.3646 86.6146 47.8450 0.0000 0.0000 0.0000
# 2 86.6146 132.1216 42.9848 0.0000 0.0000 0.0000
# 3 47.8450 42.9848 83.1569 0.0000 0.0000 0.0000
# 4 0.0000 0.0000 0.0000 22.7673 0.0000 0.0000
# 5 0.0000 0.0000 0.0000 0.0000 8.3141 0.0000
# 6 0.0000 0.0000 0.0000 0.0000 0.0000 36.9585
#
#
#
# Elastic Compliance Matrix: (Units=1/GPa)
#
#
# Indices 1 2 3 4 5 6 
#
# 1 0.010102 -0.005688 -0.002872 0.000000 0.000000 0.000000
# 2 -0.005688 0.012302 -0.003086 0.000000 0.000000 0.000000
# 3 -0.002872 -0.003086 0.015273 0.000000 0.000000 0.000000
# 4 0.000000 0.000000 0.000000 0.043923 0.000000 0.000000
# 5 0.000000 0.000000 0.000000 0.000000 0.120278 0.000000
# 6 0.000000 0.000000 0.000000 0.000000 0.000000 0.027057
#
#
# Mechanical properties :
#
#
# Convention : Reuss Voigt Hill
#
# Bulk Modulus (GPa) = 69.52046 81.28131 75.40088
# Shear Modulus (GPa) = 19.45359 26.88790 23.17075
#
# Velocity S-wave (km/s) = 3.12315 3.67174 3.40850
# Velocity P-wave (km/s) = 6.91833 7.66357 7.30046
#
# Compressibility (1/GPa) = 0.01438425
#
# Stress axis : x y z
#
# Youngs Moduli (GPa) = 98.99202 81.28903 65.47429
#
# Poissons Ratio (x) = 0.46238 0.18804
# Poissons Ratio (y) = 0.56307 0.20207
# Poissons Ratio (z) = 0.28430 0.25088
#
# Static dielectric constant tensor:
#      x y z
#    x 1.674220 0.000000 0.000000 
#    y 0.000000 1.670050 0.000000 
#    z 0.000000 0.000000 1.722800 
# 
# From -- ./inp_files/36626.got.cif
#   From: 2010.05.17/outbox.cif.g08.bks.cpg/sg21_19_cif.got.tgz:36626.got - 2010.06.03 23:14:55.
