data_PCOD9323584
_publ_section_title
;
Structure prediction by ZEFSAII (Michael W. Deem and Ramdas Pophale) SiO2 
 PCOD9323584
Probable space group: C 2 2 2
;
_chemical_formula_sum "Si O2"
_cell_formula_units_Z 44
_cell_length_a 9.535399
_cell_length_b 13.320259
_cell_length_c 15.109024
_cell_angle_alpha 90.000000
_cell_angle_beta 90.000000
_cell_angle_gamma 90.000000
_cell_volume 1919.057338
_symmetry_space_group_name_H-M "C 2 2 2"
_symmetry_group_IT_number 21
_symmetry_cell_setting 'orthorhombic'
loop_
_space_group_symop_operation_xyz
x,y,z
-x,-y,z
x,-y,-z
-x,y,-z
1/2+x,1/2+y,z
1/2-x,1/2-y,z
1/2+x,1/2-y,-z
1/2-x,1/2+y,-z
loop_
_atom_site_type_symbol
_atom_site_label
_atom_site_fract_x
_atom_site_fract_y
_atom_site_fract_z
Si Si1 0.000000 0.000000 0.000000
Si Si2 0.000000 0.500000 0.260689
Si Si3 0.908822 0.636324 0.583061
Si Si4 0.000000 0.500000 0.000000
Si Si5 0.750000 0.866799 0.180852
Si Si6 0.908822 0.863676 0.583061
Si Si7 0.500000 0.500000 0.260689
Si Si8 0.250000 0.864282 0.032698
O O1 0.108057 0.926736 0.052809
O O2 0.080505 0.572713 0.328535
O O3 0.113311 0.429984 0.210853
O O4 0.952488 0.750000 0.604656
O O5 0.750000 0.635932 0.551554
O O6 0.000000 0.603457 0.500000
O O7 0.108057 0.426736 0.947191
O O8 0.750000 0.750000 0.213122
O O9 0.750000 0.860375 0.074232
O O10 0.886689 0.929984 0.210853
O O11 0.000000 0.896543 0.500000
O O12 0.919494 0.927287 0.671465
O O13 0.250000 0.750000 0.067096
#
# Coordination Sequence:
#
# PCOD9323584 Si02
#       8
#     2   4   8   2   8   8   4   8
#     4  10  20  38  68  94 124 162 204 242 292 350
#     4  12  22  40  60  82 116 164 198 246 310 358
#     4  10  22  38  57  82 110 145 199 257 307 361
#     4  10  20  38  68  94 124 162 204 242 292 350
#     4  11  25  41  61  91 126 161 202 245 296 364
#     4  10  22  38  57  82 110 145 199 257 307 361
#     4  12  22  40  60  82 116 164 198 246 310 358
#     4  10  21  39  62  94 128 160 200 247 293 347
#
# _framework density 22.927923
#
# number of rings (size 3 to 8) (size 9 to 14) (size 15 to 20)
#    0.000    1.455    1.818    3.273    2.545    1.455 
#    0.000    0.000    0.000    8.727    0.000    0.000 
#    0.000    0.000    0.000    0.000    0.000    0.000 
#
# Total GULP energy -122940.140933 kJ/mol
# GULP energy per Si atom -5588.188224 kJ/mol
# Density = 2.287574 g / cm^3
# Si number density = 22.927923 Si / 1000 Ang^3
#
#
#
# Elastic Constant Matrix: (Units=GPa)
#
#
# Indices 1 2 3 4 5 6 
#
# 1 157.4247 78.7032 37.1255 0.0000 0.0000 0.0000
# 2 78.7032 214.7789 36.9092 0.0000 0.0000 0.0000
# 3 37.1255 36.9092 76.4046 0.0000 0.0000 0.0000
# 4 0.0000 0.0000 0.0000 37.8026 0.0000 0.0000
# 5 0.0000 0.0000 0.0000 0.0000 -81.0687 0.0000
# 6 0.0000 0.0000 0.0000 0.0000 0.0000 36.3478
#
#
#
# Elastic Compliance Matrix: (Units=1/GPa)
#
#
# Indices 1 2 3 4 5 6 
#
# 1 0.008289 -0.002558 -0.002792 0.000000 0.000000 0.000000
# 2 -0.002558 0.005867 -0.001591 0.000000 0.000000 0.000000
# 3 -0.002792 -0.001591 0.015214 0.000000 0.000000 0.000000
# 4 0.000000 0.000000 0.000000 0.026453 0.000000 0.000000
# 5 0.000000 0.000000 0.000000 0.000000 -0.012335 0.000000
# 6 0.000000 0.000000 0.000000 0.000000 0.000000 0.027512
#
#
# Mechanical properties :
#
#
# Convention : Reuss Voigt Hill
#
# Bulk Modulus (GPa) = 64.56914 83.78711 74.17813
# Shear Modulus (GPa) = 55.52790 18.34101 36.93445
#
# Velocity S-wave (km/s) = 4.92656 2.83139 4.01795
# Velocity P-wave (km/s) = 7.78359 6.87838 7.34494
#
# Compressibility (1/GPa) = 0.01548727
#
# Stress axis : x y z
#
# Youngs Moduli (GPa) = 120.63496 170.45523 65.73015
#
# Poissons Ratio (x) = 0.43598 0.18354
# Poissons Ratio (y) = 0.30855 0.10459
# Poissons Ratio (z) = 0.33685 0.27123
#
# Static dielectric constant tensor:
#      x y z
#    x 1.846380 0.000000 0.000000 
#    y 0.000000 1.922110 0.000000 
#    z 0.000000 0.000000 1.814820 
# 
# From -- ./inp_files/35631.got.cif
#   From: 2010.05.17/outbox.cif.g08.bks.cpg/sg21_18_cif.got.tgz:35631.got - 2010.06.03 23:14:55.
