data_PCOD9323356
_publ_section_title
;
Structure prediction by ZEFSAII (Michael W. Deem and Ramdas Pophale) SiO2 
 PCOD9323356
Probable space group: C 2 2 2
;
_chemical_formula_sum "Si O2"
_cell_formula_units_Z 32
_cell_length_a 38.192912
_cell_length_b 8.654256
_cell_length_c 5.012454
_cell_angle_alpha 90.000000
_cell_angle_beta 90.000000
_cell_angle_gamma 90.000000
_cell_volume 1656.772625
_symmetry_space_group_name_H-M "C 2 2 2"
_symmetry_group_IT_number 21
_symmetry_cell_setting 'orthorhombic'
loop_
_space_group_symop_operation_xyz
x,y,z
-x,-y,z
x,-y,-z
-x,y,-z
1/2+x,1/2+y,z
1/2-x,1/2-y,z
1/2+x,1/2-y,-z
1/2-x,1/2+y,-z
loop_
_atom_site_type_symbol
_atom_site_label
_atom_site_fract_x
_atom_site_fract_y
_atom_site_fract_z
Si Si1 0.722977 0.888566 0.744579
Si Si2 0.855368 0.610857 0.749896
Si Si3 0.576956 0.185523 0.978688
Si Si4 0.459748 0.684011 0.467830
O O1 0.750000 0.750000 0.773024
O O2 0.683304 0.825113 0.690220
O O3 0.732027 0.000000 0.500000
O O4 0.723849 0.000000 0.000000
O O5 0.866388 0.500000 0.500000
O O6 0.849195 0.500000 0.000000
O O7 0.885593 0.719204 0.874148
O O8 0.567100 0.238655 0.680638
O O9 0.549941 0.269144 0.170169
O O10 0.573562 0.000000 0.000000
O O11 0.457698 0.500000 0.500000
O O12 0.500000 0.734346 0.500000
#
# Coordination Sequence:
#
# PCOD9323356 Si02
#       4
#     8   8   8   8
#     4  10  20  36  58  83 115 152 190 232 282 336
#     4   9  18  34  56  82 113 148 183 230 289 336
#     4  11  21  37  61  84 106 141 193 236 269 327
#     4  11  24  40  56  79 115 150 177 222 292 347
#
# _framework density 19.314661999999998
#
# number of rings (size 3 to 8) (size 9 to 14) (size 15 to 20)
#    0.000    1.750    0.000    6.000    0.000    5.000 
#    0.000    3.750    0.000    0.000    0.000    0.000 
#    0.000    0.000    0.000    0.000    0.000    0.000 
#
# Total GULP energy -89116.675740 kJ/mol
# GULP energy per Si atom -5569.792234 kJ/mol
# Density = 1.927070 g / cm^3
# Si number density = 19.314662 Si / 1000 Ang^3
#
#
#
# Elastic Constant Matrix: (Units=GPa)
#
#
# Indices 1 2 3 4 5 6 
#
# 1 102.7398 21.1004 -8.2601 0.0000 0.0000 0.0000
# 2 21.1004 41.8707 3.7921 0.0000 0.0000 0.0000
# 3 -8.2601 3.7921 102.8707 0.0000 0.0000 0.0000
# 4 0.0000 0.0000 0.0000 25.3888 0.0000 0.0000
# 5 0.0000 0.0000 0.0000 0.0000 15.2231 0.0000
# 6 0.0000 0.0000 0.0000 0.0000 0.0000 26.6640
#
#
#
# Elastic Compliance Matrix: (Units=1/GPa)
#
#
# Indices 1 2 3 4 5 6 
#
# 1 0.010977 -0.005631 0.001089 0.000000 0.000000 0.000000
# 2 -0.005631 0.026851 -0.001442 0.000000 0.000000 0.000000
# 3 0.001089 -0.001442 0.009862 0.000000 0.000000 0.000000
# 4 0.000000 0.000000 0.000000 0.039387 0.000000 0.000000
# 5 0.000000 0.000000 0.000000 0.000000 0.065690 0.000000
# 6 0.000000 0.000000 0.000000 0.000000 0.000000 0.037504
#
#
# Mechanical properties :
#
#
# Convention : Reuss Voigt Hill
#
# Bulk Modulus (GPa) = 27.99320 31.19402 29.59361
# Shear Modulus (GPa) = 23.34862 28.84509 26.09685
#
# Velocity S-wave (km/s) = 3.48063 3.86868 3.67978
# Velocity P-wave (km/s) = 5.53875 6.01175 5.78009
#
# Compressibility (1/GPa) = 0.03572297
#
# Stress axis : x y z
#
# Youngs Moduli (GPa) = 91.09739 37.24237 101.40409
#
# Poissons Ratio (x) = 0.20969 -0.11043
# Poissons Ratio (y) = 0.51293 0.14622
# Poissons Ratio (z) = -0.09920 0.05370
#
# Static dielectric constant tensor:
#      x y z
#    x 1.783140 0.000000 0.000000 
#    y 0.000000 1.637770 0.000000 
#    z 0.000000 0.000000 1.779210 
# 
# From -- ./inp_files/7766.got.cif
#   From: 2010.05.17/outbox.cif.g08.bks.cpg/sg21_4_cif.got.tgz:7766.got - 2010.06.03 23:14:55.
