data_PCOD9323985
_publ_section_title
;
Structure prediction by ZEFSAII (Michael W. Deem and Ramdas Pophale) SiO2 
 PCOD9323985
Probable space group: C 2 2 2
;
_chemical_formula_sum "Si O2"
_cell_formula_units_Z 32
_cell_length_a 7.156528
_cell_length_b 17.312535
_cell_length_c 12.047164
_cell_angle_alpha 90.000000
_cell_angle_beta 90.000000
_cell_angle_gamma 90.000000
_cell_volume 1492.615206
_symmetry_space_group_name_H-M "C 2 2 2"
_symmetry_group_IT_number 21
_symmetry_cell_setting 'orthorhombic'
loop_
_space_group_symop_operation_xyz
x,y,z
-x,-y,z
x,-y,-z
-x,y,-z
1/2+x,1/2+y,z
1/2-x,1/2-y,z
1/2+x,1/2-y,-z
1/2-x,1/2+y,-z
loop_
_atom_site_type_symbol
_atom_site_label
_atom_site_fract_x
_atom_site_fract_y
_atom_site_fract_z
Si Si1 0.000000 0.000000 0.209404
Si Si2 0.250000 0.750000 0.677316
Si Si3 0.841863 0.152452 0.875970
Si Si4 0.000000 0.314248 0.500000
Si Si5 0.500000 0.783194 0.000000
Si Si6 0.802202 0.543603 0.608464
O O1 0.838876 0.035156 0.289594
O O2 0.078776 0.068255 0.133453
O O3 0.238587 0.824315 0.756157
O O4 0.079129 0.739128 0.595880
O O5 0.679003 0.165779 0.967561
O O6 0.994247 0.220104 0.900026
O O7 0.854601 0.371772 0.438003
O O8 0.724269 0.500000 0.500000
O O9 0.000000 0.500000 0.635139
#
# Coordination Sequence:
#
# PCOD9323985 Si02
#       6
#     4   4   8   4   4   8
#     4  12  23  39  74 108 128 172 238 284 346 414
#     4  10  22  38  64 100 138 190 228 262 330 416
#     4  10  22  45  70 100 130 175 235 282 358 406
#     4  10  21  38  60  99 146 184 226 260 324 409
#     4   8  20  47  70  87 134 172 214 300 340 418
#     4   9  20  39  58  97 149 182 214 271 330 394
#
# _framework density 21.438880999999999
#
# number of rings (size 3 to 8) (size 9 to 14) (size 15 to 20)
#    0.000    2.750    0.000    3.375    3.500    0.500 
#   27.000    0.000   11.000    0.000    0.000    0.000 
#    0.000    0.000    0.000    0.000    0.000    0.000 
#
# Total GULP energy -89160.824531 kJ/mol
# GULP energy per Si atom -5572.551533 kJ/mol
# Density = 2.139009 g / cm^3
# Si number density = 21.438881 Si / 1000 Ang^3
#
#
#
# Elastic Constant Matrix: (Units=GPa)
#
#
# Indices 1 2 3 4 5 6 
#
# 1 107.4510 52.4704 62.1193 0.0000 0.0000 0.0000
# 2 52.4704 108.1599 31.7482 0.0000 0.0000 0.0000
# 3 62.1193 31.7482 93.3148 0.0000 0.0000 0.0000
# 4 0.0000 0.0000 0.0000 10.0947 0.0000 0.0000
# 5 0.0000 0.0000 0.0000 0.0000 51.4249 0.0000
# 6 0.0000 0.0000 0.0000 0.0000 0.0000 24.2844
#
#
#
# Elastic Compliance Matrix: (Units=1/GPa)
#
#
# Indices 1 2 3 4 5 6 
#
# 1 0.017853 -0.005746 -0.009930 0.000000 0.000000 0.000000
# 2 -0.005746 0.012121 -0.000299 0.000000 0.000000 0.000000
# 3 -0.009930 -0.000299 0.017428 0.000000 0.000000 0.000000
# 4 0.000000 0.000000 0.000000 0.099062 0.000000 0.000000
# 5 0.000000 0.000000 0.000000 0.000000 0.019446 0.000000
# 6 0.000000 0.000000 0.000000 0.000000 0.000000 0.041179
#
#
# Mechanical properties :
#
#
# Convention : Reuss Voigt Hill
#
# Bulk Modulus (GPa) = 64.71220 66.84462 65.77841
# Shear Modulus (GPa) = 20.47599 27.99999 24.23799
#
# Velocity S-wave (km/s) = 3.09380 3.61784 3.36603
# Velocity P-wave (km/s) = 6.55837 6.97843 6.77166
#
# Compressibility (1/GPa) = 0.01545304
#
# Stress axis : x y z
#
# Youngs Moduli (GPa) = 56.01272 82.50270 57.37835
#
# Poissons Ratio (x) = 0.47408 0.56975
# Poissons Ratio (y) = 0.32186 0.01713
# Poissons Ratio (z) = 0.55619 0.02464
#
# Static dielectric constant tensor:
#      x y z
#    x 1.855000 0.000000 0.000000 
#    y 0.000000 1.828750 0.000000 
#    z 0.000000 0.000000 1.790620 
# 
# From -- ./inp_files/22209.got.cif
#   From: 2010.05.17/outbox.cif.g08.bks.cpg/sg21_12_cif.got.tgz:22209.got - 2010.06.03 23:14:55.
