data_PCOD9323008
_publ_section_title
;
Structure prediction by ZEFSAII (Michael W. Deem and Ramdas Pophale) SiO2 
 PCOD9323008
Probable space group: C 2 2 2
;
_chemical_formula_sum "Si O2"
_cell_formula_units_Z 54
_cell_length_a 14.755065
_cell_length_b 14.141125
_cell_length_c 12.878626
_cell_angle_alpha 90.000000
_cell_angle_beta 90.000000
_cell_angle_gamma 90.000000
_cell_volume 2687.166765
_symmetry_space_group_name_H-M "C 2 2 2"
_symmetry_group_IT_number 21
_symmetry_cell_setting 'orthorhombic'
loop_
_space_group_symop_operation_xyz
x,y,z
-x,-y,z
x,-y,-z
-x,y,-z
1/2+x,1/2+y,z
1/2-x,1/2-y,z
1/2+x,1/2-y,-z
1/2-x,1/2+y,-z
loop_
_atom_site_type_symbol
_atom_site_label
_atom_site_fract_x
_atom_site_fract_y
_atom_site_fract_z
Si Si1 0.753801 0.596854 0.440286
Si Si2 0.579805 0.291740 0.785065
Si Si3 0.891071 0.702159 0.005303
Si Si4 0.000000 0.000000 0.000000
Si Si5 0.205058 0.970193 0.784948
Si Si6 0.310885 0.000000 0.000000
Si Si7 0.609576 0.642119 0.852469
Si Si8 0.900070 0.749176 0.449889
O O1 0.748578 0.500000 0.500000
O O2 0.756066 0.569246 0.317107
O O3 0.840127 0.657769 0.477388
O O4 0.664351 0.659311 0.465965
O O5 0.626940 0.231441 0.875938
O O6 0.622027 0.396511 0.792711
O O7 0.472356 0.304702 0.796603
O O8 0.594502 0.246059 0.674576
O O9 0.866425 0.595467 0.977913
O O10 0.847770 0.779223 0.927895
O O11 0.000000 0.713895 0.000000
O O12 0.062680 0.933003 0.069560
O O13 0.169743 0.078585 0.776117
O O14 0.255665 0.973765 0.895756
O O15 0.000000 0.754358 0.500000
#
# Coordination Sequence:
#
# PCOD9323008 Si02
#       8
#     8   8   8   2   8   4   8   8
#     4  10  24  46  64  95 136 163 212 286 333 386
#     4  10  19  37  63  88 119 158 205 259 319 380
#     4  10  21  38  55  82 124 167 211 256 298 371
#     4  12  14  32  56  92 126 152 202 256 314 376
#     4  11  22  36  62  93 127 159 198 261 331 386
#     4  12  24  36  55  87 124 176 212 238 310 400
#     4  11  19  33  60  91 122 159 202 258 311 373
#     4  10  23  43  70  95 119 171 223 267 332 403
#
# _framework density 20.095514000000001
#
# number of rings (size 3 to 8) (size 9 to 14) (size 15 to 20)
#    0.000    1.481    3.704    2.444    2.074    4.148 
#    5.333    0.000    0.000    0.000    0.000    0.000 
#    0.000    0.000    0.000    0.000    0.000    0.000 
#
# Total GULP energy -150638.150117 kJ/mol
# GULP energy per Si atom -5579.190745 kJ/mol
# Density = 2.004978 g / cm^3
# Si number density = 20.095514 Si / 1000 Ang^3
#
#
#
# Elastic Constant Matrix: (Units=GPa)
#
#
# Indices 1 2 3 4 5 6 
#
# 1 91.1404 44.7935 33.8851 0.0000 0.0000 0.0000
# 2 44.7935 131.0048 39.8116 0.0000 0.0000 0.0000
# 3 33.8851 39.8116 70.5207 0.0000 0.0000 0.0000
# 4 0.0000 0.0000 0.0000 19.4175 0.0000 0.0000
# 5 0.0000 0.0000 0.0000 0.0000 8.0081 0.0000
# 6 0.0000 0.0000 0.0000 0.0000 0.0000 187.8295
#
#
#
# Elastic Compliance Matrix: (Units=1/GPa)
#
#
# Indices 1 2 3 4 5 6 
#
# 1 0.014537 -0.003438 -0.005044 0.000000 0.000000 0.000000
# 2 -0.003438 0.010027 -0.004009 0.000000 0.000000 0.000000
# 3 -0.005044 -0.004009 0.018867 0.000000 0.000000 0.000000
# 4 0.000000 0.000000 0.000000 0.051500 0.000000 0.000000
# 5 0.000000 0.000000 0.000000 0.000000 0.124874 0.000000
# 6 0.000000 0.000000 0.000000 0.000000 0.000000 0.005324
#
#
# Mechanical properties :
#
#
# Convention : Reuss Voigt Hill
#
# Bulk Modulus (GPa) = 54.20180 58.84958 56.52569
# Shear Modulus (GPa) = 19.51137 54.66272 37.08704
#
# Velocity S-wave (km/s) = 3.11936 5.22116 4.30063
# Velocity P-wave (km/s) = 6.32491 8.10530 7.26981
#
# Compressibility (1/GPa) = 0.01844957
#
# Stress axis : x y z
#
# Youngs Moduli (GPa) = 68.78988 99.73114 53.00209
#
# Poissons Ratio (x) = 0.34283 0.26736
# Poissons Ratio (y) = 0.23647 0.21248
# Poissons Ratio (z) = 0.34700 0.39981
#
# Static dielectric constant tensor:
#      x y z
#    x 1.762810 0.000000 0.000000 
#    y 0.000000 1.716200 0.000000 
#    z 0.000000 0.000000 1.230900 
# 
# From -- ./inp_files/25349.got.cif
#   From: 2010.05.17/outbox.cif.g08.bks.cpg/sg21_13_cif.got.tgz:25349.got - 2010.06.03 23:14:55.
