data_PCOD9323203
_publ_section_title
;
Structure prediction by ZEFSAII (Michael W. Deem and Ramdas Pophale) SiO2 
 PCOD9323203
Probable space group: C 2 2 2
;
_chemical_formula_sum "Si O2"
_cell_formula_units_Z 64
_cell_length_a 14.993876
_cell_length_b 8.199989
_cell_length_c 24.668157
_cell_angle_alpha 90.000000
_cell_angle_beta 90.000000
_cell_angle_gamma 90.000000
_cell_volume 3032.940487
_symmetry_space_group_name_H-M "C 2 2 2"
_symmetry_group_IT_number 21
_symmetry_cell_setting 'orthorhombic'
loop_
_space_group_symop_operation_xyz
x,y,z
-x,-y,z
x,-y,-z
-x,y,-z
1/2+x,1/2+y,z
1/2-x,1/2-y,z
1/2+x,1/2-y,-z
1/2-x,1/2+y,-z
loop_
_atom_site_type_symbol
_atom_site_label
_atom_site_fract_x
_atom_site_fract_y
_atom_site_fract_z
Si Si1 0.852107 0.804358 0.646428
Si Si2 0.603413 0.322437 0.121761
Si Si3 1.000000 0.800963 0.438214
Si Si4 0.390678 1.000000 0.936717
Si Si5 0.352833 0.806973 0.763736
Si Si6 0.647893 0.304358 0.646428
Si Si7 0.647167 0.806973 0.763736
Si Si8 0.896587 0.177563 0.878239
O O1 0.750000 0.750000 0.639101
O O2 0.886708 0.735291 0.703775
O O3 0.913788 0.751480 0.596608
O O4 0.854290 1.000000 0.650393
O O5 0.642728 0.164527 0.092202
O O6 0.604847 0.286511 0.185897
O O7 0.500000 0.330914 0.104594
O O8 0.644609 0.500000 0.110918
O O9 0.913788 0.751480 0.403392
O O10 0.000000 0.742778 0.500000
O O11 0.000000 0.000000 0.439638
O O12 0.500000 0.000000 0.931354
O O13 0.357272 0.835472 0.907798
O O14 0.369538 0.000000 0.000000
O O15 0.250000 0.750000 0.763462
O O16 0.386708 0.764709 0.703775
O O17 0.395152 0.713489 0.814103
O O18 0.360056 1.000000 0.772916
O O19 0.750000 0.250000 0.639101
O O20 0.750000 0.750000 0.763463
#
# Coordination Sequence:
#
# PCOD9323203 Si02
#       8
#     8   8   8   8   8   8   8   8
#     4  10  20  36  57  84 116 152 198 246 305 366
#     4  10  20  34  54  83 114 147 191 237 292 353
#     4   9  20  38  59  83 115 159 203 244 297 363
#     4   9  18  34  54  80 114 150 193 241 286 341
#     4  11  21  35  55  82 114 148 186 235 300 355
#     4  10  20  36  57  84 116 152 198 246 305 366
#     4  11  21  35  55  82 114 148 186 235 300 355
#     4  10  20  34  54  83 114 147 191 237 292 353
#
# _framework density 21.101633
#
# number of rings (size 3 to 8) (size 9 to 14) (size 15 to 20)
#    0.000    2.000    1.250    4.500    1.750    1.000 
#    0.000    4.375    0.000    6.000    0.000    0.000 
#    0.000    0.000    0.000    0.000    0.000    0.000 
#
# Total GULP energy -178756.953059 kJ/mol
# GULP energy per Si atom -5586.154783 kJ/mol
# Density = 2.105360 g / cm^3
# Si number density = 21.101633 Si / 1000 Ang^3
#
#
#
# Elastic Constant Matrix: (Units=GPa)
#
#
# Indices 1 2 3 4 5 6 
#
# 1 54.4820 20.2819 24.9747 0.0000 0.0000 0.0000
# 2 20.2819 160.7208 64.4771 0.0000 0.0000 0.0000
# 3 24.9747 64.4771 140.7751 0.0000 0.0000 0.0000
# 4 0.0000 0.0000 0.0000 23.3972 0.0000 0.0000
# 5 0.0000 0.0000 0.0000 0.0000 38.7004 0.0000
# 6 0.0000 0.0000 0.0000 0.0000 0.0000 20.3431
#
#
#
# Elastic Compliance Matrix: (Units=1/GPa)
#
#
# Indices 1 2 3 4 5 6 
#
# 1 0.020220 -0.001363 -0.002963 0.000000 0.000000 0.000000
# 2 -0.001363 0.007714 -0.003292 0.000000 0.000000 0.000000
# 3 -0.002963 -0.003292 0.009137 0.000000 0.000000 0.000000
# 4 0.000000 0.000000 0.000000 0.042740 0.000000 0.000000
# 5 0.000000 0.000000 0.000000 0.000000 0.025840 0.000000
# 6 0.000000 0.000000 0.000000 0.000000 0.000000 0.049157
#
#
# Mechanical properties :
#
#
# Convention : Reuss Voigt Hill
#
# Bulk Modulus (GPa) = 45.79485 63.93836 54.86660
# Shear Modulus (GPa) = 28.19731 32.90440 30.55086
#
# Velocity S-wave (km/s) = 3.65946 3.95312 3.80912
# Velocity P-wave (km/s) = 6.29322 7.15557 6.73821
#
# Compressibility (1/GPa) = 0.02183652
#
# Stress axis : x y z
#
# Youngs Moduli (GPa) = 49.45516 129.62685 109.44801
#
# Poissons Ratio (x) = 0.17668 0.32429
# Poissons Ratio (y) = 0.06741 0.36025
# Poissons Ratio (z) = 0.14653 0.42667
#
# Static dielectric constant tensor:
#      x y z
#    x 1.784300 0.000000 0.000000 
#    y 0.000000 1.773450 0.000000 
#    z 0.000000 0.000000 1.729820 
# 
# From -- ./inp_files/37689.got.cif
#   From: 2010.05.17/outbox.cif.g08.bks.cpg/sg21_19_cif.got.tgz:37689.got - 2010.06.03 23:14:55.
