data_PCOD9323299
_publ_section_title
;
Structure prediction by ZEFSAII (Michael W. Deem and Ramdas Pophale) SiO2 
 PCOD9323299
Probable space group: C 2 2 2
;
_chemical_formula_sum "Si O2"
_cell_formula_units_Z 52
_cell_length_a 26.198490
_cell_length_b 12.274940
_cell_length_c 8.412231
_cell_angle_alpha 90.000000
_cell_angle_beta 90.000000
_cell_angle_gamma 90.000000
_cell_volume 2705.246405
_symmetry_space_group_name_H-M "C 2 2 2"
_symmetry_group_IT_number 21
_symmetry_cell_setting 'orthorhombic'
loop_
_space_group_symop_operation_xyz
x,y,z
-x,-y,z
x,-y,-z
-x,y,-z
1/2+x,1/2+y,z
1/2-x,1/2-y,z
1/2+x,1/2-y,-z
1/2-x,1/2+y,-z
loop_
_atom_site_type_symbol
_atom_site_label
_atom_site_fract_x
_atom_site_fract_y
_atom_site_fract_z
Si Si1 0.250000 0.750000 0.033445
Si Si2 0.842179 0.772481 0.499119
Si Si3 0.445324 0.378542 0.069050
Si Si4 0.789645 0.594174 0.734527
Si Si5 0.358916 0.778757 0.872235
Si Si6 0.779635 0.000000 0.500000
Si Si7 0.863989 0.500000 0.000000
Si Si8 0.555129 0.626107 0.452044
O O1 0.252851 0.649584 0.154136
O O2 0.301514 0.768019 0.937936
O O3 0.814835 0.682403 0.611724
O O4 0.850203 0.733206 0.316843
O O5 0.811235 0.887503 0.501766
O O6 0.900294 0.806658 0.538637
O O7 0.394178 0.309996 0.039619
O O8 0.445273 0.375668 0.260748
O O9 0.439996 0.500000 0.000000
O O10 0.500000 0.337824 0.000000
O O11 0.759457 0.499754 0.646202
O O12 0.831253 0.547834 0.853707
O O13 0.386588 0.892186 0.919492
O O14 0.560483 0.500000 0.500000
O O15 0.500000 0.668372 0.500000
#
# Coordination Sequence:
#
# PCOD9323299 Si02
#       8
#     4   8   8   8   8   4   4   8
#     4  10  22  36  54  86 118 160 204 254 308 358
#     4  11  23  39  60  89 122 166 206 249 317 375
#     4  10  21  39  63  92 124 165 205 258 323 372
#     4  11  23  38  57  84 124 163 209 251 306 364
#     4  10  24  40  60  88 124 163 210 257 307 375
#     4  12  22  36  57  88 123 164 206 244 308 388
#     4  10  24  42  59  86 122 162 215 262 306 364
#     4  10  20  35  57  88 120 154 199 254 308 371
#
# _framework density 19.221909
#
# number of rings (size 3 to 8) (size 9 to 14) (size 15 to 20)
#    0.000    1.538    2.308    2.769    6.462    7.385 
#    1.385    0.385    0.000    0.000    0.000    3.769 
#    0.000    0.000    0.000    0.000    0.000    0.000 
#
# Total GULP energy -144745.972228 kJ/mol
# GULP energy per Si atom -5567.152778 kJ/mol
# Density = 1.917816 g / cm^3
# Si number density = 19.221909 Si / 1000 Ang^3
#
#
#
# Elastic Constant Matrix: (Units=GPa)
#
#
# Indices 1 2 3 4 5 6 
#
# 1 99.6156 37.4108 18.8948 0.0000 0.0000 0.0000
# 2 37.4108 72.1767 20.8952 0.0000 0.0000 0.0000
# 3 18.8948 20.8952 60.4419 0.0000 0.0000 0.0000
# 4 0.0000 0.0000 0.0000 23.3149 0.0000 0.0000
# 5 0.0000 0.0000 0.0000 0.0000 50.9497 0.0000
# 6 0.0000 0.0000 0.0000 0.0000 0.0000 22.7510
#
#
#
# Elastic Compliance Matrix: (Units=1/GPa)
#
#
# Indices 1 2 3 4 5 6 
#
# 1 0.012654 -0.006016 -0.001876 0.000000 0.000000 0.000000
# 2 -0.006016 0.018255 -0.004431 0.000000 0.000000 0.000000
# 3 -0.001876 -0.004431 0.018663 0.000000 0.000000 0.000000
# 4 0.000000 0.000000 0.000000 0.042891 0.000000 0.000000
# 5 0.000000 0.000000 0.000000 0.000000 0.019627 0.000000
# 6 0.000000 0.000000 0.000000 0.000000 0.000000 0.043954
#
#
# Mechanical properties :
#
#
# Convention : Reuss Voigt Hill
#
# Bulk Modulus (GPa) = 40.11581 42.95955 41.53768
# Shear Modulus (GPa) = 26.45533 29.73869 28.09701
#
# Velocity S-wave (km/s) = 3.71389 3.93762 3.82739
# Velocity P-wave (km/s) = 6.26943 6.56284 6.41781
#
# Compressibility (1/GPa) = 0.02492783
#
# Stress axis : x y z
#
# Youngs Moduli (GPa) = 79.02908 54.77802 53.58213
#
# Poissons Ratio (x) = 0.32952 0.10052
# Poissons Ratio (y) = 0.47540 0.23740
# Poissons Ratio (z) = 0.14826 0.24270
#
# Static dielectric constant tensor:
#      x y z
#    x 1.690420 0.000000 0.000000 
#    y 0.000000 1.745180 0.000000 
#    z 0.000000 0.000000 1.708800 
# 
# From -- ./inp_files/19146.got.cif
#   From: 2010.05.17/outbox.cif.g08.bks.cpg/sg21_10_cif.got.tgz:19146.got - 2010.06.03 23:14:55.
