data_PCOD9323990
_publ_section_title
;
Structure prediction by ZEFSAII (Michael W. Deem and Ramdas Pophale) SiO2 
 PCOD9323990
Probable space group: C 2 2 2
;
_chemical_formula_sum "Si O2"
_cell_formula_units_Z 34
_cell_length_a 5.415248
_cell_length_b 14.698524
_cell_length_c 19.869422
_cell_angle_alpha 90.000000
_cell_angle_beta 90.000000
_cell_angle_gamma 90.000000
_cell_volume 1581.529547
_symmetry_space_group_name_H-M "C 2 2 2"
_symmetry_group_IT_number 21
_symmetry_cell_setting 'orthorhombic'
loop_
_space_group_symop_operation_xyz
x,y,z
-x,-y,z
x,-y,-z
-x,y,-z
1/2+x,1/2+y,z
1/2-x,1/2-y,z
1/2+x,1/2-y,-z
1/2-x,1/2+y,-z
loop_
_atom_site_type_symbol
_atom_site_label
_atom_site_fract_x
_atom_site_fract_y
_atom_site_fract_z
Si Si1 0.000172 0.689967 0.425622
Si Si2 0.154953 0.852020 0.067704
Si Si3 0.500000 0.000000 0.000000
Si Si4 0.990574 0.108314 0.786843
Si Si5 0.992570 0.608161 0.718788
O O1 0.750000 0.750000 0.421704
O O2 0.003721 0.627172 0.360425
O O3 0.000000 0.645394 0.500000
O O4 0.250000 0.750000 0.422479
O O5 0.250000 0.750000 0.079759
O O6 0.000684 0.877154 0.133505
O O7 0.000000 0.846967 0.000000
O O8 0.349435 0.931828 0.049409
O O9 0.241702 0.144261 0.752658
O O10 0.740695 0.144682 0.753726
O O11 0.000000 0.000000 0.774915
O O12 0.000000 0.500000 0.729737
#
# Coordination Sequence:
#
# PCOD9323990 Si02
#       5
#     8   8   2   8   8
#     4  10  21  38  61  90 128 170 215 269 329 395
#     4  12  27  46  71 103 134 183 240 285 357 432
#     4  12  26  48  76  92 148 180 220 320 346 406
#     4  10  23  41  67  92 133 173 214 278 344 399
#     4  10  22  40  64  94 127 170 215 268 332 398
#
# _framework density 21.498177999999999
#
# number of rings (size 3 to 8) (size 9 to 14) (size 15 to 20)
#    0.000    1.412    1.176    3.176    8.235    3.294 
#    0.000    0.000    0.000    8.471    0.000    0.000 
#    0.000    0.000    0.000    0.000    0.000    0.000 
#
# Total GULP energy -95004.784248 kJ/mol
# GULP energy per Si atom -5588.516720 kJ/mol
# Density = 2.144925 g / cm^3
# Si number density = 21.498178 Si / 1000 Ang^3
#
#
#
# Elastic Constant Matrix: (Units=GPa)
#
#
# Indices 1 2 3 4 5 6 
#
# 1 160.5576 27.3133 65.6560 0.0000 0.0000 0.0000
# 2 27.3133 83.3545 -6.9504 0.0000 0.0000 0.0000
# 3 65.6560 -6.9504 142.0727 0.0000 0.0000 0.0000
# 4 0.0000 0.0000 0.0000 38.4108 0.0000 0.0000
# 5 0.0000 0.0000 0.0000 0.0000 45.3664 0.0000
# 6 0.0000 0.0000 0.0000 0.0000 0.0000 -12.5277
#
#
#
# Elastic Compliance Matrix: (Units=1/GPa)
#
#
# Indices 1 2 3 4 5 6 
#
# 1 0.008404 -0.003090 -0.004035 0.000000 0.000000 0.000000
# 2 -0.003090 0.013182 0.002073 0.000000 0.000000 0.000000
# 3 -0.004035 0.002073 0.009005 0.000000 0.000000 0.000000
# 4 0.000000 0.000000 0.000000 0.026034 0.000000 0.000000
# 5 0.000000 0.000000 0.000000 0.000000 0.022043 0.000000
# 6 0.000000 0.000000 0.000000 0.000000 0.000000 -0.079823
#
#
# Mechanical properties :
#
#
# Convention : Reuss Voigt Hill
#
# Bulk Modulus (GPa) = 48.81194 62.00251 55.40722
# Shear Modulus (GPa) = 316.89004 34.24764 175.56884
#
# Velocity S-wave (km/s) = 12.15414 3.99563 9.04677
# Velocity P-wave (km/s) = 14.82291 7.08450 11.61699
#
# Compressibility (1/GPa) = 0.02048679
#
# Stress axis : x y z
#
# Youngs Moduli (GPa) = 118.99163 75.85877 111.05306
#
# Poissons Ratio (x) = 0.23442 0.44809
# Poissons Ratio (y) = 0.36771 -0.23021
# Poissons Ratio (z) = 0.48012 -0.15725
#
# Static dielectric constant tensor:
#      x y z
#    x 1.811160 0.000000 0.000000 
#    y 0.000000 1.651200 0.000000 
#    z 0.000000 0.000000 1.733710 
# 
# From -- ./inp_files/32614.got.cif
#   From: 2010.05.17/outbox.cif.g08.bks.cpg/sg21_17_cif.got.tgz:32614.got - 2010.06.03 23:14:55.
