data_PCOD9323557
_publ_section_title
;
Structure prediction by ZEFSAII (Michael W. Deem and Ramdas Pophale) SiO2 
 PCOD9323557
Probable space group: C 2 2 2
;
_chemical_formula_sum "Si O2"
_cell_formula_units_Z 56
_cell_length_a 21.421805
_cell_length_b 15.183878
_cell_length_c 8.652260
_cell_angle_alpha 90.000000
_cell_angle_beta 90.000000
_cell_angle_gamma 90.000000
_cell_volume 2814.286638
_symmetry_space_group_name_H-M "C 2 2 2"
_symmetry_group_IT_number 21
_symmetry_cell_setting 'orthorhombic'
loop_
_space_group_symop_operation_xyz
x,y,z
-x,-y,z
x,-y,-z
-x,y,-z
1/2+x,1/2+y,z
1/2-x,1/2-y,z
1/2+x,1/2-y,-z
1/2-x,1/2+y,-z
loop_
_atom_site_type_symbol
_atom_site_label
_atom_site_fract_x
_atom_site_fract_y
_atom_site_fract_z
Si Si1 0.998791 0.767048 0.186594
Si Si2 0.748273 0.351666 0.804334
Si Si3 0.033232 0.419384 0.668901
Si Si4 0.391739 0.603518 0.809256
Si Si5 0.100574 0.091510 0.814505
Si Si6 0.761890 0.849369 0.823165
Si Si7 0.674733 0.007504 0.325654
O O1 0.932713 0.811251 0.234500
O O2 0.018847 0.673204 0.252435
O O3 0.050090 0.838297 0.237175
O O4 0.000000 0.761055 0.000000
O O5 0.750000 0.250000 0.751585
O O6 0.680242 0.389285 0.758832
O O7 0.805830 0.413642 0.751498
O O8 0.744765 0.350694 0.990893
O O9 0.104361 0.453888 0.663226
O O10 0.000000 0.500000 0.755997
O O11 0.000000 0.412561 0.500000
O O12 0.415372 0.507025 0.761099
O O13 0.396964 0.597488 0.997092
O O14 0.170159 0.119151 0.769985
O O15 0.750000 0.750000 0.770321
O O16 0.712480 0.918352 0.762978
O O17 0.697931 0.000000 0.500000
#
# Coordination Sequence:
#
# PCOD9323557 Si02
#       7
#     8   8   8   8   8   8   8
#     4  10  21  37  66  99 119 157 213 257 298 370
#     4  10  22  38  63  96 126 162 205 261 319 366
#     4  11  25  48  61  79 121 170 205 251 322 368
#     4   9  17  32  60  92 132 159 188 247 315 372
#     4   9  16  33  57  94 132 158 190 244 318 369
#     4  10  20  38  63  94 129 162 202 259 320 369
#     4  12  24  42  65  88 120 169 214 252 309 378
#
# _framework density 19.89847
#
# number of rings (size 3 to 8) (size 9 to 14) (size 15 to 20)
#    0.000    1.857    2.857    1.714    2.000    3.714 
#    2.571    1.429    0.000    0.857    0.000    0.000 
#    0.000    0.000    0.000    0.000    0.000    0.000 
#
# Total GULP energy -156055.932633 kJ/mol
# GULP energy per Si atom -5573.426165 kJ/mol
# Density = 1.985318 g / cm^3
# Si number density = 19.898470 Si / 1000 Ang^3
#
#
#
# Elastic Constant Matrix: (Units=GPa)
#
#
# Indices 1 2 3 4 5 6 
#
# 1 114.3748 61.8545 19.2291 0.0000 0.0000 0.0000
# 2 61.8545 197.7459 27.3524 0.0000 0.0000 0.0000
# 3 19.2291 27.3524 13.6347 0.0000 0.0000 0.0000
# 4 0.0000 0.0000 0.0000 -4.8797 0.0000 0.0000
# 5 0.0000 0.0000 0.0000 0.0000 15.0406 0.0000
# 6 0.0000 0.0000 0.0000 0.0000 0.0000 24.0832
#
#
#
# Elastic Compliance Matrix: (Units=1/GPa)
#
#
# Indices 1 2 3 4 5 6 
#
# 1 0.011981 -0.001952 -0.012981 0.000000 0.000000 0.000000
# 2 -0.001952 0.007317 -0.011926 0.000000 0.000000 0.000000
# 3 -0.012981 -0.011926 0.115574 0.000000 0.000000 0.000000
# 4 0.000000 0.000000 0.000000 -0.204930 0.000000 0.000000
# 5 0.000000 0.000000 0.000000 0.000000 0.066487 0.000000
# 6 0.000000 0.000000 0.000000 0.000000 0.000000 0.041523
#
#
# Mechanical properties :
#
#
# Convention : Reuss Voigt Hill
#
# Bulk Modulus (GPa) = 12.32218 60.29194 36.30706
# Shear Modulus (GPa) = 42.11505 21.33676 31.72591
#
# Velocity S-wave (km/s) = 4.60553 3.27812 3.99731
# Velocity P-wave (km/s) = 5.87258 6.68533 6.29209
#
# Compressibility (1/GPa) = 0.08115444
#
# Stress axis : x y z
#
# Youngs Moduli (GPa) = 83.46278 136.66392 8.65244
#
# Poissons Ratio (x) = 0.26679 0.11232
# Poissons Ratio (y) = 0.16293 0.10319
# Poissons Ratio (z) = 1.08345 1.62983
#
# Static dielectric constant tensor:
#      x y z
#    x 1.731910 0.000000 0.000000 
#    y 0.000000 1.717240 0.000000 
#    z 0.000000 0.000000 1.710030 
# 
# From -- ./inp_files/17724.got.cif
#   From: 2010.05.17/outbox.cif.g08.bks.cpg/sg21_9_cif.got.tgz:17724.got - 2010.06.03 23:14:55.
