data_PCOD9323665
_publ_section_title
;
Structure prediction by ZEFSAII (Michael W. Deem and Ramdas Pophale) SiO2 
 PCOD9323665
Probable space group: C 2 2 2
;
_chemical_formula_sum "Si O2"
_cell_formula_units_Z 48
_cell_length_a 17.692260
_cell_length_b 9.253210
_cell_length_c 15.307653
_cell_angle_alpha 90.000000
_cell_angle_beta 90.000000
_cell_angle_gamma 90.000000
_cell_volume 2506.018891
_symmetry_space_group_name_H-M "C 2 2 2"
_symmetry_group_IT_number 21
_symmetry_cell_setting 'orthorhombic'
loop_
_space_group_symop_operation_xyz
x,y,z
-x,-y,z
x,-y,-z
-x,y,-z
1/2+x,1/2+y,z
1/2-x,1/2-y,z
1/2+x,1/2-y,-z
1/2-x,1/2+y,-z
loop_
_atom_site_type_symbol
_atom_site_label
_atom_site_fract_x
_atom_site_fract_y
_atom_site_fract_z
Si Si1 0.826711 0.665184 0.469669
Si Si2 0.928567 0.795541 0.149980
Si Si3 0.100228 0.120294 0.818969
Si Si4 0.416969 0.071674 0.306928
Si Si5 0.327446 0.325933 0.990765
Si Si6 0.661148 0.778933 0.661700
O O1 0.807786 0.500000 0.500000
O O2 0.750000 0.750000 0.444906
O O3 0.887329 0.658378 0.391929
O O4 0.858488 0.732146 0.559432
O O5 0.915729 0.670614 0.220923
O O6 0.893249 0.767833 0.054711
O O7 0.017205 0.832619 0.149156
O O8 0.891376 0.947832 0.178284
O O9 0.114719 0.171559 0.721755
O O10 0.155212 0.195879 0.888626
O O11 0.500000 0.000000 0.318691
O O12 0.359389 0.937563 0.302912
O O13 0.250000 0.250000 0.016347
O O14 0.323959 0.500000 0.000000
O O15 0.750000 0.750000 0.669243
#
# Coordination Sequence:
#
# PCOD9323665 Si02
#       6
#     8   8   8   8   8   8
#     4   9  21  38  60  88 121 162 202 252 309 368
#     4  10  22  38  61  87 119 159 204 247 307 369
#     4  10  20  40  61  85 121 161 199 250 308 367
#     4  11  22  40  62  93 122 161 208 255 311 368
#     4  10  22  39  60  87 119 160 203 250 306 366
#     4  10  21  38  61  88 120 159 202 250 311 365
#
# _framework density 19.153884999999999
#
# number of rings (size 3 to 8) (size 9 to 14) (size 15 to 20)
#    0.000    2.000    1.667    1.000    0.000   13.667 
#    0.000    0.000    0.000    2.000    0.000    0.000 
#    0.000    0.000    0.000    0.000    0.000    0.000 
#
# Total GULP energy -133838.482289 kJ/mol
# GULP energy per Si atom -5576.603429 kJ/mol
# Density = 1.911029 g / cm^3
# Si number density = 19.153885 Si / 1000 Ang^3
#
#
#
# Elastic Constant Matrix: (Units=GPa)
#
#
# Indices 1 2 3 4 5 6 
#
# 1 65.4806 26.0271 32.4832 0.0000 0.0000 0.0000
# 2 26.0271 39.6874 39.2906 0.0000 0.0000 0.0000
# 3 32.4832 39.2906 95.1075 0.0000 0.0000 0.0000
# 4 0.0000 0.0000 0.0000 15.2227 0.0000 0.0000
# 5 0.0000 0.0000 0.0000 0.0000 51.1670 0.0000
# 6 0.0000 0.0000 0.0000 0.0000 0.0000 34.0690
#
#
#
# Elastic Compliance Matrix: (Units=1/GPa)
#
#
# Indices 1 2 3 4 5 6 
#
# 1 0.021004 -0.011290 -0.002510 0.000000 0.000000 0.000000
# 2 -0.011290 0.048702 -0.016264 0.000000 0.000000 0.000000
# 3 -0.002510 -0.016264 0.018090 0.000000 0.000000 0.000000
# 4 0.000000 0.000000 0.000000 0.065691 0.000000 0.000000
# 5 0.000000 0.000000 0.000000 0.000000 0.019544 0.000000
# 6 0.000000 0.000000 0.000000 0.000000 0.000000 0.029352
#
#
# Mechanical properties :
#
#
# Convention : Reuss Voigt Hill
#
# Bulk Modulus (GPa) = 36.14041 43.98637 40.06339
# Shear Modulus (GPa) = 18.40037 26.92338 22.66188
#
# Velocity S-wave (km/s) = 3.10281 3.75325 3.44342
# Velocity P-wave (km/s) = 5.63436 6.46507 6.06395
#
# Compressibility (1/GPa) = 0.02766986
#
# Stress axis : x y z
#
# Youngs Moduli (GPa) = 47.60949 20.53312 55.27806
#
# Poissons Ratio (x) = 0.23182 0.13873
# Poissons Ratio (y) = 0.53751 0.89902
# Poissons Ratio (z) = 0.11949 0.33394
#
# Static dielectric constant tensor:
#      x y z
#    x 1.652810 0.000000 0.000000 
#    y 0.000000 1.674820 0.000000 
#    z 0.000000 0.000000 1.670260 
# 
# From -- ./inp_files/30537.got.cif
#   From: 2010.05.17/outbox.cif.g08.bks.cpg/sg21_16_cif.got.tgz:30537.got - 2010.06.03 23:14:55.
