data_PCOD9323437
_publ_section_title
;
Structure prediction by ZEFSAII (Michael W. Deem and Ramdas Pophale) SiO2 
 PCOD9323437
Probable space group: C 2 2 2
;
_chemical_formula_sum "Si O2"
_cell_formula_units_Z 64
_cell_length_a 27.690144
_cell_length_b 11.591979
_cell_length_c 9.331692
_cell_angle_alpha 90.000000
_cell_angle_beta 90.000000
_cell_angle_gamma 90.000000
_cell_volume 2995.319791
_symmetry_space_group_name_H-M "C 2 2 2"
_symmetry_group_IT_number 21
_symmetry_cell_setting 'orthorhombic'
loop_
_space_group_symop_operation_xyz
x,y,z
-x,-y,z
x,-y,-z
-x,y,-z
1/2+x,1/2+y,z
1/2-x,1/2-y,z
1/2+x,1/2-y,-z
1/2-x,1/2+y,-z
loop_
_atom_site_type_symbol
_atom_site_label
_atom_site_fract_x
_atom_site_fract_y
_atom_site_fract_z
Si Si1 0.804320 0.243646 0.995618
Si Si2 0.360521 0.667294 0.262073
Si Si3 0.333545 0.745442 0.568012
Si Si4 0.311537 0.051035 0.235296
Si Si5 0.704527 0.447083 0.753618
Si Si6 0.437532 0.790023 0.645294
Si Si7 0.585606 0.983382 0.830426
Si Si8 0.542325 0.765501 0.685551
O O1 0.750000 0.250000 0.056536
O O2 0.843907 0.226494 0.115769
O O3 0.812553 0.354727 0.894687
O O4 0.804069 0.131457 0.893307
O O5 0.340270 0.735125 0.399874
O O6 0.335742 0.542910 0.264314
O O7 0.418131 0.668688 0.279955
O O8 0.318000 0.870707 0.623015
O O9 0.298461 0.646137 0.625677
O O10 0.386028 0.725841 0.644613
O O11 0.258096 0.999462 0.236564
O O12 0.357940 0.972224 0.213689
O O13 0.431669 0.905177 0.739588
O O14 0.486672 0.729176 0.696057
O O15 0.446961 0.811167 0.476143
O O16 0.554741 0.873283 0.785753
O O17 0.582269 0.000000 0.000000
#
# Coordination Sequence:
#
# PCOD9323437 Si02
#       8
#     8   8   8   8   8   8   8   8
#     4   9  19  35  55  77 108 150 186 217 263 321
#     4  11  21  33  54  84 110 137 184 232 265 317
#     4   9  19  37  58  79 105 141 184 228 273 317
#     4   9  20  38  55  75 111 152 178 213 275 331
#     4  10  20  37  56  77 112 150 179 216 272 328
#     4   9  20  39  58  75 107 147 180 223 278 327
#     4  11  21  34  56  85 111 139 181 226 267 322
#     4  10  21  37  55  79 110 144 180 222 276 329
#
# _framework density 21.366665999999999
#
# number of rings (size 3 to 8) (size 9 to 14) (size 15 to 20)
#    0.000    2.250    0.000    3.375    0.000    6.000 
#    0.000    8.125    0.000    3.000    0.000    5.250 
#    0.000    0.000    0.000    0.000    0.000    0.000 
#
# Total GULP energy -178815.864591 kJ/mol
# GULP energy per Si atom -5587.995768 kJ/mol
# Density = 2.131803 g / cm^3
# Si number density = 21.366666 Si / 1000 Ang^3
#
#
#
# Elastic Constant Matrix: (Units=GPa)
#
#
# Indices 1 2 3 4 5 6 
#
# 1 131.9186 13.0081 40.6211 0.0000 0.0000 0.0000
# 2 13.0081 36.5414 8.1747 0.0000 0.0000 0.0000
# 3 40.6211 8.1747 52.0547 0.0000 0.0000 0.0000
# 4 0.0000 0.0000 0.0000 -0.9752 0.0000 0.0000
# 5 0.0000 0.0000 0.0000 0.0000 19.9176 0.0000
# 6 0.0000 0.0000 0.0000 0.0000 0.0000 25.5587
#
#
#
# Elastic Compliance Matrix: (Units=1/GPa)
#
#
# Indices 1 2 3 4 5 6 
#
# 1 0.010104 -0.001900 -0.007586 0.000000 0.000000 0.000000
# 2 -0.001900 0.028720 -0.003028 0.000000 0.000000 0.000000
# 3 -0.007586 -0.003028 0.025606 0.000000 0.000000 0.000000
# 4 0.000000 0.000000 0.000000 -1.025467 0.000000 0.000000
# 5 0.000000 0.000000 0.000000 0.000000 0.050207 0.000000
# 6 0.000000 0.000000 0.000000 0.000000 0.000000 0.039126
#
#
# Mechanical properties :
#
#
# Convention : Reuss Voigt Hill
#
# Bulk Modulus (GPa) = 25.37922 38.23583 31.80753
# Shear Modulus (GPa) = -5.99849 19.48095 6.74123
#
# Velocity S-wave (km/s) = -1.67735 3.02279 1.77817
# Velocity P-wave (km/s) = 2.85524 5.48789 4.37432
#
# Compressibility (1/GPa) = 0.03940231
#
# Stress axis : x y z
#
# Youngs Moduli (GPa) = 98.97334 34.81921 39.05345
#
# Poissons Ratio (x) = 0.06614 0.29627
# Poissons Ratio (y) = 0.18801 0.11824
# Poissons Ratio (z) = 0.75083 0.10542
#
# Static dielectric constant tensor:
#      x y z
#    x 1.808710 0.000000 0.000000 
#    y 0.000000 1.755520 0.000000 
#    z 0.000000 0.000000 1.771660 
# 
# From -- ./inp_files/19802.got.cif
#   From: 2010.05.17/outbox.cif.g08.bks.cpg/sg21_10_cif.got.tgz:19802.got - 2010.06.03 23:14:55.
