data_PCOD9323338
_publ_section_title
;
Structure prediction by ZEFSAII (Michael W. Deem and Ramdas Pophale) SiO2 
 PCOD9323338
Probable space group: C 2 2 2
;
_chemical_formula_sum "Si O2"
_cell_formula_units_Z 34
_cell_length_a 4.931650
_cell_length_b 23.795983
_cell_length_c 13.279003
_cell_angle_alpha 90.000000
_cell_angle_beta 90.000000
_cell_angle_gamma 90.000000
_cell_volume 1558.336942
_symmetry_space_group_name_H-M "C 2 2 2"
_symmetry_group_IT_number 21
_symmetry_cell_setting 'orthorhombic'
loop_
_space_group_symop_operation_xyz
x,y,z
-x,-y,z
x,-y,-z
-x,y,-z
1/2+x,1/2+y,z
1/2-x,1/2-y,z
1/2+x,1/2-y,-z
1/2-x,1/2+y,-z
loop_
_atom_site_type_symbol
_atom_site_label
_atom_site_fract_x
_atom_site_fract_y
_atom_site_fract_z
Si Si1 0.500000 0.000000 0.150227
Si Si2 0.500000 0.851869 0.500000
Si Si3 0.500000 0.500000 0.000000
Si Si4 0.999472 0.609239 0.281563
Si Si5 0.250000 0.750000 0.937196
Si Si6 0.488817 0.679746 0.234975
Si Si7 0.750000 0.250000 0.605527
O O1 0.439424 0.947638 0.223194
O O2 0.763297 0.982135 0.082469
O O3 0.433223 0.888049 0.401180
O O4 0.287975 0.805154 0.538903
O O5 0.187991 0.656757 0.231634
O O6 0.689724 0.629313 0.268378
O O7 0.397350 0.703839 0.868533
O O8 0.500000 0.775141 0.000000
O O9 0.522264 0.729271 0.316619
#
# Coordination Sequence:
#
# PCOD9323338 Si02
#       7
#     4   4   2   8   4   8   4
#     4  11  24  47  70  96 128 163 224 293 330 392
#     4  10  20  35  66 100 130 179 212 252 334 396
#     4  10  24  50  72  88 112 174 224 274 352 384
#     4  11  23  41  64  97 131 167 219 273 325 393
#     4  11  22  40  59  92 130 172 217 274 343 398
#     4  10  22  39  60  91 134 173 215 268 320 388
#     4   9  18  34  61  92 138 180 215 250 299 414
#
# _framework density 21.818128999999999
#
# number of rings (size 3 to 8) (size 9 to 14) (size 15 to 20)
#    0.000    1.647    0.000    4.235    0.000    9.882 
#   21.176    0.000    0.000    7.059    0.000    0.000 
#    0.000    0.000    0.000    0.000    0.000    0.000 
#
# Total GULP energy -94679.370418 kJ/mol
# GULP energy per Si atom -5569.374730 kJ/mol
# Density = 2.176847 g / cm^3
# Si number density = 21.818129 Si / 1000 Ang^3
#
#
#
# Elastic Constant Matrix: (Units=GPa)
#
#
# Indices 1 2 3 4 5 6 
#
# 1 97.1636 10.1068 27.6034 0.0000 0.0000 0.0000
# 2 10.1068 85.3735 45.8148 0.0000 0.0000 0.0000
# 3 27.6034 45.8148 152.4383 0.0000 0.0000 0.0000
# 4 0.0000 0.0000 0.0000 -5.1152 0.0000 0.0000
# 5 0.0000 0.0000 0.0000 0.0000 7.6703 0.0000
# 6 0.0000 0.0000 0.0000 0.0000 0.0000 22.2750
#
#
#
# Elastic Compliance Matrix: (Units=1/GPa)
#
#
# Indices 1 2 3 4 5 6 
#
# 1 0.010855 -0.000275 -0.001883 0.000000 0.000000 0.000000
# 2 -0.000275 0.013973 -0.004150 0.000000 0.000000 0.000000
# 3 -0.001883 -0.004150 0.008148 0.000000 0.000000 0.000000
# 4 0.000000 0.000000 0.000000 -0.195497 0.000000 0.000000
# 5 0.000000 0.000000 0.000000 0.000000 0.130374 0.000000
# 6 0.000000 0.000000 0.000000 0.000000 0.000000 0.044893
#
#
# Mechanical properties :
#
#
# Convention : Reuss Voigt Hill
#
# Bulk Modulus (GPa) = 49.11231 55.78059 52.44645
# Shear Modulus (GPa) = 155.52831 21.72936 88.62884
#
# Velocity S-wave (km/s) = 8.45214 3.15926 6.38043
# Velocity P-wave (km/s) = 10.85405 6.23936 8.85268
#
# Compressibility (1/GPa) = 0.02036149
#
# Stress axis : x y z
#
# Youngs Moduli (GPa) = 92.11937 71.56839 122.72606
#
# Poissons Ratio (x) = 0.01965 0.23112
# Poissons Ratio (y) = 0.02529 0.50928
# Poissons Ratio (z) = 0.17348 0.29699
#
# Static dielectric constant tensor:
#      x y z
#    x 1.875630 0.000000 0.000000 
#    y 0.000000 1.793330 0.000000 
#    z 0.000000 0.000000 1.871600 
# 
# From -- ./inp_files/21018.got.cif
#   From: 2010.05.17/outbox.cif.g08.bks.cpg/sg21_11_cif.got.tgz:21018.got - 2010.06.03 23:14:55.
