data_PCOD9323340
_publ_section_title
;
Structure prediction by ZEFSAII (Michael W. Deem and Ramdas Pophale) SiO2 
 PCOD9323340
Probable space group: C 2 2 2
;
_chemical_formula_sum "Si O2"
_cell_formula_units_Z 64
_cell_length_a 28.189405
_cell_length_b 11.507416
_cell_length_c 9.148080
_cell_angle_alpha 90.000000
_cell_angle_beta 90.000000
_cell_angle_gamma 90.000000
_cell_volume 2967.520149
_symmetry_space_group_name_H-M "C 2 2 2"
_symmetry_group_IT_number 21
_symmetry_cell_setting 'orthorhombic'
loop_
_space_group_symop_operation_xyz
x,y,z
-x,-y,z
x,-y,-z
-x,y,-z
1/2+x,1/2+y,z
1/2-x,1/2-y,z
1/2+x,1/2-y,-z
1/2-x,1/2+y,-z
loop_
_atom_site_type_symbol
_atom_site_label
_atom_site_fract_x
_atom_site_fract_y
_atom_site_fract_z
Si Si1 0.802120 0.249951 0.985804
Si Si2 0.362233 0.666426 0.242423
Si Si3 0.336450 0.731365 0.562518
Si Si4 0.311621 0.052323 0.249531
Si Si5 0.706820 0.451772 0.741084
Si Si6 0.438853 0.754694 0.657701
Si Si7 0.587303 0.987328 0.677557
Si Si8 0.541164 0.744273 0.691247
O O1 0.750000 0.250000 0.057488
O O2 0.810838 0.366639 0.894313
O O3 0.798514 0.142324 0.871868
O O4 0.842667 0.230604 0.101542
O O5 0.349312 0.731464 0.393511
O O6 0.333944 0.546157 0.247690
O O7 0.418951 0.661191 0.241999
O O8 0.316552 0.853371 0.618898
O O9 0.300879 0.627562 0.598420
O O10 0.384940 0.707452 0.657087
O O11 0.259762 0.996142 0.256593
O O12 0.359435 0.979146 0.260322
O O13 0.487430 0.709503 0.728811
O O14 0.451131 0.745832 0.484777
O O15 0.433741 0.886640 0.715529
O O16 0.555728 0.878254 0.725935
O O17 0.590043 0.000000 0.500000
#
# Coordination Sequence:
#
# PCOD9323340 Si02
#       8
#     8   8   8   8   8   8   8   8
#     4   9  20  37  54  71 101 148 188 217 263 322
#     4  11  21  32  51  81 107 131 177 228 263 311
#     4   9  18  33  55  80 104 135 176 222 267 311
#     4   9  19  36  54  73 104 145 175 207 268 328
#     4  10  20  36  53  72 106 147 177 210 267 326
#     4   8  15  30  51  73 105 137 164 206 261 315
#     4   9  16  28  51  80 104 132 169 208 257 317
#     4   9  17  29  47  77 107 131 164 211 262 307
#
# _framework density 21.566828999999998
#
# number of rings (size 3 to 8) (size 9 to 14) (size 15 to 20)
#    0.000    2.750    0.000    3.000    0.000    4.500 
#    0.000    3.750    0.000    9.750    0.000   10.500 
#    0.000    0.000    0.000    0.000    0.000    0.000 
#
# Total GULP energy -178505.092682 kJ/mol
# GULP energy per Si atom -5578.284146 kJ/mol
# Density = 2.151774 g / cm^3
# Si number density = 21.566829 Si / 1000 Ang^3
#
#
#
# Elastic Constant Matrix: (Units=GPa)
#
#
# Indices 1 2 3 4 5 6 
#
# 1 152.2846 11.6696 18.4704 0.0000 0.0000 0.0000
# 2 11.6696 33.7825 -3.2748 0.0000 0.0000 0.0000
# 3 18.4704 -3.2748 33.0228 0.0000 0.0000 0.0000
# 4 0.0000 0.0000 0.0000 1.5095 0.0000 0.0000
# 5 0.0000 0.0000 0.0000 0.0000 23.7255 0.0000
# 6 0.0000 0.0000 0.0000 0.0000 0.0000 25.6805
#
#
#
# Elastic Compliance Matrix: (Units=1/GPa)
#
#
# Indices 1 2 3 4 5 6 
#
# 1 0.007326 -0.002956 -0.004391 0.000000 0.000000 0.000000
# 2 -0.002956 0.031081 0.004736 0.000000 0.000000 0.000000
# 3 -0.004391 0.004736 0.033208 0.000000 0.000000 0.000000
# 4 0.000000 0.000000 0.000000 0.662480 0.000000 0.000000
# 5 0.000000 0.000000 0.000000 0.000000 0.042149 0.000000
# 6 0.000000 0.000000 0.000000 0.000000 0.000000 0.038940
#
#
# Mechanical properties :
#
#
# Convention : Reuss Voigt Hill
#
# Bulk Modulus (GPa) = 15.06196 30.31336 22.68766
# Shear Modulus (GPa) = 5.93447 22.99808 14.46628
#
# Velocity S-wave (km/s) = 1.66061 3.26907 2.59272
# Velocity P-wave (km/s) = 3.26739 5.32307 4.41650
#
# Compressibility (1/GPa) = 0.06639244
#
# Stress axis : x y z
#
# Youngs Moduli (GPa) = 136.50558 32.17367 30.11367
#
# Poissons Ratio (x) = 0.09511 0.13222
# Poissons Ratio (y) = 0.40353 -0.14261
# Poissons Ratio (z) = 0.59934 -0.15236
#
# Static dielectric constant tensor:
#      x y z
#    x 1.863060 0.000000 0.000000 
#    y 0.000000 1.808410 0.000000 
#    z 0.000000 0.000000 1.779920 
# 
# From -- ./inp_files/19803.got.cif
#   From: 2010.05.17/outbox.cif.g08.bks.cpg/sg21_10_cif.got.tgz:19803.got - 2010.06.03 23:14:55.
