data_PCOD9323101
_publ_section_title
;
Structure prediction by ZEFSAII (Michael W. Deem and Ramdas Pophale) SiO2 
 PCOD9323101
Probable space group: C 2 2 2
;
_chemical_formula_sum "Si O2"
_cell_formula_units_Z 48
_cell_length_a 14.951839
_cell_length_b 17.432183
_cell_length_c 8.667417
_cell_angle_alpha 90.000000
_cell_angle_beta 90.000000
_cell_angle_gamma 90.000000
_cell_volume 2259.103247
_symmetry_space_group_name_H-M "C 2 2 2"
_symmetry_group_IT_number 21
_symmetry_cell_setting 'orthorhombic'
loop_
_space_group_symop_operation_xyz
x,y,z
-x,-y,z
x,-y,-z
-x,y,-z
1/2+x,1/2+y,z
1/2-x,1/2-y,z
1/2+x,1/2-y,-z
1/2-x,1/2+y,-z
loop_
_atom_site_type_symbol
_atom_site_label
_atom_site_fract_x
_atom_site_fract_y
_atom_site_fract_z
Si Si1 0.369081 0.982017 0.671654
Si Si2 0.880657 0.902398 0.679418
Si Si3 0.955430 0.178680 0.831717
Si Si4 0.421047 0.850709 0.877890
Si Si5 0.834539 0.076127 0.662199
Si Si6 0.277636 0.080504 0.910307
O O1 0.427882 0.918989 0.755932
O O2 0.269137 0.945678 0.660072
O O3 0.397931 0.000000 0.500000
O O4 0.351104 0.054084 0.782637
O O5 0.852833 0.885250 0.503524
O O6 0.805312 0.887505 0.811071
O O7 0.970158 0.857488 0.719514
O O8 0.887150 0.995316 0.678302
O O9 0.930603 0.266881 0.805422
O O10 0.867260 0.128611 0.801614
O O11 0.000000 0.171581 0.000000
O O12 0.500000 0.858033 0.000000
O O13 0.328229 0.863952 0.971294
O O14 0.254447 0.000000 0.000000
#
# Coordination Sequence:
#
# PCOD9323101 Si02
#       6
#     8   8   8   8   8   8
#     4  10  19  41  74 102 120 163 231 282 335 391
#     4  10  20  39  67  97 132 166 222 270 331 394
#     4  11  25  38  59  97 140 185 209 257 335 407
#     4  10  24  45  61  93 140 174 225 275 335 396
#     4  10  20  40  68 101 131 164 218 278 332 397
#     4   9  19  37  70  96 126 168 224 281 323 385
#
# _framework density 21.247368999999999
#
# number of rings (size 3 to 8) (size 9 to 14) (size 15 to 20)
#    0.000    2.000    3.333    1.000    7.000    5.667 
#    3.000    8.333    7.333    0.000    0.000    0.000 
#    0.000    0.000    0.000    0.000    0.000    0.000 
#
# Total GULP energy -134064.482832 kJ/mol
# GULP energy per Si atom -5586.020118 kJ/mol
# Density = 2.119901 g / cm^3
# Si number density = 21.247369 Si / 1000 Ang^3
#
#
#
# Elastic Constant Matrix: (Units=GPa)
#
#
# Indices 1 2 3 4 5 6 
#
# 1 99.1982 36.0856 9.3555 0.0000 0.0000 0.0000
# 2 36.0856 77.5233 19.4021 0.0000 0.0000 0.0000
# 3 9.3555 19.4021 78.0662 0.0000 0.0000 0.0000
# 4 0.0000 0.0000 0.0000 22.5510 0.0000 0.0000
# 5 0.0000 0.0000 0.0000 0.0000 31.6903 0.0000
# 6 0.0000 0.0000 0.0000 0.0000 0.0000 5.6796
#
#
#
# Elastic Compliance Matrix: (Units=1/GPa)
#
#
# Indices 1 2 3 4 5 6 
#
# 1 0.012136 -0.005636 -0.000054 0.000000 0.000000 0.000000
# 2 -0.005636 0.016372 -0.003394 0.000000 0.000000 0.000000
# 3 -0.000054 -0.003394 0.013659 0.000000 0.000000 0.000000
# 4 0.000000 0.000000 0.000000 0.044344 0.000000 0.000000
# 5 0.000000 0.000000 0.000000 0.000000 0.031555 0.000000
# 6 0.000000 0.000000 0.000000 0.000000 0.000000 0.176070
#
#
# Mechanical properties :
#
#
# Convention : Reuss Voigt Hill
#
# Bulk Modulus (GPa) = 41.66404 42.71933 42.19168
# Shear Modulus (GPa) = 15.61022 24.64715 20.12869
#
# Velocity S-wave (km/s) = 2.71346 3.40959 3.08124
# Velocity P-wave (km/s) = 5.42851 5.97074 5.70607
#
# Compressibility (1/GPa) = 0.02400152
#
# Stress axis : x y z
#
# Youngs Moduli (GPa) = 82.39963 61.08014 73.20913
#
# Poissons Ratio (x) = 0.34422 0.00393
# Poissons Ratio (y) = 0.46437 0.24844
# Poissons Ratio (z) = 0.00443 0.20728
#
# Static dielectric constant tensor:
#      x y z
#    x 1.810970 0.000000 0.000000 
#    y 0.000000 1.754180 0.000000 
#    z 0.000000 0.000000 1.798320 
# 
# From -- ./inp_files/15003.got.cif
#   From: 2010.05.17/outbox.cif.g08.bks.cpg/sg21_8_cif.got.tgz:15003.got - 2010.06.03 23:14:55.
