data_PCOD9323741
_publ_section_title
;
Structure prediction by ZEFSAII (Michael W. Deem and Ramdas Pophale) SiO2 
 PCOD9323741
Probable space group: C 2 2 2
;
_chemical_formula_sum "Si O2"
_cell_formula_units_Z 52
_cell_length_a 19.686952
_cell_length_b 13.493342
_cell_length_c 8.855961
_cell_angle_alpha 90.000000
_cell_angle_beta 90.000000
_cell_angle_gamma 90.000000
_cell_volume 2352.522067
_symmetry_space_group_name_H-M "C 2 2 2"
_symmetry_group_IT_number 21
_symmetry_cell_setting 'orthorhombic'
loop_
_space_group_symop_operation_xyz
x,y,z
-x,-y,z
x,-y,-z
-x,y,-z
1/2+x,1/2+y,z
1/2-x,1/2-y,z
1/2+x,1/2-y,-z
1/2-x,1/2+y,-z
loop_
_atom_site_type_symbol
_atom_site_label
_atom_site_fract_x
_atom_site_fract_y
_atom_site_fract_z
Si Si1 0.823417 0.282632 0.343168
Si Si2 0.925142 0.889838 0.186938
Si Si3 0.750000 0.750000 0.168736
Si Si4 0.289613 0.112238 0.951098
Si Si5 0.432592 0.889145 0.931822
Si Si6 0.125292 0.693621 0.657244
Si Si7 0.585746 0.615606 0.824727
O O1 0.750000 0.250000 0.406807
O O2 0.798365 0.365411 0.223789
O O3 0.870487 0.319709 0.479425
O O4 0.865407 0.194737 0.258341
O O5 0.891825 0.805679 0.290184
O O6 0.005872 0.878640 0.219494
O O7 0.897291 0.000781 0.215359
O O8 0.916030 0.874249 0.006880
O O9 0.798883 0.686439 0.275184
O O10 0.769643 0.832295 0.041716
O O11 0.362154 0.154423 0.009965
O O12 0.285421 0.000000 0.000000
O O13 0.425309 0.877134 0.752340
O O14 0.500000 0.840634 0.000000
O O15 0.432416 0.000000 0.000000
#
# Coordination Sequence:
#
# PCOD9323741 Si02
#       7
#     8   8   4   8   8   8   8
#     4  12  25  42  61  97 145 187 220 287 355 411
#     4   9  20  39  69 103 127 176 226 289 338 421
#     4  10  20  42  62  86 122 172 228 276 314 406
#     4  10  22  41  66  91 124 177 237 271 323 407
#     4   9  20  41  68  94 120 167 228 281 328 405
#     4  11  23  38  65  95 137 171 221 281 355 401
#     4   9  20  41  67  99 137 169 234 278 344 422
#
# _framework density 22.103936000000001
#
# number of rings (size 3 to 8) (size 9 to 14) (size 15 to 20)
#    0.000    2.000    1.538    2.769    4.308    2.462 
#    0.000    8.462    0.000    3.692    0.000    0.000 
#    0.000    0.000    0.000    0.000    0.000    0.000 
#
# Total GULP energy -144767.656674 kJ/mol
# GULP energy per Si atom -5567.986795 kJ/mol
# Density = 2.205363 g / cm^3
# Si number density = 22.103936 Si / 1000 Ang^3
#
#
#
# Elastic Constant Matrix: (Units=GPa)
#
#
# Indices 1 2 3 4 5 6 
#
# 1 68.5351 8.2047 14.6502 0.0000 0.0000 0.0000
# 2 8.2047 118.6180 42.5240 0.0000 0.0000 0.0000
# 3 14.6502 42.5240 125.7009 0.0000 0.0000 0.0000
# 4 0.0000 0.0000 0.0000 13.0355 0.0000 0.0000
# 5 0.0000 0.0000 0.0000 0.0000 -22.2185 0.0000
# 6 0.0000 0.0000 0.0000 0.0000 0.0000 24.0211
#
#
#
# Elastic Compliance Matrix: (Units=1/GPa)
#
#
# Indices 1 2 3 4 5 6 
#
# 1 0.014987 -0.000467 -0.001589 0.000000 0.000000 0.000000
# 2 -0.000467 0.009609 -0.003196 0.000000 0.000000 0.000000
# 3 -0.001589 -0.003196 0.009222 0.000000 0.000000 0.000000
# 4 0.000000 0.000000 0.000000 0.076713 0.000000 0.000000
# 5 0.000000 0.000000 0.000000 0.000000 -0.045007 0.000000
# 6 0.000000 0.000000 0.000000 0.000000 0.000000 0.041630
#
#
# Mechanical properties :
#
#
# Convention : Reuss Voigt Hill
#
# Bulk Modulus (GPa) = 42.89409 49.29018 46.09214
# Shear Modulus (GPa) = 39.86369 19.46597 29.66483
#
# Velocity S-wave (km/s) = 4.25133 2.97080 3.66739
# Velocity P-wave (km/s) = 6.59895 5.84083 6.23143
#
# Compressibility (1/GPa) = 0.02331324
#
# Stress axis : x y z
#
# Youngs Moduli (GPa) = 66.72646 104.07440 108.43916
#
# Poissons Ratio (x) = 0.04861 0.17227
# Poissons Ratio (y) = 0.03117 0.34658
# Poissons Ratio (z) = 0.10600 0.33263
#
# Static dielectric constant tensor:
#      x y z
#    x 1.972460 0.000000 0.000000 
#    y 0.000000 7.884650 0.000000 
#    z 0.000000 0.000000 1.883240 
# 
# From -- ./inp_files/17652.got.cif
#   From: 2010.05.17/outbox.cif.g08.bks.cpg/sg21_9_cif.got.tgz:17652.got - 2010.06.03 23:14:55.
