data_PCOD9323506
_publ_section_title
;
Structure prediction by ZEFSAII (Michael W. Deem and Ramdas Pophale) SiO2 
 PCOD9323506
Probable space group: C 2 2 2
;
_chemical_formula_sum "Si O2"
_cell_formula_units_Z 64
_cell_length_a 16.489282
_cell_length_b 7.688344
_cell_length_c 24.017429
_cell_angle_alpha 90.000000
_cell_angle_beta 90.000000
_cell_angle_gamma 90.000000
_cell_volume 3044.816102
_symmetry_space_group_name_H-M "C 2 2 2"
_symmetry_group_IT_number 21
_symmetry_cell_setting 'orthorhombic'
loop_
_space_group_symop_operation_xyz
x,y,z
-x,-y,z
x,-y,-z
-x,y,-z
1/2+x,1/2+y,z
1/2-x,1/2-y,z
1/2+x,1/2-y,-z
1/2-x,1/2+y,-z
loop_
_atom_site_type_symbol
_atom_site_label
_atom_site_fract_x
_atom_site_fract_y
_atom_site_fract_z
Si Si1 0.404668 0.001193 0.356063
Si Si2 0.491394 0.207953 0.065572
Si Si3 0.404079 0.049018 0.770543
Si Si4 0.920139 0.897814 0.832723
Si Si5 0.654958 0.297540 0.563966
Si Si6 0.154598 0.207702 0.560940
Si Si7 0.321149 0.862389 0.955636
Si Si8 0.255189 0.960508 0.152129
O O1 0.380008 0.175007 0.388602
O O2 0.500000 0.000000 0.351833
O O3 0.376657 0.988371 0.292360
O O4 0.379614 0.836286 0.393091
O O5 0.552283 0.306636 0.107807
O O6 0.395241 0.242327 0.072009
O O7 0.500000 0.000000 0.075821
O O8 0.500000 0.250692 0.000000
O O9 0.405211 0.250814 0.786859
O O10 0.330820 0.979422 0.809618
O O11 0.500000 0.000000 0.779776
O O12 0.837542 0.008349 0.834052
O O13 0.000000 0.000000 0.816361
O O14 0.750000 0.250000 0.562132
O O15 0.643986 0.503309 0.573566
O O16 0.621774 0.258366 0.501685
O O17 0.250000 0.250000 0.558615
O O18 0.250000 0.750000 0.983197
O O19 0.276925 0.969000 0.907976
O O20 0.355618 0.000000 0.000000
O O21 0.250000 0.750000 0.151453
#
# Coordination Sequence:
#
# PCOD9323506 Si02
#       8
#     8   8   8   8   8   8   8   8
#     4  11  24  42  63 100 137 180 229 293 345 401
#     4  11  22  39  62  87 119 164 201 246 328 405
#     4  10  23  45  67  85 128 177 224 272 332 400
#     4  11  23  42  65  94 125 159 212 275 337 399
#     4  10  20  39  64 103 132 187 229 278 347 412
#     4  10  20  37  69  95 141 179 231 284 342 410
#     4  12  24  37  59  89 121 156 200 252 308 383
#     4  10  22  41  67  89 121 165 210 263 328 391
#
# _framework density 21.019331000000001
#
# number of rings (size 3 to 8) (size 9 to 14) (size 15 to 20)
#    0.000    1.375    2.500    4.125    1.750    3.250 
#    4.500    1.875    0.000    0.000    0.000    0.000 
#    0.000    0.000    0.000    0.000    0.000    0.000 
#
# Total GULP energy -178538.244982 kJ/mol
# GULP energy per Si atom -5579.320156 kJ/mol
# Density = 2.097149 g / cm^3
# Si number density = 21.019331 Si / 1000 Ang^3
#
#
#
# Elastic Constant Matrix: (Units=GPa)
#
#
# Indices 1 2 3 4 5 6 
#
# 1 99.4569 13.9091 23.4367 0.0000 0.0000 0.0000
# 2 13.9091 69.0766 47.3022 0.0000 0.0000 0.0000
# 3 23.4367 47.3022 102.6557 0.0000 0.0000 0.0000
# 4 0.0000 0.0000 0.0000 20.7854 0.0000 0.0000
# 5 0.0000 0.0000 0.0000 0.0000 34.4190 0.0000
# 6 0.0000 0.0000 0.0000 0.0000 0.0000 30.8654
#
#
#
# Elastic Compliance Matrix: (Units=1/GPa)
#
#
# Indices 1 2 3 4 5 6 
#
# 1 0.010649 -0.000700 -0.002109 0.000000 0.000000 0.000000
# 2 -0.000700 0.021196 -0.009607 0.000000 0.000000 0.000000
# 3 -0.002109 -0.009607 0.014649 0.000000 0.000000 0.000000
# 4 0.000000 0.000000 0.000000 0.048111 0.000000 0.000000
# 5 0.000000 0.000000 0.000000 0.000000 0.029054 0.000000
# 6 0.000000 0.000000 0.000000 0.000000 0.000000 0.032399
#
#
# Mechanical properties :
#
#
# Convention : Reuss Voigt Hill
#
# Bulk Modulus (GPa) = 46.16123 48.94279 47.55201
# Shear Modulus (GPa) = 26.57993 29.65004 28.11499
#
# Velocity S-wave (km/s) = 3.55990 3.75988 3.66126
# Velocity P-wave (km/s) = 6.23749 6.49493 6.36751
#
# Compressibility (1/GPa) = 0.02166320
#
# Stress axis : x y z
#
# Youngs Moduli (GPa) = 93.90169 47.17769 68.26175
#
# Poissons Ratio (x) = 0.03305 0.14393
# Poissons Ratio (y) = 0.06577 0.65580
# Poissons Ratio (z) = 0.19800 0.45324
#
# Static dielectric constant tensor:
#      x y z
#    x 1.827610 0.000000 0.000000 
#    y 0.000000 1.777190 0.000000 
#    z 0.000000 0.000000 1.778850 
# 
# From -- ./inp_files/38745.got.cif
#   From: 2010.05.17/outbox.cif.g08.bks.cpg/sg21_20_cif.got.tgz:38745.got - 2010.06.03 23:14:55.
