data_PCOD9323141
_publ_section_title
;
Structure prediction by ZEFSAII (Michael W. Deem and Ramdas Pophale) SiO2 
 PCOD9323141
Probable space group: C 2 2 2
;
_chemical_formula_sum "Si O2"
_cell_formula_units_Z 48
_cell_length_a 32.893791
_cell_length_b 5.215889
_cell_length_c 14.626770
_cell_angle_alpha 90.000000
_cell_angle_beta 90.000000
_cell_angle_gamma 90.000000
_cell_volume 2509.520233
_symmetry_space_group_name_H-M "C 2 2 2"
_symmetry_group_IT_number 21
_symmetry_cell_setting 'orthorhombic'
loop_
_space_group_symop_operation_xyz
x,y,z
-x,-y,z
x,-y,-z
-x,y,-z
1/2+x,1/2+y,z
1/2-x,1/2-y,z
1/2+x,1/2-y,-z
1/2-x,1/2+y,-z
loop_
_atom_site_type_symbol
_atom_site_label
_atom_site_fract_x
_atom_site_fract_y
_atom_site_fract_z
Si Si1 0.221800 0.497082 0.604065
Si Si2 0.518706 0.748506 0.399130
Si Si3 0.594932 0.532499 0.333630
Si Si4 0.452000 0.445545 0.142504
Si Si5 0.859619 0.467754 0.290270
Si Si6 0.596033 0.936746 0.902608
O O1 0.203936 0.500000 0.500000
O O2 0.250000 0.250000 0.606575
O O3 0.186787 0.451421 0.678685
O O4 0.250000 0.750000 0.617112
O O5 0.500000 0.500000 0.354044
O O6 0.500000 0.757277 0.500000
O O7 0.565949 0.681042 0.405614
O O8 0.500000 0.000000 0.351728
O O9 0.566398 0.524559 0.244293
O O10 0.613750 0.249773 0.344628
O O11 0.629260 0.740215 0.314233
O O12 0.500000 0.500000 0.135045
O O13 0.427528 0.668267 0.090241
O O14 0.437454 0.160348 0.115244
O O15 0.873340 0.430334 0.184267
O O16 0.616153 0.000000 0.000000
#
# Coordination Sequence:
#
# PCOD9323141 Si02
#       6
#     8   8   8   8   8   8
#     4  10  21  40  65  89 114 141 174 220 277 338
#     4  10  20  34  48  67 101 147 194 236 276 321
#     4  10  20  35  53  75 110 146 190 233 277 326
#     4  10  20  32  51  74 105 148 193 240 277 316
#     4  10  21  38  58  84 110 143 180 225 278 338
#     4  10  21  35  53  79 110 145 184 231 283 325
#
# _framework density 19.127162999999999
#
# number of rings (size 3 to 8) (size 9 to 14) (size 15 to 20)
#    0.000    2.000    0.000    3.500    0.000    4.667 
#    9.000    0.000    0.000    1.000    0.000    0.000 
#    0.000    0.000    0.000    0.000    0.000    0.000 
#
# Total GULP energy -133625.947834 kJ/mol
# GULP energy per Si atom -5567.747826 kJ/mol
# Density = 1.908363 g / cm^3
# Si number density = 19.127163 Si / 1000 Ang^3
#
#
#
# Elastic Constant Matrix: (Units=GPa)
#
#
# Indices 1 2 3 4 5 6 
#
# 1 79.2626 23.7171 44.8078 0.0000 0.0000 0.0000
# 2 23.7171 141.9053 18.2596 0.0000 0.0000 0.0000
# 3 44.8078 18.2596 65.4604 0.0000 0.0000 0.0000
# 4 0.0000 0.0000 0.0000 10.1907 0.0000 0.0000
# 5 0.0000 0.0000 0.0000 0.0000 12.2456 0.0000
# 6 0.0000 0.0000 0.0000 0.0000 0.0000 23.7217
#
#
#
# Elastic Compliance Matrix: (Units=1/GPa)
#
#
# Indices 1 2 3 4 5 6 
#
# 1 0.020977 -0.001720 -0.013879 0.000000 0.000000 0.000000
# 2 -0.001720 0.007450 -0.000901 0.000000 0.000000 0.000000
# 3 -0.013879 -0.000901 0.025028 0.000000 0.000000 0.000000
# 4 0.000000 0.000000 0.000000 0.098129 0.000000 0.000000
# 5 0.000000 0.000000 0.000000 0.000000 0.081662 0.000000
# 6 0.000000 0.000000 0.000000 0.000000 0.000000 0.042155
#
#
# Mechanical properties :
#
#
# Convention : Reuss Voigt Hill
#
# Bulk Modulus (GPa) = 48.88675 51.13304 50.00989
# Shear Modulus (GPa) = 15.86197 22.55452 19.20825
#
# Velocity S-wave (km/s) = 2.88286 3.43766 3.17241
# Velocity P-wave (km/s) = 6.05768 6.52287 6.29458
#
# Compressibility (1/GPa) = 0.02045544
#
# Stress axis : x y z
#
# Youngs Moduli (GPa) = 47.67170 134.22201 39.95551
#
# Poissons Ratio (x) = 0.23087 0.55454
# Poissons Ratio (y) = 0.08200 0.03599
# Poissons Ratio (z) = 0.66163 0.12091
#
# Static dielectric constant tensor:
#      x y z
#    x 1.661730 0.000000 0.000000 
#    y 0.000000 1.747020 0.000000 
#    z 0.000000 0.000000 1.726250 
# 
# From -- ./inp_files/29378.got.cif
#   From: 2010.05.17/outbox.cif.g08.bks.cpg/sg21_15_cif.got.tgz:29378.got - 2010.06.03 23:14:55.
