data_PCOD9323406
_publ_section_title
;
Structure prediction by ZEFSAII (Michael W. Deem and Ramdas Pophale) SiO2 
 PCOD9323406
Probable space group: C 2 2 2
;
_chemical_formula_sum "Si O2"
_cell_formula_units_Z 48
_cell_length_a 9.107724
_cell_length_b 27.346164
_cell_length_c 10.555164
_cell_angle_alpha 90.000000
_cell_angle_beta 90.000000
_cell_angle_gamma 90.000000
_cell_volume 2628.883017
_symmetry_space_group_name_H-M "C 2 2 2"
_symmetry_group_IT_number 21
_symmetry_cell_setting 'orthorhombic'
loop_
_space_group_symop_operation_xyz
x,y,z
-x,-y,z
x,-y,-z
-x,y,-z
1/2+x,1/2+y,z
1/2-x,1/2-y,z
1/2+x,1/2-y,-z
1/2-x,1/2+y,-z
loop_
_atom_site_type_symbol
_atom_site_label
_atom_site_fract_x
_atom_site_fract_y
_atom_site_fract_z
Si Si1 0.253872 0.442296 0.844143
Si Si2 0.474763 0.250717 0.853011
Si Si3 0.000000 0.500000 0.000000
Si Si4 0.822141 0.842993 0.499469
Si Si5 0.500000 0.500000 0.000000
Si Si6 0.173352 0.051525 0.541975
Si Si7 0.238678 0.168324 0.793230
Si Si8 0.750000 0.750000 0.329643
O O1 0.393165 0.466159 0.915454
O O2 0.291607 0.446679 0.692815
O O3 0.240226 0.383718 0.859793
O O4 0.109948 0.468582 0.907060
O O5 0.362762 0.207879 0.819191
O O6 0.409753 0.304808 0.834391
O O7 0.611596 0.245726 0.761575
O O8 0.500000 0.244661 0.000000
O O9 0.773986 0.898964 0.471381
O O10 0.770308 0.836532 0.642688
O O11 0.764471 0.798818 0.414376
O O12 0.000000 0.840869 0.500000
O O13 0.000000 0.050362 0.500000
O O14 0.239086 0.000000 0.500000
#
# Coordination Sequence:
#
# PCOD9323406 Si02
#       8
#     8   8   2   8   2   8   8   4
#     4  10  22  41  65  94 125 170 209 262 312 376
#     4  11  24  41  57  90 125 162 205 256 304 374
#     4  10  24  46  62  92 136 174 212 252 316 388
#     4  10  20  36  62  91 120 159 203 258 312 366
#     4  10  20  38  66  96 116 166 228 252 296 368
#     4   9  18  37  62  93 124 155 205 265 316 363
#     4  10  22  41  61  84 128 161 202 256 314 364
#     4  12  22  38  64  92 120 162 212 254 314 380
#
# _framework density 18.258704000000002
#
# number of rings (size 3 to 8) (size 9 to 14) (size 15 to 20)
#    0.000    1.833    1.667    3.000    2.333    0.000 
#    3.000    0.417    0.000    0.000    0.000    0.000 
#    0.000    0.000    0.000    0.000    0.000    0.000 
#
# Total GULP energy -133640.246656 kJ/mol
# GULP energy per Si atom -5568.343611 kJ/mol
# Density = 1.821715 g / cm^3
# Si number density = 18.258704 Si / 1000 Ang^3
#
#
#
# Elastic Constant Matrix: (Units=GPa)
#
#
# Indices 1 2 3 4 5 6 
#
# 1 83.2931 60.0098 42.1771 0.0000 0.0000 0.0000
# 2 60.0098 187.3400 72.1105 0.0000 0.0000 0.0000
# 3 42.1771 72.1105 99.1036 0.0000 0.0000 0.0000
# 4 0.0000 0.0000 0.0000 26.8405 0.0000 0.0000
# 5 0.0000 0.0000 0.0000 0.0000 40.3380 0.0000
# 6 0.0000 0.0000 0.0000 0.0000 0.0000 16.4913
#
#
#
# Elastic Compliance Matrix: (Units=1/GPa)
#
#
# Indices 1 2 3 4 5 6 
#
# 1 0.016958 -0.003687 -0.004535 0.000000 0.000000 0.000000
# 2 -0.003687 0.008216 -0.004409 0.000000 0.000000 0.000000
# 3 -0.004535 -0.004409 0.015229 0.000000 0.000000 0.000000
# 4 0.000000 0.000000 0.000000 0.037257 0.000000 0.000000
# 5 0.000000 0.000000 0.000000 0.000000 0.024791 0.000000
# 6 0.000000 0.000000 0.000000 0.000000 0.000000 0.060638
#
#
# Mechanical properties :
#
#
# Convention : Reuss Voigt Hill
#
# Bulk Modulus (GPa) = 66.04266 79.81460 72.92863
# Shear Modulus (GPa) = 25.85360 29.76324 27.80842
#
# Velocity S-wave (km/s) = 3.76701 4.04181 3.90683
# Velocity P-wave (km/s) = 7.42762 8.09875 7.77043
#
# Compressibility (1/GPa) = 0.01514173
#
# Stress axis : x y z
#
# Youngs Moduli (GPa) = 58.96883 121.71382 65.66609
#
# Poissons Ratio (x) = 0.44872 0.29777
# Poissons Ratio (y) = 0.21740 0.28953
# Poissons Ratio (z) = 0.26740 0.53666
#
# Static dielectric constant tensor:
#      x y z
#    x 1.643420 0.000000 0.000000 
#    y 0.000000 1.658650 0.000000 
#    z 0.000000 0.000000 1.583080 
# 
# From -- ./inp_files/11610.got.cif
#   From: 2010.05.17/outbox.cif.g08.bks.cpg/sg21_6_cif.got.tgz:11610.got - 2010.06.03 23:14:55.
