data_PCOD9323411
_publ_section_title
;
Structure prediction by ZEFSAII (Michael W. Deem and Ramdas Pophale) SiO2 
 PCOD9323411
Probable space group: C 2 2 2
;
_chemical_formula_sum "Si O2"
_cell_formula_units_Z 38
_cell_length_a 27.297354
_cell_length_b 6.100025
_cell_length_c 11.425699
_cell_angle_alpha 90.000000
_cell_angle_beta 90.000000
_cell_angle_gamma 90.000000
_cell_volume 1902.545034
_symmetry_space_group_name_H-M "C 2 2 2"
_symmetry_group_IT_number 21
_symmetry_cell_setting 'orthorhombic'
loop_
_space_group_symop_operation_xyz
x,y,z
-x,-y,z
x,-y,-z
-x,y,-z
1/2+x,1/2+y,z
1/2-x,1/2-y,z
1/2+x,1/2-y,-z
1/2-x,1/2+y,-z
loop_
_atom_site_type_symbol
_atom_site_label
_atom_site_fract_x
_atom_site_fract_y
_atom_site_fract_z
Si Si1 0.619043 0.819018 0.306366
Si Si2 0.794229 0.615578 0.620517
Si Si3 0.000000 0.000000 0.500000
Si Si4 0.440147 0.510252 0.862590
Si Si5 0.855598 0.000000 0.500000
Si Si6 0.955382 0.663044 0.685010
O O1 0.590636 0.712409 0.194208
O O2 0.617398 0.623097 0.397442
O O3 0.673178 0.936135 0.307250
O O4 0.585305 0.003111 0.362196
O O5 0.775391 0.500000 0.500000
O O6 0.750000 0.750000 0.681944
O O7 0.826957 0.810219 0.568526
O O8 0.027257 0.835978 0.410898
O O9 0.500000 0.500000 0.847281
O O10 0.429072 0.287882 0.792348
O O11 0.430271 0.500000 0.000000
O O12 0.000000 0.500000 0.720195
#
# Coordination Sequence:
#
# PCOD9323411 Si02
#       6
#     8   8   2   8   4   8
#     4  11  24  39  61  93 130 174 212 264 327 385
#     4  10  20  36  62  93 135 169 205 256 325 400
#     4  12  26  38  54  82 132 172 214 242 310 390
#     4  11  24  45  62  85 125 173 231 281 317 373
#     4  10  22  39  61  92 138 156 205 252 325 400
#     4  12  24  41  58  88 125 175 216 257 318 379
#
# _framework density 19.973246
#
# number of rings (size 3 to 8) (size 9 to 14) (size 15 to 20)
#    0.000    1.053    4.211    1.579    0.000   16.842 
#    0.000    0.000    0.000    0.000    0.000    0.000 
#   88.421    0.000    0.000    0.000    0.000    0.000 
#
# Total GULP energy -105827.632557 kJ/mol
# GULP energy per Si atom -5569.875398 kJ/mol
# Density = 1.992779 g / cm^3
# Si number density = 19.973246 Si / 1000 Ang^3
#
#
#
# Elastic Constant Matrix: (Units=GPa)
#
#
# Indices 1 2 3 4 5 6 
#
# 1 85.6582 46.2891 39.8404 0.0000 0.0000 0.0000
# 2 46.2891 134.8403 58.7729 0.0000 0.0000 0.0000
# 3 39.8404 58.7729 124.5463 0.0000 0.0000 0.0000
# 4 0.0000 0.0000 0.0000 15.8902 0.0000 0.0000
# 5 0.0000 0.0000 0.0000 0.0000 11.6242 0.0000
# 6 0.0000 0.0000 0.0000 0.0000 0.0000 56.8869
#
#
#
# Elastic Compliance Matrix: (Units=1/GPa)
#
#
# Indices 1 2 3 4 5 6 
#
# 1 0.015184 -0.003897 -0.003018 0.000000 0.000000 0.000000
# 2 -0.003897 0.010337 -0.003631 0.000000 0.000000 0.000000
# 3 -0.003018 -0.003631 0.010708 0.000000 0.000000 0.000000
# 4 0.000000 0.000000 0.000000 0.062932 0.000000 0.000000
# 5 0.000000 0.000000 0.000000 0.000000 0.086027 0.000000
# 6 0.000000 0.000000 0.000000 0.000000 0.000000 0.017579
#
#
# Mechanical properties :
#
#
# Convention : Reuss Voigt Hill
#
# Bulk Modulus (GPa) = 66.06724 70.53885 68.30304
# Shear Modulus (GPa) = 21.84311 30.22308 26.03309
#
# Velocity S-wave (km/s) = 3.31058 3.89418 3.61418
# Velocity P-wave (km/s) = 6.91107 7.45740 7.18943
#
# Compressibility (1/GPa) = 0.01513610
#
# Stress axis : x y z
#
# Youngs Moduli (GPa) = 65.85895 96.74239 93.38641
#
# Poissons Ratio (x) = 0.37700 0.28186
# Poissons Ratio (y) = 0.25665 0.33911
# Poissons Ratio (z) = 0.19877 0.35130
#
# Static dielectric constant tensor:
#      x y z
#    x 1.864460 0.000000 0.000000 
#    y 0.000000 1.810360 0.000000 
#    z 0.000000 0.000000 1.675190 
# 
# From -- ./inp_files/21224.got.cif
#   From: 2010.05.17/outbox.cif.g08.bks.cpg/sg21_11_cif.got.tgz:21224.got - 2010.06.03 23:14:55.
