data_PCOD9323350
_publ_section_title
;
Structure prediction by ZEFSAII (Michael W. Deem and Ramdas Pophale) SiO2 
 PCOD9323350
Probable space group: C 2 2 2
;
_chemical_formula_sum "Si O2"
_cell_formula_units_Z 64
_cell_length_a 8.598637
_cell_length_b 16.622030
_cell_length_c 22.530362
_cell_angle_alpha 90.000000
_cell_angle_beta 90.000000
_cell_angle_gamma 90.000000
_cell_volume 3220.192592
_symmetry_space_group_name_H-M "C 2 2 2"
_symmetry_group_IT_number 21
_symmetry_cell_setting 'orthorhombic'
loop_
_space_group_symop_operation_xyz
x,y,z
-x,-y,z
x,-y,-z
-x,y,-z
1/2+x,1/2+y,z
1/2-x,1/2-y,z
1/2+x,1/2-y,-z
1/2-x,1/2+y,-z
loop_
_atom_site_type_symbol
_atom_site_label
_atom_site_fract_x
_atom_site_fract_y
_atom_site_fract_z
Si Si1 0.810601 0.000000 0.931186
Si Si2 0.188368 0.163608 0.864076
Si Si3 0.689754 0.093018 0.500000
Si Si4 0.314858 0.837700 0.625376
Si Si5 0.811632 0.163608 0.864076
Si Si6 0.814858 0.662300 0.625376
Si Si7 0.183747 0.092341 0.742036
Si Si8 0.183746 0.092341 0.257964
O O1 0.761044 0.083760 0.900182
O O2 0.761044 0.916240 0.900182
O O3 0.000000 0.000000 0.928043
O O4 0.765020 0.000000 0.000000
O O5 0.250000 0.250000 0.885256
O O6 0.238791 0.148616 0.795713
O O7 0.000000 0.165173 0.865259
O O8 0.500000 0.095830 0.500000
O O9 0.744172 0.133859 0.560864
O O10 0.744172 0.133859 0.439136
O O11 0.735270 0.000000 0.500000
O O12 0.250000 0.750000 0.638639
O O13 0.500000 0.835167 0.622458
O O14 0.265630 0.893882 0.679585
O O15 0.750000 0.250000 0.885256
O O16 0.761210 0.148616 0.795713
O O17 0.750000 0.750000 0.638639
O O18 0.765631 0.606118 0.679585
O O19 0.000000 0.106726 0.733263
O O20 0.202298 1.000000 0.761678
#
# Coordination Sequence:
#
# PCOD9323350 Si02
#       8
#     8   8   8   8   8   8   8   8
#     4   9  18  36  61  85 113 154 197 230 274 341
#     4  10  20  36  58  85 116 152 191 235 284 336
#     4   9  19  36  55  75 102 137 178 227 280 334
#     4  11  22  36  55  79 108 143 183 228 279 335
#     4  10  20  36  58  85 116 152 191 235 284 336
#     4  11  22  36  55  79 108 143 183 228 279 335
#     4  10  20  36  57  81 112 147 185 231 283 338
#     4  10  20  36  57  81 112 147 185 231 283 338
#
# _framework density 19.874587999999999
#
# number of rings (size 3 to 8) (size 9 to 14) (size 15 to 20)
#    0.000    2.000    1.250    2.625    0.000    5.000 
#    0.000    2.500    0.000    5.250    0.000    0.000 
#    0.000    0.000    0.000    0.000    0.000    0.000 
#
# Total GULP energy -178627.353666 kJ/mol
# GULP energy per Si atom -5582.104802 kJ/mol
# Density = 1.982935 g / cm^3
# Si number density = 19.874588 Si / 1000 Ang^3
#
#
#
# Elastic Constant Matrix: (Units=GPa)
#
#
# Indices 1 2 3 4 5 6 
#
# 1 12.9403 22.8422 19.7493 0.0000 0.0000 0.0000
# 2 22.8422 101.3627 46.8443 0.0000 0.0000 0.0000
# 3 19.7493 46.8443 116.0126 0.0000 0.0000 0.0000
# 4 0.0000 0.0000 0.0000 20.8154 0.0000 0.0000
# 5 0.0000 0.0000 0.0000 0.0000 12.3077 0.0000
# 6 0.0000 0.0000 0.0000 0.0000 0.0000 22.7298
#
#
#
# Elastic Compliance Matrix: (Units=1/GPa)
#
#
# Indices 1 2 3 4 5 6 
#
# 1 0.144986 -0.026145 -0.014124 0.000000 0.000000 0.000000
# 2 -0.026145 0.016844 -0.002350 0.000000 0.000000 0.000000
# 3 -0.014124 -0.002350 0.011973 0.000000 0.000000 0.000000
# 4 0.000000 0.000000 0.000000 0.048041 0.000000 0.000000
# 5 0.000000 0.000000 0.000000 0.000000 0.081250 0.000000
# 6 0.000000 0.000000 0.000000 0.000000 0.000000 0.043995
#
#
# Mechanical properties :
#
#
# Convention : Reuss Voigt Hill
#
# Bulk Modulus (GPa) = 11.29145 45.46523 28.37834
# Shear Modulus (GPa) = 10.82602 20.56257 15.69430
#
# Velocity S-wave (km/s) = 2.33645 3.22003 2.81315
# Velocity P-wave (km/s) = 3.60171 6.06222 4.98613
#
# Compressibility (1/GPa) = 0.08856257
#
# Stress axis : x y z
#
# Youngs Moduli (GPa) = 6.89723 59.36961 83.51922
#
# Poissons Ratio (x) = 1.55223 1.17966
# Poissons Ratio (y) = 0.18033 0.19631
# Poissons Ratio (z) = 0.09742 0.13954
#
# Static dielectric constant tensor:
#      x y z
#    x 1.688430 0.000000 0.000000 
#    y 0.000000 1.703260 0.000000 
#    z 0.000000 0.000000 1.722130 
# 
# From -- ./inp_files/38544.got.cif
#   From: 2010.05.17/outbox.cif.g08.bks.cpg/sg21_20_cif.got.tgz:38544.got - 2010.06.03 23:14:55.
