data_PCOD9323835
_publ_section_title
;
Structure prediction by ZEFSAII (Michael W. Deem and Ramdas Pophale) SiO2 
 PCOD9323835
Probable space group: C 2 2 2
;
_chemical_formula_sum "Si O2"
_cell_formula_units_Z 48
_cell_length_a 23.947931
_cell_length_b 8.097552
_cell_length_c 11.673045
_cell_angle_alpha 90.000000
_cell_angle_beta 90.000000
_cell_angle_gamma 90.000000
_cell_volume 2263.632411
_symmetry_space_group_name_H-M "C 2 2 2"
_symmetry_group_IT_number 21
_symmetry_cell_setting 'orthorhombic'
loop_
_space_group_symop_operation_xyz
x,y,z
-x,-y,z
x,-y,-z
-x,y,-z
1/2+x,1/2+y,z
1/2-x,1/2-y,z
1/2+x,1/2-y,-z
1/2-x,1/2+y,-z
loop_
_atom_site_type_symbol
_atom_site_label
_atom_site_fract_x
_atom_site_fract_y
_atom_site_fract_z
Si Si1 0.913674 0.477745 0.129470
Si Si2 0.595025 0.283426 0.707182
Si Si3 0.523075 0.176374 0.340160
Si Si4 0.627909 0.390595 0.385003
Si Si5 0.197127 0.337365 0.778463
Si Si6 0.702083 0.883249 0.391601
O O1 0.907094 0.660379 0.184742
O O2 0.953827 0.373470 0.213779
O O3 0.854668 0.381864 0.140678
O O4 0.931880 0.500000 0.000000
O O5 0.531794 0.287436 0.662209
O O6 0.614403 0.471713 0.711909
O O7 0.640709 0.192644 0.627149
O O8 0.574346 0.270106 0.399830
O O9 0.500000 0.000000 0.383891
O O10 0.639303 0.500000 0.500000
O O11 0.675497 0.276872 0.328328
O O12 0.250000 0.250000 0.833888
O O13 0.215088 0.508266 0.719905
O O14 0.750000 0.750000 0.406063
O O15 0.701097 0.000000 0.500000
#
# Coordination Sequence:
#
# PCOD9323835 Si02
#       6
#     8   8   8   8   8   8
#     4   9  20  41  64  85 118 162 204 254 313 361
#     4  10  21  35  57  90 118 151 203 251 298 361
#     4   9  20  38  59  86 119 154 198 249 303 367
#     4  11  22  39  60  87 125 164 198 246 305 366
#     4  10  21  38  58  86 122 157 202 255 303 362
#     4  11  22  37  58  86 120 163 206 246 300 365
#
# _framework density 21.204855999999999
#
# number of rings (size 3 to 8) (size 9 to 14) (size 15 to 20)
#    0.000    2.000    0.000    4.000    0.000    5.667 
#    0.000   12.500    0.000    8.000    0.000    0.000 
#    0.000    0.000    0.000    0.000    0.000    0.000 
#
# Total GULP energy -133992.140085 kJ/mol
# GULP energy per Si atom -5583.005837 kJ/mol
# Density = 2.115659 g / cm^3
# Si number density = 21.204856 Si / 1000 Ang^3
#
#
#
# Elastic Constant Matrix: (Units=GPa)
#
#
# Indices 1 2 3 4 5 6 
#
# 1 110.7036 23.9606 23.1255 0.0000 0.0000 0.0000
# 2 23.9606 98.7116 18.1167 0.0000 0.0000 0.0000
# 3 23.1255 18.1167 100.2608 0.0000 0.0000 0.0000
# 4 0.0000 0.0000 0.0000 18.9283 0.0000 0.0000
# 5 0.0000 0.0000 0.0000 0.0000 129.2900 0.0000
# 6 0.0000 0.0000 0.0000 0.0000 0.0000 51.1729
#
#
#
# Elastic Compliance Matrix: (Units=1/GPa)
#
#
# Indices 1 2 3 4 5 6 
#
# 1 0.009875 -0.002047 -0.001908 0.000000 0.000000 0.000000
# 2 -0.002047 0.010902 -0.001498 0.000000 0.000000 0.000000
# 3 -0.001908 -0.001498 0.010685 0.000000 0.000000 0.000000
# 4 0.000000 0.000000 0.000000 0.052831 0.000000 0.000000
# 5 0.000000 0.000000 0.000000 0.000000 0.007735 0.000000
# 6 0.000000 0.000000 0.000000 0.000000 0.000000 0.019542
#
#
# Mechanical properties :
#
#
# Convention : Reuss Voigt Hill
#
# Bulk Modulus (GPa) = 48.64594 48.89797 48.77195
# Shear Modulus (GPa) = 38.66203 56.17645 47.41924
#
# Velocity S-wave (km/s) = 4.27460 5.15265 4.73402
# Velocity P-wave (km/s) = 6.88140 7.64915 7.27541
#
# Compressibility (1/GPa) = 0.02055670
#
# Stress axis : x y z
#
# Youngs Moduli (GPa) = 101.26932 91.72417 93.59193
#
# Poissons Ratio (x) = 0.18774 0.17855
# Poissons Ratio (y) = 0.20728 0.14019
# Poissons Ratio (z) = 0.19320 0.13739
#
# Static dielectric constant tensor:
#      x y z
#    x 1.790230 0.000000 0.000000 
#    y 0.000000 1.237670 0.000000 
#    z 0.000000 0.000000 1.772860 
# 
# From -- ./inp_files/27349.got.cif
#   From: 2010.05.17/outbox.cif.g08.bks.cpg/sg21_14_cif.got.tgz:27349.got - 2010.06.03 23:14:55.
