data_PCOD9323395
_publ_section_title
;
Structure prediction by ZEFSAII (Michael W. Deem and Ramdas Pophale) SiO2 
 PCOD9323395
Probable space group: C 2 2 2
;
_chemical_formula_sum "Si O2"
_cell_formula_units_Z 64
_cell_length_a 15.106771
_cell_length_b 21.625854
_cell_length_c 9.188631
_cell_angle_alpha 90.000000
_cell_angle_beta 90.000000
_cell_angle_gamma 90.000000
_cell_volume 3001.896565
_symmetry_space_group_name_H-M "C 2 2 2"
_symmetry_group_IT_number 21
_symmetry_cell_setting 'orthorhombic'
loop_
_space_group_symop_operation_xyz
x,y,z
-x,-y,z
x,-y,-z
-x,y,-z
1/2+x,1/2+y,z
1/2-x,1/2-y,z
1/2+x,1/2-y,-z
1/2-x,1/2+y,-z
loop_
_atom_site_type_symbol
_atom_site_label
_atom_site_fract_x
_atom_site_fract_y
_atom_site_fract_z
Si Si1 0.011782 0.266703 0.331759
Si Si2 0.304615 0.577394 0.800489
Si Si3 0.003592 0.397345 0.824200
Si Si4 0.013858 0.071744 0.347529
Si Si5 0.325993 0.699489 0.298142
Si Si6 0.688806 0.309876 0.628997
Si Si7 0.091902 0.121434 0.925597
Si Si8 0.638419 0.998429 0.824587
O O1 0.014885 0.330134 0.241166
O O2 0.922197 0.231073 0.294358
O O3 0.000000 0.284906 0.500000
O O4 0.093665 0.218463 0.319698
O O5 0.384178 0.577064 0.687812
O O6 0.267390 0.643983 0.748172
O O7 0.236124 0.521741 0.783685
O O8 0.356165 0.580801 0.954637
O O9 0.096662 0.431915 0.782580
O O10 0.929029 0.447175 0.777477
O O11 0.000000 0.393103 0.000000
O O12 0.000000 0.105527 0.500000
O O13 0.950761 0.090018 0.215992
O O14 0.000000 0.000000 0.362762
O O15 0.250000 0.750000 0.288207
O O16 0.315746 0.668188 0.458580
O O17 0.330523 0.660921 0.149348
O O18 0.750000 0.250000 0.620954
O O19 0.000000 0.147848 0.000000
O O20 0.637086 0.000000 0.000000
#
# Coordination Sequence:
#
# PCOD9323395 Si02
#       8
#     8   8   8   8   8   8   8   8
#     4  10  20  36  61  87 121 159 201 259 314 359
#     4  11  22  35  63  90 121 158 202 259 307 370
#     4   9  19  38  61  82 117 164 206 248 298 370
#     4  10  22  40  60  81 116 157 199 242 302 370
#     4  10  22  39  57  86 126 163 203 250 311 379
#     4  10  21  38  62  90 122 165 207 252 313 379
#     4  10  22  37  58  88 119 156 197 258 312 365
#     4   9  20  37  58  85 120 160 204 247 308 358
#
# _framework density 21.319855
#
# number of rings (size 3 to 8) (size 9 to 14) (size 15 to 20)
#    0.000    2.125    0.000    3.750    1.750    6.750 
#    0.000    1.250    5.500    1.500    0.000    0.000 
#    0.000    0.000    0.000    0.000    0.000    0.000 
#
# Total GULP energy -178240.971684 kJ/mol
# GULP energy per Si atom -5570.030365 kJ/mol
# Density = 2.127133 g / cm^3
# Si number density = 21.319855 Si / 1000 Ang^3
#
#
#
# Elastic Constant Matrix: (Units=GPa)
#
#
# Indices 1 2 3 4 5 6 
#
# 1 95.2683 1.1037 24.7903 0.0000 0.0000 0.0000
# 2 1.1037 47.8208 19.6827 0.0000 0.0000 0.0000
# 3 24.7903 19.6827 84.6356 0.0000 0.0000 0.0000
# 4 0.0000 0.0000 0.0000 24.0878 0.0000 0.0000
# 5 0.0000 0.0000 0.0000 0.0000 35.1741 0.0000
# 6 0.0000 0.0000 0.0000 0.0000 0.0000 32.5959
#
#
#
# Elastic Compliance Matrix: (Units=1/GPa)
#
#
# Indices 1 2 3 4 5 6 
#
# 1 0.011428 0.001232 -0.003634 0.000000 0.000000 0.000000
# 2 0.001232 0.023258 -0.005770 0.000000 0.000000 0.000000
# 3 -0.003634 -0.005770 0.014221 0.000000 0.000000 0.000000
# 4 0.000000 0.000000 0.000000 0.041515 0.000000 0.000000
# 5 0.000000 0.000000 0.000000 0.000000 0.028430 0.000000
# 6 0.000000 0.000000 0.000000 0.000000 0.000000 0.030679
#
#
# Mechanical properties :
#
#
# Convention : Reuss Voigt Hill
#
# Bulk Modulus (GPa) = 30.70868 35.43093 33.06981
# Shear Modulus (GPa) = 28.29200 30.51477 29.40338
#
# Velocity S-wave (km/s) = 3.64679 3.78734 3.71773
# Velocity P-wave (km/s) = 5.67161 5.98164 5.82869
#
# Compressibility (1/GPa) = 0.03256409
#
# Stress axis : x y z
#
# Youngs Moduli (GPa) = 87.50462 42.99655 70.31612
#
# Poissons Ratio (x) = -0.05297 0.25552
# Poissons Ratio (y) = -0.10780 0.40570
# Poissons Ratio (z) = 0.31797 0.24807
#
# Static dielectric constant tensor:
#      x y z
#    x 1.689970 0.000000 0.000000 
#    y 0.000000 1.806210 0.000000 
#    z 0.000000 0.000000 1.865690 
# 
# From -- ./inp_files/15466.got.cif
#   From: 2010.05.17/outbox.cif.g08.bks.cpg/sg21_8_cif.got.tgz:15466.got - 2010.06.03 23:14:55.
