data_PCOD9323568
_publ_section_title
;
Structure prediction by ZEFSAII (Michael W. Deem and Ramdas Pophale) SiO2 
 PCOD9323568
Probable space group: C 2 2 2
;
_chemical_formula_sum "Si O2"
_cell_formula_units_Z 56
_cell_length_a 18.769641
_cell_length_b 8.974919
_cell_length_c 16.110235
_cell_angle_alpha 90.000000
_cell_angle_beta 90.000000
_cell_angle_gamma 90.000000
_cell_volume 2713.865870
_symmetry_space_group_name_H-M "C 2 2 2"
_symmetry_group_IT_number 21
_symmetry_cell_setting 'orthorhombic'
loop_
_space_group_symop_operation_xyz
x,y,z
-x,-y,z
x,-y,-z
-x,y,-z
1/2+x,1/2+y,z
1/2-x,1/2-y,z
1/2+x,1/2-y,-z
1/2-x,1/2+y,-z
loop_
_atom_site_type_symbol
_atom_site_label
_atom_site_fract_x
_atom_site_fract_y
_atom_site_fract_z
Si Si1 0.176169 0.661809 0.745940
Si Si2 0.310989 0.876358 0.160648
Si Si3 0.937195 0.155619 0.830072
Si Si4 0.170447 0.191959 0.421664
Si Si5 0.174008 0.836286 0.397373
Si Si6 0.500000 0.757703 0.000000
Si Si7 0.584498 0.336266 0.232665
Si Si8 0.873496 0.500000 0.000000
O O1 0.250000 0.750000 0.753885
O O2 0.195468 0.490850 0.762746
O O3 0.120449 0.717077 0.815157
O O4 0.143749 0.712639 0.656971
O O5 0.250000 0.750000 0.157968
O O6 0.384407 0.789405 0.173727
O O7 0.320767 0.972280 0.077586
O O8 0.979032 0.164309 0.917529
O O9 0.999898 0.174831 0.762747
O O10 0.900906 0.997938 0.808522
O O11 0.250000 0.250000 0.433197
O O12 0.138859 0.209028 0.513929
O O13 0.178942 0.016797 0.401428
O O14 0.250000 0.750000 0.387836
O O15 0.124014 0.811454 0.318867
O O16 0.570345 0.862658 0.996967
#
# Coordination Sequence:
#
# PCOD9323568 Si02
#       8
#     8   8   8   8   8   4   8   4
#     4  11  23  42  70 100 137 178 236 292 349 423
#     4  12  26  44  67 100 136 179 223 294 361 412
#     4  11  23  44  70  96 135 179 237 284 354 431
#     4   9  20  37  62 100 134 189 237 280 354 417
#     4  10  20  38  65  96 146 180 235 294 347 418
#     4  11  22  47  70  90 127 187 230 286 341 429
#     4  11  24  39  64 104 135 179 232 285 348 417
#     4  11  24  46  68  96 128 173 236 278 355 424
#
# _framework density 20.63477
#
# number of rings (size 3 to 8) (size 9 to 14) (size 15 to 20)
#    0.000    1.286    4.286    1.286    6.000    2.286 
#    2.571    0.714    0.000    0.000    0.000    2.000 
#    0.000    0.000    0.000    0.000    0.000    0.000 
#
# Total GULP energy -156030.569818 kJ/mol
# GULP energy per Si atom -5572.520351 kJ/mol
# Density = 2.058780 g / cm^3
# Si number density = 20.634770 Si / 1000 Ang^3
#
#
#
# Elastic Constant Matrix: (Units=GPa)
#
#
# Indices 1 2 3 4 5 6 
#
# 1 41.7716 29.5932 38.1138 0.0000 0.0000 0.0000
# 2 29.5932 104.3650 62.8877 0.0000 0.0000 0.0000
# 3 38.1138 62.8877 174.5715 0.0000 0.0000 0.0000
# 4 0.0000 0.0000 0.0000 47.1863 0.0000 0.0000
# 5 0.0000 0.0000 0.0000 0.0000 32.9228 0.0000
# 6 0.0000 0.0000 0.0000 0.0000 0.0000 32.9718
#
#
#
# Elastic Compliance Matrix: (Units=1/GPa)
#
#
# Indices 1 2 3 4 5 6 
#
# 1 0.032926 -0.006392 -0.004886 0.000000 0.000000 0.000000
# 2 -0.006392 0.013479 -0.003460 0.000000 0.000000 0.000000
# 3 -0.004886 -0.003460 0.008042 0.000000 0.000000 0.000000
# 4 0.000000 0.000000 0.000000 0.021193 0.000000 0.000000
# 5 0.000000 0.000000 0.000000 0.000000 0.030374 0.000000
# 6 0.000000 0.000000 0.000000 0.000000 0.000000 0.030329
#
#
# Mechanical properties :
#
#
# Convention : Reuss Voigt Hill
#
# Bulk Modulus (GPa) = 40.04738 64.65527 52.35132
# Shear Modulus (GPa) = 28.71198 35.29043 32.00120
#
# Velocity S-wave (km/s) = 3.73424 4.13999 3.94234
# Velocity P-wave (km/s) = 6.16787 7.36572 6.79325
#
# Compressibility (1/GPa) = 0.02497042
#
# Stress axis : x y z
#
# Youngs Moduli (GPa) = 30.37071 74.18761 124.35397
#
# Poissons Ratio (x) = 0.47423 0.60759
# Poissons Ratio (y) = 0.19414 0.43029
# Poissons Ratio (z) = 0.14839 0.25670
#
# Static dielectric constant tensor:
#      x y z
#    x 1.662870 0.000000 0.000000 
#    y 0.000000 1.757450 0.000000 
#    z 0.000000 0.000000 1.864530 
# 
# From -- ./inp_files/33332.got.cif
#   From: 2010.05.17/outbox.cif.g08.bks.cpg/sg21_17_cif.got.tgz:33332.got - 2010.06.03 23:14:55.
