data_PCOD9323039
_publ_section_title
;
Structure prediction by ZEFSAII (Michael W. Deem and Ramdas Pophale) SiO2 
 PCOD9323039
Probable space group: C 2 2 2
;
_chemical_formula_sum "Si O2"
_cell_formula_units_Z 46
_cell_length_a 29.759371
_cell_length_b 8.766757
_cell_length_c 8.726578
_cell_angle_alpha 90.000000
_cell_angle_beta 90.000000
_cell_angle_gamma 90.000000
_cell_volume 2276.704633
_symmetry_space_group_name_H-M "C 2 2 2"
_symmetry_group_IT_number 21
_symmetry_cell_setting 'orthorhombic'
loop_
_space_group_symop_operation_xyz
x,y,z
-x,-y,z
x,-y,-z
-x,y,-z
1/2+x,1/2+y,z
1/2-x,1/2-y,z
1/2+x,1/2-y,-z
1/2-x,1/2+y,-z
loop_
_atom_site_type_symbol
_atom_site_label
_atom_site_fract_x
_atom_site_fract_y
_atom_site_fract_z
Si Si1 0.500000 0.500000 0.500000
Si Si2 0.849812 0.621403 0.767824
Si Si3 0.328233 0.672050 0.497310
Si Si4 0.201972 0.313849 0.202829
Si Si5 0.927729 0.206318 0.646268
Si Si6 0.381996 0.322151 0.041209
Si Si7 0.914770 0.500000 0.500000
O O1 0.466090 0.588144 0.610617
O O2 0.826385 0.756011 0.670952
O O3 0.815324 0.488354 0.821152
O O4 0.882614 0.544941 0.642282
O O5 0.878843 0.704560 0.899446
O O6 0.310789 0.500000 0.500000
O O7 0.302880 0.780849 0.615984
O O8 0.380029 0.667452 0.561077
O O9 0.250000 0.250000 0.152501
O O10 0.166023 0.204641 0.121084
O O11 0.917054 0.221263 0.825569
O O12 0.942465 0.360586 0.563597
O O13 0.388020 0.500000 0.000000
#
# Coordination Sequence:
#
# PCOD9323039 Si02
#       7
#     2   8   8   8   8   8   4
#     4  12  24  42  74  98 148 166 216 296 340 418
#     4  11  19  39  67  92 128 179 227 287 333 404
#     4  10  19  38  63  91 126 175 235 273 335 409
#     4  11  23  38  57  95 135 177 237 290 341 390
#     4  10  22  40  65 101 126 174 217 271 343 408
#     4  11  24  40  65  96 134 184 227 272 351 413
#     4  10  20  39  74  95 122 172 237 270 314 425
#
# _framework density 20.204643000000001
#
# number of rings (size 3 to 8) (size 9 to 14) (size 15 to 20)
#    0.000    1.391    6.087    2.609    2.435    3.130 
#    0.000    3.043    0.000    0.000    4.522    0.000 
#    0.000    0.000    0.000    0.000    0.000    0.000 
#
# Total GULP energy -128265.974719 kJ/mol
# GULP energy per Si atom -5576.781510 kJ/mol
# Density = 2.015866 g / cm^3
# Si number density = 20.204643 Si / 1000 Ang^3
#
#
#
# Elastic Constant Matrix: (Units=GPa)
#
#
# Indices 1 2 3 4 5 6 
#
# 1 70.5034 24.2195 28.0295 0.0000 0.0000 0.0000
# 2 24.2195 131.3371 45.7238 0.0000 0.0000 0.0000
# 3 28.0295 45.7238 121.6093 0.0000 0.0000 0.0000
# 4 0.0000 0.0000 0.0000 35.0891 0.0000 0.0000
# 5 0.0000 0.0000 0.0000 0.0000 4.4396 0.0000
# 6 0.0000 0.0000 0.0000 0.0000 0.0000 13.2325
#
#
#
# Elastic Compliance Matrix: (Units=1/GPa)
#
#
# Indices 1 2 3 4 5 6 
#
# 1 0.016025 -0.001921 -0.002971 0.000000 0.000000 0.000000
# 2 -0.001921 0.008991 -0.002938 0.000000 0.000000 0.000000
# 3 -0.002971 -0.002938 0.010013 0.000000 0.000000 0.000000
# 4 0.000000 0.000000 0.000000 0.028499 0.000000 0.000000
# 5 0.000000 0.000000 0.000000 0.000000 0.225247 0.000000
# 6 0.000000 0.000000 0.000000 0.000000 0.000000 0.075571
#
#
# Mechanical properties :
#
#
# Convention : Reuss Voigt Hill
#
# Bulk Modulus (GPa) = 51.62999 57.71061 54.67030
# Shear Modulus (GPa) = 12.93792 25.58404 19.26098
#
# Velocity S-wave (km/s) = 2.53325 3.56230 3.09090
# Velocity P-wave (km/s) = 5.84512 6.74870 6.31310
#
# Compressibility (1/GPa) = 0.01936859
#
# Stress axis : x y z
#
# Youngs Moduli (GPa) = 62.40322 111.22296 99.87498
#
# Poissons Ratio (x) = 0.21362 0.29677
# Poissons Ratio (y) = 0.11985 0.29341
# Poissons Ratio (z) = 0.18542 0.32675
#
# Static dielectric constant tensor:
#      x y z
#    x 1.690510 0.000000 0.000000 
#    y 0.000000 1.817950 0.000000 
#    z 0.000000 0.000000 1.768190 
# 
# From -- ./inp_files/19614.got.cif
#   From: 2010.05.17/outbox.cif.g08.bks.cpg/sg21_10_cif.got.tgz:19614.got - 2010.06.03 23:14:55.
