data_PCOD9323190
_publ_section_title
;
Structure prediction by ZEFSAII (Michael W. Deem and Ramdas Pophale) SiO2 
 PCOD9323190
Probable space group: C 2 2 2
;
_chemical_formula_sum "Si O2"
_cell_formula_units_Z 52
_cell_length_a 25.398551
_cell_length_b 17.976881
_cell_length_c 5.382490
_cell_angle_alpha 90.000000
_cell_angle_beta 90.000000
_cell_angle_gamma 90.000000
_cell_volume 2457.573502
_symmetry_space_group_name_H-M "C 2 2 2"
_symmetry_group_IT_number 21
_symmetry_cell_setting 'orthorhombic'
loop_
_space_group_symop_operation_xyz
x,y,z
-x,-y,z
x,-y,-z
-x,y,-z
1/2+x,1/2+y,z
1/2-x,1/2-y,z
1/2+x,1/2-y,-z
1/2-x,1/2+y,-z
loop_
_atom_site_type_symbol
_atom_site_label
_atom_site_fract_x
_atom_site_fract_y
_atom_site_fract_z
Si Si1 0.662258 0.342796 0.755251
Si Si2 0.908566 0.025570 0.750774
Si Si3 0.804758 0.081197 0.254855
Si Si4 0.099560 0.500000 0.000000
Si Si5 0.945733 0.415578 0.609774
Si Si6 0.838536 0.330100 0.635840
Si Si7 0.807922 0.592596 0.843832
O O1 0.607074 0.388175 0.751786
O O2 0.692352 0.378652 0.520333
O O3 0.659487 0.255774 0.709002
O O4 0.686323 0.362793 0.023586
O O5 0.935402 0.000000 0.500000
O O6 0.852553 0.978205 0.752721
O O7 0.936052 0.000000 0.000000
O O8 0.746591 0.050296 0.208907
O O9 0.061719 0.564117 0.899564
O O10 0.142154 0.462169 0.815837
O O11 0.941656 0.500000 0.500000
O O12 0.896921 0.360976 0.576317
O O13 0.000000 0.385789 0.500000
O O14 0.809388 0.346187 0.375425
O O15 0.814823 0.373219 0.878350
#
# Coordination Sequence:
#
# PCOD9323190 Si02
#       7
#     8   8   8   4   8   8   8
#     4  10  20  34  52  72 110 139 188 226 269 326
#     4   8  16  30  46  71  93 132 185 215 250 299
#     4  10  20  34  53  75 103 154 188 223 258 318
#     4  10  22  39  56  86 106 140 186 254 281 328
#     4  10  21  41  61  80 105 138 188 234 298 345
#     4  11  23  39  52  80 106 142 176 235 290 330
#     4  11  23  35  54  72 111 138 190 227 274 320
#
# _framework density 21.159082000000001
#
# number of rings (size 3 to 8) (size 9 to 14) (size 15 to 20)
#    0.000    2.000    1.538    1.846    3.231    4.923 
#    8.308    0.000    0.000    0.000    0.000    0.000 
#    0.000    5.538    0.000   20.923    0.000    0.000 
#
# Total GULP energy -144886.128352 kJ/mol
# GULP energy per Si atom -5572.543398 kJ/mol
# Density = 2.111092 g / cm^3
# Si number density = 21.159082 Si / 1000 Ang^3
#
#
#
# Elastic Constant Matrix: (Units=GPa)
#
#
# Indices 1 2 3 4 5 6 
#
# 1 73.2893 6.7599 16.4767 0.0000 0.0000 0.0000
# 2 6.7599 87.0691 25.9383 0.0000 0.0000 0.0000
# 3 16.4767 25.9383 146.3926 0.0000 0.0000 0.0000
# 4 0.0000 0.0000 0.0000 36.6299 0.0000 0.0000
# 5 0.0000 0.0000 0.0000 0.0000 3.5853 0.0000
# 6 0.0000 0.0000 0.0000 0.0000 0.0000 -0.2773
#
#
#
# Elastic Compliance Matrix: (Units=1/GPa)
#
#
# Indices 1 2 3 4 5 6 
#
# 1 0.014034 -0.000654 -0.001464 0.000000 0.000000 0.000000
# 2 -0.000654 0.012156 -0.002080 0.000000 0.000000 0.000000
# 3 -0.001464 -0.002080 0.007364 0.000000 0.000000 0.000000
# 4 0.000000 0.000000 0.000000 0.027300 0.000000 0.000000
# 5 0.000000 0.000000 0.000000 0.000000 0.278913 0.000000
# 6 0.000000 0.000000 0.000000 0.000000 0.000000 -3.606334
#
#
# Mechanical properties :
#
#
# Convention : Reuss Voigt Hill
#
# Bulk Modulus (GPa) = 39.74749 45.01121 42.37935
# Shear Modulus (GPa) = -1.53856 25.15933 11.81038
#
# Velocity S-wave (km/s) = -0.85365 3.45201 2.36513
# Velocity P-wave (km/s) = 4.22543 6.09979 5.24698
#
# Compressibility (1/GPa) = 0.02515882
#
# Stress axis : x y z
#
# Youngs Moduli (GPa) = 71.25603 82.26678 135.79077
#
# Poissons Ratio (x) = 0.05376 0.19876
# Poissons Ratio (y) = 0.04657 0.28247
# Poissons Ratio (z) = 0.10430 0.17113
#
# Static dielectric constant tensor:
#      x y z
#    x 1.764200 0.000000 0.000000 
#    y 0.000000 1.753490 0.000000 
#    z 0.000000 0.000000 1.967060 
# 
# From -- ./inp_files/7454.got.cif
#   From: 2010.05.17/outbox.cif.g08.bks.cpg/sg21_4_cif.got.tgz:7454.got - 2010.06.03 23:14:55.
