data_PCOD9323652
_publ_section_title
;
Structure prediction by ZEFSAII (Michael W. Deem and Ramdas Pophale) SiO2 
 PCOD9323652
Probable space group: C 2 2 2
;
_chemical_formula_sum "Si O2"
_cell_formula_units_Z 30
_cell_length_a 14.852789
_cell_length_b 9.028742
_cell_length_c 11.070941
_cell_angle_alpha 90.000000
_cell_angle_beta 90.000000
_cell_angle_gamma 90.000000
_cell_volume 1484.635328
_symmetry_space_group_name_H-M "C 2 2 2"
_symmetry_group_IT_number 21
_symmetry_cell_setting 'orthorhombic'
loop_
_space_group_symop_operation_xyz
x,y,z
-x,-y,z
x,-y,-z
-x,y,-z
1/2+x,1/2+y,z
1/2-x,1/2-y,z
1/2+x,1/2-y,-z
1/2-x,1/2+y,-z
loop_
_atom_site_type_symbol
_atom_site_label
_atom_site_fract_x
_atom_site_fract_y
_atom_site_fract_z
Si Si1 0.000000 0.000000 0.500000
Si Si2 0.707645 0.000000 0.500000
Si Si3 0.250000 0.750000 0.322122
Si Si4 0.000000 0.000000 0.000000
Si Si5 0.000000 0.500000 0.000000
Si Si6 0.935752 0.716022 0.391087
Si Si7 0.432064 0.758576 0.169436
O O1 0.063539 0.108099 0.421520
O O2 0.757323 0.108091 0.408589
O O3 0.650121 0.113742 0.585912
O O4 0.340246 0.757277 0.243928
O O5 0.946076 0.110052 0.090157
O O6 0.062956 0.394727 0.921399
O O7 0.000000 0.662144 0.500000
O O8 0.986086 0.710477 0.263583
#
# Coordination Sequence:
#
# PCOD9323652 Si02
#       7
#     2   4   4   2   2   8   8
#     4   8  18  28  64  96 116 164 208 250 302 364
#     4  12  25  39  62 104 136 170 204 255 350 395
#     4  12  26  40  64  98 136 162 204 282 326 386
#     4  10  26  44  66  86 120 178 228 252 300 388
#     4  10  24  44  66  86 112 188 228 256 296 392
#     4  10  20  39  69  94 128 172 208 256 315 406
#     4  11  23  42  66  92 126 166 222 263 315 373
#
# _framework density 20.206983999999999
#
# number of rings (size 3 to 8) (size 9 to 14) (size 15 to 20)
#    0.800    0.533    2.667    2.800    0.000    7.467 
#    0.000    0.000    0.000    0.000    0.000    0.000 
#    0.000    0.000    0.000    0.000    0.000    0.000 
#
# Total GULP energy -83655.563214 kJ/mol
# GULP energy per Si atom -5577.037548 kJ/mol
# Density = 2.016099 g / cm^3
# Si number density = 20.206984 Si / 1000 Ang^3
#
#
#
# Elastic Constant Matrix: (Units=GPa)
#
#
# Indices 1 2 3 4 5 6 
#
# 1 81.5122 56.6736 59.1738 0.0000 0.0000 0.0000
# 2 56.6736 176.5872 78.3104 0.0000 0.0000 0.0000
# 3 59.1738 78.3104 145.9161 0.0000 0.0000 0.0000
# 4 0.0000 0.0000 0.0000 10.6153 0.0000 0.0000
# 5 0.0000 0.0000 0.0000 0.0000 21.3982 0.0000
# 6 0.0000 0.0000 0.0000 0.0000 0.0000 15.7562
#
#
#
# Elastic Compliance Matrix: (Units=1/GPa)
#
#
# Indices 1 2 3 4 5 6 
#
# 1 0.018903 -0.003500 -0.005787 0.000000 0.000000 0.000000
# 2 -0.003500 0.008080 -0.002917 0.000000 0.000000 0.000000
# 3 -0.005787 -0.002917 0.010766 0.000000 0.000000 0.000000
# 4 0.000000 0.000000 0.000000 0.094203 0.000000 0.000000
# 5 0.000000 0.000000 0.000000 0.000000 0.046733 0.000000
# 6 0.000000 0.000000 0.000000 0.000000 0.000000 0.063467
#
#
# Mechanical properties :
#
#
# Convention : Reuss Voigt Hill
#
# Bulk Modulus (GPa) = 74.96404 88.03678 81.50041
# Shear Modulus (GPa) = 18.44973 23.54447 20.99710
#
# Velocity S-wave (km/s) = 3.02493 3.41715 3.22701
# Velocity P-wave (km/s) = 7.02701 7.69619 7.36920
#
# Compressibility (1/GPa) = 0.01333973
#
# Stress axis : x y z
#
# Youngs Moduli (GPa) = 52.90159 123.76549 92.88858
#
# Poissons Ratio (x) = 0.43321 0.53757
# Poissons Ratio (y) = 0.18517 0.27094
# Poissons Ratio (z) = 0.30616 0.36100
#
# Static dielectric constant tensor:
#      x y z
#    x 1.844750 0.000000 0.000000 
#    y 0.000000 1.764390 0.000000 
#    z 0.000000 0.000000 1.714050 
# 
# From -- ./inp_files/21945.got.cif
#   From: 2010.05.17/outbox.cif.g08.bks.cpg/sg21_11_cif.got.tgz:21945.got - 2010.06.03 23:14:55.
