data_PCOD9323679
_publ_section_title
;
Structure prediction by ZEFSAII (Michael W. Deem and Ramdas Pophale) SiO2 
 PCOD9323679
Probable space group: C 2 2 2
;
_chemical_formula_sum "Si O2"
_cell_formula_units_Z 32
_cell_length_a 8.961302
_cell_length_b 10.824157
_cell_length_c 15.087716
_cell_angle_alpha 90.000000
_cell_angle_beta 90.000000
_cell_angle_gamma 90.000000
_cell_volume 1463.486421
_symmetry_space_group_name_H-M "C 2 2 2"
_symmetry_group_IT_number 21
_symmetry_cell_setting 'orthorhombic'
loop_
_space_group_symop_operation_xyz
x,y,z
-x,-y,z
x,-y,-z
-x,y,-z
1/2+x,1/2+y,z
1/2-x,1/2-y,z
1/2+x,1/2-y,-z
1/2-x,1/2+y,-z
loop_
_atom_site_type_symbol
_atom_site_label
_atom_site_fract_x
_atom_site_fract_y
_atom_site_fract_z
Si Si1 0.426735 0.249872 0.810964
Si Si2 0.500000 0.000000 0.160869
Si Si3 0.766410 0.500000 0.000000
Si Si4 0.000000 0.189753 0.000000
Si Si5 0.500000 0.500000 0.710328
Si Si6 0.662128 0.619093 0.450560
O O1 0.250000 0.250000 0.811336
O O2 0.487406 0.119838 0.775228
O O3 0.492920 0.238954 0.909419
O O4 0.464165 0.382145 0.770564
O O5 0.639460 0.999871 0.091142
O O6 0.651922 0.612997 0.000526
O O7 0.623620 0.440053 0.645103
O O8 0.735079 0.500000 0.500000
O O9 0.500000 0.639848 0.500000
O O10 0.750000 0.750000 0.449476
#
# Coordination Sequence:
#
# PCOD9323679 Si02
#       6
#     8   4   4   4   4   8
#     4  12  26  44  62  94 133 180 232 294 341 397
#     4  11  24  38  62  92 119 162 236 290 339 400
#     4  10  20  40  64  88 112 164 234 300 348 394
#     4  11  22  41  66  84 124 182 238 288 348 388
#     4  10  25  45  66 100 146 178 214 271 337 402
#     4   9  21  45  76 110 139 173 213 259 320 403
#
# _framework density 21.865593000000001
#
# number of rings (size 3 to 8) (size 9 to 14) (size 15 to 20)
#    0.000    1.750    2.500    3.000    0.000    6.500 
#    0.000    0.000    0.000    0.000    0.000    0.000 
#    0.000    0.000    0.000    0.000    0.000    0.000 
#
# Total GULP energy -89184.359133 kJ/mol
# GULP energy per Si atom -5574.022446 kJ/mol
# Density = 2.181583 g / cm^3
# Si number density = 21.865593 Si / 1000 Ang^3
#
#
#
# Elastic Constant Matrix: (Units=GPa)
#
#
# Indices 1 2 3 4 5 6 
#
# 1 79.9630 68.1554 13.7492 0.0000 0.0000 0.0000
# 2 68.1554 264.3788 63.5082 0.0000 0.0000 0.0000
# 3 13.7492 63.5082 71.1348 0.0000 0.0000 0.0000
# 4 0.0000 0.0000 0.0000 79.4459 0.0000 0.0000
# 5 0.0000 0.0000 0.0000 0.0000 -5.4299 0.0000
# 6 0.0000 0.0000 0.0000 0.0000 0.0000 37.3689
#
#
#
# Elastic Compliance Matrix: (Units=1/GPa)
#
#
# Indices 1 2 3 4 5 6 
#
# 1 0.016059 -0.004321 0.000754 0.000000 0.000000 0.000000
# 2 -0.004321 0.005978 -0.004502 0.000000 0.000000 0.000000
# 3 0.000754 -0.004502 0.017931 0.000000 0.000000 0.000000
# 4 0.000000 0.000000 0.000000 0.012587 0.000000 0.000000
# 5 0.000000 0.000000 0.000000 0.000000 -0.184165 0.000000
# 6 0.000000 0.000000 0.000000 0.000000 0.000000 0.026760
#
#
# Mechanical properties :
#
#
# Convention : Reuss Voigt Hill
#
# Bulk Modulus (GPa) = 41.96353 78.47801 60.22077
# Shear Modulus (GPa) = -61.90549 40.28124 -10.81213
#
# Velocity S-wave (km/s) = -5.32666 4.29677 -2.22611
# Velocity P-wave (km/s) = 4.31252 7.78365 4.58189
#
# Compressibility (1/GPa) = 0.02383022
#
# Stress axis : x y z
#
# Youngs Moduli (GPa) = 62.26982 167.28654 55.76886
#
# Poissons Ratio (x) = 0.72285 -0.04204
# Poissons Ratio (y) = 0.26907 0.25105
# Poissons Ratio (z) = -0.04694 0.75307
#
# Static dielectric constant tensor:
#      x y z
#    x 1.797600 0.000000 0.000000 
#    y 0.000000 2.071770 0.000000 
#    z 0.000000 0.000000 1.749420 
# 
# From -- ./inp_files/29989.got.cif
#   From: 2010.05.17/outbox.cif.g08.bks.cpg/sg21_15_cif.got.tgz:29989.got - 2010.06.03 23:14:55.
