data_PCOD9323162
_publ_section_title
;
Structure prediction by ZEFSAII (Michael W. Deem and Ramdas Pophale) SiO2 
 PCOD9323162
Probable space group: C 2 2 2
;
_chemical_formula_sum "Si O2"
_cell_formula_units_Z 34
_cell_length_a 12.981429
_cell_length_b 28.560799
_cell_length_c 5.064337
_cell_angle_alpha 90.000000
_cell_angle_beta 90.000000
_cell_angle_gamma 90.000000
_cell_volume 1877.653507
_symmetry_space_group_name_H-M "C 2 2 2"
_symmetry_group_IT_number 21
_symmetry_cell_setting 'orthorhombic'
loop_
_space_group_symop_operation_xyz
x,y,z
-x,-y,z
x,-y,-z
-x,y,-z
1/2+x,1/2+y,z
1/2-x,1/2-y,z
1/2+x,1/2-y,-z
1/2-x,1/2+y,-z
loop_
_atom_site_type_symbol
_atom_site_label
_atom_site_fract_x
_atom_site_fract_y
_atom_site_fract_z
Si Si1 0.073556 0.220576 0.753998
Si Si2 0.000000 0.000000 0.000000
Si Si3 0.426699 0.173149 0.750649
Si Si4 0.789640 0.130581 0.347197
Si Si5 0.393622 0.411203 0.126328
O O1 0.114402 0.273578 0.791593
O O2 0.157421 0.180266 0.723650
O O3 0.000000 0.219344 0.500000
O O4 0.000000 0.211913 0.000000
O O5 0.929497 0.964696 0.170358
O O6 0.500000 0.175036 0.500000
O O7 0.331753 0.140085 0.672827
O O8 0.500000 0.160770 0.000000
O O9 0.843067 0.112979 0.619186
O O10 0.816894 0.093913 0.117828
O O11 0.500000 0.390104 0.000000
#
# Coordination Sequence:
#
# PCOD9323162 Si02
#       5
#     8   2   8   8   8
#     4  10  20  33  51  78 116 152 190 243 285 335
#     4   8  24  42  56  90 130 142 168 242 324 382
#     4  10  22  37  51  76 117 159 202 247 278 313
#     4  12  20  34  58  84 107 158 202 233 284 356
#     4  10  22  36  58  84 119 143 176 236 300 378
#
# _framework density 18.107709
#
# number of rings (size 3 to 8) (size 9 to 14) (size 15 to 20)
#    0.706    0.941    0.000    6.353    0.000    1.882 
#    0.000    9.412    0.000    0.000    0.000   12.353 
#    0.000    0.000    0.000    0.000    0.000    0.000 
#
# Total GULP energy -94689.186495 kJ/mol
# GULP energy per Si atom -5569.952147 kJ/mol
# Density = 1.806650 g / cm^3
# Si number density = 18.107709 Si / 1000 Ang^3
#
#
#
# Elastic Constant Matrix: (Units=GPa)
#
#
# Indices 1 2 3 4 5 6 
#
# 1 103.7354 54.6091 50.2811 0.0000 0.0000 0.0000
# 2 54.6091 87.4963 35.0046 0.0000 0.0000 0.0000
# 3 50.2811 35.0046 148.5616 0.0000 0.0000 0.0000
# 4 0.0000 0.0000 0.0000 15.1696 0.0000 0.0000
# 5 0.0000 0.0000 0.0000 0.0000 19.0501 0.0000
# 6 0.0000 0.0000 0.0000 0.0000 0.0000 41.2791
#
#
#
# Elastic Compliance Matrix: (Units=1/GPa)
#
#
# Indices 1 2 3 4 5 6 
#
# 1 0.015712 -0.008478 -0.003320 0.000000 0.000000 0.000000
# 2 -0.008478 0.017193 -0.001182 0.000000 0.000000 0.000000
# 3 -0.003320 -0.001182 0.008133 0.000000 0.000000 0.000000
# 4 0.000000 0.000000 0.000000 0.065921 0.000000 0.000000
# 5 0.000000 0.000000 0.000000 0.000000 0.052493 0.000000
# 6 0.000000 0.000000 0.000000 0.000000 0.000000 0.024225
#
#
# Mechanical properties :
#
#
# Convention : Reuss Voigt Hill
#
# Bulk Modulus (GPa) = 66.31819 68.84254 67.58037
# Shear Modulus (GPa) = 23.29202 28.42632 25.85917
#
# Velocity S-wave (km/s) = 3.59040 3.96643 3.78309
# Velocity P-wave (km/s) = 7.34110 7.68620 7.51563
#
# Compressibility (1/GPa) = 0.01507882
#
# Stress axis : x y z
#
# Youngs Moduli (GPa) = 63.64375 58.16199 122.95005
#
# Poissons Ratio (x) = 0.49311 0.40822
# Poissons Ratio (y) = 0.53959 0.14528
# Poissons Ratio (z) = 0.21131 0.06873
#
# Static dielectric constant tensor:
#      x y z
#    x 1.659800 0.000000 0.000000 
#    y 0.000000 1.670400 0.000000 
#    z 0.000000 0.000000 1.594400 
# 
# From -- ./inp_files/2682.got.cif
#   From: 2010.05.17/outbox.cif.g08.bks.cpg/sg21_2_cif.got.tgz:2682.got - 2010.06.03 23:14:55.
