data_PCOD9323574
_publ_section_title
;
Structure prediction by ZEFSAII (Michael W. Deem and Ramdas Pophale) SiO2 
 PCOD9323574
Probable space group: C 2 2 2
;
_chemical_formula_sum "Si O2"
_cell_formula_units_Z 56
_cell_length_a 15.759936
_cell_length_b 20.148334
_cell_length_c 8.594687
_cell_angle_alpha 90.000000
_cell_angle_beta 90.000000
_cell_angle_gamma 90.000000
_cell_volume 2729.126436
_symmetry_space_group_name_H-M "C 2 2 2"
_symmetry_group_IT_number 21
_symmetry_cell_setting 'orthorhombic'
loop_
_space_group_symop_operation_xyz
x,y,z
-x,-y,z
x,-y,-z
-x,y,-z
1/2+x,1/2+y,z
1/2-x,1/2-y,z
1/2+x,1/2-y,-z
1/2-x,1/2+y,-z
loop_
_atom_site_type_symbol
_atom_site_label
_atom_site_fract_x
_atom_site_fract_y
_atom_site_fract_z
Si Si1 0.316581 0.923928 0.312225
Si Si2 0.500000 0.722311 0.313712
Si Si3 0.500000 0.123103 0.689124
Si Si4 0.343422 0.361677 0.183509
Si Si5 0.183419 0.576072 0.687775
Si Si6 0.899941 0.000000 0.677204
Si Si7 0.156578 0.138323 0.816491
O O1 0.412505 0.910141 0.258353
O O2 0.315171 0.921140 0.500000
O O3 0.251971 0.867683 0.251190
O O4 0.293088 1.000000 0.266625
O O5 0.500000 0.715977 0.500000
O O6 0.500000 0.799464 0.269874
O O7 0.586488 0.688075 0.252967
O O8 0.413512 0.688074 0.252966
O O9 0.500000 0.118573 0.500000
O O10 0.587495 0.089859 0.741647
O O11 0.248028 0.367684 0.251189
O O12 0.376866 0.434325 0.230523
O O13 0.339752 0.352140 1.000000
O O14 0.876866 0.934325 0.769477
O O15 0.863749 0.000000 0.500000
O O16 0.000000 0.000000 0.660213
#
# Coordination Sequence:
#
# PCOD9323574 Si02
#       7
#     8   8   8   8   8   8   8
#     4  10  20  38  66  94 121 153 200 255 308 355
#     4  11  23  41  62  86 122 163 209 249 295 355
#     4   9  21  41  65  91 116 157 211 260 295 346
#     4  12  24  37  58  90 127 159 197 243 303 365
#     4  10  20  38  66  94 121 153 200 255 308 355
#     4  11  21  35  59  88 118 155 200 246 303 357
#     4  12  24  37  58  90 127 159 197 243 303 365
#
# _framework density 20.519386000000001
#
# number of rings (size 3 to 8) (size 9 to 14) (size 15 to 20)
#    0.000    1.286    2.857    3.857    0.000    3.429 
#    0.000    9.286    0.000    1.714    0.000    0.000 
#    0.000    0.000    0.000    0.000    0.000    0.000 
#
# Total GULP energy -156333.541452 kJ/mol
# GULP energy per Si atom -5583.340766 kJ/mol
# Density = 2.047268 g / cm^3
# Si number density = 20.519386 Si / 1000 Ang^3
#
#
#
# Elastic Constant Matrix: (Units=GPa)
#
#
# Indices 1 2 3 4 5 6 
#
# 1 168.7214 35.2521 30.6587 0.0000 0.0000 0.0000
# 2 35.2521 64.0613 25.5042 0.0000 0.0000 0.0000
# 3 30.6587 25.5042 67.5724 0.0000 0.0000 0.0000
# 4 0.0000 0.0000 0.0000 -22.3904 0.0000 0.0000
# 5 0.0000 0.0000 0.0000 0.0000 -38.7240 0.0000
# 6 0.0000 0.0000 0.0000 0.0000 0.0000 112.1747
#
#
#
# Elastic Compliance Matrix: (Units=1/GPa)
#
#
# Indices 1 2 3 4 5 6 
#
# 1 0.006920 -0.003010 -0.002003 0.000000 0.000000 0.000000
# 2 -0.003010 0.019680 -0.006062 0.000000 0.000000 0.000000
# 3 -0.002003 -0.006062 0.017996 0.000000 0.000000 0.000000
# 4 0.000000 0.000000 0.000000 -0.044662 0.000000 0.000000
# 5 0.000000 0.000000 0.000000 0.000000 -0.025824 0.000000
# 6 0.000000 0.000000 0.000000 0.000000 0.000000 0.008915
#
#
# Mechanical properties :
#
#
# Convention : Reuss Voigt Hill
#
# Bulk Modulus (GPa) = 44.55502 53.68721 49.12111
# Shear Modulus (GPa) = 394.99787 24.14139 209.56963
#
# Velocity S-wave (km/s) = 13.88948 3.43376 10.11703
# Velocity P-wave (km/s) = 16.70283 6.47626 12.66741
#
# Compressibility (1/GPa) = 0.02244416
#
# Stress axis : x y z
#
# Youngs Moduli (GPa) = 144.50959 50.81284 55.56782
#
# Poissons Ratio (x) = 0.15296 0.11133
# Poissons Ratio (y) = 0.43502 0.33686
# Poissons Ratio (z) = 0.28952 0.30803
#
# Static dielectric constant tensor:
#      x y z
#    x 1.803240 0.000000 0.000000 
#    y 0.000000 1.695080 0.000000 
#    z 0.000000 0.000000 1.700830 
# 
# From -- ./inp_files/15263.got.cif
#   From: 2010.05.17/outbox.cif.g08.bks.cpg/sg21_8_cif.got.tgz:15263.got - 2010.06.03 23:14:55.
