data_PCOD9323868
_publ_section_title
;
Structure prediction by ZEFSAII (Michael W. Deem and Ramdas Pophale) SiO2 
 PCOD9323868
Probable space group: C 2 2 2
;
_chemical_formula_sum "Si O2"
_cell_formula_units_Z 48
_cell_length_a 13.732232
_cell_length_b 9.314740
_cell_length_c 17.988041
_cell_angle_alpha 90.000000
_cell_angle_beta 90.000000
_cell_angle_gamma 90.000000
_cell_volume 2300.889371
_symmetry_space_group_name_H-M "C 2 2 2"
_symmetry_group_IT_number 21
_symmetry_cell_setting 'orthorhombic'
loop_
_space_group_symop_operation_xyz
x,y,z
-x,-y,z
x,-y,-z
-x,y,-z
1/2+x,1/2+y,z
1/2-x,1/2-y,z
1/2+x,1/2-y,-z
1/2-x,1/2+y,-z
loop_
_atom_site_type_symbol
_atom_site_label
_atom_site_fract_x
_atom_site_fract_y
_atom_site_fract_z
Si Si1 0.618426 0.484382 0.914255
Si Si2 0.370258 0.688633 0.215237
Si Si3 0.500000 0.500000 0.699424
Si Si4 0.317413 0.977855 0.264793
Si Si5 0.250000 0.250000 0.170831
Si Si6 0.128083 0.099422 0.430722
Si Si7 0.861354 0.579732 0.424889
O O1 0.500000 0.500000 0.911676
O O2 0.651354 0.619632 0.864377
O O3 0.670637 0.343087 0.877473
O O4 0.647572 0.500000 0.000000
O O5 0.470530 0.629405 0.247903
O O6 0.375593 0.859117 0.217987
O O7 0.285699 0.611118 0.265568
O O8 0.586347 0.463444 0.644282
O O9 0.299323 0.129199 0.224135
O O10 0.368687 0.002176 0.344862
O O11 0.092682 0.263029 0.430447
O O12 0.244499 0.099048 0.429489
O O13 0.100817 0.000000 0.500000
O O14 0.890588 0.500000 0.500000
#
# Coordination Sequence:
#
# PCOD9323868 Si02
#       7
#     8   8   4   8   4   8   8
#     4  10  22  42  67  97 133 170 211 262 327 393
#     4  10  22  37  65  92 122 162 210 251 318 385
#     4  12  21  38  61  84 120 158 198 258 315 366
#     4  10  21  39  63  93 121 163 216 258 303 380
#     4  10  22  40  68  94 130 172 214 268 320 384
#     4  10  22  36  57  81 112 156 202 249 310 366
#     4  10  21  36  58  82 113 154 205 250 300 361
#
# _framework density 20.861498999999998
#
# number of rings (size 3 to 8) (size 9 to 14) (size 15 to 20)
#    0.000    1.833    2.500    1.250    4.667    4.000 
#    0.000    3.333    0.000    2.000    0.000    0.000 
#    0.000    0.000    0.000    0.000    0.000    0.000 
#
# Total GULP energy -133686.828603 kJ/mol
# GULP energy per Si atom -5570.284525 kJ/mol
# Density = 2.081402 g / cm^3
# Si number density = 20.861499 Si / 1000 Ang^3
#
#
#
# Elastic Constant Matrix: (Units=GPa)
#
#
# Indices 1 2 3 4 5 6 
#
# 1 49.0192 19.2922 21.5230 0.0000 0.0000 0.0000
# 2 19.2922 178.1760 96.6315 0.0000 0.0000 0.0000
# 3 21.5230 96.6315 169.0660 0.0000 0.0000 0.0000
# 4 0.0000 0.0000 0.0000 118.4170 0.0000 0.0000
# 5 0.0000 0.0000 0.0000 0.0000 18.4603 0.0000
# 6 0.0000 0.0000 0.0000 0.0000 0.0000 10.9354
#
#
#
# Elastic Compliance Matrix: (Units=1/GPa)
#
#
# Indices 1 2 3 4 5 6 
#
# 1 0.021795 -0.001239 -0.002066 0.000000 0.000000 0.000000
# 2 -0.001239 0.008204 -0.004531 0.000000 0.000000 0.000000
# 3 -0.002066 -0.004531 0.008768 0.000000 0.000000 0.000000
# 4 0.000000 0.000000 0.000000 0.008445 0.000000 0.000000
# 5 0.000000 0.000000 0.000000 0.000000 0.054170 0.000000
# 6 0.000000 0.000000 0.000000 0.000000 0.000000 0.091446
#
#
# Mechanical properties :
#
#
# Convention : Reuss Voigt Hill
#
# Bulk Modulus (GPa) = 43.30279 74.57274 58.93777
# Shear Modulus (GPa) = 23.12670 46.81682 34.97176
#
# Velocity S-wave (km/s) = 3.33315 4.74241 4.09880
# Velocity P-wave (km/s) = 5.96787 8.11243 7.12134
#
# Compressibility (1/GPa) = 0.02309320
#
# Stress axis : x y z
#
# Youngs Moduli (GPa) = 45.88177 121.88924 114.05254
#
# Poissons Ratio (x) = 0.15105 0.23567
# Poissons Ratio (y) = 0.05686 0.51682
# Poissons Ratio (z) = 0.09481 0.55233
#
# Static dielectric constant tensor:
#      x y z
#    x 1.101600 0.000000 0.000000 
#    y 0.000000 1.789680 0.000000 
#    z 0.000000 0.000000 1.759080 
# 
# From -- ./inp_files/36670.got.cif
#   From: 2010.05.17/outbox.cif.g08.bks.cpg/sg21_19_cif.got.tgz:36670.got - 2010.06.03 23:14:55.
