data_PCOD9323982
_publ_section_title
;
Structure prediction by ZEFSAII (Michael W. Deem and Ramdas Pophale) SiO2 
 PCOD9323982
Probable space group: C 2 2 2
;
_chemical_formula_sum "Si O2"
_cell_formula_units_Z 40
_cell_length_a 19.430257
_cell_length_b 5.466868
_cell_length_c 16.497108
_cell_angle_alpha 90.000000
_cell_angle_beta 90.000000
_cell_angle_gamma 90.000000
_cell_volume 1752.366533
_symmetry_space_group_name_H-M "C 2 2 2"
_symmetry_group_IT_number 21
_symmetry_cell_setting 'orthorhombic'
loop_
_space_group_symop_operation_xyz
x,y,z
-x,-y,z
x,-y,-z
-x,y,-z
1/2+x,1/2+y,z
1/2-x,1/2-y,z
1/2+x,1/2-y,-z
1/2-x,1/2+y,-z
loop_
_atom_site_type_symbol
_atom_site_label
_atom_site_fract_x
_atom_site_fract_y
_atom_site_fract_z
Si Si1 0.974491 0.243159 0.311769
Si Si2 0.179436 0.607609 0.843450
Si Si3 0.030476 0.752351 0.874116
Si Si4 0.675311 0.119509 0.324243
Si Si5 0.250000 0.750000 0.051795
Si Si6 0.294106 0.000000 0.500000
O O1 0.892187 0.221488 0.306777
O O2 0.000000 0.500000 0.348333
O O3 0.007123 0.246331 0.221106
O O4 0.000000 0.000000 0.355181
O O5 0.250000 0.750000 0.855048
O O6 0.112545 0.737754 0.877959
O O7 0.171900 0.575863 0.747461
O O8 0.189519 0.345491 0.888286
O O9 0.000000 0.500000 0.907462
O O10 0.000000 0.000000 0.909162
O O11 0.750000 0.250000 0.318816
O O12 0.667240 0.016160 0.414602
O O13 0.264348 0.500000 0.000000
O O14 0.250000 0.250000 0.495839
#
# Coordination Sequence:
#
# PCOD9323982 Si02
#       6
#     8   8   8   8   4   4
#     4  10  21  38  60  94 144 176 228 302 338 408
#     4  12  25  41  79 110 138 197 248 289 359 451
#     4  10  22  39  62 103 148 176 232 302 342 408
#     4  11  23  41  71 107 140 192 252 290 358 421
#     4  12  28  50  70 116 154 176 234 324 378 422
#     4  10  24  44  63 100 155 186 232 318 352 406
#
# _framework density 22.826274000000002
#
# number of rings (size 3 to 8) (size 9 to 14) (size 15 to 20)
#    0.000    1.200    6.000    0.600    8.400    3.200 
#    0.000    0.500    0.000    3.000    5.200    0.000 
#    0.000    0.000    0.000    0.000    0.000    0.000 
#
# Total GULP energy -111635.722888 kJ/mol
# GULP energy per Si atom -5581.786144 kJ/mol
# Density = 2.277432 g / cm^3
# Si number density = 22.826274 Si / 1000 Ang^3
#
#
#
# Elastic Constant Matrix: (Units=GPa)
#
#
# Indices 1 2 3 4 5 6 
#
# 1 195.2113 68.3104 12.0433 0.0000 0.0000 0.0000
# 2 68.3104 182.2021 21.2240 0.0000 0.0000 0.0000
# 3 12.0433 21.2240 99.6520 0.0000 0.0000 0.0000
# 4 0.0000 0.0000 0.0000 -1.7807 0.0000 0.0000
# 5 0.0000 0.0000 0.0000 0.0000 -158.8455 0.0000
# 6 0.0000 0.0000 0.0000 0.0000 0.0000 23.1128
#
#
#
# Elastic Compliance Matrix: (Units=1/GPa)
#
#
# Indices 1 2 3 4 5 6 
#
# 1 0.005902 -0.002184 -0.000248 0.000000 0.000000 0.000000
# 2 -0.002184 0.006436 -0.001107 0.000000 0.000000 0.000000
# 3 -0.000248 -0.001107 0.010301 0.000000 0.000000 0.000000
# 4 0.000000 0.000000 0.000000 -0.561563 0.000000 0.000000
# 5 0.000000 0.000000 0.000000 0.000000 -0.006295 0.000000
# 6 0.000000 0.000000 0.000000 0.000000 0.000000 0.043266
#
#
# Mechanical properties :
#
#
# Convention : Reuss Voigt Hill
#
# Bulk Modulus (GPa) = 64.26271 75.58008 69.92139
# Shear Modulus (GPa) = -10.21058 -2.47017 -6.34038
#
# Velocity S-wave (km/s) = -2.11728 -1.04140 -1.66844
# Velocity P-wave (km/s) = 4.71560 5.63355 5.19489
#
# Compressibility (1/GPa) = 0.01556112
#
# Stress axis : x y z
#
# Youngs Moduli (GPa) = 169.42886 155.37296 97.08122
#
# Poissons Ratio (x) = 0.33932 0.02409
# Poissons Ratio (y) = 0.37002 0.10745
# Poissons Ratio (z) = 0.04205 0.17197
#
# Static dielectric constant tensor:
#      x y z
#    x 1.825600 0.000000 0.000000 
#    y 0.000000 2.480570 0.000000 
#    z 0.000000 0.000000 1.866430 
# 
# From -- ./inp_files/36821.got.cif
#   From: 2010.05.17/outbox.cif.g08.bks.cpg/sg21_19_cif.got.tgz:36821.got - 2010.06.03 23:14:55.
