data_PCOD9323438
_publ_section_title
;
Structure prediction by ZEFSAII (Michael W. Deem and Ramdas Pophale) SiO2 
 PCOD9323438
Probable space group: C 2 2 2
;
_chemical_formula_sum "Si O2"
_cell_formula_units_Z 48
_cell_length_a 15.497920
_cell_length_b 28.427149
_cell_length_c 5.166919
_cell_angle_alpha 90.000000
_cell_angle_beta 90.000000
_cell_angle_gamma 90.000000
_cell_volume 2276.346520
_symmetry_space_group_name_H-M "C 2 2 2"
_symmetry_group_IT_number 21
_symmetry_cell_setting 'orthorhombic'
loop_
_space_group_symop_operation_xyz
x,y,z
-x,-y,z
x,-y,-z
-x,y,-z
1/2+x,1/2+y,z
1/2-x,1/2-y,z
1/2+x,1/2-y,-z
1/2-x,1/2+y,-z
loop_
_atom_site_type_symbol
_atom_site_label
_atom_site_fract_x
_atom_site_fract_y
_atom_site_fract_z
Si Si1 0.265693 0.532969 0.253897
Si Si2 0.194957 0.637513 0.758390
Si Si3 0.396338 0.771420 0.964961
Si Si4 0.602344 0.720892 0.535331
Si Si5 0.306763 0.367075 0.738667
Si Si6 0.401731 0.943655 0.004326
O O1 0.268973 0.500000 0.500000
O O2 0.328590 0.577527 0.281235
O O3 0.170933 0.557686 0.228230
O O4 0.278249 0.500000 0.000000
O O5 0.232617 0.643931 0.474307
O O6 0.131358 0.678405 0.853684
O O7 0.271819 0.638727 0.970471
O O8 0.147054 0.587277 0.789528
O O9 0.362796 0.757262 0.248384
O O10 0.500000 0.770262 0.000000
O O11 0.363984 0.734013 0.749547
O O12 0.500000 0.726532 0.500000
O O13 0.621116 0.669880 0.653944
O O14 0.500000 0.925575 0.000000
O O15 0.410700 0.000000 0.000000
#
# Coordination Sequence:
#
# PCOD9323438 Si02
#       6
#     8   8   8   8   8   8
#     4  10  20  37  56  79 110 142 179 224 275 326
#     4  11  22  35  54  81 112 145 185 227 270 321
#     4  10  21  37  55  79 114 151 183 223 276 326
#     4  10  22  39  58  80 107 142 183 227 280 338
#     4  11  22  36  57  83 107 141 185 227 274 327
#     4   9  18  34  52  75 106 143 182 219 256 308
#
# _framework density 21.086421000000001
#
# number of rings (size 3 to 8) (size 9 to 14) (size 15 to 20)
#    0.000    1.833    0.000    5.500    0.000    4.000 
#    0.000   25.000    0.000    0.500    0.000    4.667 
#    0.000    0.000    0.000    0.000    0.000    0.000 
#
# Total GULP energy -133676.151626 kJ/mol
# GULP energy per Si atom -5569.839651 kJ/mol
# Density = 2.103843 g / cm^3
# Si number density = 21.086421 Si / 1000 Ang^3
#
#
#
# Elastic Constant Matrix: (Units=GPa)
#
#
# Indices 1 2 3 4 5 6 
#
# 1 4.4385 4.9780 11.4353 0.0000 0.0000 0.0000
# 2 4.9780 102.3558 43.6619 0.0000 0.0000 0.0000
# 3 11.4353 43.6619 110.9476 0.0000 0.0000 0.0000
# 4 0.0000 0.0000 0.0000 40.1804 0.0000 0.0000
# 5 0.0000 0.0000 0.0000 0.0000 2.4687 0.0000
# 6 0.0000 0.0000 0.0000 0.0000 0.0000 31.1670
#
#
#
# Elastic Compliance Matrix: (Units=1/GPa)
#
#
# Indices 1 2 3 4 5 6 
#
# 1 0.307018 -0.001722 -0.030967 0.000000 0.000000 0.000000
# 2 -0.001722 0.011750 -0.004447 0.000000 0.000000 0.000000
# 3 -0.030967 -0.004447 0.013955 0.000000 0.000000 0.000000
# 4 0.000000 0.000000 0.000000 0.024888 0.000000 0.000000
# 5 0.000000 0.000000 0.000000 0.000000 0.405072 0.000000
# 6 0.000000 0.000000 0.000000 0.000000 0.000000 0.032085
#
#
# Mechanical properties :
#
#
# Convention : Reuss Voigt Hill
#
# Bulk Modulus (GPa) = 3.86918 37.54359 20.70639
# Shear Modulus (GPa) = 5.23456 25.27434 15.25445
#
# Velocity S-wave (km/s) = 1.57728 3.46585 2.69257
# Velocity P-wave (km/s) = 2.27068 5.81888 4.41675
#
# Compressibility (1/GPa) = 0.25845267
#
# Stress axis : x y z
#
# Youngs Moduli (GPa) = 3.25713 85.10323 71.65935
#
# Poissons Ratio (x) = 0.14657 2.21904
# Poissons Ratio (y) = 0.00561 0.31865
# Poissons Ratio (z) = 0.10086 0.37843
#
# Static dielectric constant tensor:
#      x y z
#    x 1.791340 0.000000 0.000000 
#    y 0.000000 1.961790 0.000000 
#    z 0.000000 0.000000 1.765490 
# 
# From -- ./inp_files/4126.got.cif
#   From: 2010.05.17/outbox.cif.g08.bks.cpg/sg21_3_cif.got.tgz:4126.got - 2010.06.03 23:14:55.
