data_PCOD9323720
_publ_section_title
;
Structure prediction by ZEFSAII (Michael W. Deem and Ramdas Pophale) SiO2 
 PCOD9323720
Probable space group: C 2 2 2
;
_chemical_formula_sum "Si O2"
_cell_formula_units_Z 56
_cell_length_a 21.173903
_cell_length_b 8.513500
_cell_length_c 14.715793
_cell_angle_alpha 90.000000
_cell_angle_beta 90.000000
_cell_angle_gamma 90.000000
_cell_volume 2652.728051
_symmetry_space_group_name_H-M "C 2 2 2"
_symmetry_group_IT_number 21
_symmetry_cell_setting 'orthorhombic'
loop_
_space_group_symop_operation_xyz
x,y,z
-x,-y,z
x,-y,-z
-x,y,-z
1/2+x,1/2+y,z
1/2-x,1/2-y,z
1/2+x,1/2-y,-z
1/2-x,1/2+y,-z
loop_
_atom_site_type_symbol
_atom_site_label
_atom_site_fract_x
_atom_site_fract_y
_atom_site_fract_z
Si Si1 0.927310 0.190014 0.986916
Si Si2 0.036882 0.143331 0.683690
Si Si3 0.681689 0.712627 0.874796
Si Si4 0.631818 0.891742 0.698441
Si Si5 0.254013 0.939529 0.600730
Si Si6 0.154813 0.034662 0.248402
Si Si7 0.079128 0.309501 0.216696
O O1 0.914637 0.260583 0.887814
O O2 0.876064 0.250385 0.059072
O O3 0.000000 0.235876 0.000000
O O4 0.924921 0.000000 0.000000
O O5 0.085328 0.272342 0.643742
O O6 0.085983 0.048252 0.747212
O O7 0.984681 0.238317 0.740293
O O8 0.000000 0.000000 0.632710
O O9 0.750000 0.750000 0.913901
O O10 0.670508 0.801703 0.778367
O O11 0.682617 0.529078 0.845311
O O12 0.680047 0.985219 0.634818
O O13 0.587754 0.012549 0.754056
O O14 0.250000 0.750000 0.602001
O O15 0.241265 0.000000 0.500000
O O16 0.200719 0.004817 0.669305
O O17 0.139189 0.216468 0.257302
#
# Coordination Sequence:
#
# PCOD9323720 Si02
#       7
#     8   8   8   8   8   8   8
#     4  11  23  38  62  94 132 180 240 291 334 401
#     4   9  21  37  69  95 123 180 230 272 332 406
#     4  11  22  40  62  91 134 186 226 282 347 409
#     4  11  23  41  68  97 136 175 223 288 349 422
#     4  12  27  44  71 105 136 169 219 288 357 436
#     4  10  20  41  65  92 131 174 220 269 342 424
#     4  11  21  41  62  97 134 177 234 281 334 403
#
# _framework density 21.110341999999999
#
# number of rings (size 3 to 8) (size 9 to 14) (size 15 to 20)
#    0.000    1.286    4.286    2.143    8.000    0.571 
#    5.143    0.714    0.000    9.000    0.000    0.000 
#    0.000    0.000    0.000    0.000    0.000    0.000 
#
# Total GULP energy -156014.783562 kJ/mol
# GULP energy per Si atom -5571.956556 kJ/mol
# Density = 2.106229 g / cm^3
# Si number density = 21.110342 Si / 1000 Ang^3
#
#
#
# Elastic Constant Matrix: (Units=GPa)
#
#
# Indices 1 2 3 4 5 6 
#
# 1 136.3347 44.5745 52.4949 0.0000 0.0000 0.0000
# 2 44.5745 93.0303 7.2213 0.0000 0.0000 0.0000
# 3 52.4949 7.2213 69.0109 0.0000 0.0000 0.0000
# 4 0.0000 0.0000 0.0000 11.8219 0.0000 0.0000
# 5 0.0000 0.0000 0.0000 0.0000 7.3069 0.0000
# 6 0.0000 0.0000 0.0000 0.0000 0.0000 44.5731
#
#
#
# Elastic Compliance Matrix: (Units=1/GPa)
#
#
# Indices 1 2 3 4 5 6 
#
# 1 0.012523 -0.005304 -0.008971 0.000000 0.000000 0.000000
# 2 -0.005304 0.013084 0.002666 0.000000 0.000000 0.000000
# 3 -0.008971 0.002666 0.021036 0.000000 0.000000 0.000000
# 4 0.000000 0.000000 0.000000 0.084589 0.000000 0.000000
# 5 0.000000 0.000000 0.000000 0.000000 0.136857 0.000000
# 6 0.000000 0.000000 0.000000 0.000000 0.000000 0.022435
#
#
# Mechanical properties :
#
#
# Convention : Reuss Voigt Hill
#
# Bulk Modulus (GPa) = 42.69235 56.32859 49.51047
# Shear Modulus (GPa) = 15.54968 25.67940 20.61454
#
# Velocity S-wave (km/s) = 2.71696 3.49153 3.12831
# Velocity P-wave (km/s) = 5.48725 6.55708 6.04587
#
# Compressibility (1/GPa) = 0.02342340
#
# Stress axis : x y z
#
# Youngs Moduli (GPa) = 79.85079 76.43121 47.53823
#
# Poissons Ratio (x) = 0.40540 0.42647
# Poissons Ratio (y) = 0.42353 -0.12672
# Poissons Ratio (z) = 0.71636 -0.20374
#
# Static dielectric constant tensor:
#      x y z
#    x 1.815470 0.000000 0.000000 
#    y 0.000000 1.874240 0.000000 
#    z 0.000000 0.000000 1.725950 
# 
# From -- ./inp_files/33323.got.cif
#   From: 2010.05.17/outbox.cif.g08.bks.cpg/sg21_17_cif.got.tgz:33323.got - 2010.06.03 23:14:55.
