data_PCOD9323037
_publ_section_title
;
Structure prediction by ZEFSAII (Michael W. Deem and Ramdas Pophale) SiO2 
 PCOD9323037
Probable space group: C 2 2 2
;
_chemical_formula_sum "Si O2"
_cell_formula_units_Z 40
_cell_length_a 8.975101
_cell_length_b 27.164143
_cell_length_c 8.293587
_cell_angle_alpha 90.000000
_cell_angle_beta 90.000000
_cell_angle_gamma 90.000000
_cell_volume 2021.984199
_symmetry_space_group_name_H-M "C 2 2 2"
_symmetry_group_IT_number 21
_symmetry_cell_setting 'orthorhombic'
loop_
_space_group_symop_operation_xyz
x,y,z
-x,-y,z
x,-y,-z
-x,y,-z
1/2+x,1/2+y,z
1/2-x,1/2-y,z
1/2+x,1/2-y,-z
1/2-x,1/2+y,-z
loop_
_atom_site_type_symbol
_atom_site_label
_atom_site_fract_x
_atom_site_fract_y
_atom_site_fract_z
Si Si1 0.753914 0.308509 0.795067
Si Si2 0.239115 0.919124 0.195431
Si Si3 0.500000 0.639741 0.000000
Si Si4 0.829129 0.515138 0.313258
Si Si5 0.000000 0.634461 0.000000
Si Si6 0.324994 0.116375 0.455134
O O1 0.750000 0.250000 0.787664
O O2 0.610526 0.327500 0.892619
O O3 0.898733 0.330576 0.887275
O O4 0.762672 0.333925 0.620008
O O5 0.248299 0.899954 0.379411
O O6 0.235428 0.978408 0.203596
O O7 0.099981 0.894778 0.111272
O O8 0.386527 0.899263 0.103014
O O9 0.804461 0.500000 0.500000
O O10 0.806661 0.573487 0.318624
O O11 0.000000 0.500000 0.279650
O O12 0.500000 0.119165 0.500000
#
# Coordination Sequence:
#
# PCOD9323037 Si02
#       6
#     8   8   4   8   4   8
#     4  11  23  42  63  90 124 173 217 267 325 377
#     4  10  20  38  64  94 127 165 203 262 321 384
#     4  10  25  44  59  92 138 170 206 262 336 394
#     4   9  14  30  61  92 116 147 199 256 305 357
#     4  10  19  38  63  88 128 164 214 262 306 386
#     4  11  19  38  66  98 121 156 224 270 306 372
#
# _framework density 19.782550000000001
#
# number of rings (size 3 to 8) (size 9 to 14) (size 15 to 20)
#    0.000    1.800    6.000    0.600    0.000    0.800 
#    3.600   12.500    0.000    3.600    0.000    0.000 
#    0.000    0.000    0.000    0.000    0.000    0.000 
#
# Total GULP energy -111702.173411 kJ/mol
# GULP energy per Si atom -5585.108671 kJ/mol
# Density = 1.973752 g / cm^3
# Si number density = 19.782550 Si / 1000 Ang^3
#
#
#
# Elastic Constant Matrix: (Units=GPa)
#
#
# Indices 1 2 3 4 5 6 
#
# 1 93.6475 57.6537 42.1665 0.0000 0.0000 0.0000
# 2 57.6537 160.8978 57.2382 0.0000 0.0000 0.0000
# 3 42.1665 57.2382 83.9930 0.0000 0.0000 0.0000
# 4 0.0000 0.0000 0.0000 23.2542 0.0000 0.0000
# 5 0.0000 0.0000 0.0000 0.0000 18.1172 0.0000
# 6 0.0000 0.0000 0.0000 0.0000 0.0000 14.3295
#
#
#
# Elastic Compliance Matrix: (Units=1/GPa)
#
#
# Indices 1 2 3 4 5 6 
#
# 1 0.015240 -0.003616 -0.005187 0.000000 0.000000 0.000000
# 2 -0.003616 0.009062 -0.004360 0.000000 0.000000 0.000000
# 3 -0.005187 -0.004360 0.017481 0.000000 0.000000 0.000000
# 4 0.000000 0.000000 0.000000 0.043003 0.000000 0.000000
# 5 0.000000 0.000000 0.000000 0.000000 0.055196 0.000000
# 6 0.000000 0.000000 0.000000 0.000000 0.000000 0.069786
#
#
# Mechanical properties :
#
#
# Convention : Reuss Voigt Hill
#
# Bulk Modulus (GPa) = 64.69427 72.51723 68.60575
# Shear Modulus (GPa) = 20.72580 23.23884 21.98232
#
# Velocity S-wave (km/s) = 3.24030 3.43113 3.33708
# Velocity P-wave (km/s) = 6.83909 7.24111 7.04296
#
# Compressibility (1/GPa) = 0.01545732
#
# Stress axis : x y z
#
# Youngs Moduli (GPa) = 65.61794 110.35358 57.20510
#
# Poissons Ratio (x) = 0.39899 0.29671
# Poissons Ratio (y) = 0.23725 0.24942
# Poissons Ratio (z) = 0.34035 0.48116
#
# Static dielectric constant tensor:
#      x y z
#    x 1.689700 0.000000 0.000000 
#    y 0.000000 1.696240 0.000000 
#    z 0.000000 0.000000 1.714680 
# 
# From -- ./inp_files/11249.got.cif
#   From: 2010.05.17/outbox.cif.g08.bks.cpg/sg21_6_cif.got.tgz:11249.got - 2010.06.03 23:14:55.
