data_PCOD9323809
_publ_section_title
;
Structure prediction by ZEFSAII (Michael W. Deem and Ramdas Pophale) SiO2 
 PCOD9323809
Probable space group: C 2 2 2
;
_chemical_formula_sum "Si O2"
_cell_formula_units_Z 56
_cell_length_a 10.566854
_cell_length_b 21.846810
_cell_length_c 12.409351
_cell_angle_alpha 90.000000
_cell_angle_beta 90.000000
_cell_angle_gamma 90.000000
_cell_volume 2864.724138
_symmetry_space_group_name_H-M "C 2 2 2"
_symmetry_group_IT_number 21
_symmetry_cell_setting 'orthorhombic'
loop_
_space_group_symop_operation_xyz
x,y,z
-x,-y,z
x,-y,-z
-x,y,-z
1/2+x,1/2+y,z
1/2-x,1/2-y,z
1/2+x,1/2-y,-z
1/2-x,1/2+y,-z
loop_
_atom_site_type_symbol
_atom_site_label
_atom_site_fract_x
_atom_site_fract_y
_atom_site_fract_z
Si Si1 0.716662 0.631302 0.637573
Si Si2 0.961466 0.292952 0.313991
Si Si3 0.192095 0.183508 0.072829
Si Si4 0.297513 0.124453 0.263636
Si Si5 0.351275 0.002291 0.629682
Si Si6 0.641842 0.299997 0.568925
Si Si7 0.092305 0.810184 0.158141
O O1 0.841843 0.673758 0.635623
O O2 0.771342 0.563350 0.651776
O O3 0.643156 0.650112 0.527879
O O4 0.634975 0.648599 0.741822
O O5 0.913615 0.258338 0.207059
O O6 0.069582 0.342675 0.291203
O O7 0.023198 0.240812 0.390242
O O8 0.250000 0.250000 0.102739
O O9 0.271888 0.132918 0.137002
O O10 0.049015 0.178280 0.115741
O O11 0.183458 0.180545 0.943959
O O12 0.192280 0.164119 0.326263
O O13 0.294095 0.056927 0.312047
O O14 0.500000 0.000000 0.661319
O O15 0.349480 0.000000 0.500000
O O16 0.750000 0.250000 0.543254
#
# Coordination Sequence:
#
# PCOD9323809 Si02
#       7
#     8   8   8   8   8   8   8
#     4  12  24  40  59 100 136 167 220 278 330 402
#     4  11  21  40  62  98 137 168 209 271 344 408
#     4  11  21  43  67  96 131 171 219 274 342 415
#     4  11  20  40  66  93 127 176 219 262 329 398
#     4  11  23  41  66  92 132 183 226 272 323 395
#     4  10  21  34  57  93 131 169 202 258 334 404
#     4  11  24  39  66 100 132 168 215 279 348 397
#
# _framework density 19.54813
#
# number of rings (size 3 to 8) (size 9 to 14) (size 15 to 20)
#    0.000    1.000    5.714    2.571    0.000    5.143 
#    0.000    1.429    0.000    3.429    0.000    0.000 
#    0.000    0.000    0.000    0.000    0.000    0.000 
#
# Total GULP energy -156356.545355 kJ/mol
# GULP energy per Si atom -5584.162334 kJ/mol
# Density = 1.950364 g / cm^3
# Si number density = 19.548130 Si / 1000 Ang^3
#
#
#
# Elastic Constant Matrix: (Units=GPa)
#
#
# Indices 1 2 3 4 5 6 
#
# 1 70.4571 21.4557 35.9542 0.0000 0.0000 0.0000
# 2 21.4557 105.7641 45.7536 0.0000 0.0000 0.0000
# 3 35.9542 45.7536 132.3890 0.0000 0.0000 0.0000
# 4 0.0000 0.0000 0.0000 19.5278 0.0000 0.0000
# 5 0.0000 0.0000 0.0000 0.0000 5.5073 0.0000
# 6 0.0000 0.0000 0.0000 0.0000 0.0000 31.6910
#
#
#
# Elastic Compliance Matrix: (Units=1/GPa)
#
#
# Indices 1 2 3 4 5 6 
#
# 1 0.016726 -0.001679 -0.003962 0.000000 0.000000 0.000000
# 2 -0.001679 0.011286 -0.003444 0.000000 0.000000 0.000000
# 3 -0.003962 -0.003444 0.009820 0.000000 0.000000 0.000000
# 4 0.000000 0.000000 0.000000 0.051209 0.000000 0.000000
# 5 0.000000 0.000000 0.000000 0.000000 0.181576 0.000000
# 6 0.000000 0.000000 0.000000 0.000000 0.000000 0.031555
#
#
# Mechanical properties :
#
#
# Convention : Reuss Voigt Hill
#
# Bulk Modulus (GPa) = 50.86322 57.21524 54.03923
# Shear Modulus (GPa) = 15.29538 25.04169 20.16853
#
# Velocity S-wave (km/s) = 2.80026 3.58303 3.21555
# Velocity P-wave (km/s) = 6.04411 6.81542 6.44132
#
# Compressibility (1/GPa) = 0.01966057
#
# Stress axis : x y z
#
# Youngs Moduli (GPa) = 59.78616 88.60823 101.83402
#
# Poissons Ratio (x) = 0.14878 0.40349
# Poissons Ratio (y) = 0.10039 0.35075
# Poissons Ratio (z) = 0.23689 0.30519
#
# Static dielectric constant tensor:
#      x y z
#    x 1.928090 0.000000 0.000000 
#    y 0.000000 1.667410 0.000000 
#    z 0.000000 0.000000 1.717020 
# 
# From -- ./inp_files/24235.got.cif
#   From: 2010.05.17/outbox.cif.g08.bks.cpg/sg21_13_cif.got.tgz:24235.got - 2010.06.03 23:14:55.
