data_PCOD9323701
_publ_section_title
;
Structure prediction by ZEFSAII (Michael W. Deem and Ramdas Pophale) SiO2 
 PCOD9323701
Probable space group: C 2 2 2
;
_chemical_formula_sum "Si O2"
_cell_formula_units_Z 48
_cell_length_a 30.447554
_cell_length_b 9.060461
_cell_length_c 8.542219
_cell_angle_alpha 90.000000
_cell_angle_beta 90.000000
_cell_angle_gamma 90.000000
_cell_volume 2356.532350
_symmetry_space_group_name_H-M "C 2 2 2"
_symmetry_group_IT_number 21
_symmetry_cell_setting 'orthorhombic'
loop_
_space_group_symop_operation_xyz
x,y,z
-x,-y,z
x,-y,-z
-x,y,-z
1/2+x,1/2+y,z
1/2-x,1/2-y,z
1/2+x,1/2-y,-z
1/2-x,1/2+y,-z
loop_
_atom_site_type_symbol
_atom_site_label
_atom_site_fract_x
_atom_site_fract_y
_atom_site_fract_z
Si Si1 0.381807 0.710206 0.135449
Si Si2 0.621277 0.112291 0.637240
Si Si3 0.191091 0.546648 0.171626
Si Si4 0.051312 0.538749 0.176397
Si Si5 0.770036 0.084968 0.652750
Si Si6 0.637746 0.611032 0.216873
O O1 0.337450 0.803978 0.172377
O O2 0.424768 0.802077 0.191041
O O3 0.379718 0.554475 0.221020
O O4 0.380303 0.677194 0.948192
O O5 0.624363 0.287481 0.634793
O O6 0.634264 0.000000 0.500000
O O7 0.655209 0.072623 0.774468
O O8 0.573952 0.063046 0.694907
O O9 0.231923 0.523724 0.284956
O O10 0.206060 0.500000 0.000000
O O11 0.000000 0.500000 0.183708
O O12 0.065667 0.500000 0.000000
O O13 0.750000 0.250000 0.623759
O O14 0.809325 0.102664 0.776788
O O15 0.787714 0.000000 0.500000
#
# Coordination Sequence:
#
# PCOD9323701 Si02
#       6
#     8   8   8   8   8   8
#     4  10  21  40  67  97 128 166 221 290 334 402
#     4  11  21  39  65  90 132 175 213 268 335 413
#     4  11  21  41  64  84 122 174 233 272 329 394
#     4  10  20  40  70  98 126 164 222 266 326 416
#     4  12  27  40  58  89 130 175 231 284 330 393
#     4  11  23  40  61  95 135 168 227 282 344 385
#
# _framework density 20.368912000000002
#
# number of rings (size 3 to 8) (size 9 to 14) (size 15 to 20)
#    0.000    1.167    5.000    1.500    4.667    1.667 
#    0.000    0.833    0.000    0.000    0.000    4.667 
#    0.000    0.000    0.000    0.000    0.000    0.000 
#
# Total GULP energy -133774.142908 kJ/mol
# GULP energy per Si atom -5573.922621 kJ/mol
# Density = 2.032255 g / cm^3
# Si number density = 20.368912 Si / 1000 Ang^3
#
#
#
# Elastic Constant Matrix: (Units=GPa)
#
#
# Indices 1 2 3 4 5 6 
#
# 1 89.6211 49.1631 14.4969 0.0000 0.0000 0.0000
# 2 49.1631 169.3358 27.3380 0.0000 0.0000 0.0000
# 3 14.4969 27.3380 33.9635 0.0000 0.0000 0.0000
# 4 0.0000 0.0000 0.0000 35.5607 0.0000 0.0000
# 5 0.0000 0.0000 0.0000 0.0000 18.0952 0.0000
# 6 0.0000 0.0000 0.0000 0.0000 0.0000 15.4353
#
#
#
# Elastic Compliance Matrix: (Units=1/GPa)
#
#
# Indices 1 2 3 4 5 6 
#
# 1 0.013533 -0.003444 -0.003004 0.000000 0.000000 0.000000
# 2 -0.003444 0.007664 -0.004699 0.000000 0.000000 0.000000
# 3 -0.003004 -0.004699 0.034508 0.000000 0.000000 0.000000
# 4 0.000000 0.000000 0.000000 0.028121 0.000000 0.000000
# 5 0.000000 0.000000 0.000000 0.000000 0.055263 0.000000
# 6 0.000000 0.000000 0.000000 0.000000 0.000000 0.064787
#
#
# Mechanical properties :
#
#
# Convention : Reuss Voigt Hill
#
# Bulk Modulus (GPa) = 29.93050 52.76848 41.34949
# Shear Modulus (GPa) = 21.06974 27.27975 24.17475
#
# Velocity S-wave (km/s) = 3.21971 3.66359 3.44880
# Velocity P-wave (km/s) = 5.34305 6.62258 6.01692
#
# Compressibility (1/GPa) = 0.03341073
#
# Stress axis : x y z
#
# Youngs Moduli (GPa) = 73.89137 130.48124 28.97892
#
# Poissons Ratio (x) = 0.44939 0.08706
# Poissons Ratio (y) = 0.25449 0.13617
# Poissons Ratio (z) = 0.22199 0.61310
#
# Static dielectric constant tensor:
#      x y z
#    x 1.721360 0.000000 0.000000 
#    y 0.000000 1.789450 0.000000 
#    z 0.000000 0.000000 1.775360 
# 
# From -- ./inp_files/11492.got.cif
#   From: 2010.05.17/outbox.cif.g08.bks.cpg/sg21_6_cif.got.tgz:11492.got - 2010.06.03 23:14:55.
