data_PCOD9323919
_publ_section_title
;
Structure prediction by ZEFSAII (Michael W. Deem and Ramdas Pophale) SiO2 
 PCOD9323919
Probable space group: C 2 2 2
;
_chemical_formula_sum "Si O2"
_cell_formula_units_Z 64
_cell_length_a 12.639106
_cell_length_b 16.915847
_cell_length_c 15.520152
_cell_angle_alpha 90.000000
_cell_angle_beta 90.000000
_cell_angle_gamma 90.000000
_cell_volume 3318.226863
_symmetry_space_group_name_H-M "C 2 2 2"
_symmetry_group_IT_number 21
_symmetry_cell_setting 'orthorhombic'
loop_
_space_group_symop_operation_xyz
x,y,z
-x,-y,z
x,-y,-z
-x,y,-z
1/2+x,1/2+y,z
1/2-x,1/2-y,z
1/2+x,1/2-y,-z
1/2-x,1/2+y,-z
loop_
_atom_site_type_symbol
_atom_site_label
_atom_site_fract_x
_atom_site_fract_y
_atom_site_fract_z
Si Si1 0.364531 0.073193 0.235374
Si Si2 0.906171 0.609367 0.727606
Si Si3 0.760561 0.343136 0.116935
Si Si4 0.405693 0.604887 0.249177
Si Si5 0.592959 0.254194 0.379453
Si Si6 0.636485 0.428440 0.700187
Si Si7 0.642456 0.293526 0.572783
Si Si8 0.387360 0.910138 0.969076
O O1 0.467214 0.116381 0.271932
O O2 0.247184 0.098313 0.259647
O O3 0.376488 0.083180 0.132956
O O4 0.377164 0.983252 0.271308
O O5 0.856200 0.637082 0.817646
O O6 0.868893 0.667965 0.652007
O O7 0.750000 0.250000 0.117488
O O8 0.658649 0.385546 0.160285
O O9 0.792712 0.370176 0.021713
O O10 0.381103 0.682232 0.305580
O O11 0.533071 0.598827 0.246009
O O12 0.369986 0.523853 0.296947
O O13 0.637894 0.284570 0.469888
O O14 0.465745 0.254200 0.392856
O O15 0.634053 0.383309 0.608563
O O16 0.750000 0.250000 0.602336
O O17 0.500000 0.874316 0.000000
O O18 0.388034 0.000000 0.000000
#
# Coordination Sequence:
#
# PCOD9323919 Si02
#       8
#     8   8   8   8   8   8   8   8
#     4  11  21  37  65  93 120 166 205 261 311 369
#     4  11  20  36  64  94 117 159 212 251 313 373
#     4  12  22  37  62  94 122 158 209 259 300 370
#     4  10  21  37  60  85 118 167 209 253 303 373
#     4  10  22  38  59  88 122 159 204 257 313 375
#     4  10  21  39  58  85 121 161 214 252 306 376
#     4  10  22  38  57  85 122 161 200 260 321 366
#     4  11  19  37  60  91 126 158 203 257 317 359
#
# _framework density 19.287409
#
# number of rings (size 3 to 8) (size 9 to 14) (size 15 to 20)
#    0.000    1.375    5.000    1.500    1.750    0.500 
#    0.000    7.500    0.000   14.250    0.000    0.000 
#    0.000    0.000    0.000    0.000    0.000    0.000 
#
# Total GULP energy -178366.514101 kJ/mol
# GULP energy per Si atom -5573.953566 kJ/mol
# Density = 1.924351 g / cm^3
# Si number density = 19.287409 Si / 1000 Ang^3
#
#
#
# Elastic Constant Matrix: (Units=GPa)
#
#
# Indices 1 2 3 4 5 6 
#
# 1 139.0747 18.1749 24.4662 0.0000 0.0000 0.0000
# 2 18.1749 68.9465 34.5670 0.0000 0.0000 0.0000
# 3 24.4662 34.5670 88.6193 0.0000 0.0000 0.0000
# 4 0.0000 0.0000 0.0000 28.3474 0.0000 0.0000
# 5 0.0000 0.0000 0.0000 0.0000 23.0321 0.0000
# 6 0.0000 0.0000 0.0000 0.0000 0.0000 12.3254
#
#
#
# Elastic Compliance Matrix: (Units=1/GPa)
#
#
# Indices 1 2 3 4 5 6 
#
# 1 0.007635 -0.001188 -0.001644 0.000000 0.000000 0.000000
# 2 -0.001188 0.018215 -0.006777 0.000000 0.000000 0.000000
# 3 -0.001644 -0.006777 0.014382 0.000000 0.000000 0.000000
# 4 0.000000 0.000000 0.000000 0.035277 0.000000 0.000000
# 5 0.000000 0.000000 0.000000 0.000000 0.043418 0.000000
# 6 0.000000 0.000000 0.000000 0.000000 0.000000 0.081133
#
#
# Mechanical properties :
#
#
# Convention : Reuss Voigt Hill
#
# Bulk Modulus (GPa) = 47.59080 50.11742 48.85411
# Shear Modulus (GPa) = 22.09632 27.36981 24.73306
#
# Velocity S-wave (km/s) = 3.38839 3.77112 3.58487
# Velocity P-wave (km/s) = 6.32743 6.70840 6.52070
#
# Compressibility (1/GPa) = 0.02101247
#
# Stress axis : x y z
#
# Youngs Moduli (GPa) = 130.97673 54.90020 69.53326
#
# Poissons Ratio (x) = 0.06523 0.11434
# Poissons Ratio (y) = 0.15563 0.47122
# Poissons Ratio (z) = 0.21538 0.37205
#
# Static dielectric constant tensor:
#      x y z
#    x 1.746540 0.000000 0.000000 
#    y 0.000000 1.674860 0.000000 
#    z 0.000000 0.000000 1.685880 
# 
# From -- ./inp_files/31768.got.cif
#   From: 2010.05.17/outbox.cif.g08.bks.cpg/sg21_16_cif.got.tgz:31768.got - 2010.06.03 23:14:55.
