data_PCOD9323097
_publ_section_title
;
Structure prediction by ZEFSAII (Michael W. Deem and Ramdas Pophale) SiO2 
 PCOD9323097
Probable space group: C 2 2 2
;
_chemical_formula_sum "Si O2"
_cell_formula_units_Z 56
_cell_length_a 14.697986
_cell_length_b 11.296991
_cell_length_c 16.057419
_cell_angle_alpha 90.000000
_cell_angle_beta 90.000000
_cell_angle_gamma 90.000000
_cell_volume 2666.222273
_symmetry_space_group_name_H-M "C 2 2 2"
_symmetry_group_IT_number 21
_symmetry_cell_setting 'orthorhombic'
loop_
_space_group_symop_operation_xyz
x,y,z
-x,-y,z
x,-y,-z
-x,y,-z
1/2+x,1/2+y,z
1/2-x,1/2-y,z
1/2+x,1/2-y,-z
1/2-x,1/2+y,-z
loop_
_atom_site_type_symbol
_atom_site_label
_atom_site_fract_x
_atom_site_fract_y
_atom_site_fract_z
Si Si1 0.696064 0.932353 0.234385
Si Si2 0.374193 0.561814 0.868764
Si Si3 0.584519 0.306952 0.566611
Si Si4 0.069159 0.603717 0.140022
Si Si5 0.349744 0.690728 0.044232
Si Si6 0.955841 0.769545 0.246491
Si Si7 0.280329 0.080809 0.424562
O O1 0.792681 0.911052 0.194220
O O2 0.632523 0.816049 0.233970
O O3 0.706090 0.966769 0.331004
O O4 0.654376 0.032397 0.175155
O O5 0.366405 0.425484 0.898230
O O6 0.455653 0.619748 0.816183
O O7 0.364891 0.640711 0.951918
O O8 0.500000 0.314488 0.500000
O O9 0.540949 0.310915 0.658664
O O10 0.647421 0.188415 0.565810
O O11 0.671310 0.396069 0.563930
O O12 0.086698 0.699626 0.069175
O O13 0.000000 0.500000 0.114989
O O14 0.033825 0.679362 0.218583
O O15 0.250000 0.750000 0.051935
O O16 0.307806 0.000000 0.500000
#
# Coordination Sequence:
#
# PCOD9323097 Si02
#       7
#     8   8   8   8   8   8   8
#     4  10  19  41  68  92 133 177 221 270 332 408
#     4  11  22  40  68  93 133 176 217 278 323 397
#     4  10  22  41  63  95 133 171 224 275 332 406
#     4  10  23  42  66  99 134 170 221 275 332 394
#     4  11  23  41  64 100 130 171 229 270 330 386
#     4  10  21  40  65  94 129 180 218 265 344 399
#     4  10  22  40  65  97 129 175 223 274 338 399
#
# _framework density 21.003499000000001
#
# number of rings (size 3 to 8) (size 9 to 14) (size 15 to 20)
#    0.000    1.714    2.857    1.286    2.000    1.714 
#    2.571    6.429    0.000    0.000    0.000    0.000 
#    0.000    0.000    0.000    0.000    0.000    0.000 
#
# Total GULP energy -156058.848846 kJ/mol
# GULP energy per Si atom -5573.530316 kJ/mol
# Density = 2.095569 g / cm^3
# Si number density = 21.003499 Si / 1000 Ang^3
#
#
#
# Elastic Constant Matrix: (Units=GPa)
#
#
# Indices 1 2 3 4 5 6 
#
# 1 54.2133 8.9734 -0.1028 0.0000 0.0000 0.0000
# 2 8.9734 111.3984 45.7676 0.0000 0.0000 0.0000
# 3 -0.1028 45.7676 85.9918 0.0000 0.0000 0.0000
# 4 0.0000 0.0000 0.0000 7.8188 0.0000 0.0000
# 5 0.0000 0.0000 0.0000 0.0000 13.6104 0.0000
# 6 0.0000 0.0000 0.0000 0.0000 0.0000 0.2708
#
#
#
# Elastic Compliance Matrix: (Units=1/GPa)
#
#
# Indices 1 2 3 4 5 6 
#
# 1 0.018770 -0.001947 0.001059 0.000000 0.000000 0.000000
# 2 -0.001947 0.011691 -0.006225 0.000000 0.000000 0.000000
# 3 0.001059 -0.006225 0.014943 0.000000 0.000000 0.000000
# 4 0.000000 0.000000 0.000000 0.127897 0.000000 0.000000
# 5 0.000000 0.000000 0.000000 0.000000 0.073473 0.000000
# 6 0.000000 0.000000 0.000000 0.000000 0.000000 3.692486
#
#
# Mechanical properties :
#
#
# Convention : Reuss Voigt Hill
#
# Bulk Modulus (GPa) = 32.07355 40.09775 36.08565
# Shear Modulus (GPa) = 1.26139 17.47102 9.36621
#
# Velocity S-wave (km/s) = 0.77580 2.88725 2.11401
# Velocity P-wave (km/s) = 4.01325 5.49976 4.81423
#
# Compressibility (1/GPa) = 0.03117834
#
# Stress axis : x y z
#
# Youngs Moduli (GPa) = 53.27677 85.53599 66.91991
#
# Poissons Ratio (x) = 0.16653 -0.07084
# Poissons Ratio (y) = 0.10372 0.41655
# Poissons Ratio (z) = -0.05640 0.53243
#
# Static dielectric constant tensor:
#      x y z
#    x 1.796940 0.000000 0.000000 
#    y 0.000000 1.662120 0.000000 
#    z 0.000000 0.000000 1.711670 
# 
# From -- ./inp_files/32337.got.cif
#   From: 2010.05.17/outbox.cif.g08.bks.cpg/sg21_17_cif.got.tgz:32337.got - 2010.06.03 23:14:55.
