data_PCOD9323254
_publ_section_title
;
Structure prediction by ZEFSAII (Michael W. Deem and Ramdas Pophale) SiO2 
 PCOD9323254
Probable space group: C 2 2 2
;
_chemical_formula_sum "Si O2"
_cell_formula_units_Z 40
_cell_length_a 18.563652
_cell_length_b 7.181014
_cell_length_c 11.712501
_cell_angle_alpha 90.000000
_cell_angle_beta 90.000000
_cell_angle_gamma 90.000000
_cell_volume 1561.344842
_symmetry_space_group_name_H-M "C 2 2 2"
_symmetry_group_IT_number 21
_symmetry_cell_setting 'orthorhombic'
loop_
_space_group_symop_operation_xyz
x,y,z
-x,-y,z
x,-y,-z
-x,y,-z
1/2+x,1/2+y,z
1/2-x,1/2-y,z
1/2+x,1/2-y,-z
1/2-x,1/2+y,-z
loop_
_atom_site_type_symbol
_atom_site_label
_atom_site_fract_x
_atom_site_fract_y
_atom_site_fract_z
Si Si1 0.530851 0.296780 0.823682
Si Si2 0.328699 0.716696 0.970067
Si Si3 0.380679 0.163419 0.793194
Si Si4 0.275550 0.032054 0.626463
Si Si5 0.382995 0.466399 0.366498
O O1 0.500000 0.500000 0.863220
O O2 0.463320 0.160612 0.829500
O O3 0.560895 0.330987 0.695336
O O4 0.600349 0.241251 0.897090
O O5 0.250000 0.750000 0.917323
O O6 0.334208 0.817205 0.092213
O O7 0.333299 0.500000 0.000000
O O8 0.339058 0.014771 0.716638
O O9 0.384600 0.348676 0.712644
O O10 0.250000 0.250000 0.633130
O O11 0.201850 0.915376 0.639801
O O12 0.304425 0.000000 0.500000
O O13 0.398932 0.500000 0.500000
#
# Coordination Sequence:
#
# PCOD9323254 Si02
#       5
#     8   8   8   8   8
#     4  10  20  35  62  99 128 163 223 271 317 390
#     4  12  23  39  66 101 129 171 225 277 331 397
#     4  10  20  34  62  93 131 163 212 277 331 367
#     4   9  18  35  60  98 131 171 218 273 331 386
#     4   9  17  31  57  91 127 160 215 269 310 370
#
# _framework density 25.618941
#
# number of rings (size 3 to 8) (size 9 to 14) (size 15 to 20)
#    0.000    2.000    4.000    2.400    0.000    3.600 
#    0.000    8.000    0.000    2.400   15.600    0.000 
#    0.000    0.000    0.000    0.000    0.000    0.000 
#
# Total GULP energy -111924.960824 kJ/mol
# GULP energy per Si atom -5596.248041 kJ/mol
# Density = 2.556063 g / cm^3
# Si number density = 25.618941 Si / 1000 Ang^3
#
#
#
# Elastic Constant Matrix: (Units=GPa)
#
#
# Indices 1 2 3 4 5 6 
#
# 1 216.1827 24.3391 83.6193 0.0000 0.0000 0.0000
# 2 24.3391 41.0311 8.6892 0.0000 0.0000 0.0000
# 3 83.6193 8.6892 144.7845 0.0000 0.0000 0.0000
# 4 0.0000 0.0000 0.0000 31.6172 0.0000 0.0000
# 5 0.0000 0.0000 0.0000 0.0000 245.9089 0.0000
# 6 0.0000 0.0000 0.0000 0.0000 0.0000 47.4733
#
#
#
# Elastic Compliance Matrix: (Units=1/GPa)
#
#
# Indices 1 2 3 4 5 6 
#
# 1 0.006302 -0.003006 -0.003459 0.000000 0.000000 0.000000
# 2 -0.003006 0.026119 0.000168 0.000000 0.000000 0.000000
# 3 -0.003459 0.000168 0.008895 0.000000 0.000000 0.000000
# 4 0.000000 0.000000 0.000000 0.031628 0.000000 0.000000
# 5 0.000000 0.000000 0.000000 0.000000 0.004067 0.000000
# 6 0.000000 0.000000 0.000000 0.000000 0.000000 0.021064
#
#
# Mechanical properties :
#
#
# Convention : Reuss Voigt Hill
#
# Bulk Modulus (GPa) = 34.81597 70.58817 52.70207
# Shear Modulus (GPa) = 41.58244 84.02326 62.80285
#
# Velocity S-wave (km/s) = 4.03316 5.73311 4.95656
# Velocity P-wave (km/s) = 5.94205 8.45208 7.30567
#
# Compressibility (1/GPa) = 0.02872245
#
# Stress axis : x y z
#
# Youngs Moduli (GPa) = 158.67403 38.28616 112.42687
#
# Poissons Ratio (x) = 0.11508 0.38893
# Poissons Ratio (y) = 0.47694 -0.01894
# Poissons Ratio (z) = 0.54892 -0.00645
#
# Static dielectric constant tensor:
#      x y z
#    x 2.043470 0.000000 0.000000 
#    y 0.000000 -1.858250 0.000000 
#    z 0.000000 0.000000 2.059420 
# 
# From -- ./inp_files/22285.got.cif
#   From: 2010.05.17/outbox.cif.g08.bks.cpg/sg21_12_cif.got.tgz:22285.got - 2010.06.03 23:14:55.
