data_PCOD9323312
_publ_section_title
;
Structure prediction by ZEFSAII (Michael W. Deem and Ramdas Pophale) SiO2 
 PCOD9323312
Probable space group: C 2 2 2
;
_chemical_formula_sum "Si O2"
_cell_formula_units_Z 28
_cell_length_a 8.022835
_cell_length_b 12.558234
_cell_length_c 10.888432
_cell_angle_alpha 90.000000
_cell_angle_beta 90.000000
_cell_angle_gamma 90.000000
_cell_volume 1097.038262
_symmetry_space_group_name_H-M "C 2 2 2"
_symmetry_group_IT_number 21
_symmetry_cell_setting 'orthorhombic'
loop_
_space_group_symop_operation_xyz
x,y,z
-x,-y,z
x,-y,-z
-x,y,-z
1/2+x,1/2+y,z
1/2-x,1/2-y,z
1/2+x,1/2-y,-z
1/2-x,1/2+y,-z
loop_
_atom_site_type_symbol
_atom_site_label
_atom_site_fract_x
_atom_site_fract_y
_atom_site_fract_z
Si Si1 0.600952 0.165824 0.690335
Si Si2 0.222783 0.029888 0.140649
Si Si3 0.255836 0.000000 0.500000
Si Si4 0.594446 0.364433 0.290184
O O1 0.750000 0.250000 0.669073
O O2 0.626663 0.107191 0.821391
O O3 0.440887 0.241682 0.682950
O O4 0.636775 0.075196 0.590014
O O5 0.069693 0.092802 0.211643
O O6 0.235281 0.914302 0.203200
O O7 0.197407 0.000000 0.000000
O O8 0.141410 0.075980 0.584350
#
# Coordination Sequence:
#
# PCOD9323312 Si02
#       4
#     8   8   4   8
#     4   9  19  31  53  88 113 142 189 228 272 336
#     4   9  17  30  52  81 113 144 184 233 275 327
#     4  10  20  35  58  87 116 145 182 226 276 337
#     4   9  17  31  56  85 113 147 185 228 278 331
#
# _framework density 25.523264999999999
#
# number of rings (size 3 to 8) (size 9 to 14) (size 15 to 20)
#    0.000    2.857    0.000    3.429    0.000   20.571 
#    0.000    0.000    0.000   70.286    0.000    4.000 
#    0.000    0.000    0.000    0.000    0.000    0.000 
#
# Total GULP energy -78074.522658 kJ/mol
# GULP energy per Si atom -5576.751618 kJ/mol
# Density = 2.546517 g / cm^3
# Si number density = 25.523265 Si / 1000 Ang^3
#
#
#
# Elastic Constant Matrix: (Units=GPa)
#
#
# Indices 1 2 3 4 5 6 
#
# 1 83.3242 78.0250 35.9531 0.0000 0.0000 0.0000
# 2 78.0250 224.8821 100.7274 0.0000 0.0000 0.0000
# 3 35.9531 100.7274 204.4877 0.0000 0.0000 0.0000
# 4 0.0000 0.0000 0.0000 26.1080 0.0000 0.0000
# 5 0.0000 0.0000 0.0000 0.0000 4.9051 0.0000
# 6 0.0000 0.0000 0.0000 0.0000 0.0000 72.9757
#
#
#
# Elastic Compliance Matrix: (Units=1/GPa)
#
#
# Indices 1 2 3 4 5 6 
#
# 1 0.017779 -0.006118 -0.000112 0.000000 0.000000 0.000000
# 2 -0.006118 0.007811 -0.002772 0.000000 0.000000 0.000000
# 3 -0.000112 -0.002772 0.006275 0.000000 0.000000 0.000000
# 4 0.000000 0.000000 0.000000 0.038302 0.000000 0.000000
# 5 0.000000 0.000000 0.000000 0.000000 0.203870 0.000000
# 6 0.000000 0.000000 0.000000 0.000000 0.000000 0.013703
#
#
# Mechanical properties :
#
#
# Convention : Reuss Voigt Hill
#
# Bulk Modulus (GPa) = 72.14627 104.67832 88.41230
# Shear Modulus (GPa) = 16.10998 40.66366 28.38682
#
# Velocity S-wave (km/s) = 2.51507 3.99582 3.33858
# Velocity P-wave (km/s) = 6.06320 7.89878 7.04106
#
# Compressibility (1/GPa) = 0.01386073
#
# Stress axis : x y z
#
# Youngs Moduli (GPa) = 56.24639 128.02169 159.35278
#
# Poissons Ratio (x) = 0.78328 0.01786
# Poissons Ratio (y) = 0.34414 0.44171
# Poissons Ratio (z) = 0.00630 0.35487
#
# Static dielectric constant tensor:
#      x y z
#    x 2.294920 0.000000 0.000000 
#    y 0.000000 2.057630 0.000000 
#    z 0.000000 0.000000 1.994670 
# 
# From -- ./inp_files/23360.got.cif
#   From: 2010.05.17/outbox.cif.g08.bks.cpg/sg21_12_cif.got.tgz:23360.got - 2010.06.03 23:14:55.
