data_PCOD9323668
_publ_section_title
;
Structure prediction by ZEFSAII (Michael W. Deem and Ramdas Pophale) SiO2 
 PCOD9323668
Probable space group: C 2 2 2
;
_chemical_formula_sum "Si O2"
_cell_formula_units_Z 48
_cell_length_a 11.017064
_cell_length_b 17.209423
_cell_length_c 11.249218
_cell_angle_alpha 90.000000
_cell_angle_beta 90.000000
_cell_angle_gamma 90.000000
_cell_volume 2132.821524
_symmetry_space_group_name_H-M "C 2 2 2"
_symmetry_group_IT_number 21
_symmetry_cell_setting 'orthorhombic'
loop_
_space_group_symop_operation_xyz
x,y,z
-x,-y,z
x,-y,-z
-x,y,-z
1/2+x,1/2+y,z
1/2-x,1/2-y,z
1/2+x,1/2-y,-z
1/2-x,1/2+y,-z
loop_
_atom_site_type_symbol
_atom_site_label
_atom_site_fract_x
_atom_site_fract_y
_atom_site_fract_z
Si Si1 0.108214 0.437241 0.138881
Si Si2 0.752625 0.613909 0.563534
Si Si3 0.513762 0.656041 0.637517
Si Si4 0.465567 0.821497 0.296567
Si Si5 0.131114 0.298560 0.959934
Si Si6 0.690740 0.449567 0.683528
O O1 0.132430 0.382606 0.025146
O O2 0.234903 0.463599 0.195504
O O3 0.000000 0.500000 0.125365
O O4 0.060141 0.381528 0.242996
O O5 0.658795 0.668227 0.635599
O O6 0.886373 0.638563 0.601369
O O7 0.706777 0.531504 0.616708
O O8 0.740115 0.609146 0.420903
O O9 0.500000 0.632758 0.500000
O O10 0.468597 0.741900 0.667073
O O11 0.441500 0.589056 0.707006
O O12 0.380264 0.806914 0.181143
O O13 0.250000 0.250000 0.993723
O O14 0.000000 0.263264 0.000000
#
# Coordination Sequence:
#
# PCOD9323668 Si02
#       6
#     8   8   8   8   8   8
#     4  11  24  43  63  91 125 168 216 265 320 384
#     4  10  20  40  61  92 129 169 206 261 322 379
#     4  10  22  37  62  95 129 168 209 260 322 390
#     4  11  23  40  63  91 129 165 209 266 325 376
#     4  10  24  43  68  95 127 171 218 274 329 390
#     4  10  22  38  63  91 129 167 213 257 313 392
#
# _framework density 22.505399000000001
#
# number of rings (size 3 to 8) (size 9 to 14) (size 15 to 20)
#    0.000    1.667    1.667    2.000    7.000    5.000 
#    0.000    0.000    0.000    0.000    0.000    7.000 
#    0.000    0.000    0.000    0.000    0.000    0.000 
#
# Total GULP energy -133676.940579 kJ/mol
# GULP energy per Si atom -5569.872524 kJ/mol
# Density = 2.245418 g / cm^3
# Si number density = 22.505399 Si / 1000 Ang^3
#
#
#
# Elastic Constant Matrix: (Units=GPa)
#
#
# Indices 1 2 3 4 5 6 
#
# 1 71.8279 24.6645 36.9980 0.0000 0.0000 0.0000
# 2 24.6645 82.5004 4.6986 0.0000 0.0000 0.0000
# 3 36.9980 4.6986 59.9496 0.0000 0.0000 0.0000
# 4 0.0000 0.0000 0.0000 130.5768 0.0000 0.0000
# 5 0.0000 0.0000 0.0000 0.0000 15.6811 0.0000
# 6 0.0000 0.0000 0.0000 0.0000 0.0000 38.8127
#
#
#
# Elastic Compliance Matrix: (Units=1/GPa)
#
#
# Indices 1 2 3 4 5 6 
#
# 1 0.023134 -0.006130 -0.013797 0.000000 0.000000 0.000000
# 2 -0.006130 0.013800 0.002702 0.000000 0.000000 0.000000
# 3 -0.013797 0.002702 0.024984 0.000000 0.000000 0.000000
# 4 0.000000 0.000000 0.000000 0.007658 0.000000 0.000000
# 5 0.000000 0.000000 0.000000 0.000000 0.063771 0.000000
# 6 0.000000 0.000000 0.000000 0.000000 0.000000 0.025765
#
#
# Mechanical properties :
#
#
# Convention : Reuss Voigt Hill
#
# Bulk Modulus (GPa) = 36.40737 38.55557 37.48147
# Shear Modulus (GPa) = 24.66487 46.87523 35.77005
#
# Velocity S-wave (km/s) = 3.31411 4.56877 3.99105
# Velocity P-wave (km/s) = 5.55488 6.70824 6.15862
#
# Compressibility (1/GPa) = 0.02746696
#
# Stress axis : x y z
#
# Youngs Moduli (GPa) = 43.22686 72.46366 40.02641
#
# Poissons Ratio (x) = 0.44423 0.55223
# Poissons Ratio (y) = 0.26500 -0.10814
# Poissons Ratio (z) = 0.59638 -0.19578
#
# Static dielectric constant tensor:
#      x y z
#    x 1.968100 0.000000 0.000000 
#    y 0.000000 1.909680 0.000000 
#    z 0.000000 0.000000 1.860320 
# 
# From -- ./inp_files/24055.got.cif
#   From: 2010.05.17/outbox.cif.g08.bks.cpg/sg21_13_cif.got.tgz:24055.got - 2010.06.03 23:14:55.
