data_PCOD9323091
_publ_section_title
;
Structure prediction by ZEFSAII (Michael W. Deem and Ramdas Pophale) SiO2 
 PCOD9323091
Probable space group: C 2 2 2
;
_chemical_formula_sum "Si O2"
_cell_formula_units_Z 32
_cell_length_a 18.818660
_cell_length_b 5.255922
_cell_length_c 14.766300
_cell_angle_alpha 90.000000
_cell_angle_beta 90.000000
_cell_angle_gamma 90.000000
_cell_volume 1460.526008
_symmetry_space_group_name_H-M "C 2 2 2"
_symmetry_group_IT_number 21
_symmetry_cell_setting 'orthorhombic'
loop_
_space_group_symop_operation_xyz
x,y,z
-x,-y,z
x,-y,-z
-x,y,-z
1/2+x,1/2+y,z
1/2-x,1/2-y,z
1/2+x,1/2-y,-z
1/2-x,1/2+y,-z
loop_
_atom_site_type_symbol
_atom_site_label
_atom_site_fract_x
_atom_site_fract_y
_atom_site_fract_z
Si Si1 0.000000 0.000000 0.794837
Si Si2 0.382674 0.363368 0.088015
Si Si3 0.000000 0.500000 0.500000
Si Si4 0.500000 0.000000 0.000000
Si Si5 0.831822 0.243275 0.718314
Si Si6 0.918872 0.736794 0.660753
O O1 0.011243 0.227922 0.724316
O O2 0.933782 0.942582 0.859438
O O3 0.443285 0.164272 0.057410
O O4 0.335254 0.267844 0.170802
O O5 0.349997 0.500000 0.000000
O O6 0.950151 0.676750 0.562432
O O7 0.750000 0.250000 0.690133
O O8 0.870046 0.501767 0.689293
O O9 0.873175 0.996727 0.677236
#
# Coordination Sequence:
#
# PCOD9323091 Si02
#       6
#     4   8   2   2   8   8
#     4  10  19  41  60 100 138 174 220 287 367 400
#     4  11  21  35  59  94 132 181 233 294 334 386
#     4  12  24  48  76 122 126 158 228 304 374 426
#     4  12  18  34  60  94 136 166 242 306 356 368
#     4  11  26  48  66  98 144 201 234 265 336 431
#     4  11  25  43  76 101 141 174 222 297 357 417
#
# _framework density 21.909913
#
# number of rings (size 3 to 8) (size 9 to 14) (size 15 to 20)
#    0.000    1.000    2.500    5.250    3.500    4.500 
#    2.250    2.500    0.000    0.000    0.000    0.000 
#    0.000    0.000    0.000    0.000    0.000    0.000 
#
# Total GULP energy -89107.271005 kJ/mol
# GULP energy per Si atom -5569.204438 kJ/mol
# Density = 2.186005 g / cm^3
# Si number density = 21.909913 Si / 1000 Ang^3
#
#
#
# Elastic Constant Matrix: (Units=GPa)
#
#
# Indices 1 2 3 4 5 6 
#
# 1 119.9570 64.3147 32.4391 0.0000 0.0000 0.0000
# 2 64.3147 167.4711 53.2108 0.0000 0.0000 0.0000
# 3 32.4391 53.2108 139.6191 0.0000 0.0000 0.0000
# 4 0.0000 0.0000 0.0000 8.2170 0.0000 0.0000
# 5 0.0000 0.0000 0.0000 0.0000 6.9725 0.0000
# 6 0.0000 0.0000 0.0000 0.0000 0.0000 25.6265
#
#
#
# Elastic Compliance Matrix: (Units=1/GPa)
#
#
# Indices 1 2 3 4 5 6 
#
# 1 0.010629 -0.003751 -0.001040 0.000000 0.000000 0.000000
# 2 -0.003751 0.008118 -0.002222 0.000000 0.000000 0.000000
# 3 -0.001040 -0.002222 0.008251 0.000000 0.000000 0.000000
# 4 0.000000 0.000000 0.000000 0.121698 0.000000 0.000000
# 5 0.000000 0.000000 0.000000 0.000000 0.143420 0.000000
# 6 0.000000 0.000000 0.000000 0.000000 0.000000 0.039022
#
#
# Mechanical properties :
#
#
# Convention : Reuss Voigt Hill
#
# Bulk Modulus (GPa) = 77.09703 80.77517 78.93610
# Shear Modulus (GPa) = 14.30661 26.63538 20.47100
#
# Velocity S-wave (km/s) = 2.55811 3.49044 3.05999
# Velocity P-wave (km/s) = 6.63248 7.29323 6.97069
#
# Compressibility (1/GPa) = 0.01297067
#
# Stress axis : x y z
#
# Youngs Moduli (GPa) = 94.08359 123.18370 121.19955
#
# Poissons Ratio (x) = 0.46212 0.12602
# Poissons Ratio (y) = 0.35295 0.26934
# Poissons Ratio (z) = 0.09782 0.27374
#
# Static dielectric constant tensor:
#      x y z
#    x 2.406320 0.000000 0.000000 
#    y 0.000000 1.950150 0.000000 
#    z 0.000000 0.000000 1.916720 
# 
# From -- ./inp_files/26510.got.cif
#   From: 2010.05.17/outbox.cif.g08.bks.cpg/sg21_14_cif.got.tgz:26510.got - 2010.06.03 23:14:55.
