data_PCOD9323649
_publ_section_title
;
Structure prediction by ZEFSAII (Michael W. Deem and Ramdas Pophale) SiO2 
 PCOD9323649
Probable space group: C 2 2 2
;
_chemical_formula_sum "Si O2"
_cell_formula_units_Z 48
_cell_length_a 13.018472
_cell_length_b 21.796306
_cell_length_c 8.552959
_cell_angle_alpha 90.000000
_cell_angle_beta 90.000000
_cell_angle_gamma 90.000000
_cell_volume 2426.941454
_symmetry_space_group_name_H-M "C 2 2 2"
_symmetry_group_IT_number 21
_symmetry_cell_setting 'orthorhombic'
loop_
_space_group_symop_operation_xyz
x,y,z
-x,-y,z
x,-y,-z
-x,y,-z
1/2+x,1/2+y,z
1/2-x,1/2-y,z
1/2+x,1/2-y,-z
1/2-x,1/2+y,-z
loop_
_atom_site_type_symbol
_atom_site_label
_atom_site_fract_x
_atom_site_fract_y
_atom_site_fract_z
Si Si1 0.403663 0.407367 0.604707
Si Si2 0.042410 0.685439 0.672336
Si Si3 0.234829 0.504830 0.314667
Si Si4 0.767364 0.866720 0.318754
Si Si5 0.545511 0.063054 0.176428
Si Si6 0.526895 0.684447 0.178153
O O1 0.500000 0.427042 0.500000
O O2 0.347353 0.464932 0.681944
O O3 0.318881 0.377699 0.488830
O O4 0.449576 0.356809 0.719749
O O5 0.164307 0.672586 0.670907
O O6 0.017997 0.744476 0.775819
O O7 0.000000 0.697745 0.500000
O O8 0.988947 0.623934 0.736191
O O9 0.201419 0.500000 0.500000
O O10 0.237910 0.434795 0.257586
O O11 0.164946 0.548740 0.207374
O O12 0.857174 0.836764 0.217162
O O13 0.500000 0.000000 0.247214
O O14 0.500000 0.066843 0.000000
O O15 0.500000 0.675158 0.000000
#
# Coordination Sequence:
#
# PCOD9323649 Si02
#       6
#     8   8   8   8   8   8
#     4   9  20  40  64  93 125 159 212 268 315 375
#     4  12  23  41  68  93 122 163 214 264 311 374
#     4  10  20  39  68  97 124 166 214 263 317 375
#     4  10  21  40  65  92 122 161 212 263 313 371
#     4  11  24  40  60  95 135 164 198 255 322 383
#     4  11  25  43  60  87 128 171 209 257 322 383
#
# _framework density 19.777978999999998
#
# number of rings (size 3 to 8) (size 9 to 14) (size 15 to 20)
#    0.000    1.500    1.667    4.500    0.000    9.000 
#    0.000    8.333    0.000    0.000    0.000    0.000 
#    0.000    0.000    0.000    0.000    0.000    0.000 
#
# Total GULP energy -134044.611263 kJ/mol
# GULP energy per Si atom -5585.192136 kJ/mol
# Density = 1.973296 g / cm^3
# Si number density = 19.777979 Si / 1000 Ang^3
#
#
#
# Elastic Constant Matrix: (Units=GPa)
#
#
# Indices 1 2 3 4 5 6 
#
# 1 95.5784 23.4777 43.0052 0.0000 0.0000 0.0000
# 2 23.4777 75.9005 29.8641 0.0000 0.0000 0.0000
# 3 43.0052 29.8641 68.3880 0.0000 0.0000 0.0000
# 4 0.0000 0.0000 0.0000 54.0419 0.0000 0.0000
# 5 0.0000 0.0000 0.0000 0.0000 10.4453 0.0000
# 6 0.0000 0.0000 0.0000 0.0000 0.0000 27.6633
#
#
#
# Elastic Compliance Matrix: (Units=1/GPa)
#
#
# Indices 1 2 3 4 5 6 
#
# 1 0.014666 -0.001096 -0.008744 0.000000 0.000000 0.000000
# 2 -0.001096 0.015990 -0.006294 0.000000 0.000000 0.000000
# 3 -0.008744 -0.006294 0.022869 0.000000 0.000000 0.000000
# 4 0.000000 0.000000 0.000000 0.018504 0.000000 0.000000
# 5 0.000000 0.000000 0.000000 0.000000 0.095737 0.000000
# 6 0.000000 0.000000 0.000000 0.000000 0.000000 0.036149
#
#
# Mechanical properties :
#
#
# Convention : Reuss Voigt Hill
#
# Bulk Modulus (GPa) = 47.03969 48.06231 47.55100
# Shear Modulus (GPa) = 20.55332 27.99811 24.27571
#
# Velocity S-wave (km/s) = 3.22716 3.76655 3.50724
# Velocity P-wave (km/s) = 6.14179 6.57796 6.36362
#
# Compressibility (1/GPa) = 0.02125864
#
# Stress axis : x y z
#
# Youngs Moduli (GPa) = 68.18389 62.53730 43.72665
#
# Poissons Ratio (x) = 0.06855 0.38235
# Poissons Ratio (y) = 0.07474 0.27519
# Poissons Ratio (z) = 0.59620 0.39358
#
# Static dielectric constant tensor:
#      x y z
#    x 1.742840 0.000000 0.000000 
#    y 0.000000 1.687110 0.000000 
#    z 0.000000 0.000000 1.691260 
# 
# From -- ./inp_files/13316.got.cif
#   From: 2010.05.17/outbox.cif.g08.bks.cpg/sg21_7_cif.got.tgz:13316.got - 2010.06.03 23:14:55.
