data_PCOD9323899
_publ_section_title
;
Structure prediction by ZEFSAII (Michael W. Deem and Ramdas Pophale) SiO2 
 PCOD9323899
Probable space group: C 2 2 2
;
_chemical_formula_sum "Si O2"
_cell_formula_units_Z 32
_cell_length_a 5.033337
_cell_length_b 19.875241
_cell_length_c 16.728315
_cell_angle_alpha 90.000000
_cell_angle_beta 90.000000
_cell_angle_gamma 90.000000
_cell_volume 1673.480323
_symmetry_space_group_name_H-M "C 2 2 2"
_symmetry_group_IT_number 21
_symmetry_cell_setting 'orthorhombic'
loop_
_space_group_symop_operation_xyz
x,y,z
-x,-y,z
x,-y,-z
-x,y,-z
1/2+x,1/2+y,z
1/2-x,1/2-y,z
1/2+x,1/2-y,-z
1/2-x,1/2+y,-z
loop_
_atom_site_type_symbol
_atom_site_label
_atom_site_fract_x
_atom_site_fract_y
_atom_site_fract_z
Si Si1 0.997999 0.203261 0.095212
Si Si2 0.985876 0.577913 0.683849
Si Si3 0.977922 0.921056 0.210898
Si Si4 0.255927 0.178114 0.442019
O O1 0.250000 0.250000 0.115173
O O2 0.978027 0.133655 0.142750
O O3 0.750000 0.250000 0.114823
O O4 0.000000 0.190016 0.000000
O O5 0.177533 0.587090 0.759395
O O6 0.130421 0.621010 0.615737
O O7 0.000000 0.500000 0.658992
O O8 0.687127 0.591791 0.715576
O O9 0.000000 0.000000 0.187934
O O10 0.500000 0.191438 0.500000
O O11 0.250000 0.250000 0.395885
O O12 0.000000 0.162919 0.500000
#
# Coordination Sequence:
#
# PCOD9323899 Si02
#       4
#     8   8   8   8
#     4  10  21  37  57  84 116 149 190 236 280 333
#     4  10  21  37  56  82 112 143 184 231 277 332
#     4  10  21  37  57  82 113 147 186 231 278 332
#     4  10  21  37  56  80 109 141 181 228 276 331
#
# _framework density 19.121827
#
# number of rings (size 3 to 8) (size 9 to 14) (size 15 to 20)
#    0.000    2.000    0.000    3.000    0.000    4.000 
#    0.000    1.250    0.000    9.000    0.000    0.000 
#    0.000    0.000    0.000    0.000    0.000    0.000 
#
# Total GULP energy -89094.713738 kJ/mol
# GULP energy per Si atom -5568.419609 kJ/mol
# Density = 1.907830 g / cm^3
# Si number density = 19.121827 Si / 1000 Ang^3
#
#
#
# Elastic Constant Matrix: (Units=GPa)
#
#
# Indices 1 2 3 4 5 6 
#
# 1 107.8166 27.0399 2.6848 0.0000 0.0000 0.0000
# 2 27.0399 132.8814 66.9593 0.0000 0.0000 0.0000
# 3 2.6848 66.9593 41.1360 0.0000 0.0000 0.0000
# 4 0.0000 0.0000 0.0000 106.7292 0.0000 0.0000
# 5 0.0000 0.0000 0.0000 0.0000 33.1067 0.0000
# 6 0.0000 0.0000 0.0000 0.0000 0.0000 45.0978
#
#
#
# Elastic Compliance Matrix: (Units=1/GPa)
#
#
# Indices 1 2 3 4 5 6 
#
# 1 0.011611 -0.011018 0.017178 0.000000 0.000000 0.000000
# 2 -0.011018 0.052318 -0.084442 0.000000 0.000000 0.000000
# 3 0.017178 -0.084442 0.160639 0.000000 0.000000 0.000000
# 4 0.000000 0.000000 0.000000 0.009370 0.000000 0.000000
# 5 0.000000 0.000000 0.000000 0.000000 0.030205 0.000000
# 6 0.000000 0.000000 0.000000 0.000000 0.000000 0.022174
#
#
# Mechanical properties :
#
#
# Convention : Reuss Voigt Hill
#
# Bulk Modulus (GPa) = 14.70538 52.80021 33.75280
# Shear Modulus (GPa) = 10.73997 49.33006 30.03502
#
# Velocity S-wave (km/s) = 2.37251 5.08466 3.96753
# Velocity P-wave (km/s) = 3.90027 7.88316 6.21918
#
# Compressibility (1/GPa) = 0.06800232
#
# Stress axis : x y z
#
# Youngs Moduli (GPa) = 86.12784 19.11380 6.22512
#
# Poissons Ratio (x) = 0.21060 -0.10693
# Poissons Ratio (y) = 0.94900 0.52566
# Poissons Ratio (z) = -1.47947 1.61401
#
# Static dielectric constant tensor:
#      x y z
#    x 1.644070 0.000000 0.000000 
#    y 0.000000 1.745750 0.000000 
#    z 0.000000 0.000000 1.642440 
# 
# From -- ./inp_files/34451.got.cif
#   From: 2010.05.17/outbox.cif.g08.bks.cpg/sg21_18_cif.got.tgz:34451.got - 2010.06.03 23:14:55.
