data_PCOD9323820
_publ_section_title
;
Structure prediction by ZEFSAII (Michael W. Deem and Ramdas Pophale) SiO2 
 PCOD9323820
Probable space group: C 2 2 2
;
_chemical_formula_sum "Si O2"
_cell_formula_units_Z 40
_cell_length_a 8.554850
_cell_length_b 25.405613
_cell_length_c 8.779149
_cell_angle_alpha 90.000000
_cell_angle_beta 90.000000
_cell_angle_gamma 90.000000
_cell_volume 1908.070852
_symmetry_space_group_name_H-M "C 2 2 2"
_symmetry_group_IT_number 21
_symmetry_cell_setting 'orthorhombic'
loop_
_space_group_symop_operation_xyz
x,y,z
-x,-y,z
x,-y,-z
-x,y,-z
1/2+x,1/2+y,z
1/2-x,1/2-y,z
1/2+x,1/2-y,-z
1/2-x,1/2+y,-z
loop_
_atom_site_type_symbol
_atom_site_label
_atom_site_fract_x
_atom_site_fract_y
_atom_site_fract_z
Si Si1 0.205393 0.622952 0.205608
Si Si2 0.466222 0.440168 0.678431
Si Si3 0.644347 0.641113 0.101668
Si Si4 0.940382 0.696564 0.173217
Si Si5 0.389914 0.715934 0.372523
O O1 0.284961 0.574781 0.291708
O O2 0.305355 0.673049 0.268372
O O3 0.029120 0.642609 0.225443
O O4 0.244548 0.615325 0.027473
O O5 0.500000 0.500000 0.724877
O O6 0.500000 0.434765 0.500000
O O7 0.571818 0.400322 0.779916
O O8 0.756212 0.685065 0.173985
O O9 0.500000 0.662231 0.000000
O O10 0.007534 0.743170 0.275582
O O11 0.000000 0.705986 0.000000
O O12 0.500000 0.691317 0.500000
O O13 0.250000 0.750000 0.444970
#
# Coordination Sequence:
#
# PCOD9323820 Si02
#       5
#     8   8   8   8   8
#     4   9  19  36  55  79 110 144 187 230 276 333
#     4  10  21  37  56  79 108 142 183 231 282 339
#     4   9  19  35  57  81 106 142 184 226 276 328
#     4   9  19  36  56  81 114 147 184 232 279 328
#     4  10  21  35  53  81 115 151 190 232 281 336
#
# _framework density 20.963583
#
# number of rings (size 3 to 8) (size 9 to 14) (size 15 to 20)
#    0.000    2.600    0.000    0.600    0.000   12.400 
#    0.000    8.000    0.000    8.400    0.000    0.000 
#    0.000    0.000    0.000    0.000    0.000    0.000 
#
# Total GULP energy -111604.327220 kJ/mol
# GULP energy per Si atom -5580.216361 kJ/mol
# Density = 2.091587 g / cm^3
# Si number density = 20.963583 Si / 1000 Ang^3
#
#
#
# Elastic Constant Matrix: (Units=GPa)
#
#
# Indices 1 2 3 4 5 6 
#
# 1 122.6105 47.4948 28.6747 0.0000 0.0000 0.0000
# 2 47.4948 87.8450 19.4594 0.0000 0.0000 0.0000
# 3 28.6747 19.4594 69.0132 0.0000 0.0000 0.0000
# 4 0.0000 0.0000 0.0000 43.8606 0.0000 0.0000
# 5 0.0000 0.0000 0.0000 0.0000 30.5977 0.0000
# 6 0.0000 0.0000 0.0000 0.0000 0.0000 27.2302
#
#
#
# Elastic Compliance Matrix: (Units=1/GPa)
#
#
# Indices 1 2 3 4 5 6 
#
# 1 0.010889 -0.005210 -0.003055 0.000000 0.000000 0.000000
# 2 -0.005210 0.014635 -0.001962 0.000000 0.000000 0.000000
# 3 -0.003055 -0.001962 0.016312 0.000000 0.000000 0.000000
# 4 0.000000 0.000000 0.000000 0.022800 0.000000 0.000000
# 5 0.000000 0.000000 0.000000 0.000000 0.032682 0.000000
# 6 0.000000 0.000000 0.000000 0.000000 0.000000 0.036724
#
#
# Mechanical properties :
#
#
# Convention : Reuss Voigt Hill
#
# Bulk Modulus (GPa) = 46.76812 52.30295 49.53554
# Shear Modulus (GPa) = 30.93599 32.59368 31.76483
#
# Velocity S-wave (km/s) = 3.84565 3.94734 3.89683
# Velocity P-wave (km/s) = 6.48663 6.76601 6.62780
#
# Compressibility (1/GPa) = 0.02138209
#
# Stress axis : x y z
#
# Youngs Moduli (GPa) = 91.83824 68.32773 61.30274
#
# Poissons Ratio (x) = 0.35602 0.18728
# Poissons Ratio (y) = 0.47851 0.12026
# Poissons Ratio (z) = 0.28057 0.13404
#
# Static dielectric constant tensor:
#      x y z
#    x 1.758230 0.000000 0.000000 
#    y 0.000000 1.767040 0.000000 
#    z 0.000000 0.000000 1.778740 
# 
# From -- ./inp_files/11210.got.cif
#   From: 2010.05.17/outbox.cif.g08.bks.cpg/sg21_6_cif.got.tgz:11210.got - 2010.06.03 23:14:55.
