data_PCOD9323265
_publ_section_title
;
Structure prediction by ZEFSAII (Michael W. Deem and Ramdas Pophale) SiO2 
 PCOD9323265
Probable space group: C 2 2 2
;
_chemical_formula_sum "Si O2"
_cell_formula_units_Z 52
_cell_length_a 17.021190
_cell_length_b 20.610487
_cell_length_c 8.273621
_cell_angle_alpha 90.000000
_cell_angle_beta 90.000000
_cell_angle_gamma 90.000000
_cell_volume 2902.510477
_symmetry_space_group_name_H-M "C 2 2 2"
_symmetry_group_IT_number 21
_symmetry_cell_setting 'orthorhombic'
loop_
_space_group_symop_operation_xyz
x,y,z
-x,-y,z
x,-y,-z
-x,y,-z
1/2+x,1/2+y,z
1/2-x,1/2-y,z
1/2+x,1/2-y,-z
1/2-x,1/2+y,-z
loop_
_atom_site_type_symbol
_atom_site_label
_atom_site_fract_x
_atom_site_fract_y
_atom_site_fract_z
Si Si1 0.947663 0.798139 0.346063
Si Si2 0.500000 0.263126 0.000000
Si Si3 0.879231 0.668991 0.480787
Si Si4 0.228745 0.177095 0.269813
Si Si5 0.046462 0.565528 0.720683
Si Si6 0.407836 0.843499 0.159032
Si Si7 0.197158 0.569434 0.949629
O O1 0.928437 0.722410 0.382130
O O2 0.860329 0.827307 0.331059
O O3 0.000000 0.820543 0.500000
O O4 0.986298 0.801144 0.167654
O O5 0.427180 0.214394 0.964517
O O6 0.791119 0.669249 0.415057
O O7 0.918575 0.600454 0.437489
O O8 0.884654 0.684855 0.667693
O O9 0.250000 0.250000 0.205121
O O10 0.247598 0.119977 0.144146
O O11 0.121626 0.554768 0.835546
O O12 0.000000 0.500000 0.692713
O O13 0.986347 0.614279 0.810030
O O14 0.340314 0.890905 0.097501
O O15 0.231740 0.500000 0.000000
#
# Coordination Sequence:
#
# PCOD9323265 Si02
#       7
#     8   4   8   8   8   8   8
#     4  11  20  39  60  81 112 150 195 254 302 349
#     4  12  20  32  59  86 111 146 200 242 286 352
#     4  10  20  35  50  76 118 163 195 241 290 337
#     4   9  21  40  55  78 120 159 194 248 305 350
#     4  11  19  30  45  73 114 162 203 227 265 333
#     4  12  19  30  51  80 115 157 205 227 274 353
#     4  11  21  35  52  80 122 164 196 241 291 351
#
# _framework density 17.915527000000001
#
# number of rings (size 3 to 8) (size 9 to 14) (size 15 to 20)
#    0.000    1.231    6.154    2.308    0.000    1.231 
#    2.769    0.769    0.000    0.000    0.000    0.538 
#    0.000    0.000    0.000    0.000    0.000    0.000 
#
# Total GULP energy -145094.973331 kJ/mol
# GULP energy per Si atom -5580.575897 kJ/mol
# Density = 1.787475 g / cm^3
# Si number density = 17.915527 Si / 1000 Ang^3
#
#
#
# Elastic Constant Matrix: (Units=GPa)
#
#
# Indices 1 2 3 4 5 6 
#
# 1 100.4499 41.3867 37.0280 0.0000 0.0000 0.0000
# 2 41.3867 67.0255 25.1993 0.0000 0.0000 0.0000
# 3 37.0280 25.1993 111.9212 0.0000 0.0000 0.0000
# 4 0.0000 0.0000 0.0000 13.4724 0.0000 0.0000
# 5 0.0000 0.0000 0.0000 0.0000 15.7899 0.0000
# 6 0.0000 0.0000 0.0000 0.0000 0.0000 27.2561
#
#
#
# Elastic Compliance Matrix: (Units=1/GPa)
#
#
# Indices 1 2 3 4 5 6 
#
# 1 0.014205 -0.007652 -0.002977 0.000000 0.000000 0.000000
# 2 -0.007652 0.020422 -0.002066 0.000000 0.000000 0.000000
# 3 -0.002977 -0.002066 0.010385 0.000000 0.000000 0.000000
# 4 0.000000 0.000000 0.000000 0.074226 0.000000 0.000000
# 5 0.000000 0.000000 0.000000 0.000000 0.063332 0.000000
# 6 0.000000 0.000000 0.000000 0.000000 0.000000 0.036689
#
#
# Mechanical properties :
#
#
# Convention : Reuss Voigt Hill
#
# Bulk Modulus (GPa) = 50.96525 54.06939 52.51732
# Shear Modulus (GPa) = 19.90529 23.02253 21.46391
#
# Velocity S-wave (km/s) = 3.33688 3.58866 3.46506
# Velocity P-wave (km/s) = 6.58450 6.88600 6.73694
#
# Compressibility (1/GPa) = 0.01962121
#
# Stress axis : x y z
#
# Youngs Moduli (GPa) = 70.39593 48.96756 96.29350
#
# Poissons Ratio (x) = 0.37472 0.28664
# Poissons Ratio (y) = 0.53869 0.19897
# Poissons Ratio (z) = 0.20955 0.10118
#
# Static dielectric constant tensor:
#      x y z
#    x 1.625240 0.000000 0.000000 
#    y 0.000000 1.612850 0.000000 
#    z 0.000000 0.000000 1.669120 
# 
# From -- ./inp_files/15390.got.cif
#   From: 2010.05.17/outbox.cif.g08.bks.cpg/sg21_8_cif.got.tgz:15390.got - 2010.06.03 23:14:55.
