data_PCOD9323427
_publ_section_title
;
Structure prediction by ZEFSAII (Michael W. Deem and Ramdas Pophale) SiO2 
 PCOD9323427
Probable space group: C 2 2 2
;
_chemical_formula_sum "Si O2"
_cell_formula_units_Z 32
_cell_length_a 9.232293
_cell_length_b 11.504236
_cell_length_c 12.120595
_cell_angle_alpha 90.000000
_cell_angle_beta 90.000000
_cell_angle_gamma 90.000000
_cell_volume 1287.334182
_symmetry_space_group_name_H-M "C 2 2 2"
_symmetry_group_IT_number 21
_symmetry_cell_setting 'orthorhombic'
loop_
_space_group_symop_operation_xyz
x,y,z
-x,-y,z
x,-y,-z
-x,y,-z
1/2+x,1/2+y,z
1/2-x,1/2-y,z
1/2+x,1/2-y,-z
1/2-x,1/2+y,-z
loop_
_atom_site_type_symbol
_atom_site_label
_atom_site_fract_x
_atom_site_fract_y
_atom_site_fract_z
Si Si1 0.130242 0.906834 0.702974
Si Si2 0.460172 0.261774 0.872541
Si Si3 0.703185 0.049580 0.124487
Si Si4 0.326699 0.855613 0.501445
O O1 0.069199 0.808176 0.782707
O O2 0.201807 0.854515 0.596029
O O3 0.253908 0.965708 0.777651
O O4 0.000000 0.000000 0.680836
O O5 0.437688 0.125493 0.854448
O O6 0.326884 0.351197 0.867019
O O7 0.500000 0.272718 0.000000
O O8 0.706415 0.000000 0.000000
O O9 0.500000 0.828636 0.500000
O O10 0.250000 0.750000 0.425950
O O11 0.330445 0.000000 0.500000
#
# Coordination Sequence:
#
# PCOD9323427 Si02
#       4
#     8   8   8   8
#     4  10  23  43  76 113 154 208 261 318 396 472
#     4  10  20  36  65 105 152 211 255 299 371 461
#     4  10  20  37  66 107 157 204 254 301 370 467
#     4  11  29  54  85 119 154 203 274 347 415 484
#
# _framework density 24.857569999999999
#
# number of rings (size 3 to 8) (size 9 to 14) (size 15 to 20)
#    0.000    1.750    2.500    0.000    3.500    6.500 
#    4.500    0.000    0.000    0.000    0.000    0.000 
#    0.000    0.000    0.000    0.000    0.000    0.000 
#
# Total GULP energy -89130.240449 kJ/mol
# GULP energy per Si atom -5570.640028 kJ/mol
# Density = 2.480099 g / cm^3
# Si number density = 24.857570 Si / 1000 Ang^3
#
#
#
# Elastic Constant Matrix: (Units=GPa)
#
#
# Indices 1 2 3 4 5 6 
#
# 1 105.9726 44.0114 35.7730 0.0000 0.0000 0.0000
# 2 44.0114 123.1356 1.9482 0.0000 0.0000 0.0000
# 3 35.7730 1.9482 47.2106 0.0000 0.0000 0.0000
# 4 0.0000 0.0000 0.0000 8.8900 0.0000 0.0000
# 5 0.0000 0.0000 0.0000 0.0000 -163.4692 0.0000
# 6 0.0000 0.0000 0.0000 0.0000 0.0000 41.6595
#
#
#
# Elastic Compliance Matrix: (Units=1/GPa)
#
#
# Indices 1 2 3 4 5 6 
#
# 1 0.015585 -0.005387 -0.011587 0.000000 0.000000 0.000000
# 2 -0.005387 0.009989 0.003670 0.000000 0.000000 0.000000
# 3 -0.011587 0.003670 0.029810 0.000000 0.000000 0.000000
# 4 0.000000 0.000000 0.000000 0.112485 0.000000 0.000000
# 5 0.000000 0.000000 0.000000 0.000000 -0.006117 0.000000
# 6 0.000000 0.000000 0.000000 0.000000 0.000000 0.024004
#
#
# Mechanical properties :
#
#
# Convention : Reuss Voigt Hill
#
# Bulk Modulus (GPa) = 34.75229 48.86489 41.80859
# Shear Modulus (GPa) = 22.52692 -9.61152 6.45770
#
# Velocity S-wave (km/s) = 3.01365 -1.96851 1.61354
# Velocity P-wave (km/s) = 5.11081 3.81234 4.50856
#
# Compressibility (1/GPa) = 0.02877508
#
# Stress axis : x y z
#
# Youngs Moduli (GPa) = 64.16351 100.11449 33.54559
#
# Poissons Ratio (x) = 0.53933 0.38870
# Poissons Ratio (y) = 0.34566 -0.12311
# Poissons Ratio (z) = 0.74347 -0.36741
#
# Static dielectric constant tensor:
#      x y z
#    x 2.222760 0.000000 0.000000 
#    y 0.000000 2.573260 0.000000 
#    z 0.000000 0.000000 1.851290 
# 
# From -- ./inp_files/29916.got.cif
#   From: 2010.05.17/outbox.cif.g08.bks.cpg/sg21_15_cif.got.tgz:29916.got - 2010.06.03 23:14:55.
