data_PCOD9323569
_publ_section_title
;
Structure prediction by ZEFSAII (Michael W. Deem and Ramdas Pophale) SiO2 
 PCOD9323569
Probable space group: C 2 2 2
;
_chemical_formula_sum "Si O2"
_cell_formula_units_Z 56
_cell_length_a 14.881277
_cell_length_b 11.339558
_cell_length_c 15.024696
_cell_angle_alpha 90.000000
_cell_angle_beta 90.000000
_cell_angle_gamma 90.000000
_cell_volume 2535.373933
_symmetry_space_group_name_H-M "C 2 2 2"
_symmetry_group_IT_number 21
_symmetry_cell_setting 'orthorhombic'
loop_
_space_group_symop_operation_xyz
x,y,z
-x,-y,z
x,-y,-z
-x,y,-z
1/2+x,1/2+y,z
1/2-x,1/2-y,z
1/2+x,1/2-y,-z
1/2-x,1/2+y,-z
loop_
_atom_site_type_symbol
_atom_site_label
_atom_site_fract_x
_atom_site_fract_y
_atom_site_fract_z
Si Si1 0.288956 0.621588 0.441082
Si Si2 0.606283 0.184749 0.010949
Si Si3 0.541622 0.626906 0.685185
Si Si4 0.633206 0.021719 0.332584
Si Si5 0.824961 0.847249 0.846160
Si Si6 0.675871 0.974691 0.135244
Si Si7 0.031265 0.325927 0.400034
O O1 0.291566 0.500000 0.500000
O O2 0.250000 0.750000 0.475951
O O3 0.386563 0.636959 0.395889
O O4 0.222089 0.589026 0.360269
O O5 0.643455 0.302016 0.057265
O O6 0.625976 0.079304 0.081134
O O7 0.500000 0.193184 0.000000
O O8 0.656697 0.142123 0.921582
O O9 0.500000 0.500000 0.694220
O O10 0.594961 0.657469 0.775224
O O11 0.458646 0.708776 0.655733
O O12 0.636696 0.971743 0.233882
O O13 0.615218 0.912537 0.398354
O O14 0.549737 0.107948 0.348591
O O15 0.750000 0.750000 0.817983
O O16 0.776883 0.974086 0.854706
O O17 0.000000 0.308614 0.500000
#
# Coordination Sequence:
#
# PCOD9323569 Si02
#       7
#     8   8   8   8   8   8   8
#     4  12  26  46  75 105 146 196 249 297 363 435
#     4  10  22  36  68 100 129 165 219 283 344 414
#     4  12  27  44  68 101 142 193 232 294 365 435
#     4  11  22  40  72 102 132 181 235 295 340 425
#     4  10  21  45  70  92 133 180 230 272 356 436
#     4  10  20  38  66 100 126 168 227 277 342 419
#     4  11  24  39  65 103 142 179 234 290 356 409
#
# _framework density 22.087471000000001
#
# number of rings (size 3 to 8) (size 9 to 14) (size 15 to 20)
#    0.000    1.143    2.857    4.714    8.000    0.000 
#    0.000    7.143    0.000    0.000    0.000    0.000 
#    0.000    0.000    0.000    0.000    0.000    0.000 
#
# Total GULP energy -156413.870775 kJ/mol
# GULP energy per Si atom -5586.209671 kJ/mol
# Density = 2.203720 g / cm^3
# Si number density = 22.087471 Si / 1000 Ang^3
#
#
#
# Elastic Constant Matrix: (Units=GPa)
#
#
# Indices 1 2 3 4 5 6 
#
# 1 35.1233 10.3020 10.4662 0.0000 0.0000 0.0000
# 2 10.3020 90.3941 41.9205 0.0000 0.0000 0.0000
# 3 10.4662 41.9205 119.5198 0.0000 0.0000 0.0000
# 4 0.0000 0.0000 0.0000 24.0291 0.0000 0.0000
# 5 0.0000 0.0000 0.0000 0.0000 -19.9008 0.0000
# 6 0.0000 0.0000 0.0000 0.0000 0.0000 21.6867
#
#
#
# Elastic Compliance Matrix: (Units=1/GPa)
#
#
# Indices 1 2 3 4 5 6 
#
# 1 0.029739 -0.002605 -0.001690 0.000000 0.000000 0.000000
# 2 -0.002605 0.013440 -0.004486 0.000000 0.000000 0.000000
# 3 -0.001690 -0.004486 0.010088 0.000000 0.000000 0.000000
# 4 0.000000 0.000000 0.000000 0.041616 0.000000 0.000000
# 5 0.000000 0.000000 0.000000 0.000000 -0.050249 0.000000
# 6 0.000000 0.000000 0.000000 0.000000 0.000000 0.046111
#
#
# Mechanical properties :
#
#
# Convention : Reuss Voigt Hill
#
# Bulk Modulus (GPa) = 28.00806 41.15720 34.58263
# Shear Modulus (GPa) = 41.59400 17.31957 29.45678
#
# Velocity S-wave (km/s) = 4.34423 2.80328 3.65587
# Velocity P-wave (km/s) = 6.15396 5.39926 5.78892
#
# Compressibility (1/GPa) = 0.03570401
#
# Stress axis : x y z
#
# Youngs Moduli (GPa) = 33.62586 74.40542 99.12588
#
# Poissons Ratio (x) = 0.19385 0.16756
# Poissons Ratio (y) = 0.08761 0.44466
# Poissons Ratio (z) = 0.05684 0.33377
#
# Static dielectric constant tensor:
#      x y z
#    x 1.802180 0.000000 0.000000 
#    y 0.000000 1.898370 0.000000 
#    z 0.000000 0.000000 1.806030 
# 
# From -- ./inp_files/32307.got.cif
#   From: 2010.05.17/outbox.cif.g08.bks.cpg/sg21_17_cif.got.tgz:32307.got - 2010.06.03 23:14:55.
