data_PCOD9323022
_publ_section_title
;
Structure prediction by ZEFSAII (Michael W. Deem and Ramdas Pophale) SiO2 
 PCOD9323022
Probable space group: C 2 2 2
;
_chemical_formula_sum "Si O2"
_cell_formula_units_Z 54
_cell_length_a 19.964689
_cell_length_b 19.964686
_cell_length_c 8.415775
_cell_angle_alpha 90.000000
_cell_angle_beta 90.000000
_cell_angle_gamma 90.000000
_cell_volume 3354.433212
_symmetry_space_group_name_H-M "C 2 2 2"
_symmetry_group_IT_number 21
_symmetry_cell_setting 'orthorhombic'
loop_
_space_group_symop_operation_xyz
x,y,z
-x,-y,z
x,-y,-z
-x,y,-z
1/2+x,1/2+y,z
1/2-x,1/2-y,z
1/2+x,1/2-y,-z
1/2-x,1/2+y,-z
loop_
_atom_site_type_symbol
_atom_site_label
_atom_site_fract_x
_atom_site_fract_y
_atom_site_fract_z
Si Si1 0.164250 0.835750 0.251294
Si Si2 0.097919 0.097919 0.324877
Si Si3 0.750000 0.250000 0.002291
Si Si4 0.695326 0.804674 0.311273
Si Si5 0.920841 0.079159 0.018508
Si Si6 0.923250 0.762380 0.486720
Si Si7 0.262380 0.423250 0.486720
Si Si8 0.500000 0.500000 0.500000
O O1 0.204231 0.795769 0.115523
O O2 0.120076 0.783396 0.356467
O O3 0.216604 0.879924 0.356467
O O4 0.112012 0.887988 0.171964
O O5 0.109935 0.109935 0.140259
O O6 0.073388 0.166792 0.397927
O O7 0.166792 0.073388 0.397927
O O8 0.043895 0.043895 0.379641
O O9 0.705680 0.205680 0.877819
O O10 0.750000 0.750000 0.377521
O O11 0.623592 0.784471 0.379249
O O12 0.715529 0.876408 0.379249
O O13 0.000000 0.090862 0.000000
O O14 0.909138 0.000000 0.000000
O O15 0.000000 0.738136 0.500000
O O16 0.238136 0.500000 0.500000
#
# Coordination Sequence:
#
# PCOD9323022 Si02
#       8
#     8   8   4   8   8   8   8   2
#     4  11  20  33  51  74 102 142 177 222 267 323
#     4  11  20  31  46  69 102 146 178 217 256 314
#     4  10  20  36  56  76 108 148 182 222 274 320
#     4  10  19  38  57  75 109 145 182 225 271 311
#     4  11  22  29  40  65 105 138 173 211 259 302
#     4  11  21  34  55  78 103 138 188 222 268 324
#     4  11  21  34  55  78 103 138 188 222 268 324
#     4  12  20  28  50  64 104 148 186 204 264 320
#
# _framework density 16.098099000000001
#
# number of rings (size 3 to 8) (size 9 to 14) (size 15 to 20)
#    0.444    0.741    4.444    5.333    4.148    0.000 
#    0.000    0.000    0.000    0.444    0.000    0.000 
#    0.000    2.370    0.000    0.000    0.000    0.000 
#
# Total GULP energy -150463.071355 kJ/mol
# GULP energy per Si atom -5572.706346 kJ/mol
# Density = 1.606146 g / cm^3
# Si number density = 16.098099 Si / 1000 Ang^3
#
#
#
# Elastic Constant Matrix: (Units=GPa)
#
#
# Indices 1 2 3 4 5 6 
#
# 1 81.7523 44.1461 34.5805 0.0000 0.0000 0.0000
# 2 44.1461 81.7524 34.5806 0.0000 0.0000 0.0000
# 3 34.5805 34.5806 105.5909 0.0000 0.0000 0.0000
# 4 0.0000 0.0000 0.0000 11.2785 0.0000 0.0000
# 5 0.0000 0.0000 0.0000 0.0000 11.2785 0.0000
# 6 0.0000 0.0000 0.0000 0.0000 0.0000 28.2852
#
#
#
# Elastic Compliance Matrix: (Units=1/GPa)
#
#
# Indices 1 2 3 4 5 6 
#
# 1 0.018138 -0.008453 -0.003172 0.000000 0.000000 0.000000
# 2 -0.008453 0.018138 -0.003172 0.000000 0.000000 0.000000
# 3 -0.003172 -0.003172 0.011548 0.000000 0.000000 0.000000
# 4 0.000000 0.000000 0.000000 0.088664 0.000000 0.000000
# 5 0.000000 0.000000 0.000000 0.000000 0.088664 0.000000
# 6 0.000000 0.000000 0.000000 0.000000 0.000000 0.035354
#
#
# Mechanical properties :
#
#
# Convention : Reuss Voigt Hill
#
# Bulk Modulus (GPa) = 54.85112 55.07889 54.96500
# Shear Modulus (GPa) = 16.88172 20.55433 18.71802
#
# Velocity S-wave (km/s) = 3.24184 3.57713 3.41361
# Velocity P-wave (km/s) = 6.93972 7.16589 7.05371
#
# Compressibility (1/GPa) = 0.01823117
#
# Stress axis : x y z
#
# Youngs Moduli (GPa) = 55.13183 55.13191 86.59444
#
# Poissons Ratio (x) = 0.46603 0.27467
# Poissons Ratio (y) = 0.46603 0.27467
# Poissons Ratio (z) = 0.17487 0.17487
#
# Static dielectric constant tensor:
#      x y z
#    x 1.515000 0.000000 0.000000 
#    y 0.000000 1.515010 0.000000 
#    z 0.000000 0.000000 1.591230 
# 
# From -- ./inp_files/16816.got.cif
#   From: 2010.05.17/outbox.cif.g08.bks.cpg/sg21_9_cif.got.tgz:16816.got - 2010.06.03 23:14:55.
