data_PCOD9323907
_publ_section_title
;
Structure prediction by ZEFSAII (Michael W. Deem and Ramdas Pophale) SiO2 
 PCOD9323907
Probable space group: C 2 2 2
;
_chemical_formula_sum "Si O2"
_cell_formula_units_Z 48
_cell_length_a 23.878467
_cell_length_b 8.722628
_cell_length_c 11.018485
_cell_angle_alpha 90.000000
_cell_angle_beta 90.000000
_cell_angle_gamma 90.000000
_cell_volume 2294.962944
_symmetry_space_group_name_H-M "C 2 2 2"
_symmetry_group_IT_number 21
_symmetry_cell_setting 'orthorhombic'
loop_
_space_group_symop_operation_xyz
x,y,z
-x,-y,z
x,-y,-z
-x,y,-z
1/2+x,1/2+y,z
1/2-x,1/2-y,z
1/2+x,1/2-y,-z
1/2-x,1/2+y,-z
loop_
_atom_site_type_symbol
_atom_site_label
_atom_site_fract_x
_atom_site_fract_y
_atom_site_fract_z
Si Si1 0.435586 0.461472 0.870848
Si Si2 0.780421 0.896824 0.707034
Si Si3 0.385026 0.794269 0.236053
Si Si4 0.318695 0.053614 0.141953
Si Si5 0.642549 0.663618 0.295877
Si Si6 0.934545 0.684320 0.501356
O O1 0.500000 0.500000 0.868144
O O2 0.430055 0.281452 0.849825
O O3 0.403090 0.559096 0.771677
O O4 0.409938 0.500000 0.000000
O O5 0.750000 0.750000 0.640450
O O6 0.828518 0.805913 0.780587
O O7 0.735414 0.979093 0.793315
O O8 0.812564 0.041945 0.647789
O O9 0.405899 0.772090 0.371914
O O10 0.371367 0.965363 0.201019
O O11 0.327464 0.226119 0.194641
O O12 0.317218 0.000000 0.000000
O O13 0.606960 0.754888 0.396680
O O14 0.936005 0.500000 0.500000
O O15 0.000000 0.737948 0.500000
#
# Coordination Sequence:
#
# PCOD9323907 Si02
#       6
#     8   8   8   8   8   8
#     4  10  21  37  58  89 128 167 213 273 339 405
#     4   9  22  39  60  91 128 164 210 269 322 396
#     4  10  21  41  61  89 129 166 215 276 328 385
#     4  11  22  39  64  96 129 173 223 269 332 404
#     4  11  22  40  66  96 126 176 225 271 343 400
#     4  11  23  42  68  95 130 172 225 284 335 402
#
# _framework density 20.915368999999998
#
# number of rings (size 3 to 8) (size 9 to 14) (size 15 to 20)
#    0.000    1.667    1.667    2.500    0.000    9.333 
#    0.000   12.500    0.000    4.000    0.000    0.000 
#    0.000    0.000    0.000    0.000    0.000    0.000 
#
# Total GULP energy -133613.923052 kJ/mol
# GULP energy per Si atom -5567.246794 kJ/mol
# Density = 2.086777 g / cm^3
# Si number density = 20.915369 Si / 1000 Ang^3
#
#
#
# Elastic Constant Matrix: (Units=GPa)
#
#
# Indices 1 2 3 4 5 6 
#
# 1 94.9545 43.1331 31.8349 0.0000 0.0000 0.0000
# 2 43.1331 114.6108 26.0382 0.0000 0.0000 0.0000
# 3 31.8349 26.0382 100.2815 0.0000 0.0000 0.0000
# 4 0.0000 0.0000 0.0000 16.3172 0.0000 0.0000
# 5 0.0000 0.0000 0.0000 0.0000 15.0895 0.0000
# 6 0.0000 0.0000 0.0000 0.0000 0.0000 22.3857
#
#
#
# Elastic Compliance Matrix: (Units=1/GPa)
#
#
# Indices 1 2 3 4 5 6 
#
# 1 0.013591 -0.004394 -0.003174 0.000000 0.000000 0.000000
# 2 -0.004394 0.010693 -0.001381 0.000000 0.000000 0.000000
# 3 -0.003174 -0.001381 0.011338 0.000000 0.000000 0.000000
# 4 0.000000 0.000000 0.000000 0.061285 0.000000 0.000000
# 5 0.000000 0.000000 0.000000 0.000000 0.066271 0.000000
# 6 0.000000 0.000000 0.000000 0.000000 0.000000 0.044671
#
#
# Mechanical properties :
#
#
# Convention : Reuss Voigt Hill
#
# Bulk Modulus (GPa) = 56.42137 56.87326 56.64731
# Shear Modulus (GPa) = 21.58371 24.68119 23.13245
#
# Velocity S-wave (km/s) = 3.21589 3.43891 3.32927
# Velocity P-wave (km/s) = 6.38935 6.55891 6.47469
#
# Compressibility (1/GPa) = 0.01772378
#
# Stress axis : x y z
#
# Youngs Moduli (GPa) = 73.57599 93.52186 88.19775
#
# Poissons Ratio (x) = 0.41094 0.27992
# Poissons Ratio (y) = 0.32329 0.12184
# Poissons Ratio (z) = 0.23351 0.12920
#
# Static dielectric constant tensor:
#      x y z
#    x 1.784890 0.000000 0.000000 
#    y 0.000000 1.794750 0.000000 
#    z 0.000000 0.000000 1.782540 
# 
# From -- ./inp_files/27329.got.cif
#   From: 2010.05.17/outbox.cif.g08.bks.cpg/sg21_14_cif.got.tgz:27329.got - 2010.06.03 23:14:55.
