data_PCOD9323033
_publ_section_title
;
Structure prediction by ZEFSAII (Michael W. Deem and Ramdas Pophale) SiO2 
 PCOD9323033
Probable space group: C 2 2 2
;
_chemical_formula_sum "Si O2"
_cell_formula_units_Z 34
_cell_length_a 9.522177
_cell_length_b 20.381063
_cell_length_c 8.903647
_cell_angle_alpha 90.000000
_cell_angle_beta 90.000000
_cell_angle_gamma 90.000000
_cell_volume 1727.949376
_symmetry_space_group_name_H-M "C 2 2 2"
_symmetry_group_IT_number 21
_symmetry_cell_setting 'orthorhombic'
loop_
_space_group_symop_operation_xyz
x,y,z
-x,-y,z
x,-y,-z
-x,y,-z
1/2+x,1/2+y,z
1/2-x,1/2-y,z
1/2+x,1/2-y,-z
1/2-x,1/2+y,-z
loop_
_atom_site_type_symbol
_atom_site_label
_atom_site_fract_x
_atom_site_fract_y
_atom_site_fract_z
Si Si1 0.834505 0.157169 0.359853
Si Si2 0.500000 0.000000 0.500000
Si Si3 0.461317 0.199065 0.673136
Si Si4 0.466306 0.424320 0.161745
Si Si5 0.195179 0.390478 0.333015
O O1 0.682714 0.163950 0.281119
O O2 0.920551 0.224597 0.333103
O O3 0.788593 0.142051 0.531379
O O4 0.929889 0.102519 0.288719
O O5 0.399900 0.049537 0.401827
O O6 0.500000 0.183141 0.500000
O O7 0.596932 0.165402 0.744265
O O8 0.500000 0.500000 0.150579
O O9 0.307307 0.415006 0.213236
O O10 0.500000 0.392418 0.000000
#
# Coordination Sequence:
#
# PCOD9323033 Si02
#       5
#     8   2   8   8   8
#     4  10  19  38  62  89 120 154 201 253 311 367
#     4  12  20  36  62 102 124 152 212 262 308 364
#     4   9  18  34  60  93 123 150 192 255 315 367
#     4  11  25  41  57  82 122 168 208 253 310 371
#     4  11  21  37  65  92 124 156 206 258 307 374
#
# _framework density 19.676500000000001
#
# number of rings (size 3 to 8) (size 9 to 14) (size 15 to 20)
#    0.000    1.647    3.529    3.529    0.000    3.765 
#    0.000    5.882    0.000    0.000    0.000    0.000 
#    0.000    0.000    0.000    0.000    0.000    0.000 
#
# Total GULP energy -94647.176245 kJ/mol
# GULP energy per Si atom -5567.480956 kJ/mol
# Density = 1.963172 g / cm^3
# Si number density = 19.676500 Si / 1000 Ang^3
#
#
#
# Elastic Constant Matrix: (Units=GPa)
#
#
# Indices 1 2 3 4 5 6 
#
# 1 158.5277 72.6068 59.1717 0.0000 0.0000 0.0000
# 2 72.6068 91.3273 16.2241 0.0000 0.0000 0.0000
# 3 59.1717 16.2241 33.2371 0.0000 0.0000 0.0000
# 4 0.0000 0.0000 0.0000 -3.3579 0.0000 0.0000
# 5 0.0000 0.0000 0.0000 0.0000 -74.2261 0.0000
# 6 0.0000 0.0000 0.0000 0.0000 0.0000 50.5205
#
#
#
# Elastic Compliance Matrix: (Units=1/GPa)
#
#
# Indices 1 2 3 4 5 6 
#
# 1 0.033042 -0.017321 -0.050369 0.000000 0.000000 0.000000
# 2 -0.017321 0.021069 0.020552 0.000000 0.000000 0.000000
# 3 -0.050369 0.020552 0.109727 0.000000 0.000000 0.000000
# 4 0.000000 0.000000 0.000000 -0.297802 0.000000 0.000000
# 5 0.000000 0.000000 0.000000 0.000000 -0.013472 0.000000
# 6 0.000000 0.000000 0.000000 0.000000 0.000000 0.019794
#
#
# Mechanical properties :
#
#
# Convention : Reuss Voigt Hill
#
# Bulk Modulus (GPa) = 14.37587 64.34416 39.36001
# Shear Modulus (GPa) = -491.23333 3.59327 -243.82003
#
# Velocity S-wave (km/s) = -15.81761 1.35283 -11.14376
# Velocity P-wave (km/s) = 18.06305 5.93399 12.06361
#
# Compressibility (1/GPa) = 0.06956100
#
# Stress axis : x y z
#
# Youngs Moduli (GPa) = 30.26463 47.46295 9.11353
#
# Poissons Ratio (x) = 0.82210 0.45904
# Poissons Ratio (y) = 0.52421 -0.18730
# Poissons Ratio (z) = 1.52441 -0.97545
#
# Static dielectric constant tensor:
#      x y z
#    x 1.750380 0.000000 0.000000 
#    y 0.000000 2.549940 0.000000 
#    z 0.000000 0.000000 1.695120 
# 
# From -- ./inp_files/10572.got.cif
#   From: 2010.05.17/outbox.cif.g08.bks.cpg/sg21_6_cif.got.tgz:10572.got - 2010.06.03 23:14:55.
