data_PCOD9323901
_publ_section_title
;
Structure prediction by ZEFSAII (Michael W. Deem and Ramdas Pophale) SiO2 
 PCOD9323901
Probable space group: C 2 2 2
;
_chemical_formula_sum "Si O2"
_cell_formula_units_Z 28
_cell_length_a 5.168147
_cell_length_b 15.188881
_cell_length_c 16.007363
_cell_angle_alpha 90.000000
_cell_angle_beta 90.000000
_cell_angle_gamma 90.000000
_cell_volume 1256.551900
_symmetry_space_group_name_H-M "C 2 2 2"
_symmetry_group_IT_number 21
_symmetry_cell_setting 'orthorhombic'
loop_
_space_group_symop_operation_xyz
x,y,z
-x,-y,z
x,-y,-z
-x,y,-z
1/2+x,1/2+y,z
1/2-x,1/2-y,z
1/2+x,1/2-y,-z
1/2-x,1/2+y,-z
loop_
_atom_site_type_symbol
_atom_site_label
_atom_site_fract_x
_atom_site_fract_y
_atom_site_fract_z
Si Si1 0.533132 0.105082 0.266395
Si Si2 0.744741 0.143788 0.449925
Si Si3 0.000000 0.808141 0.000000
Si Si4 0.524935 0.393836 0.825409
O O1 0.673803 0.122630 0.354561
O O2 0.741683 0.139025 0.200282
O O3 0.246914 0.137588 0.240020
O O4 0.500000 0.000000 0.261550
O O5 0.500000 0.109285 0.500000
O O6 0.750000 0.250000 0.454620
O O7 0.000000 0.112796 0.500000
O O8 0.750000 0.750000 0.978560
O O9 0.081356 0.864779 0.919247
O O10 0.500000 0.500000 0.821562
#
# Coordination Sequence:
#
# PCOD9323901 Si02
#       4
#     8   8   4   8
#     4  10  21  38  61  88 115 153 203 247 294 354
#     4  10  21  37  57  84 118 155 194 240 299 358
#     4  12  25  40  61  94 124 154 204 252 299 358
#     4  10  22  41  62  85 120 160 197 243 302 360
#
# _framework density 22.283200999999998
#
# number of rings (size 3 to 8) (size 9 to 14) (size 15 to 20)
#    0.000    1.714    0.000    3.857    0.000    4.000 
#    0.000    7.143    0.000    0.000    0.000    0.000 
#    0.000    0.000    0.000    0.000    0.000    0.000 
#
# Total GULP energy -78108.240402 kJ/mol
# GULP energy per Si atom -5579.160029 kJ/mol
# Density = 2.223248 g / cm^3
# Si number density = 22.283201 Si / 1000 Ang^3
#
#
#
# Elastic Constant Matrix: (Units=GPa)
#
#
# Indices 1 2 3 4 5 6 
#
# 1 186.3287 31.6285 52.8049 0.0000 0.0000 0.0000
# 2 31.6285 47.4716 11.7006 0.0000 0.0000 0.0000
# 3 52.8049 11.7006 139.8398 0.0000 0.0000 0.0000
# 4 0.0000 0.0000 0.0000 26.5750 0.0000 0.0000
# 5 0.0000 0.0000 0.0000 0.0000 43.0162 0.0000
# 6 0.0000 0.0000 0.0000 0.0000 0.0000 -10.1432
#
#
#
# Elastic Compliance Matrix: (Units=1/GPa)
#
#
# Indices 1 2 3 4 5 6 
#
# 1 0.006646 -0.003890 -0.002184 0.000000 0.000000 0.000000
# 2 -0.003890 0.023785 -0.000521 0.000000 0.000000 0.000000
# 3 -0.002184 -0.000521 0.008019 0.000000 0.000000 0.000000
# 4 0.000000 0.000000 0.000000 0.037629 0.000000 0.000000
# 5 0.000000 0.000000 0.000000 0.000000 0.023247 0.000000
# 6 0.000000 0.000000 0.000000 0.000000 0.000000 -0.098588
#
#
# Mechanical properties :
#
#
# Convention : Reuss Voigt Hill
#
# Bulk Modulus (GPa) = 39.58775 62.87868 51.23321
# Shear Modulus (GPa) = 223.71563 30.38999 127.05281
#
# Velocity S-wave (km/s) = 10.03068 3.69698 7.55917
# Velocity P-wave (km/s) = 12.32708 6.81930 9.96142
#
# Compressibility (1/GPa) = 0.02526034
#
# Stress axis : x y z
#
# Youngs Moduli (GPa) = 150.46399 42.04282 124.69713
#
# Poissons Ratio (x) = 0.16353 0.27236
# Poissons Ratio (y) = 0.58526 0.06501
# Poissons Ratio (z) = 0.32864 0.02192
#
# Static dielectric constant tensor:
#      x y z
#    x 1.801760 0.000000 0.000000 
#    y 0.000000 1.810270 0.000000 
#    z 0.000000 0.000000 1.995600 
# 
# From -- ./inp_files/28552.got.cif
#   From: 2010.05.17/outbox.cif.g08.bks.cpg/sg21_15_cif.got.tgz:28552.got - 2010.06.03 23:14:55.
