data_PCOD9323432
_publ_section_title
;
Structure prediction by ZEFSAII (Michael W. Deem and Ramdas Pophale) SiO2 
 PCOD9323432
Probable space group: C 2 2 2
;
_chemical_formula_sum "Si O2"
_cell_formula_units_Z 48
_cell_length_a 10.195601
_cell_length_b 15.962276
_cell_length_c 14.645748
_cell_angle_alpha 90.000000
_cell_angle_beta 90.000000
_cell_angle_gamma 90.000000
_cell_volume 2383.522216
_symmetry_space_group_name_H-M "C 2 2 2"
_symmetry_group_IT_number 21
_symmetry_cell_setting 'orthorhombic'
loop_
_space_group_symop_operation_xyz
x,y,z
-x,-y,z
x,-y,-z
-x,y,-z
1/2+x,1/2+y,z
1/2-x,1/2-y,z
1/2+x,1/2-y,-z
1/2-x,1/2+y,-z
loop_
_atom_site_type_symbol
_atom_site_label
_atom_site_fract_x
_atom_site_fract_y
_atom_site_fract_z
Si Si1 0.500000 0.500000 0.000000
Si Si2 0.386962 0.097447 0.331086
Si Si3 0.611617 0.264595 0.570664
Si Si4 0.842172 0.135325 0.891207
Si Si5 0.533450 0.093804 0.864609
Si Si6 0.000000 0.272598 0.000000
Si Si7 0.596236 0.419841 0.697979
Si Si8 0.000000 0.500000 0.500000
O O1 0.405618 0.444733 0.061517
O O2 0.374546 0.196462 0.348820
O O3 0.483535 0.091715 0.245018
O O4 0.249443 0.054274 0.304805
O O5 0.424045 0.058171 0.428135
O O6 0.500000 0.243262 0.500000
O O7 0.750000 0.250000 0.520740
O O8 0.583216 0.355867 0.613060
O O9 0.686054 0.120879 0.881364
O O10 0.908579 0.135142 0.790737
O O11 0.892359 0.212498 0.952730
O O12 0.500000 0.000000 0.896356
O O13 0.452665 0.163506 0.920447
O O14 0.500000 0.500000 0.697198
#
# Coordination Sequence:
#
# PCOD9323432 Si02
#       8
#     2   8   8   8   8   4   8   2
#     4  10  20  36  68  84 120 164 206 258 316 378
#     4  10  22  40  66  92 131 170 216 275 334 395
#     4  10  21  38  62  89 126 166 212 266 332 393
#     4  10  22  41  62  92 128 169 215 264 327 385
#     4  11  23  41  64  99 131 171 219 275 332 393
#     4  11  23  39  65  94 132 174 219 263 319 399
#     4  10  21  40  64  93 126 168 216 272 326 392
#     4  12  20  40  66  94 122 176 228 262 340 398
#
# _framework density 20.138263999999999
#
# number of rings (size 3 to 8) (size 9 to 14) (size 15 to 20)
#    0.000    1.667    2.500    1.750    2.333    5.667 
#    0.000    0.000    0.000    4.000    0.000    0.000 
#    0.000    0.000    0.000    0.000    0.000    0.000 
#
# Total GULP energy -133685.243570 kJ/mol
# GULP energy per Si atom -5570.218482 kJ/mol
# Density = 2.009243 g / cm^3
# Si number density = 20.138264 Si / 1000 Ang^3
#
#
#
# Elastic Constant Matrix: (Units=GPa)
#
#
# Indices 1 2 3 4 5 6 
#
# 1 73.4438 43.4467 40.4329 0.0000 0.0000 0.0000
# 2 43.4467 126.8833 36.2143 0.0000 0.0000 0.0000
# 3 40.4329 36.2143 116.4734 0.0000 0.0000 0.0000
# 4 0.0000 0.0000 0.0000 57.2613 0.0000 0.0000
# 5 0.0000 0.0000 0.0000 0.0000 18.5454 0.0000
# 6 0.0000 0.0000 0.0000 0.0000 0.0000 28.9851
#
#
#
# Elastic Compliance Matrix: (Units=1/GPa)
#
#
# Indices 1 2 3 4 5 6 
#
# 1 0.019545 -0.005219 -0.005162 0.000000 0.000000 0.000000
# 2 -0.005219 0.010042 -0.001311 0.000000 0.000000 0.000000
# 3 -0.005162 -0.001311 0.010785 0.000000 0.000000 0.000000
# 4 0.000000 0.000000 0.000000 0.017464 0.000000 0.000000
# 5 0.000000 0.000000 0.000000 0.000000 0.053922 0.000000
# 6 0.000000 0.000000 0.000000 0.000000 0.000000 0.034501
#
#
# Mechanical properties :
#
#
# Convention : Reuss Voigt Hill
#
# Bulk Modulus (GPa) = 58.86228 61.88758 60.37493
# Shear Modulus (GPa) = 28.52154 34.07213 31.29683
#
# Velocity S-wave (km/s) = 3.76744 4.11775 3.94648
# Velocity P-wave (km/s) = 6.94387 7.30793 7.12822
#
# Compressibility (1/GPa) = 0.01698881
#
# Stress axis : x y z
#
# Youngs Moduli (GPa) = 51.16317 99.57717 92.71980
#
# Poissons Ratio (x) = 0.51972 0.47864
# Poissons Ratio (y) = 0.26703 0.12152
# Poissons Ratio (z) = 0.26412 0.13051
#
# Static dielectric constant tensor:
#      x y z
#    x 1.755160 0.000000 0.000000 
#    y 0.000000 1.764130 0.000000 
#    z 0.000000 0.000000 1.759680 
# 
# From -- ./inp_files/31553.got.cif
#   From: 2010.05.17/outbox.cif.g08.bks.cpg/sg21_16_cif.got.tgz:31553.got - 2010.06.03 23:14:55.
