data_PCOD9323120
_publ_section_title
;
Structure prediction by ZEFSAII (Michael W. Deem and Ramdas Pophale) SiO2 
 PCOD9323120
Probable space group: C 2 2 2
;
_chemical_formula_sum "Si O2"
_cell_formula_units_Z 32
_cell_length_a 9.096338
_cell_length_b 31.302867
_cell_length_c 6.318828
_cell_angle_alpha 90.000000
_cell_angle_beta 90.000000
_cell_angle_gamma 90.000000
_cell_volume 1799.232301
_symmetry_space_group_name_H-M "C 2 2 2"
_symmetry_group_IT_number 21
_symmetry_cell_setting 'orthorhombic'
loop_
_space_group_symop_operation_xyz
x,y,z
-x,-y,z
x,-y,-z
-x,y,-z
1/2+x,1/2+y,z
1/2-x,1/2-y,z
1/2+x,1/2-y,-z
1/2-x,1/2+y,-z
loop_
_atom_site_type_symbol
_atom_site_label
_atom_site_fract_x
_atom_site_fract_y
_atom_site_fract_z
Si Si1 0.500000 0.000000 0.000000
Si Si2 0.155453 0.875812 0.615438
Si Si3 0.152588 0.791794 0.379997
Si Si4 0.747482 0.966442 0.305080
Si Si5 0.000000 0.000000 0.000000
Si Si6 0.500000 0.664369 0.000000
O O1 0.607610 0.026162 0.845418
O O2 0.217825 0.833406 0.501177
O O3 0.249550 0.918351 0.608596
O O4 0.000000 0.884884 0.500000
O O5 0.106060 0.863467 0.851714
O O6 0.250000 0.750000 0.379997
O O7 0.000000 0.782523 0.500000
O O8 0.102915 0.807135 0.149154
O O9 0.749113 0.000000 0.500000
O O10 0.891568 0.973811 0.156364
#
# Coordination Sequence:
#
# PCOD9323120 Si02
#       6
#     2   8   8   8   2   4
#     4  10  26  38  52  78 114 154 186 212 272 344
#     4   9  18  33  56  81 104 136 180 225 268 315
#     4   9  19  35  55  80 108 139 176 218 267 321
#     4  11  21  38  57  80 113 146 181 230 276 319
#     4  10  20  30  60  92 102 134 194 230 270 332
#     4   8  17  32  54  80 110 136 172 224 267 310
#
# _framework density 17.785363
#
# number of rings (size 3 to 8) (size 9 to 14) (size 15 to 20)
#    0.000    3.000    0.000    3.000    0.000   10.000 
#    0.000    5.000    0.000    1.500    0.000    0.000 
#    0.000    0.000    0.000    0.000    0.000    0.000 
#
# Total GULP energy -89170.597005 kJ/mol
# GULP energy per Si atom -5573.162313 kJ/mol
# Density = 1.774488 g / cm^3
# Si number density = 17.785363 Si / 1000 Ang^3
#
#
#
# Elastic Constant Matrix: (Units=GPa)
#
#
# Indices 1 2 3 4 5 6 
#
# 1 66.9938 54.4639 31.5834 0.0000 0.0000 0.0000
# 2 54.4639 183.5210 68.5743 0.0000 0.0000 0.0000
# 3 31.5834 68.5743 122.9978 0.0000 0.0000 0.0000
# 4 0.0000 0.0000 0.0000 -5.6192 0.0000 0.0000
# 5 0.0000 0.0000 0.0000 0.0000 14.5179 0.0000
# 6 0.0000 0.0000 0.0000 0.0000 0.0000 16.3863
#
#
#
# Elastic Compliance Matrix: (Units=1/GPa)
#
#
# Indices 1 2 3 4 5 6 
#
# 1 0.020188 -0.005121 -0.002329 0.000000 0.000000 0.000000
# 2 -0.005121 0.008182 -0.003247 0.000000 0.000000 0.000000
# 3 -0.002329 -0.003247 0.010538 0.000000 0.000000 0.000000
# 4 0.000000 0.000000 0.000000 -0.177960 0.000000 0.000000
# 5 0.000000 0.000000 0.000000 0.000000 0.068881 0.000000
# 6 0.000000 0.000000 0.000000 0.000000 0.000000 0.061027
#
#
# Mechanical properties :
#
#
# Convention : Reuss Voigt Hill
#
# Bulk Modulus (GPa) = 57.09322 75.86175 66.47749
# Shear Modulus (GPa) = 276.45592 19.64972 148.05282
#
# Velocity S-wave (km/s) = 12.48109 3.32750 9.13372
# Velocity P-wave (km/s) = 15.48788 7.58351 12.19393
#
# Compressibility (1/GPa) = 0.01751522
#
# Stress axis : x y z
#
# Youngs Moduli (GPa) = 49.53471 122.22141 94.89223
#
# Poissons Ratio (x) = 0.62590 0.22098
# Poissons Ratio (y) = 0.25367 0.30808
# Poissons Ratio (z) = 0.11535 0.39681
#
# Static dielectric constant tensor:
#      x y z
#    x 1.595300 0.000000 0.000000 
#    y 0.000000 1.615060 0.000000 
#    z 0.000000 0.000000 1.676810 
# 
# From -- ./inp_files/1630.got.cif
#   From: 2010.05.17/outbox.cif.g08.bks.cpg/sg21_1_cif.got.tgz:1630.got - 2010.06.03 23:14:55.
