data_PCOD9323717
_publ_section_title
;
Structure prediction by ZEFSAII (Michael W. Deem and Ramdas Pophale) SiO2 
 PCOD9323717
Probable space group: C 2 2 2
;
_chemical_formula_sum "Si O2"
_cell_formula_units_Z 54
_cell_length_a 14.486432
_cell_length_b 5.469534
_cell_length_c 31.787510
_cell_angle_alpha 90.000000
_cell_angle_beta 90.000000
_cell_angle_gamma 90.000000
_cell_volume 2518.652596
_symmetry_space_group_name_H-M "C 2 2 2"
_symmetry_group_IT_number 21
_symmetry_cell_setting 'orthorhombic'
loop_
_space_group_symop_operation_xyz
x,y,z
-x,-y,z
x,-y,-z
-x,y,-z
1/2+x,1/2+y,z
1/2-x,1/2-y,z
1/2+x,1/2-y,-z
1/2-x,1/2+y,-z
loop_
_atom_site_type_symbol
_atom_site_label
_atom_site_fract_x
_atom_site_fract_y
_atom_site_fract_z
Si Si1 0.190705 0.993737 0.627198
Si Si2 0.000000 0.500000 0.737827
Si Si3 0.139161 0.251507 0.022534
Si Si4 0.650730 0.372864 0.284640
Si Si5 0.143714 0.161204 0.541445
Si Si6 0.500000 0.000000 0.500000
Si Si7 0.097144 0.146040 0.204422
Si Si8 0.559818 0.250618 0.884726
O O1 0.250000 0.750000 0.619721
O O2 0.250000 0.250000 0.628716
O O3 0.145501 0.962229 0.673354
O O4 0.128057 0.029326 0.586000
O O5 0.939994 0.700262 0.713458
O O6 0.925241 0.386636 0.769362
O O7 0.250000 0.250000 0.019712
O O8 0.111482 0.266449 0.071136
O O9 0.106299 0.500000 0.000000
O O10 0.107149 0.000000 0.000000
O O11 0.750000 0.250000 0.287704
O O12 0.653637 0.493961 0.238415
O O13 0.250000 0.250000 0.541760
O O14 0.069038 0.365077 0.531954
O O15 0.134693 0.000000 0.500000
O O16 0.123164 0.209972 0.156840
O O17 0.000000 0.000000 0.200713
O O18 0.500000 0.500000 0.888045
O O19 0.500000 0.000000 0.878495
#
# Coordination Sequence:
#
# PCOD9323717 Si02
#       8
#     8   4   8   8   8   2   8   8
#     4  10  24  43  71 103 139 185 233 285 346 412
#     4  10  20  41  64  88 135 181 210 285 348 384
#     4  10  22  41  59  86 128 165 206 266 329 393
#     4  10  23  41  67  99 134 180 236 281 342 416
#     4  11  23  45  73  99 146 185 233 295 360 408
#     4  12  26  42  72 116 136 192 246 290 346 450
#     4   9  20  39  60  90 128 169 214 276 340 395
#     4  11  22  39  64  92 124 164 216 271 323 395
#
# _framework density 21.440034000000001
#
# number of rings (size 3 to 8) (size 9 to 14) (size 15 to 20)
#    0.000    1.778    1.481    1.556    6.222    2.370 
#    2.667    5.185    0.000    0.000    0.000    0.000 
#    0.000    0.000    0.000    0.000    0.000    0.000 
#
# Total GULP energy -150486.040444 kJ/mol
# GULP energy per Si atom -5573.557053 kJ/mol
# Density = 2.139124 g / cm^3
# Si number density = 21.440034 Si / 1000 Ang^3
#
#
#
# Elastic Constant Matrix: (Units=GPa)
#
#
# Indices 1 2 3 4 5 6 
#
# 1 78.7296 34.7105 48.4544 0.0000 0.0000 0.0000
# 2 34.7105 119.8836 54.8744 0.0000 0.0000 0.0000
# 3 48.4544 54.8744 210.2437 0.0000 0.0000 0.0000
# 4 0.0000 0.0000 0.0000 50.2183 0.0000 0.0000
# 5 0.0000 0.0000 0.0000 0.0000 37.4970 0.0000
# 6 0.0000 0.0000 0.0000 0.0000 0.0000 6.2264
#
#
#
# Elastic Compliance Matrix: (Units=1/GPa)
#
#
# Indices 1 2 3 4 5 6 
#
# 1 0.015885 -0.003320 -0.002794 0.000000 0.000000 0.000000
# 2 -0.003320 0.010167 -0.001888 0.000000 0.000000 0.000000
# 3 -0.002794 -0.001888 0.005893 0.000000 0.000000 0.000000
# 4 0.000000 0.000000 0.000000 0.019913 0.000000 0.000000
# 5 0.000000 0.000000 0.000000 0.000000 0.026669 0.000000
# 6 0.000000 0.000000 0.000000 0.000000 0.000000 0.160606
#
#
# Mechanical properties :
#
#
# Convention : Reuss Voigt Hill
#
# Bulk Modulus (GPa) = 62.73721 76.10395 69.42058
# Shear Modulus (GPa) = 19.19731 36.84285 28.02008
#
# Velocity S-wave (km/s) = 2.99556 4.14987 3.61904
# Velocity P-wave (km/s) = 6.42571 7.65083 7.06488
#
# Compressibility (1/GPa) = 0.01593950
#
# Stress axis : x y z
#
# Youngs Moduli (GPa) = 62.95077 98.35589 169.68373
#
# Poissons Ratio (x) = 0.32657 0.47418
# Poissons Ratio (y) = 0.20901 0.32044
# Poissons Ratio (z) = 0.17591 0.18574
#
# Static dielectric constant tensor:
#      x y z
#    x 1.625530 0.000000 0.000000 
#    y 0.000000 1.923640 0.000000 
#    z 0.000000 0.000000 1.789940 
# 
# From -- ./inp_files/39631.got.cif
#   From: 2010.05.17/outbox.cif.g08.bks.cpg/sg21_20_cif.got.tgz:39631.got - 2010.06.03 23:14:55.
