data_PCOD9323686
_publ_section_title
;
Structure prediction by ZEFSAII (Michael W. Deem and Ramdas Pophale) SiO2 
 PCOD9323686
Probable space group: C 2 2 2
;
_chemical_formula_sum "Si O2"
_cell_formula_units_Z 64
_cell_length_a 33.113896
_cell_length_b 9.173005
_cell_length_c 10.121222
_cell_angle_alpha 90.000000
_cell_angle_beta 90.000000
_cell_angle_gamma 90.000000
_cell_volume 3074.360995
_symmetry_space_group_name_H-M "C 2 2 2"
_symmetry_group_IT_number 21
_symmetry_cell_setting 'orthorhombic'
loop_
_space_group_symop_operation_xyz
x,y,z
-x,-y,z
x,-y,-z
-x,y,-z
1/2+x,1/2+y,z
1/2-x,1/2-y,z
1/2+x,1/2-y,-z
1/2-x,1/2+y,-z
loop_
_atom_site_type_symbol
_atom_site_label
_atom_site_fract_x
_atom_site_fract_y
_atom_site_fract_z
Si Si1 0.798403 0.083115 0.358927
Si Si2 0.042035 0.911586 0.805494
Si Si3 0.501916 0.173549 0.348182
Si Si4 0.208373 0.435302 0.648382
Si Si5 0.089943 0.330435 0.757303
Si Si6 0.643789 0.934139 0.148170
Si Si7 0.387779 0.660742 0.980654
Si Si8 0.386350 0.432734 0.643866
O O1 0.798365 0.260262 0.363477
O O2 0.754615 0.042623 0.301844
O O3 0.841595 0.037754 0.299117
O O4 0.798360 0.000000 0.500000
O O5 0.065819 0.861005 0.934809
O O6 0.031609 0.765736 0.725814
O O7 0.076304 0.003398 0.727190
O O8 0.000000 0.000000 0.821137
O O9 0.500000 0.226904 0.500000
O O10 0.543093 0.193604 0.266293
O O11 0.500000 0.000000 0.353583
O O12 0.204145 0.500000 0.500000
O O13 0.178604 0.513701 0.751928
O O14 0.103720 0.493793 0.785867
O O15 0.109290 0.243046 0.635118
O O16 0.108536 0.244712 0.881627
O O17 0.635602 0.764106 0.121907
O O18 0.650267 0.000000 0.000000
O O19 0.370344 0.500000 0.000000
O O20 0.389000 0.500000 0.500000
#
# Coordination Sequence:
#
# PCOD9323686 Si02
#       8
#     8   8   8   8   8   8   8   8
#     4   9  20  38  67  97 134 176 220 269 335 409
#     4  12  24  39  63  90 122 164 222 272 325 386
#     4  11  24  41  59  89 129 164 210 278 337 392
#     4  10  20  40  67 102 134 172 221 278 334 403
#     4  11  21  43  61  87 127 172 221 267 336 398
#     4  10  23  41  67  92 134 179 219 270 342 408
#     4  11  23  42  61  91 124 171 222 276 319 399
#     4  11  21  36  63  92 126 170 215 267 336 397
#
# _framework density 20.817333999999999
#
# number of rings (size 3 to 8) (size 9 to 14) (size 15 to 20)
#    0.000    1.375    3.750    1.500    0.000    3.750 
#    4.500    0.625    2.750    6.000    0.000    0.000 
#    0.000    0.000    0.000    0.000    0.000    0.000 
#
# Total GULP energy -178325.527754 kJ/mol
# GULP energy per Si atom -5572.672742 kJ/mol
# Density = 2.076995 g / cm^3
# Si number density = 20.817334 Si / 1000 Ang^3
#
#
#
# Elastic Constant Matrix: (Units=GPa)
#
#
# Indices 1 2 3 4 5 6 
#
# 1 137.8411 40.8342 29.3907 0.0000 0.0000 0.0000
# 2 40.8342 134.5256 41.4771 0.0000 0.0000 0.0000
# 3 29.3907 41.4771 68.2356 0.0000 0.0000 0.0000
# 4 0.0000 0.0000 0.0000 28.5860 0.0000 0.0000
# 5 0.0000 0.0000 0.0000 0.0000 17.7732 0.0000
# 6 0.0000 0.0000 0.0000 0.0000 0.0000 8.7737
#
#
#
# Elastic Compliance Matrix: (Units=1/GPa)
#
#
# Indices 1 2 3 4 5 6 
#
# 1 0.008309 -0.001746 -0.002518 0.000000 0.000000 0.000000
# 2 -0.001746 0.009515 -0.005032 0.000000 0.000000 0.000000
# 3 -0.002518 -0.005032 0.018798 0.000000 0.000000 0.000000
# 4 0.000000 0.000000 0.000000 0.034982 0.000000 0.000000
# 5 0.000000 0.000000 0.000000 0.000000 0.056265 0.000000
# 6 0.000000 0.000000 0.000000 0.000000 0.000000 0.113977
#
#
# Mechanical properties :
#
#
# Convention : Reuss Voigt Hill
#
# Bulk Modulus (GPa) = 55.45859 62.66737 59.06298
# Shear Modulus (GPa) = 18.76558 26.28659 22.52609
#
# Velocity S-wave (km/s) = 3.00566 3.55734 3.29307
# Velocity P-wave (km/s) = 6.22444 6.85870 6.54925
#
# Compressibility (1/GPa) = 0.01803147
#
# Stress axis : x y z
#
# Youngs Moduli (GPa) = 120.35552 105.09919 53.19726
#
# Poissons Ratio (x) = 0.18349 0.13393
# Poissons Ratio (y) = 0.21012 0.26767
# Poissons Ratio (z) = 0.30300 0.52882
#
# Static dielectric constant tensor:
#      x y z
#    x 1.773990 0.000000 0.000000 
#    y 0.000000 1.810410 0.000000 
#    z 0.000000 0.000000 1.884910 
# 
# From -- ./inp_files/28084.got.cif
#   From: 2010.05.17/outbox.cif.g08.bks.cpg/sg21_15_cif.got.tgz:28084.got - 2010.06.03 23:14:55.
