data_PCOD9323139
_publ_section_title
;
Structure prediction by ZEFSAII (Michael W. Deem and Ramdas Pophale) SiO2 
 PCOD9323139
Probable space group: C 2 2 2
;
_chemical_formula_sum "Si O2"
_cell_formula_units_Z 40
_cell_length_a 5.210332
_cell_length_b 23.983573
_cell_length_c 15.080619
_cell_angle_alpha 90.000000
_cell_angle_beta 90.000000
_cell_angle_gamma 90.000000
_cell_volume 1884.510010
_symmetry_space_group_name_H-M "C 2 2 2"
_symmetry_group_IT_number 21
_symmetry_cell_setting 'orthorhombic'
loop_
_space_group_symop_operation_xyz
x,y,z
-x,-y,z
x,-y,-z
-x,y,-z
1/2+x,1/2+y,z
1/2-x,1/2-y,z
1/2+x,1/2-y,-z
1/2-x,1/2+y,-z
loop_
_atom_site_type_symbol
_atom_site_label
_atom_site_fract_x
_atom_site_fract_y
_atom_site_fract_z
Si Si1 0.903049 0.378753 0.091009
Si Si2 0.248970 0.474825 0.401273
Si Si3 0.875875 0.310698 0.273733
Si Si4 0.101187 0.062817 0.144996
Si Si5 0.874200 0.866365 0.326936
O O1 0.901469 0.337695 0.175739
O O2 0.619271 0.404186 0.091261
O O3 0.115826 0.427394 0.105394
O O4 0.000000 0.350830 0.000000
O O5 0.500000 0.500000 0.357595
O O6 0.245142 0.500000 0.500000
O O7 0.277119 0.408774 0.402119
O O8 0.000000 0.500000 0.354445
O O9 0.750000 0.250000 0.266803
O O10 0.664341 0.344738 0.331368
O O11 0.159658 0.318724 0.314260
O O12 0.124625 0.094227 0.239579
O O13 0.000000 0.000000 0.150411
#
# Coordination Sequence:
#
# PCOD9323139 Si02
#       5
#     8   8   8   8   8
#     4  10  21  35  50  74 105 140 187 237 283 336
#     4  10  20  34  56  90 122 149 177 217 280 346
#     4  10  21  38  57  79 106 145 196 244 286 325
#     4  10  20  32  50  75 107 145 180 220 278 347
#     4  10  20  35  56  82 113 143 185 233 273 335
#
# _framework density 21.225677999999998
#
# number of rings (size 3 to 8) (size 9 to 14) (size 15 to 20)
#    0.000    2.000    0.000    3.600    0.000    5.600 
#    0.000    6.000    0.000    0.000    0.000   56.000 
#    0.000    0.000    0.000    0.000    0.000    0.000 
#
# Total GULP energy -111508.997511 kJ/mol
# GULP energy per Si atom -5575.449876 kJ/mol
# Density = 2.117737 g / cm^3
# Si number density = 21.225678 Si / 1000 Ang^3
#
#
#
# Elastic Constant Matrix: (Units=GPa)
#
#
# Indices 1 2 3 4 5 6 
#
# 1 147.7464 25.2730 17.0755 0.0000 0.0000 0.0000
# 2 25.2730 94.7379 18.3446 0.0000 0.0000 0.0000
# 3 17.0755 18.3446 50.5612 0.0000 0.0000 0.0000
# 4 0.0000 0.0000 0.0000 10.7738 0.0000 0.0000
# 5 0.0000 0.0000 0.0000 0.0000 -19.4788 0.0000
# 6 0.0000 0.0000 0.0000 0.0000 0.0000 38.3029
#
#
#
# Elastic Compliance Matrix: (Units=1/GPa)
#
#
# Indices 1 2 3 4 5 6 
#
# 1 0.007254 -0.001571 -0.001880 0.000000 0.000000 0.000000
# 2 -0.001571 0.011693 -0.003712 0.000000 0.000000 0.000000
# 3 -0.001880 -0.003712 0.021760 0.000000 0.000000 0.000000
# 4 0.000000 0.000000 0.000000 0.092818 0.000000 0.000000
# 5 0.000000 0.000000 0.000000 0.000000 -0.051338 0.000000
# 6 0.000000 0.000000 0.000000 0.000000 0.000000 0.026108
#
#
# Mechanical properties :
#
#
# Convention : Reuss Voigt Hill
#
# Bulk Modulus (GPa) = 37.90566 46.04796 41.97681
# Shear Modulus (GPa) = 38.04738 21.40974 29.72856
#
# Velocity S-wave (km/s) = 4.23841 3.17940 3.74651
# Velocity P-wave (km/s) = 6.46910 5.93462 6.20762
#
# Compressibility (1/GPa) = 0.02638129
#
# Stress axis : x y z
#
# Youngs Moduli (GPa) = 137.84773 85.51861 45.95665
#
# Poissons Ratio (x) = 0.13437 0.08639
# Poissons Ratio (y) = 0.21659 0.17059
# Poissons Ratio (z) = 0.25914 0.31744
#
# Static dielectric constant tensor:
#      x y z
#    x 1.793670 0.000000 0.000000 
#    y 0.000000 1.787460 0.000000 
#    z 0.000000 0.000000 1.780770 
# 
# From -- ./inp_files/34875.got.cif
#   From: 2010.05.17/outbox.cif.g08.bks.cpg/sg21_18_cif.got.tgz:34875.got - 2010.06.03 23:14:55.
