data_PCOD9323771
_publ_section_title
;
Structure prediction by ZEFSAII (Michael W. Deem and Ramdas Pophale) SiO2 
 PCOD9323771
Probable space group: C 2 2 2
;
_chemical_formula_sum "Si O2"
_cell_formula_units_Z 18
_cell_length_a 18.745885
_cell_length_b 5.533347
_cell_length_c 6.910521
_cell_angle_alpha 90.000000
_cell_angle_beta 90.000000
_cell_angle_gamma 90.000000
_cell_volume 716.810974
_symmetry_space_group_name_H-M "C 2 2 2"
_symmetry_group_IT_number 21
_symmetry_cell_setting 'orthorhombic'
loop_
_space_group_symop_operation_xyz
x,y,z
-x,-y,z
x,-y,-z
-x,y,-z
1/2+x,1/2+y,z
1/2-x,1/2-y,z
1/2+x,1/2-y,-z
1/2-x,1/2+y,-z
loop_
_atom_site_type_symbol
_atom_site_label
_atom_site_fract_x
_atom_site_fract_y
_atom_site_fract_z
Si Si1 0.668915 0.250788 0.826087
Si Si2 0.616379 0.243903 0.247153
Si Si3 0.500000 0.000000 0.500000
O O1 0.750000 0.250000 0.900579
O O2 0.649782 0.493875 0.712122
O O3 0.661511 0.999856 0.714487
O O4 0.616229 0.246858 0.011459
O O5 0.544857 0.177961 0.360273
#
# Coordination Sequence:
#
# PCOD9323771 Si02
#       3
#     8   8   2
#     4  10  20  43  75 100 119 173 243 290 329 384
#     4  10  22  39  66  97 138 174 220 282 331 410
#     4  12  28  44  60 106 152 188 216 260 364 420
#
# _framework density 25.111218999999998
#
# number of rings (size 3 to 8) (size 9 to 14) (size 15 to 20)
#    0.000    1.778    0.000    6.667    0.000    8.889 
#    0.000   15.556    0.000    0.000    0.000    0.000 
#    0.000    0.000    0.000    0.000    0.000    0.000 
#
# Total GULP energy -50190.848324 kJ/mol
# GULP energy per Si atom -5576.760925 kJ/mol
# Density = 2.505406 g / cm^3
# Si number density = 25.111219 Si / 1000 Ang^3
#
#
#
# Elastic Constant Matrix: (Units=GPa)
#
#
# Indices 1 2 3 4 5 6 
#
# 1 125.2327 60.4914 65.7046 0.0000 0.0000 0.0000
# 2 60.4914 316.4643 40.4054 0.0000 0.0000 0.0000
# 3 65.7046 40.4054 166.2132 0.0000 0.0000 0.0000
# 4 0.0000 0.0000 0.0000 -9.7590 0.0000 0.0000
# 5 0.0000 0.0000 0.0000 0.0000 -64.7580 0.0000
# 6 0.0000 0.0000 0.0000 0.0000 0.0000 12.0859
#
#
#
# Elastic Compliance Matrix: (Units=1/GPa)
#
#
# Indices 1 2 3 4 5 6 
#
# 1 0.010776 -0.001565 -0.003880 0.000000 0.000000 0.000000
# 2 -0.001565 0.003488 -0.000230 0.000000 0.000000 0.000000
# 3 -0.003880 -0.000230 0.007606 0.000000 0.000000 0.000000
# 4 0.000000 0.000000 0.000000 -0.102470 0.000000 0.000000
# 5 0.000000 0.000000 0.000000 0.000000 -0.015442 0.000000
# 6 0.000000 0.000000 0.000000 0.000000 0.000000 0.082741
#
#
# Mechanical properties :
#
#
# Convention : Reuss Voigt Hill
#
# Bulk Modulus (GPa) = 95.02898 104.56812 99.79855
# Shear Modulus (GPa) = 3215.82656 16.93436 1616.38046
#
# Velocity S-wave (km/s) = 35.82476 2.59969 25.39854
# Velocity P-wave (km/s) = 41.82276 7.12345 29.99906
#
# Compressibility (1/GPa) = 0.01052311
#
# Stress axis : x y z
#
# Youngs Moduli (GPa) = 92.79608 286.67465 131.47901
#
# Poissons Ratio (x) = 0.44851 0.51008
# Poissons Ratio (y) = 0.14518 0.03018
# Poissons Ratio (z) = 0.36001 0.06580
#
# Static dielectric constant tensor:
#      x y z
#    x 1.972030 0.000000 0.000000 
#    y 0.000000 2.065040 0.000000 
#    z 0.000000 0.000000 2.152800 
# 
# From -- ./inp_files/8317.got.cif
#   From: 2010.05.17/outbox.cif.g08.bks.cpg/sg21_5_cif.got.tgz:8317.got - 2010.06.03 23:14:55.
