data_PCOD9323052
_publ_section_title
;
Structure prediction by ZEFSAII (Michael W. Deem and Ramdas Pophale) SiO2 
 PCOD9323052
Probable space group: C 2 2 2
;
_chemical_formula_sum "Si O2"
_cell_formula_units_Z 40
_cell_length_a 15.508357
_cell_length_b 14.054071
_cell_length_c 7.575824
_cell_angle_alpha 90.000000
_cell_angle_beta 90.000000
_cell_angle_gamma 90.000000
_cell_volume 1651.192889
_symmetry_space_group_name_H-M "C 2 2 2"
_symmetry_group_IT_number 21
_symmetry_cell_setting 'orthorhombic'
loop_
_space_group_symop_operation_xyz
x,y,z
-x,-y,z
x,-y,-z
-x,y,-z
1/2+x,1/2+y,z
1/2-x,1/2-y,z
1/2+x,1/2-y,-z
1/2-x,1/2+y,-z
loop_
_atom_site_type_symbol
_atom_site_label
_atom_site_fract_x
_atom_site_fract_y
_atom_site_fract_z
Si Si1 0.968146 0.601171 0.702084
Si Si2 0.837844 0.108497 0.190934
Si Si3 0.700176 0.381483 0.808326
Si Si4 0.514627 0.696047 0.288005
Si Si5 0.289322 0.113397 0.528519
O O1 0.007449 0.696058 0.782290
O O2 0.867917 0.624420 0.665118
O O3 0.000000 0.500000 0.780300
O O4 0.000000 0.596525 0.500000
O O5 0.938865 0.133270 0.199293
O O6 0.794645 0.148583 0.367965
O O7 0.817057 0.995822 0.196751
O O8 0.792577 0.144636 0.013151
O O9 0.609474 0.340928 0.744658
O O10 0.777672 0.353844 0.674845
O O11 0.500000 0.695779 0.500000
O O12 0.289691 0.000000 0.500000
#
# Coordination Sequence:
#
# PCOD9323052 Si02
#       5
#     8   8   8   8   8
#     4  10  21  41  67  91 119 173 222 264 313 367
#     4  10  21  37  66  96 136 163 202 262 320 387
#     4  10  21  38  64 100 131 168 202 256 327 385
#     4  11  21  36  63  96 129 169 211 253 320 384
#     4  10  19  38  69  92 123 165 215 262 313 377
#
# _framework density 24.224910999999999
#
# number of rings (size 3 to 8) (size 9 to 14) (size 15 to 20)
#    0.000    1.800    4.000    1.200    0.000    3.200 
#    0.000    0.000   26.400    3.600    0.000    0.000 
#    0.000    0.000    0.000    0.000    0.000    0.000 
#
# Total GULP energy -111606.692004 kJ/mol
# GULP energy per Si atom -5580.334600 kJ/mol
# Density = 2.416977 g / cm^3
# Si number density = 24.224911 Si / 1000 Ang^3
#
#
#
# Elastic Constant Matrix: (Units=GPa)
#
#
# Indices 1 2 3 4 5 6 
#
# 1 96.4129 12.4445 16.2000 0.0000 0.0000 0.0000
# 2 12.4445 79.9466 17.4091 0.0000 0.0000 0.0000
# 3 16.2000 17.4091 106.4682 0.0000 0.0000 0.0000
# 4 0.0000 0.0000 0.0000 -76.6897 0.0000 0.0000
# 5 0.0000 0.0000 0.0000 0.0000 -2.3794 0.0000
# 6 0.0000 0.0000 0.0000 0.0000 0.0000 30.2670
#
#
#
# Elastic Compliance Matrix: (Units=1/GPa)
#
#
# Indices 1 2 3 4 5 6 
#
# 1 0.010787 -0.001370 -0.001417 0.000000 0.000000 0.000000
# 2 -0.001370 0.013144 -0.001941 0.000000 0.000000 0.000000
# 3 -0.001417 -0.001941 0.009925 0.000000 0.000000 0.000000
# 4 0.000000 0.000000 0.000000 -0.013040 0.000000 0.000000
# 5 0.000000 0.000000 0.000000 0.000000 -0.420283 0.000000
# 6 0.000000 0.000000 0.000000 0.000000 0.000000 0.033039
#
#
# Mechanical properties :
#
#
# Convention : Reuss Voigt Hill
#
# Bulk Modulus (GPa) = 40.98386 41.65945 41.32166
# Shear Modulus (GPa) = -14.33339 6.02452 -4.15443
#
# Velocity S-wave (km/s) = -2.43509 1.57871 -1.31098
# Velocity P-wave (km/s) = 3.00809 4.53402 3.84746
#
# Compressibility (1/GPa) = 0.02439985
#
# Stress axis : x y z
#
# Youngs Moduli (GPa) = 92.70343 76.07858 100.75092
#
# Poissons Ratio (x) = 0.10427 0.14279
# Poissons Ratio (y) = 0.12705 0.19553
# Poissons Ratio (z) = 0.13138 0.14765
#
# Static dielectric constant tensor:
#      x y z
#    x 2.976200 0.000000 0.000000 
#    y 0.000000 1.974810 0.000000 
#    z 0.000000 0.000000 1.952230 
# 
# From -- ./inp_files/14534.got.cif
#   From: 2010.05.17/outbox.cif.g08.bks.cpg/sg21_8_cif.got.tgz:14534.got - 2010.06.03 23:14:55.
