data_PCOD9323644
_publ_section_title
;
Structure prediction by ZEFSAII (Michael W. Deem and Ramdas Pophale) SiO2 
 PCOD9323644
Probable space group: C 2 2 2
;
_chemical_formula_sum "Si O2"
_cell_formula_units_Z 64
_cell_length_a 24.071051
_cell_length_b 15.427852
_cell_length_c 9.180020
_cell_angle_alpha 90.000000
_cell_angle_beta 90.000000
_cell_angle_gamma 90.000000
_cell_volume 3409.134568
_symmetry_space_group_name_H-M "C 2 2 2"
_symmetry_group_IT_number 21
_symmetry_cell_setting 'orthorhombic'
loop_
_space_group_symop_operation_xyz
x,y,z
-x,-y,z
x,-y,-z
-x,y,-z
1/2+x,1/2+y,z
1/2-x,1/2-y,z
1/2+x,1/2-y,-z
1/2-x,1/2+y,-z
loop_
_atom_site_type_symbol
_atom_site_label
_atom_site_fract_x
_atom_site_fract_y
_atom_site_fract_z
Si Si1 0.479301 0.597595 0.163545
Si Si2 0.159115 0.499389 0.837637
Si Si3 0.796073 0.823748 0.151999
Si Si4 0.615222 0.188833 0.812143
Si Si5 0.233527 0.001055 0.325744
Si Si6 0.494528 0.233292 0.329408
Si Si7 0.443064 0.126792 0.908704
Si Si8 0.851197 0.918879 0.890022
O O1 0.500000 0.500000 0.197421
O O2 0.504606 0.668853 0.269767
O O3 0.412692 0.606150 0.161042
O O4 0.500000 0.617063 0.000000
O O5 0.146762 0.598369 0.797152
O O6 0.205858 0.467035 0.726871
O O7 0.100674 0.447798 0.858748
O O8 0.185318 0.500000 0.000000
O O9 0.750000 0.750000 0.136781
O O10 0.848569 0.773001 0.217754
O O11 0.775970 0.903712 0.251726
O O12 0.816568 0.854693 0.993328
O O13 0.563329 0.188883 0.707854
O O14 0.590803 0.186151 0.976787
O O15 0.229528 0.000000 0.500000
O O16 0.186027 0.944753 0.247500
O O17 0.500000 0.231411 0.500000
O O18 0.538721 0.180190 0.232457
O O19 0.500000 0.101432 0.000000
O O20 0.860115 0.000000 0.000000
#
# Coordination Sequence:
#
# PCOD9323644 Si02
#       8
#     8   8   8   8   8   8   8   8
#     4  11  21  40  65  91 114 156 209 264 315 362
#     4  10  20  39  68  93 118 158 212 260 299 364
#     4  11  21  39  67  91 119 159 213 267 308 360
#     4  10  21  37  65  89 117 156 203 264 308 353
#     4  11  25  41  59  90 131 170 207 250 315 391
#     4  11  24  38  55  89 128 163 199 244 310 383
#     4   9  20  39  63  94 124 157 207 259 307 359
#     4  10  21  39  63  88 119 156 211 262 307 364
#
# _framework density 18.773094
#
# number of rings (size 3 to 8) (size 9 to 14) (size 15 to 20)
#    0.000    1.625    2.500    3.750    3.500    8.000 
#    0.000    1.250    0.000    0.000    0.000    0.000 
#    0.000    0.000    0.000    0.000    0.000    0.000 
#
# Total GULP energy -178507.351507 kJ/mol
# GULP energy per Si atom -5578.354735 kJ/mol
# Density = 1.873037 g / cm^3
# Si number density = 18.773094 Si / 1000 Ang^3
#
#
#
# Elastic Constant Matrix: (Units=GPa)
#
#
# Indices 1 2 3 4 5 6 
#
# 1 95.1909 28.6377 30.2849 0.0000 0.0000 0.0000
# 2 28.6377 66.7049 39.3328 0.0000 0.0000 0.0000
# 3 30.2849 39.3328 99.7686 0.0000 0.0000 0.0000
# 4 0.0000 0.0000 0.0000 -2.0636 0.0000 0.0000
# 5 0.0000 0.0000 0.0000 0.0000 10.3238 0.0000
# 6 0.0000 0.0000 0.0000 0.0000 0.0000 22.5465
#
#
#
# Elastic Compliance Matrix: (Units=1/GPa)
#
#
# Indices 1 2 3 4 5 6 
#
# 1 0.012414 -0.004049 -0.002172 0.000000 0.000000 0.000000
# 2 -0.004049 0.020852 -0.006992 0.000000 0.000000 0.000000
# 3 -0.002172 -0.006992 0.013439 0.000000 0.000000 0.000000
# 4 0.000000 0.000000 0.000000 -0.484594 0.000000 0.000000
# 5 0.000000 0.000000 0.000000 0.000000 0.096864 0.000000
# 6 0.000000 0.000000 0.000000 0.000000 0.000000 0.044353
#
#
# Mechanical properties :
#
#
# Convention : Reuss Voigt Hill
#
# Bulk Modulus (GPa) = 49.30956 50.90836 50.10896
# Shear Modulus (GPa) = -18.97633 17.05528 -0.96053
#
# Velocity S-wave (km/s) = -3.18280 3.01740 -0.71607
# Velocity P-wave (km/s) = 3.57997 6.27026 5.10550
#
# Compressibility (1/GPa) = 0.02028004
#
# Stress axis : x y z
#
# Youngs Moduli (GPa) = 80.55182 47.95611 74.41034
#
# Poissons Ratio (x) = 0.19417 0.16163
# Poissons Ratio (y) = 0.32615 0.52026
# Poissons Ratio (z) = 0.17497 0.33530
#
# Static dielectric constant tensor:
#      x y z
#    x 1.690480 0.000000 0.000000 
#    y 0.000000 1.677730 0.000000 
#    z 0.000000 0.000000 1.632140 
# 
# From -- ./inp_files/18633.got.cif
#   From: 2010.05.17/outbox.cif.g08.bks.cpg/sg21_10_cif.got.tgz:18633.got - 2010.06.03 23:14:55.
