data_PCOD9323930
_publ_section_title
;
Structure prediction by ZEFSAII (Michael W. Deem and Ramdas Pophale) SiO2 
 PCOD9323930
Probable space group: C 2 2 2
;
_chemical_formula_sum "Si O2"
_cell_formula_units_Z 58
_cell_length_a 25.154415
_cell_length_b 11.098246
_cell_length_c 9.987472
_cell_angle_alpha 90.000000
_cell_angle_beta 90.000000
_cell_angle_gamma 90.000000
_cell_volume 2788.201416
_symmetry_space_group_name_H-M "C 2 2 2"
_symmetry_group_IT_number 21
_symmetry_cell_setting 'orthorhombic'
loop_
_space_group_symop_operation_xyz
x,y,z
-x,-y,z
x,-y,-z
-x,y,-z
1/2+x,1/2+y,z
1/2-x,1/2-y,z
1/2+x,1/2-y,-z
1/2-x,1/2+y,-z
loop_
_atom_site_type_symbol
_atom_site_label
_atom_site_fract_x
_atom_site_fract_y
_atom_site_fract_z
Si Si1 0.263831 0.624790 0.920218
Si Si2 0.571338 0.036276 0.758714
Si Si3 0.000000 0.500000 0.500000
Si Si4 0.099610 0.725461 0.188811
Si Si5 0.885528 0.875651 0.074897
Si Si6 0.486307 0.267098 0.154291
Si Si7 0.804531 0.682435 0.616437
Si Si8 0.314883 0.897984 0.677340
O O1 0.250000 0.750000 0.998164
O O2 0.325317 0.618910 0.874114
O O3 0.225552 0.632327 0.793772
O O4 0.253631 0.500000 0.000000
O O5 0.545950 0.995931 0.617721
O O6 0.531499 0.129103 0.827263
O O7 0.625317 0.107976 0.730699
O O8 0.587357 0.915394 0.834359
O O9 0.145564 0.735070 0.299847
O O10 0.042320 0.783269 0.230137
O O11 0.116002 0.779682 0.046625
O O12 0.933252 0.845420 0.176930
O O13 0.898153 0.000000 0.000000
O O14 0.500000 0.290661 0.000000
O O15 0.750000 0.750000 0.652029
O O16 0.803930 0.539556 0.647310
O O17 0.810821 0.682431 0.455599
#
# Coordination Sequence:
#
# PCOD9323930 Si02
#       8
#     8   8   2   8   8   8   8   8
#     4  11  25  41  65  97 136 177 224 281 340 402
#     4  11  21  37  63  97 128 164 202 268 331 397
#     4  12  20  36  62  96 142 156 204 270 342 394
#     4  10  21  37  61  94 128 169 213 265 324 400
#     4  10  24  40  62  93 134 173 221 271 326 390
#     4  10  21  38  60  92 129 166 206 263 327 394
#     4  10  22  38  65  90 123 171 219 269 324 400
#     4  10  23  41  61  94 131 169 219 270 335 399
#
# _framework density 20.801942
#
# number of rings (size 3 to 8) (size 9 to 14) (size 15 to 20)
#    0.000    1.655    1.379    2.897    7.724    6.345 
#    0.000    0.000    0.000    0.000    0.000    0.966 
#    0.000    0.000    0.000    0.000    0.000    0.000 
#
# Total GULP energy -161595.961693 kJ/mol
# GULP energy per Si atom -5572.274541 kJ/mol
# Density = 2.075460 g / cm^3
# Si number density = 20.801942 Si / 1000 Ang^3
#
#
#
# Elastic Constant Matrix: (Units=GPa)
#
#
# Indices 1 2 3 4 5 6 
#
# 1 208.4615 25.6488 49.9920 0.0000 0.0000 0.0000
# 2 25.6488 52.2004 11.2845 0.0000 0.0000 0.0000
# 3 49.9920 11.2845 60.8133 0.0000 0.0000 0.0000
# 4 0.0000 0.0000 0.0000 13.8387 0.0000 0.0000
# 5 0.0000 0.0000 0.0000 0.0000 23.1153 0.0000
# 6 0.0000 0.0000 0.0000 0.0000 0.0000 30.8952
#
#
#
# Elastic Compliance Matrix: (Units=1/GPa)
#
#
# Indices 1 2 3 4 5 6 
#
# 1 0.006172 -0.002017 -0.004700 0.000000 0.000000 0.000000
# 2 -0.002017 0.020616 -0.002168 0.000000 0.000000 0.000000
# 3 -0.004700 -0.002168 0.020709 0.000000 0.000000 0.000000
# 4 0.000000 0.000000 0.000000 0.072261 0.000000 0.000000
# 5 0.000000 0.000000 0.000000 0.000000 0.043261 0.000000
# 6 0.000000 0.000000 0.000000 0.000000 0.000000 0.032367
#
#
# Mechanical properties :
#
#
# Convention : Reuss Voigt Hill
#
# Bulk Modulus (GPa) = 33.63626 55.03619 44.33622
# Shear Modulus (GPa) = 22.41485 29.20652 25.81068
#
# Velocity S-wave (km/s) = 3.28615 3.75110 3.52630
# Velocity P-wave (km/s) = 5.53202 6.72872 6.15950
#
# Compressibility (1/GPa) = 0.02972983
#
# Stress axis : x y z
#
# Youngs Moduli (GPa) = 162.01566 48.50489 48.28719
#
# Poissons Ratio (x) = 0.09782 0.22694
# Poissons Ratio (y) = 0.32675 0.10467
# Poissons Ratio (z) = 0.76142 0.10514
#
# Static dielectric constant tensor:
#      x y z
#    x 1.805710 0.000000 0.000000 
#    y 0.000000 1.814080 0.000000 
#    z 0.000000 0.000000 1.729690 
# 
# From -- ./inp_files/19185.got.cif
#   From: 2010.05.17/outbox.cif.g08.bks.cpg/sg21_10_cif.got.tgz:19185.got - 2010.06.03 23:14:55.
