data_PCOD9323793
_publ_section_title
;
Structure prediction by ZEFSAII (Michael W. Deem and Ramdas Pophale) SiO2 
 PCOD9323793
Probable space group: C 2 2 2
;
_chemical_formula_sum "Si O2"
_cell_formula_units_Z 48
_cell_length_a 17.477993
_cell_length_b 19.465947
_cell_length_c 5.421489
_cell_angle_alpha 90.000000
_cell_angle_beta 90.000000
_cell_angle_gamma 90.000000
_cell_volume 1844.529811
_symmetry_space_group_name_H-M "C 2 2 2"
_symmetry_group_IT_number 21
_symmetry_cell_setting 'orthorhombic'
loop_
_space_group_symop_operation_xyz
x,y,z
-x,-y,z
x,-y,-z
-x,y,-z
1/2+x,1/2+y,z
1/2-x,1/2-y,z
1/2+x,1/2-y,-z
1/2-x,1/2+y,-z
loop_
_atom_site_type_symbol
_atom_site_label
_atom_site_fract_x
_atom_site_fract_y
_atom_site_fract_z
Si Si1 0.122143 0.928677 0.608522
Si Si2 0.046758 0.755149 0.245726
Si Si3 0.121187 0.885771 0.123800
Si Si4 0.044911 0.589335 0.249002
Si Si5 0.766441 0.672108 0.346528
Si Si6 0.700353 0.887441 0.849671
O O1 0.075487 0.909549 0.365262
O O2 0.188909 0.871837 0.639045
O O3 0.154938 0.000000 0.500000
O O4 0.088005 0.920620 0.878861
O O5 0.119750 0.803501 0.179560
O O6 0.053507 0.672819 0.246319
O O7 0.000000 0.771182 0.500000
O O8 0.000000 0.773208 0.000000
O O9 0.210698 0.909698 0.130310
O O10 0.132014 0.561751 0.227375
O O11 0.000000 0.572740 0.500000
O O12 0.000000 0.572232 0.000000
O O13 0.750000 0.750000 0.284622
O O14 0.799096 0.665111 0.619551
O O15 0.816742 0.641579 0.123395
#
# Coordination Sequence:
#
# PCOD9323793 Si02
#       6
#     8   8   8   8   8   8
#     4  10  21  36  55  83 118 149 188 245 302 352
#     4  10  21  35  51  76 111 150 191 242 301 349
#     4  10  21  36  59  82 106 149 200 247 291 357
#     4  10  21  34  49  75 116 160 189 230 294 358
#     4  10  21  32  53  86 113 146 185 246 297 350
#     4  10  21  34  53  81 115 146 197 238 289 348
#
# _framework density 26.022891000000001
#
# number of rings (size 3 to 8) (size 9 to 14) (size 15 to 20)
#    0.000    2.000    0.000    3.000    9.333    0.000 
#    0.000    0.000    0.000    7.500    0.000    0.000 
#    0.000  160.000    0.000    0.000    0.000    0.000 
#
# Total GULP energy -133711.273729 kJ/mol
# GULP energy per Si atom -5571.303072 kJ/mol
# Density = 2.596366 g / cm^3
# Si number density = 26.022891 Si / 1000 Ang^3
#
#
#
# Elastic Constant Matrix: (Units=GPa)
#
#
# Indices 1 2 3 4 5 6 
#
# 1 131.4676 14.7442 52.1059 0.0000 0.0000 0.0000
# 2 14.7442 114.6171 32.3064 0.0000 0.0000 0.0000
# 3 52.1059 32.3064 281.3085 0.0000 0.0000 0.0000
# 4 0.0000 0.0000 0.0000 -104.7524 0.0000 0.0000
# 5 0.0000 0.0000 0.0000 0.0000 30.8023 0.0000
# 6 0.0000 0.0000 0.0000 0.0000 0.0000 26.1719
#
#
#
# Elastic Compliance Matrix: (Units=1/GPa)
#
#
# Indices 1 2 3 4 5 6 
#
# 1 0.008256 -0.000652 -0.001454 0.000000 0.000000 0.000000
# 2 -0.000652 0.009068 -0.000921 0.000000 0.000000 0.000000
# 3 -0.001454 -0.000921 0.003930 0.000000 0.000000 0.000000
# 4 0.000000 0.000000 0.000000 -0.009546 0.000000 0.000000
# 5 0.000000 0.000000 0.000000 0.000000 0.032465 0.000000
# 6 0.000000 0.000000 0.000000 0.000000 0.000000 0.038209
#
#
# Mechanical properties :
#
#
# Convention : Reuss Voigt Hill
#
# Bulk Modulus (GPa) = 65.79014 80.63401 73.21208
# Shear Modulus (GPa) = 53.47458 18.99349 36.23404
#
# Velocity S-wave (km/s) = 4.53802 2.70455 3.73552
# Velocity P-wave (km/s) = 7.26600 6.38795 6.84108
#
# Compressibility (1/GPa) = 0.01519985
#
# Stress axis : x y z
#
# Youngs Moduli (GPa) = 121.12425 110.27697 254.45774
#
# Poissons Ratio (x) = 0.07191 0.37007
# Poissons Ratio (y) = 0.07899 0.23426
# Poissons Ratio (z) = 0.17616 0.10152
#
# Static dielectric constant tensor:
#      x y z
#    x 2.150960 0.000000 0.000000 
#    y 0.000000 2.140000 0.000000 
#    z 0.000000 0.000000 2.045490 
# 
# From -- ./inp_files/5197.got.cif
#   From: 2010.05.17/outbox.cif.g08.bks.cpg/sg21_3_cif.got.tgz:5197.got - 2010.06.03 23:14:55.
