data_PCOD9323784
_publ_section_title
;
Structure prediction by ZEFSAII (Michael W. Deem and Ramdas Pophale) SiO2 
 PCOD9323784
Probable space group: C 2 2 2
;
_chemical_formula_sum "Si O2"
_cell_formula_units_Z 24
_cell_length_a 7.365709
_cell_length_b 11.468111
_cell_length_c 13.981427
_cell_angle_alpha 90.000000
_cell_angle_beta 90.000000
_cell_angle_gamma 90.000000
_cell_volume 1181.021882
_symmetry_space_group_name_H-M "C 2 2 2"
_symmetry_group_IT_number 21
_symmetry_cell_setting 'orthorhombic'
loop_
_space_group_symop_operation_xyz
x,y,z
-x,-y,z
x,-y,-z
-x,y,-z
1/2+x,1/2+y,z
1/2-x,1/2-y,z
1/2+x,1/2-y,-z
1/2-x,1/2+y,-z
loop_
_atom_site_type_symbol
_atom_site_label
_atom_site_fract_x
_atom_site_fract_y
_atom_site_fract_z
Si Si1 0.293298 0.498275 0.858471
Si Si2 0.500000 0.500000 0.500000
Si Si3 0.750000 0.250000 0.226669
Si Si4 0.890471 0.149134 0.674391
Si Si5 0.000000 0.500000 0.000000
O O1 0.500000 0.500000 0.896685
O O2 0.224260 0.366044 0.838329
O O3 0.317635 0.563546 0.757569
O O4 0.146588 0.558507 0.927860
O O5 0.396804 0.581564 0.574744
O O6 0.580335 0.292254 0.291598
O O7 0.750000 0.250000 0.664942
#
# Coordination Sequence:
#
# PCOD9323784 Si02
#       5
#     8   2   4   8   2
#     4  10  22  43  64  98 137 168 221 277 318 393
#     4  12  24  44  66 104 132 174 224 268 324 398
#     4  10  20  46  68  94 140 170 214 284 322 382
#     4  11  24  43  69  97 137 172 219 274 326 387
#     4  12  22  40  68  96 126 184 222 252 352 390
#
# _framework density 20.321386
#
# number of rings (size 3 to 8) (size 9 to 14) (size 15 to 20)
#    0.000    1.333    5.000    2.500    2.333    0.000 
#   15.000    1.667    0.000    0.000    0.000    0.000 
#    0.000    0.000    0.000    0.000    0.000    0.000 
#
# Total GULP energy -66837.328591 kJ/mol
# GULP energy per Si atom -5569.777383 kJ/mol
# Density = 2.027513 g / cm^3
# Si number density = 20.321386 Si / 1000 Ang^3
#
#
#
# Elastic Constant Matrix: (Units=GPa)
#
#
# Indices 1 2 3 4 5 6 
#
# 1 140.6512 49.9603 66.4273 0.0000 0.0000 0.0000
# 2 49.9603 140.4639 56.2727 0.0000 0.0000 0.0000
# 3 66.4273 56.2727 170.0377 0.0000 0.0000 0.0000
# 4 0.0000 0.0000 0.0000 -21.9630 0.0000 0.0000
# 5 0.0000 0.0000 0.0000 0.0000 27.6047 0.0000
# 6 0.0000 0.0000 0.0000 0.0000 0.0000 28.5922
#
#
#
# Elastic Compliance Matrix: (Units=1/GPa)
#
#
# Indices 1 2 3 4 5 6 
#
# 1 0.009236 -0.002121 -0.002906 0.000000 0.000000 0.000000
# 2 -0.002121 0.008694 -0.002049 0.000000 0.000000 0.000000
# 3 -0.002906 -0.002049 0.007694 0.000000 0.000000 0.000000
# 4 0.000000 0.000000 0.000000 -0.045531 0.000000 0.000000
# 5 0.000000 0.000000 0.000000 0.000000 0.036226 0.000000
# 6 0.000000 0.000000 0.000000 0.000000 0.000000 0.034975
#
#
# Mechanical properties :
#
#
# Convention : Reuss Voigt Hill
#
# Bulk Modulus (GPa) = 87.16127 88.49705 87.82916
# Shear Modulus (GPa) = 72.18197 25.41294 48.79746
#
# Velocity S-wave (km/s) = 5.96635 3.54015 4.90561
# Velocity P-wave (km/s) = 9.51039 7.76875 8.68335
#
# Compressibility (1/GPa) = 0.01147299
#
# Stress axis : x y z
#
# Youngs Moduli (GPa) = 108.27658 115.01705 129.96382
#
# Poissons Ratio (x) = 0.24391 0.37770
# Poissons Ratio (y) = 0.22962 0.26628
# Poissons Ratio (z) = 0.31467 0.23566
#
# Static dielectric constant tensor:
#      x y z
#    x 1.735650 0.000000 0.000000 
#    y 0.000000 1.666320 0.000000 
#    z 0.000000 0.000000 1.725220 
# 
# From -- ./inp_files/21665.got.cif
#   From: 2010.05.17/outbox.cif.g08.bks.cpg/sg21_11_cif.got.tgz:21665.got - 2010.06.03 23:14:55.
