data_PCOD9323491
_publ_section_title
;
Structure prediction by ZEFSAII (Michael W. Deem and Ramdas Pophale) SiO2 
 PCOD9323491
Probable space group: C 2 2 2
;
_chemical_formula_sum "Si O2"
_cell_formula_units_Z 48
_cell_length_a 28.951139
_cell_length_b 10.058585
_cell_length_c 9.049160
_cell_angle_alpha 90.000000
_cell_angle_beta 90.000000
_cell_angle_gamma 90.000000
_cell_volume 2635.183193
_symmetry_space_group_name_H-M "C 2 2 2"
_symmetry_group_IT_number 21
_symmetry_cell_setting 'orthorhombic'
loop_
_space_group_symop_operation_xyz
x,y,z
-x,-y,z
x,-y,-z
-x,y,-z
1/2+x,1/2+y,z
1/2-x,1/2-y,z
1/2+x,1/2-y,-z
1/2-x,1/2+y,-z
loop_
_atom_site_type_symbol
_atom_site_label
_atom_site_fract_x
_atom_site_fract_y
_atom_site_fract_z
Si Si1 0.098751 0.971197 0.324741
Si Si2 0.111791 0.491370 0.175315
Si Si3 0.060694 0.772501 0.839257
Si Si4 0.198695 0.094265 0.643703
Si Si5 0.300842 0.092217 0.644537
Si Si6 0.453473 0.232701 0.812650
O O1 0.151913 0.948469 0.274540
O O2 0.070238 0.838321 0.293936
O O3 0.098687 0.000000 0.500000
O O4 0.075633 0.089910 0.233480
O O5 0.096162 0.342000 0.210633
O O6 0.157410 0.543512 0.254579
O O7 0.069241 0.589382 0.211116
O O8 0.118995 0.500000 0.000000
O O9 0.008409 0.734753 0.795723
O O10 0.059036 0.775317 0.018301
O O11 0.249448 0.078705 0.714874
O O12 0.193592 0.251174 0.606523
O O13 0.200271 0.000000 0.500000
O O14 0.301939 0.000000 0.500000
#
# Coordination Sequence:
#
# PCOD9323491 Si02
#       6
#     8   8   8   8   8   8
#     4  11  22  36  56  84 114 143 182 233 280 321
#     4  10  21  37  58  84 112 142 185 234 278 320
#     4  10  22  36  59  80 111 148 191 220 272 339
#     4   9  20  37  58  84 112 145 185 224 275 332
#     4  10  20  37  63  82 109 148 189 225 274 335
#     4  10  20  40  57  79 109 153 186 225 271 333
#
# _framework density 18.215053000000001
#
# number of rings (size 3 to 8) (size 9 to 14) (size 15 to 20)
#    0.000    2.000    1.667    1.500    4.667    4.667 
#    0.000    1.667    0.000    3.000    0.000    0.000 
#    0.000    0.000    0.000    0.000    0.000    0.000 
#
# Total GULP energy -133840.248329 kJ/mol
# GULP energy per Si atom -5576.677014 kJ/mol
# Density = 1.817360 g / cm^3
# Si number density = 18.215053 Si / 1000 Ang^3
#
#
#
# Elastic Constant Matrix: (Units=GPa)
#
#
# Indices 1 2 3 4 5 6 
#
# 1 119.4243 21.4209 25.5075 0.0000 0.0000 0.0000
# 2 21.4209 71.7301 19.3157 0.0000 0.0000 0.0000
# 3 25.5075 19.3157 15.3669 0.0000 0.0000 0.0000
# 4 0.0000 0.0000 0.0000 19.9461 0.0000 0.0000
# 5 0.0000 0.0000 0.0000 0.0000 26.1448 0.0000
# 6 0.0000 0.0000 0.0000 0.0000 0.0000 25.1244
#
#
#
# Elastic Compliance Matrix: (Units=1/GPa)
#
#
# Indices 1 2 3 4 5 6 
#
# 1 0.013387 0.003002 -0.025995 0.000000 0.000000 0.000000
# 2 0.003002 0.021748 -0.032319 0.000000 0.000000 0.000000
# 3 -0.025995 -0.032319 0.148848 0.000000 0.000000 0.000000
# 4 0.000000 0.000000 0.000000 0.050135 0.000000 0.000000
# 5 0.000000 0.000000 0.000000 0.000000 0.038249 0.000000
# 6 0.000000 0.000000 0.000000 0.000000 0.000000 0.039802
#
#
# Mechanical properties :
#
#
# Convention : Reuss Voigt Hill
#
# Bulk Modulus (GPa) = 13.63167 37.66774 25.64970
# Shear Modulus (GPa) = 11.17953 23.59488 17.38721
#
# Velocity S-wave (km/s) = 2.48009 3.60300 3.09293
# Velocity P-wave (km/s) = 3.96246 6.16710 5.18335
#
# Compressibility (1/GPa) = 0.07335861
#
# Stress axis : x y z
#
# Youngs Moduli (GPa) = 74.69805 45.98199 6.71826
#
# Poissons Ratio (x) = -0.13805 0.17464
# Poissons Ratio (y) = -0.22426 0.21713
# Poissons Ratio (z) = 1.94178 1.48611
#
# Static dielectric constant tensor:
#      x y z
#    x 1.644500 0.000000 0.000000 
#    y 0.000000 1.605000 0.000000 
#    z 0.000000 0.000000 1.602080 
# 
# From -- ./inp_files/11517.got.cif
#   From: 2010.05.17/outbox.cif.g08.bks.cpg/sg21_6_cif.got.tgz:11517.got - 2010.06.03 23:14:55.
