data_PCOD9323383
_publ_section_title
;
Structure prediction by ZEFSAII (Michael W. Deem and Ramdas Pophale) SiO2 
 PCOD9323383
Probable space group: C 2 2 2
;
_chemical_formula_sum "Si O2"
_cell_formula_units_Z 58
_cell_length_a 8.905557
_cell_length_b 18.363074
_cell_length_c 17.628408
_cell_angle_alpha 90.000000
_cell_angle_beta 90.000000
_cell_angle_gamma 90.000000
_cell_volume 2882.833536
_symmetry_space_group_name_H-M "C 2 2 2"
_symmetry_group_IT_number 21
_symmetry_cell_setting 'orthorhombic'
loop_
_space_group_symop_operation_xyz
x,y,z
-x,-y,z
x,-y,-z
-x,y,-z
1/2+x,1/2+y,z
1/2-x,1/2-y,z
1/2+x,1/2-y,-z
1/2-x,1/2+y,-z
loop_
_atom_site_type_symbol
_atom_site_label
_atom_site_fract_x
_atom_site_fract_y
_atom_site_fract_z
Si Si1 0.619814 0.311548 0.271224
Si Si2 0.909414 0.651555 0.425880
Si Si3 0.000000 0.500000 0.000000
Si Si4 0.398306 0.902827 0.733381
Si Si5 0.571215 0.673478 0.422332
Si Si6 0.713796 0.458927 0.926118
Si Si7 0.702122 0.949746 0.782597
Si Si8 0.161366 0.818437 0.833772
O O1 0.750000 0.250000 0.278657
O O2 0.534535 0.329817 0.349427
O O3 0.695839 0.386021 0.246468
O O4 0.491706 0.294331 0.208190
O O5 0.970401 0.625283 0.344738
O O6 0.732552 0.635032 0.417959
O O7 0.911072 0.739017 0.430237
O O8 0.000000 0.624565 0.500000
O O9 0.888203 0.550302 0.048546
O O10 0.535287 0.916271 0.791427
O O11 0.273919 0.849433 0.768099
O O12 0.321502 0.981944 0.726071
O O13 0.500000 0.646314 0.500000
O O14 0.725188 0.515559 0.857144
O O15 0.644270 0.384709 0.893628
O O16 0.651169 0.500000 0.000000
O O17 0.250000 0.750000 0.867987
#
# Coordination Sequence:
#
# PCOD9323383 Si02
#       8
#     8   8   2   8   8   8   8   8
#     4  12  25  39  64  96 133 175 227 279 327 388
#     4  10  20  36  60  87 122 165 216 270 331 390
#     4   8  16  36  72  98 120 168 204 258 320 400
#     4  10  20  38  61  90 127 167 222 270 325 393
#     4  10  22  36  57  89 123 168 215 269 331 383
#     4   9  20  39  68  97 126 169 212 260 325 410
#     4  10  22  39  63  93 125 171 213 266 326 397
#     4  11  21  39  65  99 131 170 214 276 330 382
#
# _framework density 20.119095000000002
#
# number of rings (size 3 to 8) (size 9 to 14) (size 15 to 20)
#    0.414    1.379    1.379    4.138    5.793    2.207 
#    0.000    3.448    0.000    0.828    0.000    0.000 
#    0.000    0.000    0.000    0.000    0.000    0.000 
#
# Total GULP energy -161599.497027 kJ/mol
# GULP energy per Si atom -5572.396449 kJ/mol
# Density = 2.007330 g / cm^3
# Si number density = 20.119095 Si / 1000 Ang^3
#
#
#
# Elastic Constant Matrix: (Units=GPa)
#
#
# Indices 1 2 3 4 5 6 
#
# 1 106.2425 43.7259 40.3753 0.0000 0.0000 0.0000
# 2 43.7259 68.7608 41.5593 0.0000 0.0000 0.0000
# 3 40.3753 41.5593 119.9421 0.0000 0.0000 0.0000
# 4 0.0000 0.0000 0.0000 15.7545 0.0000 0.0000
# 5 0.0000 0.0000 0.0000 0.0000 -107.6344 0.0000
# 6 0.0000 0.0000 0.0000 0.0000 0.0000 26.0101
#
#
#
# Elastic Compliance Matrix: (Units=1/GPa)
#
#
# Indices 1 2 3 4 5 6 
#
# 1 0.013092 -0.007161 -0.001926 0.000000 0.000000 0.000000
# 2 -0.007161 0.022313 -0.005321 0.000000 0.000000 0.000000
# 3 -0.001926 -0.005321 0.010829 0.000000 0.000000 0.000000
# 4 0.000000 0.000000 0.000000 0.063474 0.000000 0.000000
# 5 0.000000 0.000000 0.000000 0.000000 -0.009291 0.000000
# 6 0.000000 0.000000 0.000000 0.000000 0.000000 0.038447
#
#
# Mechanical properties :
#
#
# Convention : Reuss Voigt Hill
#
# Bulk Modulus (GPa) = 57.40986 60.69626 59.05306
# Shear Modulus (GPa) = 28.82102 -1.88830 13.46636
#
# Velocity S-wave (km/s) = 3.78897 -0.96984 2.58995
# Velocity P-wave (km/s) = 6.90932 5.38329 6.19349
#
# Compressibility (1/GPa) = 0.01741861
#
# Stress axis : x y z
#
# Youngs Moduli (GPa) = 76.38522 44.81702 92.34346
#
# Poissons Ratio (x) = 0.32095 0.17781
# Poissons Ratio (y) = 0.54701 0.49133
# Poissons Ratio (z) = 0.14709 0.23846
#
# Static dielectric constant tensor:
#      x y z
#    x 1.819880 0.000000 0.000000 
#    y 0.000000 1.705890 0.000000 
#    z 0.000000 0.000000 1.795580 
# 
# From -- ./inp_files/35828.got.cif
#   From: 2010.05.17/outbox.cif.g08.bks.cpg/sg21_18_cif.got.tgz:35828.got - 2010.06.03 23:14:55.
