data_PCOD9323885
_publ_section_title
;
Structure prediction by ZEFSAII (Michael W. Deem and Ramdas Pophale) SiO2 
 PCOD9323885
Probable space group: C 2 2 2
;
_chemical_formula_sum "Si O2"
_cell_formula_units_Z 52
_cell_length_a 20.312907
_cell_length_b 5.550827
_cell_length_c 20.236512
_cell_angle_alpha 90.000000
_cell_angle_beta 90.000000
_cell_angle_gamma 90.000000
_cell_volume 2281.736192
_symmetry_space_group_name_H-M "C 2 2 2"
_symmetry_group_IT_number 21
_symmetry_cell_setting 'orthorhombic'
loop_
_space_group_symop_operation_xyz
x,y,z
-x,-y,z
x,-y,-z
-x,y,-z
1/2+x,1/2+y,z
1/2-x,1/2-y,z
1/2+x,1/2-y,-z
1/2-x,1/2+y,-z
loop_
_atom_site_type_symbol
_atom_site_label
_atom_site_fract_x
_atom_site_fract_y
_atom_site_fract_z
Si Si1 0.174792 0.000000 0.500000
Si Si2 0.000000 0.500000 0.679994
Si Si3 0.566614 0.367861 0.416660
Si Si4 0.852641 0.999210 0.078660
Si Si5 0.284520 0.495389 0.793547
Si Si6 0.926079 0.498063 0.079915
Si Si7 0.623345 0.287003 0.694731
Si Si8 0.250000 0.750000 0.614714
O O1 0.120567 0.192450 0.527392
O O2 0.220420 0.059514 0.437668
O O3 0.955925 0.653751 0.629602
O O4 0.941511 0.359653 0.718061
O O5 0.500000 0.500000 0.437938
O O6 0.598733 0.557648 0.366712
O O7 0.888356 0.745985 0.096209
O O8 0.791898 0.017844 0.127591
O O9 0.893295 0.241647 0.095675
O O10 0.838874 0.000000 0.000000
O O11 0.250000 0.250000 0.770706
O O12 0.351557 0.536840 0.752707
O O13 0.250000 0.750000 0.782787
O O14 0.000000 0.500000 0.106440
O O15 0.929352 0.500000 0.000000
O O16 0.688945 0.163788 0.661296
#
# Coordination Sequence:
#
# PCOD9323885 Si02
#       8
#     4   4   8   8   8   8   8   4
#     4  10  21  36  62  99 138 170 232 278 344 423
#     4  10  22  42  73  92 134 187 232 290 366 420
#     4   9  20  40  62  94 135 172 220 286 351 425
#     4  10  21  39  64  98 137 178 233 292 359 431
#     4  12  27  46  71  99 136 186 240 295 363 433
#     4   9  17  34  61  93 135 180 220 276 352 426
#     4  10  23  44  66  97 135 185 236 293 357 428
#     4  10  22  40  62  98 138 184 234 288 352 424
#
# _framework density 22.789662
#
# number of rings (size 3 to 8) (size 9 to 14) (size 15 to 20)
#    0.000    2.000    0.769    1.615    4.308    2.462 
#    4.154   10.000    0.000    0.000    0.000    0.000 
#    0.000    0.000    0.000    0.000    0.000    0.000 
#
# Total GULP energy -144788.855952 kJ/mol
# GULP energy per Si atom -5568.802152 kJ/mol
# Density = 2.273779 g / cm^3
# Si number density = 22.789662 Si / 1000 Ang^3
#
#
#
# Elastic Constant Matrix: (Units=GPa)
#
#
# Indices 1 2 3 4 5 6 
#
# 1 116.2319 56.5160 42.9314 0.0000 0.0000 0.0000
# 2 56.5160 131.3609 26.2285 0.0000 0.0000 0.0000
# 3 42.9314 26.2285 83.4851 0.0000 0.0000 0.0000
# 4 0.0000 0.0000 0.0000 15.5718 0.0000 0.0000
# 5 0.0000 0.0000 0.0000 0.0000 23.0005 0.0000
# 6 0.0000 0.0000 0.0000 0.0000 0.0000 46.9664
#
#
#
# Elastic Compliance Matrix: (Units=1/GPa)
#
#
# Indices 1 2 3 4 5 6 
#
# 1 0.012639 -0.004417 -0.005112 0.000000 0.000000 0.000000
# 2 -0.004417 0.009666 -0.000765 0.000000 0.000000 0.000000
# 3 -0.005112 -0.000765 0.014847 0.000000 0.000000 0.000000
# 4 0.000000 0.000000 0.000000 0.064219 0.000000 0.000000
# 5 0.000000 0.000000 0.000000 0.000000 0.043477 0.000000
# 6 0.000000 0.000000 0.000000 0.000000 0.000000 0.021292
#
#
# Mechanical properties :
#
#
# Convention : Reuss Voigt Hill
#
# Bulk Modulus (GPa) = 60.37229 64.71439 62.54334
# Shear Modulus (GPa) = 26.00772 30.80122 28.40447
#
# Velocity S-wave (km/s) = 3.38184 3.68032 3.53423
# Velocity P-wave (km/s) = 6.46512 6.82039 6.64513
#
# Compressibility (1/GPa) = 0.01656389
#
# Stress axis : x y z
#
# Youngs Moduli (GPa) = 79.11731 103.45699 67.35209
#
# Poissons Ratio (x) = 0.45699 0.34430
# Poissons Ratio (y) = 0.34948 0.05154
# Poissons Ratio (z) = 0.40444 0.07916
#
# Static dielectric constant tensor:
#      x y z
#    x 1.961100 0.000000 0.000000 
#    y 0.000000 2.195810 0.000000 
#    z 0.000000 0.000000 1.808180 
# 
# From -- ./inp_files/37859.got.cif
#   From: 2010.05.17/outbox.cif.g08.bks.cpg/sg21_19_cif.got.tgz:37859.got - 2010.06.03 23:14:55.
