data_PCOD9323678
_publ_section_title
;
Structure prediction by ZEFSAII (Michael W. Deem and Ramdas Pophale) SiO2 
 PCOD9323678
Probable space group: C 2 2 2
;
_chemical_formula_sum "Si O2"
_cell_formula_units_Z 20
_cell_length_a 4.896925
_cell_length_b 19.883298
_cell_length_c 9.079966
_cell_angle_alpha 90.000000
_cell_angle_beta 90.000000
_cell_angle_gamma 90.000000
_cell_volume 884.089223
_symmetry_space_group_name_H-M "C 2 2 2"
_symmetry_group_IT_number 21
_symmetry_cell_setting 'orthorhombic'
loop_
_space_group_symop_operation_xyz
x,y,z
-x,-y,z
x,-y,-z
-x,y,-z
1/2+x,1/2+y,z
1/2-x,1/2-y,z
1/2+x,1/2-y,-z
1/2-x,1/2+y,-z
loop_
_atom_site_type_symbol
_atom_site_label
_atom_site_fract_x
_atom_site_fract_y
_atom_site_fract_z
Si Si1 0.392259 0.821263 0.669100
Si Si2 0.000000 0.000000 0.000000
Si Si3 0.864484 0.904931 0.746893
Si Si4 0.500000 0.500000 0.500000
O O1 0.500000 0.821210 0.500000
O O2 0.250000 0.750000 0.696182
O O3 0.661385 0.842485 0.756409
O O4 0.165827 0.876498 0.711930
O O5 0.159009 0.049286 0.890336
O O6 0.817495 0.953557 0.606851
#
# Coordination Sequence:
#
# PCOD9323678 Si02
#       4
#     8   2   8   2
#     4  12  23  42  71 106 139 178 234 294 350 407
#     4  10  28  48  68 104 148 188 236 282 352 424
#     4  11  24  42  71 102 141 185 228 292 344 418
#     4  10  20  40  64 104 132 180 228 282 348 396
#
# _framework density 22.622150999999999
#
# number of rings (size 3 to 8) (size 9 to 14) (size 15 to 20)
#    0.000    0.800    4.000    3.600    0.000   11.200 
#    0.000    4.000    0.000    2.400    0.000    0.000 
#    0.000    0.000    0.000    0.000    0.000    0.000 
#
# Total GULP energy -55889.568517 kJ/mol
# GULP energy per Si atom -5588.956852 kJ/mol
# Density = 2.257066 g / cm^3
# Si number density = 22.622151 Si / 1000 Ang^3
#
#
#
# Elastic Constant Matrix: (Units=GPa)
#
#
# Indices 1 2 3 4 5 6 
#
# 1 103.3160 22.4544 22.8933 0.0000 0.0000 0.0000
# 2 22.4544 103.6712 58.6894 0.0000 0.0000 0.0000
# 3 22.8933 58.6894 125.9682 0.0000 0.0000 0.0000
# 4 0.0000 0.0000 0.0000 22.9542 0.0000 0.0000
# 5 0.0000 0.0000 0.0000 0.0000 11.0571 0.0000
# 6 0.0000 0.0000 0.0000 0.0000 0.0000 30.5841
#
#
#
# Elastic Compliance Matrix: (Units=1/GPa)
#
#
# Indices 1 2 3 4 5 6 
#
# 1 0.010274 -0.001587 -0.001128 0.000000 0.000000 0.000000
# 2 -0.001587 0.013347 -0.005930 0.000000 0.000000 0.000000
# 3 -0.001128 -0.005930 0.010906 0.000000 0.000000 0.000000
# 4 0.000000 0.000000 0.000000 0.043565 0.000000 0.000000
# 5 0.000000 0.000000 0.000000 0.000000 0.090439 0.000000
# 6 0.000000 0.000000 0.000000 0.000000 0.000000 0.032697
#
#
# Mechanical properties :
#
#
# Convention : Reuss Voigt Hill
#
# Bulk Modulus (GPa) = 58.01256 60.11440 59.06348
# Shear Modulus (GPa) = 22.29531 28.18032 25.23782
#
# Velocity S-wave (km/s) = 3.14276 3.53327 3.34372
# Velocity P-wave (km/s) = 6.23450 6.57847 6.40879
#
# Compressibility (1/GPa) = 0.01723765
#
# Stress axis : x y z
#
# Youngs Moduli (GPa) = 97.33479 74.92595 91.69052
#
# Poissons Ratio (x) = 0.11889 0.10342
# Poissons Ratio (y) = 0.15444 0.54371
# Poissons Ratio (z) = 0.10978 0.44430
#
# Static dielectric constant tensor:
#      x y z
#    x 1.870880 0.000000 0.000000 
#    y 0.000000 1.901450 0.000000 
#    z 0.000000 0.000000 1.842430 
# 
# From -- ./inp_files/8462.got.cif
#   From: 2010.05.17/outbox.cif.g08.bks.cpg/sg21_5_cif.got.tgz:8462.got - 2010.06.03 23:14:55.
