data_PCOD9323777
_publ_section_title
;
Structure prediction by ZEFSAII (Michael W. Deem and Ramdas Pophale) SiO2 
 PCOD9323777
Probable space group: C 2 2 2
;
_chemical_formula_sum "Si O2"
_cell_formula_units_Z 30
_cell_length_a 7.356999
_cell_length_b 12.586748
_cell_length_c 14.878117
_cell_angle_alpha 90.000000
_cell_angle_beta 90.000000
_cell_angle_gamma 90.000000
_cell_volume 1377.723937
_symmetry_space_group_name_H-M "C 2 2 2"
_symmetry_group_IT_number 21
_symmetry_cell_setting 'orthorhombic'
loop_
_space_group_symop_operation_xyz
x,y,z
-x,-y,z
x,-y,-z
-x,y,-z
1/2+x,1/2+y,z
1/2-x,1/2-y,z
1/2+x,1/2-y,-z
1/2-x,1/2+y,-z
loop_
_atom_site_type_symbol
_atom_site_label
_atom_site_fract_x
_atom_site_fract_y
_atom_site_fract_z
Si Si1 0.439071 0.116629 0.152799
Si Si2 0.985041 0.843950 0.102495
Si Si3 0.689641 0.128691 0.655018
Si Si4 0.000000 0.500000 0.500000
Si Si5 0.500000 0.500000 0.753871
O O1 0.226080 0.136143 0.129609
O O2 0.533340 0.219698 0.110232
O O3 0.451484 0.125451 0.261217
O O4 0.500000 0.000000 0.122943
O O5 0.087716 0.914142 0.177069
O O6 0.000000 0.877767 0.000000
O O7 0.750000 0.250000 0.642143
O O8 0.857314 0.059577 0.691760
O O9 0.614674 0.075304 0.565829
#
# Coordination Sequence:
#
# PCOD9323777 Si02
#       5
#     8   8   8   2   4
#     4  10  20  44  68  94 134 181 218 276 339 385
#     4  10  21  42  64 101 139 175 230 275 311 395
#     4  11  23  47  69  99 134 169 222 275 338 401
#     4  12  28  42  72 102 126 170 224 280 326 410
#     4  10  21  43  72  90 138 182 206 271 337 384
#
# _framework density 21.775044000000001
#
# number of rings (size 3 to 8) (size 9 to 14) (size 15 to 20)
#    0.000    1.600    6.667    0.400    0.000    3.200 
#   33.600    5.333    0.000    0.000    0.000    0.000 
#    0.000    0.000    0.000    0.000    0.000    0.000 
#
# Total GULP energy -83846.297872 kJ/mol
# GULP energy per Si atom -5589.753191 kJ/mol
# Density = 2.172548 g / cm^3
# Si number density = 21.775044 Si / 1000 Ang^3
#
#
#
# Elastic Constant Matrix: (Units=GPa)
#
#
# Indices 1 2 3 4 5 6 
#
# 1 44.6073 53.0542 42.0622 0.0000 0.0000 0.0000
# 2 53.0542 239.5531 77.0143 0.0000 0.0000 0.0000
# 3 42.0622 77.0143 188.3767 0.0000 0.0000 0.0000
# 4 0.0000 0.0000 0.0000 62.4117 0.0000 0.0000
# 5 0.0000 0.0000 0.0000 0.0000 11.3780 0.0000
# 6 0.0000 0.0000 0.0000 0.0000 0.0000 36.2986
#
#
#
# Elastic Compliance Matrix: (Units=1/GPa)
#
#
# Indices 1 2 3 4 5 6 
#
# 1 0.034440 -0.005935 -0.005264 0.000000 0.000000 0.000000
# 2 -0.005935 0.005829 -0.001058 0.000000 0.000000 0.000000
# 3 -0.005264 -0.001058 0.006916 0.000000 0.000000 0.000000
# 4 0.000000 0.000000 0.000000 0.016023 0.000000 0.000000
# 5 0.000000 0.000000 0.000000 0.000000 0.087889 0.000000
# 6 0.000000 0.000000 0.000000 0.000000 0.000000 0.027549
#
#
# Mechanical properties :
#
#
# Convention : Reuss Voigt Hill
#
# Bulk Modulus (GPa) = 44.10682 90.75540 67.43111
# Shear Modulus (GPa) = 23.72844 42.04476 32.88660
#
# Velocity S-wave (km/s) = 3.30465 4.39893 3.89046
# Velocity P-wave (km/s) = 5.90429 8.22009 7.15648
#
# Compressibility (1/GPa) = 0.02267223
#
# Stress axis : x y z
#
# Youngs Moduli (GPa) = 29.03570 171.55507 144.58700
#
# Poissons Ratio (x) = 1.01825 0.76104
# Poissons Ratio (y) = 0.17234 0.15294
# Poissons Ratio (z) = 0.15283 0.18147
#
# Static dielectric constant tensor:
#      x y z
#    x 1.873540 0.000000 0.000000 
#    y 0.000000 1.849610 0.000000 
#    z 0.000000 0.000000 1.756510 
# 
# From -- ./inp_files/29857.got.cif
#   From: 2010.05.17/outbox.cif.g08.bks.cpg/sg21_15_cif.got.tgz:29857.got - 2010.06.03 23:14:55.
