data_PCOD9323972
_publ_section_title
;
Structure prediction by ZEFSAII (Michael W. Deem and Ramdas Pophale) SiO2 
 PCOD9323972
Probable space group: C 2 2 2
;
_chemical_formula_sum "Si O2"
_cell_formula_units_Z 34
_cell_length_a 10.841266
_cell_length_b 9.681781
_cell_length_c 14.973696
_cell_angle_alpha 90.000000
_cell_angle_beta 90.000000
_cell_angle_gamma 90.000000
_cell_volume 1571.680507
_symmetry_space_group_name_H-M "C 2 2 2"
_symmetry_group_IT_number 21
_symmetry_cell_setting 'orthorhombic'
loop_
_space_group_symop_operation_xyz
x,y,z
-x,-y,z
x,-y,-z
-x,y,-z
1/2+x,1/2+y,z
1/2-x,1/2-y,z
1/2+x,1/2-y,-z
1/2-x,1/2+y,-z
loop_
_atom_site_type_symbol
_atom_site_label
_atom_site_fract_x
_atom_site_fract_y
_atom_site_fract_z
Si Si1 0.353439 0.640333 0.943645
Si Si2 0.305648 0.031755 0.218302
Si Si3 0.500000 0.500000 0.500000
Si Si4 0.341851 0.376458 0.653813
Si Si5 0.030982 0.272931 0.813450
O O1 0.250000 0.750000 0.979996
O O2 0.291411 0.589993 0.851189
O O3 0.480667 0.710188 0.906632
O O4 0.363999 0.500000 0.000000
O O5 0.417045 0.138495 0.224361
O O6 0.241690 0.002549 0.312058
O O7 0.360377 0.886948 0.179702
O O8 0.418190 0.409542 0.566772
O O9 0.250000 0.250000 0.638340
O O10 0.425553 0.336849 0.740033
#
# Coordination Sequence:
#
# PCOD9323972 Si02
#       5
#     8   8   2   8   8
#     4  10  21  38  59  88 122 157 200 252 302 349
#     4   9  19  39  61  82 112 154 201 243 285 348
#     4  12  24  36  56  92 122 144 180 236 304 360
#     4  10  22  39  60  86 116 150 192 239 290 355
#     4   9  19  39  63  82 111 158 201 239 291 348
#
# _framework density 21.632897
#
# number of rings (size 3 to 8) (size 9 to 14) (size 15 to 20)
#    0.000    2.353    0.000    1.412    0.000    4.706 
#    0.000   21.176    0.000    0.000    0.000    0.000 
#    0.000    0.000    0.000    0.000    0.000    0.000 
#
# Total GULP energy -95030.886595 kJ/mol
# GULP energy per Si atom -5590.052153 kJ/mol
# Density = 2.158366 g / cm^3
# Si number density = 21.632897 Si / 1000 Ang^3
#
#
#
# Elastic Constant Matrix: (Units=GPa)
#
#
# Indices 1 2 3 4 5 6 
#
# 1 74.8390 41.8494 52.4010 0.0000 0.0000 0.0000
# 2 41.8494 104.4673 49.5654 0.0000 0.0000 0.0000
# 3 52.4010 49.5654 107.0438 0.0000 0.0000 0.0000
# 4 0.0000 0.0000 0.0000 5.2234 0.0000 0.0000
# 5 0.0000 0.0000 0.0000 0.0000 22.3794 0.0000
# 6 0.0000 0.0000 0.0000 0.0000 0.0000 34.5744
#
#
#
# Elastic Compliance Matrix: (Units=1/GPa)
#
#
# Indices 1 2 3 4 5 6 
#
# 1 0.022030 -0.004753 -0.008584 0.000000 0.000000 0.000000
# 2 -0.004753 0.013293 -0.003829 0.000000 0.000000 0.000000
# 3 -0.008584 -0.003829 0.015317 0.000000 0.000000 0.000000
# 4 0.000000 0.000000 0.000000 0.191447 0.000000 0.000000
# 5 0.000000 0.000000 0.000000 0.000000 0.044684 0.000000
# 6 0.000000 0.000000 0.000000 0.000000 0.000000 0.028923
#
#
# Mechanical properties :
#
#
# Convention : Reuss Voigt Hill
#
# Bulk Modulus (GPa) = 61.31291 63.77574 62.54433
# Shear Modulus (GPa) = 14.06633 21.93770 18.00202
#
# Velocity S-wave (km/s) = 2.55272 3.18793 2.88785
# Velocity P-wave (km/s) = 6.09036 6.56471 6.33198
#
# Compressibility (1/GPa) = 0.01630978
#
# Stress axis : x y z
#
# Youngs Moduli (GPa) = 45.39335 75.22924 65.28850
#
# Poissons Ratio (x) = 0.35753 0.56041
# Poissons Ratio (y) = 0.21573 0.24996
# Poissons Ratio (z) = 0.38964 0.28802
#
# Static dielectric constant tensor:
#      x y z
#    x 1.863210 0.000000 0.000000 
#    y 0.000000 1.825980 0.000000 
#    z 0.000000 0.000000 1.726620 
# 
# From -- ./inp_files/31248.got.cif
#   From: 2010.05.17/outbox.cif.g08.bks.cpg/sg21_16_cif.got.tgz:31248.got - 2010.06.03 23:14:55.
