data_PCOD9323388
_publ_section_title
;
Structure prediction by ZEFSAII (Michael W. Deem and Ramdas Pophale) SiO2 
 PCOD9323388
Probable space group: C 2 2 2
;
_chemical_formula_sum "Si O2"
_cell_formula_units_Z 46
_cell_length_a 18.722351
_cell_length_b 9.449887
_cell_length_c 12.318924
_cell_angle_alpha 90.000000
_cell_angle_beta 90.000000
_cell_angle_gamma 90.000000
_cell_volume 2179.514558
_symmetry_space_group_name_H-M "C 2 2 2"
_symmetry_group_IT_number 21
_symmetry_cell_setting 'orthorhombic'
loop_
_space_group_symop_operation_xyz
x,y,z
-x,-y,z
x,-y,-z
-x,y,-z
1/2+x,1/2+y,z
1/2-x,1/2-y,z
1/2+x,1/2-y,-z
1/2-x,1/2+y,-z
loop_
_atom_site_type_symbol
_atom_site_label
_atom_site_fract_x
_atom_site_fract_y
_atom_site_fract_z
Si Si1 0.638220 0.886626 0.644954
Si Si2 0.421314 0.037357 0.848737
Si Si3 0.667067 0.789585 0.422438
Si Si4 0.664040 0.252284 0.811727
Si Si5 0.626833 0.682387 0.954476
Si Si6 0.250000 0.250000 0.806290
Si Si7 0.500000 0.500000 0.000000
O O1 0.572450 0.893710 0.727819
O O2 0.630945 0.784591 0.541126
O O3 0.701079 0.838778 0.725299
O O4 0.657782 0.044979 0.607765
O O5 0.388108 0.153213 0.928151
O O6 0.500000 0.000000 0.883842
O O7 0.371378 0.900800 0.834581
O O8 0.750000 0.750000 0.439679
O O9 0.642503 0.708637 0.312569
O O10 0.750000 0.250000 0.811070
O O11 0.641465 0.340025 0.917826
O O12 0.697615 0.657027 0.882609
O O13 0.553467 0.599695 0.931486
#
# Coordination Sequence:
#
# PCOD9323388 Si02
#       7
#     8   8   8   8   8   4   2
#     4   9  18  33  55  86 112 149 195 247 301 349
#     4  10  21  38  61  83 120 161 203 249 310 378
#     4   9  17  31  54  83 119 145 189 249 303 351
#     4  10  20  36  60  92 119 151 201 258 304 364
#     4  11  23  39  58  87 118 165 200 252 310 364
#     4  10  20  38  60  84 114 148 204 250 294 366
#     4  12  28  40  58  84 134 166 208 254 312 378
#
# _framework density 21.105619000000001
#
# number of rings (size 3 to 8) (size 9 to 14) (size 15 to 20)
#    0.000    2.087    1.739    1.565    0.000    6.261 
#    0.000    6.957    0.000    0.000    0.000    4.870 
#    0.000    0.000    0.000    0.000    0.000    0.000 
#
# Total GULP energy -128101.632385 kJ/mol
# GULP energy per Si atom -5569.636191 kJ/mol
# Density = 2.105758 g / cm^3
# Si number density = 21.105619 Si / 1000 Ang^3
#
#
#
# Elastic Constant Matrix: (Units=GPa)
#
#
# Indices 1 2 3 4 5 6 
#
# 1 80.6109 19.6182 35.3858 0.0000 0.0000 0.0000
# 2 19.6182 19.3200 2.7118 0.0000 0.0000 0.0000
# 3 35.3858 2.7118 190.0804 0.0000 0.0000 0.0000
# 4 0.0000 0.0000 0.0000 19.8896 0.0000 0.0000
# 5 0.0000 0.0000 0.0000 0.0000 10.7499 0.0000
# 6 0.0000 0.0000 0.0000 0.0000 0.0000 36.9186
#
#
#
# Elastic Compliance Matrix: (Units=1/GPa)
#
#
# Indices 1 2 3 4 5 6 
#
# 1 0.018157 -0.017998 -0.003123 0.000000 0.000000 0.000000
# 2 -0.017998 0.069705 0.002356 0.000000 0.000000 0.000000
# 3 -0.003123 0.002356 0.005809 0.000000 0.000000 0.000000
# 4 0.000000 0.000000 0.000000 0.050278 0.000000 0.000000
# 5 0.000000 0.000000 0.000000 0.000000 0.093024 0.000000
# 6 0.000000 0.000000 0.000000 0.000000 0.000000 0.027087
#
#
# Mechanical properties :
#
#
# Convention : Reuss Voigt Hill
#
# Bulk Modulus (GPa) = 17.81277 45.04924 31.43101
# Shear Modulus (GPa) = 15.61021 28.99798 22.30409
#
# Velocity S-wave (km/s) = 2.72255 3.71070 3.25435
# Velocity P-wave (km/s) = 4.28266 6.30476 5.38940
#
# Compressibility (1/GPa) = 0.05613950
#
# Stress axis : x y z
#
# Youngs Moduli (GPa) = 55.07652 14.34612 172.15391
#
# Poissons Ratio (x) = 0.25821 0.53769
# Poissons Ratio (y) = 0.99129 -0.40562
# Poissons Ratio (z) = 0.17202 -0.03380
#
# Static dielectric constant tensor:
#      x y z
#    x 1.741240 0.000000 0.000000 
#    y 0.000000 1.791500 0.000000 
#    z 0.000000 0.000000 1.872580 
# 
# From -- ./inp_files/26089.got.cif
#   From: 2010.05.17/outbox.cif.g08.bks.cpg/sg21_14_cif.got.tgz:26089.got - 2010.06.03 23:14:55.
