data_PCOD9323169
_publ_section_title
;
Structure prediction by ZEFSAII (Michael W. Deem and Ramdas Pophale) SiO2 
 PCOD9323169
Probable space group: C 2 2 2
;
_chemical_formula_sum "Si O2"
_cell_formula_units_Z 64
_cell_length_a 26.278936
_cell_length_b 7.633537
_cell_length_c 15.837048
_cell_angle_alpha 90.000000
_cell_angle_beta 90.000000
_cell_angle_gamma 90.000000
_cell_volume 3176.931313
_symmetry_space_group_name_H-M "C 2 2 2"
_symmetry_group_IT_number 21
_symmetry_cell_setting 'orthorhombic'
loop_
_space_group_symop_operation_xyz
x,y,z
-x,-y,z
x,-y,-z
-x,y,-z
1/2+x,1/2+y,z
1/2-x,1/2-y,z
1/2+x,1/2-y,-z
1/2-x,1/2+y,-z
loop_
_atom_site_type_symbol
_atom_site_label
_atom_site_fract_x
_atom_site_fract_y
_atom_site_fract_z
Si Si1 0.627555 0.292009 0.990459
Si Si2 0.140482 0.239803 0.672300
Si Si3 0.870574 0.184361 0.667383
Si Si4 0.060123 0.527047 0.720327
Si Si5 0.808901 0.791294 0.496772
Si Si6 0.443129 0.921838 0.915327
Si Si7 0.690942 0.286445 0.151874
Si Si8 0.191466 0.796726 0.833273
O O1 0.571235 0.272988 0.945359
O O2 0.664219 0.220851 0.916028
O O3 0.633935 0.500000 0.000000
O O4 0.650373 0.228142 0.080666
O O5 0.091753 0.365391 0.681786
O O6 0.170620 0.279338 0.585921
O O7 0.175154 0.278115 0.754801
O O8 0.126981 0.029337 0.669980
O O9 0.922921 0.288480 0.679839
O O10 0.844032 0.253867 0.582535
O O11 0.836197 0.246903 0.746102
O O12 0.072855 0.539724 0.820587
O O13 0.000000 0.500000 0.712094
O O14 0.750000 0.750000 0.482893
O O15 0.812386 0.000000 0.500000
O O16 0.500000 0.000000 0.917273
O O17 0.416216 0.000000 0.000000
O O18 0.750000 0.250000 0.130585
O O19 0.687108 0.495093 0.158722
O O20 0.250000 0.750000 0.830471
#
# Coordination Sequence:
#
# PCOD9323169 Si02
#       8
#     8   8   8   8   8   8   8   8
#     4  10  20  36  56  83 122 160 202 256 314 380
#     4  10  23  41  61  92 132 165 212 272 319 382
#     4  10  22  41  62  91 128 168 210 267 321 383
#     4  11  24  42  69  95 122 174 222 269 334 377
#     4  10  22  39  64  97 131 171 213 259 327 393
#     4  10  21  39  60  87 118 155 217 267 314 376
#     4  10  21  34  54  86 121 166 204 246 320 381
#     4  10  20  33  54  84 120 161 204 249 310 380
#
# _framework density 20.145226000000001
#
# number of rings (size 3 to 8) (size 9 to 14) (size 15 to 20)
#    0.000    1.875    1.250    1.875    3.500    1.500 
#    0.000    2.500    2.750    2.250    0.000    0.000 
#    0.000    0.000    0.000    0.000    0.000    0.000 
#
# Total GULP energy -178166.171682 kJ/mol
# GULP energy per Si atom -5567.692865 kJ/mol
# Density = 2.009938 g / cm^3
# Si number density = 20.145226 Si / 1000 Ang^3
#
#
#
# Elastic Constant Matrix: (Units=GPa)
#
#
# Indices 1 2 3 4 5 6 
#
# 1 102.3182 22.6547 34.2957 0.0000 0.0000 0.0000
# 2 22.6547 35.0547 19.2488 0.0000 0.0000 0.0000
# 3 34.2957 19.2488 122.1878 0.0000 0.0000 0.0000
# 4 0.0000 0.0000 0.0000 15.9073 0.0000 0.0000
# 5 0.0000 0.0000 0.0000 0.0000 31.0725 0.0000
# 6 0.0000 0.0000 0.0000 0.0000 0.0000 38.3708
#
#
#
# Elastic Compliance Matrix: (Units=1/GPa)
#
#
# Indices 1 2 3 4 5 6 
#
# 1 0.011991 -0.006460 -0.002348 0.000000 0.000000 0.000000
# 2 -0.006460 0.034709 -0.003655 0.000000 0.000000 0.000000
# 3 -0.002348 -0.003655 0.009419 0.000000 0.000000 0.000000
# 4 0.000000 0.000000 0.000000 0.062864 0.000000 0.000000
# 5 0.000000 0.000000 0.000000 0.000000 0.032183 0.000000
# 6 0.000000 0.000000 0.000000 0.000000 0.000000 0.026062
#
#
# Mechanical properties :
#
#
# Convention : Reuss Voigt Hill
#
# Bulk Modulus (GPa) = 32.05830 45.77323 38.91576
# Shear Modulus (GPa) = 23.52393 29.29420 26.40907
#
# Velocity S-wave (km/s) = 3.42090 3.81747 3.62461
# Velocity P-wave (km/s) = 5.61707 6.49629 6.07261
#
# Compressibility (1/GPa) = 0.03119317
#
# Stress axis : x y z
#
# Youngs Moduli (GPa) = 83.39765 28.81136 106.17000
#
# Poissons Ratio (x) = 0.18612 0.24928
# Poissons Ratio (y) = 0.53875 0.38801
# Poissons Ratio (z) = 0.19581 0.10529
#
# Static dielectric constant tensor:
#      x y z
#    x 1.758420 0.000000 0.000000 
#    y 0.000000 1.346160 0.000000 
#    z 0.000000 0.000000 1.730930 
# 
# From -- ./inp_files/33640.got.cif
#   From: 2010.05.17/outbox.cif.g08.bks.cpg/sg21_17_cif.got.tgz:33640.got - 2010.06.03 23:14:55.
