data_PCOD9323964
_publ_section_title
;
Structure prediction by ZEFSAII (Michael W. Deem and Ramdas Pophale) SiO2 
 PCOD9323964
Probable space group: C 2 2 2
;
_chemical_formula_sum "Si O2"
_cell_formula_units_Z 46
_cell_length_a 22.076252
_cell_length_b 12.086660
_cell_length_c 8.720813
_cell_angle_alpha 90.000000
_cell_angle_beta 90.000000
_cell_angle_gamma 90.000000
_cell_volume 2326.958417
_symmetry_space_group_name_H-M "C 2 2 2"
_symmetry_group_IT_number 21
_symmetry_cell_setting 'orthorhombic'
loop_
_space_group_symop_operation_xyz
x,y,z
-x,-y,z
x,-y,-z
-x,y,-z
1/2+x,1/2+y,z
1/2-x,1/2-y,z
1/2+x,1/2-y,-z
1/2-x,1/2+y,-z
loop_
_atom_site_type_symbol
_atom_site_label
_atom_site_fract_x
_atom_site_fract_y
_atom_site_fract_z
Si Si1 0.774356 0.581794 0.742751
Si Si2 0.631542 0.000000 0.000000
Si Si3 0.000000 0.000000 0.500000
Si Si4 0.395310 0.606513 0.672737
Si Si5 0.149832 0.907028 0.131493
Si Si6 0.234700 0.859634 0.580287
Si Si7 0.428635 0.765526 0.956529
O O1 0.827566 0.552954 0.861737
O O2 0.716669 0.634154 0.827673
O O3 0.752248 0.462213 0.683305
O O4 0.775604 0.640643 0.574836
O O5 0.592284 0.106478 0.946745
O O6 0.042420 0.082715 0.408003
O O7 0.378991 0.484903 0.739568
O O8 0.338010 0.636752 0.565344
O O9 0.408155 0.698370 0.803206
O O10 0.107903 0.805125 0.084707
O O11 0.157015 0.000000 0.000000
O O12 0.250000 0.750000 0.671480
O O13 0.500000 0.758657 0.000000
#
# Coordination Sequence:
#
# PCOD9323964 Si02
#       7
#     8   4   2   8   8   8   8
#     4  10  21  38  58  94 120 158 207 255 317 377
#     4  12  25  40  62  90 127 174 220 256 302 370
#     4  12  20  36  62  92 126 156 208 248 320 402
#     4  10  21  38  63  94 124 160 200 261 327 377
#     4   9  18  36  60  89 118 144 196 261 324 367
#     4  10  21  38  60  87 128 160 196 256 321 377
#     4  11  24  40  61  90 128 170 214 259 303 370
#
# _framework density 19.768294999999998
#
# number of rings (size 3 to 8) (size 9 to 14) (size 15 to 20)
#    0.000    1.739    0.870    4.435    2.435    2.435 
#    0.000    0.000    0.000    0.000    0.000    0.000 
#    0.000    0.000    0.000    0.000    0.000    0.000 
#
# Total GULP energy -128053.071729 kJ/mol
# GULP energy per Si atom -5567.524858 kJ/mol
# Density = 1.972330 g / cm^3
# Si number density = 19.768295 Si / 1000 Ang^3
#
#
#
# Elastic Constant Matrix: (Units=GPa)
#
#
# Indices 1 2 3 4 5 6 
#
# 1 83.3911 37.0866 37.9120 0.0000 0.0000 0.0000
# 2 37.0866 121.0189 24.2088 0.0000 0.0000 0.0000
# 3 37.9120 24.2088 58.7989 0.0000 0.0000 0.0000
# 4 0.0000 0.0000 0.0000 -4.8032 0.0000 0.0000
# 5 0.0000 0.0000 0.0000 0.0000 32.9168 0.0000
# 6 0.0000 0.0000 0.0000 0.0000 0.0000 23.8384
#
#
#
# Elastic Compliance Matrix: (Units=1/GPa)
#
#
# Indices 1 2 3 4 5 6 
#
# 1 0.018251 -0.003530 -0.010314 0.000000 0.000000 0.000000
# 2 -0.003530 0.009687 -0.001713 0.000000 0.000000 0.000000
# 3 -0.010314 -0.001713 0.024363 0.000000 0.000000 0.000000
# 4 0.000000 0.000000 0.000000 -0.208192 0.000000 0.000000
# 5 0.000000 0.000000 0.000000 0.000000 0.030380 0.000000
# 6 0.000000 0.000000 0.000000 0.000000 0.000000 0.041949
#
#
# Mechanical properties :
#
#
# Convention : Reuss Voigt Hill
#
# Bulk Modulus (GPa) = 47.19779 51.29152 49.24466
# Shear Modulus (GPa) = -110.16334 21.32381 -44.41976
#
# Velocity S-wave (km/s) = -7.47317 3.28790 -4.74542
# Velocity P-wave (km/s) = 7.10894 6.35739 2.24951
#
# Compressibility (1/GPa) = 0.02118743
#
# Stress axis : x y z
#
# Youngs Moduli (GPa) = 54.79272 103.22617 41.04643
#
# Poissons Ratio (x) = 0.36435 0.42336
# Poissons Ratio (y) = 0.19340 0.07030
# Poissons Ratio (z) = 0.56515 0.17680
#
# Static dielectric constant tensor:
#      x y z
#    x 1.707590 0.000000 0.000000 
#    y 0.000000 1.696590 0.000000 
#    z 0.000000 0.000000 1.811220 
# 
# From -- ./inp_files/18488.got.cif
#   From: 2010.05.17/outbox.cif.g08.bks.cpg/sg21_10_cif.got.tgz:18488.got - 2010.06.03 23:14:55.
