data_PCOD9323616
_publ_section_title
;
Structure prediction by ZEFSAII (Michael W. Deem and Ramdas Pophale) SiO2 
 PCOD9323616
Probable space group: C 2 2 2
;
_chemical_formula_sum "Si O2"
_cell_formula_units_Z 32
_cell_length_a 21.131213
_cell_length_b 10.699562
_cell_length_c 6.908123
_cell_angle_alpha 90.000000
_cell_angle_beta 90.000000
_cell_angle_gamma 90.000000
_cell_volume 1561.890160
_symmetry_space_group_name_H-M "C 2 2 2"
_symmetry_group_IT_number 21
_symmetry_cell_setting 'orthorhombic'
loop_
_space_group_symop_operation_xyz
x,y,z
-x,-y,z
x,-y,-z
-x,y,-z
1/2+x,1/2+y,z
1/2-x,1/2-y,z
1/2+x,1/2-y,-z
1/2-x,1/2+y,-z
loop_
_atom_site_type_symbol
_atom_site_label
_atom_site_fract_x
_atom_site_fract_y
_atom_site_fract_z
Si Si1 0.929900 0.353989 0.049667
Si Si2 0.838359 0.308808 0.350559
Si Si3 0.283531 0.454831 0.719958
Si Si4 0.822027 0.777693 0.201044
O O1 0.907852 0.338320 0.272512
O O2 0.928008 0.500000 0.000000
O O3 0.877281 0.284287 0.921361
O O4 0.000000 0.307075 0.000000
O O5 0.790966 0.416284 0.266621
O O6 0.817980 0.176500 0.259033
O O7 0.829136 0.281105 0.579752
O O8 0.288038 0.500000 0.500000
O O9 0.318357 0.571652 0.817343
O O10 0.750000 0.750000 0.141118
#
# Coordination Sequence:
#
# PCOD9323616 Si02
#       4
#     8   8   8   8
#     4  11  27  43  58  88 126 167 210 247 304 379
#     4  10  20  39  62  89 129 152 198 259 310 352
#     4   9  17  35  60  99 119 147 200 257 308 360
#     4  11  21  37  66  94 120 157 206 255 310 358
#
# _framework density 20.487995000000002
#
# number of rings (size 3 to 8) (size 9 to 14) (size 15 to 20)
#    0.000    1.750    5.000    1.500    3.500    2.000 
#    0.000    5.000    0.000    4.500    0.000    0.000 
#    0.000    0.000    0.000    0.000    0.000    0.000 
#
# Total GULP energy -89155.984009 kJ/mol
# GULP energy per Si atom -5572.249001 kJ/mol
# Density = 2.044136 g / cm^3
# Si number density = 20.487995 Si / 1000 Ang^3
#
#
#
# Elastic Constant Matrix: (Units=GPa)
#
#
# Indices 1 2 3 4 5 6 
#
# 1 153.1628 51.3344 54.5749 0.0000 0.0000 0.0000
# 2 51.3344 106.3904 32.1591 0.0000 0.0000 0.0000
# 3 54.5749 32.1591 84.1603 0.0000 0.0000 0.0000
# 4 0.0000 0.0000 0.0000 24.2916 0.0000 0.0000
# 5 0.0000 0.0000 0.0000 0.0000 87.3115 0.0000
# 6 0.0000 0.0000 0.0000 0.0000 0.0000 29.7187
#
#
#
# Elastic Compliance Matrix: (Units=1/GPa)
#
#
# Indices 1 2 3 4 5 6 
#
# 1 0.009268 -0.003002 -0.004863 0.000000 0.000000 0.000000
# 2 -0.003002 0.011599 -0.002486 0.000000 0.000000 0.000000
# 3 -0.004863 -0.002486 0.015985 0.000000 0.000000 0.000000
# 4 0.000000 0.000000 0.000000 0.041166 0.000000 0.000000
# 5 0.000000 0.000000 0.000000 0.000000 0.011453 0.000000
# 6 0.000000 0.000000 0.000000 0.000000 0.000000 0.033649
#
#
# Mechanical properties :
#
#
# Convention : Reuss Voigt Hill
#
# Bulk Modulus (GPa) = 61.91337 68.87225 65.39281
# Shear Modulus (GPa) = 33.51091 41.97404 37.74247
#
# Velocity S-wave (km/s) = 4.04869 4.53118 4.29671
# Velocity P-wave (km/s) = 7.22086 7.81437 7.52347
#
# Compressibility (1/GPa) = 0.01615160
#
# Stress axis : x y z
#
# Youngs Moduli (GPa) = 107.90016 86.21337 62.55791
#
# Poissons Ratio (x) = 0.25881 0.30420
# Poissons Ratio (y) = 0.32391 0.15549
# Poissons Ratio (z) = 0.52469 0.21429
#
# Static dielectric constant tensor:
#      x y z
#    x 1.725000 0.000000 0.000000 
#    y 0.000000 -0.618830 0.000000 
#    z 0.000000 0.000000 1.863800 
# 
# From -- ./inp_files/14033.got.cif
#   From: 2010.05.17/outbox.cif.g08.bks.cpg/sg21_8_cif.got.tgz:14033.got - 2010.06.03 23:14:55.
