data_PCOD9323748
_publ_section_title
;
Structure prediction by ZEFSAII (Michael W. Deem and Ramdas Pophale) SiO2 
 PCOD9323748
Probable space group: C 2 2 2
;
_chemical_formula_sum "Si O2"
_cell_formula_units_Z 64
_cell_length_a 20.302493
_cell_length_b 20.561464
_cell_length_c 7.219360
_cell_angle_alpha 90.000000
_cell_angle_beta 90.000000
_cell_angle_gamma 90.000000
_cell_volume 3013.714461
_symmetry_space_group_name_H-M "C 2 2 2"
_symmetry_group_IT_number 21
_symmetry_cell_setting 'orthorhombic'
loop_
_space_group_symop_operation_xyz
x,y,z
-x,-y,z
x,-y,-z
-x,y,-z
1/2+x,1/2+y,z
1/2-x,1/2-y,z
1/2+x,1/2-y,-z
1/2-x,1/2+y,-z
loop_
_atom_site_type_symbol
_atom_site_label
_atom_site_fract_x
_atom_site_fract_y
_atom_site_fract_z
Si Si1 0.562777 0.162350 0.129722
Si Si2 0.283799 0.353515 0.281734
Si Si3 0.863655 0.341437 0.782668
Si Si4 0.441402 0.314389 0.773415
Si Si5 0.104286 0.569532 0.445062
Si Si6 0.746504 0.562239 0.623804
Si Si7 0.852942 0.928502 0.960171
Si Si8 0.581824 0.288987 0.661103
O O1 0.571080 0.240157 0.159683
O O2 0.563899 0.119507 0.316024
O O3 0.500000 0.150028 0.000000
O O4 0.621582 0.142285 0.993801
O O5 0.213625 0.325188 0.224842
O O6 0.272133 0.377796 0.490717
O O7 0.345770 0.306978 0.276180
O O8 0.311241 0.408276 0.141912
O O9 0.875494 0.399378 0.640664
O O10 0.915690 0.287510 0.705853
O O11 0.402182 0.371394 0.881611
O O12 0.424391 0.309613 0.553433
O O13 0.478870 0.321316 0.229092
O O14 0.074862 0.500000 0.500000
O O15 0.175179 0.559891 0.344121
O O16 0.729850 0.500000 0.500000
O O17 0.701977 0.564041 0.802523
O O18 0.884193 0.000000 0.000000
#
# Coordination Sequence:
#
# PCOD9323748 Si02
#       8
#     8   8   8   8   8   8   8   8
#     4  12  24  45  75  98 139 187 241 290 363 427
#     4  11  23  39  67 101 136 173 235 294 357 426
#     4  11  23  42  69 103 136 183 231 293 359 429
#     4  11  25  43  70  98 136 194 238 292 356 436
#     4  10  24  44  70 105 142 182 230 287 362 438
#     4  10  20  42  65  97 142 184 221 283 361 427
#     4  12  24  41  70 106 141 185 241 296 358 432
#     4  11  22  45  70  92 139 186 238 290 366 417
#
# _framework density 21.236253999999999
#
# number of rings (size 3 to 8) (size 9 to 14) (size 15 to 20)
#    0.000    1.000    5.000    1.875    0.000    1.000 
#    0.000    5.000    0.000    2.250    0.000    0.000 
#    0.000    0.000    0.000    0.000    0.000    0.000 
#
# Total GULP energy -178491.020382 kJ/mol
# GULP energy per Si atom -5577.844387 kJ/mol
# Density = 2.118792 g / cm^3
# Si number density = 21.236254 Si / 1000 Ang^3
#
#
#
# Elastic Constant Matrix: (Units=GPa)
#
#
# Indices 1 2 3 4 5 6 
#
# 1 110.1235 46.2664 27.3000 0.0000 0.0000 0.0000
# 2 46.2664 108.3792 45.1063 0.0000 0.0000 0.0000
# 3 27.3000 45.1063 96.9141 0.0000 0.0000 0.0000
# 4 0.0000 0.0000 0.0000 30.3866 0.0000 0.0000
# 5 0.0000 0.0000 0.0000 0.0000 33.2997 0.0000
# 6 0.0000 0.0000 0.0000 0.0000 0.0000 12.1562
#
#
#
# Elastic Compliance Matrix: (Units=1/GPa)
#
#
# Indices 1 2 3 4 5 6 
#
# 1 0.011168 -0.004289 -0.001150 0.000000 0.000000 0.000000
# 2 -0.004289 0.013091 -0.004885 0.000000 0.000000 0.000000
# 3 -0.001150 -0.004885 0.012916 0.000000 0.000000 0.000000
# 4 0.000000 0.000000 0.000000 0.032909 0.000000 0.000000
# 5 0.000000 0.000000 0.000000 0.000000 0.030030 0.000000
# 6 0.000000 0.000000 0.000000 0.000000 0.000000 0.082263
#
#
# Mechanical properties :
#
#
# Convention : Reuss Voigt Hill
#
# Bulk Modulus (GPa) = 60.50463 61.41803 60.96133
# Shear Modulus (GPa) = 23.97717 28.28478 26.13097
#
# Velocity S-wave (km/s) = 3.36381 3.65349 3.51164
# Velocity P-wave (km/s) = 6.60606 6.83970 6.72389
#
# Compressibility (1/GPa) = 0.01652766
#
# Stress axis : x y z
#
# Youngs Moduli (GPa) = 89.54450 76.39015 77.42530
#
# Poissons Ratio (x) = 0.32763 0.08901
# Poissons Ratio (y) = 0.38405 0.37819
# Poissons Ratio (z) = 0.10295 0.37313
#
# Static dielectric constant tensor:
#      x y z
#    x 1.779990 0.000000 0.000000 
#    y 0.000000 1.840980 0.000000 
#    z 0.000000 0.000000 1.774490 
# 
# From -- ./inp_files/7524.got.cif
#   From: 2010.05.17/outbox.cif.g08.bks.cpg/sg21_4_cif.got.tgz:7524.got - 2010.06.03 23:14:55.
