data_PCOD9323943
_publ_section_title
;
Structure prediction by ZEFSAII (Michael W. Deem and Ramdas Pophale) SiO2 
 PCOD9323943
Probable space group: C 2 2 2
;
_chemical_formula_sum "Si O2"
_cell_formula_units_Z 48
_cell_length_a 15.240271
_cell_length_b 7.872501
_cell_length_c 17.754884
_cell_angle_alpha 90.000000
_cell_angle_beta 90.000000
_cell_angle_gamma 90.000000
_cell_volume 2130.214092
_symmetry_space_group_name_H-M "C 2 2 2"
_symmetry_group_IT_number 21
_symmetry_cell_setting 'orthorhombic'
loop_
_space_group_symop_operation_xyz
x,y,z
-x,-y,z
x,-y,-z
-x,y,-z
1/2+x,1/2+y,z
1/2-x,1/2-y,z
1/2+x,1/2-y,-z
1/2-x,1/2+y,-z
loop_
_atom_site_type_symbol
_atom_site_label
_atom_site_fract_x
_atom_site_fract_y
_atom_site_fract_z
Si Si1 0.973856 0.805267 0.848369
Si Si2 0.666601 0.136386 0.065362
Si Si3 0.352187 0.804447 0.293607
Si Si4 0.157058 0.291119 0.320481
Si Si5 0.490326 0.792221 0.413942
Si Si6 0.163624 0.324656 0.155258
O O1 0.911564 0.764078 0.918154
O O2 0.919545 0.753196 0.772700
O O3 0.062391 0.700422 0.864811
O O4 0.000000 0.000000 0.842964
O O5 0.750000 0.250000 0.051238
O O6 0.679634 0.023940 0.141369
O O7 0.650759 0.000000 0.000000
O O8 0.250000 0.750000 0.286089
O O9 0.400762 0.744050 0.370980
O O10 0.352248 0.008623 0.303442
O O11 0.250000 0.250000 0.358275
O O12 0.073423 0.229473 0.365606
O O13 0.162424 0.223569 0.235223
O O14 0.500000 0.736470 0.500000
O O15 0.500000 0.000000 0.413960
O O16 0.250000 0.250000 0.115331
#
# Coordination Sequence:
#
# PCOD9323943 Si02
#       6
#     8   8   8   8   8   8
#     4  12  26  43  70 105 143 183 238 285 337 412
#     4  12  27  49  74 106 143 181 221 281 353 421
#     4  11  23  38  63  99 137 181 233 292 349 414
#     4  10  21  37  64  95 133 179 235 285 347 414
#     4   9  19  38  62  93 135 183 230 288 358 418
#     4  11  23  42  70 102 135 180 229 287 346 409
#
# _framework density 22.532945000000002
#
# number of rings (size 3 to 8) (size 9 to 14) (size 15 to 20)
#    0.000    1.167    3.333    2.500    4.667    2.000 
#    0.000    0.833    0.000    3.500    0.000    0.000 
#    0.000    0.000    0.000    0.000    0.000    0.000 
#
# Total GULP energy -133859.830319 kJ/mol
# GULP energy per Si atom -5577.492930 kJ/mol
# Density = 2.248166 g / cm^3
# Si number density = 22.532945 Si / 1000 Ang^3
#
#
#
# Elastic Constant Matrix: (Units=GPa)
#
#
# Indices 1 2 3 4 5 6 
#
# 1 206.0968 37.9361 72.7594 0.0000 0.0000 0.0000
# 2 37.9361 79.8667 24.6872 0.0000 0.0000 0.0000
# 3 72.7594 24.6872 116.7397 0.0000 0.0000 0.0000
# 4 0.0000 0.0000 0.0000 3.0673 0.0000 0.0000
# 5 0.0000 0.0000 0.0000 0.0000 -56.9715 0.0000
# 6 0.0000 0.0000 0.0000 0.0000 0.0000 42.8380
#
#
#
# Elastic Compliance Matrix: (Units=1/GPa)
#
#
# Indices 1 2 3 4 5 6 
#
# 1 0.006496 -0.001962 -0.003634 0.000000 0.000000 0.000000
# 2 -0.001962 0.013989 -0.001735 0.000000 0.000000 0.000000
# 3 -0.003634 -0.001735 0.011198 0.000000 0.000000 0.000000
# 4 0.000000 0.000000 0.000000 0.326020 0.000000 0.000000
# 5 0.000000 0.000000 0.000000 0.000000 -0.017553 0.000000
# 6 0.000000 0.000000 0.000000 0.000000 0.000000 0.023344
#
#
# Mechanical properties :
#
#
# Convention : Reuss Voigt Hill
#
# Bulk Modulus (GPa) = 58.75304 74.82984 66.79144
# Shear Modulus (GPa) = 13.02658 15.60813 14.31735
#
# Velocity S-wave (km/s) = 2.40701 2.63474 2.52344
# Velocity P-wave (km/s) = 5.81857 6.52204 6.18032
#
# Compressibility (1/GPa) = 0.01702040
#
# Stress axis : x y z
#
# Youngs Moduli (GPa) = 153.93679 71.48281 89.30289
#
# Poissons Ratio (x) = 0.14028 0.32451
# Poissons Ratio (y) = 0.30209 0.15497
# Poissons Ratio (z) = 0.55938 0.12404
#
# Static dielectric constant tensor:
#      x y z
#    x 1.937540 0.000000 0.000000 
#    y 0.000000 1.844890 0.000000 
#    z 0.000000 0.000000 1.946160 
# 
# From -- ./inp_files/36633.got.cif
#   From: 2010.05.17/outbox.cif.g08.bks.cpg/sg21_19_cif.got.tgz:36633.got - 2010.06.03 23:14:55.
