data_PCOD9323204
_publ_section_title
;
Structure prediction by ZEFSAII (Michael W. Deem and Ramdas Pophale) SiO2 
 PCOD9323204
Probable space group: C 2 2 2
;
_chemical_formula_sum "Si O2"
_cell_formula_units_Z 46
_cell_length_a 20.610946
_cell_length_b 12.020262
_cell_length_c 7.344988
_cell_angle_alpha 90.000000
_cell_angle_beta 90.000000
_cell_angle_gamma 90.000000
_cell_volume 1819.713219
_symmetry_space_group_name_H-M "C 2 2 2"
_symmetry_group_IT_number 21
_symmetry_cell_setting 'orthorhombic'
loop_
_space_group_symop_operation_xyz
x,y,z
-x,-y,z
x,-y,-z
-x,y,-z
1/2+x,1/2+y,z
1/2-x,1/2-y,z
1/2+x,1/2-y,-z
1/2-x,1/2+y,-z
loop_
_atom_site_type_symbol
_atom_site_label
_atom_site_fract_x
_atom_site_fract_y
_atom_site_fract_z
Si Si1 0.681213 0.961267 0.793566
Si Si2 0.571122 0.825975 0.941834
Si Si3 0.500000 0.000000 0.500000
Si Si4 0.925555 0.878612 0.432614
Si Si5 0.114928 0.649380 0.648476
Si Si6 0.374371 0.627629 0.969307
Si Si7 0.250000 0.250000 0.882123
O O1 0.723826 0.852474 0.761948
O O2 0.675601 0.064745 0.657207
O O3 0.607969 0.909570 0.810651
O O4 0.697284 0.000000 0.000000
O O5 0.607472 0.828080 0.136114
O O6 0.580037 0.696718 0.888307
O O7 0.500000 0.857692 0.000000
O O8 0.450647 0.915495 0.597885
O O9 0.884967 0.763876 0.464719
O O10 0.917182 0.881794 0.214389
O O11 0.000000 0.864749 0.500000
O O12 0.902215 0.000000 0.500000
O O13 0.358023 0.500000 0.000000
O O14 0.305959 0.693477 0.994567
#
# Coordination Sequence:
#
# PCOD9323204 Si02
#       7
#     8   8   2   8   8   8   4
#     4   9  18  34  59  91 129 164 213 282 356 399
#     4   9  18  32  53  88 133 165 202 269 352 406
#     4  12  20  32  56  88 132 168 232 256 316 426
#     4  10  22  42  61  90 141 190 226 273 341 424
#     4  10  20  34  54  88 125 179 215 268 328 405
#     4  10  22  38  65 102 128 176 232 287 347 409
#     4  10  20  40  66 106 132 166 224 308 360 406
#
# _framework density 25.27871
#
# number of rings (size 3 to 8) (size 9 to 14) (size 15 to 20)
#    0.000    2.261    0.870    2.609    0.000    8.348 
#    6.261    0.000    0.000    1.043   47.478    0.000 
#    0.000    0.000    0.000    0.000    0.000    0.000 
#
# Total GULP energy -128127.746628 kJ/mol
# GULP energy per Si atom -5570.771593 kJ/mol
# Density = 2.522117 g / cm^3
# Si number density = 25.278710 Si / 1000 Ang^3
#
#
#
# Elastic Constant Matrix: (Units=GPa)
#
#
# Indices 1 2 3 4 5 6 
#
# 1 98.3148 42.5198 20.2607 0.0000 0.0000 0.0000
# 2 42.5198 229.2087 42.2763 0.0000 0.0000 0.0000
# 3 20.2607 42.2763 67.0609 0.0000 0.0000 0.0000
# 4 0.0000 0.0000 0.0000 37.3018 0.0000 0.0000
# 5 0.0000 0.0000 0.0000 0.0000 20.2118 0.0000
# 6 0.0000 0.0000 0.0000 0.0000 0.0000 23.1895
#
#
#
# Elastic Compliance Matrix: (Units=1/GPa)
#
#
# Indices 1 2 3 4 5 6 
#
# 1 0.011386 -0.001672 -0.002386 0.000000 0.000000 0.000000
# 2 -0.001672 0.005182 -0.002762 0.000000 0.000000 0.000000
# 3 -0.002386 -0.002762 0.017374 0.000000 0.000000 0.000000
# 4 0.000000 0.000000 0.000000 0.026808 0.000000 0.000000
# 5 0.000000 0.000000 0.000000 0.000000 0.049476 0.000000
# 6 0.000000 0.000000 0.000000 0.000000 0.000000 0.043123
#
#
# Mechanical properties :
#
#
# Convention : Reuss Voigt Hill
#
# Bulk Modulus (GPa) = 49.25477 67.18866 58.22172
# Shear Modulus (GPa) = 28.77575 35.44246 32.10911
#
# Velocity S-wave (km/s) = 3.37759 3.74848 3.56786
# Velocity P-wave (km/s) = 5.89388 6.73585 6.32888
#
# Compressibility (1/GPa) = 0.02030260
#
# Stress axis : x y z
#
# Youngs Moduli (GPa) = 87.82500 192.95879 57.55787
#
# Poissons Ratio (x) = 0.32266 0.13733
# Poissons Ratio (y) = 0.14686 0.15897
# Poissons Ratio (z) = 0.20954 0.53293
#
# Static dielectric constant tensor:
#      x y z
#    x 1.999450 0.000000 0.000000 
#    y 0.000000 2.426110 0.000000 
#    z 0.000000 0.000000 2.037960 
# 
# From -- ./inp_files/18486.got.cif
#   From: 2010.05.17/outbox.cif.g08.bks.cpg/sg21_10_cif.got.tgz:18486.got - 2010.06.03 23:14:55.
