data_PCOD9323481
_publ_section_title
;
Structure prediction by ZEFSAII (Michael W. Deem and Ramdas Pophale) SiO2 
 PCOD9323481
Probable space group: C 2 2 2
;
_chemical_formula_sum "Si O2"
_cell_formula_units_Z 64
_cell_length_a 9.507491
_cell_length_b 30.264866
_cell_length_c 11.992628
_cell_angle_alpha 90.000000
_cell_angle_beta 90.000000
_cell_angle_gamma 90.000000
_cell_volume 3450.794052
_symmetry_space_group_name_H-M "C 2 2 2"
_symmetry_group_IT_number 21
_symmetry_cell_setting 'orthorhombic'
loop_
_space_group_symop_operation_xyz
x,y,z
-x,-y,z
x,-y,-z
-x,y,-z
1/2+x,1/2+y,z
1/2-x,1/2-y,z
1/2+x,1/2-y,-z
1/2-x,1/2+y,-z
loop_
_atom_site_type_symbol
_atom_site_label
_atom_site_fract_x
_atom_site_fract_y
_atom_site_fract_z
Si Si1 0.336053 0.154052 0.499556
Si Si2 0.759139 0.113698 0.276579
Si Si3 0.998316 0.052720 0.367442
Si Si4 0.496660 0.679987 0.756074
Si Si5 0.985997 0.632285 0.132934
Si Si6 0.768370 0.113410 0.734071
Si Si7 0.368524 0.276793 0.443881
Si Si8 0.414813 0.765583 0.884157
O O1 0.500000 0.161855 0.500000
O O2 0.301066 0.121836 0.600121
O O3 0.295272 0.135707 0.377930
O O4 0.240557 0.197422 0.522008
O O5 0.866145 0.073063 0.298847
O O6 0.628325 0.115682 0.192424
O O7 0.858415 0.154421 0.238258
O O8 0.000000 0.065977 0.500000
O O9 0.135485 0.073712 0.309674
O O10 0.000000 0.000000 0.363140
O O11 0.372914 0.647666 0.797164
O O12 0.451752 0.687410 0.628178
O O13 0.487574 0.728231 0.808095
O O14 0.858929 0.603767 0.183610
O O15 0.942368 0.684092 0.158795
O O16 0.000000 0.629262 0.000000
O O17 0.500000 0.252733 0.500000
O O18 0.250000 0.250000 0.373319
O O19 0.250000 0.750000 0.895855
O O20 0.500000 0.763615 0.000000
#
# Coordination Sequence:
#
# PCOD9323481 Si02
#       8
#     8   8   8   8   8   8   8   8
#     4  11  20  34  55  84 118 160 196 238 312 364
#     4  11  22  39  62  91 125 162 204 251 313 386
#     4  10  21  40  70 103 130 155 194 250 318 396
#     4  10  22  35  56  78 115 163 202 250 313 359
#     4  11  25  41  62  89 123 170 221 266 305 358
#     4  10  20  37  62  88 127 162 194 253 316 374
#     4  11  22  33  46  73 112 154 205 247 292 367
#     4  11  24  40  57  82 118 162 228 279 313 338
#
# _framework density 18.546455999999999
#
# number of rings (size 3 to 8) (size 9 to 14) (size 15 to 20)
#    0.000    1.375    5.000    0.750    5.250    1.000 
#    0.000    2.500    0.000    4.500    0.000    0.000 
#    0.000    0.000    0.000    0.000    0.000    0.000 
#
# Total GULP energy -178199.443927 kJ/mol
# GULP energy per Si atom -5568.732623 kJ/mol
# Density = 1.850424 g / cm^3
# Si number density = 18.546456 Si / 1000 Ang^3
#
#
#
# Elastic Constant Matrix: (Units=GPa)
#
#
# Indices 1 2 3 4 5 6 
#
# 1 166.6289 45.5531 43.6368 0.0000 0.0000 0.0000
# 2 45.5531 75.8687 28.1025 0.0000 0.0000 0.0000
# 3 43.6368 28.1025 74.2491 0.0000 0.0000 0.0000
# 4 0.0000 0.0000 0.0000 19.3120 0.0000 0.0000
# 5 0.0000 0.0000 0.0000 0.0000 25.4807 0.0000
# 6 0.0000 0.0000 0.0000 0.0000 0.0000 11.7569
#
#
#
# Elastic Compliance Matrix: (Units=1/GPa)
#
#
# Indices 1 2 3 4 5 6 
#
# 1 0.007809 -0.003476 -0.003274 0.000000 0.000000 0.000000
# 2 -0.003476 0.016877 -0.004345 0.000000 0.000000 0.000000
# 3 -0.003274 -0.004345 0.017037 0.000000 0.000000 0.000000
# 4 0.000000 0.000000 0.000000 0.051781 0.000000 0.000000
# 5 0.000000 0.000000 0.000000 0.000000 0.039245 0.000000
# 6 0.000000 0.000000 0.000000 0.000000 0.000000 0.085057
#
#
# Mechanical properties :
#
#
# Convention : Reuss Voigt Hill
#
# Bulk Modulus (GPa) = 51.19441 61.25904 56.22672
# Shear Modulus (GPa) = 20.28344 24.60688 22.44516
#
# Velocity S-wave (km/s) = 3.31063 3.64644 3.48259
# Velocity P-wave (km/s) = 6.50208 7.12955 6.82303
#
# Compressibility (1/GPa) = 0.01953338
#
# Stress axis : x y z
#
# Youngs Moduli (GPa) = 128.05791 59.25167 58.69679
#
# Poissons Ratio (x) = 0.20596 0.19216
# Poissons Ratio (y) = 0.44513 0.25503
# Poissons Ratio (z) = 0.41923 0.25745
#
# Static dielectric constant tensor:
#      x y z
#    x 1.689810 0.000000 0.000000 
#    y 0.000000 1.683130 0.000000 
#    z 0.000000 0.000000 1.677240 
# 
# From -- ./inp_files/23146.got.cif
#   From: 2010.05.17/outbox.cif.g08.bks.cpg/sg21_12_cif.got.tgz:23146.got - 2010.06.03 23:14:55.
