data_PCOD9323423
_publ_section_title
;
Structure prediction by ZEFSAII (Michael W. Deem and Ramdas Pophale) SiO2 
 PCOD9323423
Probable space group: C 2 2 2
;
_chemical_formula_sum "Si O2"
_cell_formula_units_Z 34
_cell_length_a 22.419815
_cell_length_b 5.415698
_cell_length_c 13.207978
_cell_angle_alpha 90.000000
_cell_angle_beta 90.000000
_cell_angle_gamma 90.000000
_cell_volume 1603.698784
_symmetry_space_group_name_H-M "C 2 2 2"
_symmetry_group_IT_number 21
_symmetry_cell_setting 'orthorhombic'
loop_
_space_group_symop_operation_xyz
x,y,z
-x,-y,z
x,-y,-z
-x,y,-z
1/2+x,1/2+y,z
1/2-x,1/2-y,z
1/2+x,1/2-y,-z
1/2-x,1/2+y,-z
loop_
_atom_site_type_symbol
_atom_site_label
_atom_site_fract_x
_atom_site_fract_y
_atom_site_fract_z
Si Si1 0.898365 0.739334 0.384521
Si Si2 0.381297 0.744145 0.261852
Si Si3 0.250000 0.250000 0.685086
Si Si4 0.568445 0.249309 0.042547
Si Si5 0.500000 0.500000 0.500000
Si Si6 0.196938 0.000000 0.500000
O O1 0.899632 0.471997 0.334158
O O2 0.959972 0.819777 0.433544
O O3 0.848039 0.778233 0.471227
O O4 0.886629 0.968087 0.307114
O O5 0.309759 0.787156 0.250428
O O6 0.422073 0.754700 0.162305
O O7 0.234797 0.040650 0.601192
O O8 0.596195 0.500000 0.000000
O O9 0.500000 0.249549 0.000000
O O10 0.596613 0.000000 0.000000
#
# Coordination Sequence:
#
# PCOD9323423 Si02
#       6
#     8   8   4   8   2   4
#     4  10  23  38  59  89 129 163 211 253 304 378
#     4  11  23  40  61  91 117 159 213 263 316 380
#     4  10  20  36  64  88 124 164 208 254 302 374
#     4  10  22  41  64  86 114 150 197 257 323 384
#     4  10  24  38  56  90 134 182 204 256 316 368
#     4   9  18  35  58  88 124 167 200 245 302 356
#
# _framework density 21.200987999999999
#
# number of rings (size 3 to 8) (size 9 to 14) (size 15 to 20)
#    0.000    1.882    0.000    2.824    0.000   17.882 
#    0.000    1.176    0.000    0.000    0.000    0.000 
#    0.000    0.000    0.000    0.000    0.000    0.000 
#
# Total GULP energy -94813.160145 kJ/mol
# GULP energy per Si atom -5577.244714 kJ/mol
# Density = 2.115273 g / cm^3
# Si number density = 21.200988 Si / 1000 Ang^3
#
#
#
# Elastic Constant Matrix: (Units=GPa)
#
#
# Indices 1 2 3 4 5 6 
#
# 1 108.7476 -0.1559 35.1478 0.0000 0.0000 0.0000
# 2 -0.1559 137.2375 37.3956 0.0000 0.0000 0.0000
# 3 35.1478 37.3956 101.8168 0.0000 0.0000 0.0000
# 4 0.0000 0.0000 0.0000 37.4148 0.0000 0.0000
# 5 0.0000 0.0000 0.0000 0.0000 131.2034 0.0000
# 6 0.0000 0.0000 0.0000 0.0000 0.0000 12.2740
#
#
#
# Elastic Compliance Matrix: (Units=1/GPa)
#
#
# Indices 1 2 3 4 5 6 
#
# 1 0.010501 0.001111 -0.004033 0.000000 0.000000 0.000000
# 2 0.001111 0.008215 -0.003401 0.000000 0.000000 0.000000
# 3 -0.004033 -0.003401 0.012463 0.000000 0.000000 0.000000
# 4 0.000000 0.000000 0.000000 0.026727 0.000000 0.000000
# 5 0.000000 0.000000 0.000000 0.000000 0.007622 0.000000
# 6 0.000000 0.000000 0.000000 0.000000 0.000000 0.081473
#
#
# Mechanical properties :
#
#
# Convention : Reuss Voigt Hill
#
# Bulk Modulus (GPa) = 53.95863 54.73078 54.34470
# Shear Modulus (GPa) = 30.15271 54.53940 42.34605
#
# Velocity S-wave (km/s) = 3.77534 5.07748 4.47403
# Velocity P-wave (km/s) = 6.67162 7.76181 7.23727
#
# Compressibility (1/GPa) = 0.01853272
#
# Stress axis : x y z
#
# Youngs Moduli (GPa) = 95.23225 121.73586 80.23943
#
# Poissons Ratio (x) = -0.13523 0.32360
# Poissons Ratio (y) = -0.10579 0.27286
# Poissons Ratio (z) = 0.38406 0.41397
#
# Static dielectric constant tensor:
#      x y z
#    x 1.814000 0.000000 0.000000 
#    y 0.000000 1.777010 0.000000 
#    z 0.000000 0.000000 1.792780 
# 
# From -- ./inp_files/27120.got.cif
#   From: 2010.05.17/outbox.cif.g08.bks.cpg/sg21_14_cif.got.tgz:27120.got - 2010.06.03 23:14:55.
