data_PCOD9323740
_publ_section_title
;
Structure prediction by ZEFSAII (Michael W. Deem and Ramdas Pophale) SiO2 
 PCOD9323740
Probable space group: C 2 2 2
;
_chemical_formula_sum "Si O2"
_cell_formula_units_Z 32
_cell_length_a 19.656734
_cell_length_b 14.605195
_cell_length_c 5.204536
_cell_angle_alpha 90.000000
_cell_angle_beta 90.000000
_cell_angle_gamma 90.000000
_cell_volume 1494.172494
_symmetry_space_group_name_H-M "C 2 2 2"
_symmetry_group_IT_number 21
_symmetry_cell_setting 'orthorhombic'
loop_
_space_group_symop_operation_xyz
x,y,z
-x,-y,z
x,-y,-z
-x,y,-z
1/2+x,1/2+y,z
1/2-x,1/2-y,z
1/2+x,1/2-y,-z
1/2-x,1/2+y,-z
loop_
_atom_site_type_symbol
_atom_site_label
_atom_site_fract_x
_atom_site_fract_y
_atom_site_fract_z
Si Si1 0.750000 0.750000 0.246185
Si Si2 0.382997 0.174966 0.111512
Si Si3 0.195494 0.903811 0.376467
Si Si4 0.802822 0.500000 0.000000
Si Si5 0.430222 0.729364 0.375225
O O1 0.685425 0.765846 0.070674
O O2 0.764819 0.837208 0.425955
O O3 0.406452 0.205720 0.391615
O O4 0.355338 0.927923 0.876047
O O5 0.431489 0.206766 0.879141
O O6 0.125635 0.849283 0.320605
O O7 0.174285 0.000000 0.500000
O O8 0.251255 0.937591 0.168426
O O9 0.500000 0.690929 0.500000
#
# Coordination Sequence:
#
# PCOD9323740 Si02
#       5
#     4   8   8   4   8
#     4  10  20  42  62 104 142 178 216 292 368 408
#     4  11  23  41  69  95 135 178 223 290 339 406
#     4  11  23  39  68 102 137 172 222 287 344 408
#     4  12  22  40  69 113 130 164 234 302 364 390
#     4  11  26  46  65  92 138 191 229 262 336 418
#
# _framework density 21.416536000000001
#
# number of rings (size 3 to 8) (size 9 to 14) (size 15 to 20)
#    0.000    1.000    2.500    5.250    3.500    1.500 
#    0.000    3.750    0.000    0.000    0.000    0.000 
#    0.000    0.000    0.000    0.000    0.000    0.000 
#
# Total GULP energy -89187.349093 kJ/mol
# GULP energy per Si atom -5574.209318 kJ/mol
# Density = 2.136779 g / cm^3
# Si number density = 21.416536 Si / 1000 Ang^3
#
#
#
# Elastic Constant Matrix: (Units=GPa)
#
#
# Indices 1 2 3 4 5 6 
#
# 1 93.6966 48.7862 35.4838 0.0000 0.0000 0.0000
# 2 48.7862 153.8994 54.7706 0.0000 0.0000 0.0000
# 3 35.4838 54.7706 75.4300 0.0000 0.0000 0.0000
# 4 0.0000 0.0000 0.0000 -3.0976 0.0000 0.0000
# 5 0.0000 0.0000 0.0000 0.0000 19.3309 0.0000
# 6 0.0000 0.0000 0.0000 0.0000 0.0000 20.3213
#
#
#
# Elastic Compliance Matrix: (Units=1/GPa)
#
#
# Indices 1 2 3 4 5 6 
#
# 1 0.013820 -0.002788 -0.004477 0.000000 0.000000 0.000000
# 2 -0.002788 0.009324 -0.005459 0.000000 0.000000 0.000000
# 3 -0.004477 -0.005459 0.019327 0.000000 0.000000 0.000000
# 4 0.000000 0.000000 0.000000 -0.322834 0.000000 0.000000
# 5 0.000000 0.000000 0.000000 0.000000 0.051731 0.000000
# 6 0.000000 0.000000 0.000000 0.000000 0.000000 0.049209
#
#
# Mechanical properties :
#
#
# Convention : Reuss Voigt Hill
#
# Bulk Modulus (GPa) = 58.74089 66.78969 62.76529
# Shear Modulus (GPa) = -33.71521 19.57662 -7.06930
#
# Velocity S-wave (km/s) = -3.97200 3.02667 -1.81880
# Velocity P-wave (km/s) = 2.54001 6.59303 4.99598
#
# Compressibility (1/GPa) = 0.01702391
#
# Stress axis : x y z
#
# Youngs Moduli (GPa) = 72.36071 107.24753 51.74026
#
# Poissons Ratio (x) = 0.29896 0.23164
# Poissons Ratio (y) = 0.20171 0.28246
# Poissons Ratio (z) = 0.32396 0.58548
#
# Static dielectric constant tensor:
#      x y z
#    x 2.001520 0.000000 0.000000 
#    y 0.000000 1.776440 0.000000 
#    z 0.000000 0.000000 1.836330 
# 
# From -- ./inp_files/3646.got.cif
#   From: 2010.05.17/outbox.cif.g08.bks.cpg/sg21_2_cif.got.tgz:3646.got - 2010.06.03 23:14:55.
