data_PCOD9323908
_publ_section_title
;
Structure prediction by ZEFSAII (Michael W. Deem and Ramdas Pophale) SiO2 
 PCOD9323908
Probable space group: C 2 2 2
;
_chemical_formula_sum "Si O2"
_cell_formula_units_Z 22
_cell_length_a 11.175630
_cell_length_b 15.365764
_cell_length_c 5.015172
_cell_angle_alpha 90.000000
_cell_angle_beta 90.000000
_cell_angle_gamma 90.000000
_cell_volume 861.215833
_symmetry_space_group_name_H-M "C 2 2 2"
_symmetry_group_IT_number 21
_symmetry_cell_setting 'orthorhombic'
loop_
_space_group_symop_operation_xyz
x,y,z
-x,-y,z
x,-y,-z
-x,y,-z
1/2+x,1/2+y,z
1/2-x,1/2-y,z
1/2+x,1/2-y,-z
1/2-x,1/2+y,-z
loop_
_atom_site_type_symbol
_atom_site_label
_atom_site_fract_x
_atom_site_fract_y
_atom_site_fract_z
Si Si1 0.500000 0.000000 0.000000
Si Si2 0.170408 0.620076 0.347060
Si Si3 0.195368 0.152740 0.149397
Si Si4 0.500000 0.277818 0.500000
O O1 0.576302 0.059911 0.198222
O O2 0.220797 0.600724 0.640488
O O3 0.099878 0.712513 0.375021
O O4 0.283340 0.620422 0.147369
O O5 0.250000 0.250000 0.147199
O O6 0.066308 0.164787 0.278889
#
# Coordination Sequence:
#
# PCOD9323908 Si02
#       4
#     2   8   8   4
#     4  12  24  42  60  84 128 162 204 248 300 364
#     4  11  24  36  59  90 118 161 200 244 300 364
#     4  10  21  37  58  90 120 151 201 249 306 359
#     4  10  22  41  66  93 128 156 198 268 320 350
#
# _framework density 25.545282
#
# number of rings (size 3 to 8) (size 9 to 14) (size 15 to 20)
#    0.000    1.455    0.000    7.636    0.000   13.818 
#    0.000    0.000    0.000    6.545    0.000    0.000 
#    0.000    0.000    0.000    0.000    0.000    0.000 
#
# Total GULP energy -61620.966653 kJ/mol
# GULP energy per Si atom -5601.906059 kJ/mol
# Density = 2.548714 g / cm^3
# Si number density = 25.545282 Si / 1000 Ang^3
#
#
#
# Elastic Constant Matrix: (Units=GPa)
#
#
# Indices 1 2 3 4 5 6 
#
# 1 113.1376 9.2392 37.1959 0.0000 0.0000 0.0000
# 2 9.2392 43.9821 28.4102 0.0000 0.0000 0.0000
# 3 37.1959 28.4102 164.6617 0.0000 0.0000 0.0000
# 4 0.0000 0.0000 0.0000 36.1399 0.0000 0.0000
# 5 0.0000 0.0000 0.0000 0.0000 55.0071 0.0000
# 6 0.0000 0.0000 0.0000 0.0000 0.0000 40.5616
#
#
#
# Elastic Compliance Matrix: (Units=1/GPa)
#
#
# Indices 1 2 3 4 5 6 
#
# 1 0.009566 -0.000691 -0.002042 0.000000 0.000000 0.000000
# 2 -0.000691 0.025638 -0.004268 0.000000 0.000000 0.000000
# 3 -0.002042 -0.004268 0.007271 0.000000 0.000000 0.000000
# 4 0.000000 0.000000 0.000000 0.027670 0.000000 0.000000
# 5 0.000000 0.000000 0.000000 0.000000 0.018179 0.000000
# 6 0.000000 0.000000 0.000000 0.000000 0.000000 0.024654
#
#
# Mechanical properties :
#
#
# Convention : Reuss Voigt Hill
#
# Bulk Modulus (GPa) = 35.11824 52.38579 43.75202
# Shear Modulus (GPa) = 36.63789 42.80411 39.72100
#
# Velocity S-wave (km/s) = 3.79124 4.09787 3.94753
# Velocity P-wave (km/s) = 5.73950 6.55299 6.15969
#
# Compressibility (1/GPa) = 0.02847523
#
# Stress axis : x y z
#
# Youngs Moduli (GPa) = 104.53164 39.00424 137.54029
#
# Poissons Ratio (x) = 0.02694 0.28083
# Poissons Ratio (y) = 0.07220 0.58696
# Poissons Ratio (z) = 0.21344 0.16645
#
# Static dielectric constant tensor:
#      x y z
#    x 2.073540 0.000000 0.000000 
#    y 0.000000 2.043720 0.000000 
#    z 0.000000 0.000000 2.003160 
# 
# From -- ./inp_files/1956.got.cif
#   From: 2010.05.17/outbox.cif.g08.bks.cpg/sg21_1_cif.got.tgz:1956.got - 2010.06.03 23:14:55.
