data_PCOD9323392
_publ_section_title
;
Structure prediction by ZEFSAII (Michael W. Deem and Ramdas Pophale) SiO2 
 PCOD9323392
Probable space group: C 2 2 2
;
_chemical_formula_sum "Si O2"
_cell_formula_units_Z 58
_cell_length_a 10.996135
_cell_length_b 10.996124
_cell_length_c 25.177450
_cell_angle_alpha 90.000000
_cell_angle_beta 90.000000
_cell_angle_gamma 90.000000
_cell_volume 3044.327942
_symmetry_space_group_name_H-M "C 2 2 2"
_symmetry_group_IT_number 21
_symmetry_cell_setting 'orthorhombic'
loop_
_space_group_symop_operation_xyz
x,y,z
-x,-y,z
x,-y,-z
-x,y,-z
1/2+x,1/2+y,z
1/2-x,1/2-y,z
1/2+x,1/2-y,-z
1/2-x,1/2+y,-z
loop_
_atom_site_type_symbol
_atom_site_label
_atom_site_fract_x
_atom_site_fract_y
_atom_site_fract_z
Si Si1 0.850608 0.350607 0.913915
Si Si2 0.500000 0.000000 0.000000
Si Si3 0.550434 0.241592 0.440743
Si Si4 0.895577 0.895577 0.365451
Si Si5 0.649241 0.649241 0.242737
Si Si6 0.448593 0.748322 0.166488
Si Si7 0.758408 0.449567 0.440743
Si Si8 0.251675 0.448593 0.833512
O O1 0.750000 0.250000 0.928353
O O2 0.915719 0.415719 0.963028
O O3 0.787945 0.454592 0.877780
O O4 0.954593 0.287943 0.877780
O O5 0.500000 0.226325 0.500000
O O6 0.449973 0.284445 0.399205
O O7 0.649770 0.350230 0.443563
O O8 0.621041 0.121041 0.423943
O O9 0.863481 0.863481 0.305576
O O10 0.784445 0.949973 0.399204
O O11 0.000000 0.000000 0.363631
O O12 0.750000 0.750000 0.229601
O O13 0.524825 0.694698 0.215669
O O14 0.694701 0.524824 0.215670
O O15 0.356999 0.643000 0.147395
O O16 0.364414 0.864412 0.180540
O O17 0.773674 0.500000 0.500000
#
# Coordination Sequence:
#
# PCOD9323392 Si02
#       8
#     8   2   8   8   8   8   8   8
#     4  12  24  44  70 102 138 184 228 272 331 388
#     4  12  28  44  68 104 156 172 228 292 310 380
#     4  10  20  36  61  86 116 164 209 257 326 395
#     4  10  22  38  58  88 132 163 215 270 322 381
#     4  12  24  40  64  97 133 176 217 281 331 393
#     4  11  22  40  70  98 129 177 226 268 332 397
#     4  10  20  36  61  86 116 164 209 257 326 395
#     4  11  22  40  70  98 129 177 226 268 332 397
#
# _framework density 19.051825000000001
#
# number of rings (size 3 to 8) (size 9 to 14) (size 15 to 20)
#    0.000    1.103    5.517    1.241    0.000    3.586 
#    0.000    2.759    0.000    0.000    0.000    0.000 
#    0.000    0.000    0.000    0.000    0.000    0.000 
#
# Total GULP energy -162094.949564 kJ/mol
# GULP energy per Si atom -5589.481019 kJ/mol
# Density = 1.900846 g / cm^3
# Si number density = 19.051825 Si / 1000 Ang^3
#
#
#
# Elastic Constant Matrix: (Units=GPa)
#
#
# Indices 1 2 3 4 5 6 
#
# 1 115.4996 87.3041 66.8415 0.0000 0.0000 0.0000
# 2 87.3041 115.4889 66.8373 0.0000 0.0000 0.0000
# 3 66.8415 66.8373 138.4426 0.0000 0.0000 0.0000
# 4 0.0000 0.0000 0.0000 47.3236 0.0000 0.0000
# 5 0.0000 0.0000 0.0000 0.0000 47.3252 0.0000
# 6 0.0000 0.0000 0.0000 0.0000 0.0000 39.1045
#
#
#
# Elastic Compliance Matrix: (Units=1/GPa)
#
#
# Indices 1 2 3 4 5 6 
#
# 1 0.021352 -0.014120 -0.003492 0.000000 0.000000 0.000000
# 2 -0.014120 0.021354 -0.003492 0.000000 0.000000 0.000000
# 3 -0.003492 -0.003492 0.010595 0.000000 0.000000 0.000000
# 4 0.000000 0.000000 0.000000 0.021131 0.000000 0.000000
# 5 0.000000 0.000000 0.000000 0.000000 0.021130 0.000000
# 6 0.000000 0.000000 0.000000 0.000000 0.000000 0.025573
#
#
# Mechanical properties :
#
#
# Convention : Reuss Voigt Hill
#
# Bulk Modulus (GPa) = 90.14875 90.15521 90.15198
# Shear Modulus (GPa) = 29.93272 36.64719 33.28996
#
# Velocity S-wave (km/s) = 3.96804 4.39059 4.18465
# Velocity P-wave (km/s) = 8.27128 8.55142 8.41252
#
# Compressibility (1/GPa) = 0.01109278
#
# Stress axis : x y z
#
# Youngs Moduli (GPa) = 46.83346 46.82972 94.38403
#
# Poissons Ratio (x) = 0.66125 0.32960
# Poissons Ratio (y) = 0.66130 0.32957
# Poissons Ratio (z) = 0.16355 0.16352
#
# Static dielectric constant tensor:
#      x y z
#    x 1.673620 0.000000 0.000000 
#    y 0.000000 1.673630 0.000000 
#    z 0.000000 0.000000 1.603960 
# 
# From -- ./inp_files/39260.got.cif
#   From: 2010.05.17/outbox.cif.g08.bks.cpg/sg21_20_cif.got.tgz:39260.got - 2010.06.03 23:14:55.
