data_PCOD9323474
_publ_section_title
;
Structure prediction by ZEFSAII (Michael W. Deem and Ramdas Pophale) SiO2 
 PCOD9323474
Probable space group: C 2 2 2
;
_chemical_formula_sum "Si O2"
_cell_formula_units_Z 38
_cell_length_a 8.544874
_cell_length_b 11.946964
_cell_length_c 18.281906
_cell_angle_alpha 90.000000
_cell_angle_beta 90.000000
_cell_angle_gamma 90.000000
_cell_volume 1866.313896
_symmetry_space_group_name_H-M "C 2 2 2"
_symmetry_group_IT_number 21
_symmetry_cell_setting 'orthorhombic'
loop_
_space_group_symop_operation_xyz
x,y,z
-x,-y,z
x,-y,-z
-x,y,-z
1/2+x,1/2+y,z
1/2-x,1/2-y,z
1/2+x,1/2-y,-z
1/2-x,1/2+y,-z
loop_
_atom_site_type_symbol
_atom_site_label
_atom_site_fract_x
_atom_site_fract_y
_atom_site_fract_z
Si Si1 0.216761 0.566895 0.262584
Si Si2 0.400814 0.678104 0.385104
Si Si3 0.000000 0.000000 0.500000
Si Si4 0.751594 0.882775 0.899831
Si Si5 0.388977 0.173471 0.300621
Si Si6 0.500000 0.000000 0.000000
Si Si7 0.500000 0.500000 0.000000
O O1 0.356839 0.624189 0.306672
O O2 0.254566 0.553622 0.177747
O O3 0.182794 0.450768 0.304583
O O4 0.057778 0.642764 0.264011
O O5 0.250000 0.750000 0.405015
O O6 0.413271 0.582952 0.445012
O O7 0.552038 0.756742 0.371744
O O8 0.750000 0.750000 0.886601
O O9 0.896673 0.921361 0.948485
O O10 0.603732 0.922786 0.947186
O O11 0.250000 0.250000 0.266555
#
# Coordination Sequence:
#
# PCOD9323474 Si02
#       7
#     8   8   2   8   8   2   2
#     4  10  22  39  62  91 121 159 208 258 310 373
#     4  10  23  41  60  88 123 157 202 257 312 371
#     4  12  24  38  64  92 120 166 208 254 320 384
#     4  11  22  41  62  87 126 166 208 261 314 373
#     4  10  20  37  61  90 120 153 198 252 309 367
#     4  10  22  38  60  92 124 160 206 254 316 384
#     4  10  26  40  60  92 124 172 218 250 312 386
#
# _framework density 20.360990000000001
#
# number of rings (size 3 to 8) (size 9 to 14) (size 15 to 20)
#    0.000    1.684    0.000    5.053    0.000    6.737 
#    0.000    5.263    0.000    5.053    0.000    0.000 
#    0.000    0.000    0.000    0.000    0.000    0.000 
#
# Total GULP energy -105914.985703 kJ/mol
# GULP energy per Si atom -5574.472932 kJ/mol
# Density = 2.031465 g / cm^3
# Si number density = 20.360990 Si / 1000 Ang^3
#
#
#
# Elastic Constant Matrix: (Units=GPa)
#
#
# Indices 1 2 3 4 5 6 
#
# 1 74.6355 40.4660 33.9250 0.0000 0.0000 0.0000
# 2 40.4660 128.1689 43.9376 0.0000 0.0000 0.0000
# 3 33.9250 43.9376 103.8012 0.0000 0.0000 0.0000
# 4 0.0000 0.0000 0.0000 18.4375 0.0000 0.0000
# 5 0.0000 0.0000 0.0000 0.0000 9.9415 0.0000
# 6 0.0000 0.0000 0.0000 0.0000 0.0000 22.3572
#
#
#
# Elastic Compliance Matrix: (Units=1/GPa)
#
#
# Indices 1 2 3 4 5 6 
#
# 1 0.017444 -0.004156 -0.003942 0.000000 0.000000 0.000000
# 2 -0.004156 0.010117 -0.002924 0.000000 0.000000 0.000000
# 3 -0.003942 -0.002924 0.012160 0.000000 0.000000 0.000000
# 4 0.000000 0.000000 0.000000 0.054237 0.000000 0.000000
# 5 0.000000 0.000000 0.000000 0.000000 0.100589 0.000000
# 6 0.000000 0.000000 0.000000 0.000000 0.000000 0.044728
#
#
# Mechanical properties :
#
#
# Convention : Reuss Voigt Hill
#
# Bulk Modulus (GPa) = 56.57274 60.36255 58.46765
# Shear Modulus (GPa) = 18.71184 22.69900 20.70542
#
# Velocity S-wave (km/s) = 3.03480 3.34253 3.19237
# Velocity P-wave (km/s) = 6.33444 6.67886 6.50893
#
# Compressibility (1/GPa) = 0.01767636
#
# Stress axis : x y z
#
# Youngs Moduli (GPa) = 57.32793 98.84608 82.23839
#
# Poissons Ratio (x) = 0.41081 0.32417
# Poissons Ratio (y) = 0.23826 0.24046
# Poissons Ratio (z) = 0.22598 0.28902
#
# Static dielectric constant tensor:
#      x y z
#    x 1.738350 0.000000 0.000000 
#    y 0.000000 1.742180 0.000000 
#    z 0.000000 0.000000 1.714490 
# 
# From -- ./inp_files/35535.got.cif
#   From: 2010.05.17/outbox.cif.g08.bks.cpg/sg21_18_cif.got.tgz:35535.got - 2010.06.03 23:14:55.
