data_PCOD9323498
_publ_section_title
;
Structure prediction by ZEFSAII (Michael W. Deem and Ramdas Pophale) SiO2 
 PCOD9323498
Probable space group: C 2 2 2
;
_chemical_formula_sum "Si O2"
_cell_formula_units_Z 48
_cell_length_a 16.903885
_cell_length_b 8.701163
_cell_length_c 17.154824
_cell_angle_alpha 90.000000
_cell_angle_beta 90.000000
_cell_angle_gamma 90.000000
_cell_volume 2523.190848
_symmetry_space_group_name_H-M "C 2 2 2"
_symmetry_group_IT_number 21
_symmetry_cell_setting 'orthorhombic'
loop_
_space_group_symop_operation_xyz
x,y,z
-x,-y,z
x,-y,-z
-x,y,-z
1/2+x,1/2+y,z
1/2-x,1/2-y,z
1/2+x,1/2-y,-z
1/2-x,1/2+y,-z
loop_
_atom_site_type_symbol
_atom_site_label
_atom_site_fract_x
_atom_site_fract_y
_atom_site_fract_z
Si Si1 0.662297 0.297660 0.823564
Si Si2 0.081399 0.692944 0.352341
Si Si3 0.892137 0.340900 0.659270
Si Si4 0.079758 0.100007 0.791343
Si Si5 0.164425 0.183790 0.499467
Si Si6 0.009744 0.319990 0.091919
O O1 0.750000 0.250000 0.846062
O O2 0.643418 0.228398 0.738035
O O3 0.645258 0.479291 0.818813
O O4 0.596603 0.230275 0.881210
O O5 0.119698 0.524346 0.344918
O O6 0.107870 0.808036 0.284372
O O7 0.101929 0.758580 0.436741
O O8 0.986949 0.680241 0.341328
O O9 0.857128 0.253942 0.584589
O O10 0.051452 0.218967 0.857545
O O11 0.000000 0.000000 0.772460
O O12 0.250000 0.250000 0.522179
O O13 0.166114 0.000000 0.500000
O O14 0.000000 0.500000 0.109787
O O15 0.000000 0.295070 0.000000
#
# Coordination Sequence:
#
# PCOD9323498 Si02
#       6
#     8   8   8   8   8   8
#     4  11  23  39  64  97 131 162 211 266 318 369
#     4  11  22  38  63  88 119 166 216 256 307 389
#     4  11  22  40  62  88 124 162 212 261 316 373
#     4  10  20  37  64  92 124 163 211 251 311 378
#     4  12  26  40  57  82 123 164 210 268 323 368
#     4  10  21  42  68  93 126 171 209 254 313 386
#
# _framework density 19.023530999999998
#
# number of rings (size 3 to 8) (size 9 to 14) (size 15 to 20)
#    0.000    1.167    3.333    4.500    0.000    6.333 
#    0.000    5.833    0.000    0.000    0.000    0.000 
#    0.000    0.000    0.000    0.000    0.000    0.000 
#
# Total GULP energy -134193.668286 kJ/mol
# GULP energy per Si atom -5591.402845 kJ/mol
# Density = 1.898023 g / cm^3
# Si number density = 19.023531 Si / 1000 Ang^3
#
#
#
# Elastic Constant Matrix: (Units=GPa)
#
#
# Indices 1 2 3 4 5 6 
#
# 1 71.6719 31.0885 27.0758 0.0000 0.0000 0.0000
# 2 31.0885 149.4659 66.4233 0.0000 0.0000 0.0000
# 3 27.0758 66.4233 103.9065 0.0000 0.0000 0.0000
# 4 0.0000 0.0000 0.0000 48.4889 0.0000 0.0000
# 5 0.0000 0.0000 0.0000 0.0000 -32.6866 0.0000
# 6 0.0000 0.0000 0.0000 0.0000 0.0000 25.9017
#
#
#
# Elastic Compliance Matrix: (Units=1/GPa)
#
#
# Indices 1 2 3 4 5 6 
#
# 1 0.015913 -0.002049 -0.002837 0.000000 0.000000 0.000000
# 2 -0.002049 0.009609 -0.005609 0.000000 0.000000 0.000000
# 3 -0.002837 -0.005609 0.013949 0.000000 0.000000 0.000000
# 4 0.000000 0.000000 0.000000 0.020623 0.000000 0.000000
# 5 0.000000 0.000000 0.000000 0.000000 -0.030594 0.000000
# 6 0.000000 0.000000 0.000000 0.000000 0.000000 0.038608
#
#
# Mechanical properties :
#
#
# Convention : Reuss Voigt Hill
#
# Bulk Modulus (GPa) = 54.10789 63.80218 58.95504
# Shear Modulus (GPa) = 52.48894 21.70457 37.09675
#
# Velocity S-wave (km/s) = 5.25847 3.38143 4.42072
# Velocity P-wave (km/s) = 8.08536 6.98977 7.55744
#
# Compressibility (1/GPa) = 0.01848159
#
# Stress axis : x y z
#
# Youngs Moduli (GPa) = 62.84195 104.06544 71.69124
#
# Poissons Ratio (x) = 0.21326 0.20336
# Poissons Ratio (y) = 0.12878 0.40211
# Poissons Ratio (z) = 0.17825 0.58369
#
# Static dielectric constant tensor:
#      x y z
#    x 1.656400 0.000000 0.000000 
#    y 0.000000 1.670270 0.000000 
#    z 0.000000 0.000000 1.634150 
# 
# From -- ./inp_files/32820.got.cif
#   From: 2010.05.17/outbox.cif.g08.bks.cpg/sg21_17_cif.got.tgz:32820.got - 2010.06.03 23:14:55.
