data_PCOD9323396
_publ_section_title
;
Structure prediction by ZEFSAII (Michael W. Deem and Ramdas Pophale) SiO2 
 PCOD9323396
Probable space group: C 2 2 2
;
_chemical_formula_sum "Si O2"
_cell_formula_units_Z 56
_cell_length_a 11.036261
_cell_length_b 16.438994
_cell_length_c 16.100044
_cell_angle_alpha 90.000000
_cell_angle_beta 90.000000
_cell_angle_gamma 90.000000
_cell_volume 2920.950939
_symmetry_space_group_name_H-M "C 2 2 2"
_symmetry_group_IT_number 21
_symmetry_cell_setting 'orthorhombic'
loop_
_space_group_symop_operation_xyz
x,y,z
-x,-y,z
x,-y,-z
-x,y,-z
1/2+x,1/2+y,z
1/2-x,1/2-y,z
1/2+x,1/2-y,-z
1/2-x,1/2+y,-z
loop_
_atom_site_type_symbol
_atom_site_label
_atom_site_fract_x
_atom_site_fract_y
_atom_site_fract_z
Si Si1 0.646249 0.596062 0.502456
Si Si2 0.353019 0.688358 0.664586
Si Si3 0.131501 0.197676 0.831194
Si Si4 0.747510 0.890608 0.678648
Si Si5 0.133178 0.027908 0.905895
Si Si6 0.739091 0.940021 0.240220
Si Si7 0.009037 0.680230 0.734399
O O1 0.676068 0.500000 0.500000
O O2 0.500000 0.601550 0.500000
O O3 0.683251 0.646402 0.421211
O O4 0.706702 0.628530 0.586538
O O5 0.250000 0.750000 0.693445
O O6 0.350953 0.618488 0.733858
O O7 0.460994 0.752295 0.663592
O O8 0.250000 0.250000 0.850801
O O9 0.161696 0.150700 0.744660
O O10 0.125593 0.125228 0.896919
O O11 0.023746 0.261791 0.813432
O O12 0.614157 0.861219 0.704191
O O13 0.742950 0.987280 0.693222
O O14 0.232510 0.985126 0.846375
O O15 0.000000 0.000000 0.877657
O O16 0.151954 0.000000 0.000000
O O17 0.614950 0.886465 0.247345
#
# Coordination Sequence:
#
# PCOD9323396 Si02
#       7
#     8   8   8   8   8   8   8
#     4  11  22  35  54  80 115 156 203 244 291 350
#     4  10  21  35  53  80 113 147 196 250 294 344
#     4   9  19  36  58  85 115 153 199 245 293 354
#     4  10  20  37  61  83 115 161 204 244 302 361
#     4  10  21  38  61  89 120 157 197 239 293 367
#     4  10  20  38  61  86 118 155 200 245 301 365
#     4  10  20  36  61  88 115 156 201 253 305 351
#
# _framework density 19.171838000000001
#
# number of rings (size 3 to 8) (size 9 to 14) (size 15 to 20)
#    0.000    2.000    1.429    2.143    0.000    4.000 
#    0.000    7.143    0.000   14.571    0.000    0.000 
#    0.000    0.000    0.000    0.000    0.000    0.000 
#
# Total GULP energy -155880.419762 kJ/mol
# GULP energy per Si atom -5567.157849 kJ/mol
# Density = 1.912820 g / cm^3
# Si number density = 19.171838 Si / 1000 Ang^3
#
#
#
# Elastic Constant Matrix: (Units=GPa)
#
#
# Indices 1 2 3 4 5 6 
#
# 1 53.7753 24.1026 8.5433 0.0000 0.0000 0.0000
# 2 24.1026 116.1193 16.4250 0.0000 0.0000 0.0000
# 3 8.5433 16.4250 65.7207 0.0000 0.0000 0.0000
# 4 0.0000 0.0000 0.0000 17.5105 0.0000 0.0000
# 5 0.0000 0.0000 0.0000 0.0000 15.0597 0.0000
# 6 0.0000 0.0000 0.0000 0.0000 0.0000 16.0758
#
#
#
# Elastic Compliance Matrix: (Units=1/GPa)
#
#
# Indices 1 2 3 4 5 6 
#
# 1 0.020680 -0.004056 -0.001675 0.000000 0.000000 0.000000
# 2 -0.004056 0.009723 -0.001903 0.000000 0.000000 0.000000
# 3 -0.001675 -0.001903 0.015909 0.000000 0.000000 0.000000
# 4 0.000000 0.000000 0.000000 0.057109 0.000000 0.000000
# 5 0.000000 0.000000 0.000000 0.000000 0.066402 0.000000
# 6 0.000000 0.000000 0.000000 0.000000 0.000000 0.062205
#
#
# Mechanical properties :
#
#
# Convention : Reuss Voigt Hill
#
# Bulk Modulus (GPa) = 32.21056 37.08413 34.64735
# Shear Modulus (GPa) = 19.40674 22.16549 20.78612
#
# Velocity S-wave (km/s) = 3.18504 3.40391 3.29629
# Velocity P-wave (km/s) = 5.51030 5.90202 5.70952
#
# Compressibility (1/GPa) = 0.03104572
#
# Stress axis : x y z
#
# Youngs Moduli (GPa) = 48.35660 102.85130 62.85697
#
# Poissons Ratio (x) = 0.41712 0.10526
# Poissons Ratio (y) = 0.19611 0.11960
# Poissons Ratio (z) = 0.08098 0.19570
#
# Static dielectric constant tensor:
#      x y z
#    x 1.737820 0.000000 0.000000 
#    y 0.000000 1.704840 0.000000 
#    z 0.000000 0.000000 1.677740 
# 
# From -- ./inp_files/31567.got.cif
#   From: 2010.05.17/outbox.cif.g08.bks.cpg/sg21_16_cif.got.tgz:31567.got - 2010.06.03 23:14:55.
