data_PCOD9323347
_publ_section_title
;
Structure prediction by ZEFSAII (Michael W. Deem and Ramdas Pophale) SiO2 
 PCOD9323347
Probable space group: C 2 2 2
;
_chemical_formula_sum "Si O2"
_cell_formula_units_Z 64
_cell_length_a 11.789908
_cell_length_b 22.347752
_cell_length_c 12.609994
_cell_angle_alpha 90.000000
_cell_angle_beta 90.000000
_cell_angle_gamma 90.000000
_cell_volume 3322.455244
_symmetry_space_group_name_H-M "C 2 2 2"
_symmetry_group_IT_number 21
_symmetry_cell_setting 'orthorhombic'
loop_
_space_group_symop_operation_xyz
x,y,z
-x,-y,z
x,-y,-z
-x,y,-z
1/2+x,1/2+y,z
1/2-x,1/2-y,z
1/2+x,1/2-y,-z
1/2-x,1/2+y,-z
loop_
_atom_site_type_symbol
_atom_site_label
_atom_site_fract_x
_atom_site_fract_y
_atom_site_fract_z
Si Si1 0.294957 0.815503 0.122943
Si Si2 0.369231 0.278741 0.299431
Si Si3 0.476627 0.397963 0.380098
Si Si4 0.225818 0.145875 0.108387
Si Si5 0.470656 0.163515 0.211349
Si Si6 0.723376 0.416736 0.284552
Si Si7 0.454334 0.932699 0.384667
Si Si8 0.879389 0.027975 0.807714
O O1 0.250000 0.750000 0.149794
O O2 0.431299 0.821876 0.126396
O O3 0.259092 0.861471 0.213169
O O4 0.238996 0.833138 0.011443
O O5 0.250000 0.250000 0.337925
O O6 0.419519 0.332391 0.369704
O O7 0.343540 0.308564 0.184011
O O8 0.452846 0.223695 0.280162
O O9 0.500000 0.415975 0.500000
O O10 0.600118 0.400700 0.327829
O O11 0.401468 0.442641 0.308727
O O12 0.351930 0.146641 0.157383
O O13 0.167156 0.081274 0.119990
O O14 0.502285 0.110299 0.291378
O O15 0.817890 0.430039 0.373435
O O16 0.709056 0.474902 0.210172
O O17 0.500000 0.913309 0.500000
O O18 0.500000 0.000000 0.368397
O O19 0.000000 0.000000 0.843130
#
# Coordination Sequence:
#
# PCOD9323347 Si02
#       8
#     8   8   8   8   8   8   8   8
#     4  11  22  37  57  82 114 151 190 233 285 340
#     4   9  19  36  56  84 117 147 186 235 282 337
#     4  10  21  37  59  85 112 150 192 232 287 345
#     4  10  20  36  60  84 111 149 189 232 282 340
#     4  10  20  36  56  81 113 147 188 234 279 338
#     4  10  22  38  56  82 115 147 185 237 287 341
#     4  10  22  37  56  81 109 147 190 233 287 341
#     4   9  20  39  58  84 117 146 185 237 288 343
#
# _framework density 19.262861999999998
#
# number of rings (size 3 to 8) (size 9 to 14) (size 15 to 20)
#    0.000    2.125    0.000    3.000    0.000    8.250 
#    0.000   13.125    0.000    2.250    0.000    0.000 
#    0.000    0.000    0.000    0.000    0.000    0.000 
#
# Total GULP energy -178594.596906 kJ/mol
# GULP energy per Si atom -5581.081153 kJ/mol
# Density = 1.921902 g / cm^3
# Si number density = 19.262862 Si / 1000 Ang^3
#
#
#
# Elastic Constant Matrix: (Units=GPa)
#
#
# Indices 1 2 3 4 5 6 
#
# 1 44.7964 37.3686 15.0085 0.0000 0.0000 0.0000
# 2 37.3686 121.7581 20.5992 0.0000 0.0000 0.0000
# 3 15.0085 20.5992 45.1956 0.0000 0.0000 0.0000
# 4 0.0000 0.0000 0.0000 -8.5490 0.0000 0.0000
# 5 0.0000 0.0000 0.0000 0.0000 21.1809 0.0000
# 6 0.0000 0.0000 0.0000 0.0000 0.0000 31.6077
#
#
#
# Elastic Compliance Matrix: (Units=1/GPa)
#
#
# Indices 1 2 3 4 5 6 
#
# 1 0.031727 -0.008620 -0.006607 0.000000 0.000000 0.000000
# 2 -0.008620 0.011241 -0.002261 0.000000 0.000000 0.000000
# 3 -0.006607 -0.002261 0.025351 0.000000 0.000000 0.000000
# 4 0.000000 0.000000 0.000000 -0.116972 0.000000 0.000000
# 5 0.000000 0.000000 0.000000 0.000000 0.047212 0.000000
# 6 0.000000 0.000000 0.000000 0.000000 0.000000 0.031638
#
#
# Mechanical properties :
#
#
# Convention : Reuss Voigt Hill
#
# Bulk Modulus (GPa) = 29.99119 39.74474 34.86797
# Shear Modulus (GPa) = 65.54212 18.09950 41.82081
#
# Velocity S-wave (km/s) = 5.83943 3.06862 4.66452
# Velocity P-wave (km/s) = 7.81464 5.76480 6.86664
#
# Compressibility (1/GPa) = 0.03334312
#
# Stress axis : x y z
#
# Youngs Moduli (GPa) = 31.51865 88.96064 39.44658
#
# Poissons Ratio (x) = 0.76680 0.26064
# Poissons Ratio (y) = 0.27168 0.08919
# Poissons Ratio (z) = 0.20826 0.20114
#
# Static dielectric constant tensor:
#      x y z
#    x 1.706320 0.000000 0.000000 
#    y 0.000000 1.669810 0.000000 
#    z 0.000000 0.000000 1.651780 
# 
# From -- ./inp_files/24396.got.cif
#   From: 2010.05.17/outbox.cif.g08.bks.cpg/sg21_13_cif.got.tgz:24396.got - 2010.06.03 23:14:55.
