data_PCOD9323714
_publ_section_title
;
Structure prediction by ZEFSAII (Michael W. Deem and Ramdas Pophale) SiO2 
 PCOD9323714
Probable space group: C 2 2 2
;
_chemical_formula_sum "Si O2"
_cell_formula_units_Z 40
_cell_length_a 19.332824
_cell_length_b 11.965255
_cell_length_c 7.294692
_cell_angle_alpha 90.000000
_cell_angle_beta 90.000000
_cell_angle_gamma 90.000000
_cell_volume 1687.423976
_symmetry_space_group_name_H-M "C 2 2 2"
_symmetry_group_IT_number 21
_symmetry_cell_setting 'orthorhombic'
loop_
_space_group_symop_operation_xyz
x,y,z
-x,-y,z
x,-y,-z
-x,y,-z
1/2+x,1/2+y,z
1/2-x,1/2-y,z
1/2+x,1/2-y,-z
1/2-x,1/2+y,-z
loop_
_atom_site_type_symbol
_atom_site_label
_atom_site_fract_x
_atom_site_fract_y
_atom_site_fract_z
Si Si1 0.700374 0.902084 0.870546
Si Si2 0.164495 0.758196 0.677618
Si Si3 0.080025 0.017817 0.278809
Si Si4 0.670043 0.319558 0.257541
Si Si5 0.922767 0.531855 0.286952
O O1 0.682431 0.771603 0.901826
O O2 0.758493 0.887531 0.715781
O O3 0.627876 0.947824 0.810709
O O4 0.728757 0.000000 0.000000
O O5 0.250000 0.750000 0.708828
O O6 0.125148 0.869784 0.750869
O O7 0.154699 0.765992 0.454496
O O8 0.116970 0.651137 0.734931
O O9 0.083287 0.000000 0.500000
O O10 0.116199 0.909943 0.195017
O O11 0.000000 0.000000 0.228424
O O12 0.922083 0.500000 0.500000
O O13 0.000000 0.500000 0.223107
#
# Coordination Sequence:
#
# PCOD9323714 Si02
#       5
#     8   8   8   8   8
#     4  11  23  42  64  89 132 184 223 273 340 410
#     4  11  19  36  65 100 135 169 218 280 343 407
#     4   9  20  33  61  97 131 164 208 268 348 407
#     4  10  20  41  63  88 130 172 223 283 330 403
#     4  11  23  37  65 102 137 170 221 282 345 409
#
# _framework density 23.704772999999999
#
# number of rings (size 3 to 8) (size 9 to 14) (size 15 to 20)
#    0.000    1.600    4.000    1.200    2.800    3.600 
#   10.800    0.000    0.000    0.600    0.000    0.000 
#    0.000    0.000    0.000    0.000    0.000    0.000 
#
# Total GULP energy -111355.716919 kJ/mol
# GULP energy per Si atom -5567.785846 kJ/mol
# Density = 2.365082 g / cm^3
# Si number density = 23.704773 Si / 1000 Ang^3
#
#
#
# Elastic Constant Matrix: (Units=GPa)
#
#
# Indices 1 2 3 4 5 6 
#
# 1 212.6605 125.5127 19.7831 0.0000 0.0000 0.0000
# 2 125.5127 216.7337 31.0898 0.0000 0.0000 0.0000
# 3 19.7831 31.0898 60.6758 0.0000 0.0000 0.0000
# 4 0.0000 0.0000 0.0000 32.7916 0.0000 0.0000
# 5 0.0000 0.0000 0.0000 0.0000 14.8263 0.0000
# 6 0.0000 0.0000 0.0000 0.0000 0.0000 38.7907
#
#
#
# Elastic Compliance Matrix: (Units=1/GPa)
#
#
# Indices 1 2 3 4 5 6 
#
# 1 0.007147 -0.004106 -0.000226 0.000000 0.000000 0.000000
# 2 -0.004106 0.007339 -0.002422 0.000000 0.000000 0.000000
# 3 -0.000226 -0.002422 0.017796 0.000000 0.000000 0.000000
# 4 0.000000 0.000000 0.000000 0.030496 0.000000 0.000000
# 5 0.000000 0.000000 0.000000 0.000000 0.067448 0.000000
# 6 0.000000 0.000000 0.000000 0.000000 0.000000 0.025779
#
#
# Mechanical properties :
#
#
# Convention : Reuss Voigt Hill
#
# Bulk Modulus (GPa) = 53.26699 93.64902 73.45801
# Shear Modulus (GPa) = 28.44607 38.19402 33.32005
#
# Velocity S-wave (km/s) = 3.46788 4.01838 3.75324
# Velocity P-wave (km/s) = 6.20924 7.81805 7.05963
#
# Compressibility (1/GPa) = 0.01877335
#
# Stress axis : x y z
#
# Youngs Moduli (GPa) = 139.91856 136.24995 56.19351
#
# Poissons Ratio (x) = 0.55951 0.01271
# Poissons Ratio (y) = 0.57457 0.13609
# Poissons Ratio (z) = 0.03164 0.32997
#
# Static dielectric constant tensor:
#      x y z
#    x 1.928470 0.000000 0.000000 
#    y 0.000000 2.011240 0.000000 
#    z 0.000000 0.000000 1.915750 
# 
# From -- ./inp_files/12713.got.cif
#   From: 2010.05.17/outbox.cif.g08.bks.cpg/sg21_7_cif.got.tgz:12713.got - 2010.06.03 23:14:55.
