data_PCOD9323847
_publ_section_title
;
Structure prediction by ZEFSAII (Michael W. Deem and Ramdas Pophale) SiO2 
 PCOD9323847
Probable space group: C 2 2 2
;
_chemical_formula_sum "Si O2"
_cell_formula_units_Z 36
_cell_length_a 7.695213
_cell_length_b 17.707884
_cell_length_c 13.233014
_cell_angle_alpha 90.000000
_cell_angle_beta 90.000000
_cell_angle_gamma 90.000000
_cell_volume 1803.209081
_symmetry_space_group_name_H-M "C 2 2 2"
_symmetry_group_IT_number 21
_symmetry_cell_setting 'orthorhombic'
loop_
_space_group_symop_operation_xyz
x,y,z
-x,-y,z
x,-y,-z
-x,y,-z
1/2+x,1/2+y,z
1/2-x,1/2-y,z
1/2+x,1/2-y,-z
1/2-x,1/2+y,-z
loop_
_atom_site_type_symbol
_atom_site_label
_atom_site_fract_x
_atom_site_fract_y
_atom_site_fract_z
Si Si1 0.000000 0.500000 0.500000
Si Si2 0.000000 0.000000 0.000000
Si Si3 0.000000 0.372533 0.000000
Si Si4 0.860531 0.587631 0.206168
Si Si5 0.529136 0.625259 0.823544
Si Si6 0.250000 0.750000 0.083060
Si Si7 0.681923 0.927473 0.683626
O O1 0.874966 0.551285 0.570499
O O2 0.934135 0.937591 0.914020
O O3 0.939200 0.419957 0.905016
O O4 0.158133 0.316475 0.977216
O O5 0.675693 0.627322 0.196801
O O6 0.822340 0.508031 0.258738
O O7 0.021552 0.621116 0.270215
O O8 0.600795 0.706073 0.857025
O O9 0.636168 0.605004 0.721721
#
# Coordination Sequence:
#
# PCOD9323847 Si02
#       7
#     2   2   4   8   8   4   8
#     4   8  20  40  70  94 120 150 220 294 334 382
#     4  12  22  36  66  88 132 176 224 256 304 398
#     4  12  21  37  52  82 130 176 208 242 299 389
#     4  10  21  35  61  85 122 163 213 256 313 381
#     4  12  23  39  58  92 130 172 213 262 315 394
#     4  12  26  36  52  90 134 178 212 258 318 390
#     4  10  21  40  61  98 114 157 207 283 332 365
#
# _framework density 19.964406
#
# number of rings (size 3 to 8) (size 9 to 14) (size 15 to 20)
#    0.000    1.333    4.444    3.333    0.000    1.778 
#    0.000    8.889    0.000    0.000   11.556    0.000 
#    0.000    0.000    0.000    0.000    0.000    0.000 
#
# Total GULP energy -100205.847167 kJ/mol
# GULP energy per Si atom -5566.991509 kJ/mol
# Density = 1.991897 g / cm^3
# Si number density = 19.964406 Si / 1000 Ang^3
#
#
#
# Elastic Constant Matrix: (Units=GPa)
#
#
# Indices 1 2 3 4 5 6 
#
# 1 135.6617 12.0179 45.5908 0.0000 0.0000 0.0000
# 2 12.0179 70.0865 20.5988 0.0000 0.0000 0.0000
# 3 45.5908 20.5988 131.2749 0.0000 0.0000 0.0000
# 4 0.0000 0.0000 0.0000 41.4035 0.0000 0.0000
# 5 0.0000 0.0000 0.0000 0.0000 31.7300 0.0000
# 6 0.0000 0.0000 0.0000 0.0000 0.0000 25.8690
#
#
#
# Elastic Compliance Matrix: (Units=1/GPa)
#
#
# Indices 1 2 3 4 5 6 
#
# 1 0.008370 -0.000609 -0.002811 0.000000 0.000000 0.000000
# 2 -0.000609 0.015002 -0.002143 0.000000 0.000000 0.000000
# 3 -0.002811 -0.002143 0.008930 0.000000 0.000000 0.000000
# 4 0.000000 0.000000 0.000000 0.024153 0.000000 0.000000
# 5 0.000000 0.000000 0.000000 0.000000 0.031516 0.000000
# 6 0.000000 0.000000 0.000000 0.000000 0.000000 0.038656
#
#
# Mechanical properties :
#
#
# Convention : Reuss Voigt Hill
#
# Bulk Modulus (GPa) = 47.22168 54.82646 51.02407
# Shear Modulus (GPa) = 34.52760 37.05486 35.79123
#
# Velocity S-wave (km/s) = 4.16319 4.31286 4.23868
# Velocity P-wave (km/s) = 6.84206 7.23345 7.04047
#
# Compressibility (1/GPa) = 0.02117671
#
# Stress axis : x y z
#
# Youngs Moduli (GPa) = 119.47447 66.65688 111.98036
#
# Poissons Ratio (x) = 0.04059 0.31481
# Poissons Ratio (y) = 0.07276 0.23992
# Poissons Ratio (z) = 0.33588 0.14282
#
# Static dielectric constant tensor:
#      x y z
#    x 1.582350 0.000000 0.000000 
#    y 0.000000 1.869900 0.000000 
#    z 0.000000 0.000000 1.721730 
# 
# From -- ./inp_files/22518.got.cif
#   From: 2010.05.17/outbox.cif.g08.bks.cpg/sg21_12_cif.got.tgz:22518.got - 2010.06.03 23:14:55.
