data_PCOD9323832
_publ_section_title
;
Structure prediction by ZEFSAII (Michael W. Deem and Ramdas Pophale) SiO2 
 PCOD9323832
Probable space group: C 2 2 2
;
_chemical_formula_sum "Si O2"
_cell_formula_units_Z 64
_cell_length_a 13.308642
_cell_length_b 25.182569
_cell_length_c 8.792884
_cell_angle_alpha 90.000000
_cell_angle_beta 90.000000
_cell_angle_gamma 90.000000
_cell_volume 2946.898103
_symmetry_space_group_name_H-M "C 2 2 2"
_symmetry_group_IT_number 21
_symmetry_cell_setting 'orthorhombic'
loop_
_space_group_symop_operation_xyz
x,y,z
-x,-y,z
x,-y,-z
-x,y,-z
1/2+x,1/2+y,z
1/2-x,1/2-y,z
1/2+x,1/2-y,-z
1/2-x,1/2+y,-z
loop_
_atom_site_type_symbol
_atom_site_label
_atom_site_fract_x
_atom_site_fract_y
_atom_site_fract_z
Si Si1 0.035037 0.687536 0.335137
Si Si2 0.979007 0.790712 0.173012
Si Si3 0.824189 0.862076 0.258914
Si Si4 0.395107 0.476691 0.172967
Si Si5 0.803006 0.608948 0.661971
Si Si6 0.407849 0.368360 0.588404
Si Si7 0.327179 0.008156 0.821298
Si Si8 0.618917 0.092910 0.674030
O O1 0.005380 0.730514 0.211415
O O2 0.150187 0.667953 0.327980
O O3 0.000000 0.709812 0.500000
O O4 0.972538 0.633151 0.322141
O O5 0.040138 0.825449 0.300442
O O6 0.863333 0.807800 0.189635
O O7 0.000000 0.804640 0.000000
O O8 0.889233 0.912461 0.193136
O O9 0.843868 0.851980 0.438744
O O10 0.710071 0.878688 0.235518
O O11 0.500000 0.500000 0.238377
O O12 0.286772 0.494480 0.238242
O O13 0.393628 0.500000 0.000000
O O14 0.682557 0.606128 0.681927
O O15 0.847860 0.568653 0.783505
O O16 0.839483 0.587681 0.497755
O O17 0.500000 0.397497 0.500000
O O18 0.397067 0.964879 0.741643
O O19 0.329686 0.000000 0.000000
#
# Coordination Sequence:
#
# PCOD9323832 Si02
#       8
#     8   8   8   8   8   8   8   8
#     4  10  22  42  64  87 111 157 207 263 303 354
#     4  11  24  38  61  88 121 157 201 251 313 371
#     4   9  19  37  59  88 117 161 195 245 298 360
#     4   9  19  31  54  87 123 159 197 234 295 360
#     4  10  21  38  65  87 118 158 205 248 301 361
#     4   9  20  38  61  86 122 152 192 244 292 359
#     4  10  21  35  56  88 124 164 195 248 305 365
#     4   9  20  40  61  85 120 153 209 252 301 360
#
# _framework density 21.717751
#
# number of rings (size 3 to 8) (size 9 to 14) (size 15 to 20)
#    0.000    2.375    0.000    1.500    5.250    4.500 
#    0.000    8.750    0.000    0.000    0.000    0.000 
#    0.000    0.000    0.000    0.000    0.000    0.000 
#
# Total GULP energy -178197.237378 kJ/mol
# GULP energy per Si atom -5568.663668 kJ/mol
# Density = 2.166832 g / cm^3
# Si number density = 21.717751 Si / 1000 Ang^3
#
#
#
# Elastic Constant Matrix: (Units=GPa)
#
#
# Indices 1 2 3 4 5 6 
#
# 1 77.4906 21.8634 10.2750 0.0000 0.0000 0.0000
# 2 21.8634 61.8442 30.1365 0.0000 0.0000 0.0000
# 3 10.2750 30.1365 56.8312 0.0000 0.0000 0.0000
# 4 0.0000 0.0000 0.0000 32.2670 0.0000 0.0000
# 5 0.0000 0.0000 0.0000 0.0000 13.5922 0.0000
# 6 0.0000 0.0000 0.0000 0.0000 0.0000 12.2509
#
#
#
# Elastic Compliance Matrix: (Units=1/GPa)
#
#
# Indices 1 2 3 4 5 6 
#
# 1 0.014335 -0.005131 0.000129 0.000000 0.000000 0.000000
# 2 -0.005131 0.023640 -0.011608 0.000000 0.000000 0.000000
# 3 0.000129 -0.011608 0.023728 0.000000 0.000000 0.000000
# 4 0.000000 0.000000 0.000000 0.030991 0.000000 0.000000
# 5 0.000000 0.000000 0.000000 0.000000 0.073572 0.000000
# 6 0.000000 0.000000 0.000000 0.000000 0.000000 0.081627
#
#
# Mechanical properties :
#
#
# Convention : Reuss Voigt Hill
#
# Bulk Modulus (GPa) = 35.10793 35.63510 35.37152
# Shear Modulus (GPa) = 17.20527 20.54808 18.87667
#
# Velocity S-wave (km/s) = 2.81770 3.07928 2.95139
# Velocity P-wave (km/s) = 5.17557 5.39319 5.28550
#
# Compressibility (1/GPa) = 0.02848359
#
# Stress axis : x y z
#
# Youngs Moduli (GPa) = 69.75793 42.30090 42.14377
#
# Poissons Ratio (x) = 0.21703 -0.00543
# Poissons Ratio (y) = 0.35791 0.48922
# Poissons Ratio (z) = -0.00899 0.49104
#
# Static dielectric constant tensor:
#      x y z
#    x 1.959440 0.000000 0.000000 
#    y 0.000000 1.786480 0.000000 
#    z 0.000000 0.000000 1.796900 
# 
# From -- ./inp_files/15471.got.cif
#   From: 2010.05.17/outbox.cif.g08.bks.cpg/sg21_8_cif.got.tgz:15471.got - 2010.06.03 23:14:55.
