data_PCOD9323291
_publ_section_title
;
Structure prediction by ZEFSAII (Michael W. Deem and Ramdas Pophale) SiO2 
 PCOD9323291
Probable space group: C 2 2 2
;
_chemical_formula_sum "Si O2"
_cell_formula_units_Z 48
_cell_length_a 18.135186
_cell_length_b 15.035624
_cell_length_c 8.887518
_cell_angle_alpha 90.000000
_cell_angle_beta 90.000000
_cell_angle_gamma 90.000000
_cell_volume 2423.393642
_symmetry_space_group_name_H-M "C 2 2 2"
_symmetry_group_IT_number 21
_symmetry_cell_setting 'orthorhombic'
loop_
_space_group_symop_operation_xyz
x,y,z
-x,-y,z
x,-y,-z
-x,y,-z
1/2+x,1/2+y,z
1/2-x,1/2-y,z
1/2+x,1/2-y,-z
1/2-x,1/2+y,-z
loop_
_atom_site_type_symbol
_atom_site_label
_atom_site_fract_x
_atom_site_fract_y
_atom_site_fract_z
Si Si1 0.702190 0.595248 0.936202
Si Si2 0.364308 0.910362 0.571080
Si Si3 0.635058 0.091378 0.928238
Si Si4 0.720343 0.650680 0.601963
Si Si5 0.423344 0.716772 0.928602
Si Si6 0.922265 0.785969 0.429407
O O1 0.706434 0.598933 0.756225
O O2 0.677791 0.500000 0.000000
O O3 0.784416 0.609529 0.000738
O O4 0.645540 0.668439 0.994883
O O5 0.356676 0.920855 0.749688
O O6 0.284421 0.894225 0.495997
O O7 0.409181 0.819684 0.542075
O O8 0.396711 0.000000 0.500000
O O9 0.586093 0.177818 0.955601
O O10 0.606620 0.000000 0.000000
O O11 0.750000 0.750000 0.641395
O O12 0.646030 0.663853 0.506712
O O13 0.421675 0.700906 0.749796
O O14 0.500000 0.685930 0.000000
O O15 0.000000 0.812794 0.500000
#
# Coordination Sequence:
#
# PCOD9323291 Si02
#       6
#     8   8   8   8   8   8
#     4  11  22  37  60  86 113 148 191 238 285 336
#     4  10  20  35  57  84 114 146 185 233 280 334
#     4  10  21  37  59  88 116 148 190 234 285 339
#     4  10  20  36  59  84 113 149 189 233 282 337
#     4  11  23  39  59  82 117 155 189 235 285 340
#     4  10  22  38  56  81 112 151 191 228 282 339
#
# _framework density 19.806934999999999
#
# number of rings (size 3 to 8) (size 9 to 14) (size 15 to 20)
#    0.000    1.667    0.000    5.500    0.000    7.667 
#    0.000    3.333    0.000    3.500    0.000    0.000 
#    0.000    0.000    0.000    0.000    0.000    0.000 
#
# Total GULP energy -134183.831985 kJ/mol
# GULP energy per Si atom -5590.992999 kJ/mol
# Density = 1.976185 g / cm^3
# Si number density = 19.806935 Si / 1000 Ang^3
#
#
#
# Elastic Constant Matrix: (Units=GPa)
#
#
# Indices 1 2 3 4 5 6 
#
# 1 64.2112 -0.8182 29.9398 0.0000 0.0000 0.0000
# 2 -0.8182 53.9003 34.4521 0.0000 0.0000 0.0000
# 3 29.9398 34.4521 88.6299 0.0000 0.0000 0.0000
# 4 0.0000 0.0000 0.0000 48.2820 0.0000 0.0000
# 5 0.0000 0.0000 0.0000 0.0000 -56.0680 0.0000
# 6 0.0000 0.0000 0.0000 0.0000 0.0000 3.5838
#
#
#
# Elastic Compliance Matrix: (Units=1/GPa)
#
#
# Indices 1 2 3 4 5 6 
#
# 1 0.019894 0.006117 -0.009098 0.000000 0.000000 0.000000
# 2 0.006117 0.026568 -0.012394 0.000000 0.000000 0.000000
# 3 -0.009098 -0.012394 0.019174 0.000000 0.000000 0.000000
# 4 0.000000 0.000000 0.000000 0.020712 0.000000 0.000000
# 5 0.000000 0.000000 0.000000 0.000000 -0.017835 0.000000
# 6 0.000000 0.000000 0.000000 0.000000 0.000000 0.279034
#
#
# Mechanical properties :
#
#
# Convention : Reuss Voigt Hill
#
# Bulk Modulus (GPa) = 28.66470 37.09876 32.88173
# Shear Modulus (GPa) = 12.82303 8.70407 10.76355
#
# Velocity S-wave (km/s) = 2.54717 2.09857 2.33367
# Velocity P-wave (km/s) = 4.81188 4.96416 4.88861
#
# Compressibility (1/GPa) = 0.03488612
#
# Stress axis : x y z
#
# Youngs Moduli (GPa) = 50.26694 37.63991 52.15390
#
# Poissons Ratio (x) = -0.23026 0.47451
# Poissons Ratio (y) = -0.30750 0.64639
# Poissons Ratio (z) = 0.45734 0.46650
#
# Static dielectric constant tensor:
#      x y z
#    x 1.653870 0.000000 0.000000 
#    y 0.000000 1.717120 0.000000 
#    z 0.000000 0.000000 1.658950 
# 
# From -- ./inp_files/14938.got.cif
#   From: 2010.05.17/outbox.cif.g08.bks.cpg/sg21_8_cif.got.tgz:14938.got - 2010.06.03 23:14:55.
