data_PCOD9323380
_publ_section_title
;
Structure prediction by ZEFSAII (Michael W. Deem and Ramdas Pophale) SiO2 
 PCOD9323380
Probable space group: C 2 2 2
;
_chemical_formula_sum "Si O2"
_cell_formula_units_Z 64
_cell_length_a 22.862175
_cell_length_b 7.243707
_cell_length_c 15.975057
_cell_angle_alpha 90.000000
_cell_angle_beta 90.000000
_cell_angle_gamma 90.000000
_cell_volume 2645.579620
_symmetry_space_group_name_H-M "C 2 2 2"
_symmetry_group_IT_number 21
_symmetry_cell_setting 'orthorhombic'
loop_
_space_group_symop_operation_xyz
x,y,z
-x,-y,z
x,-y,-z
-x,y,-z
1/2+x,1/2+y,z
1/2-x,1/2-y,z
1/2+x,1/2-y,-z
1/2-x,1/2+y,-z
loop_
_atom_site_type_symbol
_atom_site_label
_atom_site_fract_x
_atom_site_fract_y
_atom_site_fract_z
Si Si1 0.344049 0.748920 0.640702
Si Si2 0.317928 0.782665 0.986487
Si Si3 0.631134 0.151070 0.816378
Si Si4 0.387634 0.279673 0.856802
Si Si5 0.189024 0.852730 0.300216
Si Si6 0.683900 0.712512 0.530629
Si Si7 0.518632 0.711285 0.407103
Si Si8 0.503488 0.786480 0.219064
O O1 0.340478 0.864647 0.724950
O O2 0.308400 0.563426 0.665912
O O3 0.321432 0.829459 0.553793
O O4 0.412034 0.718977 0.613018
O O5 0.250000 0.750000 0.005457
O O6 0.360644 0.682195 0.052259
O O7 0.332457 0.750487 0.889152
O O8 0.327333 0.000000 0.000000
O O9 0.570617 0.260737 0.800539
O O10 0.618879 0.942224 0.844170
O O11 0.348235 0.361520 0.783357
O O12 0.454940 0.319239 0.834365
O O13 0.250000 0.750000 0.280467
O O14 0.153685 0.759524 0.379462
O O15 0.672110 0.500000 0.500000
O O16 0.750000 0.750000 0.556124
O O17 0.500000 0.500000 0.410801
O O18 0.500000 0.787750 0.500000
O O19 0.491151 0.781603 0.319254
O O20 0.500000 0.000000 0.194434
#
# Coordination Sequence:
#
# PCOD9323380 Si02
#       8
#     8   8   8   8   8   8   8   8
#     4  10  21  36  55  79 112 144 186 233 275 337
#     4  10  22  39  59  84 112 144 187 232 284 344
#     4   9  21  38  55  84 111 146 184 230 285 333
#     4  10  20  36  60  80 112 146 187 231 278 340
#     4  10  21  35  54  80 110 147 186 231 278 333
#     4   9  20  34  51  72 105 140 181 220 268 324
#     4  10  21  32  55  82 108 148 191 229 276 332
#     4   9  19  37  56  81 115 146 185 233 280 333
#
# _framework density 24.191296000000001
#
# number of rings (size 3 to 8) (size 9 to 14) (size 15 to 20)
#    0.000    2.375    0.000    1.125    7.000    7.250 
#    0.000    2.500    0.000    0.000    0.000    3.500 
#    0.000    0.000    0.000    0.000    0.000    0.000 
#
# Total GULP energy -178445.253418 kJ/mol
# GULP energy per Si atom -5576.414169 kJ/mol
# Density = 2.413624 g / cm^3
# Si number density = 24.191296 Si / 1000 Ang^3
#
#
#
# Elastic Constant Matrix: (Units=GPa)
#
#
# Indices 1 2 3 4 5 6 
#
# 1 73.6148 3.2201 33.5170 0.0000 0.0000 0.0000
# 2 3.2201 66.1732 18.2094 0.0000 0.0000 0.0000
# 3 33.5170 18.2094 165.4122 0.0000 0.0000 0.0000
# 4 0.0000 0.0000 0.0000 14.6617 0.0000 0.0000
# 5 0.0000 0.0000 0.0000 0.0000 40.2595 0.0000
# 6 0.0000 0.0000 0.0000 0.0000 0.0000 12.5066
#
#
#
# Elastic Compliance Matrix: (Units=1/GPa)
#
#
# Indices 1 2 3 4 5 6 
#
# 1 0.014966 0.000110 -0.003044 0.000000 0.000000 0.000000
# 2 0.000110 0.015585 -0.001738 0.000000 0.000000 0.000000
# 3 -0.003044 -0.001738 0.006854 0.000000 0.000000 0.000000
# 4 0.000000 0.000000 0.000000 0.068205 0.000000 0.000000
# 5 0.000000 0.000000 0.000000 0.000000 0.024839 0.000000
# 6 0.000000 0.000000 0.000000 0.000000 0.000000 0.079958
#
#
# Mechanical properties :
#
#
# Convention : Reuss Voigt Hill
#
# Bulk Modulus (GPa) = 35.63991 46.12148 40.88070
# Shear Modulus (GPa) = 21.82416 30.16915 25.99666
#
# Velocity S-wave (km/s) = 3.00684 3.53527 3.28171
# Velocity P-wave (km/s) = 5.17873 5.98088 5.59420
#
# Compressibility (1/GPa) = 0.02805843
#
# Stress axis : x y z
#
# Youngs Moduli (GPa) = 66.81995 64.16533 145.90641
#
# Poissons Ratio (x) = -0.00703 0.44421
# Poissons Ratio (y) = -0.00732 0.25356
# Poissons Ratio (z) = 0.20343 0.11151
#
# Static dielectric constant tensor:
#      x y z
#    x 1.917500 0.000000 0.000000 
#    y 0.000000 2.006550 0.000000 
#    z 0.000000 0.000000 1.975540 
# 
# From -- ./inp_files/33616.got.cif
#   From: 2010.05.17/outbox.cif.g08.bks.cpg/sg21_17_cif.got.tgz:33616.got - 2010.06.03 23:14:55.
