data_PCOD9323459
_publ_section_title
;
Structure prediction by ZEFSAII (Michael W. Deem and Ramdas Pophale) SiO2 
 PCOD9323459
Probable space group: C 2 2 2
;
_chemical_formula_sum "Si O2"
_cell_formula_units_Z 34
_cell_length_a 13.591289
_cell_length_b 8.673483
_cell_length_c 10.627045
_cell_angle_alpha 90.000000
_cell_angle_beta 90.000000
_cell_angle_gamma 90.000000
_cell_volume 1252.756597
_symmetry_space_group_name_H-M "C 2 2 2"
_symmetry_group_IT_number 21
_symmetry_cell_setting 'orthorhombic'
loop_
_space_group_symop_operation_xyz
x,y,z
-x,-y,z
x,-y,-z
-x,y,-z
1/2+x,1/2+y,z
1/2-x,1/2-y,z
1/2+x,1/2-y,-z
1/2-x,1/2+y,-z
loop_
_atom_site_type_symbol
_atom_site_label
_atom_site_fract_x
_atom_site_fract_y
_atom_site_fract_z
Si Si1 0.625704 0.654438 0.713171
Si Si2 0.884522 0.494775 0.350265
Si Si3 0.363135 0.728720 0.011103
Si Si4 0.500000 0.000000 0.000000
Si Si5 0.397532 0.673614 0.728135
O O1 0.509898 0.670591 0.677760
O O2 0.652168 0.480250 0.669581
O O3 0.662980 0.829215 0.685322
O O4 0.637480 0.631127 0.863018
O O5 0.882391 0.500000 0.500000
O O6 0.849173 0.660944 0.300274
O O7 0.000000 0.500000 0.308793
O O8 0.250000 0.750000 0.977479
O O9 0.410352 0.675139 0.880574
O O10 0.420902 0.881663 0.056640
#
# Coordination Sequence:
#
# PCOD9323459 Si02
#       5
#     8   8   8   2   8
#     4  10  20  37  60  90 135 180 224 291 354 420
#     4   9  19  36  61  93 126 175 238 290 353 423
#     4  12  25  39  67 102 144 188 233 288 365 442
#     4  12  24  44  66  98 154 198 236 292 358 428
#     4  10  20  37  60  90 135 180 224 291 354 420
#
# _framework density 27.140150999999999
#
# number of rings (size 3 to 8) (size 9 to 14) (size 15 to 20)
#    0.000    1.647    2.353    2.118    6.588    2.824 
#    0.000    4.706    0.000    1.412    0.000    0.000 
#    0.000    0.000    0.000    0.000    0.000    0.000 
#
# Total GULP energy -94831.002128 kJ/mol
# GULP energy per Si atom -5578.294243 kJ/mol
# Density = 2.707838 g / cm^3
# Si number density = 27.140151 Si / 1000 Ang^3
#
#
#
# Elastic Constant Matrix: (Units=GPa)
#
#
# Indices 1 2 3 4 5 6 
#
# 1 55.1081 28.2802 -25.2285 0.0000 0.0000 0.0000
# 2 28.2802 309.3825 46.7100 0.0000 0.0000 0.0000
# 3 -25.2285 46.7100 69.7449 0.0000 0.0000 0.0000
# 4 0.0000 0.0000 0.0000 38.6662 0.0000 0.0000
# 5 0.0000 0.0000 0.0000 0.0000 -30.7341 0.0000
# 6 0.0000 0.0000 0.0000 0.0000 0.0000 51.6101
#
#
#
# Elastic Compliance Matrix: (Units=1/GPa)
#
#
# Indices 1 2 3 4 5 6 
#
# 1 0.025878 -0.004204 0.012176 0.000000 0.000000 0.000000
# 2 -0.004204 0.004279 -0.004386 0.000000 0.000000 0.000000
# 3 0.012176 -0.004386 0.021680 0.000000 0.000000 0.000000
# 4 0.000000 0.000000 0.000000 0.025862 0.000000 0.000000
# 5 0.000000 0.000000 0.000000 0.000000 -0.032537 0.000000
# 6 0.000000 0.000000 0.000000 0.000000 0.000000 0.019376
#
#
# Mechanical properties :
#
#
# Convention : Reuss Voigt Hill
#
# Bulk Modulus (GPa) = 16.94680 59.30653 38.12667
# Shear Modulus (GPa) = 64.90574 37.54001 51.22288
#
# Velocity S-wave (km/s) = 4.89560 3.72316 4.34907
# Velocity P-wave (km/s) = 6.18172 6.35468 6.26880
#
# Compressibility (1/GPa) = 0.05900819
#
# Stress axis : x y z
#
# Youngs Moduli (GPa) = 38.64354 233.71487 46.12576
#
# Poissons Ratio (x) = 0.98247 -0.56162
# Poissons Ratio (y) = 0.16245 0.20232
# Poissons Ratio (z) = -0.47052 1.02511
#
# Static dielectric constant tensor:
#      x y z
#    x 1.958360 0.000000 0.000000 
#    y 0.000000 2.232760 0.000000 
#    z 0.000000 0.000000 2.054780 
# 
# From -- ./inp_files/24793.got.cif
#   From: 2010.05.17/outbox.cif.g08.bks.cpg/sg21_13_cif.got.tgz:24793.got - 2010.06.03 23:14:55.
