data_PCOD9323617
_publ_section_title
;
Structure prediction by ZEFSAII (Michael W. Deem and Ramdas Pophale) SiO2 
 PCOD9323617
Probable space group: C 2 2 2
;
_chemical_formula_sum "Si O2"
_cell_formula_units_Z 36
_cell_length_a 6.007807
_cell_length_b 23.816730
_cell_length_c 11.410143
_cell_angle_alpha 90.000000
_cell_angle_beta 90.000000
_cell_angle_gamma 90.000000
_cell_volume 1632.635341
_symmetry_space_group_name_H-M "C 2 2 2"
_symmetry_group_IT_number 21
_symmetry_cell_setting 'orthorhombic'
loop_
_space_group_symop_operation_xyz
x,y,z
-x,-y,z
x,-y,-z
-x,y,-z
1/2+x,1/2+y,z
1/2-x,1/2-y,z
1/2+x,1/2-y,-z
1/2-x,1/2+y,-z
loop_
_atom_site_type_symbol
_atom_site_label
_atom_site_fract_x
_atom_site_fract_y
_atom_site_fract_z
Si Si1 0.402489 0.590080 0.875513
Si Si2 0.226907 0.643797 0.289564
Si Si3 0.500000 0.386645 0.500000
Si Si4 0.149451 0.446836 0.335532
Si Si5 0.407963 0.201079 0.126893
O O1 0.610366 0.612129 0.800282
O O2 0.270983 0.546988 0.791163
O O3 0.234524 0.643461 0.890423
O O4 0.500000 0.571176 0.000000
O O5 0.370805 0.651535 0.406158
O O6 0.023525 0.603924 0.325572
O O7 0.108583 0.692242 0.216874
O O8 0.332774 0.427332 0.428967
O O9 0.000000 0.500000 0.364513
O O10 0.250000 0.250000 0.171662
O O11 0.500000 0.217495 0.000000
#
# Coordination Sequence:
#
# PCOD9323617 Si02
#       5
#     8   8   4   8   8
#     4  10  20  39  62  92 138 176 205 264 335 394
#     4  10  22  39  62  98 129 170 219 269 334 389
#     4  10  22  41  66  92 128 186 214 284 334 385
#     4  10  23  40  64  98 127 171 230 273 320 396
#     4  11  22  36  65 102 130 166 220 274 330 406
#
# _framework density 22.050241
#
# number of rings (size 3 to 8) (size 9 to 14) (size 15 to 20)
#    0.000    1.778    2.222    1.333    0.000    6.222 
#    0.000    3.333    0.000    1.333  208.000    0.000 
#    0.000    0.000    0.000    0.000    0.000    0.000 
#
# Total GULP energy -100652.911080 kJ/mol
# GULP energy per Si atom -5591.828393 kJ/mol
# Density = 2.200005 g / cm^3
# Si number density = 22.050241 Si / 1000 Ang^3
#
#
#
# Elastic Constant Matrix: (Units=GPa)
#
#
# Indices 1 2 3 4 5 6 
#
# 1 137.0053 25.0428 78.2473 0.0000 0.0000 0.0000
# 2 25.0428 45.7504 22.1600 0.0000 0.0000 0.0000
# 3 78.2473 22.1600 181.9169 0.0000 0.0000 0.0000
# 4 0.0000 0.0000 0.0000 21.5244 0.0000 0.0000
# 5 0.0000 0.0000 0.0000 0.0000 51.2495 0.0000
# 6 0.0000 0.0000 0.0000 0.0000 0.0000 35.8001
#
#
#
# Elastic Compliance Matrix: (Units=1/GPa)
#
#
# Indices 1 2 3 4 5 6 
#
# 1 0.010229 -0.003686 -0.003951 0.000000 0.000000 0.000000
# 2 -0.003686 0.024556 -0.001406 0.000000 0.000000 0.000000
# 3 -0.003951 -0.001406 0.007368 0.000000 0.000000 0.000000
# 4 0.000000 0.000000 0.000000 0.046459 0.000000 0.000000
# 5 0.000000 0.000000 0.000000 0.000000 0.019512 0.000000
# 6 0.000000 0.000000 0.000000 0.000000 0.000000 0.027933
#
#
# Mechanical properties :
#
#
# Convention : Reuss Voigt Hill
#
# Bulk Modulus (GPa) = 41.54881 68.39698 54.97290
# Shear Modulus (GPa) = 30.83284 37.66295 34.24789
#
# Velocity S-wave (km/s) = 3.74344 4.13734 3.94531
# Velocity P-wave (km/s) = 6.12929 7.34231 6.76305
#
# Compressibility (1/GPa) = 0.02406808
#
# Stress axis : x y z
#
# Youngs Moduli (GPa) = 97.76029 40.72295 135.72833
#
# Poissons Ratio (x) = 0.15009 0.53624
# Poissons Ratio (y) = 0.36030 0.19084
# Poissons Ratio (z) = 0.38624 0.05726
#
# Static dielectric constant tensor:
#      x y z
#    x 1.803660 0.000000 0.000000 
#    y 0.000000 1.828710 0.000000 
#    z 0.000000 0.000000 1.824530 
# 
# From -- ./inp_files/20977.got.cif
#   From: 2010.05.17/outbox.cif.g08.bks.cpg/sg21_11_cif.got.tgz:20977.got - 2010.06.03 23:14:55.
