data_PCOD9323040
_publ_section_title
;
Structure prediction by ZEFSAII (Michael W. Deem and Ramdas Pophale) SiO2 
 PCOD9323040
Probable space group: C 2 2 2
;
_chemical_formula_sum "Si O2"
_cell_formula_units_Z 48
_cell_length_a 15.232666
_cell_length_b 8.745361
_cell_length_c 17.511729
_cell_angle_alpha 90.000000
_cell_angle_beta 90.000000
_cell_angle_gamma 90.000000
_cell_volume 2332.827836
_symmetry_space_group_name_H-M "C 2 2 2"
_symmetry_group_IT_number 21
_symmetry_cell_setting 'orthorhombic'
loop_
_space_group_symop_operation_xyz
x,y,z
-x,-y,z
x,-y,-z
-x,y,-z
1/2+x,1/2+y,z
1/2-x,1/2-y,z
1/2+x,1/2-y,-z
1/2-x,1/2+y,-z
loop_
_atom_site_type_symbol
_atom_site_label
_atom_site_fract_x
_atom_site_fract_y
_atom_site_fract_z
Si Si1 0.491757 0.819244 0.909610
Si Si2 0.650762 0.310356 0.800720
Si Si3 0.182933 0.887607 0.571373
Si Si4 0.026864 0.175805 0.345554
Si Si5 0.163849 0.183170 0.656764
Si Si6 0.161771 0.826954 0.167567
O O1 0.400640 0.765267 0.871933
O O2 0.573201 0.730274 0.871633
O O3 0.500000 0.000000 0.895162
O O4 0.500000 0.792947 0.000000
O O5 0.750000 0.250000 0.787791
O O6 0.585254 0.274543 0.727942
O O7 0.659840 0.489727 0.822958
O O8 0.250000 0.750000 0.574540
O O9 0.086564 0.817718 0.579751
O O10 0.191781 0.000000 0.500000
O O11 0.181791 0.002829 0.643993
O O12 0.931480 0.239994 0.368357
O O13 0.000000 0.000000 0.326463
O O14 0.250000 0.250000 0.617827
O O15 0.160874 0.228735 0.744908
O O16 0.250000 0.750000 0.132708
#
# Coordination Sequence:
#
# PCOD9323040 Si02
#       6
#     8   8   8   8   8   8
#     4  11  25  45  66  96 135 176 223 283 350 409
#     4  12  22  39  66  97 132 175 226 276 338 407
#     4  11  23  41  66  96 135 176 216 269 329 400
#     4  10  19  38  63  93 129 171 222 263 327 398
#     4  10  21  39  65  95 129 172 217 273 330 394
#     4  11  22  40  66  96 134 172 227 279 333 401
#
# _framework density 20.575887999999999
#
# number of rings (size 3 to 8) (size 9 to 14) (size 15 to 20)
#    0.000    1.167    5.000    2.500    0.000    5.000 
#    0.000    0.833    0.000    1.000    0.000    0.000 
#    0.000    0.000    0.000    0.000    0.000    0.000 
#
# Total GULP energy -133673.831412 kJ/mol
# GULP energy per Si atom -5569.742976 kJ/mol
# Density = 2.052906 g / cm^3
# Si number density = 20.575888 Si / 1000 Ang^3
#
#
#
# Elastic Constant Matrix: (Units=GPa)
#
#
# Indices 1 2 3 4 5 6 
#
# 1 215.3740 69.6040 44.3918 0.0000 0.0000 0.0000
# 2 69.6040 61.3507 30.8431 0.0000 0.0000 0.0000
# 3 44.3918 30.8431 57.4497 0.0000 0.0000 0.0000
# 4 0.0000 0.0000 0.0000 24.7097 0.0000 0.0000
# 5 0.0000 0.0000 0.0000 0.0000 16.5096 0.0000
# 6 0.0000 0.0000 0.0000 0.0000 0.0000 40.8528
#
#
#
# Elastic Compliance Matrix: (Units=1/GPa)
#
#
# Indices 1 2 3 4 5 6 
#
# 1 0.007446 -0.007609 -0.001669 0.000000 0.000000 0.000000
# 2 -0.007609 0.030101 -0.010281 0.000000 0.000000 0.000000
# 3 -0.001669 -0.010281 0.024215 0.000000 0.000000 0.000000
# 4 0.000000 0.000000 0.000000 0.040470 0.000000 0.000000
# 5 0.000000 0.000000 0.000000 0.000000 0.060571 0.000000
# 6 0.000000 0.000000 0.000000 0.000000 0.000000 0.024478
#
#
# Mechanical properties :
#
#
# Convention : Reuss Voigt Hill
#
# Bulk Modulus (GPa) = 44.15878 69.31690 56.73784
# Shear Modulus (GPa) = 21.37249 29.03680 25.20465
#
# Velocity S-wave (km/s) = 3.22641 3.76068 3.50374
# Velocity P-wave (km/s) = 5.94875 7.25386 6.63348
#
# Compressibility (1/GPa) = 0.02264555
#
# Stress axis : x y z
#
# Youngs Moduli (GPa) = 134.29996 33.22191 41.29616
#
# Poissons Ratio (x) = 0.25278 0.06891
# Poissons Ratio (y) = 1.02186 0.42456
# Poissons Ratio (z) = 0.22410 0.34155
#
# Static dielectric constant tensor:
#      x y z
#    x 1.865710 0.000000 0.000000 
#    y 0.000000 1.793220 0.000000 
#    z 0.000000 0.000000 1.760780 
# 
# From -- ./inp_files/36656.got.cif
#   From: 2010.05.17/outbox.cif.g08.bks.cpg/sg21_19_cif.got.tgz:36656.got - 2010.06.03 23:14:55.
