data_PCOD9323977
_publ_section_title
;
Structure prediction by ZEFSAII (Michael W. Deem and Ramdas Pophale) SiO2 
 PCOD9323977
Probable space group: C 2 2 2
;
_chemical_formula_sum "Si O2"
_cell_formula_units_Z 48
_cell_length_a 5.520253
_cell_length_b 14.258992
_cell_length_c 27.671818
_cell_angle_alpha 90.000000
_cell_angle_beta 90.000000
_cell_angle_gamma 90.000000
_cell_volume 2178.138545
_symmetry_space_group_name_H-M "C 2 2 2"
_symmetry_group_IT_number 21
_symmetry_cell_setting 'orthorhombic'
loop_
_space_group_symop_operation_xyz
x,y,z
-x,-y,z
x,-y,-z
-x,y,-z
1/2+x,1/2+y,z
1/2-x,1/2-y,z
1/2+x,1/2-y,-z
1/2-x,1/2+y,-z
loop_
_atom_site_type_symbol
_atom_site_label
_atom_site_fract_x
_atom_site_fract_y
_atom_site_fract_z
Si Si1 0.515373 0.106965 0.801310
Si Si2 0.376192 0.851513 0.692584
Si Si3 0.615432 0.599239 0.402261
Si Si4 0.750000 0.250000 0.368341
Si Si5 0.001125 0.810246 0.053715
Si Si6 0.250000 0.750000 0.529718
Si Si7 0.012004 0.890325 0.157286
O O1 0.567235 0.106011 0.744229
O O2 0.255285 0.147553 0.816976
O O3 0.756181 0.149753 0.824626
O O4 0.500000 0.000000 0.819376
O O5 0.250000 0.750000 0.699910
O O6 0.227431 0.908746 0.652010
O O7 0.620760 0.824262 0.666052
O O8 0.500000 0.500000 0.416611
O O9 0.424404 0.684174 0.398322
O O10 0.793664 0.652729 0.439306
O O11 0.750000 0.750000 0.057819
O O12 0.250000 0.750000 0.055579
O O13 0.019689 0.876640 0.099931
O O14 0.000000 0.854411 0.000000
O O15 0.500000 0.735580 0.500000
O O16 0.000000 0.000000 0.170226
#
# Coordination Sequence:
#
# PCOD9323977 Si02
#       7
#     8   8   8   4   8   4   8
#     4  10  23  38  59  90 130 169 214 260 323 396
#     4  10  23  40  64  96 134 178 226 280 326 405
#     4  11  25  46  75 105 140 190 233 286 355 409
#     4  10  21  44  64 102 144 174 236 291 324 410
#     4  10  21  38  60  86 114 153 210 269 327 392
#     4  12  27  54  78 106 154 182 232 305 344 416
#     4  10  22  40  57  85 125 166 211 267 323 390
#
# _framework density 22.037165000000002
#
# number of rings (size 3 to 8) (size 9 to 14) (size 15 to 20)
#    0.000    1.667    2.500    1.500    7.000    3.333 
#    0.000    2.500    0.000    6.000    0.000    0.000 
#    0.000    0.000    0.000    0.000    0.000    0.000 
#
# Total GULP energy -133811.839586 kJ/mol
# GULP energy per Si atom -5575.493316 kJ/mol
# Density = 2.198701 g / cm^3
# Si number density = 22.037165 Si / 1000 Ang^3
#
#
#
# Elastic Constant Matrix: (Units=GPa)
#
#
# Indices 1 2 3 4 5 6 
#
# 1 144.0893 17.0310 49.2284 0.0000 0.0000 0.0000
# 2 17.0310 85.8337 15.6232 0.0000 0.0000 0.0000
# 3 49.2284 15.6232 118.9676 0.0000 0.0000 0.0000
# 4 0.0000 0.0000 0.0000 -25.8542 0.0000 0.0000
# 5 0.0000 0.0000 0.0000 0.0000 48.7416 0.0000
# 6 0.0000 0.0000 0.0000 0.0000 0.0000 -0.1392
#
#
#
# Elastic Compliance Matrix: (Units=1/GPa)
#
#
# Indices 1 2 3 4 5 6 
#
# 1 0.008171 -0.001030 -0.003246 0.000000 0.000000 0.000000
# 2 -0.001030 0.012066 -0.001158 0.000000 0.000000 0.000000
# 3 -0.003246 -0.001158 0.009901 0.000000 0.000000 0.000000
# 4 0.000000 0.000000 0.000000 -0.038678 0.000000 0.000000
# 5 0.000000 0.000000 0.000000 0.000000 0.020516 0.000000
# 6 0.000000 0.000000 0.000000 0.000000 0.000000 -7.181746
#
#
# Mechanical properties :
#
#
# Convention : Reuss Voigt Hill
#
# Bulk Modulus (GPa) = 51.89756 56.96177 54.42966
# Shear Modulus (GPa) = -0.69906 22.35017 10.82556
#
# Velocity S-wave (km/s) = -0.56383 3.18811 2.21880
# Velocity P-wave (km/s) = 4.81428 6.28142 5.59614
#
# Compressibility (1/GPa) = 0.01926873
#
# Stress axis : x y z
#
# Youngs Moduli (GPa) = 122.38621 82.87962 101.00179
#
# Poissons Ratio (x) = 0.08540 0.32783
# Poissons Ratio (y) = 0.12611 0.11697
# Poissons Ratio (z) = 0.39724 0.09598
#
# Static dielectric constant tensor:
#      x y z
#    x 1.903600 0.000000 0.000000 
#    y 0.000000 1.754570 0.000000 
#    z 0.000000 0.000000 1.830070 
# 
# From -- ./inp_files/39070.got.cif
#   From: 2010.05.17/outbox.cif.g08.bks.cpg/sg21_20_cif.got.tgz:39070.got - 2010.06.03 23:14:55.
