data_PCOD9323800
_publ_section_title
;
Structure prediction by ZEFSAII (Michael W. Deem and Ramdas Pophale) SiO2 
 PCOD9323800
Probable space group: C 2 2 2
;
_chemical_formula_sum "Si O2"
_cell_formula_units_Z 48
_cell_length_a 7.507174
_cell_length_b 38.850442
_cell_length_c 7.951543
_cell_angle_alpha 90.000000
_cell_angle_beta 90.000000
_cell_angle_gamma 90.000000
_cell_volume 2319.123400
_symmetry_space_group_name_H-M "C 2 2 2"
_symmetry_group_IT_number 21
_symmetry_cell_setting 'orthorhombic'
loop_
_space_group_symop_operation_xyz
x,y,z
-x,-y,z
x,-y,-z
-x,y,-z
1/2+x,1/2+y,z
1/2-x,1/2-y,z
1/2+x,1/2-y,-z
1/2-x,1/2+y,-z
loop_
_atom_site_type_symbol
_atom_site_label
_atom_site_fract_x
_atom_site_fract_y
_atom_site_fract_z
Si Si1 0.713243 0.665252 0.689098
Si Si2 0.286166 0.290355 1.000000
Si Si3 0.286313 0.914305 0.689747
Si Si4 0.781648 0.460329 1.000000
Si Si5 0.786314 0.414305 0.310252
Si Si6 0.786758 0.165252 0.689098
O O1 0.747588 0.625407 0.733314
O O2 0.500000 0.669559 0.681378
O O3 0.783543 0.671292 0.500000
O O4 0.782518 0.690556 0.832807
O O5 0.250000 0.250000 0.000001
O O6 0.217482 0.309444 0.167192
O O7 0.500000 0.294804 0.000000
O O8 0.218186 0.920684 0.499999
O O9 0.500000 0.917854 0.683678
O O10 0.247587 0.874593 0.733314
O O11 0.221553 0.939934 0.833749
O O12 0.721554 0.439933 0.166249
O O13 0.726927 0.500000 0.000000
O O14 0.000000 0.459773 0.000000
#
# Coordination Sequence:
#
# PCOD9323800 Si02
#       6
#     8   8   8   8   8   8
#     4   9  18  33  51  69  91 120 152 186 226 270
#     4  10  21  34  48  69  95 122 151 183 223 271
#     4   9  17  29  47  70  91 115 153 194 226 262
#     4   9  17  28  43  66  96 125 150 183 229 273
#     4   9  17  29  47  70  91 115 153 194 226 262
#     4   9  18  33  51  69  91 120 152 186 226 270
#
# _framework density 20.697476000000002
#
# number of rings (size 3 to 8) (size 9 to 14) (size 15 to 20)
#    0.000    2.833    0.000    1.000    0.000    2.667 
#    0.000    3.333    0.000    2.000    0.000    4.667 
#    0.000    0.000    0.000    0.000    0.000    0.000 
#
# Total GULP energy -133969.365352 kJ/mol
# GULP energy per Si atom -5582.056890 kJ/mol
# Density = 2.065037 g / cm^3
# Si number density = 20.697476 Si / 1000 Ang^3
#
#
#
# Elastic Constant Matrix: (Units=GPa)
#
#
# Indices 1 2 3 4 5 6 
#
# 1 56.1057 -4.0518 7.4874 0.0000 0.0000 0.0000
# 2 -4.0518 192.2985 168.2917 0.0000 0.0000 0.0000
# 3 7.4874 168.2917 191.8702 0.0000 0.0000 0.0000
# 4 0.0000 0.0000 0.0000 -27.2092 0.0000 0.0000
# 5 0.0000 0.0000 0.0000 0.0000 -10.5965 0.0000
# 6 0.0000 0.0000 0.0000 0.0000 0.0000 17.0053
#
#
#
# Elastic Compliance Matrix: (Units=1/GPa)
#
#
# Indices 1 2 3 4 5 6 
#
# 1 0.018765 0.004459 -0.004643 0.000000 0.000000 0.000000
# 2 0.004459 0.023437 -0.020731 0.000000 0.000000 0.000000
# 3 -0.004643 -0.020731 0.023576 0.000000 0.000000 0.000000
# 4 0.000000 0.000000 0.000000 -0.036752 0.000000 0.000000
# 5 0.000000 0.000000 0.000000 0.000000 -0.094371 0.000000
# 6 0.000000 0.000000 0.000000 0.000000 0.000000 0.058805
#
#
# Mechanical properties :
#
#
# Convention : Reuss Voigt Hill
#
# Bulk Modulus (GPa) = 41.75684 87.08102 64.41893
# Shear Modulus (GPa) = 115.54214 13.74305 64.64260
#
# Velocity S-wave (km/s) = 7.47967 2.57961 5.59463
# Velocity P-wave (km/s) = 9.73718 7.14403 8.53960
#
# Compressibility (1/GPa) = 0.02394817
#
# Stress axis : x y z
#
# Youngs Moduli (GPa) = 53.29017 42.66752 42.41533
#
# Poissons Ratio (x) = -0.19026 0.19695
# Poissons Ratio (y) = -0.23763 0.87931
# Poissons Ratio (z) = 0.24745 0.88454
#
# Static dielectric constant tensor:
#      x y z
#    x 1.779120 0.000000 0.000000 
#    y 0.000000 1.670350 0.000000 
#    z 0.000000 0.000000 1.757890 
# 
# From -- ./inp_files/11506.got.cif
#   From: 2010.05.17/outbox.cif.g08.bks.cpg/sg21_6_cif.got.tgz:11506.got - 2010.06.03 23:14:55.
