data_PCOD9323125
_publ_section_title
;
Structure prediction by ZEFSAII (Michael W. Deem and Ramdas Pophale) SiO2 
 PCOD9323125
Probable space group: C 2 2 2
;
_chemical_formula_sum "Si O2"
_cell_formula_units_Z 56
_cell_length_a 23.831677
_cell_length_b 7.693802
_cell_length_c 16.318148
_cell_angle_alpha 90.000000
_cell_angle_beta 90.000000
_cell_angle_gamma 90.000000
_cell_volume 2992.033676
_symmetry_space_group_name_H-M "C 2 2 2"
_symmetry_group_IT_number 21
_symmetry_cell_setting 'orthorhombic'
loop_
_space_group_symop_operation_xyz
x,y,z
-x,-y,z
x,-y,-z
-x,y,-z
1/2+x,1/2+y,z
1/2-x,1/2-y,z
1/2+x,1/2-y,-z
1/2-x,1/2+y,-z
loop_
_atom_site_type_symbol
_atom_site_label
_atom_site_fract_x
_atom_site_fract_y
_atom_site_fract_z
Si Si1 0.878958 0.292180 0.660366
Si Si2 0.500000 0.707143 0.405610
Si Si3 0.121044 0.707821 0.339634
Si Si4 0.316199 0.209723 0.178883
Si Si5 0.315224 0.790932 0.500001
Si Si6 0.183801 0.290277 0.821117
Si Si7 0.816188 0.291460 1.000000
O O1 0.944059 0.260861 0.642176
O O2 0.870605 0.500000 0.662370
O O3 0.853058 0.224191 0.745236
O O4 0.844946 0.222752 0.581864
O O5 0.500000 0.500000 0.411150
O O6 0.500000 0.776174 0.500000
O O7 0.444057 0.760858 0.357825
O O8 0.155057 0.777247 0.418135
O O9 0.146942 0.775809 0.254764
O O10 0.250000 0.250000 0.190357
O O11 0.335813 0.274449 0.088930
O O12 0.320387 1.000000 0.176932
O O13 0.250000 0.750000 0.500003
O O14 0.321967 0.000000 0.500000
O O15 0.250000 0.250000 0.809644
O O16 0.164187 0.225551 0.911070
O O17 0.750000 0.250000 1.000000
O O18 0.823754 0.500000 0.000000
#
# Coordination Sequence:
#
# PCOD9323125 Si02
#       7
#     8   8   8   8   8   8   8
#     4  10  20  34  51  70  95 129 163 196 237 286
#     4  11  23  37  53  72  91 120 164 209 247 282
#     4  10  20  34  51  70  95 129 163 196 237 286
#     4   9  17  29  48  74 102 131 161 194 237 284
#     4  10  20  31  46  69  97 126 154 188 233 282
#     4   9  17  29  48  74 102 131 161 194 237 284
#     4   8  14  26  44  69 100 129 159 194 230 278
#
# _framework density 18.716367000000002
#
# number of rings (size 3 to 8) (size 9 to 14) (size 15 to 20)
#    0.000    2.429    1.429    1.286    0.000    2.857 
#    0.000    0.000    0.000    0.857    0.000    6.000 
#    0.000    0.000    0.000    0.000    0.000    0.000 
#
# Total GULP energy -156106.875648 kJ/mol
# GULP energy per Si atom -5575.245559 kJ/mol
# Density = 1.867377 g / cm^3
# Si number density = 18.716367 Si / 1000 Ang^3
#
#
#
# Elastic Constant Matrix: (Units=GPa)
#
#
# Indices 1 2 3 4 5 6 
#
# 1 122.4180 -11.8707 103.5519 0.0000 0.0000 0.0000
# 2 -11.8707 30.8731 13.3834 0.0000 0.0000 0.0000
# 3 103.5519 13.3834 242.1989 0.0000 0.0000 0.0000
# 4 0.0000 0.0000 0.0000 -12.0833 0.0000 0.0000
# 5 0.0000 0.0000 0.0000 0.0000 7.4937 0.0000
# 6 0.0000 0.0000 0.0000 0.0000 0.0000 24.0679
#
#
#
# Elastic Compliance Matrix: (Units=1/GPa)
#
#
# Indices 1 2 3 4 5 6 
#
# 1 0.014733 0.008602 -0.006775 0.000000 0.000000 0.000000
# 2 0.008602 0.038208 -0.005789 0.000000 0.000000 0.000000
# 3 -0.006775 -0.005789 0.007345 0.000000 0.000000 0.000000
# 4 0.000000 0.000000 0.000000 -0.082759 0.000000 0.000000
# 5 0.000000 0.000000 0.000000 0.000000 0.133445 0.000000
# 6 0.000000 0.000000 0.000000 0.000000 0.000000 0.041549
#
#
# Mechanical properties :
#
#
# Convention : Reuss Voigt Hill
#
# Bulk Modulus (GPa) = 19.09761 67.29101 43.19431
# Shear Modulus (GPa) = 28.10585 23.25736 25.68161
#
# Velocity S-wave (km/s) = 3.87935 3.52891 3.70827
# Velocity P-wave (km/s) = 5.50378 7.25502 6.43921
#
# Compressibility (1/GPa) = 0.05236256
#
# Stress axis : x y z
#
# Youngs Moduli (GPa) = 67.87333 26.17284 136.14400
#
# Poissons Ratio (x) = -0.22513 0.92231
# Poissons Ratio (y) = -0.58383 0.78813
# Poissons Ratio (z) = 0.45981 0.15151
#
# Static dielectric constant tensor:
#      x y z
#    x 1.596330 0.000000 0.000000 
#    y 0.000000 1.672600 0.000000 
#    z 0.000000 0.000000 1.714070 
# 
# From -- ./inp_files/33293.got.cif
#   From: 2010.05.17/outbox.cif.g08.bks.cpg/sg21_17_cif.got.tgz:33293.got - 2010.06.03 23:14:55.
