data_PCOD9323761
_publ_section_title
;
Structure prediction by ZEFSAII (Michael W. Deem and Ramdas Pophale) SiO2 
 PCOD9323761
Probable space group: C 2 2 2
;
_chemical_formula_sum "Si O2"
_cell_formula_units_Z 48
_cell_length_a 16.658840
_cell_length_b 9.498310
_cell_length_c 14.922206
_cell_angle_alpha 90.000000
_cell_angle_beta 90.000000
_cell_angle_gamma 90.000000
_cell_volume 2361.152989
_symmetry_space_group_name_H-M "C 2 2 2"
_symmetry_group_IT_number 21
_symmetry_cell_setting 'orthorhombic'
loop_
_space_group_symop_operation_xyz
x,y,z
-x,-y,z
x,-y,-z
-x,y,-z
1/2+x,1/2+y,z
1/2-x,1/2-y,z
1/2+x,1/2-y,-z
1/2-x,1/2+y,-z
loop_
_atom_site_type_symbol
_atom_site_label
_atom_site_fract_x
_atom_site_fract_y
_atom_site_fract_z
Si Si1 0.554179 0.138402 0.245057
Si Si2 0.644138 0.000000 0.000000
Si Si3 0.942920 0.247424 0.618565
Si Si4 0.171020 0.840789 0.777814
Si Si5 0.500000 0.500000 0.500000
Si Si6 0.274728 0.090510 0.816270
Si Si7 0.000000 0.500000 0.500000
Si Si8 0.540999 0.742815 0.082220
O O1 0.525352 0.241039 0.323474
O O2 0.644978 0.089532 0.243247
O O3 0.527856 0.205850 0.150728
O O4 0.500000 0.000000 0.254125
O O5 0.699203 0.038187 0.085065
O O6 0.587267 0.875247 0.037073
O O7 0.872142 0.226441 0.690927
O O8 0.946246 0.390872 0.559260
O O9 0.947646 0.107886 0.558946
O O10 0.250000 0.750000 0.800302
O O11 0.106442 0.834514 0.857420
O O12 0.205130 0.997756 0.772207
O O13 0.250000 0.250000 0.825338
O O14 0.500000 0.664062 0.000000
#
# Coordination Sequence:
#
# PCOD9323761 Si02
#       8
#     8   4   8   8   2   8   2   8
#     4  11  19  39  68  95 122 176 228 263 315 406
#     4  12  21  36  60  88 131 174 238 264 319 372
#     4  10  23  41  72 100 131 168 224 272 340 419
#     4  11  24  44  66  99 139 179 220 284 344 398
#     4  10  24  46  70  94 130 170 210 282 348 410
#     4  12  27  38  62  96 138 184 219 282 336 383
#     4  10  20  42  74 106 122 162 232 280 328 430
#     4  11  20  37  65  93 127 182 238 273 309 384
#
# _framework density 20.329052000000001
#
# number of rings (size 3 to 8) (size 9 to 14) (size 15 to 20)
#    0.000    1.000    5.833    1.250    4.667    0.000 
#    0.000    0.833    3.667    0.000    0.000    0.000 
#    0.000    0.000    0.000    0.000    0.000    0.000 
#
# Total GULP energy -134038.696626 kJ/mol
# GULP energy per Si atom -5584.945693 kJ/mol
# Density = 2.028278 g / cm^3
# Si number density = 20.329052 Si / 1000 Ang^3
#
#
#
# Elastic Constant Matrix: (Units=GPa)
#
#
# Indices 1 2 3 4 5 6 
#
# 1 109.6269 46.4375 49.6820 0.0000 0.0000 0.0000
# 2 46.4375 119.2230 48.8561 0.0000 0.0000 0.0000
# 3 49.6820 48.8561 111.1730 0.0000 0.0000 0.0000
# 4 0.0000 0.0000 0.0000 -5.9725 0.0000 0.0000
# 5 0.0000 0.0000 0.0000 0.0000 17.7368 0.0000
# 6 0.0000 0.0000 0.0000 0.0000 0.0000 26.4691
#
#
#
# Elastic Compliance Matrix: (Units=1/GPa)
#
#
# Indices 1 2 3 4 5 6 
#
# 1 0.012310 -0.003099 -0.004140 0.000000 0.000000 0.000000
# 2 -0.003099 0.011010 -0.003454 0.000000 0.000000 0.000000
# 3 -0.004140 -0.003454 0.012363 0.000000 0.000000 0.000000
# 4 0.000000 0.000000 0.000000 -0.167435 0.000000 0.000000
# 5 0.000000 0.000000 0.000000 0.000000 0.056380 0.000000
# 6 0.000000 0.000000 0.000000 0.000000 0.000000 0.037780
#
#
# Mechanical properties :
#
#
# Convention : Reuss Voigt Hill
#
# Bulk Modulus (GPa) = 69.93426 69.99712 69.96569
# Shear Modulus (GPa) = -436.97828 20.64984 -208.16422
#
# Velocity S-wave (km/s) = -14.67717 3.19059 -10.13014
# Velocity P-wave (km/s) = 15.89811 6.93397 10.11607
#
# Compressibility (1/GPa) = 0.01429914
#
# Stress axis : x y z
#
# Youngs Moduli (GPa) = 81.23170 90.82825 80.88825
#
# Poissons Ratio (x) = 0.28143 0.33486
# Poissons Ratio (y) = 0.25170 0.27936
# Poissons Ratio (z) = 0.33628 0.31369
#
# Static dielectric constant tensor:
#      x y z
#    x 1.824860 0.000000 0.000000 
#    y 0.000000 1.770560 0.000000 
#    z 0.000000 0.000000 1.765380 
# 
# From -- ./inp_files/30581.got.cif
#   From: 2010.05.17/outbox.cif.g08.bks.cpg/sg21_16_cif.got.tgz:30581.got - 2010.06.03 23:14:55.
