data_PCOD9323629
_publ_section_title
;
Structure prediction by ZEFSAII (Michael W. Deem and Ramdas Pophale) SiO2 
 PCOD9323629
Probable space group: C 2 2 2
;
_chemical_formula_sum "Si O2"
_cell_formula_units_Z 40
_cell_length_a 12.702598
_cell_length_b 16.112430
_cell_length_c 8.729843
_cell_angle_alpha 90.000000
_cell_angle_beta 90.000000
_cell_angle_gamma 90.000000
_cell_volume 1786.734532
_symmetry_space_group_name_H-M "C 2 2 2"
_symmetry_group_IT_number 21
_symmetry_cell_setting 'orthorhombic'
loop_
_space_group_symop_operation_xyz
x,y,z
-x,-y,z
x,-y,-z
-x,y,-z
1/2+x,1/2+y,z
1/2-x,1/2-y,z
1/2+x,1/2-y,-z
1/2-x,1/2+y,-z
loop_
_atom_site_type_symbol
_atom_site_label
_atom_site_fract_x
_atom_site_fract_y
_atom_site_fract_z
Si Si1 0.791839 0.157980 0.690149
Si Si2 0.504164 0.270867 0.183532
Si Si3 0.044542 0.584595 0.174613
Si Si4 0.268056 0.495562 0.828553
Si Si5 0.105561 0.894209 0.395165
O O1 0.750000 0.250000 0.692435
O O2 0.904890 0.173672 0.767053
O O3 0.805043 0.127588 0.517378
O O4 0.730293 0.088057 0.783887
O O5 0.511322 0.174765 0.237356
O O6 0.595261 0.320307 0.271681
O O7 0.500000 0.270338 0.000000
O O8 0.170460 0.568431 0.172919
O O9 0.000000 0.500000 0.249870
O O10 0.000000 0.584684 0.000000
O O11 0.356883 0.471771 0.705430
O O12 0.311366 0.500000 0.000000
O O13 0.000000 0.903063 0.500000
#
# Coordination Sequence:
#
# PCOD9323629 Si02
#       5
#     8   8   8   8   8
#     4  11  25  42  65  98 141 185 236 279 356 437
#     4  10  22  42  69  98 135 183 233 302 354 413
#     4  10  20  39  65 101 144 172 221 301 365 416
#     4  12  24  42  74 107 134 187 241 298 361 426
#     4  10  25  47  67  97 143 187 235 298 354 432
#
# _framework density 22.387208999999999
#
# number of rings (size 3 to 8) (size 9 to 14) (size 15 to 20)
#    0.000    1.400    2.000    3.000    5.600    5.600 
#    0.000    5.000    0.000    0.000    0.000    0.000 
#    0.000    0.000    0.000    0.000    0.000    0.000 
#
# Total GULP energy -111590.886425 kJ/mol
# GULP energy per Si atom -5579.544321 kJ/mol
# Density = 2.233625 g / cm^3
# Si number density = 22.387209 Si / 1000 Ang^3
#
#
#
# Elastic Constant Matrix: (Units=GPa)
#
#
# Indices 1 2 3 4 5 6 
#
# 1 40.9358 11.5759 18.7197 0.0000 0.0000 0.0000
# 2 11.5759 146.7166 45.5536 0.0000 0.0000 0.0000
# 3 18.7197 45.5536 118.7639 0.0000 0.0000 0.0000
# 4 0.0000 0.0000 0.0000 25.5052 0.0000 0.0000
# 5 0.0000 0.0000 0.0000 0.0000 10.7899 0.0000
# 6 0.0000 0.0000 0.0000 0.0000 0.0000 37.7837
#
#
#
# Elastic Compliance Matrix: (Units=1/GPa)
#
#
# Indices 1 2 3 4 5 6 
#
# 1 0.026430 -0.000899 -0.003821 0.000000 0.000000 0.000000
# 2 -0.000899 0.007768 -0.002838 0.000000 0.000000 0.000000
# 3 -0.003821 -0.002838 0.010111 0.000000 0.000000 0.000000
# 4 0.000000 0.000000 0.000000 0.039208 0.000000 0.000000
# 5 0.000000 0.000000 0.000000 0.000000 0.092679 0.000000
# 6 0.000000 0.000000 0.000000 0.000000 0.000000 0.026466
#
#
# Mechanical properties :
#
#
# Convention : Reuss Voigt Hill
#
# Bulk Modulus (GPa) = 34.25468 50.90162 42.57815
# Shear Modulus (GPa) = 21.97716 30.18691 26.08203
#
# Velocity S-wave (km/s) = 3.13658 3.67604 3.41697
# Velocity P-wave (km/s) = 5.33402 6.38780 5.88454
#
# Compressibility (1/GPa) = 0.02919309
#
# Stress axis : x y z
#
# Youngs Moduli (GPa) = 37.83570 128.73520 98.90379
#
# Poissons Ratio (x) = 0.11572 0.37793
# Poissons Ratio (y) = 0.03401 0.28067
# Poissons Ratio (z) = 0.14458 0.36532
#
# Static dielectric constant tensor:
#      x y z
#    x 1.207660 0.000000 0.000000 
#    y 0.000000 1.879440 0.000000 
#    z 0.000000 0.000000 1.792120 
# 
# From -- ./inp_files/14487.got.cif
#   From: 2010.05.17/outbox.cif.g08.bks.cpg/sg21_8_cif.got.tgz:14487.got - 2010.06.03 23:14:55.
