data_PCOD9323475
_publ_section_title
;
Structure prediction by ZEFSAII (Michael W. Deem and Ramdas Pophale) SiO2 
 PCOD9323475
Probable space group: C 2 2 2
;
_chemical_formula_sum "Si O2"
_cell_formula_units_Z 34
_cell_length_a 7.252971
_cell_length_b 22.892613
_cell_length_c 8.431386
_cell_angle_alpha 90.000000
_cell_angle_beta 90.000000
_cell_angle_gamma 90.000000
_cell_volume 1399.942763
_symmetry_space_group_name_H-M "C 2 2 2"
_symmetry_group_IT_number 21
_symmetry_cell_setting 'orthorhombic'
loop_
_space_group_symop_operation_xyz
x,y,z
-x,-y,z
x,-y,-z
-x,y,-z
1/2+x,1/2+y,z
1/2-x,1/2-y,z
1/2+x,1/2-y,-z
1/2-x,1/2+y,-z
loop_
_atom_site_type_symbol
_atom_site_label
_atom_site_fract_x
_atom_site_fract_y
_atom_site_fract_z
Si Si1 0.706113 0.627694 0.851834
Si Si2 0.718576 0.681243 0.520378
Si Si3 0.712705 0.494363 0.256672
Si Si4 0.500000 0.000000 0.500000
Si Si5 0.264613 0.371240 0.189675
O O1 0.781651 0.652964 0.686838
O O2 0.718014 0.557131 0.869964
O O3 0.486278 0.636916 0.830309
O O4 0.793297 0.650881 0.015110
O O5 0.500000 0.668658 0.500000
O O6 0.750000 0.750000 0.531431
O O7 0.798733 0.658694 0.352583
O O8 0.500000 0.500000 0.310687
O O9 0.852498 0.469405 0.387573
O O10 0.773585 0.559560 0.213591
#
# Coordination Sequence:
#
# PCOD9323475 Si02
#       5
#     8   8   8   2   8
#     4   9  18  36  63  88 114 153 198 242 295 360
#     4  10  21  37  56  82 115 153 201 246 293 351
#     4  10  20  37  61  90 123 160 193 239 306 365
#     4  12  22  32  54  90 132 162 194 240 282 352
#     4   9  18  36  63  88 114 153 198 242 295 360
#
# _framework density 24.286708000000001
#
# number of rings (size 3 to 8) (size 9 to 14) (size 15 to 20)
#    0.000    2.353    0.000    2.471    0.000    7.529 
#    8.471    2.353    0.000    0.000    0.000    0.000 
#    0.000    0.000    0.000    0.000    0.000    0.000 
#
# Total GULP energy -94738.164933 kJ/mol
# GULP energy per Si atom -5572.833231 kJ/mol
# Density = 2.423143 g / cm^3
# Si number density = 24.286708 Si / 1000 Ang^3
#
#
#
# Elastic Constant Matrix: (Units=GPa)
#
#
# Indices 1 2 3 4 5 6 
#
# 1 108.6678 -6.2959 21.3785 0.0000 0.0000 0.0000
# 2 -6.2959 118.8998 97.5086 0.0000 0.0000 0.0000
# 3 21.3785 97.5086 253.5648 0.0000 0.0000 0.0000
# 4 0.0000 0.0000 0.0000 10.3095 0.0000 0.0000
# 5 0.0000 0.0000 0.0000 0.0000 -0.5255 0.0000
# 6 0.0000 0.0000 0.0000 0.0000 0.0000 6.2647
#
#
#
# Elastic Compliance Matrix: (Units=1/GPa)
#
#
# Indices 1 2 3 4 5 6 
#
# 1 0.009590 0.001710 -0.001466 0.000000 0.000000 0.000000
# 2 0.001710 0.012590 -0.004986 0.000000 0.000000 0.000000
# 3 -0.001466 -0.004986 0.005985 0.000000 0.000000 0.000000
# 4 0.000000 0.000000 0.000000 0.096998 0.000000 0.000000
# 5 0.000000 0.000000 0.000000 0.000000 -1.903022 0.000000
# 6 0.000000 0.000000 0.000000 0.000000 0.000000 0.159625
#
#
# Mechanical properties :
#
#
# Convention : Reuss Voigt Hill
#
# Bulk Modulus (GPa) = 53.53027 78.47941 66.00484
# Shear Modulus (GPa) = -3.12007 27.77916 12.32954
#
# Velocity S-wave (km/s) = -1.13467 3.38568 2.25559
# Velocity P-wave (km/s) = 4.51356 6.90418 5.83266
#
# Compressibility (1/GPa) = 0.01868102
#
# Stress axis : x y z
#
# Youngs Moduli (GPa) = 104.27644 79.43078 167.09633
#
# Poissons Ratio (x) = -0.13584 0.24500
# Poissons Ratio (y) = -0.17834 0.83306
# Poissons Ratio (z) = 0.15289 0.39600
#
# Static dielectric constant tensor:
#      x y z
#    x 1.946290 0.000000 0.000000 
#    y 0.000000 1.854590 0.000000 
#    z 0.000000 0.000000 2.033320 
# 
# From -- ./inp_files/10607.got.cif
#   From: 2010.05.17/outbox.cif.g08.bks.cpg/sg21_6_cif.got.tgz:10607.got - 2010.06.03 23:14:55.
