data_PCOD9323128
_publ_section_title
;
Structure prediction by ZEFSAII (Michael W. Deem and Ramdas Pophale) SiO2 
 PCOD9323128
Probable space group: C 2 2 2
;
_chemical_formula_sum "Si O2"
_cell_formula_units_Z 64
_cell_length_a 27.108602
_cell_length_b 5.719153
_cell_length_c 22.310655
_cell_angle_alpha 90.000000
_cell_angle_beta 90.000000
_cell_angle_gamma 90.000000
_cell_volume 3459.004739
_symmetry_space_group_name_H-M "C 2 2 2"
_symmetry_group_IT_number 21
_symmetry_cell_setting 'orthorhombic'
loop_
_space_group_symop_operation_xyz
x,y,z
-x,-y,z
x,-y,-z
-x,y,-z
1/2+x,1/2+y,z
1/2-x,1/2-y,z
1/2+x,1/2-y,-z
1/2-x,1/2+y,-z
loop_
_atom_site_type_symbol
_atom_site_label
_atom_site_fract_x
_atom_site_fract_y
_atom_site_fract_z
Si Si1 0.687489 0.496272 0.112272
Si Si2 0.136796 0.888909 0.237382
Si Si3 0.305125 0.837733 0.339797
Si Si4 0.952126 0.367528 0.283658
Si Si5 0.297568 0.998423 0.930387
Si Si6 0.373643 0.224757 0.338362
Si Si7 0.524555 0.254794 0.414351
Si Si8 0.626761 0.578875 0.563873
O O1 0.661471 0.471188 0.176315
O O2 0.675358 0.246568 0.080460
O O3 0.747557 0.498782 0.109539
O O4 0.675359 0.752137 0.083988
O O5 0.173244 0.716000 0.273556
O O6 0.082343 0.771455 0.236986
O O7 0.131863 0.100310 0.283541
O O8 0.250000 0.750000 0.341947
O O9 0.334950 0.700195 0.391316
O O10 0.320796 0.104612 0.350309
O O11 0.914442 0.543401 0.316693
O O12 0.970126 0.223403 0.341642
O O13 0.000000 0.500000 0.258454
O O14 0.281952 0.000000 0.000000
O O15 0.390660 0.354401 0.397990
O O16 0.500000 0.500000 0.434107
O O17 0.579176 0.257685 0.442560
O O18 0.500000 0.000000 0.425628
O O19 0.646589 0.500000 0.500000
#
# Coordination Sequence:
#
# PCOD9323128 Si02
#       8
#     8   8   8   8   8   8   8   8
#     4  10  20  31  54  83 118 159 206 245 281 343
#     4  10  22  33  56  87 116 152 202 248 302 353
#     4  10  23  40  57  79 110 155 203 253 305 365
#     4  10  20  35  60  80 113 156 187 232 310 384
#     4  10  20  36  55  82 123 174 205 237 292 344
#     4  10  20  41  57  79 116 148 193 253 306 376
#     4  11  22  39  64  89 113 146 189 235 313 384
#     4  11  23  41  57  85 110 149 194 254 311 377
#
# _framework density 18.50243
#
# number of rings (size 3 to 8) (size 9 to 14) (size 15 to 20)
#    0.000    1.750    3.750    3.375    5.250    3.750 
#    2.250    2.500    0.000    0.000    0.000    0.000 
#    0.000    0.500    1.500    0.000    0.000    0.000 
#
# Total GULP energy -178248.188413 kJ/mol
# GULP energy per Si atom -5570.255888 kJ/mol
# Density = 1.846032 g / cm^3
# Si number density = 18.502430 Si / 1000 Ang^3
#
#
#
# Elastic Constant Matrix: (Units=GPa)
#
#
# Indices 1 2 3 4 5 6 
#
# 1 98.2088 29.1069 27.7757 0.0000 0.0000 0.0000
# 2 29.1069 118.7784 31.7088 0.0000 0.0000 0.0000
# 3 27.7757 31.7088 99.9607 0.0000 0.0000 0.0000
# 4 0.0000 0.0000 0.0000 -5.3161 0.0000 0.0000
# 5 0.0000 0.0000 0.0000 0.0000 2.2314 0.0000
# 6 0.0000 0.0000 0.0000 0.0000 0.0000 20.4915
#
#
#
# Elastic Compliance Matrix: (Units=1/GPa)
#
#
# Indices 1 2 3 4 5 6 
#
# 1 0.011534 -0.002153 -0.002522 0.000000 0.000000 0.000000
# 2 -0.002153 0.009600 -0.002447 0.000000 0.000000 0.000000
# 3 -0.002522 -0.002447 0.011481 0.000000 0.000000 0.000000
# 4 0.000000 0.000000 0.000000 -0.188110 0.000000 0.000000
# 5 0.000000 0.000000 0.000000 0.000000 0.448140 0.000000
# 6 0.000000 0.000000 0.000000 0.000000 0.000000 0.048801
#
#
# Mechanical properties :
#
#
# Convention : Reuss Voigt Hill
#
# Bulk Modulus (GPa) = 54.43448 54.90340 54.66894
# Shear Modulus (GPa) = 13.81928 18.70515 16.26222
#
# Velocity S-wave (km/s) = 2.73589 3.18300 2.96788
# Velocity P-wave (km/s) = 6.28205 6.57622 6.43082
#
# Compressibility (1/GPa) = 0.01837071
#
# Stress axis : x y z
#
# Youngs Moduli (GPa) = 86.70198 104.16778 87.10152
#
# Poissons Ratio (x) = 0.22429 0.21966
# Poissons Ratio (y) = 0.18668 0.21313
# Poissons Ratio (z) = 0.21865 0.25489
#
# Static dielectric constant tensor:
#      x y z
#    x 1.671470 0.000000 0.000000 
#    y 0.000000 1.762940 0.000000 
#    z 0.000000 0.000000 1.613700 
# 
# From -- ./inp_files/37973.got.cif
#   From: 2010.05.17/outbox.cif.g08.bks.cpg/sg21_19_cif.got.tgz:37973.got - 2010.06.03 23:14:55.
