data_PCOD9323297
_publ_section_title
;
Structure prediction by ZEFSAII (Michael W. Deem and Ramdas Pophale) SiO2 
 PCOD9323297
Probable space group: C 2 2 2
;
_chemical_formula_sum "Si O2"
_cell_formula_units_Z 36
_cell_length_a 8.566733
_cell_length_b 24.308403
_cell_length_c 8.388908
_cell_angle_alpha 90.000000
_cell_angle_beta 90.000000
_cell_angle_gamma 90.000000
_cell_volume 1746.936387
_symmetry_space_group_name_H-M "C 2 2 2"
_symmetry_group_IT_number 21
_symmetry_cell_setting 'orthorhombic'
loop_
_space_group_symop_operation_xyz
x,y,z
-x,-y,z
x,-y,-z
-x,y,-z
1/2+x,1/2+y,z
1/2-x,1/2-y,z
1/2+x,1/2-y,-z
1/2-x,1/2+y,-z
loop_
_atom_site_type_symbol
_atom_site_label
_atom_site_fract_x
_atom_site_fract_y
_atom_site_fract_z
Si Si1 0.410905 0.390686 0.329787
Si Si2 0.000000 0.412166 0.000000
Si Si3 0.814353 0.311558 0.509122
Si Si4 0.737988 0.011551 0.821729
Si Si5 0.231048 0.886332 0.211688
O O1 0.500000 0.392204 0.500000
O O2 0.272703 0.346159 0.351146
O O3 0.338680 0.449078 0.287031
O O4 0.544577 0.380030 0.197318
O O5 0.144861 0.378307 0.930048
O O6 0.915515 0.452003 0.869389
O O7 0.750000 0.250000 0.511121
O O8 0.771174 0.344279 0.349749
O O9 0.000000 0.310205 0.500000
O O10 0.734023 0.950766 0.746086
O O11 0.805376 0.000000 0.000000
#
# Coordination Sequence:
#
# PCOD9323297 Si02
#       5
#     8   4   8   8   8
#     4  10  22  37  59  93 125 162 208 255 313 375
#     4  10  21  36  58  90 128 170 208 250 313 376
#     4  11  23  41  63  86 117 158 207 265 320 373
#     4  10  20  36  58  89 127 166 203 249 308 374
#     4  10  20  35  57  86 122 160 202 250 305 372
#
# _framework density 20.607503999999999
#
# number of rings (size 3 to 8) (size 9 to 14) (size 15 to 20)
#    0.000    1.778    0.000    7.000    0.000   12.444 
#    0.000    1.111    0.000   22.667    0.000    0.000 
#    0.000    0.000    0.000    0.000    0.000    0.000 
#
# Total GULP energy -100225.846713 kJ/mol
# GULP energy per Si atom -5568.102595 kJ/mol
# Density = 2.056060 g / cm^3
# Si number density = 20.607504 Si / 1000 Ang^3
#
#
#
# Elastic Constant Matrix: (Units=GPa)
#
#
# Indices 1 2 3 4 5 6 
#
# 1 143.8344 33.0570 24.0510 0.0000 0.0000 0.0000
# 2 33.0570 122.0042 30.1196 0.0000 0.0000 0.0000
# 3 24.0510 30.1196 39.5811 0.0000 0.0000 0.0000
# 4 0.0000 0.0000 0.0000 9.6040 0.0000 0.0000
# 5 0.0000 0.0000 0.0000 0.0000 38.7450 0.0000
# 6 0.0000 0.0000 0.0000 0.0000 0.0000 36.8401
#
#
#
# Elastic Compliance Matrix: (Units=1/GPa)
#
#
# Indices 1 2 3 4 5 6 
#
# 1 0.007873 -0.001172 -0.003892 0.000000 0.000000 0.000000
# 2 -0.001172 0.010267 -0.007100 0.000000 0.000000 0.000000
# 3 -0.003892 -0.007100 0.033032 0.000000 0.000000 0.000000
# 4 0.000000 0.000000 0.000000 0.104124 0.000000 0.000000
# 5 0.000000 0.000000 0.000000 0.000000 0.025810 0.000000
# 6 0.000000 0.000000 0.000000 0.000000 0.000000 0.027144
#
#
# Mechanical properties :
#
#
# Convention : Reuss Voigt Hill
#
# Bulk Modulus (GPa) = 37.25324 53.31944 45.28634
# Shear Modulus (GPa) = 20.70168 31.58395 26.14282
#
# Velocity S-wave (km/s) = 3.17293 3.91915 3.56561
# Velocity P-wave (km/s) = 5.61606 6.81246 6.24298
#
# Compressibility (1/GPa) = 0.02684331
#
# Stress axis : x y z
#
# Youngs Moduli (GPa) = 127.02281 97.39960 30.27333
#
# Poissons Ratio (x) = 0.11419 0.11781
# Poissons Ratio (y) = 0.14892 0.21495
# Poissons Ratio (z) = 0.49432 0.69157
#
# Static dielectric constant tensor:
#      x y z
#    x 1.884490 0.000000 0.000000 
#    y 0.000000 1.698280 0.000000 
#    z 0.000000 0.000000 1.784540 
# 
# From -- ./inp_files/10554.got.cif
#   From: 2010.05.17/outbox.cif.g08.bks.cpg/sg21_6_cif.got.tgz:10554.got - 2010.06.03 23:14:55.
