data_PCOD9323587
_publ_section_title
;
Structure prediction by ZEFSAII (Michael W. Deem and Ramdas Pophale) SiO2 
 PCOD9323587
Probable space group: C 2 2 2
;
_chemical_formula_sum "Si O2"
_cell_formula_units_Z 32
_cell_length_a 24.170512
_cell_length_b 4.892990
_cell_length_c 11.733013
_cell_angle_alpha 90.000000
_cell_angle_beta 90.000000
_cell_angle_gamma 90.000000
_cell_volume 1387.617378
_symmetry_space_group_name_H-M "C 2 2 2"
_symmetry_group_IT_number 21
_symmetry_cell_setting 'orthorhombic'
loop_
_space_group_symop_operation_xyz
x,y,z
-x,-y,z
x,-y,-z
-x,y,-z
1/2+x,1/2+y,z
1/2-x,1/2-y,z
1/2+x,1/2-y,-z
1/2-x,1/2+y,-z
loop_
_atom_site_type_symbol
_atom_site_label
_atom_site_fract_x
_atom_site_fract_y
_atom_site_fract_z
Si Si1 0.129942 0.729912 0.286549
Si Si2 0.000000 0.500000 0.500000
Si Si3 0.000000 0.000000 0.000000
Si Si4 0.750000 0.250000 0.203821
Si Si5 0.428229 0.500000 0.500000
Si Si6 0.098443 0.218935 0.136133
Si Si7 0.310757 0.000000 0.000000
O O1 0.195904 0.782894 0.280853
O O2 0.111894 0.435576 0.237413
O O3 0.105822 0.833604 0.405777
O O4 0.105261 0.927272 0.192123
O O5 0.037804 0.259030 0.441854
O O6 0.039299 0.803435 0.924276
O O7 0.772246 0.463855 0.109885
O O8 0.145672 0.274324 0.042222
#
# Coordination Sequence:
#
# PCOD9323587 Si02
#       7
#     8   2   2   4   4   8   4
#     4  11  25  44  68 102 136 177 233 281 339 415
#     4  10  24  46  74  90 122 180 216 278 364 396
#     4  12  24  44  68 104 152 184 220 298 348 394
#     4  10  20  38  68  98 134 180 216 276 348 406
#     4  11  24  48  73 100 133 174 236 293 336 410
#     4  11  25  40  65 101 139 184 228 273 341 418
#     4  10  20  40  64  94 136 182 224 264 332 434
#
# _framework density 23.061114
#
# number of rings (size 3 to 8) (size 9 to 14) (size 15 to 20)
#    0.000    1.250    0.000    6.000    0.000   11.500 
#    0.000    8.750    0.000    0.000    0.000    0.000 
#    0.000    0.000    0.000    0.000    0.000    0.000 
#
# Total GULP energy -89073.500347 kJ/mol
# GULP energy per Si atom -5567.093772 kJ/mol
# Density = 2.300863 g / cm^3
# Si number density = 23.061114 Si / 1000 Ang^3
#
#
#
# Elastic Constant Matrix: (Units=GPa)
#
#
# Indices 1 2 3 4 5 6 
#
# 1 170.9961 33.1720 39.7453 0.0000 0.0000 0.0000
# 2 33.1720 72.7538 9.0902 0.0000 0.0000 0.0000
# 3 39.7453 9.0902 81.3983 0.0000 0.0000 0.0000
# 4 0.0000 0.0000 0.0000 36.3252 0.0000 0.0000
# 5 0.0000 0.0000 0.0000 0.0000 11.8435 0.0000
# 6 0.0000 0.0000 0.0000 0.0000 0.0000 17.4310
#
#
#
# Elastic Compliance Matrix: (Units=1/GPa)
#
#
# Indices 1 2 3 4 5 6 
#
# 1 0.007139 -0.002859 -0.003166 0.000000 0.000000 0.000000
# 2 -0.002859 0.015085 -0.000288 0.000000 0.000000 0.000000
# 3 -0.003166 -0.000288 0.013864 0.000000 0.000000 0.000000
# 4 0.000000 0.000000 0.000000 0.027529 0.000000 0.000000
# 5 0.000000 0.000000 0.000000 0.000000 0.084434 0.000000
# 6 0.000000 0.000000 0.000000 0.000000 0.000000 0.057369
#
#
# Mechanical properties :
#
#
# Convention : Reuss Voigt Hill
#
# Bulk Modulus (GPa) = 42.62802 54.35146 48.48974
# Shear Modulus (GPa) = 22.13689 29.32933 25.73311
#
# Velocity S-wave (km/s) = 3.10162 3.57011 3.34408
# Velocity P-wave (km/s) = 5.59926 6.37290 5.99857
#
# Compressibility (1/GPa) = 0.02345875
#
# Stress axis : x y z
#
# Youngs Moduli (GPa) = 140.08060 66.29228 72.13143
#
# Poissons Ratio (x) = 0.18955 0.22840
# Poissons Ratio (y) = 0.40053 0.02081
# Poissons Ratio (z) = 0.44355 0.01912
#
# Static dielectric constant tensor:
#      x y z
#    x 1.983880 0.000000 0.000000 
#    y 0.000000 1.903010 0.000000 
#    z 0.000000 0.000000 1.973410 
# 
# From -- ./inp_files/27613.got.cif
#   From: 2010.05.17/outbox.cif.g08.bks.cpg/sg21_14_cif.got.tgz:27613.got - 2010.06.03 23:14:55.
