data_PCOD9323980
_publ_section_title
;
Structure prediction by ZEFSAII (Michael W. Deem and Ramdas Pophale) SiO2 
 PCOD9323980
Probable space group: C 2 2 2
;
_chemical_formula_sum "Si O2"
_cell_formula_units_Z 34
_cell_length_a 32.503218
_cell_length_b 10.263276
_cell_length_c 5.080696
_cell_angle_alpha 90.000000
_cell_angle_beta 90.000000
_cell_angle_gamma 90.000000
_cell_volume 1694.866824
_symmetry_space_group_name_H-M "C 2 2 2"
_symmetry_group_IT_number 21
_symmetry_cell_setting 'orthorhombic'
loop_
_space_group_symop_operation_xyz
x,y,z
-x,-y,z
x,-y,-z
-x,y,-z
1/2+x,1/2+y,z
1/2-x,1/2-y,z
1/2+x,1/2-y,-z
1/2-x,1/2+y,-z
loop_
_atom_site_type_symbol
_atom_site_label
_atom_site_fract_x
_atom_site_fract_y
_atom_site_fract_z
Si Si1 0.710615 0.841525 0.018733
Si Si2 0.953528 0.138026 0.111779
Si Si3 0.500000 0.000000 0.500000
Si Si4 0.157628 0.654787 0.479907
Si Si5 0.565258 0.218767 0.630765
O O1 0.750000 0.750000 0.976507
O O2 0.689771 0.804929 0.295333
O O3 0.676629 0.809812 0.798967
O O4 0.719099 0.000000 0.000000
O O5 0.951486 0.172322 0.420115
O O6 0.930187 0.242701 0.934691
O O7 0.000000 0.147069 0.000000
O O8 0.938094 0.000000 0.000000
O O9 0.532466 0.100091 0.632516
O O10 0.156722 0.500000 0.500000
O O11 0.110892 0.695088 0.525876
#
# Coordination Sequence:
#
# PCOD9323980 Si02
#       5
#     8   8   2   8   8
#     4  10  21  40  64  89 118 157 197 244 312 383
#     4  11  23  40  58  79 115 168 211 248 297 355
#     4  12  24  38  62  98 124 162 212 256 312 342
#     4  10  21  38  60  89 124 156 192 248 310 363
#     4  12  23  40  61  92 124 159 209 260 296 358
#
# _framework density 20.060573000000002
#
# number of rings (size 3 to 8) (size 9 to 14) (size 15 to 20)
#    0.000    1.176    3.529    2.824    0.000    3.765 
#    0.000    7.059    0.000    0.000    0.000    0.000 
#    0.000    0.000    0.000    0.000    0.000    0.000 
#
# Total GULP energy -94729.486782 kJ/mol
# GULP energy per Si atom -5572.322752 kJ/mol
# Density = 2.001491 g / cm^3
# Si number density = 20.060573 Si / 1000 Ang^3
#
#
#
# Elastic Constant Matrix: (Units=GPa)
#
#
# Indices 1 2 3 4 5 6 
#
# 1 105.4159 24.2482 -19.6268 0.0000 0.0000 0.0000
# 2 24.2482 55.0330 7.5320 0.0000 0.0000 0.0000
# 3 -19.6268 7.5320 48.7736 0.0000 0.0000 0.0000
# 4 0.0000 0.0000 0.0000 8.8946 0.0000 0.0000
# 5 0.0000 0.0000 0.0000 0.0000 6.4275 0.0000
# 6 0.0000 0.0000 0.0000 0.0000 0.0000 2.0099
#
#
#
# Elastic Compliance Matrix: (Units=1/GPa)
#
#
# Indices 1 2 3 4 5 6 
#
# 1 0.011947 -0.006050 0.005742 0.000000 0.000000 0.000000
# 2 -0.006050 0.021627 -0.005774 0.000000 0.000000 0.000000
# 3 0.005742 -0.005774 0.023705 0.000000 0.000000 0.000000
# 4 0.000000 0.000000 0.000000 0.112428 0.000000 0.000000
# 5 0.000000 0.000000 0.000000 0.000000 0.155582 0.000000
# 6 0.000000 0.000000 0.000000 0.000000 0.000000 0.497544
#
#
# Mechanical properties :
#
#
# Convention : Reuss Voigt Hill
#
# Bulk Modulus (GPa) = 22.16595 25.94771 24.05683
# Shear Modulus (GPa) = 5.88211 16.60432 11.24322
#
# Velocity S-wave (km/s) = 1.71422 2.88012 2.36998
# Velocity P-wave (km/s) = 3.87189 4.90131 4.41670
#
# Compressibility (1/GPa) = 0.04511423
#
# Stress axis : x y z
#
# Youngs Moduli (GPa) = 83.70405 46.23892 42.18493
#
# Poissons Ratio (x) = 0.27973 -0.24222
# Poissons Ratio (y) = 0.50639 0.24359
# Poissons Ratio (z) = -0.48061 0.26700
#
# Static dielectric constant tensor:
#      x y z
#    x 1.845760 0.000000 0.000000 
#    y 0.000000 1.773040 0.000000 
#    z 0.000000 0.000000 1.922720 
# 
# From -- ./inp_files/7786.got.cif
#   From: 2010.05.17/outbox.cif.g08.bks.cpg/sg21_4_cif.got.tgz:7786.got - 2010.06.03 23:14:55.
