data_PCOD9323517
_publ_section_title
;
Structure prediction by ZEFSAII (Michael W. Deem and Ramdas Pophale) SiO2 
 PCOD9323517
Probable space group: C 2 2 2
;
_chemical_formula_sum "Si O2"
_cell_formula_units_Z 48
_cell_length_a 8.442007
_cell_length_b 31.433592
_cell_length_c 9.808500
_cell_angle_alpha 90.000000
_cell_angle_beta 90.000000
_cell_angle_gamma 90.000000
_cell_volume 2602.809098
_symmetry_space_group_name_H-M "C 2 2 2"
_symmetry_group_IT_number 21
_symmetry_cell_setting 'orthorhombic'
loop_
_space_group_symop_operation_xyz
x,y,z
-x,-y,z
x,-y,-z
-x,y,-z
1/2+x,1/2+y,z
1/2-x,1/2-y,z
1/2+x,1/2-y,-z
1/2-x,1/2+y,-z
loop_
_atom_site_type_symbol
_atom_site_label
_atom_site_fract_x
_atom_site_fract_y
_atom_site_fract_z
Si Si1 0.574465 0.546856 0.641029
Si Si2 0.579623 0.122956 0.865807
Si Si3 0.500000 0.206975 0.000000
Si Si4 0.635411 0.900448 0.611916
Si Si5 0.892869 0.827336 0.630036
Si Si6 0.750000 0.750000 0.800507
Si Si7 0.442861 0.612922 0.845022
O O1 0.500000 0.500000 0.649878
O O2 0.500000 0.565160 0.500000
O O3 0.761458 0.556403 0.627215
O O4 0.522372 0.572302 0.774380
O O5 0.457017 0.113882 0.746858
O O6 0.754940 0.107235 0.838630
O O7 0.500000 0.103141 0.000000
O O8 0.593669 0.173211 0.903845
O O9 0.611604 0.233919 0.098376
O O10 0.500000 0.904530 0.500000
O O11 0.763141 0.862822 0.585081
O O12 0.807187 0.788037 0.702944
O O13 0.000000 0.815732 0.500000
O O14 0.000143 0.848868 0.747772
O O15 0.500000 0.619171 0.000000
#
# Coordination Sequence:
#
# PCOD9323517 Si02
#       7
#     8   8   4   8   8   4   8
#     4  10  22  41  62  92 128 163 203 254 321 396
#     4  10  20  38  58  90 115 159 209 262 300 377
#     4  10  24  40  60  86 127 160 221 272 322 378
#     4  11  20  39  66  91 121 164 212 260 315 380
#     4  11  24  42  60  89 129 169 217 263 334 393
#     4  12  24  42  58  94 126 174 220 288 330 388
#     4  11  21  39  67  90 120 171 211 251 324 393
#
# _framework density 18.441611999999999
#
# number of rings (size 3 to 8) (size 9 to 14) (size 15 to 20)
#    0.500    0.833    1.667    7.000    3.500    1.000 
#    3.000    5.833    0.000    1.000    0.000    0.000 
#    0.000    0.000    0.000    0.000    0.000    0.000 
#
# Total GULP energy -133820.304185 kJ/mol
# GULP energy per Si atom -5575.846008 kJ/mol
# Density = 1.839964 g / cm^3
# Si number density = 18.441612 Si / 1000 Ang^3
#
#
#
# Elastic Constant Matrix: (Units=GPa)
#
#
# Indices 1 2 3 4 5 6 
#
# 1 127.7439 36.1241 52.8840 0.0000 0.0000 0.0000
# 2 36.1241 73.6887 53.3754 0.0000 0.0000 0.0000
# 3 52.8840 53.3754 118.1373 0.0000 0.0000 0.0000
# 4 0.0000 0.0000 0.0000 5.1144 0.0000 0.0000
# 5 0.0000 0.0000 0.0000 0.0000 47.9345 0.0000
# 6 0.0000 0.0000 0.0000 0.0000 0.0000 24.8985
#
#
#
# Elastic Compliance Matrix: (Units=1/GPa)
#
#
# Indices 1 2 3 4 5 6 
#
# 1 0.009896 -0.002441 -0.003327 0.000000 0.000000 0.000000
# 2 -0.002441 0.020775 -0.008293 0.000000 0.000000 0.000000
# 3 -0.003327 -0.008293 0.013701 0.000000 0.000000 0.000000
# 4 0.000000 0.000000 0.000000 0.195527 0.000000 0.000000
# 5 0.000000 0.000000 0.000000 0.000000 0.020862 0.000000
# 6 0.000000 0.000000 0.000000 0.000000 0.000000 0.040163
#
#
# Mechanical properties :
#
#
# Convention : Reuss Voigt Hill
#
# Bulk Modulus (GPa) = 61.54469 67.14857 64.34663
# Shear Modulus (GPa) = 14.94936 27.40189 21.17563
#
# Velocity S-wave (km/s) = 2.85025 3.85888 3.39226
# Velocity P-wave (km/s) = 6.65410 7.50634 7.09303
#
# Compressibility (1/GPa) = 0.01624836
#
# Stress axis : x y z
#
# Youngs Moduli (GPa) = 101.05294 48.13588 72.98809
#
# Poissons Ratio (x) = 0.11752 0.24281
# Poissons Ratio (y) = 0.24672 0.60530
# Poissons Ratio (z) = 0.33618 0.39920
#
# Static dielectric constant tensor:
#      x y z
#    x 1.634970 0.000000 0.000000 
#    y 0.000000 1.664020 0.000000 
#    z 0.000000 0.000000 1.613670 
# 
# From -- ./inp_files/11577.got.cif
#   From: 2010.05.17/outbox.cif.g08.bks.cpg/sg21_6_cif.got.tgz:11577.got - 2010.06.03 23:14:55.
