data_PCOD9323211
_publ_section_title
;
Structure prediction by ZEFSAII (Michael W. Deem and Ramdas Pophale) SiO2 
 PCOD9323211
Probable space group: C 2 2 2
;
_chemical_formula_sum "Si O2"
_cell_formula_units_Z 38
_cell_length_a 16.429149
_cell_length_b 5.683842
_cell_length_c 19.748573
_cell_angle_alpha 90.000000
_cell_angle_beta 90.000000
_cell_angle_gamma 90.000000
_cell_volume 1844.135316
_symmetry_space_group_name_H-M "C 2 2 2"
_symmetry_group_IT_number 21
_symmetry_cell_setting 'orthorhombic'
loop_
_space_group_symop_operation_xyz
x,y,z
-x,-y,z
x,-y,-z
-x,y,-z
1/2+x,1/2+y,z
1/2-x,1/2-y,z
1/2+x,1/2-y,-z
1/2-x,1/2+y,-z
loop_
_atom_site_type_symbol
_atom_site_label
_atom_site_fract_x
_atom_site_fract_y
_atom_site_fract_z
Si Si1 0.405030 0.248892 0.526025
Si Si2 0.796880 0.498594 0.796017
Si Si3 0.570966 0.177046 0.890145
Si Si4 0.500000 0.500000 0.000000
Si Si5 0.000000 0.000000 0.774700
Si Si6 0.416492 0.149609 0.682757
O O1 0.371339 0.500000 0.500000
O O2 0.500000 0.248797 0.500000
O O3 0.398640 0.229611 0.606814
O O4 0.369554 0.000000 0.500000
O O5 0.750000 0.250000 0.793130
O O6 0.851582 0.468094 0.864210
O O7 0.849219 0.514514 0.726478
O O8 0.750000 0.750000 0.800468
O O9 0.562760 0.358744 0.951424
O O10 0.543035 0.314258 0.822910
O O11 0.500000 0.000000 0.907843
O O12 0.065358 0.122531 0.727607
O O13 0.500000 0.000000 0.680239
#
# Coordination Sequence:
#
# PCOD9323211 Si02
#       6
#     8   8   8   2   4   8
#     4  10  20  34  55  99 129 165 219 303 341 392
#     4  12  27  44  69 105 148 186 223 284 353 414
#     4  11  22  44  72 104 134 177 234 287 335 409
#     4  10  26  40  84 102 134 172 242 284 344 396
#     4  11  18  35  69 102 129 168 230 302 343 370
#     4  12  22  38  69 100 134 180 241 294 345 405
#
# _framework density 20.605865000000001
#
# number of rings (size 3 to 8) (size 9 to 14) (size 15 to 20)
#    0.000    0.842    6.316    2.842    2.947    0.000 
#    0.000    0.000    4.632    2.526    0.000    0.000 
#    0.000    0.000    0.000    0.000    0.000    0.000 
#
# Total GULP energy -105949.567386 kJ/mol
# GULP energy per Si atom -5576.293020 kJ/mol
# Density = 2.055897 g / cm^3
# Si number density = 20.605865 Si / 1000 Ang^3
#
#
#
# Elastic Constant Matrix: (Units=GPa)
#
#
# Indices 1 2 3 4 5 6 
#
# 1 65.9884 41.3775 38.0144 0.0000 0.0000 0.0000
# 2 41.3775 145.9306 65.8653 0.0000 0.0000 0.0000
# 3 38.0144 65.8653 178.9755 0.0000 0.0000 0.0000
# 4 0.0000 0.0000 0.0000 62.0603 0.0000 0.0000
# 5 0.0000 0.0000 0.0000 0.0000 -6.6221 0.0000
# 6 0.0000 0.0000 0.0000 0.0000 0.0000 31.8945
#
#
#
# Elastic Compliance Matrix: (Units=1/GPa)
#
#
# Indices 1 2 3 4 5 6 
#
# 1 0.019324 -0.004349 -0.002504 0.000000 0.000000 0.000000
# 2 -0.004349 0.009196 -0.002461 0.000000 0.000000 0.000000
# 3 -0.002504 -0.002461 0.007025 0.000000 0.000000 0.000000
# 4 0.000000 0.000000 0.000000 0.016113 0.000000 0.000000
# 5 0.000000 0.000000 0.000000 0.000000 -0.151009 0.000000
# 6 0.000000 0.000000 0.000000 0.000000 0.000000 0.031353
#
#
# Mechanical properties :
#
#
# Convention : Reuss Voigt Hill
#
# Bulk Modulus (GPa) = 59.10968 75.71210 67.41089
# Shear Modulus (GPa) = -114.33278 33.84236 -40.24521
#
# Velocity S-wave (km/s) = -7.45694 4.05701 -4.42418
# Velocity P-wave (km/s) = 6.73745 7.66606 2.58605
#
# Compressibility (1/GPa) = 0.01691770
#
# Stress axis : x y z
#
# Youngs Moduli (GPa) = 51.75025 108.73962 142.35443
#
# Poissons Ratio (x) = 0.47290 0.35644
# Poissons Ratio (y) = 0.22506 0.35028
# Poissons Ratio (z) = 0.12958 0.26757
#
# Static dielectric constant tensor:
#      x y z
#    x 1.797780 0.000000 0.000000 
#    y 0.000000 1.818390 0.000000 
#    z 0.000000 0.000000 1.714930 
# 
# From -- ./inp_files/36832.got.cif
#   From: 2010.05.17/outbox.cif.g08.bks.cpg/sg21_19_cif.got.tgz:36832.got - 2010.06.03 23:14:55.
