data_PCOD9323890
_publ_section_title
;
Structure prediction by ZEFSAII (Michael W. Deem and Ramdas Pophale) SiO2 
 PCOD9323890
Probable space group: C 2 2 2
;
_chemical_formula_sum "Si O2"
_cell_formula_units_Z 26
_cell_length_a 7.415124
_cell_length_b 18.850223
_cell_length_c 9.015880
_cell_angle_alpha 90.000000
_cell_angle_beta 90.000000
_cell_angle_gamma 90.000000
_cell_volume 1260.210323
_symmetry_space_group_name_H-M "C 2 2 2"
_symmetry_group_IT_number 21
_symmetry_cell_setting 'orthorhombic'
loop_
_space_group_symop_operation_xyz
x,y,z
-x,-y,z
x,-y,-z
-x,y,-z
1/2+x,1/2+y,z
1/2-x,1/2-y,z
1/2+x,1/2-y,-z
1/2-x,1/2+y,-z
loop_
_atom_site_type_symbol
_atom_site_label
_atom_site_fract_x
_atom_site_fract_y
_atom_site_fract_z
Si Si1 0.500000 0.500000 0.000000
Si Si2 0.705112 0.630841 0.867638
Si Si3 0.826059 0.175618 0.796670
Si Si4 0.530240 0.916737 0.326444
O O1 0.625073 0.447647 0.096117
O O2 0.541221 0.670627 0.786405
O O3 0.885879 0.625011 0.774484
O O4 0.725196 0.666247 0.029126
O O5 0.750000 0.250000 0.741670
O O6 0.727468 0.110773 0.716312
O O7 0.500000 0.904241 0.500000
O O8 0.500000 0.000000 0.297089
#
# Coordination Sequence:
#
# PCOD9323890 Si02
#       4
#     2   8   8   8
#     4   8  16  36  58  98 112 154 202 262 310 348
#     4  10  21  36  66  88 123 156 205 264 305 368
#     4  10  23  40  61  93 121 161 211 258 314 364
#     4  11  24  41  62  92 128 169 208 251 310 378
#
# _framework density 20.631477
#
# number of rings (size 3 to 8) (size 9 to 14) (size 15 to 20)
#    0.000    2.154    0.000    4.615    8.615    2.462 
#    5.538    3.077    0.000    0.000    0.000    0.000 
#    0.000    0.000    0.000    0.000    0.000    0.000 
#
# Total GULP energy -72650.491304 kJ/mol
# GULP energy per Si atom -5588.499331 kJ/mol
# Density = 2.058452 g / cm^3
# Si number density = 20.631477 Si / 1000 Ang^3
#
#
#
# Elastic Constant Matrix: (Units=GPa)
#
#
# Indices 1 2 3 4 5 6 
#
# 1 52.1815 -21.3632 18.3102 0.0000 0.0000 0.0000
# 2 -21.3632 60.7992 -13.9233 0.0000 0.0000 0.0000
# 3 18.3102 -13.9233 27.2252 0.0000 0.0000 0.0000
# 4 0.0000 0.0000 0.0000 -60.6346 0.0000 0.0000
# 5 0.0000 0.0000 0.0000 0.0000 7.3021 0.0000
# 6 0.0000 0.0000 0.0000 0.0000 0.0000 21.1306
#
#
#
# Elastic Compliance Matrix: (Units=1/GPa)
#
#
# Indices 1 2 3 4 5 6 
#
# 1 0.026893 0.006011 -0.015012 0.000000 0.000000 0.000000
# 2 0.006011 0.019973 0.006172 0.000000 0.000000 0.000000
# 3 -0.015012 0.006172 0.049983 0.000000 0.000000 0.000000
# 4 0.000000 0.000000 0.000000 -0.016492 0.000000 0.000000
# 5 0.000000 0.000000 0.000000 0.000000 0.136947 0.000000
# 6 0.000000 0.000000 0.000000 0.000000 0.000000 0.047325
#
#
# Mechanical properties :
#
#
# Convention : Reuss Voigt Hill
#
# Bulk Modulus (GPa) = 10.96603 11.80593 11.38598
# Shear Modulus (GPa) = 16.62873 4.03843 10.33358
#
# Velocity S-wave (km/s) = 2.84207 1.40059 2.24043
# Velocity P-wave (km/s) = 4.01205 2.88968 3.49620
#
# Compressibility (1/GPa) = 0.09119071
#
# Stress axis : x y z
#
# Youngs Moduli (GPa) = 37.18481 50.06721 20.00665
#
# Poissons Ratio (x) = -0.30098 0.30035
# Poissons Ratio (y) = -0.22354 -0.12347
# Poissons Ratio (z) = 0.55823 -0.30899
#
# Static dielectric constant tensor:
#      x y z
#    x 1.720270 0.000000 0.000000 
#    y 0.000000 1.760540 0.000000 
#    z 0.000000 0.000000 1.716190 
# 
# From -- ./inp_files/10038.got.cif
#   From: 2010.05.17/outbox.cif.g08.bks.cpg/sg21_6_cif.got.tgz:10038.got - 2010.06.03 23:14:55.
