data_PCOD9323226
_publ_section_title
;
Structure prediction by ZEFSAII (Michael W. Deem and Ramdas Pophale) SiO2 
 PCOD9323226
Probable space group: C 2 2 2
;
_chemical_formula_sum "Si O2"
_cell_formula_units_Z 44
_cell_length_a 14.671336
_cell_length_b 11.934700
_cell_length_c 13.634710
_cell_angle_alpha 90.000000
_cell_angle_beta 90.000000
_cell_angle_gamma 90.000000
_cell_volume 2387.410366
_symmetry_space_group_name_H-M "C 2 2 2"
_symmetry_group_IT_number 21
_symmetry_cell_setting 'orthorhombic'
loop_
_space_group_symop_operation_xyz
x,y,z
-x,-y,z
x,-y,-z
-x,y,-z
1/2+x,1/2+y,z
1/2-x,1/2-y,z
1/2+x,1/2-y,-z
1/2-x,1/2+y,-z
loop_
_atom_site_type_symbol
_atom_site_label
_atom_site_fract_x
_atom_site_fract_y
_atom_site_fract_z
Si Si1 0.345583 0.997089 0.388596
Si Si2 0.523396 0.374192 0.231388
Si Si3 0.992487 0.314068 0.610514
Si Si4 0.376257 0.392879 0.068938
Si Si5 0.250000 0.750000 0.064274
Si Si6 0.726815 0.557386 0.799016
O O1 0.401037 0.112837 0.375953
O O2 0.307644 0.000000 0.500000
O O3 0.422977 0.900693 0.382774
O O4 0.274752 0.972035 0.302663
O O5 0.500000 0.500000 0.266332
O O6 0.498054 0.281255 0.309322
O O7 0.463950 0.359032 0.132472
O O8 0.631336 0.377393 0.215745
O O9 0.000000 0.267938 0.500000
O O10 0.300892 0.444193 0.143796
O O11 0.396786 0.500000 0.000000
O O12 0.330828 0.296787 0.004238
O O13 0.219524 0.644193 0.131203
#
# Coordination Sequence:
#
# PCOD9323226 Si02
#       6
#     8   8   8   8   4   8
#     4   9  19  38  61  84 113 152 200 242 302 350
#     4  10  21  37  57  83 120 157 192 238 297 358
#     4   9  19  37  60  83 114 156 191 247 299 354
#     4   9  21  37  56  84 116 158 193 235 299 354
#     4  10  20  34  58  84 116 152 198 248 288 354
#     4  10  20  36  58  85 116 154 196 243 293 355
#
# _framework density 18.430009999999999
#
# number of rings (size 3 to 8) (size 9 to 14) (size 15 to 20)
#    0.000    2.545    0.000    2.182    2.545    8.727 
#    6.545    0.000    0.000    0.000    0.000    0.000 
#    0.000    0.000    0.000    0.000    0.000    0.000 
#
# Total GULP energy -122708.056367 kJ/mol
# GULP energy per Si atom -5577.638926 kJ/mol
# Density = 1.838806 g / cm^3
# Si number density = 18.430010 Si / 1000 Ang^3
#
#
#
# Elastic Constant Matrix: (Units=GPa)
#
#
# Indices 1 2 3 4 5 6 
#
# 1 88.9604 40.5598 85.4735 0.0000 0.0000 0.0000
# 2 40.5598 78.3489 69.7978 0.0000 0.0000 0.0000
# 3 85.4735 69.7978 177.8770 0.0000 0.0000 0.0000
# 4 0.0000 0.0000 0.0000 43.6420 0.0000 0.0000
# 5 0.0000 0.0000 0.0000 0.0000 36.2814 0.0000
# 6 0.0000 0.0000 0.0000 0.0000 0.0000 10.4691
#
#
#
# Elastic Compliance Matrix: (Units=1/GPa)
#
#
# Indices 1 2 3 4 5 6 
#
# 1 0.021312 -0.002936 -0.009089 0.000000 0.000000 0.000000
# 2 -0.002936 0.020027 -0.006448 0.000000 0.000000 0.000000
# 3 -0.009089 -0.006448 0.012519 0.000000 0.000000 0.000000
# 4 0.000000 0.000000 0.000000 0.022914 0.000000 0.000000
# 5 0.000000 0.000000 0.000000 0.000000 0.027562 0.000000
# 6 0.000000 0.000000 0.000000 0.000000 0.000000 0.095519
#
#
# Mechanical properties :
#
#
# Convention : Reuss Voigt Hill
#
# Bulk Modulus (GPa) = 59.12425 81.87207 70.49816
# Shear Modulus (GPa) = 20.62388 28.03551 24.32970
#
# Velocity S-wave (km/s) = 3.34883 3.90447 3.63728
# Velocity P-wave (km/s) = 6.86316 8.05271 7.48162
#
# Compressibility (1/GPa) = 0.01691353
#
# Stress axis : x y z
#
# Youngs Moduli (GPa) = 46.92145 49.93148 79.87645
#
# Poissons Ratio (x) = 0.14660 0.72599
# Poissons Ratio (y) = 0.13776 0.51503
# Poissons Ratio (z) = 0.42646 0.32195
#
# Static dielectric constant tensor:
#      x y z
#    x 1.663060 0.000000 0.000000 
#    y 0.000000 1.628010 0.000000 
#    z 0.000000 0.000000 1.655260 
# 
# From -- ./inp_files/32209.got.cif
#   From: 2010.05.17/outbox.cif.g08.bks.cpg/sg21_17_cif.got.tgz:32209.got - 2010.06.03 23:14:55.
