data_PCOD9323891
_publ_section_title
;
Structure prediction by ZEFSAII (Michael W. Deem and Ramdas Pophale) SiO2 
 PCOD9323891
Probable space group: C 2 2 2
;
_chemical_formula_sum "Si O2"
_cell_formula_units_Z 32
_cell_length_a 15.062185
_cell_length_b 5.566621
_cell_length_c 18.888476
_cell_angle_alpha 90.000000
_cell_angle_beta 90.000000
_cell_angle_gamma 90.000000
_cell_volume 1583.713248
_symmetry_space_group_name_H-M "C 2 2 2"
_symmetry_group_IT_number 21
_symmetry_cell_setting 'orthorhombic'
loop_
_space_group_symop_operation_xyz
x,y,z
-x,-y,z
x,-y,-z
-x,y,-z
1/2+x,1/2+y,z
1/2-x,1/2-y,z
1/2+x,1/2-y,-z
1/2-x,1/2+y,-z
loop_
_atom_site_type_symbol
_atom_site_label
_atom_site_fract_x
_atom_site_fract_y
_atom_site_fract_z
Si Si1 0.000000 0.000000 0.747194
Si Si2 0.193361 0.503769 0.076959
Si Si3 0.411766 0.881984 0.355720
Si Si4 0.851219 0.665208 0.219618
Si Si5 0.250000 0.750000 0.456831
O O1 0.946896 0.827597 0.694504
O O2 0.074556 0.866324 0.791913
O O3 0.250000 0.750000 0.077872
O O4 0.141208 0.505408 0.151214
O O5 0.250000 0.250000 0.078149
O O6 0.146464 0.500000 0.000000
O O7 0.337086 0.794833 0.409076
O O8 0.500000 0.000000 0.389942
O O9 0.371601 0.062297 0.297292
O O10 0.750000 0.750000 0.222676
O O11 0.262022 0.500000 0.500000
#
# Coordination Sequence:
#
# PCOD9323891 Si02
#       5
#     4   8   8   8   4
#     4  10  22  40  65  99 130 166 232 268 334 396
#     4   9  19  34  57  96 129 169 224 274 328 393
#     4  10  24  44  68  96 133 174 219 277 331 402
#     4  10  21  36  69  96 127 177 222 278 328 395
#     4  12  30  48  72 102 134 174 226 274 338 416
#
# _framework density 20.205677999999999
#
# number of rings (size 3 to 8) (size 9 to 14) (size 15 to 20)
#    0.000    2.000    0.000    1.500   17.500    0.500 
#    0.000    0.000    0.000    8.250    0.000    0.000 
#    0.000    0.000    0.000    0.000    0.000    0.000 
#
# Total GULP energy -89126.999879 kJ/mol
# GULP energy per Si atom -5570.437492 kJ/mol
# Density = 2.015969 g / cm^3
# Si number density = 20.205678 Si / 1000 Ang^3
#
#
#
# Elastic Constant Matrix: (Units=GPa)
#
#
# Indices 1 2 3 4 5 6 
#
# 1 142.8846 48.3826 74.5947 0.0000 0.0000 0.0000
# 2 48.3826 97.8896 31.1100 0.0000 0.0000 0.0000
# 3 74.5947 31.1100 92.6082 0.0000 0.0000 0.0000
# 4 0.0000 0.0000 0.0000 41.6126 0.0000 0.0000
# 5 0.0000 0.0000 0.0000 0.0000 -43.5731 0.0000
# 6 0.0000 0.0000 0.0000 0.0000 0.0000 23.6202
#
#
#
# Elastic Compliance Matrix: (Units=1/GPa)
#
#
# Indices 1 2 3 4 5 6 
#
# 1 0.013059 -0.003483 -0.009348 0.000000 0.000000 0.000000
# 2 -0.003483 0.012366 -0.001348 0.000000 0.000000 0.000000
# 3 -0.009348 -0.001348 0.018781 0.000000 0.000000 0.000000
# 4 0.000000 0.000000 0.000000 0.024031 0.000000 0.000000
# 5 0.000000 0.000000 0.000000 0.000000 -0.022950 0.000000
# 6 0.000000 0.000000 0.000000 0.000000 0.000000 0.042337
#
#
# Mechanical properties :
#
#
# Convention : Reuss Voigt Hill
#
# Bulk Modulus (GPa) = 63.10941 71.28413 67.19677
# Shear Modulus (GPa) = 41.23202 16.28495 28.75848
#
# Velocity S-wave (km/s) = 4.52222 2.84202 3.77674
# Velocity P-wave (km/s) = 7.65301 6.79156 7.23512
#
# Compressibility (1/GPa) = 0.01584550
#
# Stress axis : x y z
#
# Youngs Moduli (GPa) = 76.57807 80.86866 53.24507
#
# Poissons Ratio (x) = 0.28169 0.49775
# Poissons Ratio (y) = 0.26675 0.07179
# Poissons Ratio (z) = 0.71588 0.10903
#
# Static dielectric constant tensor:
#      x y z
#    x 1.736870 0.000000 0.000000 
#    y 0.000000 1.807600 0.000000 
#    z 0.000000 0.000000 1.713250 
# 
# From -- ./inp_files/34325.got.cif
#   From: 2010.05.17/outbox.cif.g08.bks.cpg/sg21_18_cif.got.tgz:34325.got - 2010.06.03 23:14:55.
