data_PCOD9323378
_publ_section_title
;
Structure prediction by ZEFSAII (Michael W. Deem and Ramdas Pophale) SiO2 
 PCOD9323378
Probable space group: C 2 2 2
;
_chemical_formula_sum "Si O2"
_cell_formula_units_Z 34
_cell_length_a 14.546636
_cell_length_b 5.415474
_cell_length_c 20.104993
_cell_angle_alpha 90.000000
_cell_angle_beta 90.000000
_cell_angle_gamma 90.000000
_cell_volume 1583.809607
_symmetry_space_group_name_H-M "C 2 2 2"
_symmetry_group_IT_number 21
_symmetry_cell_setting 'orthorhombic'
loop_
_space_group_symop_operation_xyz
x,y,z
-x,-y,z
x,-y,-z
-x,y,-z
1/2+x,1/2+y,z
1/2-x,1/2-y,z
1/2+x,1/2-y,-z
1/2-x,1/2+y,-z
loop_
_atom_site_type_symbol
_atom_site_label
_atom_site_fract_x
_atom_site_fract_y
_atom_site_fract_z
Si Si1 0.144317 0.339776 0.565931
Si Si2 0.500000 0.500000 0.500000
Si Si3 0.810070 0.501584 0.296476
Si Si4 0.110149 0.502437 0.849711
Si Si5 0.112489 0.001233 0.923394
O O1 0.135946 0.500000 0.500000
O O2 0.250000 0.250000 0.567001
O O3 0.068858 0.135945 0.550787
O O4 0.130568 0.474996 0.636147
O O5 0.750000 0.250000 0.292630
O O6 0.863213 0.514354 0.227260
O O7 0.750000 0.750000 0.303357
O O8 0.141803 0.249116 0.884884
O O9 0.000000 0.500000 0.854704
O O10 0.142147 0.750929 0.886661
O O11 0.000000 0.000000 0.923683
O O12 0.142642 0.000000 0.000000
#
# Coordination Sequence:
#
# PCOD9323378 Si02
#       5
#     8   2   8   8   8
#     4  11  24  46  71 100 142 181 237 286 352 418
#     4  12  26  44  76 108 132 192 228 304 342 418
#     4  11  25  44  68  92 133 182 212 269 342 401
#     4  10  20  36  59  93 123 161 220 274 318 394
#     4   9  17  32  57  89 125 163 208 270 334 385
#
# _framework density 21.467224000000002
#
# number of rings (size 3 to 8) (size 9 to 14) (size 15 to 20)
#    0.000    1.647    1.176    3.176    3.294    4.706 
#    6.353    0.000    0.000   14.118    0.000    0.000 
#    0.000    0.000    0.000    0.000    0.000    0.000 
#
# Total GULP energy -94992.988160 kJ/mol
# GULP energy per Si atom -5587.822833 kJ/mol
# Density = 2.141836 g / cm^3
# Si number density = 21.467224 Si / 1000 Ang^3
#
#
#
# Elastic Constant Matrix: (Units=GPa)
#
#
# Indices 1 2 3 4 5 6 
#
# 1 97.8701 48.2562 39.0301 0.0000 0.0000 0.0000
# 2 48.2562 190.1411 107.4695 0.0000 0.0000 0.0000
# 3 39.0301 107.4695 237.5320 0.0000 0.0000 0.0000
# 4 0.0000 0.0000 0.0000 50.3758 0.0000 0.0000
# 5 0.0000 0.0000 0.0000 0.0000 29.3111 0.0000
# 6 0.0000 0.0000 0.0000 0.0000 0.0000 -3.3919
#
#
#
# Elastic Compliance Matrix: (Units=1/GPa)
#
#
# Indices 1 2 3 4 5 6 
#
# 1 0.011787 -0.002548 -0.000784 0.000000 0.000000 0.000000
# 2 -0.002548 0.007617 -0.003028 0.000000 0.000000 0.000000
# 3 -0.000784 -0.003028 0.005709 0.000000 0.000000 0.000000
# 4 0.000000 0.000000 0.000000 0.019851 0.000000 0.000000
# 5 0.000000 0.000000 0.000000 0.000000 0.034117 0.000000
# 6 0.000000 0.000000 0.000000 0.000000 0.000000 -0.294819
#
#
# Mechanical properties :
#
#
# Convention : Reuss Voigt Hill
#
# Bulk Modulus (GPa) = 80.69062 101.67274 91.18168
# Shear Modulus (GPa) = -25.13969 37.31150 6.08591
#
# Velocity S-wave (km/s) = -3.42581 4.17354 1.68557
# Velocity P-wave (km/s) = 4.69268 8.40769 6.80847
#
# Compressibility (1/GPa) = 0.01239301
#
# Stress axis : x y z
#
# Youngs Moduli (GPa) = 84.84140 131.28085 175.17535
#
# Poissons Ratio (x) = 0.33456 0.13729
# Poissons Ratio (y) = 0.21621 0.53037
# Poissons Ratio (z) = 0.06649 0.39747
#
# Static dielectric constant tensor:
#      x y z
#    x 1.757490 0.000000 0.000000 
#    y 0.000000 1.776640 0.000000 
#    z 0.000000 0.000000 1.747930 
# 
# From -- ./inp_files/34461.got.cif
#   From: 2010.05.17/outbox.cif.g08.bks.cpg/sg21_18_cif.got.tgz:34461.got - 2010.06.03 23:14:55.
