data_PCOD9323895
_publ_section_title
;
Structure prediction by ZEFSAII (Michael W. Deem and Ramdas Pophale) SiO2 
 PCOD9323895
Probable space group: C 2 2 2
;
_chemical_formula_sum "Si O2"
_cell_formula_units_Z 30
_cell_length_a 5.081620
_cell_length_b 26.039618
_cell_length_c 13.201732
_cell_angle_alpha 90.000000
_cell_angle_beta 90.000000
_cell_angle_gamma 90.000000
_cell_volume 1746.898640
_symmetry_space_group_name_H-M "C 2 2 2"
_symmetry_group_IT_number 21
_symmetry_cell_setting 'orthorhombic'
loop_
_space_group_symop_operation_xyz
x,y,z
-x,-y,z
x,-y,-z
-x,y,-z
1/2+x,1/2+y,z
1/2-x,1/2-y,z
1/2+x,1/2-y,-z
1/2-x,1/2+y,-z
loop_
_atom_site_type_symbol
_atom_site_label
_atom_site_fract_x
_atom_site_fract_y
_atom_site_fract_z
Si Si1 0.000661 0.213342 0.881966
Si Si2 0.136312 0.147744 0.696966
Si Si3 0.000000 0.500000 0.500000
Si Si4 0.750000 0.250000 0.427909
Si Si5 0.117725 0.599068 0.605116
O O1 0.250000 0.250000 0.868100
O O2 0.035096 0.165423 0.807088
O O3 0.750000 0.250000 0.859910
O O4 0.000000 0.197714 0.000000
O O5 0.220004 0.200373 0.642287
O O6 0.389153 0.110478 0.687031
O O7 0.890651 0.123406 0.637621
O O8 0.846278 0.460505 0.572968
O O9 0.500000 0.246249 0.500000
O O10 0.000000 0.621954 0.500000
#
# Coordination Sequence:
#
# PCOD9323895 Si02
#       5
#     8   8   2   4   8
#     4  10  21  37  54  76 111 151 189 222 260 317
#     4  12  21  35  54  81 107 151 180 219 269 329
#     4   8  24  42  56  78 110 146 188 242 272 328
#     4  12  24  32  48  78 122 152 170 210 264 330
#     4  10  22  37  56  77 109 140 188 221 274 328
#
# _framework density 17.173293000000001
#
# number of rings (size 3 to 8) (size 9 to 14) (size 15 to 20)
#    0.800    0.533    1.333    6.400    1.867    2.133 
#    0.000    0.000    0.000    0.000    0.000    5.600 
#    0.000    0.000    0.000    0.000    0.000    0.000 
#
# Total GULP energy -83658.296619 kJ/mol
# GULP energy per Si atom -5577.219775 kJ/mol
# Density = 1.713421 g / cm^3
# Si number density = 17.173293 Si / 1000 Ang^3
#
#
#
# Elastic Constant Matrix: (Units=GPa)
#
#
# Indices 1 2 3 4 5 6 
#
# 1 108.6432 23.0819 15.0903 0.0000 0.0000 0.0000
# 2 23.0819 91.9269 35.2659 0.0000 0.0000 0.0000
# 3 15.0903 35.2659 78.4770 0.0000 0.0000 0.0000
# 4 0.0000 0.0000 0.0000 30.9329 0.0000 0.0000
# 5 0.0000 0.0000 0.0000 0.0000 39.4216 0.0000
# 6 0.0000 0.0000 0.0000 0.0000 0.0000 8.2757
#
#
#
# Elastic Compliance Matrix: (Units=1/GPa)
#
#
# Indices 1 2 3 4 5 6 
#
# 1 0.009780 -0.002095 -0.000939 0.000000 0.000000 0.000000
# 2 -0.002095 0.013593 -0.005706 0.000000 0.000000 0.000000
# 3 -0.000939 -0.005706 0.015487 0.000000 0.000000 0.000000
# 4 0.000000 0.000000 0.000000 0.032328 0.000000 0.000000
# 5 0.000000 0.000000 0.000000 0.000000 0.025367 0.000000
# 6 0.000000 0.000000 0.000000 0.000000 0.000000 0.120836
#
#
# Mechanical properties :
#
#
# Convention : Reuss Voigt Hill
#
# Bulk Modulus (GPa) = 46.77180 47.32481 47.04830
# Shear Modulus (GPa) = 20.66136 29.43332 25.04734
#
# Velocity S-wave (km/s) = 3.47235 4.14442 3.82318
# Velocity P-wave (km/s) = 6.58564 7.10765 6.85162
#
# Compressibility (1/GPa) = 0.02138040
#
# Stress axis : x y z
#
# Youngs Moduli (GPa) = 102.24894 73.56626 64.56991
#
# Poissons Ratio (x) = 0.15416 0.06063
# Poissons Ratio (y) = 0.21426 0.36841
# Poissons Ratio (z) = 0.09601 0.41974
#
# Static dielectric constant tensor:
#      x y z
#    x 1.574160 0.000000 0.000000 
#    y 0.000000 1.580800 0.000000 
#    z 0.000000 0.000000 1.635470 
# 
# From -- ./inp_files/20813.got.cif
#   From: 2010.05.17/outbox.cif.g08.bks.cpg/sg21_11_cif.got.tgz:20813.got - 2010.06.03 23:14:55.
