data_PCOD9323466
_publ_section_title
;
Structure prediction by ZEFSAII (Michael W. Deem and Ramdas Pophale) SiO2 
 PCOD9323466
Probable space group: C 2 2 2
;
_chemical_formula_sum "Si O2"
_cell_formula_units_Z 56
_cell_length_a 10.291262
_cell_length_b 16.231087
_cell_length_c 16.791975
_cell_angle_alpha 90.000000
_cell_angle_beta 90.000000
_cell_angle_gamma 90.000000
_cell_volume 2804.904114
_symmetry_space_group_name_H-M "C 2 2 2"
_symmetry_group_IT_number 21
_symmetry_cell_setting 'orthorhombic'
loop_
_space_group_symop_operation_xyz
x,y,z
-x,-y,z
x,-y,-z
-x,y,-z
1/2+x,1/2+y,z
1/2-x,1/2-y,z
1/2+x,1/2-y,-z
1/2-x,1/2+y,-z
loop_
_atom_site_type_symbol
_atom_site_label
_atom_site_fract_x
_atom_site_fract_y
_atom_site_fract_z
Si Si1 0.297711 0.845053 0.456638
Si Si2 0.174659 0.909433 0.311349
Si Si3 0.151798 0.517640 0.086874
Si Si4 0.942825 0.788194 0.263555
Si Si5 0.742624 0.925973 0.243451
Si Si6 0.917234 0.354564 0.621178
Si Si7 0.851867 0.678320 0.814553
O O1 0.250000 0.750000 0.448125
O O2 0.199370 0.898924 0.404716
O O3 0.316288 0.865923 0.549067
O O4 0.439531 0.860479 0.416722
O O5 0.298392 0.868204 0.264637
O O6 0.054584 0.854205 0.283777
O O7 0.169413 0.003085 0.283467
O O8 0.205729 0.460484 0.157359
O O9 0.158435 0.611601 0.116240
O O10 0.000000 0.500000 0.082441
O O11 0.210749 0.500000 0.000000
O O12 0.819667 0.840460 0.235963
O O13 0.909905 0.736951 0.342467
O O14 0.010374 0.721823 0.204037
O O15 0.623011 0.913053 0.305132
O O16 0.750000 0.750000 0.831168
#
# Coordination Sequence:
#
# PCOD9323466 Si02
#       7
#     8   8   8   8   8   8   8
#     4  11  20  38  59  83 116 167 212 250 293 370
#     4  10  20  37  61  82 119 167 201 240 305 372
#     4  10  22  41  62  86 121 163 196 242 314 384
#     4  11  19  39  61  91 115 163 204 250 303 367
#     4  11  24  37  60  94 124 145 199 268 313 354
#     4  11  23  35  59  87 119 157 209 257 305 346
#     4   9  18  36  64  86 113 158 211 236 292 377
#
# _framework density 19.965031
#
# number of rings (size 3 to 8) (size 9 to 14) (size 15 to 20)
#    0.000    1.571    2.857    3.000    2.000    0.571 
#    0.000    5.714    0.000   16.286    0.000    0.000 
#    0.000    0.000    0.000    0.000    0.000    0.000 
#
# Total GULP energy -156291.823097 kJ/mol
# GULP energy per Si atom -5581.850825 kJ/mol
# Density = 1.991959 g / cm^3
# Si number density = 19.965031 Si / 1000 Ang^3
#
#
#
# Elastic Constant Matrix: (Units=GPa)
#
#
# Indices 1 2 3 4 5 6 
#
# 1 40.2243 10.4293 24.9269 0.0000 0.0000 0.0000
# 2 10.4293 93.8281 51.2109 0.0000 0.0000 0.0000
# 3 24.9269 51.2109 144.4123 0.0000 0.0000 0.0000
# 4 0.0000 0.0000 0.0000 26.6728 0.0000 0.0000
# 5 0.0000 0.0000 0.0000 0.0000 11.8138 0.0000
# 6 0.0000 0.0000 0.0000 0.0000 0.0000 33.7499
#
#
#
# Elastic Compliance Matrix: (Units=1/GPa)
#
#
# Indices 1 2 3 4 5 6 
#
# 1 0.027864 -0.000585 -0.004602 0.000000 0.000000 0.000000
# 2 -0.000585 0.013228 -0.004590 0.000000 0.000000 0.000000
# 3 -0.004602 -0.004590 0.009347 0.000000 0.000000 0.000000
# 4 0.000000 0.000000 0.000000 0.037491 0.000000 0.000000
# 5 0.000000 0.000000 0.000000 0.000000 0.084647 0.000000
# 6 0.000000 0.000000 0.000000 0.000000 0.000000 0.029630
#
#
# Mechanical properties :
#
#
# Convention : Reuss Voigt Hill
#
# Bulk Modulus (GPa) = 32.37893 50.17766 41.27829
# Shear Modulus (GPa) = 21.54652 27.24048 24.39350
#
# Velocity S-wave (km/s) = 3.28870 3.69780 3.49923
# Velocity P-wave (km/s) = 5.53839 6.58931 6.08657
#
# Compressibility (1/GPa) = 0.03088428
#
# Stress axis : x y z
#
# Youngs Moduli (GPa) = 35.88826 75.59753 106.99094
#
# Poissons Ratio (x) = 0.04426 0.49238
# Poissons Ratio (y) = 0.02101 0.49107
# Poissons Ratio (z) = 0.16516 0.34698
#
# Static dielectric constant tensor:
#      x y z
#    x 1.751440 0.000000 0.000000 
#    y 0.000000 1.746110 0.000000 
#    z 0.000000 0.000000 1.721380 
# 
# From -- ./inp_files/31592.got.cif
#   From: 2010.05.17/outbox.cif.g08.bks.cpg/sg21_16_cif.got.tgz:31592.got - 2010.06.03 23:14:55.
