data_PCOD9323673
_publ_section_title
;
Structure prediction by ZEFSAII (Michael W. Deem and Ramdas Pophale) SiO2 
 PCOD9323673
Probable space group: C 2 2 2
;
_chemical_formula_sum "Si O2"
_cell_formula_units_Z 38
_cell_length_a 17.770174
_cell_length_b 9.968979
_cell_length_c 8.682897
_cell_angle_alpha 90.000000
_cell_angle_beta 90.000000
_cell_angle_gamma 90.000000
_cell_volume 1538.179471
_symmetry_space_group_name_H-M "C 2 2 2"
_symmetry_group_IT_number 21
_symmetry_cell_setting 'orthorhombic'
loop_
_space_group_symop_operation_xyz
x,y,z
-x,-y,z
x,-y,-z
-x,y,-z
1/2+x,1/2+y,z
1/2-x,1/2-y,z
1/2+x,1/2-y,-z
1/2-x,1/2+y,-z
loop_
_atom_site_type_symbol
_atom_site_label
_atom_site_fract_x
_atom_site_fract_y
_atom_site_fract_z
Si Si1 0.735605 0.476484 0.318670
Si Si2 0.000000 0.500000 0.500000
Si Si3 0.408066 0.191331 0.072386
Si Si4 0.750000 0.750000 0.127195
Si Si5 0.582691 0.525606 0.185522
Si Si6 0.099806 0.598093 0.235697
O O1 0.734931 0.500000 0.500000
O O2 0.743703 0.619283 0.232547
O O3 0.650535 0.442729 0.262548
O O4 0.811179 0.393369 0.277361
O O5 0.052736 0.591204 0.391823
O O6 0.320720 0.215483 0.023981
O O7 0.413780 0.312865 0.190728
O O8 0.410762 0.049703 0.157568
O O9 0.440945 0.188565 0.897897
O O10 0.500000 0.500000 0.247512
O O11 0.585431 0.500000 0.000000
#
# Coordination Sequence:
#
# PCOD9323673 Si02
#       6
#     8   2   8   4   8   8
#     4  10  20  40  62  94 133 169 216 263 333 390
#     4  12  24  38  56 100 136 154 208 280 356 396
#     4   9  20  40  67  91 124 175 223 261 326 387
#     4   8  18  36  64  94 128 170 224 276 300 390
#     4  10  23  41  64  95 132 169 220 271 313 390
#     4  10  22  40  67  92 130 172 213 281 329 385
#
# _framework density 24.704530999999999
#
# number of rings (size 3 to 8) (size 9 to 14) (size 15 to 20)
#    0.000    2.316    1.053    0.000    8.842    5.474 
#    3.789    6.316    0.000    0.000    0.000    0.000 
#    0.000    0.000    0.000    0.000    0.000    0.000 
#
# Total GULP energy -105962.423696 kJ/mol
# GULP energy per Si atom -5576.969668 kJ/mol
# Density = 2.464830 g / cm^3
# Si number density = 24.704531 Si / 1000 Ang^3
#
#
#
# Elastic Constant Matrix: (Units=GPa)
#
#
# Indices 1 2 3 4 5 6 
#
# 1 139.5157 0.3655 42.5978 0.0000 0.0000 0.0000
# 2 0.3655 28.9578 -1.4467 0.0000 0.0000 0.0000
# 3 42.5978 -1.4467 132.7681 0.0000 0.0000 0.0000
# 4 0.0000 0.0000 0.0000 7.5782 0.0000 0.0000
# 5 0.0000 0.0000 0.0000 0.0000 -9.5953 0.0000
# 6 0.0000 0.0000 0.0000 0.0000 0.0000 23.5736
#
#
#
# Elastic Compliance Matrix: (Units=1/GPa)
#
#
# Indices 1 2 3 4 5 6 
#
# 1 0.007948 -0.000228 -0.002552 0.000000 0.000000 0.000000
# 2 -0.000228 0.034558 0.000450 0.000000 0.000000 0.000000
# 3 -0.002552 0.000450 0.008356 0.000000 0.000000 0.000000
# 4 0.000000 0.000000 0.000000 0.131958 0.000000 0.000000
# 5 0.000000 0.000000 0.000000 0.000000 -0.104218 0.000000
# 6 0.000000 0.000000 0.000000 0.000000 0.000000 0.042420
#
#
# Mechanical properties :
#
#
# Convention : Reuss Voigt Hill
#
# Bulk Modulus (GPa) = 21.64479 42.69721 32.17100
# Shear Modulus (GPa) = 35.44008 21.62631 28.53319
#
# Velocity S-wave (km/s) = 3.79166 2.96192 3.40218
# Velocity P-wave (km/s) = 5.28672 5.38683 5.33701
#
# Compressibility (1/GPa) = 0.04620050
#
# Stress axis : x y z
#
# Youngs Moduli (GPa) = 125.82467 28.93657 119.67799
#
# Poissons Ratio (x) = 0.00659 0.30547
# Poissons Ratio (y) = 0.02867 -0.05381
# Poissons Ratio (z) = 0.32116 -0.01301
#
# Static dielectric constant tensor:
#      x y z
#    x 2.186790 0.000000 0.000000 
#    y 0.000000 2.121480 0.000000 
#    z 0.000000 0.000000 1.894640 
# 
# From -- ./inp_files/16139.got.cif
#   From: 2010.05.17/outbox.cif.g08.bks.cpg/sg21_9_cif.got.tgz:16139.got - 2010.06.03 23:14:55.
