data_PCOD9323288
_publ_section_title
;
Structure prediction by ZEFSAII (Michael W. Deem and Ramdas Pophale) SiO2 
 PCOD9323288
Probable space group: C 2 2 2
;
_chemical_formula_sum "Si O2"
_cell_formula_units_Z 64
_cell_length_a 7.571907
_cell_length_b 15.689827
_cell_length_c 25.280509
_cell_angle_alpha 90.000000
_cell_angle_beta 90.000000
_cell_angle_gamma 90.000000
_cell_volume 3003.372777
_symmetry_space_group_name_H-M "C 2 2 2"
_symmetry_group_IT_number 21
_symmetry_cell_setting 'orthorhombic'
loop_
_space_group_symop_operation_xyz
x,y,z
-x,-y,z
x,-y,-z
-x,y,-z
1/2+x,1/2+y,z
1/2-x,1/2-y,z
1/2+x,1/2-y,-z
1/2-x,1/2+y,-z
loop_
_atom_site_type_symbol
_atom_site_label
_atom_site_fract_x
_atom_site_fract_y
_atom_site_fract_z
Si Si1 0.211127 0.648980 0.000000
Si Si2 0.788091 0.500000 0.190868
Si Si3 0.711440 0.344841 0.614451
Si Si4 0.285030 0.599970 0.500000
Si Si5 0.788560 0.155160 0.385549
Si Si6 0.287463 0.149498 0.115851
Si Si7 0.712537 0.149498 0.115851
Si Si8 0.287707 0.500000 0.314624
O O1 0.250000 0.750000 0.000000
O O2 0.278234 0.620388 0.057450
O O3 0.278234 0.620388 0.942550
O O4 0.000000 0.634431 0.000000
O O5 0.722476 0.584976 0.160780
O O6 0.722476 0.415024 0.160780
O O7 0.750769 0.500000 0.252823
O O8 0.000000 0.500000 0.185558
O O9 0.750000 0.250000 0.632894
O O10 0.779176 0.358638 0.554549
O O11 0.500000 0.354682 0.611613
O O12 0.778881 0.416861 0.654199
O O13 0.240217 0.500000 0.500000
O O14 0.500000 0.605139 0.500000
O O15 0.220824 0.641362 0.445451
O O16 0.750000 0.250000 0.367106
O O17 0.721119 0.083139 0.345801
O O18 0.250000 0.250000 0.124162
O O19 0.500000 0.143459 0.114302
O O20 0.750000 0.250000 0.124162
O O21 0.500000 0.500000 0.319356
#
# Coordination Sequence:
#
# PCOD9323288 Si02
#       8
#     8   8   8   8   8   8   8   8
#     4   8  14  27  49  75 102 130 162 203 253 309
#     4  10  22  37  53  75 103 136 175 218 260 300
#     4  10  20  35  57  82 106 136 173 212 257 308
#     4   9  15  30  57  82 107 138 169 205 252 310
#     4  10  20  35  57  82 106 136 173 212 257 308
#     4   9  18  33  53  77 104 134 168 209 258 309
#     4   9  18  33  53  77 104 134 168 209 258 309
#     4  10  22  39  55  73 101 140 181 214 252 306
#
# _framework density 21.309374999999999
#
# number of rings (size 3 to 8) (size 9 to 14) (size 15 to 20)
#    0.000    2.625    1.250    0.375    0.000    3.500 
#    0.000    7.500    0.000    0.750    0.000    9.625 
#    0.000    0.000    0.000    0.000    0.000    0.000 
#
# Total GULP energy -178554.699218 kJ/mol
# GULP energy per Si atom -5579.834351 kJ/mol
# Density = 2.126087 g / cm^3
# Si number density = 21.309375 Si / 1000 Ang^3
#
#
#
# Elastic Constant Matrix: (Units=GPa)
#
#
# Indices 1 2 3 4 5 6 
#
# 1 50.3925 1.8635 8.4423 0.0000 0.0000 0.0000
# 2 1.8635 168.6583 118.5771 0.0000 0.0000 0.0000
# 3 8.4423 118.5771 213.9116 0.0000 0.0000 0.0000
# 4 0.0000 0.0000 0.0000 5.8955 0.0000 0.0000
# 5 0.0000 0.0000 0.0000 0.0000 18.9709 0.0000
# 6 0.0000 0.0000 0.0000 0.0000 0.0000 15.2894
#
#
#
# Elastic Compliance Matrix: (Units=1/GPa)
#
#
# Indices 1 2 3 4 5 6 
#
# 1 0.020007 0.000547 -0.001093 0.000000 0.000000 0.000000
# 2 0.000547 0.009731 -0.005416 0.000000 0.000000 0.000000
# 3 -0.001093 -0.005416 0.007720 0.000000 0.000000 0.000000
# 4 0.000000 0.000000 0.000000 0.169622 0.000000 0.000000
# 5 0.000000 0.000000 0.000000 0.000000 0.052712 0.000000
# 6 0.000000 0.000000 0.000000 0.000000 0.000000 0.065405
#
#
# Mechanical properties :
#
#
# Convention : Reuss Voigt Hill
#
# Bulk Modulus (GPa) = 39.16148 76.74759 57.95453
# Shear Modulus (GPa) = 14.46629 28.30310 21.38470
#
# Velocity S-wave (km/s) = 2.60834 3.64840 3.17130
# Velocity P-wave (km/s) = 5.24297 7.33770 6.37693
#
# Compressibility (1/GPa) = 0.02553530
#
# Stress axis : x y z
#
# Youngs Moduli (GPa) = 49.98223 102.76932 129.53485
#
# Poissons Ratio (x) = -0.05626 0.14159
# Poissons Ratio (y) = -0.02736 0.70150
# Poissons Ratio (z) = 0.05463 0.55655
#
# Static dielectric constant tensor:
#      x y z
#    x 1.837110 0.000000 0.000000 
#    y 0.000000 1.748160 0.000000 
#    z 0.000000 0.000000 1.770180 
# 
# From -- ./inp_files/38527.got.cif
#   From: 2010.05.17/outbox.cif.g08.bks.cpg/sg21_20_cif.got.tgz:38527.got - 2010.06.03 23:14:55.
