data_PCOD9323812
_publ_section_title
;
Structure prediction by ZEFSAII (Michael W. Deem and Ramdas Pophale) SiO2 
 PCOD9323812
Probable space group: C 2 2 2
;
_chemical_formula_sum "Si O2"
_cell_formula_units_Z 56
_cell_length_a 11.617557
_cell_length_b 17.946628
_cell_length_c 13.048577
_cell_angle_alpha 90.000000
_cell_angle_beta 90.000000
_cell_angle_gamma 90.000000
_cell_volume 2720.575768
_symmetry_space_group_name_H-M "C 2 2 2"
_symmetry_group_IT_number 21
_symmetry_cell_setting 'orthorhombic'
loop_
_space_group_symop_operation_xyz
x,y,z
-x,-y,z
x,-y,-z
-x,y,-z
1/2+x,1/2+y,z
1/2-x,1/2-y,z
1/2+x,1/2-y,-z
1/2-x,1/2+y,-z
loop_
_atom_site_type_symbol
_atom_site_label
_atom_site_fract_x
_atom_site_fract_y
_atom_site_fract_z
Si Si1 0.415350 0.190710 0.904489
Si Si2 0.126956 0.842751 0.456395
Si Si3 0.110004 0.315739 0.231088
Si Si4 0.157280 0.151146 0.160475
Si Si5 0.876110 0.325020 0.527552
Si Si6 0.452269 0.578716 0.264031
Si Si7 0.340285 0.637919 0.072603
O O1 0.482638 0.164018 0.803662
O O2 0.389280 0.279518 0.899218
O O3 0.296422 0.148380 0.920220
O O4 0.500000 0.177660 0.000000
O O5 0.123611 0.752762 0.464154
O O6 0.251171 0.862774 0.506993
O O7 0.125841 0.876892 0.343388
O O8 0.000000 0.866767 0.500000
O O9 0.136489 0.239820 0.168276
O O10 0.212947 0.368009 0.192488
O O11 0.121349 0.304893 0.351877
O O12 0.069368 0.122691 0.243922
O O13 0.130663 0.124224 0.046176
O O14 0.000000 0.362327 0.500000
O O15 0.500000 0.500000 0.300320
O O16 0.388227 0.579170 0.154140
#
# Coordination Sequence:
#
# PCOD9323812 Si02
#       7
#     8   8   8   8   8   8   8
#     4  11  18  33  56  96 125 158 189 244 316 381
#     4  10  21  40  57  85 122 154 207 249 313 376
#     4  11  19  33  60  89 128 151 192 240 321 381
#     4  11  19  35  57  85 120 163 193 245 302 373
#     4  10  21  34  59  94 124 156 188 263 325 376
#     4  12  26  40  58  83 118 168 213 257 297 353
#     4  11  22  33  56  90 130 158 201 249 306 374
#
# _framework density 20.583879
#
# number of rings (size 3 to 8) (size 9 to 14) (size 15 to 20)
#    0.000    1.143    4.286    5.571    2.000    2.571 
#    0.000    0.000    0.000    0.857    0.000    1.000 
#    0.000    0.000    0.000    0.000    0.000    0.000 
#
# Total GULP energy -156133.894841 kJ/mol
# GULP energy per Si atom -5576.210530 kJ/mol
# Density = 2.053703 g / cm^3
# Si number density = 20.583879 Si / 1000 Ang^3
#
#
#
# Elastic Constant Matrix: (Units=GPa)
#
#
# Indices 1 2 3 4 5 6 
#
# 1 165.6877 3.6740 36.8110 0.0000 0.0000 0.0000
# 2 3.6740 10.1068 18.8327 0.0000 0.0000 0.0000
# 3 36.8110 18.8327 126.5632 0.0000 0.0000 0.0000
# 4 0.0000 0.0000 0.0000 13.6629 0.0000 0.0000
# 5 0.0000 0.0000 0.0000 0.0000 46.0834 0.0000
# 6 0.0000 0.0000 0.0000 0.0000 0.0000 2.7750
#
#
#
# Elastic Compliance Matrix: (Units=1/GPa)
#
#
# Indices 1 2 3 4 5 6 
#
# 1 0.006471 0.001598 -0.002120 0.000000 0.000000 0.000000
# 2 0.001598 0.137298 -0.020895 0.000000 0.000000 0.000000
# 3 -0.002120 -0.020895 0.011627 0.000000 0.000000 0.000000
# 4 0.000000 0.000000 0.000000 0.073191 0.000000 0.000000
# 5 0.000000 0.000000 0.000000 0.000000 0.021700 0.000000
# 6 0.000000 0.000000 0.000000 0.000000 0.000000 0.360365
#
#
# Mechanical properties :
#
#
# Convention : Reuss Voigt Hill
#
# Bulk Modulus (GPa) = 8.88400 46.77701 27.83050
# Shear Modulus (GPa) = 7.23583 28.70691 17.97137
#
# Velocity S-wave (km/s) = 1.87694 3.73853 2.95800
# Velocity P-wave (km/s) = 3.00376 6.43505 5.02158
#
# Compressibility (1/GPa) = 0.11256195
#
# Stress axis : x y z
#
# Youngs Moduli (GPa) = 154.53581 7.28344 86.00737
#
# Poissons Ratio (x) = -0.01164 0.18232
# Poissons Ratio (y) = -0.24691 1.79710
# Poissons Ratio (z) = 0.32759 0.15219
#
# Static dielectric constant tensor:
#      x y z
#    x 1.829340 0.000000 0.000000 
#    y 0.000000 1.386090 0.000000 
#    z 0.000000 0.000000 1.756880 
# 
# From -- ./inp_files/24229.got.cif
#   From: 2010.05.17/outbox.cif.g08.bks.cpg/sg21_13_cif.got.tgz:24229.got - 2010.06.03 23:14:55.
