data_PCOD9323464
_publ_section_title
;
Structure prediction by ZEFSAII (Michael W. Deem and Ramdas Pophale) SiO2 
 PCOD9323464
Probable space group: C 2 2 2
;
_chemical_formula_sum "Si O2"
_cell_formula_units_Z 58
_cell_length_a 10.451667
_cell_length_b 10.356816
_cell_length_c 28.913165
_cell_angle_alpha 90.000000
_cell_angle_beta 90.000000
_cell_angle_gamma 90.000000
_cell_volume 3129.734228
_symmetry_space_group_name_H-M "C 2 2 2"
_symmetry_group_IT_number 21
_symmetry_cell_setting 'orthorhombic'
loop_
_space_group_symop_operation_xyz
x,y,z
-x,-y,z
x,-y,-z
-x,y,-z
1/2+x,1/2+y,z
1/2-x,1/2-y,z
1/2+x,1/2-y,-z
1/2-x,1/2+y,-z
loop_
_atom_site_type_symbol
_atom_site_label
_atom_site_fract_x
_atom_site_fract_y
_atom_site_fract_z
Si Si1 0.643573 0.855566 0.482266
Si Si2 0.144186 0.356356 0.371016
Si Si3 0.958097 0.267989 0.847015
Si Si4 0.386120 0.104843 0.768554
Si Si5 0.000000 0.000000 0.000000
Si Si6 0.768597 0.964059 0.160221
Si Si7 0.862929 0.845141 0.920629
Si Si8 0.856335 0.350597 0.337528
O O1 0.500000 0.823555 0.500000
O O2 0.750000 0.750000 0.496669
O O3 0.642429 0.860686 0.426626
O O4 0.674157 0.000000 0.500000
O O5 0.250000 0.250000 0.356441
O O6 0.172280 0.500748 0.352025
O O7 0.000407 0.321805 0.354799
O O8 0.874543 0.144847 0.832835
O O9 0.862919 0.389124 0.852040
O O10 0.060062 0.297592 0.807090
O O11 0.026633 0.234972 0.894755
O O12 0.359105 0.156844 0.718067
O O13 0.500000 0.000000 0.762523
O O14 0.264259 0.039621 0.792973
O O15 0.914861 0.915700 0.965476
O O16 0.812723 0.055275 0.118547
O O17 0.750000 0.750000 0.933142
O O18 0.750000 0.250000 0.355306
#
# Coordination Sequence:
#
# PCOD9323464 Si02
#       8
#     8   8   8   8   2   8   8   8
#     4  10  21  38  64  94 126 168 220 273 335 392
#     4  10  23  43  61  87 136 177 210 273 333 382
#     4  10  21  38  63  90 119 150 190 241 297 352
#     4  10  20  37  60  93 124 157 198 255 303 354
#     4  12  28  44  60  96 116 164 196 236 312 372
#     4  10  21  38  63  90 119 150 190 241 297 352
#     4  12  24  42  66  88 122 154 192 244 296 366
#     4  11  23  39  61  89 127 172 223 264 311 391
#
# _framework density 18.531925999999999
#
# number of rings (size 3 to 8) (size 9 to 14) (size 15 to 20)
#    0.000    1.517    4.138    1.655    1.931    5.241 
#    0.000    2.759    0.000    0.000    0.000    0.000 
#    0.000    0.000    0.000    0.000    0.000    0.000 
#
# Total GULP energy -161952.967098 kJ/mol
# GULP energy per Si atom -5584.585072 kJ/mol
# Density = 1.848975 g / cm^3
# Si number density = 18.531926 Si / 1000 Ang^3
#
#
#
# Elastic Constant Matrix: (Units=GPa)
#
#
# Indices 1 2 3 4 5 6 
#
# 1 97.4053 56.3380 21.0240 0.0000 0.0000 0.0000
# 2 56.3380 77.8038 16.1910 0.0000 0.0000 0.0000
# 3 21.0240 16.1910 77.3475 0.0000 0.0000 0.0000
# 4 0.0000 0.0000 0.0000 -5.6785 0.0000 0.0000
# 5 0.0000 0.0000 0.0000 0.0000 -15.3053 0.0000
# 6 0.0000 0.0000 0.0000 0.0000 0.0000 36.8230
#
#
#
# Elastic Compliance Matrix: (Units=1/GPa)
#
#
# Indices 1 2 3 4 5 6 
#
# 1 0.018037 -0.012589 -0.002267 0.000000 0.000000 0.000000
# 2 -0.012589 0.022225 -0.001230 0.000000 0.000000 0.000000
# 3 -0.002267 -0.001230 0.013803 0.000000 0.000000 0.000000
# 4 0.000000 0.000000 0.000000 -0.176103 0.000000 0.000000
# 5 0.000000 0.000000 0.000000 0.000000 -0.065337 0.000000
# 6 0.000000 0.000000 0.000000 0.000000 0.000000 0.027157
#
#
# Mechanical properties :
#
#
# Convention : Reuss Voigt Hill
#
# Bulk Modulus (GPa) = 45.68166 48.85142 47.26654
# Shear Modulus (GPa) = -41.40838 13.76809 -13.82015
#
# Velocity S-wave (km/s) = -4.73211 2.72865 -2.73380
# Velocity P-wave (km/s) = 2.27011 6.02870 3.94917
#
# Compressibility (1/GPa) = 0.02189063
#
# Stress axis : x y z
#
# Youngs Moduli (GPa) = 55.44155 44.99539 72.45037
#
# Poissons Ratio (x) = 0.56644 0.16428
# Poissons Ratio (y) = 0.69794 0.08914
# Poissons Ratio (z) = 0.12571 0.05536
#
# Static dielectric constant tensor:
#      x y z
#    x 1.649770 0.000000 0.000000 
#    y 0.000000 1.674450 0.000000 
#    z 0.000000 0.000000 1.602830 
# 
# From -- ./inp_files/39218.got.cif
#   From: 2010.05.17/outbox.cif.g08.bks.cpg/sg21_20_cif.got.tgz:39218.got - 2010.06.03 23:14:55.
