data_PCOD9323730
_publ_section_title
;
Structure prediction by ZEFSAII (Michael W. Deem and Ramdas Pophale) SiO2 
 PCOD9323730
Probable space group: C 2 2 2
;
_chemical_formula_sum "Si O2"
_cell_formula_units_Z 56
_cell_length_a 9.349692
_cell_length_b 20.434951
_cell_length_c 13.744630
_cell_angle_alpha 90.000000
_cell_angle_beta 90.000000
_cell_angle_gamma 90.000000
_cell_volume 2626.055851
_symmetry_space_group_name_H-M "C 2 2 2"
_symmetry_group_IT_number 21
_symmetry_cell_setting 'orthorhombic'
loop_
_space_group_symop_operation_xyz
x,y,z
-x,-y,z
x,-y,-z
-x,y,-z
1/2+x,1/2+y,z
1/2-x,1/2-y,z
1/2+x,1/2-y,-z
1/2-x,1/2+y,-z
loop_
_atom_site_type_symbol
_atom_site_label
_atom_site_fract_x
_atom_site_fract_y
_atom_site_fract_z
Si Si1 0.098115 0.869376 0.854092
Si Si2 0.320752 0.876626 0.234566
Si Si3 0.793013 0.825186 0.944318
Si Si4 0.276110 0.672732 0.645489
Si Si5 0.750000 0.250000 0.366287
Si Si6 0.075748 0.435677 0.353763
Si Si7 0.144238 0.003892 0.259218
Si Si8 0.500000 0.303431 0.500000
O O1 0.170447 0.838980 0.756785
O O2 0.943940 0.837667 0.885192
O O3 0.100282 0.946844 0.828496
O O4 0.190552 0.856789 0.950344
O O5 0.328976 0.855892 0.123123
O O6 0.280633 0.813380 0.299123
O O7 0.463171 0.910195 0.274470
O O8 0.198099 0.931451 0.238593
O O9 0.750000 0.750000 0.955221
O O10 0.250000 0.750000 0.637194
O O11 0.138674 0.632422 0.604696
O O12 0.406278 0.655106 0.574897
O O13 0.612400 0.263568 0.433718
O O14 0.222327 0.463180 0.310685
O O15 0.000000 0.500000 0.399539
O O16 0.000000 0.000000 0.321311
#
# Coordination Sequence:
#
# PCOD9323730 Si02
#       8
#     8   8   8   8   4   8   8   4
#     4  10  23  41  64  99 142 188 245 288 361 421
#     4  11  22  41  71 101 145 182 237 293 369 426
#     4  11  22  38  62 105 143 191 235 288 352 433
#     4  11  22  42  68 102 137 186 233 305 364 444
#     4  12  26  44  70 110 144 188 238 320 364 456
#     4   9  22  41  69 100 139 188 235 299 377 433
#     4  10  20  41  68  98 131 196 242 292 352 446
#     4  12  26  42  68 107 139 184 248 296 388 446
#
# _framework density 21.324757999999999
#
# number of rings (size 3 to 8) (size 9 to 14) (size 15 to 20)
#    0.000    1.429    2.857    2.143    4.000    0.571 
#    2.571    0.000    0.000   24.857    0.000    0.000 
#    0.000    0.000    0.000    0.000    0.000    0.000 
#
# Total GULP energy -156012.851968 kJ/mol
# GULP energy per Si atom -5571.887570 kJ/mol
# Density = 2.127622 g / cm^3
# Si number density = 21.324758 Si / 1000 Ang^3
#
#
#
# Elastic Constant Matrix: (Units=GPa)
#
#
# Indices 1 2 3 4 5 6 
#
# 1 129.8299 46.9676 46.6503 0.0000 0.0000 0.0000
# 2 46.9676 135.0823 25.3513 0.0000 0.0000 0.0000
# 3 46.6503 25.3513 105.1892 0.0000 0.0000 0.0000
# 4 0.0000 0.0000 0.0000 -147.4494 0.0000 0.0000
# 5 0.0000 0.0000 0.0000 0.0000 21.5599 0.0000
# 6 0.0000 0.0000 0.0000 0.0000 0.0000 46.1196
#
#
#
# Elastic Compliance Matrix: (Units=1/GPa)
#
#
# Indices 1 2 3 4 5 6 
#
# 1 0.010076 -0.002791 -0.003796 0.000000 0.000000 0.000000
# 2 -0.002791 0.008527 -0.000817 0.000000 0.000000 0.000000
# 3 -0.003796 -0.000817 0.011387 0.000000 0.000000 0.000000
# 4 0.000000 0.000000 0.000000 -0.006782 0.000000 0.000000
# 5 0.000000 0.000000 0.000000 0.000000 0.046382 0.000000
# 6 0.000000 0.000000 0.000000 0.000000 0.000000 0.021683
#
#
# Mechanical properties :
#
#
# Convention : Reuss Voigt Hill
#
# Bulk Modulus (GPa) = 65.86977 67.55997 66.71487
# Shear Modulus (GPa) = 44.98756 0.78815 22.88786
#
# Velocity S-wave (km/s) = 4.59806 0.60860 3.27968
# Velocity P-wave (km/s) = 7.69061 5.67839 6.75979
#
# Compressibility (1/GPa) = 0.01518147
#
# Stress axis : x y z
#
# Youngs Moduli (GPa) = 99.24546 117.27897 87.81865
#
# Poissons Ratio (x) = 0.32732 0.33336
# Poissons Ratio (y) = 0.27699 0.07177
# Poissons Ratio (z) = 0.37673 0.09584
#
# Static dielectric constant tensor:
#      x y z
#    x 1.851470 0.000000 0.000000 
#    y 0.000000 1.964880 0.000000 
#    z 0.000000 0.000000 1.758580 
# 
# From -- ./inp_files/30792.got.cif
#   From: 2010.05.17/outbox.cif.g08.bks.cpg/sg21_16_cif.got.tgz:30792.got - 2010.06.03 23:14:55.
