data_PCOD9323994
_publ_section_title
;
Structure prediction by ZEFSAII (Michael W. Deem and Ramdas Pophale) SiO2 
 PCOD9323994
Probable space group: C 2 2 2
;
_chemical_formula_sum "Si O2"
_cell_formula_units_Z 32
_cell_length_a 13.986393
_cell_length_b 7.212286
_cell_length_c 11.787005
_cell_angle_alpha 90.000000
_cell_angle_beta 90.000000
_cell_angle_gamma 90.000000
_cell_volume 1189.000768
_symmetry_space_group_name_H-M "C 2 2 2"
_symmetry_group_IT_number 21
_symmetry_cell_setting 'orthorhombic'
loop_
_space_group_symop_operation_xyz
x,y,z
-x,-y,z
x,-y,-z
-x,y,-z
1/2+x,1/2+y,z
1/2-x,1/2-y,z
1/2+x,1/2-y,-z
1/2-x,1/2+y,-z
loop_
_atom_site_type_symbol
_atom_site_label
_atom_site_fract_x
_atom_site_fract_y
_atom_site_fract_z
Si Si1 0.611556 0.153276 0.160661
Si Si2 0.392061 0.779253 0.532985
Si Si3 0.750000 0.750000 0.044249
Si Si4 0.410360 0.723963 0.798704
Si Si5 0.250000 0.750000 0.358101
O O1 0.525248 0.302527 0.180961
O O2 0.678758 0.155584 0.270514
O O3 0.588340 0.936352 0.157686
O O4 0.670116 0.190436 0.047244
O O5 0.500000 0.741024 0.500000
O O6 0.383790 0.731901 0.665831
O O7 0.324503 0.668840 0.447974
O O8 0.376413 0.000000 0.500000
O O9 0.678997 0.636113 0.131012
#
# Coordination Sequence:
#
# PCOD9323994 Si02
#       5
#     8   8   4   8   4
#     4  10  21  38  62  85 115 154 201 251 284 339
#     4  11  19  35  61  92 117 147 197 247 291 346
#     4  11  23  32  58  92 113 151 190 248 294 347
#     4  11  20  40  60  89 116 152 203 245 296 335
#     4  11  19  34  60  92 117 153 196 242 296 355
#
# _framework density 26.913356
#
# number of rings (size 3 to 8) (size 9 to 14) (size 15 to 20)
#    0.000    1.250    5.000    3.750    0.000    2.000 
#    0.000    0.000    0.000   29.250    0.000    0.000 
#    0.000    0.000    0.000    0.000    0.000    0.000 
#
# Total GULP energy -89155.394709 kJ/mol
# GULP energy per Si atom -5572.212169 kJ/mol
# Density = 2.685210 g / cm^3
# Si number density = 26.913356 Si / 1000 Ang^3
#
#
#
# Elastic Constant Matrix: (Units=GPa)
#
#
# Indices 1 2 3 4 5 6 
#
# 1 170.2971 12.9051 84.0540 0.0000 0.0000 0.0000
# 2 12.9051 51.9157 16.4276 0.0000 0.0000 0.0000
# 3 84.0540 16.4276 285.2535 0.0000 0.0000 0.0000
# 4 0.0000 0.0000 0.0000 14.8729 0.0000 0.0000
# 5 0.0000 0.0000 0.0000 0.0000 40.1982 0.0000
# 6 0.0000 0.0000 0.0000 0.0000 0.0000 13.7906
#
#
#
# Elastic Compliance Matrix: (Units=1/GPa)
#
#
# Indices 1 2 3 4 5 6 
#
# 1 0.006932 -0.001097 -0.001980 0.000000 0.000000 0.000000
# 2 -0.001097 0.019793 -0.000817 0.000000 0.000000 0.000000
# 3 -0.001980 -0.000817 0.004136 0.000000 0.000000 0.000000
# 4 0.000000 0.000000 0.000000 0.067236 0.000000 0.000000
# 5 0.000000 0.000000 0.000000 0.000000 0.024877 0.000000
# 6 0.000000 0.000000 0.000000 0.000000 0.000000 0.072513
#
#
# Mechanical properties :
#
#
# Convention : Reuss Voigt Hill
#
# Bulk Modulus (GPa) = 43.33651 81.58221 62.45936
# Shear Modulus (GPa) = 23.70055 40.04430 31.87243
#
# Velocity S-wave (km/s) = 2.97075 3.86151 3.44504
# Velocity P-wave (km/s) = 5.28246 7.08946 6.25159
#
# Compressibility (1/GPa) = 0.02307523
#
# Stress axis : x y z
#
# Youngs Moduli (GPa) = 144.25343 50.52277 241.78067
#
# Poissons Ratio (x) = 0.05541 0.47861
# Poissons Ratio (y) = 0.15822 0.19746
# Poissons Ratio (z) = 0.28555 0.04126
#
# Static dielectric constant tensor:
#      x y z
#    x 2.635160 0.000000 0.000000 
#    y 0.000000 2.418150 0.000000 
#    z 0.000000 0.000000 2.013270 
# 
# From -- ./inp_files/24715.got.cif
#   From: 2010.05.17/outbox.cif.g08.bks.cpg/sg21_13_cif.got.tgz:24715.got - 2010.06.03 23:14:55.
