data_PCOD9323850
_publ_section_title
;
Structure prediction by ZEFSAII (Michael W. Deem and Ramdas Pophale) SiO2 
 PCOD9323850
Probable space group: C 2 2 2
;
_chemical_formula_sum "Si O2"
_cell_formula_units_Z 32
_cell_length_a 19.912214
_cell_length_b 5.208530
_cell_length_c 13.407957
_cell_angle_alpha 90.000000
_cell_angle_beta 90.000000
_cell_angle_gamma 90.000000
_cell_volume 1390.584325
_symmetry_space_group_name_H-M "C 2 2 2"
_symmetry_group_IT_number 21
_symmetry_cell_setting 'orthorhombic'
loop_
_space_group_symop_operation_xyz
x,y,z
-x,-y,z
x,-y,-z
-x,y,-z
1/2+x,1/2+y,z
1/2-x,1/2-y,z
1/2+x,1/2-y,-z
1/2-x,1/2+y,-z
loop_
_atom_site_type_symbol
_atom_site_label
_atom_site_fract_x
_atom_site_fract_y
_atom_site_fract_z
Si Si1 0.250000 0.250000 0.655267
Si Si2 0.390909 0.015562 0.612470
Si Si3 0.656973 0.601340 0.225991
Si Si4 0.042326 0.253542 0.791588
Si Si5 0.250000 0.250000 0.066111
O O1 0.316817 0.147115 0.601707
O O2 0.278585 0.477679 0.721825
O O3 0.442139 0.187439 0.675746
O O4 0.415369 0.000000 0.500000
O O5 0.380074 0.769604 0.687337
O O6 0.615837 0.358289 0.180564
O O7 0.683805 0.770381 0.135726
O O8 0.000000 0.500000 0.830883
O O9 0.000000 0.000000 0.808039
O O10 0.256549 0.500000 0.000000
#
# Coordination Sequence:
#
# PCOD9323850 Si02
#       5
#     4   8   8   8   4
#     4  10  21  35  66  92 142 178 223 277 354 412
#     4  11  24  39  66  99 140 193 237 286 346 416
#     4  11  23  45  68 102 145 179 234 291 356 434
#     4  11  24  45  68  98 137 196 238 288 339 407
#     4  12  27  43  78 114 140 176 223 299 378 440
#
# _framework density 23.011908999999999
#
# number of rings (size 3 to 8) (size 9 to 14) (size 15 to 20)
#    0.000    1.000    5.000    0.750    7.000    3.500 
#    4.500    0.000    0.000    0.750    6.500    0.000 
#    0.000    0.000    0.000    0.000    0.000    0.000 
#
# Total GULP energy -89147.006560 kJ/mol
# GULP energy per Si atom -5571.687910 kJ/mol
# Density = 2.295953 g / cm^3
# Si number density = 23.011909 Si / 1000 Ang^3
#
#
#
# Elastic Constant Matrix: (Units=GPa)
#
#
# Indices 1 2 3 4 5 6 
#
# 1 47.4435 16.9625 8.0392 0.0000 0.0000 0.0000
# 2 16.9625 150.9132 37.6588 0.0000 0.0000 0.0000
# 3 8.0392 37.6588 56.5264 0.0000 0.0000 0.0000
# 4 0.0000 0.0000 0.0000 28.1678 0.0000 0.0000
# 5 0.0000 0.0000 0.0000 0.0000 -3.1716 0.0000
# 6 0.0000 0.0000 0.0000 0.0000 0.0000 55.0775
#
#
#
# Elastic Compliance Matrix: (Units=1/GPa)
#
#
# Indices 1 2 3 4 5 6 
#
# 1 0.022109 -0.002039 -0.001786 0.000000 0.000000 0.000000
# 2 -0.002039 0.008136 -0.005130 0.000000 0.000000 0.000000
# 3 -0.001786 -0.005130 0.021363 0.000000 0.000000 0.000000
# 4 0.000000 0.000000 0.000000 0.035502 0.000000 0.000000
# 5 0.000000 0.000000 0.000000 0.000000 -0.315301 0.000000
# 6 0.000000 0.000000 0.000000 0.000000 0.000000 0.018156
#
#
# Mechanical properties :
#
#
# Convention : Reuss Voigt Hill
#
# Bulk Modulus (GPa) = 29.67603 42.24491 35.96047
# Shear Modulus (GPa) = -27.64078 28.82957 0.59439
#
# Velocity S-wave (km/s) = -3.46952 3.54335 0.50878
# Velocity P-wave (km/s) = 1.76810 5.92774 4.00075
#
# Compressibility (1/GPa) = 0.03369723
#
# Stress axis : x y z
#
# Youngs Moduli (GPa) = 45.22949 122.91470 46.81084
#
# Poissons Ratio (x) = 0.25068 0.08359
# Poissons Ratio (y) = 0.09224 0.24014
# Poissons Ratio (z) = 0.08077 0.63056
#
# Static dielectric constant tensor:
#      x y z
#    x 2.049460 0.000000 0.000000 
#    y 0.000000 1.935000 0.000000 
#    z 0.000000 0.000000 1.848830 
# 
# From -- ./inp_files/33051.got.cif
#   From: 2010.05.17/outbox.cif.g08.bks.cpg/sg21_17_cif.got.tgz:33051.got - 2010.06.03 23:14:55.
