data_PCOD9323107
_publ_section_title
;
Structure prediction by ZEFSAII (Michael W. Deem and Ramdas Pophale) SiO2 
 PCOD9323107
Probable space group: C 2 2 2
;
_chemical_formula_sum "Si O2"
_cell_formula_units_Z 40
_cell_length_a 11.248966
_cell_length_b 9.135800
_cell_length_c 18.279432
_cell_angle_alpha 90.000000
_cell_angle_beta 90.000000
_cell_angle_gamma 90.000000
_cell_volume 1878.546217
_symmetry_space_group_name_H-M "C 2 2 2"
_symmetry_group_IT_number 21
_symmetry_cell_setting 'orthorhombic'
loop_
_space_group_symop_operation_xyz
x,y,z
-x,-y,z
x,-y,-z
-x,y,-z
1/2+x,1/2+y,z
1/2-x,1/2-y,z
1/2+x,1/2-y,-z
1/2-x,1/2+y,-z
loop_
_atom_site_type_symbol
_atom_site_label
_atom_site_fract_x
_atom_site_fract_y
_atom_site_fract_z
Si Si1 0.505725 0.830920 0.816527
Si Si2 0.132522 0.063539 0.836201
Si Si3 0.637318 0.354858 0.706334
Si Si4 0.126036 0.840788 0.534419
Si Si5 0.183929 0.390984 0.061053
O O1 0.620821 0.739103 0.840463
O O2 0.463194 0.734621 0.748624
O O3 0.415256 0.829500 0.884424
O O4 0.500000 0.000000 0.794590
O O5 0.158146 0.001145 0.754092
O O6 0.224426 0.984685 0.889683
O O7 0.000000 0.000000 0.854861
O O8 0.750000 0.250000 0.714122
O O9 0.609885 0.367136 0.621245
O O10 0.250000 0.750000 0.523823
O O11 0.000000 0.781629 0.500000
O O12 0.144066 0.000000 0.500000
O O13 0.250000 0.250000 0.028627
O O14 0.136788 0.500000 0.000000
#
# Coordination Sequence:
#
# PCOD9323107 Si02
#       5
#     8   8   8   8   8
#     4  11  24  41  64 101 128 166 234 293 348 426
#     4  10  20  41  71  89 121 177 232 271 352 422
#     4  10  19  45  72  92 135 183 229 291 341 443
#     4  10  24  44  71 109 151 191 240 297 374 436
#     4  12  25  45  64  93 136 178 230 296 359 424
#
# _framework density 21.293061000000002
#
# number of rings (size 3 to 8) (size 9 to 14) (size 15 to 20)
#    0.000    1.400    6.000    0.000   11.200    1.200 
#    7.200    0.000    0.000    0.000    0.000    0.000 
#    0.000    0.000    0.000    0.000    0.000    0.000 
#
# Total GULP energy -111616.648862 kJ/mol
# GULP energy per Si atom -5580.832443 kJ/mol
# Density = 2.124460 g / cm^3
# Si number density = 21.293061 Si / 1000 Ang^3
#
#
#
# Elastic Constant Matrix: (Units=GPa)
#
#
# Indices 1 2 3 4 5 6 
#
# 1 129.1680 42.6233 51.6422 0.0000 0.0000 0.0000
# 2 42.6233 155.6558 48.5178 0.0000 0.0000 0.0000
# 3 51.6422 48.5178 113.6128 0.0000 0.0000 0.0000
# 4 0.0000 0.0000 0.0000 -4.2169 0.0000 0.0000
# 5 0.0000 0.0000 0.0000 0.0000 21.9441 0.0000
# 6 0.0000 0.0000 0.0000 0.0000 0.0000 38.7176
#
#
#
# Elastic Compliance Matrix: (Units=1/GPa)
#
#
# Indices 1 2 3 4 5 6 
#
# 1 0.009751 -0.001486 -0.003797 0.000000 0.000000 0.000000
# 2 -0.001486 0.007637 -0.002586 0.000000 0.000000 0.000000
# 3 -0.003797 -0.002586 0.011632 0.000000 0.000000 0.000000
# 4 0.000000 0.000000 0.000000 -0.237138 0.000000 0.000000
# 5 0.000000 0.000000 0.000000 0.000000 0.045570 0.000000
# 6 0.000000 0.000000 0.000000 0.000000 0.000000 0.025828
#
#
# Mechanical properties :
#
#
# Convention : Reuss Voigt Hill
#
# Bulk Modulus (GPa) = 75.29569 76.00035 75.64802
# Shear Modulus (GPa) = -42.89867 28.33252 -7.28307
#
# Velocity S-wave (km/s) = -4.49339 3.65169 -1.85144
# Velocity P-wave (km/s) = 2.91851 7.31778 5.57080
#
# Compressibility (1/GPa) = 0.01328097
#
# Stress axis : x y z
#
# Youngs Moduli (GPa) = 102.55861 130.93330 85.96847
#
# Poissons Ratio (x) = 0.19462 0.32645
# Poissons Ratio (y) = 0.15244 0.22231
# Poissons Ratio (z) = 0.38945 0.33858
#
# Static dielectric constant tensor:
#      x y z
#    x 1.876960 0.000000 0.000000 
#    y 0.000000 1.828240 0.000000 
#    z 0.000000 0.000000 1.753740 
# 
# From -- ./inp_files/35479.got.cif
#   From: 2010.05.17/outbox.cif.g08.bks.cpg/sg21_18_cif.got.tgz:35479.got - 2010.06.03 23:14:55.
