data_PCOD9323473
_publ_section_title
;
Structure prediction by ZEFSAII (Michael W. Deem and Ramdas Pophale) SiO2 
 PCOD9323473
Probable space group: C 2 2 2
;
_chemical_formula_sum "Si O2"
_cell_formula_units_Z 40
_cell_length_a 15.055500
_cell_length_b 8.325118
_cell_length_c 15.183355
_cell_angle_alpha 90.000000
_cell_angle_beta 90.000000
_cell_angle_gamma 90.000000
_cell_volume 1903.063709
_symmetry_space_group_name_H-M "C 2 2 2"
_symmetry_group_IT_number 21
_symmetry_cell_setting 'orthorhombic'
loop_
_space_group_symop_operation_xyz
x,y,z
-x,-y,z
x,-y,-z
-x,y,-z
1/2+x,1/2+y,z
1/2-x,1/2-y,z
1/2+x,1/2-y,-z
1/2-x,1/2+y,-z
loop_
_atom_site_type_symbol
_atom_site_label
_atom_site_fract_x
_atom_site_fract_y
_atom_site_fract_z
Si Si1 0.398475 0.561616 0.244010
Si Si2 0.243477 0.057285 0.900358
Si Si3 0.596138 0.077573 0.587045
Si Si4 0.601571 0.947450 0.770828
Si Si5 0.671553 0.387705 0.584639
O O1 0.500000 0.500000 0.242671
O O2 0.342116 0.510093 0.157939
O O3 0.397507 0.755680 0.244620
O O4 0.346437 0.491682 0.328566
O O5 0.250000 0.250000 0.900681
O O6 0.332406 0.003510 0.849001
O O7 0.238540 0.000000 0.000000
O O8 0.588351 0.266864 0.576859
O O9 0.500000 0.000000 0.592455
O O10 0.638489 0.000000 0.500000
O O11 0.636402 0.029286 0.680824
O O12 0.500000 0.000000 0.787674
O O13 0.676758 0.500000 0.500000
O O14 0.750000 0.250000 0.588048
#
# Coordination Sequence:
#
# PCOD9323473 Si02
#       5
#     8   8   8   8   8
#     4  11  24  42  66  98 130 169 220 274 329 391
#     4  10  24  43  65  91 126 168 215 271 332 398
#     4  10  20  37  61  89 125 168 208 259 316 375
#     4  10  21  41  66  96 133 173 216 271 333 396
#     4  12  26  42  64  95 131 175 220 267 323 390
#
# _framework density 21.018740000000001
#
# number of rings (size 3 to 8) (size 9 to 14) (size 15 to 20)
#    0.000    1.400    0.000    5.400    0.000    9.200 
#    0.000    4.000    0.000    0.000    0.000    0.000 
#    0.000    0.000    0.000    0.000    0.000    0.000 
#
# Total GULP energy -111701.261332 kJ/mol
# GULP energy per Si atom -5585.063067 kJ/mol
# Density = 2.097090 g / cm^3
# Si number density = 21.018740 Si / 1000 Ang^3
#
#
#
# Elastic Constant Matrix: (Units=GPa)
#
#
# Indices 1 2 3 4 5 6 
#
# 1 142.4655 49.9758 87.1090 0.0000 0.0000 0.0000
# 2 49.9758 104.5057 58.7590 0.0000 0.0000 0.0000
# 3 87.1090 58.7590 229.8612 0.0000 0.0000 0.0000
# 4 0.0000 0.0000 0.0000 43.1907 0.0000 0.0000
# 5 0.0000 0.0000 0.0000 0.0000 -66.1284 0.0000
# 6 0.0000 0.0000 0.0000 0.0000 0.0000 33.9532
#
#
#
# Elastic Compliance Matrix: (Units=1/GPa)
#
#
# Indices 1 2 3 4 5 6 
#
# 1 0.009913 -0.003070 -0.002972 0.000000 0.000000 0.000000
# 2 -0.003070 0.012125 -0.001936 0.000000 0.000000 0.000000
# 3 -0.002972 -0.001936 0.005972 0.000000 0.000000 0.000000
# 4 0.000000 0.000000 0.000000 0.023153 0.000000 0.000000
# 5 0.000000 0.000000 0.000000 0.000000 -0.015122 0.000000
# 6 0.000000 0.000000 0.000000 0.000000 0.000000 0.029452
#
#
# Mechanical properties :
#
#
# Convention : Reuss Voigt Hill
#
# Bulk Modulus (GPa) = 82.95678 96.50222 89.72950
# Shear Modulus (GPa) = 58.50132 20.93565 39.71848
#
# Velocity S-wave (km/s) = 5.28142 3.15944 4.35175
# Velocity P-wave (km/s) = 8.76041 7.70205 8.24822
#
# Compressibility (1/GPa) = 0.01205447
#
# Stress axis : x y z
#
# Youngs Moduli (GPa) = 100.87467 82.47089 167.45473
#
# Poissons Ratio (x) = 0.25315 0.49769
# Poissons Ratio (y) = 0.30964 0.32425
# Poissons Ratio (z) = 0.29981 0.15969
#
# Static dielectric constant tensor:
#      x y z
#    x 1.921680 0.000000 0.000000 
#    y 0.000000 1.788770 0.000000 
#    z 0.000000 0.000000 1.760890 
# 
# From -- ./inp_files/32098.got.cif
#   From: 2010.05.17/outbox.cif.g08.bks.cpg/sg21_17_cif.got.tgz:32098.got - 2010.06.03 23:14:55.
