data_PCOD9323308
_publ_section_title
;
Structure prediction by ZEFSAII (Michael W. Deem and Ramdas Pophale) SiO2 
 PCOD9323308
Probable space group: C 2 2 2
;
_chemical_formula_sum "Si O2"
_cell_formula_units_Z 40
_cell_length_a 12.046262
_cell_length_b 27.159921
_cell_length_c 5.858997
_cell_angle_alpha 90.000000
_cell_angle_beta 90.000000
_cell_angle_gamma 90.000000
_cell_volume 1916.920415
_symmetry_space_group_name_H-M "C 2 2 2"
_symmetry_group_IT_number 21
_symmetry_cell_setting 'orthorhombic'
loop_
_space_group_symop_operation_xyz
x,y,z
-x,-y,z
x,-y,-z
-x,y,-z
1/2+x,1/2+y,z
1/2-x,1/2-y,z
1/2+x,1/2-y,-z
1/2-x,1/2+y,-z
loop_
_atom_site_type_symbol
_atom_site_label
_atom_site_fract_x
_atom_site_fract_y
_atom_site_fract_z
Si Si1 0.209089 0.589667 0.751506
Si Si2 0.804299 0.838710 0.639708
Si Si3 0.724845 0.500000 0.500000
Si Si4 0.877543 0.677637 0.037434
Si Si5 0.390802 0.572088 0.139837
Si Si6 0.750000 0.250000 0.623155
O O1 0.264999 0.625449 0.564066
O O2 0.195932 0.537919 0.630481
O O3 0.112190 0.623203 0.850748
O O4 0.292339 0.577654 0.957669
O O5 0.898815 0.872411 0.755883
O O6 0.826651 0.785318 0.533204
O O7 0.703191 0.829148 0.818798
O O8 0.646835 0.467832 0.329192
O O9 0.818459 0.713979 0.214390
O O10 0.000000 0.697094 0.000000
O O11 0.500000 0.558739 0.000000
#
# Coordination Sequence:
#
# PCOD9323308 Si02
#       6
#     8   8   4   8   8   4
#     4   9  20  36  57  83 116 154 197 248 299 354
#     4   9  20  39  57  82 121 155 194 249 301 353
#     4  10  20  35  58  85 122 162 202 251 300 361
#     4  10  21  40  63  85 116 157 198 245 302 364
#     4  10  21  37  58  87 123 163 203 247 304 366
#     4  10  20  38  60  88 118 154 202 248 300 362
#
# _framework density 20.866803000000001
#
# number of rings (size 3 to 8) (size 9 to 14) (size 15 to 20)
#    0.000    2.400    0.000    1.200    0.000    8.800 
#    0.000   24.000    0.000   36.000    0.000    0.000 
#    0.000    0.000    0.000    0.000    0.000    0.000 
#
# Total GULP energy -111456.877721 kJ/mol
# GULP energy per Si atom -5572.843886 kJ/mol
# Density = 2.081931 g / cm^3
# Si number density = 20.866803 Si / 1000 Ang^3
#
#
#
# Elastic Constant Matrix: (Units=GPa)
#
#
# Indices 1 2 3 4 5 6 
#
# 1 39.3315 28.1536 16.0353 0.0000 0.0000 0.0000
# 2 28.1536 156.0310 61.8451 0.0000 0.0000 0.0000
# 3 16.0353 61.8451 103.9390 0.0000 0.0000 0.0000
# 4 0.0000 0.0000 0.0000 55.2001 0.0000 0.0000
# 5 0.0000 0.0000 0.0000 0.0000 15.5082 0.0000
# 6 0.0000 0.0000 0.0000 0.0000 0.0000 14.3199
#
#
#
# Elastic Compliance Matrix: (Units=1/GPa)
#
#
# Indices 1 2 3 4 5 6 
#
# 1 0.029453 -0.004598 -0.001808 0.000000 0.000000 0.000000
# 2 -0.004598 0.009105 -0.004708 0.000000 0.000000 0.000000
# 3 -0.001808 -0.004708 0.012701 0.000000 0.000000 0.000000
# 4 0.000000 0.000000 0.000000 0.018116 0.000000 0.000000
# 5 0.000000 0.000000 0.000000 0.000000 0.064482 0.000000
# 6 0.000000 0.000000 0.000000 0.000000 0.000000 0.069833
#
#
# Mechanical properties :
#
#
# Convention : Reuss Voigt Hill
#
# Bulk Modulus (GPa) = 34.44572 56.81882 45.63227
# Shear Modulus (GPa) = 21.22288 29.89015 25.55651
#
# Velocity S-wave (km/s) = 3.19260 3.78885 3.50343
# Velocity P-wave (km/s) = 5.48940 6.81387 6.18718
#
# Compressibility (1/GPa) = 0.02903118
#
# Stress axis : x y z
#
# Youngs Moduli (GPa) = 33.95225 109.83351 78.73160
#
# Poissons Ratio (x) = 0.50498 0.14236
# Poissons Ratio (y) = 0.15610 0.37068
# Poissons Ratio (z) = 0.06139 0.51711
#
# Static dielectric constant tensor:
#      x y z
#    x 1.692250 0.000000 0.000000 
#    y 0.000000 1.802460 0.000000 
#    z 0.000000 0.000000 1.814940 
# 
# From -- ./inp_files/2853.got.cif
#   From: 2010.05.17/outbox.cif.g08.bks.cpg/sg21_2_cif.got.tgz:2853.got - 2010.06.03 23:14:55.
