data_PCOD9323958
_publ_section_title
;
Structure prediction by ZEFSAII (Michael W. Deem and Ramdas Pophale) SiO2 
 PCOD9323958
Probable space group: C 2 2 2
;
_chemical_formula_sum "Si O2"
_cell_formula_units_Z 40
_cell_length_a 10.223979
_cell_length_b 24.226904
_cell_length_c 8.386267
_cell_angle_alpha 90.000000
_cell_angle_beta 90.000000
_cell_angle_gamma 90.000000
_cell_volume 2077.239405
_symmetry_space_group_name_H-M "C 2 2 2"
_symmetry_group_IT_number 21
_symmetry_cell_setting 'orthorhombic'
loop_
_space_group_symop_operation_xyz
x,y,z
-x,-y,z
x,-y,-z
-x,y,-z
1/2+x,1/2+y,z
1/2-x,1/2-y,z
1/2+x,1/2-y,-z
1/2-x,1/2+y,-z
loop_
_atom_site_type_symbol
_atom_site_label
_atom_site_fract_x
_atom_site_fract_y
_atom_site_fract_z
Si Si1 0.335476 0.565153 0.836529
Si Si2 0.399209 0.139797 0.271036
Si Si3 0.816672 0.357088 0.381972
Si Si4 0.872512 0.065763 0.210341
Si Si5 0.000000 0.277330 0.000000
Si Si6 0.750000 0.750000 0.823314
O O1 0.203289 0.593047 0.777602
O O2 0.344016 0.499970 0.795188
O O3 0.476244 0.583242 0.767588
O O4 0.339372 0.579049 0.025483
O O5 0.544520 0.120150 0.317476
O O6 0.338392 0.161766 0.436586
O O7 0.427816 0.183917 0.131675
O O8 0.712149 0.404044 0.343339
O O9 0.776393 0.303947 0.280705
O O10 0.117344 0.242581 0.923898
#
# Coordination Sequence:
#
# PCOD9323958 Si02
#       6
#     8   8   8   8   4   4
#     4   9  18  35  58  82 113 151 188 229 276 340
#     4  10  21  38  58  81 113 147 186 234 285 341
#     4  10  22  38  55  82 116 146 184 237 289 335
#     4   9  19  35  56  84 114 148 191 231 277 335
#     4  10  22  40  62  85 108 149 198 234 278 346
#     4  10  22  40  60  82 112 146 188 240 284 336
#
# _framework density 19.256326999999999
#
# number of rings (size 3 to 8) (size 9 to 14) (size 15 to 20)
#    0.000    2.400    0.000    3.600    0.000    6.400 
#    0.000   12.000    0.000    0.000    0.000    0.000 
#    0.000    0.000    0.000    0.000    0.000    0.000 
#
# Total GULP energy -111386.000993 kJ/mol
# GULP energy per Si atom -5569.300050 kJ/mol
# Density = 1.921250 g / cm^3
# Si number density = 19.256327 Si / 1000 Ang^3
#
#
#
# Elastic Constant Matrix: (Units=GPa)
#
#
# Indices 1 2 3 4 5 6 
#
# 1 140.0348 51.7385 67.7959 0.0000 0.0000 0.0000
# 2 51.7385 28.7998 26.3621 0.0000 0.0000 0.0000
# 3 67.7959 26.3621 87.6668 0.0000 0.0000 0.0000
# 4 0.0000 0.0000 0.0000 14.5839 0.0000 0.0000
# 5 0.0000 0.0000 0.0000 0.0000 31.8354 0.0000
# 6 0.0000 0.0000 0.0000 0.0000 0.0000 38.0972
#
#
#
# Elastic Compliance Matrix: (Units=1/GPa)
#
#
# Indices 1 2 3 4 5 6 
#
# 1 0.024683 -0.037075 -0.007939 0.000000 0.000000 0.000000
# 2 -0.037075 0.103599 -0.002481 0.000000 0.000000 0.000000
# 3 -0.007939 -0.002481 0.018293 0.000000 0.000000 0.000000
# 4 0.000000 0.000000 0.000000 0.068569 0.000000 0.000000
# 5 0.000000 0.000000 0.000000 0.000000 0.031412 0.000000
# 6 0.000000 0.000000 0.000000 0.000000 0.000000 0.026249
#
#
# Mechanical properties :
#
#
# Convention : Reuss Voigt Hill
#
# Bulk Modulus (GPa) = 19.38632 60.92160 40.15396
# Shear Modulus (GPa) = 12.98733 24.27696 18.63215
#
# Velocity S-wave (km/s) = 2.59983 3.55452 3.11398
# Velocity P-wave (km/s) = 4.37052 6.96793 5.81608
#
# Compressibility (1/GPa) = 0.05158277
#
# Stress axis : x y z
#
# Youngs Moduli (GPa) = 40.51372 9.65258 54.66608
#
# Poissons Ratio (x) = 0.35787 0.43402
# Poissons Ratio (y) = 1.50206 0.13565
# Poissons Ratio (z) = 0.32166 0.02395
#
# Static dielectric constant tensor:
#      x y z
#    x 1.580550 0.000000 0.000000 
#    y 0.000000 1.649690 0.000000 
#    z 0.000000 0.000000 1.713260 
# 
# From -- ./inp_files/11227.got.cif
#   From: 2010.05.17/outbox.cif.g08.bks.cpg/sg21_6_cif.got.tgz:11227.got - 2010.06.03 23:14:55.
