data_PCOD9323537
_publ_section_title
;
Structure prediction by ZEFSAII (Michael W. Deem and Ramdas Pophale) SiO2 
 PCOD9323537
Probable space group: C 2 2 2
;
_chemical_formula_sum "Si O2"
_cell_formula_units_Z 64
_cell_length_a 30.325501
_cell_length_b 7.458898
_cell_length_c 11.467564
_cell_angle_alpha 90.000000
_cell_angle_beta 90.000000
_cell_angle_gamma 90.000000
_cell_volume 2593.903561
_symmetry_space_group_name_H-M "C 2 2 2"
_symmetry_group_IT_number 21
_symmetry_cell_setting 'orthorhombic'
loop_
_space_group_symop_operation_xyz
x,y,z
-x,-y,z
x,-y,-z
-x,y,-z
1/2+x,1/2+y,z
1/2-x,1/2-y,z
1/2+x,1/2-y,-z
1/2-x,1/2+y,-z
loop_
_atom_site_type_symbol
_atom_site_label
_atom_site_fract_x
_atom_site_fract_y
_atom_site_fract_z
Si Si1 0.512161 0.290607 0.126647
Si Si2 0.861295 0.148030 0.821729
Si Si3 0.703497 0.724759 0.593326
Si Si4 0.391763 0.602640 0.392380
Si Si5 0.396103 0.200502 0.952350
Si Si6 0.985271 0.211907 0.374118
Si Si7 0.267683 0.553741 0.793475
Si Si8 0.176775 0.461024 0.799058
O O1 0.500000 0.500000 0.123907
O O2 0.564390 0.270441 0.123497
O O3 0.494936 0.216525 0.250696
O O4 0.500000 0.211687 0.000000
O O5 0.813355 0.074976 0.860251
O O6 0.849121 0.352862 0.786421
O O7 0.880333 0.028245 0.716564
O O8 0.890882 0.174166 0.934987
O O9 0.750000 0.750000 0.524667
O O10 0.654577 0.673599 0.552362
O O11 0.717923 0.569581 0.684699
O O12 0.690484 0.895235 0.671457
O O13 0.413027 0.500000 0.500000
O O14 0.432071 0.734502 0.364374
O O15 0.352978 0.176361 0.871469
O O16 0.404323 0.000000 0.000000
O O17 0.000000 0.283366 0.500000
O O18 0.000000 0.000000 0.371335
O O19 0.250000 0.750000 0.756533
O O20 0.224956 0.475891 0.857937
#
# Coordination Sequence:
#
# PCOD9323537 Si02
#       8
#     8   8   8   8   8   8   8   8
#     4  10  23  37  61  96 127 156 211 269 324 389
#     4   9  20  34  57  85 121 167 208 262 315 381
#     4   9  18  34  56  83 117 162 208 266 318 376
#     4  11  21  36  60  89 119 159 214 265 325 386
#     4  10  21  38  59  90 130 171 209 257 328 397
#     4  10  20  38  61  93 125 158 198 267 332 390
#     4   8  15  32  54  82 120 165 214 259 309 372
#     4   9  17  36  56  82 124 166 209 255 314 386
#
# _framework density 24.673235999999999
#
# number of rings (size 3 to 8) (size 9 to 14) (size 15 to 20)
#    0.000    2.500    1.250    0.750    5.250    0.250 
#    0.000   21.250    0.000    0.000    0.000    9.625 
#    0.000    0.000    0.000    0.000    0.000    0.000 
#
# Total GULP energy -178361.711623 kJ/mol
# GULP energy per Si atom -5573.803488 kJ/mol
# Density = 2.461708 g / cm^3
# Si number density = 24.673236 Si / 1000 Ang^3
#
#
#
# Elastic Constant Matrix: (Units=GPa)
#
#
# Indices 1 2 3 4 5 6 
#
# 1 124.8040 21.3176 44.6135 0.0000 0.0000 0.0000
# 2 21.3176 71.4720 6.9971 0.0000 0.0000 0.0000
# 3 44.6135 6.9971 147.6846 0.0000 0.0000 0.0000
# 4 0.0000 0.0000 0.0000 11.2046 0.0000 0.0000
# 5 0.0000 0.0000 0.0000 0.0000 25.1053 0.0000
# 6 0.0000 0.0000 0.0000 0.0000 0.0000 25.0964
#
#
#
# Elastic Compliance Matrix: (Units=1/GPa)
#
#
# Indices 1 2 3 4 5 6 
#
# 1 0.009421 -0.002543 -0.002726 0.000000 0.000000 0.000000
# 2 -0.002543 0.014743 0.000070 0.000000 0.000000 0.000000
# 3 -0.002726 0.000070 0.007591 0.000000 0.000000 0.000000
# 4 0.000000 0.000000 0.000000 0.089249 0.000000 0.000000
# 5 0.000000 0.000000 0.000000 0.000000 0.039832 0.000000
# 6 0.000000 0.000000 0.000000 0.000000 0.000000 0.039846
#
#
# Mechanical properties :
#
#
# Convention : Reuss Voigt Hill
#
# Bulk Modulus (GPa) = 46.82149 54.42413 50.62281
# Shear Modulus (GPa) = 22.91468 30.35009 26.63238
#
# Velocity S-wave (km/s) = 3.05081 3.51106 3.28899
# Velocity P-wave (km/s) = 5.60604 6.20826 5.91482
#
# Compressibility (1/GPa) = 0.02135771
#
# Stress axis : x y z
#
# Youngs Moduli (GPa) = 106.14287 67.82782 131.73093
#
# Poissons Ratio (x) = 0.17250 0.35904
# Poissons Ratio (y) = 0.26994 -0.00919
# Poissons Ratio (z) = 0.28930 -0.00473
#
# Static dielectric constant tensor:
#      x y z
#    x 2.034910 0.000000 0.000000 
#    y 0.000000 2.007710 0.000000 
#    z 0.000000 0.000000 2.009950 
# 
# From -- ./inp_files/28081.got.cif
#   From: 2010.05.17/outbox.cif.g08.bks.cpg/sg21_15_cif.got.tgz:28081.got - 2010.06.03 23:14:55.
