data_PCOD9323772
_publ_section_title
;
Structure prediction by ZEFSAII (Michael W. Deem and Ramdas Pophale) SiO2 
 PCOD9323772
Probable space group: C 2 2 2
;
_chemical_formula_sum "Si O2"
_cell_formula_units_Z 28
_cell_length_a 5.032609
_cell_length_b 30.206624
_cell_length_c 8.813609
_cell_angle_alpha 90.000000
_cell_angle_beta 90.000000
_cell_angle_gamma 90.000000
_cell_volume 1339.828339
_symmetry_space_group_name_H-M "C 2 2 2"
_symmetry_group_IT_number 21
_symmetry_cell_setting 'orthorhombic'
loop_
_space_group_symop_operation_xyz
x,y,z
-x,-y,z
x,-y,-z
-x,y,-z
1/2+x,1/2+y,z
1/2-x,1/2-y,z
1/2+x,1/2-y,-z
1/2-x,1/2+y,-z
loop_
_atom_site_type_symbol
_atom_site_label
_atom_site_fract_x
_atom_site_fract_y
_atom_site_fract_z
Si Si1 0.000000 0.500000 0.000000
Si Si2 0.855793 0.435301 0.743558
Si Si3 0.749344 0.698106 0.891561
Si Si4 0.000000 0.500000 0.500000
Si Si5 0.618240 0.378404 0.328474
O O1 0.849158 0.466522 0.889521
O O2 0.817576 0.469098 0.604562
O O3 0.137093 0.412176 0.701332
O O4 0.633516 0.398400 0.758965
O O5 0.750000 0.750000 0.848753
O O6 0.718564 0.667203 0.745062
O O7 0.500000 0.690538 0.000000
O O8 0.000000 0.688470 0.000000
O O9 0.500000 0.374424 0.500000
#
# Coordination Sequence:
#
# PCOD9323772 Si02
#       5
#     2   8   8   2   8
#     4  10  28  44  60 100 128 180 228 276 328 384
#     4  11  25  41  67  92 134 174 222 273 330 391
#     4  10  23  44  70  99 133 174 216 272 336 402
#     4  10  20  44  60  92 132 180 212 272 332 400
#     4  12  24  43  68 101 130 175 219 276 333 399
#
# _framework density 20.898199999999999
#
# number of rings (size 3 to 8) (size 9 to 14) (size 15 to 20)
#    0.000    1.143    2.857    1.714    6.000    6.857 
#    0.000    7.143    0.000    0.000    0.000    0.000 
#    0.000    0.000    0.000    0.000    0.000    0.000 
#
# Total GULP energy -78182.439913 kJ/mol
# GULP energy per Si atom -5584.459994 kJ/mol
# Density = 2.085064 g / cm^3
# Si number density = 20.898200 Si / 1000 Ang^3
#
#
#
# Elastic Constant Matrix: (Units=GPa)
#
#
# Indices 1 2 3 4 5 6 
#
# 1 139.8037 44.8581 38.3182 0.0000 0.0000 0.0000
# 2 44.8581 122.1009 83.2654 0.0000 0.0000 0.0000
# 3 38.3182 83.2654 126.4807 0.0000 0.0000 0.0000
# 4 0.0000 0.0000 0.0000 58.1404 0.0000 0.0000
# 5 0.0000 0.0000 0.0000 0.0000 -14.9567 0.0000
# 6 0.0000 0.0000 0.0000 0.0000 0.0000 8.1917
#
#
#
# Elastic Compliance Matrix: (Units=1/GPa)
#
#
# Indices 1 2 3 4 5 6 
#
# 1 0.008165 -0.002383 -0.000905 0.000000 0.000000 0.000000
# 2 -0.002383 0.015557 -0.009520 0.000000 0.000000 0.000000
# 3 -0.000905 -0.009520 0.014448 0.000000 0.000000 0.000000
# 4 0.000000 0.000000 0.000000 0.017200 0.000000 0.000000
# 5 0.000000 0.000000 0.000000 0.000000 -0.066860 0.000000
# 6 0.000000 0.000000 0.000000 0.000000 0.000000 0.122075
#
#
# Mechanical properties :
#
#
# Convention : Reuss Voigt Hill
#
# Bulk Modulus (GPa) = 79.64927 80.14096 79.89511
# Shear Modulus (GPa) = 35.61598 25.07133 30.34365
#
# Velocity S-wave (km/s) = 4.13275 3.46741 3.81461
# Velocity P-wave (km/s) = 7.80823 7.37984 7.59706
#
# Compressibility (1/GPa) = 0.01255504
#
# Stress axis : x y z
#
# Youngs Moduli (GPa) = 122.46673 64.27868 69.21459
#
# Poissons Ratio (x) = 0.15314 0.06266
# Poissons Ratio (y) = 0.29178 0.65892
# Poissons Ratio (z) = 0.11087 0.61193
#
# Static dielectric constant tensor:
#      x y z
#    x 1.701680 0.000000 0.000000 
#    y 0.000000 2.000840 0.000000 
#    z 0.000000 0.000000 1.794080 
# 
# From -- ./inp_files/8898.got.cif
#   From: 2010.05.17/outbox.cif.g08.bks.cpg/sg21_5_cif.got.tgz:8898.got - 2010.06.03 23:14:55.
