data_PCOD9323675
_publ_section_title
;
Structure prediction by ZEFSAII (Michael W. Deem and Ramdas Pophale) SiO2 
 PCOD9323675
Probable space group: C 2 2 2
;
_chemical_formula_sum "Si O2"
_cell_formula_units_Z 48
_cell_length_a 9.504213
_cell_length_b 17.270708
_cell_length_c 14.708937
_cell_angle_alpha 90.000000
_cell_angle_beta 90.000000
_cell_angle_gamma 90.000000
_cell_volume 2414.390925
_symmetry_space_group_name_H-M "C 2 2 2"
_symmetry_group_IT_number 21
_symmetry_cell_setting 'orthorhombic'
loop_
_space_group_symop_operation_xyz
x,y,z
-x,-y,z
x,-y,-z
-x,y,-z
1/2+x,1/2+y,z
1/2-x,1/2-y,z
1/2+x,1/2-y,-z
1/2-x,1/2+y,-z
loop_
_atom_site_type_symbol
_atom_site_label
_atom_site_fract_x
_atom_site_fract_y
_atom_site_fract_z
Si Si1 0.015388 0.645493 0.844175
Si Si2 0.021398 0.822078 0.854787
Si Si3 0.252801 0.832537 0.694640
Si Si4 0.272585 0.431498 0.785902
Si Si5 0.774780 0.936261 0.077405
Si Si6 0.668935 0.491317 0.604506
O O1 0.875670 0.597380 0.825064
O O2 0.985955 0.733233 0.876175
O O3 0.102955 0.651803 0.749471
O O4 0.122279 0.602368 0.912073
O O5 0.135459 0.820632 0.772973
O O6 0.109757 0.869094 0.930266
O O7 0.889064 0.870618 0.819191
O O8 0.250000 0.750000 0.643909
O O9 0.213646 0.905961 0.635649
O O10 0.306359 0.514518 0.831330
O O11 0.271252 0.447350 0.678111
O O12 0.781794 0.000000 0.000000
O O13 0.500000 0.500000 0.610183
O O14 0.712351 0.500000 0.500000
#
# Coordination Sequence:
#
# PCOD9323675 Si02
#       6
#     8   8   8   8   8   8
#     4  10  22  38  63  89 128 163 200 264 328 371
#     4  10  20  40  63  88 122 168 210 253 312 381
#     4   9  18  37  61  85 118 166 207 249 317 376
#     4  12  21  38  61  94 125 161 211 267 311 375
#     4  11  23  40  64  90 117 164 215 255 313 382
#     4  11  21  37  64  95 126 171 220 267 314 384
#
# _framework density 19.880790999999999
#
# number of rings (size 3 to 8) (size 9 to 14) (size 15 to 20)
#    0.000    1.500    5.000    3.000    0.000    2.667 
#    0.000    8.333    0.000    0.000    0.000    0.000 
#    0.000    0.000    0.000    0.000    0.000    0.000 
#
# Total GULP energy -134093.879815 kJ/mol
# GULP energy per Si atom -5587.244992 kJ/mol
# Density = 1.983554 g / cm^3
# Si number density = 19.880791 Si / 1000 Ang^3
#
#
#
# Elastic Constant Matrix: (Units=GPa)
#
#
# Indices 1 2 3 4 5 6 
#
# 1 78.4465 20.5692 21.4922 0.0000 0.0000 0.0000
# 2 20.5692 128.5279 35.9548 0.0000 0.0000 0.0000
# 3 21.4922 35.9548 75.0485 0.0000 0.0000 0.0000
# 4 0.0000 0.0000 0.0000 15.1988 0.0000 0.0000
# 5 0.0000 0.0000 0.0000 0.0000 17.6889 0.0000
# 6 0.0000 0.0000 0.0000 0.0000 0.0000 31.8777
#
#
#
# Elastic Compliance Matrix: (Units=1/GPa)
#
#
# Indices 1 2 3 4 5 6 
#
# 1 0.014017 -0.001294 -0.003394 0.000000 0.000000 0.000000
# 2 -0.001294 0.009104 -0.003991 0.000000 0.000000 0.000000
# 3 -0.003394 -0.003991 0.016209 0.000000 0.000000 0.000000
# 4 0.000000 0.000000 0.000000 0.065795 0.000000 0.000000
# 5 0.000000 0.000000 0.000000 0.000000 0.056533 0.000000
# 6 0.000000 0.000000 0.000000 0.000000 0.000000 0.031370
#
#
# Mechanical properties :
#
#
# Convention : Reuss Voigt Hill
#
# Bulk Modulus (GPa) = 45.51378 48.67281 47.09329
# Shear Modulus (GPa) = 22.96647 26.55352 24.76000
#
# Velocity S-wave (km/s) = 3.40252 3.65860 3.53288
# Velocity P-wave (km/s) = 6.19510 6.51019 6.35460
#
# Compressibility (1/GPa) = 0.02197137
#
# Stress axis : x y z
#
# Youngs Moduli (GPa) = 71.34357 109.84272 61.69471
#
# Poissons Ratio (x) = 0.14210 0.20941
# Poissons Ratio (y) = 0.09229 0.24623
# Poissons Ratio (z) = 0.24216 0.43839
#
# Static dielectric constant tensor:
#      x y z
#    x 1.696100 0.000000 0.000000 
#    y 0.000000 1.716430 0.000000 
#    z 0.000000 0.000000 1.734480 
# 
# From -- ./inp_files/30465.got.cif
#   From: 2010.05.17/outbox.cif.g08.bks.cpg/sg21_16_cif.got.tgz:30465.got - 2010.06.03 23:14:55.
