data_PCOD9323249
_publ_section_title
;
Structure prediction by ZEFSAII (Michael W. Deem and Ramdas Pophale) SiO2 
 PCOD9323249
Probable space group: C 2 2 2
;
_chemical_formula_sum "Si O2"
_cell_formula_units_Z 40
_cell_length_a 15.543169
_cell_length_b 15.538718
_cell_length_c 7.307755
_cell_angle_alpha 90.000000
_cell_angle_beta 90.000000
_cell_angle_gamma 90.000000
_cell_volume 1764.975710
_symmetry_space_group_name_H-M "C 2 2 2"
_symmetry_group_IT_number 21
_symmetry_cell_setting 'orthorhombic'
loop_
_space_group_symop_operation_xyz
x,y,z
-x,-y,z
x,-y,-z
-x,y,-z
1/2+x,1/2+y,z
1/2-x,1/2-y,z
1/2+x,1/2-y,-z
1/2-x,1/2+y,-z
loop_
_atom_site_type_symbol
_atom_site_label
_atom_site_fract_x
_atom_site_fract_y
_atom_site_fract_z
Si Si1 0.489529 0.776729 0.219882
Si Si2 0.724178 0.504450 0.209744
Si Si3 0.329317 0.691894 0.765997
Si Si4 0.677045 0.318581 0.212422
Si Si5 0.084319 0.461770 0.704065
O O1 0.582697 0.742146 0.282636
O O2 0.419706 0.704333 0.261638
O O3 0.441013 0.861404 0.296723
O O4 0.500000 0.790143 0.000000
O O5 0.687267 0.592743 0.290839
O O6 0.697583 0.412480 0.288137
O O7 0.827841 0.495980 0.209196
O O8 0.693805 0.500000 0.000000
O O9 0.250000 0.750000 0.703147
O O10 0.323099 0.686228 0.989126
O O11 0.750000 0.250000 0.269394
O O12 0.089125 0.500000 0.500000
O O13 0.000000 0.500000 0.797190
#
# Coordination Sequence:
#
# PCOD9323249 Si02
#       5
#     8   8   8   8   8
#     4  10  20  34  61  88 121 164 196 248 313 356
#     4  10  20  34  61  89 119 159 201 249 299 360
#     4   9  18  31  51  89 125 151 199 250 298 358
#     4   9  16  31  53  89 122 152 202 249 294 361
#     4  11  24  37  56  86 122 149 205 254 294 359
#
# _framework density 22.663201000000001
#
# number of rings (size 3 to 8) (size 9 to 14) (size 15 to 20)
#    0.000    2.200    2.000    1.200    5.600    0.800 
#    0.000    4.000   22.000    0.000    0.000    1.400 
#    0.000    0.000    0.000    0.000    0.000    0.000 
#
# Total GULP energy -111531.541002 kJ/mol
# GULP energy per Si atom -5576.577050 kJ/mol
# Density = 2.261162 g / cm^3
# Si number density = 22.663201 Si / 1000 Ang^3
#
#
#
# Elastic Constant Matrix: (Units=GPa)
#
#
# Indices 1 2 3 4 5 6 
#
# 1 113.0376 17.6162 -3.3350 0.0000 0.0000 0.0000
# 2 17.6162 118.9500 6.8162 0.0000 0.0000 0.0000
# 3 -3.3350 6.8162 93.3884 0.0000 0.0000 0.0000
# 4 0.0000 0.0000 0.0000 -3.8265 0.0000 0.0000
# 5 0.0000 0.0000 0.0000 0.0000 -34.6216 0.0000
# 6 0.0000 0.0000 0.0000 0.0000 0.0000 35.8395
#
#
#
# Elastic Compliance Matrix: (Units=1/GPa)
#
#
# Indices 1 2 3 4 5 6 
#
# 1 0.009072 -0.001368 0.000424 0.000000 0.000000 0.000000
# 2 -0.001368 0.008648 -0.000680 0.000000 0.000000 0.000000
# 3 0.000424 -0.000680 0.010773 0.000000 0.000000 0.000000
# 4 0.000000 0.000000 0.000000 -0.261336 0.000000 0.000000
# 5 0.000000 0.000000 0.000000 0.000000 -0.028884 0.000000
# 6 0.000000 0.000000 0.000000 0.000000 0.000000 0.027902
#
#
# Mechanical properties :
#
#
# Convention : Reuss Voigt Hill
#
# Bulk Modulus (GPa) = 39.61145 40.84118 40.22632
# Shear Modulus (GPa) = -22.50617 19.76353 -1.37132
#
# Velocity S-wave (km/s) = -3.15472 2.95626 -0.77872
# Velocity P-wave (km/s) = 2.06072 5.45093 4.12063
#
# Compressibility (1/GPa) = 0.02524523
#
# Stress axis : x y z
#
# Youngs Moduli (GPa) = 110.22571 115.62778 92.82688
#
# Poissons Ratio (x) = 0.15816 -0.03934
# Poissons Ratio (y) = 0.15077 0.06313
# Poissons Ratio (z) = -0.04672 0.07864
#
# Static dielectric constant tensor:
#      x y z
#    x 1.767860 0.000000 0.000000 
#    y 0.000000 1.914140 0.000000 
#    z 0.000000 0.000000 1.914830 
# 
# From -- ./inp_files/14519.got.cif
#   From: 2010.05.17/outbox.cif.g08.bks.cpg/sg21_8_cif.got.tgz:14519.got - 2010.06.03 23:14:55.
