data_PCOD9323260
_publ_section_title
;
Structure prediction by ZEFSAII (Michael W. Deem and Ramdas Pophale) SiO2 
 PCOD9323260
Probable space group: C 2 2 2
;
_chemical_formula_sum "Si O2"
_cell_formula_units_Z 28
_cell_length_a 8.907361
_cell_length_b 25.909821
_cell_length_c 6.021969
_cell_angle_alpha 90.000000
_cell_angle_beta 90.000000
_cell_angle_gamma 90.000000
_cell_volume 1389.798959
_symmetry_space_group_name_H-M "C 2 2 2"
_symmetry_group_IT_number 21
_symmetry_cell_setting 'orthorhombic'
loop_
_space_group_symop_operation_xyz
x,y,z
-x,-y,z
x,-y,-z
-x,y,-z
1/2+x,1/2+y,z
1/2-x,1/2-y,z
1/2+x,1/2-y,-z
1/2-x,1/2+y,-z
loop_
_atom_site_type_symbol
_atom_site_label
_atom_site_fract_x
_atom_site_fract_y
_atom_site_fract_z
Si Si1 0.500000 0.500000 0.000000
Si Si2 0.250000 0.250000 0.321634
Si Si3 0.000000 0.500000 0.000000
Si Si4 0.251542 0.043633 0.690493
Si Si5 0.500000 0.287668 0.000000
Si Si6 0.161440 0.843936 0.384547
O O1 0.605638 0.534184 0.843623
O O2 0.247641 0.200083 0.479287
O O3 0.398446 0.254782 0.169375
O O4 0.105376 0.533992 0.155967
O O5 0.245640 0.101926 0.608413
O O6 0.250172 0.000000 0.500000
O O7 0.383396 0.322561 0.858743
O O8 0.000000 0.851958 0.500000
#
# Coordination Sequence:
#
# PCOD9323260 Si02
#       6
#     2   4   2   8   4   8
#     4  10  20  34  68  98 112 158 208 250 312 354
#     4  10  22  40  64  94 124 160 206 250 304 360
#     4  10  26  42  58  90 128 166 200 238 316 370
#     4  11  22  42  63  90 126 159 203 255 300 363
#     4  10  21  42  63  91 128 159 200 256 302 360
#     4  10  21  39  65  92 119 160 209 253 302 357
#
# _framework density 20.146799999999999
#
# number of rings (size 3 to 8) (size 9 to 14) (size 15 to 20)
#    0.000    1.714    0.000    4.286    0.000    6.857 
#    0.000   27.143    0.000    0.000    0.000    0.000 
#    0.000    0.000    0.000    0.000    0.000    0.000 
#
# Total GULP energy -78264.008906 kJ/mol
# GULP energy per Si atom -5590.286350 kJ/mol
# Density = 2.010094 g / cm^3
# Si number density = 20.146800 Si / 1000 Ang^3
#
#
#
# Elastic Constant Matrix: (Units=GPa)
#
#
# Indices 1 2 3 4 5 6 
#
# 1 85.2268 71.3363 44.5121 0.0000 0.0000 0.0000
# 2 71.3363 210.9310 89.8264 0.0000 0.0000 0.0000
# 3 44.5121 89.8264 125.9866 0.0000 0.0000 0.0000
# 4 0.0000 0.0000 0.0000 16.3319 0.0000 0.0000
# 5 0.0000 0.0000 0.0000 0.0000 -43.4540 0.0000
# 6 0.0000 0.0000 0.0000 0.0000 0.0000 -10.4831
#
#
#
# Elastic Compliance Matrix: (Units=1/GPa)
#
#
# Indices 1 2 3 4 5 6 
#
# 1 0.017000 -0.004583 -0.002739 0.000000 0.000000 0.000000
# 2 -0.004583 0.008044 -0.004116 0.000000 0.000000 0.000000
# 3 -0.002739 -0.004116 0.011839 0.000000 0.000000 0.000000
# 4 0.000000 0.000000 0.000000 0.061230 0.000000 0.000000
# 5 0.000000 0.000000 0.000000 0.000000 -0.023013 0.000000
# 6 0.000000 0.000000 0.000000 0.000000 0.000000 -0.095392
#
#
# Mechanical properties :
#
#
# Convention : Reuss Voigt Hill
#
# Bulk Modulus (GPa) = 71.38721 92.61043 81.99882
# Shear Modulus (GPa) = 689.51447 6.91029 348.21238
#
# Velocity S-wave (km/s) = 18.51994 1.85403 13.16103
# Velocity P-wave (km/s) = 22.19973 7.11694 16.48452
#
# Compressibility (1/GPa) = 0.01400811
#
# Stress axis : x y z
#
# Youngs Moduli (GPa) = 58.82434 124.32310 84.46441
#
# Poissons Ratio (x) = 0.56978 0.23131
# Poissons Ratio (y) = 0.26960 0.34763
# Poissons Ratio (z) = 0.16109 0.51168
#
# Static dielectric constant tensor:
#      x y z
#    x 1.707610 0.000000 0.000000 
#    y 0.000000 1.706980 0.000000 
#    z 0.000000 0.000000 1.747550 
# 
# From -- ./inp_files/1368.got.cif
#   From: 2010.05.17/outbox.cif.g08.bks.cpg/sg21_1_cif.got.tgz:1368.got - 2010.06.03 23:14:55.
