data_PCOD9323187
_publ_section_title
;
Structure prediction by ZEFSAII (Michael W. Deem and Ramdas Pophale) SiO2 
 PCOD9323187
Probable space group: C 2 2 2
;
_chemical_formula_sum "Si O2"
_cell_formula_units_Z 44
_cell_length_a 29.785648
_cell_length_b 5.012391
_cell_length_c 15.307700
_cell_angle_alpha 90.000000
_cell_angle_beta 90.000000
_cell_angle_gamma 90.000000
_cell_volume 2285.398493
_symmetry_space_group_name_H-M "C 2 2 2"
_symmetry_group_IT_number 21
_symmetry_cell_setting 'orthorhombic'
loop_
_space_group_symop_operation_xyz
x,y,z
-x,-y,z
x,-y,-z
-x,y,-z
1/2+x,1/2+y,z
1/2-x,1/2-y,z
1/2+x,1/2-y,-z
1/2-x,1/2+y,-z
loop_
_atom_site_type_symbol
_atom_site_label
_atom_site_fract_x
_atom_site_fract_y
_atom_site_fract_z
Si Si1 0.699791 0.251869 0.436028
Si Si2 0.953465 0.905210 0.795105
Si Si3 0.567912 0.101473 0.904132
Si Si4 0.250000 0.250000 0.057936
Si Si5 0.665893 0.059670 0.831828
Si Si6 0.355453 0.442514 0.725723
O O1 0.700888 0.500000 0.500000
O O2 0.750000 0.250000 0.394231
O O3 0.662999 0.317675 0.363247
O O4 0.692445 0.000000 0.500000
O O5 0.951311 0.607906 0.833274
O O6 0.909365 0.941204 0.735551
O O7 0.948079 0.105599 0.877634
O O8 0.000000 0.000000 0.752696
O O9 0.621699 0.103741 0.890750
O O10 0.556283 0.000000 0.000000
O O11 0.289992 0.135446 0.116383
O O12 0.266306 0.500000 0.000000
O O13 0.660994 0.260030 0.748978
O O14 0.663652 0.755629 0.800221
#
# Coordination Sequence:
#
# PCOD9323187 Si02
#       6
#     8   8   8   4   8   8
#     4  10  21  36  58  88 115 142 174 220 276 335
#     4  10  21  35  53  79 105 141 188 228 279 332
#     4  10  20  34  51  74 107 142 184 239 286 324
#     4  12  24  36  52  76 108 150 200 242 278 322
#     4  10  22  35  53  77 105 150 190 229 276 331
#     4  10  21  38  57  80 111 145 181 224 280 337
#
# _framework density 19.252658
#
# number of rings (size 3 to 8) (size 9 to 14) (size 15 to 20)
#    0.000    1.818    0.000    3.818    2.545    5.091 
#    0.000    0.000    0.000    0.545    0.000    1.273 
#    0.000    0.000    0.000    0.000    0.000    0.000 
#
# Total GULP energy -122855.452230 kJ/mol
# GULP energy per Si atom -5584.338738 kJ/mol
# Density = 1.920884 g / cm^3
# Si number density = 19.252658 Si / 1000 Ang^3
#
#
#
# Elastic Constant Matrix: (Units=GPa)
#
#
# Indices 1 2 3 4 5 6 
#
# 1 140.4532 13.7826 39.3450 0.0000 0.0000 0.0000
# 2 13.7826 81.9714 -3.0816 0.0000 0.0000 0.0000
# 3 39.3450 -3.0816 50.3402 0.0000 0.0000 0.0000
# 4 0.0000 0.0000 0.0000 8.9807 0.0000 0.0000
# 5 0.0000 0.0000 0.0000 0.0000 -3.2869 0.0000
# 6 0.0000 0.0000 0.0000 0.0000 0.0000 29.0385
#
#
#
# Elastic Compliance Matrix: (Units=1/GPa)
#
#
# Indices 1 2 3 4 5 6 
#
# 1 0.009390 -0.001859 -0.007453 0.000000 0.000000 0.000000
# 2 -0.001859 0.012596 0.002224 0.000000 0.000000 0.000000
# 3 -0.007453 0.002224 0.025826 0.000000 0.000000 0.000000
# 4 0.000000 0.000000 0.000000 0.111350 0.000000 0.000000
# 5 0.000000 0.000000 0.000000 0.000000 -0.304237 0.000000
# 6 0.000000 0.000000 0.000000 0.000000 0.000000 0.034437
#
#
# Mechanical properties :
#
#
# Convention : Reuss Voigt Hill
#
# Bulk Modulus (GPa) = 29.73019 41.42853 35.57936
# Shear Modulus (GPa) = -58.65019 21.79438 -18.42791
#
# Velocity S-wave (km/s) = -5.52536 3.36820 -3.09716
# Velocity P-wave (km/s) = 5.02299 6.05734 2.39384
#
# Compressibility (1/GPa) = 0.03363584
#
# Stress axis : x y z
#
# Youngs Moduli (GPa) = 106.49648 79.39313 38.72069
#
# Poissons Ratio (x) = 0.14759 0.28858
# Poissons Ratio (y) = 0.19798 -0.08611
# Poissons Ratio (z) = 0.79370 -0.17657
#
# Static dielectric constant tensor:
#      x y z
#    x 1.721440 0.000000 0.000000 
#    y 0.000000 1.656920 0.000000 
#    z 0.000000 0.000000 1.639900 
# 
# From -- ./inp_files/33732.got.cif
#   From: 2010.05.17/outbox.cif.g08.bks.cpg/sg21_17_cif.got.tgz:33732.got - 2010.06.03 23:14:55.
