data_PCOD9323971
_publ_section_title
;
Structure prediction by ZEFSAII (Michael W. Deem and Ramdas Pophale) SiO2 
 PCOD9323971
Probable space group: C 2 2 2
;
_chemical_formula_sum "Si O2"
_cell_formula_units_Z 56
_cell_length_a 18.556096
_cell_length_b 20.885602
_cell_length_c 7.413186
_cell_angle_alpha 90.000000
_cell_angle_beta 90.000000
_cell_angle_gamma 90.000000
_cell_volume 2873.019048
_symmetry_space_group_name_H-M "C 2 2 2"
_symmetry_group_IT_number 21
_symmetry_cell_setting 'orthorhombic'
loop_
_space_group_symop_operation_xyz
x,y,z
-x,-y,z
x,-y,-z
-x,y,-z
1/2+x,1/2+y,z
1/2-x,1/2-y,z
1/2+x,1/2-y,-z
1/2-x,1/2+y,-z
loop_
_atom_site_type_symbol
_atom_site_label
_atom_site_fract_x
_atom_site_fract_y
_atom_site_fract_z
Si Si1 0.202672 0.312930 0.268284
Si Si2 0.953749 0.936455 0.272457
Si Si3 0.084347 0.873695 0.366903
Si Si4 0.186111 0.697409 0.160764
Si Si5 0.768260 0.076785 0.213883
Si Si6 0.582443 0.770225 0.538810
Si Si7 0.289832 0.435907 0.203608
O O1 0.250000 0.250000 0.303871
O O2 0.134082 0.305695 0.396937
O O3 0.253164 0.375285 0.300484
O O4 0.180945 0.310050 0.055685
O O5 0.927738 0.927539 0.479970
O O6 0.876540 0.933539 0.178930
O O7 0.012165 0.879726 0.246486
O O8 0.000000 0.000000 0.231734
O O9 0.155429 0.891130 0.260628
O O10 0.089252 0.806969 0.470865
O O11 0.250000 0.750000 0.192769
O O12 0.209818 0.630784 0.254233
O O13 0.113160 0.717206 0.260441
O O14 0.768576 0.004489 0.287021
O O15 0.761810 0.068224 0.999620
O O16 0.500000 0.787221 0.500000
#
# Coordination Sequence:
#
# PCOD9323971 Si02
#       7
#     8   8   8   8   8   8   8
#     4  10  23  41  62  90 120 159 213 258 305 365
#     4  11  21  34  51  84 128 166 193 232 286 365
#     4  11  21  35  51  81 124 161 198 239 292 357
#     4  10  21  40  63  89 123 158 203 263 305 357
#     4  10  21  38  59  87 119 159 207 248 301 362
#     4  12  24  40  62  88 120 165 208 253 320 366
#     4  10  22  38  60  87 119 164 206 244 302 368
#
# _framework density 19.491692
#
# number of rings (size 3 to 8) (size 9 to 14) (size 15 to 20)
#    0.000    1.429    4.286    2.143    2.000    1.143 
#    0.000    1.429    0.000    1.714    0.000    4.000 
#    0.000    0.000    0.000    0.000    0.000    0.000 
#
# Total GULP energy -156130.289951 kJ/mol
# GULP energy per Si atom -5576.081784 kJ/mol
# Density = 1.944733 g / cm^3
# Si number density = 19.491692 Si / 1000 Ang^3
#
#
#
# Elastic Constant Matrix: (Units=GPa)
#
#
# Indices 1 2 3 4 5 6 
#
# 1 102.9033 55.5088 26.8074 0.0000 0.0000 0.0000
# 2 55.5088 122.7485 10.5958 0.0000 0.0000 0.0000
# 3 26.8074 10.5958 46.0045 0.0000 0.0000 0.0000
# 4 0.0000 0.0000 0.0000 11.6910 0.0000 0.0000
# 5 0.0000 0.0000 0.0000 0.0000 14.9411 0.0000
# 6 0.0000 0.0000 0.0000 0.0000 0.0000 33.1280
#
#
#
# Elastic Compliance Matrix: (Units=1/GPa)
#
#
# Indices 1 2 3 4 5 6 
#
# 1 0.014914 -0.006116 -0.007282 0.000000 0.000000 0.000000
# 2 -0.006116 0.010820 0.001072 0.000000 0.000000 0.000000
# 3 -0.007282 0.001072 0.025733 0.000000 0.000000 0.000000
# 4 0.000000 0.000000 0.000000 0.085536 0.000000 0.000000
# 5 0.000000 0.000000 0.000000 0.000000 0.066930 0.000000
# 6 0.000000 0.000000 0.000000 0.000000 0.000000 0.030186
#
#
# Mechanical properties :
#
#
# Convention : Reuss Voigt Hill
#
# Bulk Modulus (GPa) = 37.29223 50.83112 44.06167
# Shear Modulus (GPa) = 18.67703 23.86831 21.27267
#
# Velocity S-wave (km/s) = 3.09885 3.50314 3.30717
# Velocity P-wave (km/s) = 5.65488 6.51902 6.10227
#
# Compressibility (1/GPa) = 0.02681524
#
# Stress axis : x y z
#
# Youngs Moduli (GPa) = 67.05182 92.42279 38.85993
#
# Poissons Ratio (x) = 0.56523 0.28297
# Poissons Ratio (y) = 0.41007 -0.04164
# Poissons Ratio (z) = 0.48827 -0.09905
#
# Static dielectric constant tensor:
#      x y z
#    x 1.701330 0.000000 0.000000 
#    y 0.000000 1.754770 0.000000 
#    z 0.000000 0.000000 1.770180 
# 
# From -- ./inp_files/15264.got.cif
#   From: 2010.05.17/outbox.cif.g08.bks.cpg/sg21_8_cif.got.tgz:15264.got - 2010.06.03 23:14:55.
