data_PCOD9323925
_publ_section_title
;
Structure prediction by ZEFSAII (Michael W. Deem and Ramdas Pophale) SiO2 
 PCOD9323925
Probable space group: C 2 2 2
;
_chemical_formula_sum "Si O2"
_cell_formula_units_Z 54
_cell_length_a 15.325656
_cell_length_b 5.235841
_cell_length_c 31.275411
_cell_angle_alpha 90.000000
_cell_angle_beta 90.000000
_cell_angle_gamma 90.000000
_cell_volume 2509.623361
_symmetry_space_group_name_H-M "C 2 2 2"
_symmetry_group_IT_number 21
_symmetry_cell_setting 'orthorhombic'
loop_
_space_group_symop_operation_xyz
x,y,z
-x,-y,z
x,-y,-z
-x,y,-z
1/2+x,1/2+y,z
1/2-x,1/2-y,z
1/2+x,1/2-y,-z
1/2-x,1/2+y,-z
loop_
_atom_site_type_symbol
_atom_site_label
_atom_site_fract_x
_atom_site_fract_y
_atom_site_fract_z
Si Si1 0.894517 0.980582 0.089567
Si Si2 0.644960 0.752879 0.771015
Si Si3 0.692622 0.500000 0.000000
Si Si4 0.000000 0.500000 0.500000
Si Si5 0.896129 0.524818 0.864208
Si Si6 0.351056 0.687607 0.540525
Si Si7 0.856053 0.746726 0.279365
Si Si8 0.061128 0.757407 0.627115
O O1 0.863536 0.756201 0.122021
O O2 0.861326 0.257453 0.104224
O O3 0.000000 0.000000 0.091012
O O4 0.864131 0.930028 0.041604
O O5 0.750000 0.750000 0.771134
O O6 0.618536 0.856408 0.817445
O O7 0.616893 0.475817 0.753122
O O8 0.615647 0.973292 0.738732
O O9 0.750000 0.250000 0.009612
O O10 0.931532 0.372509 0.531496
O O11 0.000000 0.500000 0.869293
O O12 0.367773 0.500000 0.500000
O O13 0.250000 0.750000 0.534238
O O14 0.364812 0.673610 0.591467
O O15 0.750000 0.750000 0.281594
O O16 0.895433 0.768919 0.326294
O O17 0.000000 0.500000 0.623169
O O18 0.000000 0.000000 0.622402
#
# Coordination Sequence:
#
# PCOD9323925 Si02
#       8
#     8   8   4   2   8   8   8   8
#     4  10  22  41  61  86 122 167 206 254 318 387
#     4  10  21  38  62  91 128 166 212 269 331 392
#     4  12  25  40  61  92 124 158 208 266 317 380
#     4  12  22  48  68 104 144 176 246 292 338 446
#     4  10  21  37  61  90 120 159 212 260 312 384
#     4  12  26  46  74 105 143 193 235 297 365 421
#     4  10  22  42  63  92 128 173 218 266 332 409
#     4  12  26  45  70 102 139 180 230 293 345 416
#
# _framework density 21.517171999999999
#
# number of rings (size 3 to 8) (size 9 to 14) (size 15 to 20)
#    0.000    1.185    1.481    4.444    0.000    3.556 
#    0.000    5.185    0.000    0.000    0.000    0.000 
#    0.000    0.000    0.000    0.000    0.000    0.000 
#
# Total GULP energy -150458.352135 kJ/mol
# GULP energy per Si atom -5572.531561 kJ/mol
# Density = 2.146820 g / cm^3
# Si number density = 21.517172 Si / 1000 Ang^3
#
#
#
# Elastic Constant Matrix: (Units=GPa)
#
#
# Indices 1 2 3 4 5 6 
#
# 1 72.5490 30.8650 11.6001 0.0000 0.0000 0.0000
# 2 30.8650 128.5391 18.2543 0.0000 0.0000 0.0000
# 3 11.6001 18.2543 96.1207 0.0000 0.0000 0.0000
# 4 0.0000 0.0000 0.0000 6.1034 0.0000 0.0000
# 5 0.0000 0.0000 0.0000 0.0000 -11.6761 0.0000
# 6 0.0000 0.0000 0.0000 0.0000 0.0000 14.7621
#
#
#
# Elastic Compliance Matrix: (Units=1/GPa)
#
#
# Indices 1 2 3 4 5 6 
#
# 1 0.015484 -0.003548 -0.001195 0.000000 0.000000 0.000000
# 2 -0.003548 0.008809 -0.001245 0.000000 0.000000 0.000000
# 3 -0.001195 -0.001245 0.010784 0.000000 0.000000 0.000000
# 4 0.000000 0.000000 0.000000 0.163843 0.000000 0.000000
# 5 0.000000 0.000000 0.000000 0.000000 -0.085645 0.000000
# 6 0.000000 0.000000 0.000000 0.000000 0.000000 0.067741
#
#
# Mechanical properties :
#
#
# Convention : Reuss Voigt Hill
#
# Bulk Modulus (GPa) = 43.28742 46.51639 44.90190
# Shear Modulus (GPa) = 24.91369 17.60384 21.25876
#
# Velocity S-wave (km/s) = 3.40641 2.86340 3.14664
# Velocity P-wave (km/s) = 5.96932 5.70940 5.84081
#
# Compressibility (1/GPa) = 0.02310140
#
# Stress axis : x y z
#
# Youngs Moduli (GPa) = 64.58076 113.52610 92.72876
#
# Poissons Ratio (x) = 0.40284 0.11079
# Poissons Ratio (y) = 0.22916 0.11541
# Poissons Ratio (z) = 0.07716 0.14129
#
# Static dielectric constant tensor:
#      x y z
#    x 1.797690 0.000000 0.000000 
#    y 0.000000 1.865830 0.000000 
#    z 0.000000 0.000000 1.920990 
# 
# From -- ./inp_files/39619.got.cif
#   From: 2010.05.17/outbox.cif.g08.bks.cpg/sg21_20_cif.got.tgz:39619.got - 2010.06.03 23:14:55.
