data_PCOD9323327
_publ_section_title
;
Structure prediction by ZEFSAII (Michael W. Deem and Ramdas Pophale) SiO2 
 PCOD9323327
Probable space group: C 2 2 2
;
_chemical_formula_sum "Si O2"
_cell_formula_units_Z 32
_cell_length_a 8.656692
_cell_length_b 16.733009
_cell_length_c 11.981758
_cell_angle_alpha 90.000000
_cell_angle_beta 90.000000
_cell_angle_gamma 90.000000
_cell_volume 1735.587662
_symmetry_space_group_name_H-M "C 2 2 2"
_symmetry_group_IT_number 21
_symmetry_cell_setting 'orthorhombic'
loop_
_space_group_symop_operation_xyz
x,y,z
-x,-y,z
x,-y,-z
-x,y,-z
1/2+x,1/2+y,z
1/2-x,1/2-y,z
1/2+x,1/2-y,-z
1/2-x,1/2+y,-z
loop_
_atom_site_type_symbol
_atom_site_label
_atom_site_fract_x
_atom_site_fract_y
_atom_site_fract_z
Si Si1 0.822890 0.403475 0.505436
Si Si2 0.819222 0.513310 0.130424
Si Si3 0.104705 0.078262 0.695943
Si Si4 0.198288 0.840176 0.741524
O O1 0.829100 0.500000 0.500000
O O2 0.707493 0.385596 0.403450
O O3 0.755226 0.371740 0.620848
O O4 0.000000 0.374346 0.500000
O O5 0.716997 0.455636 0.208364
O O6 0.773704 0.602267 0.166876
O O7 0.000000 0.500000 0.153502
O O8 0.789534 0.500000 0.000000
O O9 0.984441 0.142990 0.741501
O O10 0.000000 0.000000 0.660114
O O11 0.250000 0.750000 0.756176
#
# Coordination Sequence:
#
# PCOD9323327 Si02
#       4
#     8   8   8   8
#     4  11  20  34  59  88 123 165 205 241 295 373
#     4  10  21  41  65  87 113 163 212 246 299 376
#     4  10  20  35  61  86 120 163 203 242 297 373
#     4  11  24  38  59  93 126 152 200 261 307 351
#
# _framework density 18.437560000000001
#
# number of rings (size 3 to 8) (size 9 to 14) (size 15 to 20)
#    0.000    1.500    5.000    2.250    0.000    6.500 
#    0.000    8.750    0.000    0.000    0.000    0.000 
#    0.000    0.000    0.000    0.000    0.000    0.000 
#
# Total GULP energy -89330.606851 kJ/mol
# GULP energy per Si atom -5583.162928 kJ/mol
# Density = 1.839560 g / cm^3
# Si number density = 18.437560 Si / 1000 Ang^3
#
#
#
# Elastic Constant Matrix: (Units=GPa)
#
#
# Indices 1 2 3 4 5 6 
#
# 1 140.9803 56.2318 84.4559 0.0000 0.0000 0.0000
# 2 56.2318 119.4177 63.5262 0.0000 0.0000 0.0000
# 3 84.4559 63.5262 122.1219 0.0000 0.0000 0.0000
# 4 0.0000 0.0000 0.0000 12.2896 0.0000 0.0000
# 5 0.0000 0.0000 0.0000 0.0000 46.7809 0.0000
# 6 0.0000 0.0000 0.0000 0.0000 0.0000 21.1186
#
#
#
# Elastic Compliance Matrix: (Units=1/GPa)
#
#
# Indices 1 2 3 4 5 6 
#
# 1 0.012373 -0.001762 -0.007640 0.000000 0.000000 0.000000
# 2 -0.001762 0.011829 -0.004935 0.000000 0.000000 0.000000
# 3 -0.007640 -0.004935 0.016039 0.000000 0.000000 0.000000
# 4 0.000000 0.000000 0.000000 0.081370 0.000000 0.000000
# 5 0.000000 0.000000 0.000000 0.000000 0.021376 0.000000
# 6 0.000000 0.000000 0.000000 0.000000 0.000000 0.047352
#
#
# Mechanical properties :
#
#
# Convention : Reuss Voigt Hill
#
# Bulk Modulus (GPa) = 86.45058 87.88306 87.16682
# Shear Modulus (GPa) = 22.43483 27.92489 25.17986
#
# Velocity S-wave (km/s) = 3.49205 3.89596 3.69952
# Velocity P-wave (km/s) = 7.95294 8.24662 8.10111
#
# Compressibility (1/GPa) = 0.01156730
#
# Stress axis : x y z
#
# Youngs Moduli (GPa) = 80.82180 84.54035 62.34696
#
# Poissons Ratio (x) = 0.14895 0.47635
# Poissons Ratio (y) = 0.14239 0.30766
# Poissons Ratio (z) = 0.61750 0.41718
#
# Static dielectric constant tensor:
#      x y z
#    x 1.671390 0.000000 0.000000 
#    y 0.000000 1.624430 0.000000 
#    z 0.000000 0.000000 1.617280 
# 
# From -- ./inp_files/21821.got.cif
#   From: 2010.05.17/outbox.cif.g08.bks.cpg/sg21_11_cif.got.tgz:21821.got - 2010.06.03 23:14:55.
