data_PCOD9323132
_publ_section_title
;
Structure prediction by ZEFSAII (Michael W. Deem and Ramdas Pophale) SiO2 
 PCOD9323132
Probable space group: C 2 2 2
;
_chemical_formula_sum "Si O2"
_cell_formula_units_Z 34
_cell_length_a 5.490058
_cell_length_b 37.864015
_cell_length_c 7.339132
_cell_angle_alpha 90.000000
_cell_angle_beta 90.000000
_cell_angle_gamma 90.000000
_cell_volume 1525.626750
_symmetry_space_group_name_H-M "C 2 2 2"
_symmetry_group_IT_number 21
_symmetry_cell_setting 'orthorhombic'
loop_
_space_group_symop_operation_xyz
x,y,z
-x,-y,z
x,-y,-z
-x,y,-z
1/2+x,1/2+y,z
1/2-x,1/2-y,z
1/2+x,1/2-y,-z
1/2-x,1/2+y,-z
loop_
_atom_site_type_symbol
_atom_site_label
_atom_site_fract_x
_atom_site_fract_y
_atom_site_fract_z
Si Si1 0.001050 0.234095 0.713942
Si Si2 0.001363 0.386528 0.223283
Si Si3 0.500000 0.500000 0.000000
Si Si4 0.108201 0.535578 0.794758
Si Si5 0.999950 0.848996 0.780654
O O1 0.250000 0.250000 0.792824
O O2 0.000000 0.243731 0.500000
O O3 0.750000 0.250000 0.790653
O O4 0.009761 0.192028 0.730656
O O5 0.743918 0.369638 0.281167
O O6 0.042044 0.426895 0.285548
O O7 0.241608 0.364998 0.281146
O O8 0.000000 0.386521 0.000000
O O9 0.382517 0.527126 0.852849
O O10 0.000000 0.500000 0.707408
O O11 0.000000 0.536183 0.000000
O O12 0.000000 0.851405 0.000000
#
# Coordination Sequence:
#
# PCOD9323132 Si02
#       5
#     8   8   2   8   8
#     4  10  21  37  56  74  95 123 158 198 239 285
#     4   9  18  28  43  64 100 131 160 196 237 284
#     4   8  14  20  36  54  84 128 180 200 218 284
#     4   8  15  22  35  57  86 130 170 194 232 273
#     4  10  20  32  48  73  99 128 157 192 243 288
#
# _framework density 22.285924000000001
#
# number of rings (size 3 to 8) (size 9 to 14) (size 15 to 20)
#    0.000    3.059    0.000    1.412   11.529    0.941 
#    0.000    0.000    0.000    0.000    0.000    0.000 
#    0.000    5.647    0.000    0.000    0.000    0.000 
#
# Total GULP energy -94703.897381 kJ/mol
# GULP energy per Si atom -5570.817493 kJ/mol
# Density = 2.223520 g / cm^3
# Si number density = 22.285924 Si / 1000 Ang^3
#
#
#
# Elastic Constant Matrix: (Units=GPa)
#
#
# Indices 1 2 3 4 5 6 
#
# 1 193.6475 102.7851 7.2942 0.0000 0.0000 0.0000
# 2 102.7851 168.9437 -19.1171 0.0000 0.0000 0.0000
# 3 7.2942 -19.1171 73.7175 0.0000 0.0000 0.0000
# 4 0.0000 0.0000 0.0000 49.7751 0.0000 0.0000
# 5 0.0000 0.0000 0.0000 0.0000 -18.5073 0.0000
# 6 0.0000 0.0000 0.0000 0.0000 0.0000 60.1642
#
#
#
# Elastic Compliance Matrix: (Units=1/GPa)
#
#
# Indices 1 2 3 4 5 6 
#
# 1 0.007930 -0.005062 -0.002097 0.000000 0.000000 0.000000
# 2 -0.005062 0.009329 0.002920 0.000000 0.000000 0.000000
# 3 -0.002097 0.002920 0.014530 0.000000 0.000000 0.000000
# 4 0.000000 0.000000 0.000000 0.020090 0.000000 0.000000
# 5 0.000000 0.000000 0.000000 0.000000 -0.054033 0.000000
# 6 0.000000 0.000000 0.000000 0.000000 0.000000 0.016621
#
#
# Mechanical properties :
#
#
# Convention : Reuss Voigt Hill
#
# Bulk Modulus (GPa) = 42.89785 68.69260 55.79522
# Shear Modulus (GPa) = 162.78127 41.30947 102.04537
#
# Velocity S-wave (km/s) = 8.55574 4.31003 6.77411
# Velocity P-wave (km/s) = 10.81164 7.46048 9.28844
#
# Compressibility (1/GPa) = 0.02331119
#
# Stress axis : x y z
#
# Youngs Moduli (GPa) = 126.10780 107.19109 68.82263
#
# Poissons Ratio (x) = 0.54258 0.14434
# Poissons Ratio (y) = 0.63833 -0.20097
# Poissons Ratio (z) = 0.26448 -0.31302
#
# Static dielectric constant tensor:
#      x y z
#    x 1.665330 0.000000 0.000000 
#    y 0.000000 2.319520 0.000000 
#    z 0.000000 0.000000 1.816710 
# 
# From -- ./inp_files/21344.got.cif
#   From: 2010.05.17/outbox.cif.g08.bks.cpg/sg21_11_cif.got.tgz:21344.got - 2010.06.03 23:14:55.
