data_PCOD9323664
_publ_section_title
;
Structure prediction by ZEFSAII (Michael W. Deem and Ramdas Pophale) SiO2 
 PCOD9323664
Probable space group: C 2 2 2
;
_chemical_formula_sum "Si O2"
_cell_formula_units_Z 26
_cell_length_a 14.972345
_cell_length_b 6.778161
_cell_length_c 13.973234
_cell_angle_alpha 90.000000
_cell_angle_beta 90.000000
_cell_angle_gamma 90.000000
_cell_volume 1418.073163
_symmetry_space_group_name_H-M "C 2 2 2"
_symmetry_group_IT_number 21
_symmetry_cell_setting 'orthorhombic'
loop_
_space_group_symop_operation_xyz
x,y,z
-x,-y,z
x,-y,-z
-x,y,-z
1/2+x,1/2+y,z
1/2-x,1/2-y,z
1/2+x,1/2-y,-z
1/2-x,1/2+y,-z
loop_
_atom_site_type_symbol
_atom_site_label
_atom_site_fract_x
_atom_site_fract_y
_atom_site_fract_z
Si Si1 0.938312 0.695777 0.343887
Si Si2 0.500000 0.500000 0.500000
Si Si3 0.500000 0.500000 0.817701
Si Si4 0.250000 0.750000 0.735015
Si Si5 0.311268 0.563214 0.108375
O O1 0.832976 0.662298 0.325097
O O2 0.000000 0.500000 0.357343
O O3 0.946530 0.850237 0.431380
O O4 0.973617 0.817915 0.251666
O O5 0.417773 0.421343 0.880425
O O6 0.286211 0.586684 0.807677
O O7 0.250000 0.750000 0.127183
O O8 0.290795 0.500000 0.000000
#
# Coordination Sequence:
#
# PCOD9323664 Si02
#       5
#     8   2   4   4   8
#     4  10  20  40  61  85 120 154 198 246 307 362
#     4  10  22  40  58  90 116 152 196 252 300 364
#     4   9  21  35  57  82 118 160 197 249 301 345
#     4  10  22  38  60  90 116 162 198 242 306 350
#     4  11  20  35  56  84 121 158 204 248 288 348
#
# _framework density 18.334735999999999
#
# number of rings (size 3 to 8) (size 9 to 14) (size 15 to 20)
#    0.000    1.846    1.538    2.769    0.000    0.000 
#    5.538    0.000    0.000    0.000    0.000    0.000 
#    0.000    0.000    0.000    0.000    0.000    0.000 
#
# Total GULP energy -72402.382224 kJ/mol
# GULP energy per Si atom -5569.414017 kJ/mol
# Density = 1.829301 g / cm^3
# Si number density = 18.334736 Si / 1000 Ang^3
#
#
#
# Elastic Constant Matrix: (Units=GPa)
#
#
# Indices 1 2 3 4 5 6 
#
# 1 148.3039 55.6930 39.0057 0.0000 0.0000 0.0000
# 2 55.6930 92.2384 29.1313 0.0000 0.0000 0.0000
# 3 39.0057 29.1313 76.6229 0.0000 0.0000 0.0000
# 4 0.0000 0.0000 0.0000 81.4822 0.0000 0.0000
# 5 0.0000 0.0000 0.0000 0.0000 -15.3105 0.0000
# 6 0.0000 0.0000 0.0000 0.0000 0.0000 27.5764
#
#
#
# Elastic Compliance Matrix: (Units=1/GPa)
#
#
# Indices 1 2 3 4 5 6 
#
# 1 0.009270 -0.004667 -0.002945 0.000000 0.000000 0.000000
# 2 -0.004667 0.014671 -0.003202 0.000000 0.000000 0.000000
# 3 -0.002945 -0.003202 0.015767 0.000000 0.000000 0.000000
# 4 0.000000 0.000000 0.000000 0.012273 0.000000 0.000000
# 5 0.000000 0.000000 0.000000 0.000000 -0.065315 0.000000
# 6 0.000000 0.000000 0.000000 0.000000 0.000000 0.036263
#
#
# Mechanical properties :
#
#
# Convention : Reuss Voigt Hill
#
# Bulk Modulus (GPa) = 55.30730 62.75837 59.03284
# Shear Modulus (GPa) = 98.84785 31.63863 65.24324
#
# Velocity S-wave (km/s) = 7.35051 4.15855 5.97175
# Velocity P-wave (km/s) = 10.11290 7.57375 8.93399
#
# Compressibility (1/GPa) = 0.01808080
#
# Stress axis : x y z
#
# Youngs Moduli (GPa) = 107.87399 68.16292 63.42292
#
# Poissons Ratio (x) = 0.31813 0.18675
# Poissons Ratio (y) = 0.50347 0.20306
# Poissons Ratio (z) = 0.31764 0.21824
#
# Static dielectric constant tensor:
#      x y z
#    x 1.675030 0.000000 0.000000 
#    y 0.000000 1.609640 0.000000 
#    z 0.000000 0.000000 1.612970 
# 
# From -- ./inp_files/20362.got.cif
#   From: 2010.05.17/outbox.cif.g08.bks.cpg/sg21_11_cif.got.tgz:20362.got - 2010.06.03 23:14:55.
