data_PCOD9323496
_publ_section_title
;
Structure prediction by ZEFSAII (Michael W. Deem and Ramdas Pophale) SiO2 
 PCOD9323496
Probable space group: C 2 2 2
;
_chemical_formula_sum "Si O2"
_cell_formula_units_Z 34
_cell_length_a 14.092315
_cell_length_b 5.519311
_cell_length_c 19.799174
_cell_angle_alpha 90.000000
_cell_angle_beta 90.000000
_cell_angle_gamma 90.000000
_cell_volume 1539.977164
_symmetry_space_group_name_H-M "C 2 2 2"
_symmetry_group_IT_number 21
_symmetry_cell_setting 'orthorhombic'
loop_
_space_group_symop_operation_xyz
x,y,z
-x,-y,z
x,-y,-z
-x,y,-z
1/2+x,1/2+y,z
1/2-x,1/2-y,z
1/2+x,1/2-y,-z
1/2-x,1/2+y,-z
loop_
_atom_site_type_symbol
_atom_site_label
_atom_site_fract_x
_atom_site_fract_y
_atom_site_fract_z
Si Si1 0.000000 0.000000 0.000000
Si Si2 0.102467 0.377865 0.905344
Si Si3 0.189069 0.000465 0.647078
Si Si4 0.109537 0.954923 0.206527
Si Si5 0.188141 0.000000 0.500000
Si Si6 0.250000 0.750000 0.887230
O O1 0.072800 0.843670 0.045952
O O2 0.130878 0.300227 0.829242
O O3 0.188341 0.551208 0.927037
O O4 0.000000 0.500000 0.901530
O O5 0.250000 0.250000 0.647553
O O6 0.128210 0.018660 0.714660
O O7 0.250000 0.750000 0.651456
O O8 0.138574 0.995980 0.573371
O O9 0.172915 0.132432 0.162359
O O10 0.000000 0.000000 0.193071
O O11 0.250000 0.750000 0.499896
#
# Coordination Sequence:
#
# PCOD9323496 Si02
#       6
#     2   8   8   8   4   4
#     4  12  26  52  84 106 152 190 240 308 382 456
#     4  12  25  48  82 104 147 190 238 304 369 449
#     4  10  20  37  63  99 140 192 248 300 368 433
#     4  12  24  42  71 105 141 187 243 302 358 437
#     4   8  16  32  57  90 137 190 242 298 359 434
#     4  12  24  46  78 104 140 188 242 292 368 436
#
# _framework density 22.078249
#
# number of rings (size 3 to 8) (size 9 to 14) (size 15 to 20)
#    0.000    0.941    4.706    2.471    0.000    0.000 
#    0.000    0.588   72.471    0.000    0.000    9.882 
#    0.000    0.000    0.000    0.000    0.000    0.000 
#
# Total GULP energy -94843.032344 kJ/mol
# GULP energy per Si atom -5579.001903 kJ/mol
# Density = 2.202800 g / cm^3
# Si number density = 22.078249 Si / 1000 Ang^3
#
#
#
# Elastic Constant Matrix: (Units=GPa)
#
#
# Indices 1 2 3 4 5 6 
#
# 1 130.8993 54.4449 61.4984 0.0000 0.0000 0.0000
# 2 54.4449 133.2607 50.3313 0.0000 0.0000 0.0000
# 3 61.4984 50.3313 200.8185 0.0000 0.0000 0.0000
# 4 0.0000 0.0000 0.0000 15.5218 0.0000 0.0000
# 5 0.0000 0.0000 0.0000 0.0000 20.5160 0.0000
# 6 0.0000 0.0000 0.0000 0.0000 0.0000 32.9619
#
#
#
# Elastic Compliance Matrix: (Units=1/GPa)
#
#
# Indices 1 2 3 4 5 6 
#
# 1 0.010056 -0.003253 -0.002264 0.000000 0.000000 0.000000
# 2 -0.003253 0.009341 -0.001345 0.000000 0.000000 0.000000
# 3 -0.002264 -0.001345 0.006010 0.000000 0.000000 0.000000
# 4 0.000000 0.000000 0.000000 0.064426 0.000000 0.000000
# 5 0.000000 0.000000 0.000000 0.000000 0.048743 0.000000
# 6 0.000000 0.000000 0.000000 0.000000 0.000000 0.030338
#
#
# Mechanical properties :
#
#
# Convention : Reuss Voigt Hill
#
# Bulk Modulus (GPa) = 85.59726 88.61420 87.10573
# Shear Modulus (GPa) = 26.80487 33.71353 30.25920
#
# Velocity S-wave (km/s) = 3.48815 3.91193 3.70610
# Velocity P-wave (km/s) = 7.42139 7.78638 7.60608
#
# Compressibility (1/GPa) = 0.01168262
#
# Stress axis : x y z
#
# Youngs Moduli (GPa) = 99.43861 107.05187 166.38690
#
# Poissons Ratio (x) = 0.34829 0.37674
# Poissons Ratio (y) = 0.32352 0.22377
# Poissons Ratio (z) = 0.22515 0.14397
#
# Static dielectric constant tensor:
#      x y z
#    x 1.762490 0.000000 0.000000 
#    y 0.000000 1.972960 0.000000 
#    z 0.000000 0.000000 1.825970 
# 
# From -- ./inp_files/37511.got.cif
#   From: 2010.05.17/outbox.cif.g08.bks.cpg/sg21_19_cif.got.tgz:37511.got - 2010.06.03 23:14:55.
