data_PCOD9323140
_publ_section_title
;
Structure prediction by ZEFSAII (Michael W. Deem and Ramdas Pophale) SiO2 
 PCOD9323140
Probable space group: C 2 2 2
;
_chemical_formula_sum "Si O2"
_cell_formula_units_Z 48
_cell_length_a 19.230742
_cell_length_b 19.507212
_cell_length_c 5.681834
_cell_angle_alpha 90.000000
_cell_angle_beta 90.000000
_cell_angle_gamma 90.000000
_cell_volume 2131.472758
_symmetry_space_group_name_H-M "C 2 2 2"
_symmetry_group_IT_number 21
_symmetry_cell_setting 'orthorhombic'
loop_
_space_group_symop_operation_xyz
x,y,z
-x,-y,z
x,-y,-z
-x,y,-z
1/2+x,1/2+y,z
1/2-x,1/2-y,z
1/2+x,1/2-y,-z
1/2-x,1/2+y,-z
loop_
_atom_site_type_symbol
_atom_site_label
_atom_site_fract_x
_atom_site_fract_y
_atom_site_fract_z
Si Si1 0.147168 0.580309 0.496600
Si Si2 0.250000 0.250000 0.971265
Si Si3 0.432387 0.385579 0.881785
Si Si4 0.000000 0.215277 0.500000
Si Si5 0.202884 0.873910 0.356665
Si Si6 0.627819 0.719907 0.260435
Si Si7 0.081087 0.416332 0.001117
O O1 0.130137 0.500000 0.500000
O O2 0.230579 0.588322 0.464139
O O3 0.118671 0.603790 0.752481
O O4 0.114343 0.607981 0.249316
O O5 0.231979 0.182510 0.825302
O O6 0.316327 0.234837 0.130740
O O7 0.464277 0.336020 0.684279
O O8 0.361453 0.416454 0.764672
O O9 0.500000 0.422542 0.000000
O O10 0.403957 0.334219 0.078445
O O11 0.062522 0.255799 0.382318
O O12 0.168830 0.826504 0.554983
O O13 0.083990 0.500000 0.000000
O O14 0.000000 0.395718 0.000000
#
# Coordination Sequence:
#
# PCOD9323140 Si02
#       7
#     8   4   8   4   8   8   8
#     4  10  21  35  58  90 118 147 189 243 296 339
#     4  10  20  32  50  76 106 150 192 226 286 334
#     4   8  15  28  49  75 102 133 180 226 271 334
#     4   8  14  28  48  76  95 124 180 232 269 320
#     4  10  20  32  52  82 110 147 188 239 284 340
#     4   9  17  30  50  75 101 137 183 231 273 332
#     4   9  18  35  59  86 114 151 197 233 279 350
#
# _framework density 22.519642000000001
#
# number of rings (size 3 to 8) (size 9 to 14) (size 15 to 20)
#    0.000    2.833    0.000    1.000    4.667    2.000 
#    0.000    0.000    0.000   12.000   13.000   26.833 
#    0.000    0.000    0.000    0.000    0.000    0.000 
#
# Total GULP energy -133681.723087 kJ/mol
# GULP energy per Si atom -5570.071795 kJ/mol
# Density = 2.246839 g / cm^3
# Si number density = 22.519642 Si / 1000 Ang^3
#
#
#
# Elastic Constant Matrix: (Units=GPa)
#
#
# Indices 1 2 3 4 5 6 
#
# 1 170.4155 5.3177 106.5054 0.0000 0.0000 0.0000
# 2 5.3177 32.0879 21.5761 0.0000 0.0000 0.0000
# 3 106.5054 21.5761 167.9443 0.0000 0.0000 0.0000
# 4 0.0000 0.0000 0.0000 6.5281 0.0000 0.0000
# 5 0.0000 0.0000 0.0000 0.0000 42.5481 0.0000
# 6 0.0000 0.0000 0.0000 0.0000 0.0000 18.0074
#
#
#
# Elastic Compliance Matrix: (Units=1/GPa)
#
#
# Indices 1 2 3 4 5 6 
#
# 1 0.009952 0.002840 -0.006676 0.000000 0.000000 0.000000
# 2 0.002840 0.034921 -0.006287 0.000000 0.000000 0.000000
# 3 -0.006676 -0.006287 0.010996 0.000000 0.000000 0.000000
# 4 0.000000 0.000000 0.000000 0.153183 0.000000 0.000000
# 5 0.000000 0.000000 0.000000 0.000000 0.023503 0.000000
# 6 0.000000 0.000000 0.000000 0.000000 0.000000 0.055533
#
#
# Mechanical properties :
#
#
# Convention : Reuss Voigt Hill
#
# Bulk Modulus (GPa) = 28.07264 70.80512 49.43888
# Shear Modulus (GPa) = 15.61484 29.21998 22.41741
#
# Velocity S-wave (km/s) = 2.63608 3.60604 3.15851
# Velocity P-wave (km/s) = 4.66456 6.98912 5.94163
#
# Compressibility (1/GPa) = 0.03562188
#
# Stress axis : x y z
#
# Youngs Moduli (GPa) = 100.48588 28.63577 90.94444
#
# Poissons Ratio (x) = -0.08132 0.60713
# Poissons Ratio (y) = -0.28535 0.57179
# Poissons Ratio (z) = 0.67083 0.18004
#
# Static dielectric constant tensor:
#      x y z
#    x 1.903070 0.000000 0.000000 
#    y 0.000000 1.817250 0.000000 
#    z 0.000000 0.000000 1.831700 
# 
# From -- ./inp_files/5207.got.cif
#   From: 2010.05.17/outbox.cif.g08.bks.cpg/sg21_3_cif.got.tgz:5207.got - 2010.06.03 23:14:55.
