data_PCOD9323573
_publ_section_title
;
Structure prediction by ZEFSAII (Michael W. Deem and Ramdas Pophale) SiO2 
 PCOD9323573
Probable space group: C 2 2 2
;
_chemical_formula_sum "Si O2"
_cell_formula_units_Z 40
_cell_length_a 8.064140
_cell_length_b 26.144388
_cell_length_c 8.297772
_cell_angle_alpha 90.000000
_cell_angle_beta 90.000000
_cell_angle_gamma 90.000000
_cell_volume 1749.435908
_symmetry_space_group_name_H-M "C 2 2 2"
_symmetry_group_IT_number 21
_symmetry_cell_setting 'orthorhombic'
loop_
_space_group_symop_operation_xyz
x,y,z
-x,-y,z
x,-y,-z
-x,y,-z
1/2+x,1/2+y,z
1/2-x,1/2-y,z
1/2+x,1/2-y,-z
1/2-x,1/2+y,-z
loop_
_atom_site_type_symbol
_atom_site_label
_atom_site_fract_x
_atom_site_fract_y
_atom_site_fract_z
Si Si1 0.874043 0.905431 0.373462
Si Si2 0.735799 0.305412 0.415001
Si Si3 0.941623 0.553175 0.313003
Si Si4 0.933073 0.181288 0.824538
Si Si5 0.543811 0.832303 0.184356
O O1 0.789739 0.856508 0.474915
O O2 0.753786 0.949701 0.326765
O O3 0.945668 0.879353 0.214270
O O4 0.000000 0.925791 0.500000
O O5 0.750000 0.250000 0.498802
O O6 0.569530 0.299961 0.305309
O O7 0.901547 0.312214 0.306402
O O8 0.965412 0.606539 0.219785
O O9 0.000000 0.500000 0.241735
O O10 0.000000 0.558456 0.500000
O O11 0.733762 0.189326 0.807009
O O12 0.000000 0.195186 0.000000
O O13 0.500000 0.822437 0.000000
#
# Coordination Sequence:
#
# PCOD9323573 Si02
#       5
#     8   8   8   8   8
#     4   9  20  41  63  89 128 168 207 275 325 383
#     4  11  23  41  61  92 126 170 225 265 321 388
#     4  10  20  38  66  93 120 159 215 266 324 398
#     4  10  21  40  60  90 122 168 212 258 322 386
#     4  11  22  40  66  87 129 173 206 277 328 382
#
# _framework density 22.864512000000001
#
# number of rings (size 3 to 8) (size 9 to 14) (size 15 to 20)
#    0.000    1.800    4.000    0.000    0.000    2.000 
#   21.600    2.000    0.000    0.000    0.000    0.000 
#    0.000    0.000    0.000    0.000    0.000    0.000 
#
# Total GULP energy -111357.371091 kJ/mol
# GULP energy per Si atom -5567.868555 kJ/mol
# Density = 2.281247 g / cm^3
# Si number density = 22.864512 Si / 1000 Ang^3
#
#
#
# Elastic Constant Matrix: (Units=GPa)
#
#
# Indices 1 2 3 4 5 6 
#
# 1 139.3744 57.5515 29.8809 0.0000 0.0000 0.0000
# 2 57.5515 126.0260 14.5699 0.0000 0.0000 0.0000
# 3 29.8809 14.5699 95.3470 0.0000 0.0000 0.0000
# 4 0.0000 0.0000 0.0000 8.0373 0.0000 0.0000
# 5 0.0000 0.0000 0.0000 0.0000 25.7589 0.0000
# 6 0.0000 0.0000 0.0000 0.0000 0.0000 95.4111
#
#
#
# Elastic Compliance Matrix: (Units=1/GPa)
#
#
# Indices 1 2 3 4 5 6 
#
# 1 0.009317 -0.003988 -0.002310 0.000000 0.000000 0.000000
# 2 -0.003988 0.009784 -0.000245 0.000000 0.000000 0.000000
# 3 -0.002310 -0.000245 0.011250 0.000000 0.000000 0.000000
# 4 0.000000 0.000000 0.000000 0.124420 0.000000 0.000000
# 5 0.000000 0.000000 0.000000 0.000000 0.038821 0.000000
# 6 0.000000 0.000000 0.000000 0.000000 0.000000 0.010481
#
#
# Mechanical properties :
#
#
# Convention : Reuss Voigt Hill
#
# Bulk Modulus (GPa) = 57.92505 62.75021 60.33763
# Shear Modulus (GPa) = 22.43012 43.09115 32.76064
#
# Velocity S-wave (km/s) = 3.13549 4.34594 3.78936
# Velocity P-wave (km/s) = 6.20463 7.25857 6.75220
#
# Compressibility (1/GPa) = 0.01726369
#
# Stress axis : x y z
#
# Youngs Moduli (GPa) = 107.33264 102.20550 88.89202
#
# Poissons Ratio (x) = 0.40755 0.20538
# Poissons Ratio (y) = 0.42799 0.02182
# Poissons Ratio (z) = 0.24799 0.02509
#
# Static dielectric constant tensor:
#      x y z
#    x 1.995960 0.000000 0.000000 
#    y 0.000000 1.846620 0.000000 
#    z 0.000000 0.000000 1.893230 
# 
# From -- ./inp_files/11213.got.cif
#   From: 2010.05.17/outbox.cif.g08.bks.cpg/sg21_6_cif.got.tgz:11213.got - 2010.06.03 23:14:55.
