data_PCOD9323947
_publ_section_title
;
Structure prediction by ZEFSAII (Michael W. Deem and Ramdas Pophale) SiO2 
 PCOD9323947
Probable space group: C 2 2 2
;
_chemical_formula_sum "Si O2"
_cell_formula_units_Z 60
_cell_length_a 24.072646
_cell_length_b 20.349668
_cell_length_c 6.132655
_cell_angle_alpha 90.000000
_cell_angle_beta 90.000000
_cell_angle_gamma 90.000000
_cell_volume 3004.205876
_symmetry_space_group_name_H-M "C 2 2 2"
_symmetry_group_IT_number 21
_symmetry_cell_setting 'orthorhombic'
loop_
_space_group_symop_operation_xyz
x,y,z
-x,-y,z
x,-y,-z
-x,y,-z
1/2+x,1/2+y,z
1/2-x,1/2-y,z
1/2+x,1/2-y,-z
1/2-x,1/2+y,-z
loop_
_atom_site_type_symbol
_atom_site_label
_atom_site_fract_x
_atom_site_fract_y
_atom_site_fract_z
Si Si1 0.939204 0.197719 0.926072
Si Si2 0.434202 0.922006 0.479836
Si Si3 0.235723 0.062604 0.133638
Si Si4 0.649860 0.619011 0.786318
Si Si5 0.631870 0.273153 0.526595
Si Si6 0.663073 0.148935 0.761983
Si Si7 0.096632 0.677465 0.146517
Si Si8 0.157268 0.000000 0.500000
O O1 0.896699 0.155255 0.070383
O O2 0.936383 0.276288 0.978454
O O3 0.915232 0.194493 0.680841
O O4 0.000000 0.176058 0.000000
O O5 0.500000 0.908154 0.500000
O O6 0.390728 0.886591 0.647707
O O7 0.423026 0.891166 0.241996
O O8 0.425740 0.000000 0.500000
O O9 0.283283 0.104208 0.249471
O O10 0.194987 0.037521 0.323095
O O11 0.199110 0.100437 0.951584
O O12 0.259453 0.000000 0.000000
O O13 0.665709 0.671849 0.601462
O O14 0.628441 0.555100 0.652235
O O15 0.668251 0.221696 0.662484
O O16 0.602929 0.226306 0.349224
O O17 0.652214 0.160942 0.017289
#
# Coordination Sequence:
#
# PCOD9323947 Si02
#       8
#     8   8   8   8   8   8   8   4
#     4  10  21  37  66  94 120 163 207 257 314 386
#     4  10  23  36  54  87 128 173 215 263 318 366
#     4  10  23  39  65  92 120 170 216 266 321 384
#     4  10  21  41  63  92 124 159 212 252 327 388
#     4   9  20  40  59  90 128 159 202 265 314 377
#     4  10  22  39  60  92 124 166 223 263 315 378
#     4   9  21  35  57  85 124 163 208 262 306 370
#     4  10  22  42  66  87 121 162 204 264 316 386
#
# _framework density 19.971999
#
# number of rings (size 3 to 8) (size 9 to 14) (size 15 to 20)
#    0.000    2.267    0.000    0.800    8.400    4.800 
#    0.000   17.333    0.000   16.400    0.000    0.000 
#    0.000    0.000    0.000    0.000    0.000    0.000 
#
# Total GULP energy -167014.888750 kJ/mol
# GULP energy per Si atom -5567.162958 kJ/mol
# Density = 1.992654 g / cm^3
# Si number density = 19.971999 Si / 1000 Ang^3
#
#
#
# Elastic Constant Matrix: (Units=GPa)
#
#
# Indices 1 2 3 4 5 6 
#
# 1 62.0409 46.8466 23.8052 0.0000 0.0000 0.0000
# 2 46.8466 96.5438 34.7326 0.0000 0.0000 0.0000
# 3 23.8052 34.7326 93.6290 0.0000 0.0000 0.0000
# 4 0.0000 0.0000 0.0000 37.6011 0.0000 0.0000
# 5 0.0000 0.0000 0.0000 0.0000 5.6658 0.0000
# 6 0.0000 0.0000 0.0000 0.0000 0.0000 13.3173
#
#
#
# Elastic Compliance Matrix: (Units=1/GPa)
#
#
# Indices 1 2 3 4 5 6 
#
# 1 0.025831 -0.011738 -0.002213 0.000000 0.000000 0.000000
# 2 -0.011738 0.017287 -0.003428 0.000000 0.000000 0.000000
# 3 -0.002213 -0.003428 0.012515 0.000000 0.000000 0.000000
# 4 0.000000 0.000000 0.000000 0.026595 0.000000 0.000000
# 5 0.000000 0.000000 0.000000 0.000000 0.176499 0.000000
# 6 0.000000 0.000000 0.000000 0.000000 0.000000 0.075090
#
#
# Mechanical properties :
#
#
# Convention : Reuss Voigt Hill
#
# Bulk Modulus (GPa) = 47.90694 51.44249 49.67471
# Shear Modulus (GPa) = 13.31440 21.10547 17.20993
#
# Velocity S-wave (km/s) = 2.58476 3.25430 2.93866
# Velocity P-wave (km/s) = 5.73996 6.31932 6.03660
#
# Compressibility (1/GPa) = 0.02087380
#
# Stress axis : x y z
#
# Youngs Moduli (GPa) = 38.71360 57.84690 79.90422
#
# Poissons Ratio (x) = 0.67899 0.17685
# Poissons Ratio (y) = 0.45441 0.27395
# Poissons Ratio (z) = 0.08568 0.19833
#
# Static dielectric constant tensor:
#      x y z
#    x 1.708830 0.000000 0.000000 
#    y 0.000000 1.748290 0.000000 
#    z 0.000000 0.000000 1.766540 
# 
# From -- ./inp_files/6825.got.cif
#   From: 2010.05.17/outbox.cif.g08.bks.cpg/sg21_4_cif.got.tgz:6825.got - 2010.06.03 23:14:55.
