data_PCOD9323700
_publ_section_title
;
Structure prediction by ZEFSAII (Michael W. Deem and Ramdas Pophale) SiO2 
 PCOD9323700
Probable space group: C 2 2 2
;
_chemical_formula_sum "Si O2"
_cell_formula_units_Z 34
_cell_length_a 13.381870
_cell_length_b 5.358790
_cell_length_c 20.579617
_cell_angle_alpha 90.000000
_cell_angle_beta 90.000000
_cell_angle_gamma 90.000000
_cell_volume 1475.777324
_symmetry_space_group_name_H-M "C 2 2 2"
_symmetry_group_IT_number 21
_symmetry_cell_setting 'orthorhombic'
loop_
_space_group_symop_operation_xyz
x,y,z
-x,-y,z
x,-y,-z
-x,y,-z
1/2+x,1/2+y,z
1/2-x,1/2-y,z
1/2+x,1/2-y,-z
1/2-x,1/2+y,-z
loop_
_atom_site_type_symbol
_atom_site_label
_atom_site_fract_x
_atom_site_fract_y
_atom_site_fract_z
Si Si1 0.000000 0.000000 0.000000
Si Si2 0.095882 0.350194 0.903344
Si Si3 0.181367 0.000341 0.641106
Si Si4 0.144799 0.899417 0.220206
Si Si5 0.181814 0.000000 0.500000
Si Si6 0.250000 0.750000 0.873329
O O1 0.918694 0.882134 0.950094
O O2 0.081613 0.270386 0.828139
O O3 0.194331 0.522050 0.908967
O O4 0.000000 0.500000 0.924794
O O5 0.250000 0.250000 0.638162
O O6 0.117345 0.030065 0.706714
O O7 0.250000 0.750000 0.648470
O O8 0.129064 0.990295 0.570369
O O9 0.250000 0.750000 0.225328
O O10 0.167849 0.138021 0.175907
O O11 0.250000 0.750000 0.500232
#
# Coordination Sequence:
#
# PCOD9323700 Si02
#       6
#     2   8   8   8   4   4
#     4  12  26  48  72  94 136 174 208 284 354 416
#     4  11  24  43  73  92 131 171 211 273 338 404
#     4   9  15  26  46  78 122 170 212 266 322 381
#     4   9  18  33  59  88 122 162 212 267 317 380
#     4   8  14  22  38  70 118 171 209 254 322 382
#     4  10  20  40  70  98 122 164 220 260 324 398
#
# _framework density 23.038703999999999
#
# number of rings (size 3 to 8) (size 9 to 14) (size 15 to 20)
#    0.000    2.353    1.176    1.765    0.000    0.000 
#    0.000    0.000  116.471    0.000    0.000    0.000 
#    0.000   14.118    2.353    0.000    0.000    0.000 
#
# Total GULP energy -94653.890066 kJ/mol
# GULP energy per Si atom -5567.875886 kJ/mol
# Density = 2.298627 g / cm^3
# Si number density = 23.038704 Si / 1000 Ang^3
#
#
#
# Elastic Constant Matrix: (Units=GPa)
#
#
# Indices 1 2 3 4 5 6 
#
# 1 70.8782 23.7434 46.5921 0.0000 0.0000 0.0000
# 2 23.7434 111.6735 33.5700 0.0000 0.0000 0.0000
# 3 46.5921 33.5700 227.8252 0.0000 0.0000 0.0000
# 4 0.0000 0.0000 0.0000 28.9250 0.0000 0.0000
# 5 0.0000 0.0000 0.0000 0.0000 24.8847 0.0000
# 6 0.0000 0.0000 0.0000 0.0000 0.0000 16.9106
#
#
#
# Elastic Compliance Matrix: (Units=1/GPa)
#
#
# Indices 1 2 3 4 5 6 
#
# 1 0.017041 -0.002695 -0.003088 0.000000 0.000000 0.000000
# 2 -0.002695 0.009796 -0.000892 0.000000 0.000000 0.000000
# 3 -0.003088 -0.000892 0.005152 0.000000 0.000000 0.000000
# 4 0.000000 0.000000 0.000000 0.034572 0.000000 0.000000
# 5 0.000000 0.000000 0.000000 0.000000 0.040185 0.000000
# 6 0.000000 0.000000 0.000000 0.000000 0.000000 0.059135
#
#
# Mechanical properties :
#
#
# Convention : Reuss Voigt Hill
#
# Bulk Modulus (GPa) = 53.65058 68.68754 61.16906
# Shear Modulus (GPa) = 26.96215 34.57549 30.76882
#
# Velocity S-wave (km/s) = 3.42467 3.87816 3.65845
# Velocity P-wave (km/s) = 6.24304 7.06627 6.66738
#
# Compressibility (1/GPa) = 0.01863913
#
# Stress axis : x y z
#
# Youngs Moduli (GPa) = 58.68056 102.08358 194.08693
#
# Poissons Ratio (x) = 0.27511 0.59934
# Poissons Ratio (y) = 0.15814 0.17318
# Poissons Ratio (z) = 0.18121 0.09109
#
# Static dielectric constant tensor:
#      x y z
#    x 1.710500 0.000000 0.000000 
#    y 0.000000 1.938670 0.000000 
#    z 0.000000 0.000000 1.913090 
# 
# From -- ./inp_files/37512.got.cif
#   From: 2010.05.17/outbox.cif.g08.bks.cpg/sg21_19_cif.got.tgz:37512.got - 2010.06.03 23:14:55.
