data_PCOD9323894
_publ_section_title
;
Structure prediction by ZEFSAII (Michael W. Deem and Ramdas Pophale) SiO2 
 PCOD9323894
Probable space group: C 2 2 2
;
_chemical_formula_sum "Si O2"
_cell_formula_units_Z 56
_cell_length_a 16.112753
_cell_length_b 8.305054
_cell_length_c 21.862224
_cell_angle_alpha 90.000000
_cell_angle_beta 90.000000
_cell_angle_gamma 90.000000
_cell_volume 2925.543432
_symmetry_space_group_name_H-M "C 2 2 2"
_symmetry_group_IT_number 21
_symmetry_cell_setting 'orthorhombic'
loop_
_space_group_symop_operation_xyz
x,y,z
-x,-y,z
x,-y,-z
-x,y,-z
1/2+x,1/2+y,z
1/2-x,1/2-y,z
1/2+x,1/2-y,-z
1/2-x,1/2+y,-z
loop_
_atom_site_type_symbol
_atom_site_label
_atom_site_fract_x
_atom_site_fract_y
_atom_site_fract_z
Si Si1 0.005226 0.807330 0.787925
Si Si2 0.654699 0.309329 0.993704
Si Si3 0.841056 0.805777 0.426932
Si Si4 0.497510 0.303167 0.647879
Si Si5 0.841941 0.310406 0.860841
Si Si6 0.341082 0.694370 0.431852
Si Si7 0.578737 0.881102 0.894752
O O1 0.943698 0.732820 0.838089
O O2 0.989591 0.754447 0.718425
O O3 0.095255 0.743678 0.808593
O O4 0.000000 0.000000 0.790798
O O5 0.750000 0.250000 0.999724
O O6 0.601952 0.216736 0.044820
O O7 0.650298 0.500000 0.000000
O O8 0.628134 0.267088 0.924931
O O9 0.750000 0.750000 0.406175
O O10 0.916881 0.750665 0.384430
O O11 0.852327 0.752016 0.497563
O O12 0.841957 0.000092 0.429362
O O13 0.500000 0.500000 0.646954
O O14 0.417741 0.249222 0.609185
O O15 0.750000 0.250000 0.848589
O O16 0.847148 0.500394 0.874209
O O17 0.250000 0.750000 0.411310
O O18 0.500000 0.000000 0.904528
#
# Coordination Sequence:
#
# PCOD9323894 Si02
#       7
#     8   8   8   8   8   8   8
#     4  10  21  37  54  76 106 142 186 226 267 322
#     4  11  21  36  60  88 112 139 178 225 278 329
#     4   9  17  31  54  81 106 138 177 220 270 322
#     4   9  18  34  54  76 105 144 184 221 264 322
#     4  10  21  38  57  79 108 141 177 222 274 325
#     4   9  17  32  53  79 109 138 175 221 270 322
#     4  10  22  39  57  80 111 144 181 225 273 325
#
# _framework density 19.141743000000002
#
# number of rings (size 3 to 8) (size 9 to 14) (size 15 to 20)
#    0.000    2.286    0.000    3.429    0.000    6.286 
#    0.000   13.571    0.000    3.429    0.000    0.000 
#    0.000    0.000    0.000    0.000    0.000    0.000 
#
# Total GULP energy -156326.449673 kJ/mol
# GULP energy per Si atom -5583.087488 kJ/mol
# Density = 1.909818 g / cm^3
# Si number density = 19.141743 Si / 1000 Ang^3
#
#
#
# Elastic Constant Matrix: (Units=GPa)
#
#
# Indices 1 2 3 4 5 6 
#
# 1 96.1881 13.2113 60.2880 0.0000 0.0000 0.0000
# 2 13.2113 56.1886 15.1527 0.0000 0.0000 0.0000
# 3 60.2880 15.1527 106.0729 0.0000 0.0000 0.0000
# 4 0.0000 0.0000 0.0000 9.2604 0.0000 0.0000
# 5 0.0000 0.0000 0.0000 0.0000 4.9218 0.0000
# 6 0.0000 0.0000 0.0000 0.0000 0.0000 30.7971
#
#
#
# Elastic Compliance Matrix: (Units=1/GPa)
#
#
# Indices 1 2 3 4 5 6 
#
# 1 0.016252 -0.001384 -0.009039 0.000000 0.000000 0.000000
# 2 -0.001384 0.018628 -0.001875 0.000000 0.000000 0.000000
# 3 -0.009039 -0.001875 0.014833 0.000000 0.000000 0.000000
# 4 0.000000 0.000000 0.000000 0.107986 0.000000 0.000000
# 5 0.000000 0.000000 0.000000 0.000000 0.203179 0.000000
# 6 0.000000 0.000000 0.000000 0.000000 0.000000 0.032471
#
#
# Mechanical properties :
#
#
# Convention : Reuss Voigt Hill
#
# Bulk Modulus (GPa) = 39.81252 48.41707 44.11480
# Shear Modulus (GPa) = 11.72838 20.31570 16.02204
#
# Velocity S-wave (km/s) = 2.47799 3.26134 2.89627
# Velocity P-wave (km/s) = 5.38806 6.28734 5.85499
#
# Compressibility (1/GPa) = 0.02511772
#
# Stress axis : x y z
#
# Youngs Moduli (GPa) = 61.53098 53.68248 67.41746
#
# Poissons Ratio (x) = 0.07427 0.60941
# Poissons Ratio (y) = 0.08513 0.12639
# Poissons Ratio (z) = 0.55620 0.10064
#
# Static dielectric constant tensor:
#      x y z
#    x 1.672500 0.000000 0.000000 
#    y 0.000000 1.690910 0.000000 
#    z 0.000000 0.000000 1.645390 
# 
# From -- ./inp_files/37603.got.cif
#   From: 2010.05.17/outbox.cif.g08.bks.cpg/sg21_19_cif.got.tgz:37603.got - 2010.06.03 23:14:55.
