data_PCOD9323959
_publ_section_title
;
Structure prediction by ZEFSAII (Michael W. Deem and Ramdas Pophale) SiO2 
 PCOD9323959
Probable space group: C 2 2 2
;
_chemical_formula_sum "Si O2"
_cell_formula_units_Z 54
_cell_length_a 9.599572
_cell_length_b 27.698443
_cell_length_c 10.684788
_cell_angle_alpha 90.000000
_cell_angle_beta 90.000000
_cell_angle_gamma 90.000000
_cell_volume 2841.012450
_symmetry_space_group_name_H-M "C 2 2 2"
_symmetry_group_IT_number 21
_symmetry_cell_setting 'orthorhombic'
loop_
_space_group_symop_operation_xyz
x,y,z
-x,-y,z
x,-y,-z
-x,y,-z
1/2+x,1/2+y,z
1/2-x,1/2-y,z
1/2+x,1/2-y,-z
1/2-x,1/2+y,-z
loop_
_atom_site_type_symbol
_atom_site_label
_atom_site_fract_x
_atom_site_fract_y
_atom_site_fract_z
Si Si1 0.500000 0.814646 0.500000
Si Si2 0.885907 0.213968 0.888163
Si Si3 0.783096 0.852723 0.495813
Si Si4 0.388348 0.385834 0.228879
Si Si5 0.108541 0.766967 0.324935
Si Si6 0.668684 0.509796 0.142047
Si Si7 0.000000 0.000000 0.500000
Si Si8 0.163366 0.069968 0.689142
O O1 0.630684 0.841603 0.443215
O O2 0.434758 0.780487 0.397413
O O3 0.750000 0.250000 0.895331
O O4 0.846463 0.157469 0.864658
O O5 0.980284 0.221577 0.764016
O O6 0.000000 0.219452 0.000000
O O7 0.866011 0.871570 0.374997
O O8 0.854784 0.807867 0.570339
O O9 0.758915 0.892094 0.603478
O O10 0.313044 0.435944 0.191987
O O11 0.553135 0.399401 0.227150
O O12 0.250000 0.750000 0.255042
O O13 0.500000 0.500000 0.150910
O O14 0.740385 0.468436 0.224657
O O15 0.707414 0.500000 0.000000
O O16 0.915238 0.035333 0.409833
#
# Coordination Sequence:
#
# PCOD9323959 Si02
#       8
#     4   8   8   8   8   8   2   8
#     4  10  22  35  56  85 116 155 195 242 298 358
#     4  12  26  41  59  84 117 158 202 248 296 357
#     4  11  20  34  57  87 118 152 193 240 304 364
#     4  11  20  33  58  86 115 147 188 239 300 350
#     4  10  21  38  58  81 116 157 200 245 293 357
#     4   9  19  32  52  83 115 145 186 242 296 346
#     4  12  16  30  50  86 120 144 178 234 298 348
#     4  11  18  30  54  87 118 148 181 237 300 359
#
# _framework density 19.007307999999998
#
# number of rings (size 3 to 8) (size 9 to 14) (size 15 to 20)
#    0.000    1.333    5.185    2.222    4.148    1.185 
#    0.000    0.000    0.000    4.000    0.000    1.037 
#    0.000    0.000    0.000    0.000    0.000    0.000 
#
# Total GULP energy -150309.329679 kJ/mol
# GULP energy per Si atom -5567.012210 kJ/mol
# Density = 1.896405 g / cm^3
# Si number density = 19.007308 Si / 1000 Ang^3
#
#
#
# Elastic Constant Matrix: (Units=GPa)
#
#
# Indices 1 2 3 4 5 6 
#
# 1 62.5870 41.2140 19.9932 0.0000 0.0000 0.0000
# 2 41.2140 125.6471 35.9924 0.0000 0.0000 0.0000
# 3 19.9932 35.9924 82.3261 0.0000 0.0000 0.0000
# 4 0.0000 0.0000 0.0000 23.8600 0.0000 0.0000
# 5 0.0000 0.0000 0.0000 0.0000 14.5130 0.0000
# 6 0.0000 0.0000 0.0000 0.0000 0.0000 61.7332
#
#
#
# Elastic Compliance Matrix: (Units=1/GPa)
#
#
# Indices 1 2 3 4 5 6 
#
# 1 0.020774 -0.006138 -0.002362 0.000000 0.000000 0.000000
# 2 -0.006138 0.010912 -0.003280 0.000000 0.000000 0.000000
# 3 -0.002362 -0.003280 0.014154 0.000000 0.000000 0.000000
# 4 0.000000 0.000000 0.000000 0.041911 0.000000 0.000000
# 5 0.000000 0.000000 0.000000 0.000000 0.068904 0.000000
# 6 0.000000 0.000000 0.000000 0.000000 0.000000 0.016199
#
#
# Mechanical properties :
#
#
# Convention : Reuss Voigt Hill
#
# Bulk Modulus (GPa) = 44.88065 51.66216 48.27141
# Shear Modulus (GPa) = 24.52918 31.57862 28.05390
#
# Velocity S-wave (km/s) = 3.59627 4.08044 3.84598
# Velocity P-wave (km/s) = 6.39592 7.03130 6.72112
#
# Compressibility (1/GPa) = 0.02228132
#
# Stress axis : x y z
#
# Youngs Moduli (GPa) = 48.13740 91.64589 70.64976
#
# Poissons Ratio (x) = 0.56249 0.16685
# Poissons Ratio (y) = 0.29545 0.23173
# Poissons Ratio (z) = 0.11369 0.30059
#
# Static dielectric constant tensor:
#      x y z
#    x 1.752830 0.000000 0.000000 
#    y 0.000000 1.741730 0.000000 
#    z 0.000000 0.000000 1.732620 
# 
# From -- ./inp_files/22980.got.cif
#   From: 2010.05.17/outbox.cif.g08.bks.cpg/sg21_12_cif.got.tgz:22980.got - 2010.06.03 23:14:55.
