data_PCOD9323754
_publ_section_title
;
Structure prediction by ZEFSAII (Michael W. Deem and Ramdas Pophale) SiO2 
 PCOD9323754
Probable space group: C 2 2 2
;
_chemical_formula_sum "Si O2"
_cell_formula_units_Z 28
_cell_length_a 20.113214
_cell_length_b 8.253572
_cell_length_c 9.059012
_cell_angle_alpha 90.000000
_cell_angle_beta 90.000000
_cell_angle_gamma 90.000000
_cell_volume 1503.849077
_symmetry_space_group_name_H-M "C 2 2 2"
_symmetry_group_IT_number 21
_symmetry_cell_setting 'orthorhombic'
loop_
_space_group_symop_operation_xyz
x,y,z
-x,-y,z
x,-y,-z
-x,y,-z
1/2+x,1/2+y,z
1/2-x,1/2-y,z
1/2+x,1/2-y,-z
1/2-x,1/2+y,-z
loop_
_atom_site_type_symbol
_atom_site_label
_atom_site_fract_x
_atom_site_fract_y
_atom_site_fract_z
Si Si1 0.806069 0.130037 0.379658
Si Si2 0.716115 0.075346 0.837732
Si Si3 0.500000 0.000000 0.000000
Si Si4 0.000000 0.500000 0.500000
Si Si5 0.094568 0.389810 0.747958
O O1 0.750000 0.250000 0.451438
O O2 0.858980 0.237462 0.290133
O O3 0.831321 0.000000 0.500000
O O4 0.765713 0.031630 0.258071
O O5 0.750000 0.250000 0.846998
O O6 0.643676 0.046451 0.763123
O O7 0.709040 0.000000 0.000000
O O8 0.452030 0.105436 0.893009
O O9 0.953140 0.598928 0.608275
#
# Coordination Sequence:
#
# PCOD9323754 Si02
#       5
#     8   8   2   2   8
#     4  10  22  37  62  96 123 156 197 261 320 361
#     4  11  22  37  65  94 120 154 202 266 316 361
#     4  10  20  42  68  84 120 174 210 248 296 374
#     4  10  24  38  62  82 120 178 210 236 304 374
#     4  10  22  40  64  87 123 163 214 247 307 374
#
# _framework density 18.618888999999999
#
# number of rings (size 3 to 8) (size 9 to 14) (size 15 to 20)
#    0.000    1.714    1.429    3.429   12.000    0.000 
#    0.000    0.714    0.000    1.714    0.000    0.000 
#    0.000    0.000    0.000    0.000    0.000    0.000 
#
# Total GULP energy -78026.541259 kJ/mol
# GULP energy per Si atom -5573.324376 kJ/mol
# Density = 1.857651 g / cm^3
# Si number density = 18.618889 Si / 1000 Ang^3
#
#
#
# Elastic Constant Matrix: (Units=GPa)
#
#
# Indices 1 2 3 4 5 6 
#
# 1 123.6751 53.3698 52.7811 0.0000 0.0000 0.0000
# 2 53.3698 95.8800 30.7830 0.0000 0.0000 0.0000
# 3 52.7811 30.7830 110.8920 0.0000 0.0000 0.0000
# 4 0.0000 0.0000 0.0000 22.5998 0.0000 0.0000
# 5 0.0000 0.0000 0.0000 0.0000 0.9642 0.0000
# 6 0.0000 0.0000 0.0000 0.0000 0.0000 15.6623
#
#
#
# Elastic Compliance Matrix: (Units=1/GPa)
#
#
# Indices 1 2 3 4 5 6 
#
# 1 0.012287 -0.005447 -0.004336 0.000000 0.000000 0.000000
# 2 -0.005447 0.013865 -0.001256 0.000000 0.000000 0.000000
# 3 -0.004336 -0.001256 0.011430 0.000000 0.000000 0.000000
# 4 0.000000 0.000000 0.000000 0.044248 0.000000 0.000000
# 5 0.000000 0.000000 0.000000 0.000000 1.037091 0.000000
# 6 0.000000 0.000000 0.000000 0.000000 0.000000 0.063848
#
#
# Mechanical properties :
#
#
# Convention : Reuss Voigt Hill
#
# Bulk Modulus (GPa) = 64.50176 67.14611 65.82394
# Shear Modulus (GPa) = 4.13218 20.74615 12.43916
#
# Velocity S-wave (km/s) = 1.49136 3.34166 2.58756
# Velocity P-wave (km/s) = 6.13873 7.14358 6.66013
#
# Compressibility (1/GPa) = 0.01550345
#
# Stress axis : x y z
#
# Youngs Moduli (GPa) = 81.38821 72.12387 87.48661
#
# Poissons Ratio (x) = 0.39286 0.37935
# Poissons Ratio (y) = 0.44333 0.10990
# Poissons Ratio (z) = 0.35290 0.09060
#
# Static dielectric constant tensor:
#      x y z
#    x 1.704000 0.000000 0.000000 
#    y 0.000000 1.651770 0.000000 
#    z 0.000000 0.000000 1.680090 
# 
# From -- ./inp_files/10175.got.cif
#   From: 2010.05.17/outbox.cif.g08.bks.cpg/sg21_6_cif.got.tgz:10175.got - 2010.06.03 23:14:55.
