data_PCOD9323555
_publ_section_title
;
Structure prediction by ZEFSAII (Michael W. Deem and Ramdas Pophale) SiO2 
 PCOD9323555
Probable space group: C 2 2 2
;
_chemical_formula_sum "Si O2"
_cell_formula_units_Z 38
_cell_length_a 8.743710
_cell_length_b 11.600192
_cell_length_c 17.414969
_cell_angle_alpha 90.000000
_cell_angle_beta 90.000000
_cell_angle_gamma 90.000000
_cell_volume 1766.377924
_symmetry_space_group_name_H-M "C 2 2 2"
_symmetry_group_IT_number 21
_symmetry_cell_setting 'orthorhombic'
loop_
_space_group_symop_operation_xyz
x,y,z
-x,-y,z
x,-y,-z
-x,y,-z
1/2+x,1/2+y,z
1/2-x,1/2-y,z
1/2+x,1/2-y,-z
1/2-x,1/2+y,-z
loop_
_atom_site_type_symbol
_atom_site_label
_atom_site_fract_x
_atom_site_fract_y
_atom_site_fract_z
Si Si1 0.500000 0.500000 0.500000
Si Si2 0.248630 0.612634 0.894474
Si Si3 0.104129 0.325104 0.298600
Si Si4 0.000000 0.000000 0.000000
Si Si5 0.000000 0.500000 0.000000
Si Si6 0.297656 0.948386 0.254581
Si Si7 0.611095 0.668192 0.624170
O O1 0.595435 0.577188 0.558043
O O2 0.250000 0.750000 0.881803
O O3 0.104061 0.579449 0.946541
O O4 0.236286 0.525099 0.821060
O O5 0.395163 0.577010 0.944622
O O6 0.250000 0.250000 0.269819
O O7 0.164992 0.451986 0.316836
O O8 0.948090 0.363994 0.249356
O O9 0.037354 0.246652 0.365433
O O10 0.153381 0.884082 0.291436
O O11 0.750000 0.750000 0.605432
#
# Coordination Sequence:
#
# PCOD9323555 Si02
#       7
#     2   8   8   2   2   8   8
#     4  12  24  38  64  92 124 170 212 266 328 384
#     4  11  23  42  65  92 128 169 210 263 318 375
#     4  10  20  38  63  91 123 159 203 257 315 374
#     4  10  26  44  64  92 124 172 218 250 312 386
#     4  10  22  42  64  96 132 160 210 262 320 392
#     4  10  22  39  63  95 125 163 214 262 315 382
#     4  10  24  43  62  93 129 164 213 266 320 381
#
# _framework density 21.51295
#
# number of rings (size 3 to 8) (size 9 to 14) (size 15 to 20)
#    0.000    1.684    0.000    3.789    0.000    6.737 
#    0.000   14.737    0.000    5.053    0.000    0.000 
#    0.000    0.000    0.000    0.000    0.000    0.000 
#
# Total GULP energy -105811.843548 kJ/mol
# GULP energy per Si atom -5569.044397 kJ/mol
# Density = 2.146399 g / cm^3
# Si number density = 21.512950 Si / 1000 Ang^3
#
#
#
# Elastic Constant Matrix: (Units=GPa)
#
#
# Indices 1 2 3 4 5 6 
#
# 1 94.7499 60.6759 51.5051 0.0000 0.0000 0.0000
# 2 60.6759 158.7095 75.0430 0.0000 0.0000 0.0000
# 3 51.5051 75.0430 112.6612 0.0000 0.0000 0.0000
# 4 0.0000 0.0000 0.0000 13.2099 0.0000 0.0000
# 5 0.0000 0.0000 0.0000 0.0000 15.9115 0.0000
# 6 0.0000 0.0000 0.0000 0.0000 0.0000 29.4884
#
#
#
# Elastic Compliance Matrix: (Units=1/GPa)
#
#
# Indices 1 2 3 4 5 6 
#
# 1 0.015430 -0.003742 -0.004561 0.000000 0.000000 0.000000
# 2 -0.003742 0.010105 -0.005020 0.000000 0.000000 0.000000
# 3 -0.004561 -0.005020 0.014305 0.000000 0.000000 0.000000
# 4 0.000000 0.000000 0.000000 0.075701 0.000000 0.000000
# 5 0.000000 0.000000 0.000000 0.000000 0.062848 0.000000
# 6 0.000000 0.000000 0.000000 0.000000 0.000000 0.033912
#
#
# Mechanical properties :
#
#
# Convention : Reuss Voigt Hill
#
# Bulk Modulus (GPa) = 75.79790 82.28539 79.04165
# Shear Modulus (GPa) = 20.54683 23.64840 22.09761
#
# Velocity S-wave (km/s) = 3.09381 3.31911 3.20844
# Velocity P-wave (km/s) = 6.93342 7.28155 7.10961
#
# Compressibility (1/GPa) = 0.01319298
#
# Stress axis : x y z
#
# Youngs Moduli (GPa) = 64.80825 98.95864 69.90345
#
# Poissons Ratio (x) = 0.37033 0.31886
# Poissons Ratio (y) = 0.24253 0.35093
# Poissons Ratio (z) = 0.29562 0.49679
#
# Static dielectric constant tensor:
#      x y z
#    x 1.831890 0.000000 0.000000 
#    y 0.000000 1.739560 0.000000 
#    z 0.000000 0.000000 1.808190 
# 
# From -- ./inp_files/35525.got.cif
#   From: 2010.05.17/outbox.cif.g08.bks.cpg/sg21_18_cif.got.tgz:35525.got - 2010.06.03 23:14:55.
