data_PCOD9323165
_publ_section_title
;
Structure prediction by ZEFSAII (Michael W. Deem and Ramdas Pophale) SiO2 
 PCOD9323165
Probable space group: C 2 2 2
;
_chemical_formula_sum "Si O2"
_cell_formula_units_Z 52
_cell_length_a 8.154433
_cell_length_b 20.178194
_cell_length_c 13.918671
_cell_angle_alpha 90.000000
_cell_angle_beta 90.000000
_cell_angle_gamma 90.000000
_cell_volume 2290.202220
_symmetry_space_group_name_H-M "C 2 2 2"
_symmetry_group_IT_number 21
_symmetry_cell_setting 'orthorhombic'
loop_
_space_group_symop_operation_xyz
x,y,z
-x,-y,z
x,-y,-z
-x,y,-z
1/2+x,1/2+y,z
1/2-x,1/2-y,z
1/2+x,1/2-y,-z
1/2-x,1/2+y,-z
loop_
_atom_site_type_symbol
_atom_site_label
_atom_site_fract_x
_atom_site_fract_y
_atom_site_fract_z
Si Si1 0.549780 0.667371 0.889476
Si Si2 0.529639 0.114161 0.709398
Si Si3 0.080638 0.109924 0.299656
Si Si4 0.555090 0.250540 0.609478
Si Si5 0.667770 0.071540 0.451534
Si Si6 0.500000 0.405003 0.500000
Si Si7 0.442041 0.819367 0.107255
O O1 0.480342 0.615022 0.810782
O O2 0.494824 0.744201 0.869255
O O3 0.746184 0.673990 0.884920
O O4 0.500000 0.652220 0.000000
O O5 0.722680 0.100376 0.694975
O O6 0.488794 0.186114 0.662892
O O7 0.392141 0.068078 0.658696
O O8 0.510991 0.125948 0.821374
O O9 0.015115 0.181476 0.337108
O O10 0.012310 0.067104 0.389750
O O11 0.500000 0.252677 0.500000
O O12 0.750000 0.250000 0.614729
O O13 0.500000 0.094881 0.500000
O O14 0.812766 0.119312 0.485998
O O15 0.704254 0.000000 0.500000
O O16 0.500000 0.831619 0.000000
#
# Coordination Sequence:
#
# PCOD9323165 Si02
#       7
#     8   8   8   8   8   4   8
#     4  10  20  34  50  77 119 166 215 250 290 352
#     4  11  21  37  56  81 119 157 203 247 301 358
#     4  11  21  34  53  85 119 163 198 246 292 363
#     4  10  21  30  47  74 115 159 195 233 285 353
#     4  11  24  43  63  86 116 154 200 256 310 368
#     4  12  23  40  60  90 124 154 201 248 314 372
#     4  10  20  33  53  78 115 165 210 254 298 352
#
# _framework density 22.705417000000001
#
# number of rings (size 3 to 8) (size 9 to 14) (size 15 to 20)
#    0.000    1.385    3.846    2.538    2.154    2.462 
#    0.000    0.000    0.000    0.000    0.000    2.154 
#    0.000    1.231    0.000    0.000    0.000    0.000 
#
# Total GULP energy -144801.460684 kJ/mol
# GULP energy per Si atom -5569.286949 kJ/mol
# Density = 2.265374 g / cm^3
# Si number density = 22.705417 Si / 1000 Ang^3
#
#
#
# Elastic Constant Matrix: (Units=GPa)
#
#
# Indices 1 2 3 4 5 6 
#
# 1 80.9963 4.5732 23.7345 0.0000 0.0000 0.0000
# 2 4.5732 71.0622 29.5147 0.0000 0.0000 0.0000
# 3 23.7345 29.5147 176.1934 0.0000 0.0000 0.0000
# 4 0.0000 0.0000 0.0000 897.9113 0.0000 0.0000
# 5 0.0000 0.0000 0.0000 0.0000 46.2589 0.0000
# 6 0.0000 0.0000 0.0000 0.0000 0.0000 2.0392
#
#
#
# Elastic Compliance Matrix: (Units=1/GPa)
#
#
# Indices 1 2 3 4 5 6 
#
# 1 0.012855 -0.000116 -0.001712 0.000000 0.000000 0.000000
# 2 -0.000116 0.015126 -0.002518 0.000000 0.000000 0.000000
# 3 -0.001712 -0.002518 0.006328 0.000000 0.000000 0.000000
# 4 0.000000 0.000000 0.000000 0.001114 0.000000 0.000000
# 5 0.000000 0.000000 0.000000 0.000000 0.021617 0.000000
# 6 0.000000 0.000000 0.000000 0.000000 0.000000 0.490398
#
#
# Mechanical properties :
#
#
# Convention : Reuss Voigt Hill
#
# Bulk Modulus (GPa) = 39.03911 49.32185 44.18048
# Shear Modulus (GPa) = 8.85475 207.27050 108.06263
#
# Velocity S-wave (km/s) = 1.97694 9.56478 6.90628
# Velocity P-wave (km/s) = 4.73731 11.98956 9.11569
#
# Compressibility (1/GPa) = 0.02561534
#
# Stress axis : x y z
#
# Youngs Moduli (GPa) = 77.79368 66.11349 158.02706
#
# Poissons Ratio (x) = 0.00768 0.27056
# Poissons Ratio (y) = 0.00904 0.39792
# Poissons Ratio (z) = 0.13319 0.16648
#
# Static dielectric constant tensor:
#      x y z
#    x -1.548560 0.000000 0.000000 
#    y 0.000000 2.003530 0.000000 
#    z 0.000000 0.000000 1.953060 
# 
# From -- ./inp_files/22948.got.cif
#   From: 2010.05.17/outbox.cif.g08.bks.cpg/sg21_12_cif.got.tgz:22948.got - 2010.06.03 23:14:55.
