data_PCOD9323512
_publ_section_title
;
Structure prediction by ZEFSAII (Michael W. Deem and Ramdas Pophale) SiO2 
 PCOD9323512
Probable space group: C 2 2 2
;
_chemical_formula_sum "Si O2"
_cell_formula_units_Z 40
_cell_length_a 14.750562
_cell_length_b 13.188761
_cell_length_c 8.146951
_cell_angle_alpha 90.000000
_cell_angle_beta 90.000000
_cell_angle_gamma 90.000000
_cell_volume 1584.921183
_symmetry_space_group_name_H-M "C 2 2 2"
_symmetry_group_IT_number 21
_symmetry_cell_setting 'orthorhombic'
loop_
_space_group_symop_operation_xyz
x,y,z
-x,-y,z
x,-y,-z
-x,y,-z
1/2+x,1/2+y,z
1/2-x,1/2-y,z
1/2+x,1/2-y,-z
1/2-x,1/2+y,-z
loop_
_atom_site_type_symbol
_atom_site_label
_atom_site_fract_x
_atom_site_fract_y
_atom_site_fract_z
Si Si1 0.388787 0.430683 0.836476
Si Si2 0.373781 0.807465 0.592490
Si Si3 0.952178 0.285073 0.230354
Si Si4 0.212194 0.643393 0.023108
Si Si5 0.210070 0.907882 0.688138
O O1 0.455215 0.334604 0.820316
O O2 0.289805 0.378326 0.844028
O O3 0.370176 0.509953 0.690678
O O4 0.404365 0.500000 0.000000
O O5 0.408722 0.786896 0.410757
O O6 0.450499 0.833701 0.728114
O O7 0.296984 0.892923 0.573556
O O8 0.337805 0.699979 0.659323
O O9 0.886419 0.342716 0.102132
O O10 0.250000 0.750000 0.958632
O O11 0.235742 0.577179 0.863161
#
# Coordination Sequence:
#
# PCOD9323512 Si02
#       5
#     8   8   8   8   8
#     4   9  20  37  61  90 118 154 208 256 301 361
#     4  10  22  38  58  88 126 158 201 247 316 372
#     4  10  22  39  61  88 120 166 202 252 312 375
#     4   9  17  36  59  82 114 158 203 241 301 370
#     4  10  20  38  57  88 119 156 203 253 302 368
#
# _framework density 25.237849000000001
#
# number of rings (size 3 to 8) (size 9 to 14) (size 15 to 20)
#    0.000    2.400    2.000    0.000    8.400    2.400 
#    0.000    6.000    0.000    6.000    0.000    0.000 
#    0.000    0.000    0.000    0.000    0.000    0.000 
#
# Total GULP energy -111354.432967 kJ/mol
# GULP energy per Si atom -5567.721648 kJ/mol
# Density = 2.518041 g / cm^3
# Si number density = 25.237849 Si / 1000 Ang^3
#
#
#
# Elastic Constant Matrix: (Units=GPa)
#
#
# Indices 1 2 3 4 5 6 
#
# 1 89.0074 -2.8086 17.6381 0.0000 0.0000 0.0000
# 2 -2.8086 35.6332 -8.1570 0.0000 0.0000 0.0000
# 3 17.6381 -8.1570 111.4737 0.0000 0.0000 0.0000
# 4 0.0000 0.0000 0.0000 23.8649 0.0000 0.0000
# 5 0.0000 0.0000 0.0000 0.0000 28.5294 0.0000
# 6 0.0000 0.0000 0.0000 0.0000 0.0000 -12.8888
#
#
#
# Elastic Compliance Matrix: (Units=1/GPa)
#
#
# Indices 1 2 3 4 5 6 
#
# 1 0.011608 0.000503 -0.001800 0.000000 0.000000 0.000000
# 2 0.000503 0.028564 0.002011 0.000000 0.000000 0.000000
# 3 -0.001800 0.002011 0.009403 0.000000 0.000000 0.000000
# 4 0.000000 0.000000 0.000000 0.041903 0.000000 0.000000
# 5 0.000000 0.000000 0.000000 0.000000 0.035052 0.000000
# 6 0.000000 0.000000 0.000000 0.000000 0.000000 -0.077587
#
#
# Mechanical properties :
#
#
# Convention : Reuss Voigt Hill
#
# Bulk Modulus (GPa) = 19.60742 27.71767 23.66254
# Shear Modulus (GPa) = 77.50236 23.19723 50.34979
#
# Velocity S-wave (km/s) = 5.54756 3.03503 4.47140
# Velocity P-wave (km/s) = 6.98712 4.82579 6.00450
#
# Compressibility (1/GPa) = 0.05100110
#
# Stress axis : x y z
#
# Youngs Moduli (GPa) = 86.15080 35.00954 106.35324
#
# Poissons Ratio (x) = -0.01761 0.19142
# Poissons Ratio (y) = -0.04332 -0.21383
# Poissons Ratio (z) = 0.15506 -0.07039
#
# Static dielectric constant tensor:
#      x y z
#    x 2.099300 0.000000 0.000000 
#    y 0.000000 2.030690 0.000000 
#    z 0.000000 0.000000 2.048760 
# 
# From -- ./inp_files/14501.got.cif
#   From: 2010.05.17/outbox.cif.g08.bks.cpg/sg21_8_cif.got.tgz:14501.got - 2010.06.03 23:14:55.
