data_PCOD9323879
_publ_section_title
;
Structure prediction by ZEFSAII (Michael W. Deem and Ramdas Pophale) SiO2 
 PCOD9323879
Probable space group: C 2 2 2
;
_chemical_formula_sum "Si O2"
_cell_formula_units_Z 64
_cell_length_a 9.586111
_cell_length_b 23.960351
_cell_length_c 15.130554
_cell_angle_alpha 90.000000
_cell_angle_beta 90.000000
_cell_angle_gamma 90.000000
_cell_volume 3475.285267
_symmetry_space_group_name_H-M "C 2 2 2"
_symmetry_group_IT_number 21
_symmetry_cell_setting 'orthorhombic'
loop_
_space_group_symop_operation_xyz
x,y,z
-x,-y,z
x,-y,-z
-x,y,-z
1/2+x,1/2+y,z
1/2-x,1/2-y,z
1/2+x,1/2-y,-z
1/2-x,1/2+y,-z
loop_
_atom_site_type_symbol
_atom_site_label
_atom_site_fract_x
_atom_site_fract_y
_atom_site_fract_z
Si Si1 0.460138 0.637770 0.274552
Si Si2 0.158116 0.617788 0.510081
Si Si3 0.741336 0.428534 0.692465
Si Si4 0.221734 0.446406 0.663355
Si Si5 0.918585 0.802438 0.907564
Si Si6 0.373502 0.707509 0.437456
Si Si7 0.407506 0.825408 0.087729
Si Si8 0.006062 0.561982 0.813500
O O1 0.600292 0.604712 0.294306
O O2 0.328840 0.597887 0.295197
O O3 0.463327 0.659921 0.174928
O O4 0.440039 0.686543 0.346301
O O5 0.176918 0.596782 0.609156
O O6 0.177711 0.570279 0.435411
O O7 0.286448 0.659074 0.487993
O O8 0.000000 0.640420 0.500000
O O9 0.712466 0.492639 0.668548
O O10 0.837713 0.426772 0.779504
O O11 0.087362 0.446344 0.726030
O O12 0.758426 0.819934 0.926929
O O13 0.936758 0.737586 0.876059
O O14 0.000000 0.808808 0.000000
O O15 0.500000 0.726685 0.500000
O O16 0.250000 0.750000 0.416849
O O17 0.446526 0.882189 0.139919
O O18 0.500000 0.828781 0.000000
O O19 0.000000 0.500000 0.859350
#
# Coordination Sequence:
#
# PCOD9323879 Si02
#       8
#     8   8   8   8   8   8   8   8
#     4  11  23  41  63  89 124 163 204 252 321 372
#     4  11  21  37  58  86 123 163 208 258 302 357
#     4  11  22  37  58  92 123 161 209 259 297 366
#     4  10  21  36  62  85 123 166 206 251 308 362
#     4  10  23  42  67  93 121 158 206 261 312 373
#     4  11  24  42  60  88 123 164 208 253 310 374
#     4  10  22  42  67  92 121 154 202 255 312 371
#     4  10  21  38  61  93 125 161 203 249 312 371
#
# _framework density 18.415754
#
# number of rings (size 3 to 8) (size 9 to 14) (size 15 to 20)
#    0.000    1.500    3.750    1.125    3.500    0.750 
#    2.250    1.250    0.000    1.500    0.000    0.000 
#    0.000    0.000    0.000    0.000    0.000    0.000 
#
# Total GULP energy -178374.417476 kJ/mol
# GULP energy per Si atom -5574.200546 kJ/mol
# Density = 1.837384 g / cm^3
# Si number density = 18.415754 Si / 1000 Ang^3
#
#
#
# Elastic Constant Matrix: (Units=GPa)
#
#
# Indices 1 2 3 4 5 6 
#
# 1 96.0468 38.3251 29.5188 0.0000 0.0000 0.0000
# 2 38.3251 91.5356 34.9900 0.0000 0.0000 0.0000
# 3 29.5188 34.9900 57.7470 0.0000 0.0000 0.0000
# 4 0.0000 0.0000 0.0000 15.7395 0.0000 0.0000
# 5 0.0000 0.0000 0.0000 0.0000 26.2338 0.0000
# 6 0.0000 0.0000 0.0000 0.0000 0.0000 35.3571
#
#
#
# Elastic Compliance Matrix: (Units=1/GPa)
#
#
# Indices 1 2 3 4 5 6 
#
# 1 0.013330 -0.003874 -0.004467 0.000000 0.000000 0.000000
# 2 -0.003874 0.015343 -0.007317 0.000000 0.000000 0.000000
# 3 -0.004467 -0.007317 0.024034 0.000000 0.000000 0.000000
# 4 0.000000 0.000000 0.000000 0.063534 0.000000 0.000000
# 5 0.000000 0.000000 0.000000 0.000000 0.038119 0.000000
# 6 0.000000 0.000000 0.000000 0.000000 0.000000 0.028283
#
#
# Mechanical properties :
#
#
# Convention : Reuss Voigt Hill
#
# Bulk Modulus (GPa) = 46.74523 50.11080 48.42801
# Shear Modulus (GPa) = 22.61534 24.96578 23.79056
#
# Velocity S-wave (km/s) = 3.50815 3.68594 3.59814
# Velocity P-wave (km/s) = 6.46899 6.73683 6.60427
#
# Compressibility (1/GPa) = 0.02139256
#
# Stress axis : x y z
#
# Youngs Moduli (GPa) = 75.01795 65.17437 41.60837
#
# Poissons Ratio (x) = 0.25247 0.18586
# Poissons Ratio (y) = 0.29060 0.30444
# Poissons Ratio (z) = 0.33510 0.47686
#
# Static dielectric constant tensor:
#      x y z
#    x 1.621820 0.000000 0.000000 
#    y 0.000000 1.684830 0.000000 
#    z 0.000000 0.000000 1.647440 
# 
# From -- ./inp_files/30904.got.cif
#   From: 2010.05.17/outbox.cif.g08.bks.cpg/sg21_16_cif.got.tgz:30904.got - 2010.06.03 23:14:55.
