data_PCOD9323989
_publ_section_title
;
Structure prediction by ZEFSAII (Michael W. Deem and Ramdas Pophale) SiO2 
 PCOD9323989
Probable space group: C 2 2 2
;
_chemical_formula_sum "Si O2"
_cell_formula_units_Z 32
_cell_length_a 8.537941
_cell_length_b 11.176221
_cell_length_c 16.071191
_cell_angle_alpha 90.000000
_cell_angle_beta 90.000000
_cell_angle_gamma 90.000000
_cell_volume 1533.543830
_symmetry_space_group_name_H-M "C 2 2 2"
_symmetry_group_IT_number 21
_symmetry_cell_setting 'orthorhombic'
loop_
_space_group_symop_operation_xyz
x,y,z
-x,-y,z
x,-y,-z
-x,y,-z
1/2+x,1/2+y,z
1/2-x,1/2-y,z
1/2+x,1/2-y,-z
1/2-x,1/2+y,-z
loop_
_atom_site_type_symbol
_atom_site_label
_atom_site_fract_x
_atom_site_fract_y
_atom_site_fract_z
Si Si1 0.318462 0.872080 0.025683
Si Si2 0.827398 0.876031 0.464086
Si Si3 0.660762 0.370657 0.735572
Si Si4 0.198719 0.872372 0.213364
O O1 0.250000 0.750000 0.987515
O O2 0.280871 0.866033 0.123438
O O3 0.500000 0.873504 0.000000
O O4 0.247462 0.000000 0.000000
O O5 0.750000 0.750000 0.488270
O O6 0.847967 0.875193 0.364447
O O7 0.000000 0.874150 0.500000
O O8 0.752787 0.000000 0.500000
O O9 0.750000 0.250000 0.760151
O O10 0.744358 0.496048 0.755776
O O11 0.490539 0.369791 0.779766
O O12 0.250000 0.750000 0.259379
#
# Coordination Sequence:
#
# PCOD9323989 Si02
#       4
#     8   8   8   8
#     4  10  24  42  62  89 117 152 198 247 301 360
#     4  10  21  38  61  90 124 160 200 245 292 348
#     4  10  23  40  61  90 122 159 201 245 295 352
#     4  10  22  40  62  87 117 157 198 245 300 354
#
# _framework density 20.866702
#
# number of rings (size 3 to 8) (size 9 to 14) (size 15 to 20)
#    0.000    2.000    0.000    3.000    0.000   23.000 
#    0.000    5.000    0.000    0.000    0.000    0.000 
#    0.000    0.000    0.000    0.000    0.000    0.000 
#
# Total GULP energy -89121.296058 kJ/mol
# GULP energy per Si atom -5570.081004 kJ/mol
# Density = 2.081921 g / cm^3
# Si number density = 20.866702 Si / 1000 Ang^3
#
#
#
# Elastic Constant Matrix: (Units=GPa)
#
#
# Indices 1 2 3 4 5 6 
#
# 1 57.0713 62.1080 31.5411 0.0000 0.0000 0.0000
# 2 62.1080 263.3421 35.5069 0.0000 0.0000 0.0000
# 3 31.5411 35.5069 65.5483 0.0000 0.0000 0.0000
# 4 0.0000 0.0000 0.0000 36.8945 0.0000 0.0000
# 5 0.0000 0.0000 0.0000 0.0000 59.3690 0.0000
# 6 0.0000 0.0000 0.0000 0.0000 0.0000 40.7400
#
#
#
# Elastic Compliance Matrix: (Units=1/GPa)
#
#
# Indices 1 2 3 4 5 6 
#
# 1 0.029771 -0.005491 -0.011351 0.000000 0.000000 0.000000
# 2 -0.005491 0.005109 -0.000126 0.000000 0.000000 0.000000
# 3 -0.011351 -0.000126 0.020786 0.000000 0.000000 0.000000
# 4 0.000000 0.000000 0.000000 0.027104 0.000000 0.000000
# 5 0.000000 0.000000 0.000000 0.000000 0.016844 0.000000
# 6 0.000000 0.000000 0.000000 0.000000 0.000000 0.024546
#
#
# Mechanical properties :
#
#
# Convention : Reuss Voigt Hill
#
# Bulk Modulus (GPa) = 46.01692 71.58598 58.80145
# Shear Modulus (GPa) = 30.24109 44.52106 37.38108
#
# Velocity S-wave (km/s) = 3.81103 4.62409 4.23711
# Velocity P-wave (km/s) = 6.43941 7.93035 7.22345
#
# Compressibility (1/GPa) = 0.02173114
#
# Stress axis : x y z
#
# Youngs Moduli (GPa) = 33.59028 195.72382 48.10955
#
# Poissons Ratio (x) = 1.07467 0.54609
# Poissons Ratio (y) = 0.18444 0.00604
# Poissons Ratio (z) = 0.38128 0.02457
#
# Static dielectric constant tensor:
#      x y z
#    x 1.728840 0.000000 0.000000 
#    y 0.000000 1.824640 0.000000 
#    z 0.000000 0.000000 1.662040 
# 
# From -- ./inp_files/29809.got.cif
#   From: 2010.05.17/outbox.cif.g08.bks.cpg/sg21_15_cif.got.tgz:29809.got - 2010.06.03 23:14:55.
