data_PCOD9323513
_publ_section_title
;
Structure prediction by ZEFSAII (Michael W. Deem and Ramdas Pophale) SiO2 
 PCOD9323513
Probable space group: C 2 2 2
;
_chemical_formula_sum "Si O2"
_cell_formula_units_Z 64
_cell_length_a 9.166808
_cell_length_b 21.118660
_cell_length_c 17.019181
_cell_angle_alpha 90.000000
_cell_angle_beta 90.000000
_cell_angle_gamma 90.000000
_cell_volume 3294.755188
_symmetry_space_group_name_H-M "C 2 2 2"
_symmetry_group_IT_number 21
_symmetry_cell_setting 'orthorhombic'
loop_
_space_group_symop_operation_xyz
x,y,z
-x,-y,z
x,-y,-z
-x,y,-z
1/2+x,1/2+y,z
1/2-x,1/2-y,z
1/2+x,1/2-y,-z
1/2-x,1/2+y,-z
loop_
_atom_site_type_symbol
_atom_site_label
_atom_site_fract_x
_atom_site_fract_y
_atom_site_fract_z
Si Si1 0.826877 0.497009 0.163769
Si Si2 0.813066 0.091731 0.719704
Si Si3 0.146437 0.913358 0.271613
Si Si4 0.154744 0.406303 0.042203
Si Si5 0.660728 0.192750 0.817099
Si Si6 0.825291 0.005064 0.587380
Si Si7 0.356083 0.688843 0.050448
Si Si8 0.096021 0.217399 0.777301
O O1 0.791748 0.546189 0.232361
O O2 0.749646 0.434024 0.198181
O O3 0.776991 0.531071 0.083108
O O4 0.000000 0.500000 0.155740
O O5 0.766973 0.159921 0.752565
O O6 0.976257 0.069355 0.742543
O O7 0.793573 0.072377 0.629307
O O8 0.207400 0.949738 0.348668
O O9 0.118203 0.838727 0.285085
O O10 0.123767 0.357225 0.114719
O O11 0.264835 0.370117 0.983959
O O12 0.000000 0.418581 0.000000
O O13 0.750000 0.250000 0.855963
O O14 0.523905 0.227162 0.776353
O O15 0.761821 0.000000 0.500000
O O16 0.000000 0.000000 0.580230
O O17 0.250000 0.750000 0.049149
O O18 0.416546 0.681587 0.138897
O O19 0.500000 0.700763 0.000000
O O20 0.250000 0.250000 0.778991
#
# Coordination Sequence:
#
# PCOD9323513 Si02
#       8
#     8   8   8   8   8   8   8   8
#     4  10  23  37  57  76 109 152 188 239 292 343
#     4   9  19  36  60  87 115 145 189 242 276 347
#     4  10  20  38  58  88 117 147 193 235 280 346
#     4  11  23  38  54  76 108 148 197 248 297 348
#     4  11  20  35  58  84 111 149 194 241 295 345
#     4   8  15  32  61  92 115 147 188 231 277 330
#     4  11  22  37  55  77 107 145 189 244 293 338
#     4  11  23  34  56  84 111 147 192 235 286 344
#
# _framework density 19.424810999999998
#
# number of rings (size 3 to 8) (size 9 to 14) (size 15 to 20)
#    0.000    1.875    1.250    4.875    7.000    0.250 
#    0.000    0.000    0.000    7.500    0.000    0.000 
#    0.000    0.000    0.000    0.000    0.000    0.000 
#
# Total GULP energy -178160.170150 kJ/mol
# GULP energy per Si atom -5567.505317 kJ/mol
# Density = 1.938060 g / cm^3
# Si number density = 19.424811 Si / 1000 Ang^3
#
#
#
# Elastic Constant Matrix: (Units=GPa)
#
#
# Indices 1 2 3 4 5 6 
#
# 1 63.6803 21.7708 19.3930 0.0000 0.0000 0.0000
# 2 21.7708 46.7654 34.3046 0.0000 0.0000 0.0000
# 3 19.3930 34.3046 104.6872 0.0000 0.0000 0.0000
# 4 0.0000 0.0000 0.0000 16.8197 0.0000 0.0000
# 5 0.0000 0.0000 0.0000 0.0000 11.1603 0.0000
# 6 0.0000 0.0000 0.0000 0.0000 0.0000 28.2240
#
#
#
# Elastic Compliance Matrix: (Units=1/GPa)
#
#
# Indices 1 2 3 4 5 6 
#
# 1 0.018727 -0.008127 -0.000806 0.000000 0.000000 0.000000
# 2 -0.008127 0.031676 -0.008874 0.000000 0.000000 0.000000
# 3 -0.000806 -0.008874 0.012610 0.000000 0.000000 0.000000
# 4 0.000000 0.000000 0.000000 0.059454 0.000000 0.000000
# 5 0.000000 0.000000 0.000000 0.000000 0.089603 0.000000
# 6 0.000000 0.000000 0.000000 0.000000 0.000000 0.035431
#
#
# Mechanical properties :
#
#
# Convention : Reuss Voigt Hill
#
# Bulk Modulus (GPa) = 36.49829 40.67443 38.58636
# Shear Modulus (GPa) = 17.10869 20.55178 18.83024
#
# Velocity S-wave (km/s) = 2.97099 3.25625 3.11688
# Velocity P-wave (km/s) = 5.53167 5.92642 5.73244
#
# Compressibility (1/GPa) = 0.02739854
#
# Stress axis : x y z
#
# Youngs Moduli (GPa) = 53.39795 31.56916 79.30435
#
# Poissons Ratio (x) = 0.25656 0.06393
# Poissons Ratio (y) = 0.43396 0.70379
# Poissons Ratio (z) = 0.04305 0.28016
#
# Static dielectric constant tensor:
#      x y z
#    x 1.608130 0.000000 0.000000 
#    y 0.000000 1.912150 0.000000 
#    z 0.000000 0.000000 1.724230 
# 
# From -- ./inp_files/35891.got.cif
#   From: 2010.05.17/outbox.cif.g08.bks.cpg/sg21_18_cif.got.tgz:35891.got - 2010.06.03 23:14:55.
