data_PCOD9323344
_publ_section_title
;
Structure prediction by ZEFSAII (Michael W. Deem and Ramdas Pophale) SiO2 
 PCOD9323344
Probable space group: C 2 2 2
;
_chemical_formula_sum "Si O2"
_cell_formula_units_Z 36
_cell_length_a 10.594952
_cell_length_b 20.543225
_cell_length_c 8.613862
_cell_angle_alpha 90.000000
_cell_angle_beta 90.000000
_cell_angle_gamma 90.000000
_cell_volume 1874.845679
_symmetry_space_group_name_H-M "C 2 2 2"
_symmetry_group_IT_number 21
_symmetry_cell_setting 'orthorhombic'
loop_
_space_group_symop_operation_xyz
x,y,z
-x,-y,z
x,-y,-z
-x,y,-z
1/2+x,1/2+y,z
1/2-x,1/2-y,z
1/2+x,1/2-y,-z
1/2-x,1/2+y,-z
loop_
_atom_site_type_symbol
_atom_site_label
_atom_site_fract_x
_atom_site_fract_y
_atom_site_fract_z
Si Si1 0.391923 0.054212 0.201919
Si Si2 0.610689 0.233412 0.290678
Si Si3 0.000000 0.154105 0.500000
Si Si4 0.000000 0.372360 0.500000
Si Si5 0.500000 0.160707 0.000000
Si Si6 0.868773 0.964738 0.341252
O O1 0.434597 0.085672 0.366428
O O2 0.248208 0.031099 0.224413
O O3 0.500000 0.000000 0.171548
O O4 0.397912 0.110381 0.071404
O O5 0.750000 0.250000 0.240535
O O6 0.559634 0.297766 0.373723
O O7 0.600414 0.175481 0.417383
O O8 0.538440 0.205933 0.142427
O O9 0.906825 0.107035 0.597543
O O10 0.827440 0.000000 0.500000
O O11 0.000000 0.000000 0.290584
#
# Coordination Sequence:
#
# PCOD9323344 Si02
#       6
#     8   8   4   4   4   8
#     4  11  20  36  58  81 113 151 187 234 280 327
#     4  10  20  36  55  79 113 149 184 228 274 327
#     4   9  19  36  60  86 111 139 180 236 286 329
#     4   9  19  32  56  86 103 139 196 234 278 331
#     4  10  25  36  50  82 115 152 196 222 260 334
#     4   9  19  34  58  93 115 135 181 239 288 333
#
# _framework density 19.20158
#
# number of rings (size 3 to 8) (size 9 to 14) (size 15 to 20)
#    0.000    2.444    0.000    3.333    0.000    7.111 
#    0.000    2.222    0.000    8.000    0.000    8.556 
#    0.000    0.000    0.000    0.000    0.000    0.000 
#
# Total GULP energy -100324.114888 kJ/mol
# GULP energy per Si atom -5573.561938 kJ/mol
# Density = 1.915788 g / cm^3
# Si number density = 19.201580 Si / 1000 Ang^3
#
#
#
# Elastic Constant Matrix: (Units=GPa)
#
#
# Indices 1 2 3 4 5 6 
#
# 1 111.5250 49.0813 23.4037 0.0000 0.0000 0.0000
# 2 49.0813 117.0348 38.7238 0.0000 0.0000 0.0000
# 3 23.4037 38.7238 64.0970 0.0000 0.0000 0.0000
# 4 0.0000 0.0000 0.0000 -25.2984 0.0000 0.0000
# 5 0.0000 0.0000 0.0000 0.0000 5.7263 0.0000
# 6 0.0000 0.0000 0.0000 0.0000 0.0000 5.1316
#
#
#
# Elastic Compliance Matrix: (Units=1/GPa)
#
#
# Indices 1 2 3 4 5 6 
#
# 1 0.011118 -0.004149 -0.001553 0.000000 0.000000 0.000000
# 2 -0.004149 0.012227 -0.005872 0.000000 0.000000 0.000000
# 3 -0.001553 -0.005872 0.019716 0.000000 0.000000 0.000000
# 4 0.000000 0.000000 0.000000 -0.039528 0.000000 0.000000
# 5 0.000000 0.000000 0.000000 0.000000 0.174632 0.000000
# 6 0.000000 0.000000 0.000000 0.000000 0.000000 0.194871
#
#
# Mechanical properties :
#
#
# Convention : Reuss Voigt Hill
#
# Bulk Modulus (GPa) = 50.21736 57.23050 53.72393
# Shear Modulus (GPa) = 12.41240 9.20845 10.81042
#
# Velocity S-wave (km/s) = 2.54525 2.19228 2.37533
# Velocity P-wave (km/s) = 5.90315 6.02311 5.96344
#
# Compressibility (1/GPa) = 0.01991343
#
# Stress axis : x y z
#
# Youngs Moduli (GPa) = 89.94082 81.78383 50.71998
#
# Poissons Ratio (x) = 0.33931 0.07878
# Poissons Ratio (y) = 0.37315 0.29784
# Poissons Ratio (z) = 0.13969 0.48025
#
# Static dielectric constant tensor:
#      x y z
#    x 1.681060 0.000000 0.000000 
#    y 0.000000 1.700180 0.000000 
#    z 0.000000 0.000000 1.619770 
# 
# From -- ./inp_files/12979.got.cif
#   From: 2010.05.17/outbox.cif.g08.bks.cpg/sg21_7_cif.got.tgz:12979.got - 2010.06.03 23:14:55.
