data_PCOD9323849
_publ_section_title
;
Structure prediction by ZEFSAII (Michael W. Deem and Ramdas Pophale) SiO2 
 PCOD9323849
Probable space group: C 2 2 2
;
_chemical_formula_sum "Si O2"
_cell_formula_units_Z 58
_cell_length_a 5.842338
_cell_length_b 18.928079
_cell_length_c 25.584467
_cell_angle_alpha 90.000000
_cell_angle_beta 90.000000
_cell_angle_gamma 90.000000
_cell_volume 2829.238716
_symmetry_space_group_name_H-M "C 2 2 2"
_symmetry_group_IT_number 21
_symmetry_cell_setting 'orthorhombic'
loop_
_space_group_symop_operation_xyz
x,y,z
-x,-y,z
x,-y,-z
-x,y,-z
1/2+x,1/2+y,z
1/2-x,1/2-y,z
1/2+x,1/2-y,-z
1/2-x,1/2+y,-z
loop_
_atom_site_type_symbol
_atom_site_label
_atom_site_fract_x
_atom_site_fract_y
_atom_site_fract_z
Si Si1 0.746829 0.836177 0.975080
Si Si2 0.500000 0.000000 0.500000
Si Si3 0.648303 0.429079 0.422732
Si Si4 0.998389 0.225075 0.560428
Si Si5 0.864725 0.574127 0.689440
Si Si6 0.195729 0.331379 0.855917
Si Si7 0.478184 0.426753 0.783361
Si Si8 0.866173 0.673127 0.241972
O O1 0.750000 0.750000 0.977788
O O2 0.710367 0.859653 0.914780
O O3 0.500000 0.857654 0.000000
O O4 0.000000 0.857242 0.000000
O O5 0.345224 0.949509 0.463804
O O6 0.500000 0.500000 0.419166
O O7 0.506481 0.360041 0.438641
O O8 0.749347 0.413160 0.365888
O O9 0.750000 0.250000 0.583003
O O10 0.000000 0.250626 0.500000
O O11 0.250000 0.250000 0.582124
O O12 0.696220 0.557288 0.737158
O O13 0.000000 0.500000 0.682606
O O14 0.971002 0.648603 0.710592
O O15 0.250000 0.250000 0.861506
O O16 0.389422 0.368692 0.822672
O O17 0.981300 0.333441 0.815813
O O18 0.500000 0.500000 0.813214
O O19 0.693502 0.391978 0.756876
O O20 0.750000 0.750000 0.247822
#
# Coordination Sequence:
#
# PCOD9323849 Si02
#       8
#     8   2   8   8   8   8   8   8
#     4   9  19  33  55  92 136 177 227 285 349 410
#     4  12  26  44  84 110 136 172 256 296 356 440
#     4  12  27  46  74 104 137 181 235 293 355 428
#     4  10  24  46  73 102 143 182 224 281 347 413
#     4  11  24  44  66  97 133 176 221 277 351 429
#     4  10  21  35  62  98 130 173 227 287 345 402
#     4  11  22  40  65  92 128 174 222 273 344 420
#     4  11  23  41  68  96 134 171 223 289 347 415
#
# _framework density 20.500215000000001
#
# number of rings (size 3 to 8) (size 9 to 14) (size 15 to 20)
#    0.000    1.379    3.448    1.448    6.759    0.552 
#    2.483    0.000    0.000    0.414    0.000    0.000 
#    0.000    0.000    0.000    0.000    0.000    0.000 
#
# Total GULP energy -161460.902053 kJ/mol
# GULP energy per Si atom -5567.617312 kJ/mol
# Density = 2.045356 g / cm^3
# Si number density = 20.500215 Si / 1000 Ang^3
#
#
#
# Elastic Constant Matrix: (Units=GPa)
#
#
# Indices 1 2 3 4 5 6 
#
# 1 99.6364 36.9718 30.4007 0.0000 0.0000 0.0000
# 2 36.9718 82.2468 13.5205 0.0000 0.0000 0.0000
# 3 30.4007 13.5205 107.8150 0.0000 0.0000 0.0000
# 4 0.0000 0.0000 0.0000 19.4998 0.0000 0.0000
# 5 0.0000 0.0000 0.0000 0.0000 -31.2351 0.0000
# 6 0.0000 0.0000 0.0000 0.0000 0.0000 -28.9584
#
#
#
# Elastic Compliance Matrix: (Units=1/GPa)
#
#
# Indices 1 2 3 4 5 6 
#
# 1 0.012918 -0.005318 -0.002976 0.000000 0.000000 0.000000
# 2 -0.005318 0.014603 -0.000332 0.000000 0.000000 0.000000
# 3 -0.002976 -0.000332 0.010156 0.000000 0.000000 0.000000
# 4 0.000000 0.000000 0.000000 0.051283 0.000000 0.000000
# 5 0.000000 0.000000 0.000000 0.000000 -0.032015 0.000000
# 6 0.000000 0.000000 0.000000 0.000000 0.000000 -0.034532
#
#
# Mechanical properties :
#
#
# Convention : Reuss Voigt Hill
#
# Bulk Modulus (GPa) = 48.95550 50.16491 49.56021
# Shear Modulus (GPa) = 107.59437 5.78161 56.68799
#
# Velocity S-wave (km/s) = 7.25248 1.68119 5.26426
# Velocity P-wave (km/s) = 9.69864 5.31903 7.82163
#
# Compressibility (1/GPa) = 0.02042671
#
# Stress axis : x y z
#
# Youngs Moduli (GPa) = 77.41402 68.47683 98.46607
#
# Poissons Ratio (x) = 0.36413 0.29299
# Poissons Ratio (y) = 0.41166 0.03268
# Poissons Ratio (z) = 0.23035 0.02273
#
# Static dielectric constant tensor:
#      x y z
#    x 1.796670 0.000000 0.000000 
#    y 0.000000 1.624760 0.000000 
#    z 0.000000 0.000000 1.802720 
# 
# From -- ./inp_files/39157.got.cif
#   From: 2010.05.17/outbox.cif.g08.bks.cpg/sg21_20_cif.got.tgz:39157.got - 2010.06.03 23:14:55.
