data_PCOD9323167
_publ_section_title
;
Structure prediction by ZEFSAII (Michael W. Deem and Ramdas Pophale) SiO2 
 PCOD9323167
Probable space group: C 2 2 2
;
_chemical_formula_sum "Si O2"
_cell_formula_units_Z 40
_cell_length_a 5.393447
_cell_length_b 19.675808
_cell_length_c 18.177546
_cell_angle_alpha 90.000000
_cell_angle_beta 90.000000
_cell_angle_gamma 90.000000
_cell_volume 1929.008955
_symmetry_space_group_name_H-M "C 2 2 2"
_symmetry_group_IT_number 21
_symmetry_cell_setting 'orthorhombic'
loop_
_space_group_symop_operation_xyz
x,y,z
-x,-y,z
x,-y,-z
-x,y,-z
1/2+x,1/2+y,z
1/2-x,1/2-y,z
1/2+x,1/2-y,-z
1/2-x,1/2+y,-z
loop_
_atom_site_type_symbol
_atom_site_label
_atom_site_fract_x
_atom_site_fract_y
_atom_site_fract_z
Si Si1 0.265078 0.040737 0.640901
Si Si2 0.341575 0.568594 0.197774
Si Si3 0.743557 0.077808 0.030942
Si Si4 0.606063 0.679421 0.580503
Si Si5 0.487117 0.292181 0.259804
O O1 0.311139 0.057736 0.727272
O O2 0.256999 0.112110 0.599744
O O3 0.500000 0.000000 0.612740
O O4 0.000000 0.000000 0.635092
O O5 0.500000 0.500000 0.190739
O O6 0.219257 0.576634 0.118654
O O7 0.489112 0.637757 0.215291
O O8 0.500000 0.112844 0.000000
O O9 0.000000 0.107585 0.000000
O O10 0.745017 0.000000 0.000000
O O11 0.500000 0.668584 0.500000
O O12 0.750000 0.750000 0.576291
O O13 0.440222 0.687894 0.654192
O O14 0.250000 0.250000 0.234343
O O15 0.750000 0.250000 0.255893
#
# Coordination Sequence:
#
# PCOD9323167 Si02
#       5
#     8   8   8   8   8
#     4  10  24  41  62  92 130 165 208 257 318 379
#     4  10  21  38  65  94 124 164 213 261 307 369
#     4  10  20  33  53  91 123 151 197 261 305 353
#     4  10  22  40  65  92 123 166 216 264 310 372
#     4  10  23  42  62  92 128 166 208 257 319 377
#
# _framework density 20.736035999999999
#
# number of rings (size 3 to 8) (size 9 to 14) (size 15 to 20)
#    0.000    2.000    2.000    0.600    2.800   18.000 
#    0.000    1.000    0.000    2.400    0.000    0.000 
#    0.000    0.000    0.000    0.000    0.000    0.000 
#
# Total GULP energy -111524.409655 kJ/mol
# GULP energy per Si atom -5576.220483 kJ/mol
# Density = 2.068884 g / cm^3
# Si number density = 20.736036 Si / 1000 Ang^3
#
#
#
# Elastic Constant Matrix: (Units=GPa)
#
#
# Indices 1 2 3 4 5 6 
#
# 1 120.3394 59.6294 32.8182 0.0000 0.0000 0.0000
# 2 59.6294 146.1463 59.3285 0.0000 0.0000 0.0000
# 3 32.8182 59.3285 144.6395 0.0000 0.0000 0.0000
# 4 0.0000 0.0000 0.0000 150.0977 0.0000 0.0000
# 5 0.0000 0.0000 0.0000 0.0000 245.6607 0.0000
# 6 0.0000 0.0000 0.0000 0.0000 0.0000 23.0270
#
#
#
# Elastic Compliance Matrix: (Units=1/GPa)
#
#
# Indices 1 2 3 4 5 6 
#
# 1 0.010483 -0.003973 -0.000749 0.000000 0.000000 0.000000
# 2 -0.003973 0.009715 -0.003084 0.000000 0.000000 0.000000
# 3 -0.000749 -0.003084 0.008348 0.000000 0.000000 0.000000
# 4 0.000000 0.000000 0.000000 0.006662 0.000000 0.000000
# 5 0.000000 0.000000 0.000000 0.000000 0.004071 0.000000
# 6 0.000000 0.000000 0.000000 0.000000 0.000000 0.043427
#
#
# Mechanical properties :
#
#
# Convention : Reuss Voigt Hill
#
# Bulk Modulus (GPa) = 77.30613 79.40860 78.35736
# Shear Modulus (GPa) = 48.71886 101.04701 74.88294
#
# Velocity S-wave (km/s) = 4.85240 6.98827 6.01588
# Velocity P-wave (km/s) = 8.29195 10.17314 9.28033
#
# Compressibility (1/GPa) = 0.01293559
#
# Stress axis : x y z
#
# Youngs Moduli (GPa) = 95.39470 102.93025 119.78251
#
# Poissons Ratio (x) = 0.40895 0.08969
# Poissons Ratio (y) = 0.37901 0.36936
# Poissons Ratio (z) = 0.07143 0.31739
#
# Static dielectric constant tensor:
#      x y z
#    x 1.759380 0.000000 0.000000 
#    y 0.000000 1.478450 0.000000 
#    z 0.000000 0.000000 1.738740 
# 
# From -- ./inp_files/34655.got.cif
#   From: 2010.05.17/outbox.cif.g08.bks.cpg/sg21_18_cif.got.tgz:34655.got - 2010.06.03 23:14:55.
