data_PCOD9323148
_publ_section_title
;
Structure prediction by ZEFSAII (Michael W. Deem and Ramdas Pophale) SiO2 
 PCOD9323148
Probable space group: C 2 2 2
;
_chemical_formula_sum "Si O2"
_cell_formula_units_Z 32
_cell_length_a 10.569990
_cell_length_b 19.218705
_cell_length_c 8.496316
_cell_angle_alpha 90.000000
_cell_angle_beta 90.000000
_cell_angle_gamma 90.000000
_cell_volume 1725.954544
_symmetry_space_group_name_H-M "C 2 2 2"
_symmetry_group_IT_number 21
_symmetry_cell_setting 'orthorhombic'
loop_
_space_group_symop_operation_xyz
x,y,z
-x,-y,z
x,-y,-z
-x,y,-z
1/2+x,1/2+y,z
1/2-x,1/2-y,z
1/2+x,1/2-y,-z
1/2-x,1/2+y,-z
loop_
_atom_site_type_symbol
_atom_site_label
_atom_site_fract_x
_atom_site_fract_y
_atom_site_fract_z
Si Si1 0.250000 0.250000 0.372489
Si Si2 0.002784 0.767674 0.188336
Si Si3 0.500000 0.500000 0.000000
Si Si4 0.000000 0.000000 0.500000
Si Si5 0.886722 0.643132 0.606638
Si Si6 0.647168 0.590273 0.748544
O O1 0.363661 0.277829 0.263130
O O2 0.197834 0.311428 0.484281
O O3 0.054344 0.698568 0.271973
O O4 0.092566 0.831853 0.235316
O O5 0.000000 0.761768 0.000000
O O6 0.593009 0.548474 0.897728
O O7 0.915397 0.049994 0.395307
O O8 0.795256 0.594206 0.708052
O O9 0.000000 0.612010 0.500000
#
# Coordination Sequence:
#
# PCOD9323148 Si02
#       6
#     4   8   2   2   8   8
#     4  10  20  32  54  92 118 152 190 230 320 366
#     4  11  22  33  60  90 125 153 186 255 316 358
#     4  10  24  34  60  94 118 174 196 246 296 358
#     4  10  24  34  66  86 108 174 200 254 280 346
#     4  10  21  38  61  89 119 157 197 255 305 361
#     4  11  20  40  57  87 122 153 213 241 298 355
#
# _framework density 18.540465999999999
#
# number of rings (size 3 to 8) (size 9 to 14) (size 15 to 20)
#    0.000    1.500    3.750    1.500    5.250    0.000 
#    0.000    0.625    0.000    0.000    0.000    0.000 
#    0.000    0.000    0.000    0.000    0.000    0.000 
#
# Total GULP energy -89290.022399 kJ/mol
# GULP energy per Si atom -5580.626400 kJ/mol
# Density = 1.849827 g / cm^3
# Si number density = 18.540466 Si / 1000 Ang^3
#
#
#
# Elastic Constant Matrix: (Units=GPa)
#
#
# Indices 1 2 3 4 5 6 
#
# 1 127.9119 26.8199 55.8891 0.0000 0.0000 0.0000
# 2 26.8199 40.7139 23.6877 0.0000 0.0000 0.0000
# 3 55.8891 23.6877 124.9344 0.0000 0.0000 0.0000
# 4 0.0000 0.0000 0.0000 -5.2922 0.0000 0.0000
# 5 0.0000 0.0000 0.0000 0.0000 -7.6918 0.0000
# 6 0.0000 0.0000 0.0000 0.0000 0.0000 29.2535
#
#
#
# Elastic Compliance Matrix: (Units=1/GPa)
#
#
# Indices 1 2 3 4 5 6 
#
# 1 0.010455 -0.004683 -0.003789 0.000000 0.000000 0.000000
# 2 -0.004683 0.029704 -0.003537 0.000000 0.000000 0.000000
# 3 -0.003789 -0.003537 0.010370 0.000000 0.000000 0.000000
# 4 0.000000 0.000000 0.000000 -0.188959 0.000000 0.000000
# 5 0.000000 0.000000 0.000000 0.000000 -0.130009 0.000000
# 6 0.000000 0.000000 0.000000 0.000000 0.000000 0.034184
#
#
# Mechanical properties :
#
#
# Convention : Reuss Voigt Hill
#
# Bulk Modulus (GPa) = 37.71985 56.26150 46.99068
# Shear Modulus (GPa) = -24.82638 15.73149 -4.54745
#
# Velocity S-wave (km/s) = -3.66326 2.91605 -1.56781
# Velocity P-wave (km/s) = 1.57993 6.46134 4.70346
#
# Compressibility (1/GPa) = 0.02651124
#
# Stress axis : x y z
#
# Youngs Moduli (GPa) = 95.64413 33.66517 96.43192
#
# Poissons Ratio (x) = 0.15764 0.36541
# Poissons Ratio (y) = 0.44788 0.34110
# Poissons Ratio (z) = 0.36243 0.11908
#
# Static dielectric constant tensor:
#      x y z
#    x 1.669870 0.000000 0.000000 
#    y 0.000000 1.699890 0.000000 
#    z 0.000000 0.000000 1.633140 
# 
# From -- ./inp_files/10530.got.cif
#   From: 2010.05.17/outbox.cif.g08.bks.cpg/sg21_6_cif.got.tgz:10530.got - 2010.06.03 23:14:55.
