data_PCOD9323256
_publ_section_title
;
Structure prediction by ZEFSAII (Michael W. Deem and Ramdas Pophale) SiO2 
 PCOD9323256
Probable space group: C 2 2 2
;
_chemical_formula_sum "Si O2"
_cell_formula_units_Z 64
_cell_length_a 17.982209
_cell_length_b 8.578827
_cell_length_c 21.030735
_cell_angle_alpha 90.000000
_cell_angle_beta 90.000000
_cell_angle_gamma 90.000000
_cell_volume 3244.332835
_symmetry_space_group_name_H-M "C 2 2 2"
_symmetry_group_IT_number 21
_symmetry_cell_setting 'orthorhombic'
loop_
_space_group_symop_operation_xyz
x,y,z
-x,-y,z
x,-y,-z
-x,y,-z
1/2+x,1/2+y,z
1/2-x,1/2-y,z
1/2+x,1/2-y,-z
1/2-x,1/2+y,-z
loop_
_atom_site_type_symbol
_atom_site_label
_atom_site_fract_x
_atom_site_fract_y
_atom_site_fract_z
Si Si1 0.584610 0.065107 0.064912
Si Si2 0.657627 0.086094 0.564114
Si Si3 0.416289 0.962206 0.312186
Si Si4 0.836112 0.060620 0.567804
Si Si5 0.684289 0.457504 0.815355
Si Si6 0.643358 0.117900 0.813597
Si Si7 0.176930 0.860889 0.052419
Si Si8 0.830976 0.159334 0.309783
O O1 0.604569 0.247538 0.058243
O O2 0.500000 0.000000 0.065999
O O3 0.619502 0.988906 0.127419
O O4 0.619726 0.000000 0.000000
O O5 0.746964 0.080642 0.561461
O O6 0.633054 0.264632 0.574215
O O7 0.630279 0.000000 0.500000
O O8 0.633935 0.999046 0.627239
O O9 0.395611 0.784731 0.298493
O O10 0.500000 0.000000 0.329634
O O11 0.396504 0.063518 0.250409
O O12 0.864240 0.000000 0.500000
O O13 0.845190 0.941405 0.626303
O O14 0.635087 0.302301 0.825289
O O15 0.769533 0.409534 0.805043
O O16 0.683325 0.561028 0.878429
O O17 0.665811 0.548177 0.751185
O O18 0.250000 0.750000 0.041154
O O19 0.172267 0.000000 0.000000
O O20 0.750000 0.250000 0.312345
#
# Coordination Sequence:
#
# PCOD9323256 Si02
#       8
#     8   8   8   8   8   8   8   8
#     4  11  24  44  64  90 132 174 212 258 321 390
#     4  10  20  37  60  89 125 159 205 257 319 379
#     4  12  25  40  60  87 125 169 209 256 325 390
#     4  10  20  34  63  94 119 155 209 266 310 371
#     4  11  23  38  67  96 127 156 215 273 323 378
#     4  11  22  41  64  93 126 166 209 266 324 384
#     4  12  24  40  68 102 132 168 219 272 327 387
#     4  12  21  39  62  92 123 161 211 264 317 373
#
# _framework density 19.726704999999999
#
# number of rings (size 3 to 8) (size 9 to 14) (size 15 to 20)
#    0.000    0.875    3.750    4.125    3.500    2.250 
#    0.000    8.125    0.000    0.750    0.000    0.000 
#    0.000    0.000    0.000    0.000    0.000    0.000 
#
# Total GULP energy -178550.650022 kJ/mol
# GULP energy per Si atom -5579.707813 kJ/mol
# Density = 1.968181 g / cm^3
# Si number density = 19.726705 Si / 1000 Ang^3
#
#
#
# Elastic Constant Matrix: (Units=GPa)
#
#
# Indices 1 2 3 4 5 6 
#
# 1 31.1353 30.8561 0.8256 0.0000 0.0000 0.0000
# 2 30.8561 134.5013 47.0457 0.0000 0.0000 0.0000
# 3 0.8256 47.0457 123.5659 0.0000 0.0000 0.0000
# 4 0.0000 0.0000 0.0000 39.9682 0.0000 0.0000
# 5 0.0000 0.0000 0.0000 0.0000 28.6246 0.0000
# 6 0.0000 0.0000 0.0000 0.0000 0.0000 16.6236
#
#
#
# Elastic Compliance Matrix: (Units=1/GPa)
#
#
# Indices 1 2 3 4 5 6 
#
# 1 0.043236 -0.011326 0.004023 0.000000 0.000000 0.000000
# 2 -0.011326 0.011544 -0.004320 0.000000 0.000000 0.000000
# 3 0.004023 -0.004320 0.009711 0.000000 0.000000 0.000000
# 4 0.000000 0.000000 0.000000 0.025020 0.000000 0.000000
# 5 0.000000 0.000000 0.000000 0.000000 0.034935 0.000000
# 6 0.000000 0.000000 0.000000 0.000000 0.000000 0.060155
#
#
# Mechanical properties :
#
#
# Convention : Reuss Voigt Hill
#
# Bulk Modulus (GPa) = 24.24489 49.62859 36.93674
# Shear Modulus (GPa) = 22.56383 31.07495 26.81939
#
# Velocity S-wave (km/s) = 3.38571 3.97328 3.69120
# Velocity P-wave (km/s) = 5.25368 6.80161 6.07713
#
# Compressibility (1/GPa) = 0.04124580
#
# Stress axis : x y z
#
# Youngs Moduli (GPa) = 23.12906 86.62455 102.98065
#
# Poissons Ratio (x) = 0.98111 -0.41432
# Poissons Ratio (y) = 0.26196 0.44483
# Poissons Ratio (z) = -0.09306 0.37418
#
# Static dielectric constant tensor:
#      x y z
#    x 1.716940 0.000000 0.000000 
#    y 0.000000 1.782700 0.000000 
#    z 0.000000 0.000000 1.704280 
# 
# From -- ./inp_files/37715.got.cif
#   From: 2010.05.17/outbox.cif.g08.bks.cpg/sg21_19_cif.got.tgz:37715.got - 2010.06.03 23:14:55.
