data_PCOD9323232
_publ_section_title
;
Structure prediction by ZEFSAII (Michael W. Deem and Ramdas Pophale) SiO2 
 PCOD9323232
Probable space group: C 2 2 2
;
_chemical_formula_sum "Si O2"
_cell_formula_units_Z 34
_cell_length_a 17.574998
_cell_length_b 9.747256
_cell_length_c 9.134924
_cell_angle_alpha 90.000000
_cell_angle_beta 90.000000
_cell_angle_gamma 90.000000
_cell_volume 1564.885604
_symmetry_space_group_name_H-M "C 2 2 2"
_symmetry_group_IT_number 21
_symmetry_cell_setting 'orthorhombic'
loop_
_space_group_symop_operation_xyz
x,y,z
-x,-y,z
x,-y,-z
-x,y,-z
1/2+x,1/2+y,z
1/2-x,1/2-y,z
1/2+x,1/2-y,-z
1/2-x,1/2+y,-z
loop_
_atom_site_type_symbol
_atom_site_label
_atom_site_fract_x
_atom_site_fract_y
_atom_site_fract_z
Si Si1 0.827810 0.580891 0.244702
Si Si2 0.000000 0.000000 0.000000
Si Si3 0.250000 0.250000 0.996669
Si Si4 0.750000 0.250000 0.507934
Si Si5 0.525531 0.756589 0.155625
Si Si6 0.359366 0.757234 0.256933
O O1 0.781453 0.632142 0.103017
O O2 0.783250 0.634113 0.386194
O O3 0.908351 0.659988 0.231375
O O4 0.842192 0.420120 0.251408
O O5 0.952325 0.896429 0.101666
O O6 0.317384 0.297845 0.888295
O O7 0.682798 0.298664 0.399776
O O8 0.449236 0.739814 0.249247
O O9 0.500000 0.824972 0.000000
#
# Coordination Sequence:
#
# PCOD9323232 Si02
#       6
#     8   2   4   4   8   8
#     4  11  22  42  65  96 126 170 219 267 317 383
#     4   8  20  40  54 106 128 160 200 266 340 388
#     4  10  20  34  58  98 128 158 212 254 332 370
#     4  10  26  44  54 102 132 172 204 254 340 380
#     4  10  21  41  66  99 125 163 221 270 328 374
#     4  11  22  42  65  96 126 170 219 267 317 383
#
# _framework density 21.726828000000001
#
# number of rings (size 3 to 8) (size 9 to 14) (size 15 to 20)
#    0.706    0.941    2.353    2.118    0.000    1.882 
#   42.353    2.353    0.000    1.412    0.000    0.000 
#    0.000    0.000    0.000    0.000    0.000    0.000 
#
# Total GULP energy -94986.324156 kJ/mol
# GULP energy per Si atom -5587.430833 kJ/mol
# Density = 2.167738 g / cm^3
# Si number density = 21.726828 Si / 1000 Ang^3
#
#
#
# Elastic Constant Matrix: (Units=GPa)
#
#
# Indices 1 2 3 4 5 6 
#
# 1 153.8111 51.1791 63.7583 0.0000 0.0000 0.0000
# 2 51.1791 63.5951 22.2250 0.0000 0.0000 0.0000
# 3 63.7583 22.2250 133.2699 0.0000 0.0000 0.0000
# 4 0.0000 0.0000 0.0000 15.2409 0.0000 0.0000
# 5 0.0000 0.0000 0.0000 0.0000 35.2854 0.0000
# 6 0.0000 0.0000 0.0000 0.0000 0.0000 24.5705
#
#
#
# Elastic Compliance Matrix: (Units=1/GPa)
#
#
# Indices 1 2 3 4 5 6 
#
# 1 0.010432 -0.007063 -0.003813 0.000000 0.000000 0.000000
# 2 -0.007063 0.021479 -0.000203 0.000000 0.000000 0.000000
# 3 -0.003813 -0.000203 0.009362 0.000000 0.000000 0.000000
# 4 0.000000 0.000000 0.000000 0.065613 0.000000 0.000000
# 5 0.000000 0.000000 0.000000 0.000000 0.028340 0.000000
# 6 0.000000 0.000000 0.000000 0.000000 0.000000 0.040699
#
#
# Mechanical properties :
#
#
# Convention : Reuss Voigt Hill
#
# Bulk Modulus (GPa) = 52.31426 69.44454 60.87940
# Shear Modulus (GPa) = 24.45521 29.25361 26.85441
#
# Velocity S-wave (km/s) = 3.35860 3.67335 3.51950
# Velocity P-wave (km/s) = 6.25865 7.07272 6.67810
#
# Compressibility (1/GPa) = 0.01911525
#
# Stress axis : x y z
#
# Youngs Moduli (GPa) = 95.85716 46.55615 106.81875
#
# Poissons Ratio (x) = 0.32882 0.40731
# Poissons Ratio (y) = 0.67703 0.02169
# Poissons Ratio (z) = 0.36551 0.00945
#
# Static dielectric constant tensor:
#      x y z
#    x 1.794260 0.000000 0.000000 
#    y 0.000000 1.799140 0.000000 
#    z 0.000000 0.000000 1.803370 
# 
# From -- ./inp_files/16073.got.cif
#   From: 2010.05.17/outbox.cif.g08.bks.cpg/sg21_9_cif.got.tgz:16073.got - 2010.06.03 23:14:55.
