data_PCOD9323742
_publ_section_title
;
Structure prediction by ZEFSAII (Michael W. Deem and Ramdas Pophale) SiO2 
 PCOD9323742
Probable space group: C 2 2 2
;
_chemical_formula_sum "Si O2"
_cell_formula_units_Z 40
_cell_length_a 16.627298
_cell_length_b 13.251937
_cell_length_c 7.629443
_cell_angle_alpha 90.000000
_cell_angle_beta 90.000000
_cell_angle_gamma 90.000000
_cell_volume 1681.101268
_symmetry_space_group_name_H-M "C 2 2 2"
_symmetry_group_IT_number 21
_symmetry_cell_setting 'orthorhombic'
loop_
_space_group_symop_operation_xyz
x,y,z
-x,-y,z
x,-y,-z
-x,y,-z
1/2+x,1/2+y,z
1/2-x,1/2-y,z
1/2+x,1/2-y,-z
1/2-x,1/2+y,-z
loop_
_atom_site_type_symbol
_atom_site_label
_atom_site_fract_x
_atom_site_fract_y
_atom_site_fract_z
Si Si1 0.726665 0.914247 0.866103
Si Si2 0.155189 0.748152 0.650626
Si Si3 0.017977 0.113331 0.289684
Si Si4 0.636723 0.273648 0.235070
Si Si5 0.916371 0.535306 0.300872
O O1 0.673316 0.811226 0.894658
O O2 0.805615 0.870506 0.776669
O O3 0.661678 0.977438 0.761174
O O4 0.754090 0.000000 0.000000
O O5 0.250000 0.750000 0.692700
O O6 0.108815 0.846414 0.722617
O O7 0.146539 0.739627 0.437998
O O8 0.104644 0.652214 0.716318
O O9 0.000000 0.115385 0.500000
O O10 0.954018 0.190843 0.206055
O O11 0.000000 0.000000 0.228610
O O12 0.922942 0.500000 0.500000
O O13 0.000000 0.500000 0.214337
#
# Coordination Sequence:
#
# PCOD9323742 Si02
#       5
#     8   8   8   8   8
#     4  11  23  41  64  91 133 186 226 274 337 409
#     4  11  20  36  65 103 139 168 222 285 340 400
#     4   9  20  35  61  95 135 175 214 271 342 407
#     4  10  20  42  62  89 135 179 218 279 342 400
#     4  11  22  37  66 101 135 171 220 283 347 397
#
# _framework density 23.793927
#
# number of rings (size 3 to 8) (size 9 to 14) (size 15 to 20)
#    0.000    1.600    4.000    1.200    8.400    0.400 
#    3.600    0.000    0.000    3.000    0.000    0.000 
#    0.000    0.000    0.000    0.000    0.000    0.000 
#
# Total GULP energy -111651.963593 kJ/mol
# GULP energy per Si atom -5582.598180 kJ/mol
# Density = 2.373977 g / cm^3
# Si number density = 23.793927 Si / 1000 Ang^3
#
#
#
# Elastic Constant Matrix: (Units=GPa)
#
#
# Indices 1 2 3 4 5 6 
#
# 1 165.4899 69.7182 18.6234 0.0000 0.0000 0.0000
# 2 69.7182 154.0606 24.4570 0.0000 0.0000 0.0000
# 3 18.6234 24.4570 27.6496 0.0000 0.0000 0.0000
# 4 0.0000 0.0000 0.0000 -119.6921 0.0000 0.0000
# 5 0.0000 0.0000 0.0000 0.0000 14.2923 0.0000
# 6 0.0000 0.0000 0.0000 0.0000 0.0000 44.8577
#
#
#
# Elastic Compliance Matrix: (Units=1/GPa)
#
#
# Indices 1 2 3 4 5 6 
#
# 1 0.007602 -0.003057 -0.002417 0.000000 0.000000 0.000000
# 2 -0.003057 0.008780 -0.005708 0.000000 0.000000 0.000000
# 3 -0.002417 -0.005708 0.042843 0.000000 0.000000 0.000000
# 4 0.000000 0.000000 0.000000 -0.008355 0.000000 0.000000
# 5 0.000000 0.000000 0.000000 0.000000 0.069968 0.000000
# 6 0.000000 0.000000 0.000000 0.000000 0.000000 0.022293
#
#
# Mechanical properties :
#
#
# Convention : Reuss Voigt Hill
#
# Bulk Modulus (GPa) = 27.12698 63.64414 45.38556
# Shear Modulus (GPa) = 28.12433 3.51834 15.82134
#
# Velocity S-wave (km/s) = 3.44175 1.21733 2.58142
# Velocity P-wave (km/s) = 5.21725 5.36488 5.29158
#
# Compressibility (1/GPa) = 0.03686366
#
# Stress axis : x y z
#
# Youngs Moduli (GPa) = 131.53774 113.89130 23.34088
#
# Poissons Ratio (x) = 0.34813 0.05641
# Poissons Ratio (y) = 0.40207 0.13322
# Poissons Ratio (z) = 0.31790 0.65005
#
# Static dielectric constant tensor:
#      x y z
#    x 2.833930 0.000000 0.000000 
#    y 0.000000 1.699650 0.000000 
#    z 0.000000 0.000000 1.944980 
# 
# From -- ./inp_files/12712.got.cif
#   From: 2010.05.17/outbox.cif.g08.bks.cpg/sg21_7_cif.got.tgz:12712.got - 2010.06.03 23:14:55.
