data_PCOD9323399
_publ_section_title
;
Structure prediction by ZEFSAII (Michael W. Deem and Ramdas Pophale) SiO2 
 PCOD9323399
Probable space group: C 2 2 2
;
_chemical_formula_sum "Si O2"
_cell_formula_units_Z 64
_cell_length_a 30.627197
_cell_length_b 9.089986
_cell_length_c 12.160666
_cell_angle_alpha 90.000000
_cell_angle_beta 90.000000
_cell_angle_gamma 90.000000
_cell_volume 3385.539045
_symmetry_space_group_name_H-M "C 2 2 2"
_symmetry_group_IT_number 21
_symmetry_cell_setting 'orthorhombic'
loop_
_space_group_symop_operation_xyz
x,y,z
-x,-y,z
x,-y,-z
-x,y,-z
1/2+x,1/2+y,z
1/2-x,1/2-y,z
1/2+x,1/2-y,-z
1/2-x,1/2+y,-z
loop_
_atom_site_type_symbol
_atom_site_label
_atom_site_fract_x
_atom_site_fract_y
_atom_site_fract_z
Si Si1 0.887778 0.675788 0.506458
Si Si2 0.919044 0.170684 0.709555
Si Si3 0.147618 0.900074 0.099130
Si Si4 0.575507 0.333476 0.280495
Si Si5 0.318236 0.340181 0.219433
Si Si6 0.503960 0.321509 0.872851
Si Si7 0.294314 0.828714 0.983891
Si Si8 0.205740 0.830118 0.533679
O O1 0.884419 0.500000 0.500000
O O2 0.915370 0.734570 0.401413
O O3 0.910319 0.732987 0.618104
O O4 0.838996 0.747416 0.501245
O O5 0.869925 0.172608 0.757025
O O6 0.951760 0.216809 0.807245
O O7 0.932096 0.002182 0.679153
O O8 0.114255 0.855381 0.192820
O O9 0.184570 0.006790 0.151862
O O10 0.167332 0.754313 0.047514
O O11 0.127680 0.000000 0.000000
O O12 0.535044 0.275343 0.208899
O O13 0.301757 0.210425 0.143170
O O14 0.294586 0.336238 0.334472
O O15 0.500000 0.500000 0.878053
O O16 0.500000 0.269724 0.000000
O O17 0.250000 0.750000 0.019667
O O18 0.293023 0.000000 0.000000
O O19 0.250000 0.750000 0.494378
O O20 0.203653 0.000000 0.500000
#
# Coordination Sequence:
#
# PCOD9323399 Si02
#       8
#     8   8   8   8   8   8   8   8
#     4  11  23  40  60  83 118 163 209 245 292 357
#     4   9  19  37  61  87 119 152 194 248 303 352
#     4   9  19  33  56  83 113 151 189 234 295 353
#     4  10  20  36  61  89 118 154 195 246 302 358
#     4   9  19  36  58  80 114 152 189 237 292 348
#     4   9  19  32  61  97 121 147 195 251 305 363
#     4  11  22  36  54  78 110 149 193 237 285 346
#     4  11  22  39  62  90 119 152 195 248 303 352
#
# _framework density 18.903931
#
# number of rings (size 3 to 8) (size 9 to 14) (size 15 to 20)
#    0.000    2.125    0.000    4.500    7.000    2.500 
#    0.000    9.375    0.000    0.750    0.000    0.000 
#    0.000    0.000    0.000    0.000    0.000    0.000 
#
# Total GULP energy -178499.999286 kJ/mol
# GULP energy per Si atom -5578.124978 kJ/mol
# Density = 1.886090 g / cm^3
# Si number density = 18.903931 Si / 1000 Ang^3
#
#
#
# Elastic Constant Matrix: (Units=GPa)
#
#
# Indices 1 2 3 4 5 6 
#
# 1 71.2118 44.9735 54.9082 0.0000 0.0000 0.0000
# 2 44.9735 135.5542 65.9028 0.0000 0.0000 0.0000
# 3 54.9082 65.9028 135.7522 0.0000 0.0000 0.0000
# 4 0.0000 0.0000 0.0000 18.2332 0.0000 0.0000
# 5 0.0000 0.0000 0.0000 0.0000 -13.6742 0.0000
# 6 0.0000 0.0000 0.0000 0.0000 0.0000 15.9629
#
#
#
# Elastic Compliance Matrix: (Units=1/GPa)
#
#
# Indices 1 2 3 4 5 6 
#
# 1 0.021852 -0.003865 -0.006962 0.000000 0.000000 0.000000
# 2 -0.003865 0.010340 -0.003456 0.000000 0.000000 0.000000
# 3 -0.006962 -0.003456 0.011860 0.000000 0.000000 0.000000
# 4 0.000000 0.000000 0.000000 0.054845 0.000000 0.000000
# 5 0.000000 0.000000 0.000000 0.000000 -0.073131 0.000000
# 6 0.000000 0.000000 0.000000 0.000000 0.000000 0.062645
#
#
# Mechanical properties :
#
#
# Convention : Reuss Voigt Hill
#
# Bulk Modulus (GPa) = 64.57912 74.89858 69.73885
# Shear Modulus (GPa) = 40.93653 15.88662 28.41158
#
# Velocity S-wave (km/s) = 4.65855 2.90209 3.88099
# Velocity P-wave (km/s) = 7.94808 7.13696 7.55341
#
# Compressibility (1/GPa) = 0.01548488
#
# Stress axis : x y z
#
# Youngs Moduli (GPa) = 45.76290 96.71360 84.31522
#
# Poissons Ratio (x) = 0.37381 0.58701
# Poissons Ratio (y) = 0.17688 0.29142
# Poissons Ratio (z) = 0.31861 0.33427
#
# Static dielectric constant tensor:
#      x y z
#    x 1.689100 0.000000 0.000000 
#    y 0.000000 1.678960 0.000000 
#    z 0.000000 0.000000 1.664600 
# 
# From -- ./inp_files/28083.got.cif
#   From: 2010.05.17/outbox.cif.g08.bks.cpg/sg21_15_cif.got.tgz:28083.got - 2010.06.03 23:14:55.
