data_PCOD9323848
_publ_section_title
;
Structure prediction by ZEFSAII (Michael W. Deem and Ramdas Pophale) SiO2 
 PCOD9323848
Probable space group: C 2 2 2
;
_chemical_formula_sum "Si O2"
_cell_formula_units_Z 38
_cell_length_a 19.235083
_cell_length_b 5.866258
_cell_length_c 17.509390
_cell_angle_alpha 90.000000
_cell_angle_beta 90.000000
_cell_angle_gamma 90.000000
_cell_volume 1975.723840
_symmetry_space_group_name_H-M "C 2 2 2"
_symmetry_group_IT_number 21
_symmetry_cell_setting 'orthorhombic'
loop_
_space_group_symop_operation_xyz
x,y,z
-x,-y,z
x,-y,-z
-x,y,-z
1/2+x,1/2+y,z
1/2-x,1/2-y,z
1/2+x,1/2-y,-z
1/2-x,1/2+y,-z
loop_
_atom_site_type_symbol
_atom_site_label
_atom_site_fract_x
_atom_site_fract_y
_atom_site_fract_z
Si Si1 0.290340 0.000000 0.000000
Si Si2 0.171434 0.329542 0.685503
Si Si3 0.424639 0.436081 0.242985
Si Si4 0.932593 0.353823 0.609359
Si Si5 0.824162 0.630329 0.160858
Si Si6 0.000000 0.000000 0.500000
O O1 0.250000 0.750000 0.003214
O O2 0.332239 0.009116 0.079588
O O3 0.250000 0.250000 0.665773
O O4 0.135338 0.484781 0.619206
O O5 0.176335 0.470034 0.764801
O O6 0.119663 0.124267 0.709850
O O7 0.500000 0.500000 0.213316
O O8 0.440114 0.245771 0.306223
O O9 0.379265 0.327803 0.176579
O O10 0.000000 0.500000 0.592328
O O11 0.945995 0.147401 0.551202
O O12 0.750000 0.750000 0.159989
#
# Coordination Sequence:
#
# PCOD9323848 Si02
#       6
#     4   8   8   8   8   2
#     4  10  22  38  62  95 133 180 236 278 346 414
#     4  11  21  37  64  99 129 160 217 277 330 384
#     4  11  21  38  61  99 127 162 217 270 328 391
#     4  11  22  38  64  99 121 166 216 269 325 401
#     4  10  21  35  62  97 127 173 221 281 327 392
#     4  12  22  40  64 102 124 168 224 274 328 414
#
# _framework density 19.233457000000001
#
# number of rings (size 3 to 8) (size 9 to 14) (size 15 to 20)
#    0.000    1.263    5.263    0.947    2.947    0.000 
#    0.000    0.000    0.000    3.789   76.632    0.000 
#    0.000    0.000    0.000    0.000    0.000    0.000 
#
# Total GULP energy -105776.671130 kJ/mol
# GULP energy per Si atom -5567.193217 kJ/mol
# Density = 1.918968 g / cm^3
# Si number density = 19.233457 Si / 1000 Ang^3
#
#
#
# Elastic Constant Matrix: (Units=GPa)
#
#
# Indices 1 2 3 4 5 6 
#
# 1 155.5512 51.2157 45.9588 0.0000 0.0000 0.0000
# 2 51.2157 82.8366 37.1071 0.0000 0.0000 0.0000
# 3 45.9588 37.1071 94.5128 0.0000 0.0000 0.0000
# 4 0.0000 0.0000 0.0000 37.4205 0.0000 0.0000
# 5 0.0000 0.0000 0.0000 0.0000 7.9623 0.0000
# 6 0.0000 0.0000 0.0000 0.0000 0.0000 23.3615
#
#
#
# Elastic Compliance Matrix: (Units=1/GPa)
#
#
# Indices 1 2 3 4 5 6 
#
# 1 0.008541 -0.004150 -0.002524 0.000000 0.000000 0.000000
# 2 -0.004150 0.016665 -0.004525 0.000000 0.000000 0.000000
# 3 -0.002524 -0.004525 0.013584 0.000000 0.000000 0.000000
# 4 0.000000 0.000000 0.000000 0.026723 0.000000 0.000000
# 5 0.000000 0.000000 0.000000 0.000000 0.125592 0.000000
# 6 0.000000 0.000000 0.000000 0.000000 0.000000 0.042806
#
#
# Mechanical properties :
#
#
# Convention : Reuss Voigt Hill
#
# Bulk Modulus (GPa) = 61.00288 66.82932 63.91610
# Shear Modulus (GPa) = 19.10059 26.99012 23.04535
#
# Velocity S-wave (km/s) = 3.15475 3.75012 3.46524
# Velocity P-wave (km/s) = 6.71237 7.31936 7.02242
#
# Compressibility (1/GPa) = 0.01639267
#
# Stress axis : x y z
#
# Youngs Moduli (GPa) = 117.08458 60.00709 73.61431
#
# Poissons Ratio (x) = 0.24903 0.18579
# Poissons Ratio (y) = 0.48590 0.33309
# Poissons Ratio (z) = 0.29550 0.27152
#
# Static dielectric constant tensor:
#      x y z
#    x 1.729220 0.000000 0.000000 
#    y 0.000000 1.749900 0.000000 
#    z 0.000000 0.000000 1.668840 
# 
# From -- ./inp_files/34693.got.cif
#   From: 2010.05.17/outbox.cif.g08.bks.cpg/sg21_18_cif.got.tgz:34693.got - 2010.06.03 23:14:55.
