data_PCOD9323133
_publ_section_title
;
Structure prediction by ZEFSAII (Michael W. Deem and Ramdas Pophale) SiO2 
 PCOD9323133
Probable space group: C 2 2 2
;
_chemical_formula_sum "Si O2"
_cell_formula_units_Z 48
_cell_length_a 18.407941
_cell_length_b 14.527580
_cell_length_c 9.390356
_cell_angle_alpha 90.000000
_cell_angle_beta 90.000000
_cell_angle_gamma 90.000000
_cell_volume 2511.195628
_symmetry_space_group_name_H-M "C 2 2 2"
_symmetry_group_IT_number 21
_symmetry_cell_setting 'orthorhombic'
loop_
_space_group_symop_operation_xyz
x,y,z
-x,-y,z
x,-y,-z
-x,y,-z
1/2+x,1/2+y,z
1/2-x,1/2-y,z
1/2+x,1/2-y,-z
1/2-x,1/2+y,-z
loop_
_atom_site_type_symbol
_atom_site_label
_atom_site_fract_x
_atom_site_fract_y
_atom_site_fract_z
Si Si1 0.870971 0.845093 0.925647
Si Si2 0.800453 0.166461 0.787239
Si Si3 0.974442 0.103786 0.301450
Si Si4 0.398323 0.303424 0.471394
Si Si5 0.233870 0.474618 0.846169
Si Si6 0.674168 0.197296 0.299243
O O1 0.945882 0.877036 0.855764
O O2 0.807121 0.916836 0.882987
O O3 0.852668 0.750118 0.843911
O O4 0.864224 0.840962 0.094966
O O5 0.750000 0.250000 0.837704
O O6 0.831828 0.187746 0.633988
O O7 0.757127 0.071449 0.781087
O O8 0.906122 0.117710 0.408267
O O9 0.032459 0.176293 0.367570
O O10 0.000000 0.000000 0.314166
O O11 0.382527 0.215410 0.572240
O O12 0.188890 0.407466 0.744365
O O13 0.199256 0.500000 0.000000
O O14 0.750000 0.250000 0.336293
#
# Coordination Sequence:
#
# PCOD9323133 Si02
#       6
#     8   8   8   8   8   8
#     4   9  18  33  54  79 112 148 183 229 282 342
#     4  11  21  34  52  82 116 145 188 241 288 339
#     4  10  20  35  53  77 111 156 194 223 274 346
#     4  10  20  32  48  74 110 148 186 228 273 333
#     4   9  17  31  53  79 107 144 186 233 285 337
#     4   9  17  32  51  73 105 148 188 226 279 333
#
# _framework density 19.114401000000001
#
# number of rings (size 3 to 8) (size 9 to 14) (size 15 to 20)
#    0.000    2.333    0.000    5.000    0.000    3.333 
#    0.000    7.500    0.000    0.000    0.000   19.833 
#    0.000   44.000    0.000    1.667    0.000    0.000 
#
# Total GULP energy -133684.423520 kJ/mol
# GULP energy per Si atom -5570.184313 kJ/mol
# Density = 1.907090 g / cm^3
# Si number density = 19.114401 Si / 1000 Ang^3
#
#
#
# Elastic Constant Matrix: (Units=GPa)
#
#
# Indices 1 2 3 4 5 6 
#
# 1 41.7297 25.6156 38.6986 0.0000 0.0000 0.0000
# 2 25.6156 102.2079 60.5465 0.0000 0.0000 0.0000
# 3 38.6986 60.5465 119.4646 0.0000 0.0000 0.0000
# 4 0.0000 0.0000 0.0000 20.6073 0.0000 0.0000
# 5 0.0000 0.0000 0.0000 0.0000 30.6976 0.0000
# 6 0.0000 0.0000 0.0000 0.0000 0.0000 21.8146
#
#
#
# Elastic Compliance Matrix: (Units=1/GPa)
#
#
# Indices 1 2 3 4 5 6 
#
# 1 0.034855 -0.002925 -0.009808 0.000000 0.000000 0.000000
# 2 -0.002925 0.014227 -0.006263 0.000000 0.000000 0.000000
# 3 -0.009808 -0.006263 0.014722 0.000000 0.000000 0.000000
# 4 0.000000 0.000000 0.000000 0.048527 0.000000 0.000000
# 5 0.000000 0.000000 0.000000 0.000000 0.032576 0.000000
# 6 0.000000 0.000000 0.000000 0.000000 0.000000 0.045841
#
#
# Mechanical properties :
#
#
# Convention : Reuss Voigt Hill
#
# Bulk Modulus (GPa) = 38.74228 57.01373 47.87801
# Shear Modulus (GPa) = 21.06642 23.86000 22.46321
#
# Velocity S-wave (km/s) = 3.32343 3.53692 3.43184
# Velocity P-wave (km/s) = 5.91942 6.82438 6.38794
#
# Compressibility (1/GPa) = 0.02581159
#
# Stress axis : x y z
#
# Youngs Moduli (GPa) = 28.69010 70.28781 67.92527
#
# Poissons Ratio (x) = 0.20561 0.66623
# Poissons Ratio (y) = 0.08393 0.42541
# Poissons Ratio (z) = 0.28140 0.44021
#
# Static dielectric constant tensor:
#      x y z
#    x 1.739360 0.000000 0.000000 
#    y 0.000000 1.653070 0.000000 
#    z 0.000000 0.000000 1.696030 
# 
# From -- ./inp_files/16424.got.cif
#   From: 2010.05.17/outbox.cif.g08.bks.cpg/sg21_9_cif.got.tgz:16424.got - 2010.06.03 23:14:55.
