data_PCOD9323596
_publ_section_title
;
Structure prediction by ZEFSAII (Michael W. Deem and Ramdas Pophale) SiO2 
 PCOD9323596
Probable space group: C 2 2 2
;
_chemical_formula_sum "Si O2"
_cell_formula_units_Z 54
_cell_length_a 29.181874
_cell_length_b 12.814175
_cell_length_c 5.722702
_cell_angle_alpha 90.000000
_cell_angle_beta 90.000000
_cell_angle_gamma 90.000000
_cell_volume 2139.956573
_symmetry_space_group_name_H-M "C 2 2 2"
_symmetry_group_IT_number 21
_symmetry_cell_setting 'orthorhombic'
loop_
_space_group_symop_operation_xyz
x,y,z
-x,-y,z
x,-y,-z
-x,y,-z
1/2+x,1/2+y,z
1/2-x,1/2-y,z
1/2+x,1/2-y,-z
1/2-x,1/2+y,-z
loop_
_atom_site_type_symbol
_atom_site_label
_atom_site_fract_x
_atom_site_fract_y
_atom_site_fract_z
Si Si1 0.453796 0.838466 0.654575
Si Si2 0.125798 0.838360 0.222166
Si Si3 0.789432 0.335198 0.721486
Si Si4 0.500000 0.000000 0.000000
Si Si5 0.615810 0.000000 0.500000
Si Si6 0.181869 0.616949 0.218515
Si Si7 0.127043 0.181792 0.277461
Si Si8 0.982571 0.880279 0.759185
O O1 0.500000 0.833827 0.500000
O O2 0.423732 0.735858 0.724769
O O3 0.416739 0.901339 0.505445
O O4 0.467684 0.919724 0.857826
O O5 0.150355 0.723360 0.213328
O O6 0.137722 0.877865 0.482020
O O7 0.070829 0.852379 0.236889
O O8 0.135468 0.880168 0.961646
O O9 0.750000 0.250000 0.733308
O O10 0.787440 0.380506 0.456445
O O11 0.838296 0.277839 0.720207
O O12 0.789710 0.387915 0.978879
O O13 0.648056 0.979750 0.723485
O O14 0.000000 0.855932 0.500000
O O15 0.000000 0.000000 0.777237
O O16 0.000000 0.827620 0.000000
#
# Coordination Sequence:
#
# PCOD9323596 Si02
#       8
#     8   8   8   2   4   8   8   8
#     4  12  25  38  50  81 126 184 223 258 303 370
#     4  10  20  39  53  85 117 155 202 250 316 367
#     4  10  20  39  62  91 118 153 208 271 324 376
#     4  12  26  32  56  70 116 192 216 268 294 364
#     4  12  21  44  54  86 138 180 220 256 321 384
#     4  10  23  37  62  92 125 170 201 257 315 390
#     4  10  23  38  57  86 122 160 204 256 310 371
#     4  10  21  37  57  84 115 147 199 269 313 363
#
# _framework density 25.234157
#
# number of rings (size 3 to 8) (size 9 to 14) (size 15 to 20)
#    0.000    1.481    4.444    1.333    6.222    2.370 
#    0.000    0.000    0.000    0.000    0.000   82.963 
#    0.000    0.000    0.000    0.000    0.000    0.000 
#
# Total GULP energy -150344.914856 kJ/mol
# GULP energy per Si atom -5568.330180 kJ/mol
# Density = 2.517672 g / cm^3
# Si number density = 25.234157 Si / 1000 Ang^3
#
#
#
# Elastic Constant Matrix: (Units=GPa)
#
#
# Indices 1 2 3 4 5 6 
#
# 1 64.6137 26.0930 25.8080 0.0000 0.0000 0.0000
# 2 26.0930 94.4539 21.5267 0.0000 0.0000 0.0000
# 3 25.8080 21.5267 263.3928 0.0000 0.0000 0.0000
# 4 0.0000 0.0000 0.0000 188.9005 0.0000 0.0000
# 5 0.0000 0.0000 0.0000 0.0000 25.4654 0.0000
# 6 0.0000 0.0000 0.0000 0.0000 0.0000 -6.8060
#
#
#
# Elastic Compliance Matrix: (Units=1/GPa)
#
#
# Indices 1 2 3 4 5 6 
#
# 1 0.017896 -0.004630 -0.001375 0.000000 0.000000 0.000000
# 2 -0.004630 0.011986 -0.000526 0.000000 0.000000 0.000000
# 3 -0.001375 -0.000526 0.003974 0.000000 0.000000 0.000000
# 4 0.000000 0.000000 0.000000 0.005294 0.000000 0.000000
# 5 0.000000 0.000000 0.000000 0.000000 0.039269 0.000000
# 6 0.000000 0.000000 0.000000 0.000000 0.000000 -0.146928
#
#
# Mechanical properties :
#
#
# Convention : Reuss Voigt Hill
#
# Bulk Modulus (GPa) = 48.09169 63.25730 55.67450
# Shear Modulus (GPa) = -103.05946 64.78083 -19.13931
#
# Velocity S-wave (km/s) = -6.39765 5.07224 -2.75702
# Velocity P-wave (km/s) = 5.95598 7.70883 3.46066
#
# Compressibility (1/GPa) = 0.02079361
#
# Stress axis : x y z
#
# Youngs Moduli (GPa) = 55.87943 83.42953 251.61512
#
# Poissons Ratio (x) = 0.38630 0.34598
# Poissons Ratio (y) = 0.25874 0.13233
# Poissons Ratio (z) = 0.07684 0.04388
#
# Static dielectric constant tensor:
#      x y z
#    x 1.474620 0.000000 0.000000 
#    y 0.000000 2.005420 0.000000 
#    z 0.000000 0.000000 2.085410 
# 
# From -- ./inp_files/8047.got.cif
#   From: 2010.05.17/outbox.cif.g08.bks.cpg/sg21_5_cif.got.tgz:8047.got - 2010.06.03 23:14:55.
