data_PCOD9323234
_publ_section_title
;
Structure prediction by ZEFSAII (Michael W. Deem and Ramdas Pophale) SiO2 
 PCOD9323234
Probable space group: C 2 2 2
;
_chemical_formula_sum "Si O2"
_cell_formula_units_Z 28
_cell_length_a 7.335367
_cell_length_b 20.028178
_cell_length_c 9.193673
_cell_angle_alpha 90.000000
_cell_angle_beta 90.000000
_cell_angle_gamma 90.000000
_cell_volume 1350.679606
_symmetry_space_group_name_H-M "C 2 2 2"
_symmetry_group_IT_number 21
_symmetry_cell_setting 'orthorhombic'
loop_
_space_group_symop_operation_xyz
x,y,z
-x,-y,z
x,-y,-z
-x,y,-z
1/2+x,1/2+y,z
1/2-x,1/2-y,z
1/2+x,1/2-y,-z
1/2-x,1/2+y,-z
loop_
_atom_site_type_symbol
_atom_site_label
_atom_site_fract_x
_atom_site_fract_y
_atom_site_fract_z
Si Si1 0.250000 0.250000 0.101591
Si Si2 0.945707 0.780328 0.661978
Si Si3 0.006882 0.927506 0.243536
Si Si4 0.286772 0.102614 0.009404
O O1 0.079863 0.244185 0.211142
O O2 0.264778 0.182976 0.008347
O O3 0.250000 0.750000 0.309491
O O4 0.000000 0.757716 0.500000
O O5 0.953670 0.860940 0.666344
O O6 0.815330 0.917454 0.158293
O O7 0.165565 0.927586 0.120050
O O8 0.000000 0.000000 0.316027
O O9 0.500000 0.085557 0.000000
#
# Coordination Sequence:
#
# PCOD9323234 Si02
#       4
#     4   8   8   8
#     4  10  22  34  56  92 114 154 200 244 308 346
#     4  11  22  40  62  84 118 154 206 257 291 345
#     4  10  23  38  56  89 122 158 195 237 305 367
#     4  10  20  34  59  85 124 154 193 242 298 363
#
# _framework density 20.730305000000001
#
# number of rings (size 3 to 8) (size 9 to 14) (size 15 to 20)
#    0.000    1.714    1.429    3.429   10.000    2.857 
#    0.000    0.000    0.000    0.000    0.000    0.000 
#    0.000    0.000    0.000    0.000    0.000    0.000 
#
# Total GULP energy -78262.303674 kJ/mol
# GULP energy per Si atom -5590.164548 kJ/mol
# Density = 2.068312 g / cm^3
# Si number density = 20.730305 Si / 1000 Ang^3
#
#
#
# Elastic Constant Matrix: (Units=GPa)
#
#
# Indices 1 2 3 4 5 6 
#
# 1 190.5226 30.8912 32.0644 0.0000 0.0000 0.0000
# 2 30.8912 144.0541 16.2921 0.0000 0.0000 0.0000
# 3 32.0644 16.2921 57.4469 0.0000 0.0000 0.0000
# 4 0.0000 0.0000 0.0000 -22.3057 0.0000 0.0000
# 5 0.0000 0.0000 0.0000 0.0000 9.7150 0.0000
# 6 0.0000 0.0000 0.0000 0.0000 0.0000 14.7630
#
#
#
# Elastic Compliance Matrix: (Units=1/GPa)
#
#
# Indices 1 2 3 4 5 6 
#
# 1 0.005910 -0.000924 -0.003036 0.000000 0.000000 0.000000
# 2 -0.000924 0.007316 -0.001559 0.000000 0.000000 0.000000
# 3 -0.003036 -0.001559 0.019544 0.000000 0.000000 0.000000
# 4 0.000000 0.000000 0.000000 -0.044832 0.000000 0.000000
# 5 0.000000 0.000000 0.000000 0.000000 0.102933 0.000000
# 6 0.000000 0.000000 0.000000 0.000000 0.000000 0.067737
#
#
# Mechanical properties :
#
#
# Convention : Reuss Voigt Hill
#
# Bulk Modulus (GPa) = 46.01696 61.16878 53.59287
# Shear Modulus (GPa) = 28.26590 21.28619 24.77604
#
# Velocity S-wave (km/s) = 3.69657 3.20787 3.46086
# Velocity P-wave (km/s) = 6.36126 6.57963 6.47137
#
# Compressibility (1/GPa) = 0.02173112
#
# Stress axis : x y z
#
# Youngs Moduli (GPa) = 169.21798 136.68117 51.16554
#
# Poissons Ratio (x) = 0.12627 0.15536
# Poissons Ratio (y) = 0.15633 0.07978
# Poissons Ratio (z) = 0.51382 0.21312
#
# Static dielectric constant tensor:
#      x y z
#    x 1.742720 0.000000 0.000000 
#    y 0.000000 1.769860 0.000000 
#    z 0.000000 0.000000 1.717270 
# 
# From -- ./inp_files/20535.got.cif
#   From: 2010.05.17/outbox.cif.g08.bks.cpg/sg21_11_cif.got.tgz:20535.got - 2010.06.03 23:14:55.
