data_PCOD9323053
_publ_section_title
;
Structure prediction by ZEFSAII (Michael W. Deem and Ramdas Pophale) SiO2 
 PCOD9323053
Probable space group: C 2 2 2
;
_chemical_formula_sum "Si O2"
_cell_formula_units_Z 32
_cell_length_a 14.281577
_cell_length_b 8.478989
_cell_length_c 10.345565
_cell_angle_alpha 90.000000
_cell_angle_beta 90.000000
_cell_angle_gamma 90.000000
_cell_volume 1252.778961
_symmetry_space_group_name_H-M "C 2 2 2"
_symmetry_group_IT_number 21
_symmetry_cell_setting 'orthorhombic'
loop_
_space_group_symop_operation_xyz
x,y,z
-x,-y,z
x,-y,-z
-x,y,-z
1/2+x,1/2+y,z
1/2-x,1/2-y,z
1/2+x,1/2-y,-z
1/2-x,1/2+y,-z
loop_
_atom_site_type_symbol
_atom_site_label
_atom_site_fract_x
_atom_site_fract_y
_atom_site_fract_z
Si Si1 0.400769 0.595733 0.162759
Si Si2 0.824891 0.886285 0.381908
Si Si3 0.523089 0.823682 0.316445
Si Si4 0.109346 0.334781 0.043350
O O1 0.500000 0.500000 0.141183
O O2 0.335731 0.486160 0.249855
O O3 0.432351 0.740345 0.255591
O O4 0.359317 0.678291 0.033984
O O5 0.750000 0.750000 0.373974
O O6 0.923408 0.797087 0.408240
O O7 0.802291 0.000000 0.500000
O O8 0.597729 0.834405 0.196605
O O9 0.500000 0.000000 0.358245
O O10 0.152973 0.500000 0.000000
O O11 0.000000 0.339206 0.000000
#
# Coordination Sequence:
#
# PCOD9323053 Si02
#       4
#     8   8   8   8
#     4   9  19  35  67 103 135 168 215 267 323 401
#     4  11  27  48  64  87 132 188 237 284 338 382
#     4  10  19  38  74 106 133 166 214 274 334 409
#     4   9  14  30  64 105 142 162 193 255 343 408
#
# _framework density 25.543212
#
# number of rings (size 3 to 8) (size 9 to 14) (size 15 to 20)
#    0.000    2.250    5.000    0.000    0.000   18.000 
#    0.000    1.250    5.500    1.500    0.000    0.000 
#    0.000    0.000    0.000    0.000    0.000    0.000 
#
# Total GULP energy -89462.832078 kJ/mol
# GULP energy per Si atom -5591.427005 kJ/mol
# Density = 2.548507 g / cm^3
# Si number density = 25.543212 Si / 1000 Ang^3
#
#
#
# Elastic Constant Matrix: (Units=GPa)
#
#
# Indices 1 2 3 4 5 6 
#
# 1 54.4436 37.0504 50.2841 0.0000 0.0000 0.0000
# 2 37.0504 214.3764 75.2890 0.0000 0.0000 0.0000
# 3 50.2841 75.2890 144.9475 0.0000 0.0000 0.0000
# 4 0.0000 0.0000 0.0000 2.6151 0.0000 0.0000
# 5 0.0000 0.0000 0.0000 0.0000 5.3688 0.0000
# 6 0.0000 0.0000 0.0000 0.0000 0.0000 49.8162
#
#
#
# Elastic Compliance Matrix: (Units=1/GPa)
#
#
# Indices 1 2 3 4 5 6 
#
# 1 0.027535 -0.001717 -0.008660 0.000000 0.000000 0.000000
# 2 -0.001717 0.005813 -0.002423 0.000000 0.000000 0.000000
# 3 -0.008660 -0.002423 0.011162 0.000000 0.000000 0.000000
# 4 0.000000 0.000000 0.000000 0.382391 0.000000 0.000000
# 5 0.000000 0.000000 0.000000 0.000000 0.186262 0.000000
# 6 0.000000 0.000000 0.000000 0.000000 0.000000 0.020074
#
#
# Mechanical properties :
#
#
# Convention : Reuss Voigt Hill
#
# Bulk Modulus (GPa) = 52.88845 82.11271 67.50058
# Shear Modulus (GPa) = 7.51721 28.30296 17.91008
#
# Velocity S-wave (km/s) = 1.71736 3.33234 2.65083
# Velocity P-wave (km/s) = 4.96819 6.85728 5.98770
#
# Compressibility (1/GPa) = 0.01890772
#
# Stress axis : x y z
#
# Youngs Moduli (GPa) = 36.31765 172.03978 89.58857
#
# Poissons Ratio (x) = 0.29546 0.77585
# Poissons Ratio (y) = 0.06237 0.21711
# Poissons Ratio (z) = 0.31452 0.41692
#
# Static dielectric constant tensor:
#      x y z
#    x 2.009400 0.000000 0.000000 
#    y 0.000000 2.063260 0.000000 
#    z 0.000000 0.000000 2.131070 
# 
# From -- ./inp_files/24771.got.cif
#   From: 2010.05.17/outbox.cif.g08.bks.cpg/sg21_13_cif.got.tgz:24771.got - 2010.06.03 23:14:55.
