data_PCOD9323309
_publ_section_title
;
Structure prediction by ZEFSAII (Michael W. Deem and Ramdas Pophale) SiO2 
 PCOD9323309
Probable space group: C 2 2 2
;
_chemical_formula_sum "Si O2"
_cell_formula_units_Z 48
_cell_length_a 17.661528
_cell_length_b 8.397054
_cell_length_c 16.138719
_cell_angle_alpha 90.000000
_cell_angle_beta 90.000000
_cell_angle_gamma 90.000000
_cell_volume 2393.449564
_symmetry_space_group_name_H-M "C 2 2 2"
_symmetry_group_IT_number 21
_symmetry_cell_setting 'orthorhombic'
loop_
_space_group_symop_operation_xyz
x,y,z
-x,-y,z
x,-y,-z
-x,y,-z
1/2+x,1/2+y,z
1/2-x,1/2-y,z
1/2+x,1/2-y,-z
1/2-x,1/2+y,-z
loop_
_atom_site_type_symbol
_atom_site_label
_atom_site_fract_x
_atom_site_fract_y
_atom_site_fract_z
Si Si1 0.675292 0.631841 0.572752
Si Si2 0.833553 0.940074 0.256828
Si Si3 0.344805 0.076093 0.256107
Si Si4 0.586794 0.443741 0.911379
Si Si5 0.585512 0.062173 0.914795
Si Si6 0.415434 0.074181 0.583044
O O1 0.682007 0.500000 0.500000
O O2 0.750000 0.750000 0.572090
O O3 0.663837 0.544421 0.660639
O O4 0.599652 0.740430 0.566675
O O5 0.744340 0.924935 0.242347
O O6 0.866408 0.761675 0.271164
O O7 0.871835 0.001215 0.172162
O O8 0.379830 0.009190 0.171944
O O9 0.370738 0.976705 0.335129
O O10 0.500000 0.500000 0.907416
O O11 0.588257 0.252716 0.913938
O O12 0.619010 0.500000 0.000000
O O13 0.500000 0.000000 0.915080
O O14 0.622123 0.000000 0.000000
O O15 0.500000 0.000000 0.590509
O O16 0.380809 0.000000 0.500000
#
# Coordination Sequence:
#
# PCOD9323309 Si02
#       6
#     8   8   8   8   8   8
#     4  12  25  42  70 101 131 179 230 277 343 417
#     4  10  23  39  62  94 127 167 225 266 331 400
#     4  10  21  40  61  87 130 169 209 275 329 396
#     4  10  21  39  61  88 129 173 216 277 335 400
#     4  10  20  35  58  86 114 163 214 260 325 396
#     4  11  24  43  65  94 131 170 216 275 337 398
#
# _framework density 20.054736999999999
#
# number of rings (size 3 to 8) (size 9 to 14) (size 15 to 20)
#    0.000    1.500    1.667    4.000    2.333    6.000 
#    0.000    5.000    0.000    0.000    0.000    0.000 
#    0.000    0.000    0.000    0.000    0.000    0.000 
#
# Total GULP energy -133847.932044 kJ/mol
# GULP energy per Si atom -5576.997168 kJ/mol
# Density = 2.000909 g / cm^3
# Si number density = 20.054737 Si / 1000 Ang^3
#
#
#
# Elastic Constant Matrix: (Units=GPa)
#
#
# Indices 1 2 3 4 5 6 
#
# 1 55.7743 27.3416 46.4504 0.0000 0.0000 0.0000
# 2 27.3416 78.1420 70.3599 0.0000 0.0000 0.0000
# 3 46.4504 70.3599 219.9715 0.0000 0.0000 0.0000
# 4 0.0000 0.0000 0.0000 49.5907 0.0000 0.0000
# 5 0.0000 0.0000 0.0000 0.0000 20.6217 0.0000
# 6 0.0000 0.0000 0.0000 0.0000 0.0000 16.7489
#
#
#
# Elastic Compliance Matrix: (Units=1/GPa)
#
#
# Indices 1 2 3 4 5 6 
#
# 1 0.023167 -0.005198 -0.003229 0.000000 0.000000 0.000000
# 2 -0.005198 0.019140 -0.005024 0.000000 0.000000 0.000000
# 3 -0.003229 -0.005024 0.006835 0.000000 0.000000 0.000000
# 4 0.000000 0.000000 0.000000 0.020165 0.000000 0.000000
# 5 0.000000 0.000000 0.000000 0.000000 0.048492 0.000000
# 6 0.000000 0.000000 0.000000 0.000000 0.000000 0.059705
#
#
# Mechanical properties :
#
#
# Convention : Reuss Voigt Hill
#
# Bulk Modulus (GPa) = 44.96782 71.35465 58.16123
# Shear Modulus (GPa) = 23.60468 31.37468 27.48968
#
# Velocity S-wave (km/s) = 3.43448 3.95961 3.70636
# Velocity P-wave (km/s) = 6.18052 7.52076 6.88334
#
# Compressibility (1/GPa) = 0.02223813
#
# Stress axis : x y z
#
# Youngs Moduli (GPa) = 43.16439 52.24616 146.30385
#
# Poissons Ratio (x) = 0.27159 0.47247
# Poissons Ratio (y) = 0.22438 0.73509
# Poissons Ratio (z) = 0.13939 0.26251
#
# Static dielectric constant tensor:
#      x y z
#    x 1.711780 0.000000 0.000000 
#    y 0.000000 1.760880 0.000000 
#    z 0.000000 0.000000 1.731890 
# 
# From -- ./inp_files/32803.got.cif
#   From: 2010.05.17/outbox.cif.g08.bks.cpg/sg21_17_cif.got.tgz:32803.got - 2010.06.03 23:14:55.
