data_PCOD9323109
_publ_section_title
;
Structure prediction by ZEFSAII (Michael W. Deem and Ramdas Pophale) SiO2 
 PCOD9323109
Probable space group: C 2 2 2
;
_chemical_formula_sum "Si O2"
_cell_formula_units_Z 58
_cell_length_a 10.175206
_cell_length_b 26.238104
_cell_length_c 12.405131
_cell_angle_alpha 90.000000
_cell_angle_beta 90.000000
_cell_angle_gamma 90.000000
_cell_volume 3311.898469
_symmetry_space_group_name_H-M "C 2 2 2"
_symmetry_group_IT_number 21
_symmetry_cell_setting 'orthorhombic'
loop_
_space_group_symop_operation_xyz
x,y,z
-x,-y,z
x,-y,-z
-x,y,-z
1/2+x,1/2+y,z
1/2-x,1/2-y,z
1/2+x,1/2-y,-z
1/2-x,1/2+y,-z
loop_
_atom_site_type_symbol
_atom_site_label
_atom_site_fract_x
_atom_site_fract_y
_atom_site_fract_z
Si Si1 0.977074 0.806543 0.628869
Si Si2 0.250569 0.946080 0.523175
Si Si3 0.500000 0.000000 0.500000
Si Si4 0.282112 0.367024 0.297713
Si Si5 0.018030 0.313479 0.372852
Si Si6 0.769546 0.625374 0.685324
Si Si7 0.154814 0.560708 0.873504
Si Si8 0.841077 0.556780 0.870991
O O1 0.840040 0.832223 0.661364
O O2 0.000000 0.815754 0.500000
O O3 0.088658 0.832989 0.701140
O O4 0.988561 0.746014 0.644753
O O5 0.191238 0.910285 0.612403
O O6 0.266158 0.914845 0.413237
O O7 0.181870 0.000000 0.500000
O O8 0.397529 0.963996 0.562292
O O9 0.162094 0.331592 0.338330
O O10 0.234889 0.397360 0.192643
O O11 0.000000 0.323382 0.500000
O O12 0.909525 0.347002 0.313953
O O13 0.758471 0.594056 0.795552
O O14 0.189537 0.502240 0.843922
O O15 0.997862 0.564964 0.852778
O O16 0.178293 0.565201 0.001665
#
# Coordination Sequence:
#
# PCOD9323109 Si02
#       8
#     8   8   2   8   8   8   8   8
#     4  11  24  39  53  80 122 150 189 233 279 343
#     4  10  20  29  49  84 112 137 174 228 277 330
#     4   8  20  28  44  78 114 128 180 226 264 314
#     4  12  20  36  58  83 113 149 185 229 287 332
#     4  11  21  36  59  83 108 149 198 235 278 336
#     4  12  20  36  58  83 113 149 185 229 287 332
#     4   9  19  35  59  89 114 143 187 235 277 329
#     4   9  19  35  59  89 114 143 187 235 277 329
#
# _framework density 17.512613000000002
#
# number of rings (size 3 to 8) (size 9 to 14) (size 15 to 20)
#    0.414    1.103    4.138    3.310    0.000    2.207 
#    0.000    4.138    0.000    6.621    0.000    0.000 
#    0.000    0.000    0.000    0.000    0.000    0.000 
#
# Total GULP energy -161771.466570 kJ/mol
# GULP energy per Si atom -5578.326433 kJ/mol
# Density = 1.747275 g / cm^3
# Si number density = 17.512613 Si / 1000 Ang^3
#
#
#
# Elastic Constant Matrix: (Units=GPa)
#
#
# Indices 1 2 3 4 5 6 
#
# 1 28.4808 8.6610 0.9822 0.0000 0.0000 0.0000
# 2 8.6610 94.8313 36.0464 0.0000 0.0000 0.0000
# 3 0.9822 36.0464 59.1290 0.0000 0.0000 0.0000
# 4 0.0000 0.0000 0.0000 23.5778 0.0000 0.0000
# 5 0.0000 0.0000 0.0000 0.0000 19.2382 0.0000
# 6 0.0000 0.0000 0.0000 0.0000 0.0000 -8.9235
#
#
#
# Elastic Compliance Matrix: (Units=1/GPa)
#
#
# Indices 1 2 3 4 5 6 
#
# 1 0.036268 -0.004013 0.001844 0.000000 0.000000 0.000000
# 2 -0.004013 0.014170 -0.008572 0.000000 0.000000 0.000000
# 3 0.001844 -0.008572 0.022107 0.000000 0.000000 0.000000
# 4 0.000000 0.000000 0.000000 0.042413 0.000000 0.000000
# 5 0.000000 0.000000 0.000000 0.000000 0.051980 0.000000
# 6 0.000000 0.000000 0.000000 0.000000 0.000000 -0.112063
#
#
# Mechanical properties :
#
#
# Convention : Reuss Voigt Hill
#
# Bulk Modulus (GPa) = 19.58347 30.42449 25.00398
# Shear Modulus (GPa) = 53.54620 15.89523 34.72072
#
# Velocity S-wave (km/s) = 5.53554 3.01598 4.45748
# Velocity P-wave (km/s) = 7.21547 5.43496 6.38756
#
# Compressibility (1/GPa) = 0.05106347
#
# Stress axis : x y z
#
# Youngs Moduli (GPa) = 27.57229 70.57297 45.23461
#
# Poissons Ratio (x) = 0.28324 -0.08342
# Poissons Ratio (y) = 0.11066 0.38773
# Poissons Ratio (z) = -0.05085 0.60492
#
# Static dielectric constant tensor:
#      x y z
#    x 1.608700 0.000000 0.000000 
#    y 0.000000 1.613550 0.000000 
#    z 0.000000 0.000000 1.596750 
# 
# From -- ./inp_files/23004.got.cif
#   From: 2010.05.17/outbox.cif.g08.bks.cpg/sg21_12_cif.got.tgz:23004.got - 2010.06.03 23:14:55.
