data_PCOD9323663
_publ_section_title
;
Structure prediction by ZEFSAII (Michael W. Deem and Ramdas Pophale) SiO2 
 PCOD9323663
Probable space group: C 2 2 2
;
_chemical_formula_sum "Si O2"
_cell_formula_units_Z 44
_cell_length_a 10.039269
_cell_length_b 15.800089
_cell_length_c 14.351105
_cell_angle_alpha 90.000000
_cell_angle_beta 90.000000
_cell_angle_gamma 90.000000
_cell_volume 2276.391559
_symmetry_space_group_name_H-M "C 2 2 2"
_symmetry_group_IT_number 21
_symmetry_cell_setting 'orthorhombic'
loop_
_space_group_symop_operation_xyz
x,y,z
-x,-y,z
x,-y,-z
-x,y,-z
1/2+x,1/2+y,z
1/2-x,1/2-y,z
1/2+x,1/2-y,-z
1/2-x,1/2+y,-z
loop_
_atom_site_type_symbol
_atom_site_label
_atom_site_fract_x
_atom_site_fract_y
_atom_site_fract_z
Si Si1 0.750000 0.750000 0.162344
Si Si2 0.374029 0.165026 0.339512
Si Si3 0.416037 0.654945 0.593181
Si Si4 0.244173 0.040074 0.853534
Si Si5 0.652245 0.618149 0.025056
Si Si6 0.000000 0.500000 0.730793
Si Si7 0.500000 0.500000 0.722784
O O1 0.680487 0.814229 0.234912
O O2 0.655427 0.699259 0.091909
O O3 0.449508 0.250634 0.369222
O O4 0.245710 0.155184 0.407136
O O5 0.453603 0.078827 0.331696
O O6 0.500000 0.641394 0.500000
O O7 0.449514 0.578385 0.661958
O O8 0.119281 0.037333 0.784311
O O9 0.220452 0.955659 0.914666
O O10 0.379420 0.032017 0.796210
O O11 0.231245 0.117258 0.926926
O O12 0.500000 0.597708 0.000000
#
# Coordination Sequence:
#
# PCOD9323663 Si02
#       7
#     4   8   8   8   8   4   4
#     4  10  20  40  60  90 132 184 218 278 338 382
#     4  10  23  44  69  96 137 177 214 281 349 413
#     4  10  22  44  72  96 128 169 222 276 342 421
#     4  11  22  38  62  91 130 177 226 271 333 385
#     4  11  21  36  61  90 131 177 234 282 312 382
#     4  12  22  45  67  96 136 186 214 278 351 403
#     4  12  19  43  70  98 126 178 228 267 335 424
#
# _framework density 19.328835999999999
#
# number of rings (size 3 to 8) (size 9 to 14) (size 15 to 20)
#    0.000    1.455    5.455    1.909    0.000    2.909 
#    6.545    0.455    0.000    0.000    0.000    0.000 
#    0.000    0.000    0.000    0.000    0.000    0.000 
#
# Total GULP energy -122659.543881 kJ/mol
# GULP energy per Si atom -5575.433813 kJ/mol
# Density = 1.928484 g / cm^3
# Si number density = 19.328836 Si / 1000 Ang^3
#
#
#
# Elastic Constant Matrix: (Units=GPa)
#
#
# Indices 1 2 3 4 5 6 
#
# 1 65.9760 9.0438 18.6860 0.0000 0.0000 0.0000
# 2 9.0438 80.6553 15.1291 0.0000 0.0000 0.0000
# 3 18.6860 15.1291 75.4700 0.0000 0.0000 0.0000
# 4 0.0000 0.0000 0.0000 13.0284 0.0000 0.0000
# 5 0.0000 0.0000 0.0000 0.0000 28.1147 0.0000
# 6 0.0000 0.0000 0.0000 0.0000 0.0000 32.5727
#
#
#
# Elastic Compliance Matrix: (Units=1/GPa)
#
#
# Indices 1 2 3 4 5 6 
#
# 1 0.016397 -0.001119 -0.003835 0.000000 0.000000 0.000000
# 2 -0.001119 0.012959 -0.002321 0.000000 0.000000 0.000000
# 3 -0.003835 -0.002321 0.014665 0.000000 0.000000 0.000000
# 4 0.000000 0.000000 0.000000 0.076755 0.000000 0.000000
# 5 0.000000 0.000000 0.000000 0.000000 0.035569 0.000000
# 6 0.000000 0.000000 0.000000 0.000000 0.000000 0.030701
#
#
# Mechanical properties :
#
#
# Convention : Reuss Voigt Hill
#
# Bulk Modulus (GPa) = 33.93223 34.20213 34.06718
# Shear Modulus (GPa) = 23.64964 26.69265 25.17115
#
# Velocity S-wave (km/s) = 3.50171 3.72018 3.61260
# Velocity P-wave (km/s) = 5.82603 6.01550 5.92153
#
# Compressibility (1/GPa) = 0.02947051
#
# Stress axis : x y z
#
# Youngs Moduli (GPa) = 60.98783 77.16493 68.18879
#
# Poissons Ratio (x) = 0.08636 0.26153
# Poissons Ratio (y) = 0.06825 0.15825
# Poissons Ratio (z) = 0.23391 0.17908
#
# Static dielectric constant tensor:
#      x y z
#    x 1.675860 0.000000 0.000000 
#    y 0.000000 1.800900 0.000000 
#    z 0.000000 0.000000 1.693020 
# 
# From -- ./inp_files/30413.got.cif
#   From: 2010.05.17/outbox.cif.g08.bks.cpg/sg21_16_cif.got.tgz:30413.got - 2010.06.03 23:14:55.
