data_PCOD9323998
_publ_section_title
;
Structure prediction by ZEFSAII (Michael W. Deem and Ramdas Pophale) SiO2 
 PCOD9323998
Probable space group: C 2 2 2
;
_chemical_formula_sum "Si O2"
_cell_formula_units_Z 34
_cell_length_a 14.913681
_cell_length_b 5.292953
_cell_length_c 18.662069
_cell_angle_alpha 90.000000
_cell_angle_beta 90.000000
_cell_angle_gamma 90.000000
_cell_volume 1473.135440
_symmetry_space_group_name_H-M "C 2 2 2"
_symmetry_group_IT_number 21
_symmetry_cell_setting 'orthorhombic'
loop_
_space_group_symop_operation_xyz
x,y,z
-x,-y,z
x,-y,-z
-x,y,-z
1/2+x,1/2+y,z
1/2-x,1/2-y,z
1/2+x,1/2-y,-z
1/2-x,1/2+y,-z
loop_
_atom_site_type_symbol
_atom_site_label
_atom_site_fract_x
_atom_site_fract_y
_atom_site_fract_z
Si Si1 0.353161 0.676468 0.432691
Si Si2 0.391356 0.486811 0.727220
Si Si3 0.642319 0.243967 0.959808
Si Si4 0.107156 0.475000 0.197589
Si Si5 0.500000 0.000000 0.500000
O O1 0.375614 0.500000 0.500000
O O2 0.250000 0.750000 0.441889
O O3 0.364043 0.569814 0.353545
O O4 0.428711 0.884839 0.443790
O O5 0.500000 0.500000 0.731371
O O6 0.358713 0.766720 0.746716
O O7 0.360734 0.258704 0.781210
O O8 0.750000 0.250000 0.967847
O O9 0.625609 0.168742 0.877456
O O10 0.609816 0.500000 0.000000
O O11 0.605465 0.000000 0.000000
O O12 0.000000 0.500000 0.201547
#
# Coordination Sequence:
#
# PCOD9323998 Si02
#       5
#     8   8   8   8   2
#     4  12  27  46  73 107 141 192 251 298 372 450
#     4  10  23  41  67  94 139 181 226 292 360 418
#     4  10  21  38  62  90 129 174 221 280 343 411
#     4  10  22  40  63  97 131 178 226 281 352 421
#     4  12  26  48  76  96 152 188 228 328 358 414
#
# _framework density 23.080020999999999
#
# number of rings (size 3 to 8) (size 9 to 14) (size 15 to 20)
#    0.000    1.412    1.176    3.176    8.235    2.353 
#    0.000    1.176    0.000    0.000    0.000    0.000 
#    0.000    0.000    0.000    0.000    0.000    0.000 
#
# Total GULP energy -94819.763770 kJ/mol
# GULP energy per Si atom -5577.633163 kJ/mol
# Density = 2.302749 g / cm^3
# Si number density = 23.080021 Si / 1000 Ang^3
#
#
#
# Elastic Constant Matrix: (Units=GPa)
#
#
# Indices 1 2 3 4 5 6 
#
# 1 106.4208 21.0004 -5.0921 0.0000 0.0000 0.0000
# 2 21.0004 126.9634 35.5203 0.0000 0.0000 0.0000
# 3 -5.0921 35.5203 118.0367 0.0000 0.0000 0.0000
# 4 0.0000 0.0000 0.0000 53.7253 0.0000 0.0000
# 5 0.0000 0.0000 0.0000 0.0000 64.9641 0.0000
# 6 0.0000 0.0000 0.0000 0.0000 0.0000 17.8952
#
#
#
# Elastic Compliance Matrix: (Units=1/GPa)
#
#
# Indices 1 2 3 4 5 6 
#
# 1 0.009820 -0.001903 0.000996 0.000000 0.000000 0.000000
# 2 -0.001903 0.008969 -0.002781 0.000000 0.000000 0.000000
# 3 0.000996 -0.002781 0.009352 0.000000 0.000000 0.000000
# 4 0.000000 0.000000 0.000000 0.018613 0.000000 0.000000
# 5 0.000000 0.000000 0.000000 0.000000 0.015393 0.000000
# 6 0.000000 0.000000 0.000000 0.000000 0.000000 0.055881
#
#
# Mechanical properties :
#
#
# Convention : Reuss Voigt Hill
#
# Bulk Modulus (GPa) = 48.15764 50.47536 49.31650
# Shear Modulus (GPa) = 37.78562 47.31641 42.55102
#
# Velocity S-wave (km/s) = 4.05057 4.53272 4.29841
# Velocity P-wave (km/s) = 6.54117 7.02220 6.78595
#
# Compressibility (1/GPa) = 0.02076514
#
# Stress axis : x y z
#
# Youngs Moduli (GPa) = 101.83454 111.49361 106.93084
#
# Poissons Ratio (x) = 0.21217 -0.10653
# Poissons Ratio (y) = 0.19379 0.29739
# Poissons Ratio (z) = -0.10146 0.31008
#
# Static dielectric constant tensor:
#      x y z
#    x 1.786520 0.000000 0.000000 
#    y 0.000000 1.931560 0.000000 
#    z 0.000000 0.000000 -0.165430 
# 
# From -- ./inp_files/36448.got.cif
#   From: 2010.05.17/outbox.cif.g08.bks.cpg/sg21_19_cif.got.tgz:36448.got - 2010.06.03 23:14:55.
