data_PCOD9323398
_publ_section_title
;
Structure prediction by ZEFSAII (Michael W. Deem and Ramdas Pophale) SiO2 
 PCOD9323398
Probable space group: C 2 2 2
;
_chemical_formula_sum "Si O2"
_cell_formula_units_Z 64
_cell_length_a 12.093985
_cell_length_b 31.423486
_cell_length_c 9.008863
_cell_angle_alpha 90.000000
_cell_angle_beta 90.000000
_cell_angle_gamma 90.000000
_cell_volume 3423.684767
_symmetry_space_group_name_H-M "C 2 2 2"
_symmetry_group_IT_number 21
_symmetry_cell_setting 'orthorhombic'
loop_
_space_group_symop_operation_xyz
x,y,z
-x,-y,z
x,-y,-z
-x,y,-z
1/2+x,1/2+y,z
1/2-x,1/2-y,z
1/2+x,1/2-y,-z
1/2-x,1/2+y,-z
loop_
_atom_site_type_symbol
_atom_site_label
_atom_site_fract_x
_atom_site_fract_y
_atom_site_fract_z
Si Si1 0.488263 0.714958 0.174699
Si Si2 0.229929 0.576770 0.670468
Si Si3 0.009333 0.606872 0.823312
Si Si4 0.603881 0.652895 0.395354
Si Si5 0.526832 0.802062 0.673782
Si Si6 0.215800 0.418528 0.676724
Si Si7 0.778700 0.180135 0.327970
Si Si8 0.126966 0.003733 0.680280
O O1 0.559652 0.679029 0.256826
O O2 0.518683 0.760279 0.246721
O O3 0.363840 0.701701 0.217701
O O4 0.500000 0.716120 0.000000
O O5 0.123477 0.585983 0.769671
O O6 0.318245 0.615126 0.659274
O O7 0.192347 0.572627 0.497900
O O8 0.296388 0.535709 0.725470
O O9 0.008907 0.654020 0.750718
O O10 0.900881 0.582245 0.761832
O O11 0.000000 0.609870 0.000000
O O12 0.500000 0.638013 0.500000
O O13 0.672452 0.683412 0.505965
O O14 0.500000 0.803347 0.500000
O O15 0.658971 0.800235 0.686063
O O16 0.265056 0.370888 0.694171
O O17 0.308277 0.453059 0.721094
O O18 0.122205 0.000000 0.500000
O O19 0.000000 0.000000 0.733101
#
# Coordination Sequence:
#
# PCOD9323398 Si02
#       8
#     8   8   8   8   8   8   8   8
#     4  11  23  36  53  83 120 155 190 235 290 352
#     4  10  20  36  61  89 118 153 195 244 297 346
#     4  11  23  39  59  83 118 158 197 237 289 356
#     4   9  19  34  57  83 112 154 195 238 296 351
#     4  11  21  39  63  85 109 146 198 248 294 338
#     4   9  19  37  61  87 118 151 196 246 298 339
#     4   9  19  36  58  80 112 152 193 242 290 346
#     4   9  19  32  61  97 119 144 192 253 295 337
#
# _framework density 18.69331
#
# number of rings (size 3 to 8) (size 9 to 14) (size 15 to 20)
#    0.000    2.125    0.000    4.500    7.000    2.500 
#    0.000    8.750    0.000    0.750    0.000    0.000 
#    0.000    0.000    0.000    0.000    0.000    0.000 
#
# Total GULP energy -178595.358755 kJ/mol
# GULP energy per Si atom -5581.104961 kJ/mol
# Density = 1.865076 g / cm^3
# Si number density = 18.693310 Si / 1000 Ang^3
#
#
#
# Elastic Constant Matrix: (Units=GPa)
#
#
# Indices 1 2 3 4 5 6 
#
# 1 105.2797 65.0772 53.5001 0.0000 0.0000 0.0000
# 2 65.0772 73.5230 65.0209 0.0000 0.0000 0.0000
# 3 53.5001 65.0209 117.2713 0.0000 0.0000 0.0000
# 4 0.0000 0.0000 0.0000 69.6454 0.0000 0.0000
# 5 0.0000 0.0000 0.0000 0.0000 12.4053 0.0000
# 6 0.0000 0.0000 0.0000 0.0000 0.0000 13.7430
#
#
#
# Elastic Compliance Matrix: (Units=1/GPa)
#
#
# Indices 1 2 3 4 5 6 
#
# 1 0.021095 -0.019937 0.001430 0.000000 0.000000 0.000000
# 2 -0.019937 0.045528 -0.016148 0.000000 0.000000 0.000000
# 3 0.001430 -0.016148 0.016828 0.000000 0.000000 0.000000
# 4 0.000000 0.000000 0.000000 0.014358 0.000000 0.000000
# 5 0.000000 0.000000 0.000000 0.000000 0.080611 0.000000
# 6 0.000000 0.000000 0.000000 0.000000 0.000000 0.072764
#
#
# Mechanical properties :
#
#
# Convention : Reuss Voigt Hill
#
# Bulk Modulus (GPa) = 70.70846 73.69671 72.20259
# Shear Modulus (GPa) = 15.37475 26.65713 21.01594
#
# Velocity S-wave (km/s) = 2.87099 3.78037 3.35662
# Velocity P-wave (km/s) = 6.99269 7.65275 7.33016
#
# Compressibility (1/GPa) = 0.01414258
#
# Stress axis : x y z
#
# Youngs Moduli (GPa) = 47.40352 21.96437 59.42498
#
# Poissons Ratio (x) = 0.43790 -0.08498
# Poissons Ratio (y) = 0.94508 0.95958
# Poissons Ratio (z) = -0.06779 0.35468
#
# Static dielectric constant tensor:
#      x y z
#    x 1.644800 0.000000 0.000000 
#    y 0.000000 1.657390 0.000000 
#    z 0.000000 0.000000 1.621750 
# 
# From -- ./inp_files/13693.got.cif
#   From: 2010.05.17/outbox.cif.g08.bks.cpg/sg21_7_cif.got.tgz:13693.got - 2010.06.03 23:14:55.
