data_PCOD9323127
_publ_section_title
;
Structure prediction by ZEFSAII (Michael W. Deem and Ramdas Pophale) SiO2 
 PCOD9323127
Probable space group: C 2 2 2
;
_chemical_formula_sum "Si O2"
_cell_formula_units_Z 38
_cell_length_a 20.047033
_cell_length_b 17.521691
_cell_length_c 5.775405
_cell_angle_alpha 90.000000
_cell_angle_beta 90.000000
_cell_angle_gamma 90.000000
_cell_volume 2028.656734
_symmetry_space_group_name_H-M "C 2 2 2"
_symmetry_group_IT_number 21
_symmetry_cell_setting 'orthorhombic'
loop_
_space_group_symop_operation_xyz
x,y,z
-x,-y,z
x,-y,-z
-x,y,-z
1/2+x,1/2+y,z
1/2-x,1/2-y,z
1/2+x,1/2-y,-z
1/2-x,1/2+y,-z
loop_
_atom_site_type_symbol
_atom_site_label
_atom_site_fract_x
_atom_site_fract_y
_atom_site_fract_z
Si Si1 0.182237 0.629295 0.171743
Si Si2 0.275315 0.362641 0.224462
Si Si3 0.561583 0.875940 0.169810
Si Si4 0.000000 0.500000 0.500000
Si Si5 0.269331 0.000000 0.500000
Si Si6 0.350175 0.231333 0.433797
O O1 0.188233 0.560362 0.352570
O O2 0.158588 0.707626 0.297494
O O3 0.254198 0.638019 0.045512
O O4 0.125808 0.607066 0.988221
O O5 0.272869 0.447775 0.324087
O O6 0.336659 0.315065 0.330854
O O7 0.211527 0.317440 0.328841
O O8 0.543045 0.945884 0.334456
O O9 0.582991 0.805412 0.332085
O O10 0.500000 0.860310 0.000000
#
# Coordination Sequence:
#
# PCOD9323127 Si02
#       6
#     8   8   8   2   4   8
#     4  10  21  36  53  76 107 141 176 217 265 315
#     4   9  19  33  51  75 104 136 171 217 268 318
#     4  11  24  36  51  72 105 147 185 223 259 303
#     4  12  26  38  48  74 108 142 186 222 260 308
#     4  10  20  31  52  81 106 135 174 215 266 326
#     4   9  20  35  51  72 101 139 181 217 260 315
#
# _framework density 18.731604999999998
#
# number of rings (size 3 to 8) (size 9 to 14) (size 15 to 20)
#    0.000    2.105    0.000    2.211    0.000   33.684 
#    0.000    0.000    0.000    0.000    0.000    0.000 
#    0.000   37.895    0.000    0.000    0.000    0.000 
#
# Total GULP energy -105905.842988 kJ/mol
# GULP energy per Si atom -5573.991736 kJ/mol
# Density = 1.868897 g / cm^3
# Si number density = 18.731605 Si / 1000 Ang^3
#
#
#
# Elastic Constant Matrix: (Units=GPa)
#
#
# Indices 1 2 3 4 5 6 
#
# 1 62.6707 45.1756 39.8490 0.0000 0.0000 0.0000
# 2 45.1756 88.6820 43.3609 0.0000 0.0000 0.0000
# 3 39.8490 43.3609 107.6867 0.0000 0.0000 0.0000
# 4 0.0000 0.0000 0.0000 15.4559 0.0000 0.0000
# 5 0.0000 0.0000 0.0000 0.0000 16.9827 0.0000
# 6 0.0000 0.0000 0.0000 0.0000 0.0000 31.7767
#
#
#
# Elastic Compliance Matrix: (Units=1/GPa)
#
#
# Indices 1 2 3 4 5 6 
#
# 1 0.027770 -0.011358 -0.005703 0.000000 0.000000 0.000000
# 2 -0.011358 0.018686 -0.003321 0.000000 0.000000 0.000000
# 3 -0.005703 -0.003321 0.012734 0.000000 0.000000 0.000000
# 4 0.000000 0.000000 0.000000 0.064700 0.000000 0.000000
# 5 0.000000 0.000000 0.000000 0.000000 0.058884 0.000000
# 6 0.000000 0.000000 0.000000 0.000000 0.000000 0.031470
#
#
# Mechanical properties :
#
#
# Convention : Reuss Voigt Hill
#
# Bulk Modulus (GPa) = 54.27122 57.31227 55.79175
# Shear Modulus (GPa) = 19.14623 21.55332 20.34977
#
# Velocity S-wave (km/s) = 3.20055 3.39579 3.29961
# Velocity P-wave (km/s) = 6.53407 6.78514 6.66079
#
# Compressibility (1/GPa) = 0.01842597
#
# Stress axis : x y z
#
# Youngs Moduli (GPa) = 36.01041 53.51617 78.53157
#
# Poissons Ratio (x) = 0.60783 0.44784
# Poissons Ratio (y) = 0.40900 0.26081
# Poissons Ratio (z) = 0.20536 0.17773
#
# Static dielectric constant tensor:
#      x y z
#    x 1.682400 0.000000 0.000000 
#    y 0.000000 1.695420 0.000000 
#    z 0.000000 0.000000 1.815110 
# 
# From -- ./inp_files/4836.got.cif
#   From: 2010.05.17/outbox.cif.g08.bks.cpg/sg21_3_cif.got.tgz:4836.got - 2010.06.03 23:14:55.
