data_PCOD9323163
_publ_section_title
;
Structure prediction by ZEFSAII (Michael W. Deem and Ramdas Pophale) SiO2 
 PCOD9323163
Probable space group: C 2 2 2
;
_chemical_formula_sum "Si O2"
_cell_formula_units_Z 58
_cell_length_a 17.417462
_cell_length_b 16.879440
_cell_length_c 10.498795
_cell_angle_alpha 90.000000
_cell_angle_beta 90.000000
_cell_angle_gamma 90.000000
_cell_volume 3086.614284
_symmetry_space_group_name_H-M "C 2 2 2"
_symmetry_group_IT_number 21
_symmetry_cell_setting 'orthorhombic'
loop_
_space_group_symop_operation_xyz
x,y,z
-x,-y,z
x,-y,-z
-x,y,-z
1/2+x,1/2+y,z
1/2-x,1/2-y,z
1/2+x,1/2-y,-z
1/2-x,1/2+y,-z
loop_
_atom_site_type_symbol
_atom_site_label
_atom_site_fract_x
_atom_site_fract_y
_atom_site_fract_z
Si Si1 0.822521 0.192180 0.171676
Si Si2 0.000000 0.000000 0.500000
Si Si3 0.579369 0.821684 0.681821
Si Si4 0.418991 0.199867 0.375354
Si Si5 0.410264 0.589902 0.966989
Si Si6 0.771292 0.605071 0.376675
Si Si7 0.596715 0.377305 0.669768
Si Si8 0.217881 0.571913 0.321831
O O1 0.750000 0.250000 0.143398
O O2 0.885811 0.244167 0.248221
O O3 0.786669 0.122211 0.259269
O O4 0.860589 0.151762 0.048892
O O5 0.946299 0.943740 0.413210
O O6 0.583497 0.809797 0.528517
O O7 0.489807 0.842641 0.695952
O O8 0.637094 0.891387 0.722406
O O9 0.336928 0.165725 0.332502
O O10 0.438457 0.291127 0.350105
O O11 0.404026 0.600610 0.816878
O O12 0.387200 0.500000 0.000000
O O13 0.500000 0.599661 0.000000
O O14 0.685014 0.634543 0.367857
O O15 0.776115 0.521642 0.302744
O O16 0.781865 0.586800 0.526450
#
# Coordination Sequence:
#
# PCOD9323163 Si02
#       8
#     8   2   8   8   8   8   8   8
#     4  10  20  37  58  78 106 146 191 230 266 321
#     4  12  24  40  62  84 108 140 176 222 268 336
#     4   9  18  33  55  80 107 146 189 225 267 320
#     4  10  20  33  52  80 113 143 176 226 279 325
#     4  11  24  39  55  77 106 140 178 222 268 321
#     4  10  20  33  52  80 113 143 176 226 279 325
#     4  12  24  37  57  83 109 140 176 216 278 334
#     4   9  18  33  55  80 107 146 189 225 267 320
#
# _framework density 18.790814999999998
#
# number of rings (size 3 to 8) (size 9 to 14) (size 15 to 20)
#    0.000    1.793    0.000    5.379    0.000    7.172 
#    0.000    2.759    0.000    0.000    0.000    0.000 
#    0.000    6.621    0.000    0.000    0.000    0.000 
#
# Total GULP energy -161738.063625 kJ/mol
# GULP energy per Si atom -5577.174608 kJ/mol
# Density = 1.874805 g / cm^3
# Si number density = 18.790815 Si / 1000 Ang^3
#
#
#
# Elastic Constant Matrix: (Units=GPa)
#
#
# Indices 1 2 3 4 5 6 
#
# 1 107.7948 9.5803 25.4168 0.0000 0.0000 0.0000
# 2 9.5803 55.7442 16.5398 0.0000 0.0000 0.0000
# 3 25.4168 16.5398 57.5966 0.0000 0.0000 0.0000
# 4 0.0000 0.0000 0.0000 26.5609 0.0000 0.0000
# 5 0.0000 0.0000 0.0000 0.0000 4.4510 0.0000
# 6 0.0000 0.0000 0.0000 0.0000 0.0000 20.1496
#
#
#
# Elastic Compliance Matrix: (Units=1/GPa)
#
#
# Indices 1 2 3 4 5 6 
#
# 1 0.010365 -0.000464 -0.004441 0.000000 0.000000 0.000000
# 2 -0.000464 0.019631 -0.005433 0.000000 0.000000 0.000000
# 3 -0.004441 -0.005433 0.020882 0.000000 0.000000 0.000000
# 4 0.000000 0.000000 0.000000 0.037649 0.000000 0.000000
# 5 0.000000 0.000000 0.000000 0.000000 0.224668 0.000000
# 6 0.000000 0.000000 0.000000 0.000000 0.000000 0.049629
#
#
# Mechanical properties :
#
#
# Convention : Reuss Voigt Hill
#
# Bulk Modulus (GPa) = 33.10896 36.02328 34.56612
# Shear Modulus (GPa) = 12.70435 21.53888 17.12162
#
# Velocity S-wave (km/s) = 2.60300 3.38930 3.02183
# Velocity P-wave (km/s) = 5.16645 5.87612 5.53267
#
# Compressibility (1/GPa) = 0.03020330
#
# Stress axis : x y z
#
# Youngs Moduli (GPa) = 96.47653 50.94064 47.88824
#
# Poissons Ratio (x) = 0.02362 0.21267
# Poissons Ratio (y) = 0.04474 0.26016
# Poissons Ratio (z) = 0.42844 0.27674
#
# Static dielectric constant tensor:
#      x y z
#    x 1.687670 0.000000 0.000000 
#    y 0.000000 1.662450 0.000000 
#    z 0.000000 0.000000 1.599990 
# 
# From -- ./inp_files/16698.got.cif
#   From: 2010.05.17/outbox.cif.g08.bks.cpg/sg21_9_cif.got.tgz:16698.got - 2010.06.03 23:14:55.
