data_PCOD9323739
_publ_section_title
;
Structure prediction by ZEFSAII (Michael W. Deem and Ramdas Pophale) SiO2 
 PCOD9323739
Probable space group: C 2 2 2
;
_chemical_formula_sum "Si O2"
_cell_formula_units_Z 36
_cell_length_a 22.937574
_cell_length_b 9.777577
_cell_length_c 8.439170
_cell_angle_alpha 90.000000
_cell_angle_beta 90.000000
_cell_angle_gamma 90.000000
_cell_volume 1892.685535
_symmetry_space_group_name_H-M "C 2 2 2"
_symmetry_group_IT_number 21
_symmetry_cell_setting 'orthorhombic'
loop_
_space_group_symop_operation_xyz
x,y,z
-x,-y,z
x,-y,-z
-x,y,-z
1/2+x,1/2+y,z
1/2-x,1/2-y,z
1/2+x,1/2-y,-z
1/2-x,1/2+y,-z
loop_
_atom_site_type_symbol
_atom_site_label
_atom_site_fract_x
_atom_site_fract_y
_atom_site_fract_z
Si Si1 0.170869 0.828766 0.707139
Si Si2 0.087116 0.084176 0.749689
Si Si3 0.000000 0.000000 0.000000
Si Si4 0.000000 0.000000 0.500000
Si Si5 0.294895 0.054035 0.179564
Si Si6 0.316701 0.783899 0.346787
O O1 0.231201 0.906817 0.749588
O O2 0.174643 0.768670 0.527890
O O3 0.119468 0.937106 0.732356
O O4 0.169161 0.695110 0.816817
O O5 0.042950 0.092848 0.602963
O O6 0.137103 0.195924 0.750781
O O7 0.043849 0.088361 0.896015
O O8 0.322295 0.941915 0.298108
O O9 0.289632 0.000000 0.000000
O O10 0.250000 0.750000 0.303336
#
# Coordination Sequence:
#
# PCOD9323739 Si02
#       6
#     8   8   2   2   8   8
#     4  11  23  39  63  91 135 175 216 262 330 406
#     4  11  23  41  68  94 127 170 234 273 323 384
#     4  10  28  42  68  92 132 178 232 286 324 370
#     4  10  20  42  60 100 116 174 228 282 292 386
#     4  11  26  37  58  98 140 171 202 262 352 406
#     4  12  22  39  67  97 134 172 213 278 337 408
#
# _framework density 19.020589999999999
#
# number of rings (size 3 to 8) (size 9 to 14) (size 15 to 20)
#    0.000    0.889    6.667    0.667    7.778    0.000 
#    0.000    0.000    0.000    8.000    0.000    0.000 
#    0.000    0.000    0.000    0.000    0.000    0.000 
#
# Total GULP energy -100470.974562 kJ/mol
# GULP energy per Si atom -5581.720809 kJ/mol
# Density = 1.897730 g / cm^3
# Si number density = 19.020590 Si / 1000 Ang^3
#
#
#
# Elastic Constant Matrix: (Units=GPa)
#
#
# Indices 1 2 3 4 5 6 
#
# 1 120.1391 57.4207 46.5872 0.0000 0.0000 0.0000
# 2 57.4207 139.6556 46.5347 0.0000 0.0000 0.0000
# 3 46.5872 46.5347 107.1961 0.0000 0.0000 0.0000
# 4 0.0000 0.0000 0.0000 11.1970 0.0000 0.0000
# 5 0.0000 0.0000 0.0000 0.0000 182.2980 0.0000
# 6 0.0000 0.0000 0.0000 0.0000 0.0000 25.7032
#
#
#
# Elastic Compliance Matrix: (Units=1/GPa)
#
#
# Indices 1 2 3 4 5 6 
#
# 1 0.011324 -0.003526 -0.003391 0.000000 0.000000 0.000000
# 2 -0.003526 0.009469 -0.002578 0.000000 0.000000 0.000000
# 3 -0.003391 -0.002578 0.011921 0.000000 0.000000 0.000000
# 4 0.000000 0.000000 0.000000 0.089310 0.000000 0.000000
# 5 0.000000 0.000000 0.000000 0.000000 0.005486 0.000000
# 6 0.000000 0.000000 0.000000 0.000000 0.000000 0.038906
#
#
# Mechanical properties :
#
#
# Convention : Reuss Voigt Hill
#
# Bulk Modulus (GPa) = 72.86135 74.23065 73.54600
# Shear Modulus (GPa) = 26.31852 58.26952 42.29402
#
# Velocity S-wave (km/s) = 3.72383 5.54089 4.72061
# Velocity P-wave (km/s) = 7.54181 8.94687 8.27422
#
# Compressibility (1/GPa) = 0.01372470
#
# Stress axis : x y z
#
# Youngs Moduli (GPa) = 88.30976 105.60358 83.88207
#
# Poissons Ratio (x) = 0.37237 0.28441
# Poissons Ratio (y) = 0.31139 0.21627
# Poissons Ratio (z) = 0.29942 0.27228
#
# Static dielectric constant tensor:
#      x y z
#    x 1.633280 0.000000 0.000000 
#    y 0.000000 1.645300 0.000000 
#    z 0.000000 0.000000 1.759410 
# 
# From -- ./inp_files/17389.got.cif
#   From: 2010.05.17/outbox.cif.g08.bks.cpg/sg21_9_cif.got.tgz:17389.got - 2010.06.03 23:14:55.
