data_PCOD9323295
_publ_section_title
;
Structure prediction by ZEFSAII (Michael W. Deem and Ramdas Pophale) SiO2 
 PCOD9323295
Probable space group: C 2 2 2
;
_chemical_formula_sum "Si O2"
_cell_formula_units_Z 48
_cell_length_a 8.766099
_cell_length_b 28.728539
_cell_length_c 10.561873
_cell_angle_alpha 90.000000
_cell_angle_beta 90.000000
_cell_angle_gamma 90.000000
_cell_volume 2659.872703
_symmetry_space_group_name_H-M "C 2 2 2"
_symmetry_group_IT_number 21
_symmetry_cell_setting 'orthorhombic'
loop_
_space_group_symop_operation_xyz
x,y,z
-x,-y,z
x,-y,-z
-x,y,-z
1/2+x,1/2+y,z
1/2-x,1/2-y,z
1/2+x,1/2-y,-z
1/2-x,1/2+y,-z
loop_
_atom_site_type_symbol
_atom_site_label
_atom_site_fract_x
_atom_site_fract_y
_atom_site_fract_z
Si Si1 0.183247 0.105901 0.755928
Si Si2 0.316754 0.394099 0.244071
Si Si3 0.817709 0.300304 0.850874
Si Si4 0.820735 0.555638 0.999999
Si Si5 0.182291 0.300304 0.850874
Si Si6 0.685822 0.446373 0.500001
O O1 0.247490 0.157855 0.770765
O O2 0.232869 0.080718 0.626589
O O3 0.000000 0.107178 0.759343
O O4 0.244071 0.076952 0.875569
O O5 0.252510 0.342145 0.229235
O O6 0.255931 0.423047 0.124428
O O7 0.267131 0.419283 0.373408
O O8 0.750000 0.250000 0.817185
O O9 1.000000 0.299688 0.839172
O O10 0.780333 0.308733 1.000000
O O11 0.805958 0.500000 0.000000
O O12 0.000000 0.568093 0.000000
O O13 0.250000 0.250000 0.817185
O O14 0.737884 0.500000 0.500000
O O15 0.500000 0.447262 0.500000
#
# Coordination Sequence:
#
# PCOD9323295 Si02
#       6
#     8   8   8   8   8   8
#     4  11  21  36  60  86 114 150 193 237 288 343
#     4  11  21  36  60  86 114 150 193 237 288 343
#     4  10  20  35  57  85 119 151 187 235 286 341
#     4  11  23  37  54  81 116 149 189 241 289 337
#     4  10  20  35  57  85 119 151 187 235 286 341
#     4   9  20  38  58  83 116 153 194 239 284 337
#
# _framework density 18.045976
#
# number of rings (size 3 to 8) (size 9 to 14) (size 15 to 20)
#    0.000    1.667    1.667    3.500    0.000    4.000 
#    0.000    4.167    0.000    6.000    0.000    0.000 
#    0.000    0.000    0.000    0.000    0.000    0.000 
#
# Total GULP energy -134109.306057 kJ/mol
# GULP energy per Si atom -5587.887752 kJ/mol
# Density = 1.800490 g / cm^3
# Si number density = 18.045976 Si / 1000 Ang^3
#
#
#
# Elastic Constant Matrix: (Units=GPa)
#
#
# Indices 1 2 3 4 5 6 
#
# 1 62.7885 60.2664 45.8434 0.0000 0.0000 0.0000
# 2 60.2664 175.2795 103.8106 0.0000 0.0000 0.0000
# 3 45.8434 103.8106 158.7654 0.0000 0.0000 0.0000
# 4 0.0000 0.0000 0.0000 31.4270 0.0000 0.0000
# 5 0.0000 0.0000 0.0000 0.0000 0.4543 0.0000
# 6 0.0000 0.0000 0.0000 0.0000 0.0000 36.0997
#
#
#
# Elastic Compliance Matrix: (Units=1/GPa)
#
#
# Indices 1 2 3 4 5 6 
#
# 1 0.024385 -0.006878 -0.002544 0.000000 0.000000 0.000000
# 2 -0.006878 0.011251 -0.005370 0.000000 0.000000 0.000000
# 3 -0.002544 -0.005370 0.010545 0.000000 0.000000 0.000000
# 4 0.000000 0.000000 0.000000 0.031820 0.000000 0.000000
# 5 0.000000 0.000000 0.000000 0.000000 2.201103 0.000000
# 6 0.000000 0.000000 0.000000 0.000000 0.000000 0.027701
#
#
# Mechanical properties :
#
#
# Convention : Reuss Voigt Hill
#
# Bulk Modulus (GPa) = 60.25478 90.74159 75.49819
# Shear Modulus (GPa) = 2.13500 26.05706 14.09603
#
# Velocity S-wave (km/s) = 1.08888 3.80403 2.79788
# Velocity P-wave (km/s) = 5.91971 8.34787 7.23636
#
# Compressibility (1/GPa) = 0.01659619
#
# Stress axis : x y z
#
# Youngs Moduli (GPa) = 41.00809 88.88445 94.83365
#
# Poissons Ratio (x) = 0.61131 0.24129
# Poissons Ratio (y) = 0.28204 0.50930
# Poissons Ratio (z) = 0.10434 0.47735
#
# Static dielectric constant tensor:
#      x y z
#    x 1.607680 0.000000 0.000000 
#    y 0.000000 1.607090 0.000000 
#    z 0.000000 0.000000 1.592040 
# 
# From -- ./inp_files/11485.got.cif
#   From: 2010.05.17/outbox.cif.g08.bks.cpg/sg21_6_cif.got.tgz:11485.got - 2010.06.03 23:14:55.
