data_PCOD9323376
_publ_section_title
;
Structure prediction by ZEFSAII (Michael W. Deem and Ramdas Pophale) SiO2 
 PCOD9323376
Probable space group: C 2 2 2
;
_chemical_formula_sum "Si O2"
_cell_formula_units_Z 48
_cell_length_a 12.009751
_cell_length_b 13.570524
_cell_length_c 14.407933
_cell_angle_alpha 90.000000
_cell_angle_beta 90.000000
_cell_angle_gamma 90.000000
_cell_volume 2348.184954
_symmetry_space_group_name_H-M "C 2 2 2"
_symmetry_group_IT_number 21
_symmetry_cell_setting 'orthorhombic'
loop_
_space_group_symop_operation_xyz
x,y,z
-x,-y,z
x,-y,-z
-x,y,-z
1/2+x,1/2+y,z
1/2-x,1/2-y,z
1/2+x,1/2-y,-z
1/2-x,1/2+y,-z
loop_
_atom_site_type_symbol
_atom_site_label
_atom_site_fract_x
_atom_site_fract_y
_atom_site_fract_z
Si Si1 0.250000 0.750000 0.653030
Si Si2 0.500000 0.881102 0.109907
Si Si3 0.242328 0.618002 0.815855
Si Si4 0.867358 0.383752 0.500000
Si Si5 0.627281 0.618806 1.000000
Si Si6 0.750000 0.750000 0.653029
Si Si7 0.257672 0.881999 0.184146
O O1 0.295522 0.669990 0.726617
O O2 0.173993 0.681531 0.587401
O O3 0.613013 0.854250 0.164294
O O4 0.386987 0.854250 0.164294
O O5 0.500000 0.000000 0.107841
O O6 0.500000 0.853593 0.000000
O O7 0.246593 0.500000 0.805302
O O8 0.308944 0.647669 0.907600
O O9 0.828695 0.500000 0.500000
O O10 0.826008 0.318468 0.412600
O O11 0.000000 0.387382 0.500000
O O12 0.691054 0.647669 0.907599
O O13 0.629245 0.500000 0.000000
O O14 0.500000 0.649300 0.000000
O O15 0.795521 0.830010 0.726616
#
# Coordination Sequence:
#
# PCOD9323376 Si02
#       7
#     4   8   8   8   8   4   8
#     4  11  24  39  64 100 124 151 204 263 330 382
#     4   9  16  32  58  87 127 174 218 263 305 347
#     4  10  20  36  59  90 127 170 215 260 306 362
#     4  10  24  48  72  92 120 158 204 266 334 396
#     4   9  18  34  53  79 128 181 211 241 299 367
#     4  11  24  39  64 100 124 151 204 263 330 382
#     4  10  20  36  59  90 127 170 215 260 306 362
#
# _framework density 20.441320999999999
#
# number of rings (size 3 to 8) (size 9 to 14) (size 15 to 20)
#    0.000    2.167    1.667    1.000    2.333    2.000 
#    0.000    0.000    0.000   17.000    0.000    0.000 
#    0.000    0.000    0.000    0.000    0.000    0.000 
#
# Total GULP energy -133820.950971 kJ/mol
# GULP energy per Si atom -5575.872957 kJ/mol
# Density = 2.039480 g / cm^3
# Si number density = 20.441321 Si / 1000 Ang^3
#
#
#
# Elastic Constant Matrix: (Units=GPa)
#
#
# Indices 1 2 3 4 5 6 
#
# 1 107.9200 48.6679 54.9389 0.0000 0.0000 0.0000
# 2 48.6679 168.1159 64.5668 0.0000 0.0000 0.0000
# 3 54.9389 64.5668 166.2472 0.0000 0.0000 0.0000
# 4 0.0000 0.0000 0.0000 94.3705 0.0000 0.0000
# 5 0.0000 0.0000 0.0000 0.0000 -34.3393 0.0000
# 6 0.0000 0.0000 0.0000 0.0000 0.0000 16.5062
#
#
#
# Elastic Compliance Matrix: (Units=1/GPa)
#
#
# Indices 1 2 3 4 5 6 
#
# 1 0.011828 -0.002260 -0.003031 0.000000 0.000000 0.000000
# 2 -0.002260 0.007423 -0.002136 0.000000 0.000000 0.000000
# 3 -0.003031 -0.002136 0.007846 0.000000 0.000000 0.000000
# 4 0.000000 0.000000 0.000000 0.010597 0.000000 0.000000
# 5 0.000000 0.000000 0.000000 0.000000 -0.029121 0.000000
# 6 0.000000 0.000000 0.000000 0.000000 0.000000 0.060583
#
#
# Mechanical properties :
#
#
# Convention : Reuss Voigt Hill
#
# Bulk Modulus (GPa) = 81.67740 86.51449 84.09594
# Shear Modulus (GPa) = 56.75886 33.58144 45.17015
#
# Velocity S-wave (km/s) = 5.27513 4.05757 4.70589
# Velocity P-wave (km/s) = 8.78330 8.02291 8.41170
#
# Compressibility (1/GPa) = 0.01224329
#
# Stress axis : x y z
#
# Youngs Moduli (GPa) = 84.54242 134.71802 127.44700
#
# Poissons Ratio (x) = 0.30447 0.38631
# Poissons Ratio (y) = 0.19107 0.27223
# Poissons Ratio (z) = 0.25626 0.28776
#
# Static dielectric constant tensor:
#      x y z
#    x 1.709270 0.000000 0.000000 
#    y 0.000000 1.801130 0.000000 
#    z 0.000000 0.000000 1.726320 
# 
# From -- ./inp_files/31532.got.cif
#   From: 2010.05.17/outbox.cif.g08.bks.cpg/sg21_16_cif.got.tgz:31532.got - 2010.06.03 23:14:55.
