data_PCOD9323375
_publ_section_title
;
Structure prediction by ZEFSAII (Michael W. Deem and Ramdas Pophale) SiO2 
 PCOD9323375
Probable space group: C 2 2 2
;
_chemical_formula_sum "Si O2"
_cell_formula_units_Z 30
_cell_length_a 18.916950
_cell_length_b 14.622183
_cell_length_c 5.224236
_cell_angle_alpha 90.000000
_cell_angle_beta 90.000000
_cell_angle_gamma 90.000000
_cell_volume 1445.060794
_symmetry_space_group_name_H-M "C 2 2 2"
_symmetry_group_IT_number 21
_symmetry_cell_setting 'orthorhombic'
loop_
_space_group_symop_operation_xyz
x,y,z
-x,-y,z
x,-y,-z
-x,y,-z
1/2+x,1/2+y,z
1/2-x,1/2-y,z
1/2+x,1/2-y,-z
1/2-x,1/2+y,-z
loop_
_atom_site_type_symbol
_atom_site_label
_atom_site_fract_x
_atom_site_fract_y
_atom_site_fract_z
Si Si1 0.500000 0.500000 0.000000
Si Si2 0.593779 0.662502 0.828663
Si Si3 0.500000 0.182030 0.000000
Si Si4 0.580113 0.905123 0.390833
Si Si5 0.168400 0.773001 0.644695
O O1 0.550568 0.568535 0.843944
O O2 0.648206 0.663081 0.594706
O O3 0.535306 0.744287 0.806527
O O4 0.632848 0.686684 0.097245
O O5 0.438411 0.114265 0.093543
O O6 0.500000 0.898386 0.500000
O O7 0.632502 0.822561 0.439949
O O8 0.607997 0.000000 0.500000
O O9 0.250000 0.750000 0.684684
#
# Coordination Sequence:
#
# PCOD9323375 Si02
#       5
#     2   8   4   8   8
#     4  10  24  42  70 106 122 162 232 282 324 368
#     4  10  22  40  66  91 125 165 211 264 314 380
#     4   9  18  36  59  86 122 152 203 257 315 349
#     4  10  20  36  59  90 117 154 208 258 298 363
#     4  11  23  43  64  89 132 174 204 251 332 389
#
# _framework density 20.760370999999999
#
# number of rings (size 3 to 8) (size 9 to 14) (size 15 to 20)
#    0.000    1.867    2.667    0.800    0.000    4.267 
#    4.800    0.000    0.000    0.000    0.000    0.000 
#    0.000    0.000    0.000    0.000    0.000    0.000 
#
# Total GULP energy -83522.343861 kJ/mol
# GULP energy per Si atom -5568.156257 kJ/mol
# Density = 2.071312 g / cm^3
# Si number density = 20.760371 Si / 1000 Ang^3
#
#
#
# Elastic Constant Matrix: (Units=GPa)
#
#
# Indices 1 2 3 4 5 6 
#
# 1 106.8409 42.6425 28.9182 0.0000 0.0000 0.0000
# 2 42.6425 139.8148 43.1103 0.0000 0.0000 0.0000
# 3 28.9182 43.1103 88.6915 0.0000 0.0000 0.0000
# 4 0.0000 0.0000 0.0000 4.6455 0.0000 0.0000
# 5 0.0000 0.0000 0.0000 0.0000 20.1394 0.0000
# 6 0.0000 0.0000 0.0000 0.0000 0.0000 23.7657
#
#
#
# Elastic Compliance Matrix: (Units=1/GPa)
#
#
# Indices 1 2 3 4 5 6 
#
# 1 0.011045 -0.002656 -0.002310 0.000000 0.000000 0.000000
# 2 -0.002656 0.009052 -0.003534 0.000000 0.000000 0.000000
# 3 -0.002310 -0.003534 0.013746 0.000000 0.000000 0.000000
# 4 0.000000 0.000000 0.000000 0.215264 0.000000 0.000000
# 5 0.000000 0.000000 0.000000 0.000000 0.049654 0.000000
# 6 0.000000 0.000000 0.000000 0.000000 0.000000 0.042077
#
#
# Mechanical properties :
#
#
# Convention : Reuss Voigt Hill
#
# Bulk Modulus (GPa) = 59.37348 62.74326 61.05837
# Shear Modulus (GPa) = 13.75693 24.42186 19.08940
#
# Velocity S-wave (km/s) = 2.57700 3.43355 3.03563
# Velocity P-wave (km/s) = 6.12504 6.78286 6.46232
#
# Compressibility (1/GPa) = 0.01684254
#
# Stress axis : x y z
#
# Youngs Moduli (GPa) = 90.53696 110.47138 72.74864
#
# Poissons Ratio (x) = 0.29346 0.16806
# Poissons Ratio (y) = 0.24050 0.25708
# Poissons Ratio (z) = 0.20915 0.39039
#
# Static dielectric constant tensor:
#      x y z
#    x 1.734280 0.000000 0.000000 
#    y 0.000000 1.753550 0.000000 
#    z 0.000000 0.000000 2.000730 
# 
# From -- ./inp_files/3638.got.cif
#   From: 2010.05.17/outbox.cif.g08.bks.cpg/sg21_2_cif.got.tgz:3638.got - 2010.06.03 23:14:55.
