data_PCOD9323414
_publ_section_title
;
Structure prediction by ZEFSAII (Michael W. Deem and Ramdas Pophale) SiO2 
 PCOD9323414
Probable space group: C 2 2 2
;
_chemical_formula_sum "Si O2"
_cell_formula_units_Z 40
_cell_length_a 13.907244
_cell_length_b 12.881626
_cell_length_c 9.241588
_cell_angle_alpha 90.000000
_cell_angle_beta 90.000000
_cell_angle_gamma 90.000000
_cell_volume 1655.611230
_symmetry_space_group_name_H-M "C 2 2 2"
_symmetry_group_IT_number 21
_symmetry_cell_setting 'orthorhombic'
loop_
_space_group_symop_operation_xyz
x,y,z
-x,-y,z
x,-y,-z
-x,y,-z
1/2+x,1/2+y,z
1/2-x,1/2-y,z
1/2+x,1/2-y,-z
1/2-x,1/2+y,-z
loop_
_atom_site_type_symbol
_atom_site_label
_atom_site_fract_x
_atom_site_fract_y
_atom_site_fract_z
Si Si1 0.093181 0.663242 0.901640
Si Si2 0.598306 0.637719 0.927632
Si Si3 0.372177 0.101566 0.410293
Si Si4 0.270450 0.998993 0.183682
Si Si5 0.857511 0.705735 0.700234
O O1 0.070852 0.639102 0.732159
O O2 0.131077 0.776376 0.951629
O O3 0.181353 0.583547 0.921540
O O4 0.000000 0.640508 0.000000
O O5 0.670896 0.550859 0.867713
O O6 0.579612 0.712438 0.788956
O O7 0.500000 0.602074 0.000000
O O8 0.373993 0.189687 0.530998
O O9 0.403122 0.000000 0.500000
O O10 0.270887 0.065793 0.335292
O O11 0.345245 0.907114 0.225372
O O12 0.750000 0.750000 0.717159
#
# Coordination Sequence:
#
# PCOD9323414 Si02
#       5
#     8   8   8   8   8
#     4   9  19  36  65 103 140 186 233 301 368 428
#     4  10  20  36  63 105 144 185 231 299 368 433
#     4   8  16  36  62  95 136 186 235 294 361 424
#     4   8  18  36  63  91 147 184 224 286 369 431
#     4   9  17  34  61  97 142 183 231 299 361 433
#
# _framework density 24.160260999999998
#
# number of rings (size 3 to 8) (size 9 to 14) (size 15 to 20)
#    1.200    2.000    0.000    0.000    0.000    1.600 
#    0.000    9.000    8.800    6.000   20.800   14.000 
#   48.000    0.000    0.400    0.000    0.000    0.000 
#
# Total GULP energy -111400.006121 kJ/mol
# GULP energy per Si atom -5570.000306 kJ/mol
# Density = 2.410527 g / cm^3
# Si number density = 24.160261 Si / 1000 Ang^3
#
#
#
# Elastic Constant Matrix: (Units=GPa)
#
#
# Indices 1 2 3 4 5 6 
#
# 1 137.0067 56.7380 66.7836 0.0000 0.0000 0.0000
# 2 56.7380 113.8415 64.1161 0.0000 0.0000 0.0000
# 3 66.7836 64.1161 218.8369 0.0000 0.0000 0.0000
# 4 0.0000 0.0000 0.0000 25.8587 0.0000 0.0000
# 5 0.0000 0.0000 0.0000 0.0000 35.8914 0.0000
# 6 0.0000 0.0000 0.0000 0.0000 0.0000 41.6066
#
#
#
# Elastic Compliance Matrix: (Units=1/GPa)
#
#
# Indices 1 2 3 4 5 6 
#
# 1 0.009795 -0.003830 -0.001867 0.000000 0.000000 0.000000
# 2 -0.003830 0.012018 -0.002352 0.000000 0.000000 0.000000
# 3 -0.001867 -0.002352 0.005829 0.000000 0.000000 0.000000
# 4 0.000000 0.000000 0.000000 0.038672 0.000000 0.000000
# 5 0.000000 0.000000 0.000000 0.000000 0.027862 0.000000
# 6 0.000000 0.000000 0.000000 0.000000 0.000000 0.024035
#
#
# Mechanical properties :
#
#
# Convention : Reuss Voigt Hill
#
# Bulk Modulus (GPa) = 86.63555 93.88449 90.26002
# Shear Modulus (GPa) = 36.19083 39.47449 37.83266
#
# Velocity S-wave (km/s) = 3.87453 4.04649 3.96144
# Velocity P-wave (km/s) = 7.48014 7.79586 7.63964
#
# Compressibility (1/GPa) = 0.01154261
#
# Stress axis : x y z
#
# Youngs Moduli (GPa) = 102.09030 83.20908 171.56993
#
# Poissons Ratio (x) = 0.31872 0.32032
# Poissons Ratio (y) = 0.39104 0.40356
# Poissons Ratio (z) = 0.19060 0.19572
#
# Static dielectric constant tensor:
#      x y z
#    x 2.041810 0.000000 0.000000 
#    y 0.000000 2.019350 0.000000 
#    z 0.000000 0.000000 2.058600 
# 
# From -- ./inp_files/14760.got.cif
#   From: 2010.05.17/outbox.cif.g08.bks.cpg/sg21_8_cif.got.tgz:14760.got - 2010.06.03 23:14:55.
