data_PCOD9323642
_publ_section_title
;
Structure prediction by ZEFSAII (Michael W. Deem and Ramdas Pophale) SiO2 
 PCOD9323642
Probable space group: C 2 2 2
;
_chemical_formula_sum "Si O2"
_cell_formula_units_Z 34
_cell_length_a 21.023978
_cell_length_b 7.871991
_cell_length_c 8.659170
_cell_angle_alpha 90.000000
_cell_angle_beta 90.000000
_cell_angle_gamma 90.000000
_cell_volume 1433.097533
_symmetry_space_group_name_H-M "C 2 2 2"
_symmetry_group_IT_number 21
_symmetry_cell_setting 'orthorhombic'
loop_
_space_group_symop_operation_xyz
x,y,z
-x,-y,z
x,-y,-z
-x,y,-z
1/2+x,1/2+y,z
1/2-x,1/2-y,z
1/2+x,1/2-y,-z
1/2-x,1/2+y,-z
loop_
_atom_site_type_symbol
_atom_site_label
_atom_site_fract_x
_atom_site_fract_y
_atom_site_fract_z
Si Si1 0.766740 0.451249 0.178013
Si Si2 0.166854 0.153418 0.383045
Si Si3 0.500000 0.000000 0.500000
Si Si4 0.619205 0.159704 0.338731
Si Si5 0.573062 0.499861 0.816469
O O1 0.750000 0.250000 0.200337
O O2 0.726495 0.579181 0.286581
O O3 0.839954 0.462872 0.229740
O O4 0.756377 0.500000 0.000000
O O5 0.162235 0.304939 0.507071
O O6 0.151160 0.000000 0.500000
O O7 0.109712 0.157042 0.260611
O O8 0.549767 0.103495 0.394931
O O9 0.607684 0.330616 0.241495
O O10 0.500000 0.500000 0.767055
O O11 0.576586 0.500000 0.000000
#
# Coordination Sequence:
#
# PCOD9323642 Si02
#       5
#     8   8   2   8   8
#     4  12  26  47  71 110 149 192 241 301 371 434
#     4  10  21  42  75  96 137 185 244 297 353 430
#     4  12  28  48  72 104 148 180 244 310 364 424
#     4  11  26  47  69 104 141 188 244 297 367 431
#     4  10  20  39  68 101 135 187 244 292 349 428
#
# _framework density 23.724831999999999
#
# number of rings (size 3 to 8) (size 9 to 14) (size 15 to 20)
#    0.000    1.176    4.706    2.118    1.647    5.176 
#    8.471    0.000    0.000    0.000    0.000    0.000 
#    0.000    0.000    0.000    0.000    0.000    0.000 
#
# Total GULP energy -94999.890087 kJ/mol
# GULP energy per Si atom -5588.228829 kJ/mol
# Density = 2.367083 g / cm^3
# Si number density = 23.724832 Si / 1000 Ang^3
#
#
#
# Elastic Constant Matrix: (Units=GPa)
#
#
# Indices 1 2 3 4 5 6 
#
# 1 151.8219 35.7889 51.7123 0.0000 0.0000 0.0000
# 2 35.7889 89.6026 23.1409 0.0000 0.0000 0.0000
# 3 51.7123 23.1409 78.3496 0.0000 0.0000 0.0000
# 4 0.0000 0.0000 0.0000 22.3337 0.0000 0.0000
# 5 0.0000 0.0000 0.0000 0.0000 46.2967 0.0000
# 6 0.0000 0.0000 0.0000 0.0000 0.0000 30.5758
#
#
#
# Elastic Compliance Matrix: (Units=1/GPa)
#
#
# Indices 1 2 3 4 5 6 
#
# 1 0.008881 -0.002201 -0.005211 0.000000 0.000000 0.000000
# 2 -0.002201 0.012628 -0.002277 0.000000 0.000000 0.000000
# 3 -0.005211 -0.002277 0.016875 0.000000 0.000000 0.000000
# 4 0.000000 0.000000 0.000000 0.044775 0.000000 0.000000
# 5 0.000000 0.000000 0.000000 0.000000 0.021600 0.000000
# 6 0.000000 0.000000 0.000000 0.000000 0.000000 0.032706
#
#
# Mechanical properties :
#
#
# Convention : Reuss Voigt Hill
#
# Bulk Modulus (GPa) = 52.61762 60.11758 56.36760
# Shear Modulus (GPa) = 30.64145 33.78338 32.21242
#
# Velocity S-wave (km/s) = 3.59769 3.77764 3.68876
# Velocity P-wave (km/s) = 6.28365 6.66498 6.47712
#
# Compressibility (1/GPa) = 0.01900504
#
# Stress axis : x y z
#
# Youngs Moduli (GPa) = 112.60570 79.19167 59.25834
#
# Poissons Ratio (x) = 0.17432 0.30881
# Poissons Ratio (y) = 0.24787 0.13492
# Poissons Ratio (z) = 0.58681 0.18030
#
# Static dielectric constant tensor:
#      x y z
#    x 1.934670 0.000000 0.000000 
#    y 0.000000 2.068440 0.000000 
#    z 0.000000 0.000000 1.847530 
# 
# From -- ./inp_files/10570.got.cif
#   From: 2010.05.17/outbox.cif.g08.bks.cpg/sg21_6_cif.got.tgz:10570.got - 2010.06.03 23:14:55.
