data_PCOD9323283
_publ_section_title
;
Structure prediction by ZEFSAII (Michael W. Deem and Ramdas Pophale) SiO2 
 PCOD9323283
Probable space group: C 2 2 2
;
_chemical_formula_sum "Si O2"
_cell_formula_units_Z 64
_cell_length_a 13.342823
_cell_length_b 26.742471
_cell_length_c 8.278369
_cell_angle_alpha 90.000000
_cell_angle_beta 90.000000
_cell_angle_gamma 90.000000
_cell_volume 2953.888100
_symmetry_space_group_name_H-M "C 2 2 2"
_symmetry_group_IT_number 21
_symmetry_cell_setting 'orthorhombic'
loop_
_space_group_symop_operation_xyz
x,y,z
-x,-y,z
x,-y,-z
-x,y,-z
1/2+x,1/2+y,z
1/2-x,1/2-y,z
1/2+x,1/2-y,-z
1/2-x,1/2+y,-z
loop_
_atom_site_type_symbol
_atom_site_label
_atom_site_fract_x
_atom_site_fract_y
_atom_site_fract_z
Si Si1 0.377948 0.561116 0.326589
Si Si2 0.013641 0.791150 0.189996
Si Si3 0.779122 0.805182 0.685689
Si Si4 0.794509 0.197128 0.693707
Si Si5 0.240280 0.059580 0.997908
Si Si6 0.926335 0.320705 0.204289
Si Si7 0.624659 0.860294 0.129896
Si Si8 0.389381 0.439753 0.313710
O O1 0.381550 0.500272 0.325327
O O2 0.494269 0.575274 0.302230
O O3 0.349401 0.578230 0.509503
O O4 0.308029 0.574178 0.174552
O O5 0.116061 0.819974 0.233876
O O6 0.032273 0.734069 0.253134
O O7 0.908672 0.811309 0.254783
O O8 0.000000 0.789038 0.000000
O O9 0.750000 0.750000 0.754303
O O10 0.798121 0.800102 0.497805
O O11 0.675665 0.834614 0.705969
O O12 0.750000 0.250000 0.755315
O O13 0.714097 0.157704 0.757209
O O14 0.340907 0.089450 0.041213
O O15 0.165040 0.072381 0.146015
O O16 0.255402 0.000000 0.000000
O O17 0.018257 0.359073 0.219203
O O18 0.892427 0.320886 0.016294
#
# Coordination Sequence:
#
# PCOD9323283 Si02
#       8
#     8   8   8   8   8   8   8   8
#     4   8  14  28  54  83 113 151 202 254 324 400
#     4  11  18  34  62  88 117 161 204 253 313 378
#     4   9  21  34  58  88 121 163 205 259 316 369
#     4  11  20  36  59  91 125 159 204 256 316 386
#     4  10  20  35  56  86 123 160 215 276 327 380
#     4  10  20  40  57  83 117 157 216 260 303 381
#     4  11  22  38  60  87 119 163 215 257 317 379
#     4   8  14  28  54  83 111 154 199 256 327 394
#
# _framework density 21.666359
#
# number of rings (size 3 to 8) (size 9 to 14) (size 15 to 20)
#    0.000    2.250    2.500    2.250    0.000    3.000 
#    2.250    5.000    2.750    0.000    0.000    0.000 
#    0.000    1.000    0.000    0.000    0.000    0.000 
#
# Total GULP energy -178618.495207 kJ/mol
# GULP energy per Si atom -5581.827975 kJ/mol
# Density = 2.161704 g / cm^3
# Si number density = 21.666359 Si / 1000 Ang^3
#
#
#
# Elastic Constant Matrix: (Units=GPa)
#
#
# Indices 1 2 3 4 5 6 
#
# 1 194.3985 43.7515 66.2731 0.0000 0.0000 0.0000
# 2 43.7515 70.8661 19.8108 0.0000 0.0000 0.0000
# 3 66.2731 19.8108 95.0745 0.0000 0.0000 0.0000
# 4 0.0000 0.0000 0.0000 6.5145 0.0000 0.0000
# 5 0.0000 0.0000 0.0000 0.0000 12.5365 0.0000
# 6 0.0000 0.0000 0.0000 0.0000 0.0000 27.1213
#
#
#
# Elastic Compliance Matrix: (Units=1/GPa)
#
#
# Indices 1 2 3 4 5 6 
#
# 1 0.007420 -0.003329 -0.004479 0.000000 0.000000 0.000000
# 2 -0.003329 0.016478 -0.001113 0.000000 0.000000 0.000000
# 3 -0.004479 -0.001113 0.013872 0.000000 0.000000 0.000000
# 4 0.000000 0.000000 0.000000 0.153504 0.000000 0.000000
# 5 0.000000 0.000000 0.000000 0.000000 0.079767 0.000000
# 6 0.000000 0.000000 0.000000 0.000000 0.000000 0.036871
#
#
# Mechanical properties :
#
#
# Convention : Reuss Voigt Hill
#
# Bulk Modulus (GPa) = 50.17966 68.88997 59.53482
# Shear Modulus (GPa) = 15.04231 24.60137 19.82184
#
# Velocity S-wave (km/s) = 2.63776 3.37332 3.02796
# Velocity P-wave (km/s) = 5.69978 6.85837 6.30574
#
# Compressibility (1/GPa) = 0.01992839
#
# Stress axis : x y z
#
# Youngs Moduli (GPa) = 134.76829 60.68868 72.08835
#
# Poissons Ratio (x) = 0.20204 0.32286
# Poissons Ratio (y) = 0.44865 0.08023
# Poissons Ratio (z) = 0.60358 0.06754
#
# Static dielectric constant tensor:
#      x y z
#    x 1.797840 0.000000 0.000000 
#    y 0.000000 1.862420 0.000000 
#    z 0.000000 0.000000 1.783660 
# 
# From -- ./inp_files/13691.got.cif
#   From: 2010.05.17/outbox.cif.g08.bks.cpg/sg21_7_cif.got.tgz:13691.got - 2010.06.03 23:14:55.
