data_PCOD9323213
_publ_section_title
;
Structure prediction by ZEFSAII (Michael W. Deem and Ramdas Pophale) SiO2 
 PCOD9323213
Probable space group: C 2 2 2
;
_chemical_formula_sum "Si O2"
_cell_formula_units_Z 64
_cell_length_a 11.314019
_cell_length_b 33.805385
_cell_length_c 8.781294
_cell_angle_alpha 90.000000
_cell_angle_beta 90.000000
_cell_angle_gamma 90.000000
_cell_volume 3358.623387
_symmetry_space_group_name_H-M "C 2 2 2"
_symmetry_group_IT_number 21
_symmetry_cell_setting 'orthorhombic'
loop_
_space_group_symop_operation_xyz
x,y,z
-x,-y,z
x,-y,-z
-x,y,-z
1/2+x,1/2+y,z
1/2-x,1/2-y,z
1/2+x,1/2-y,-z
1/2-x,1/2+y,-z
loop_
_atom_site_type_symbol
_atom_site_label
_atom_site_fract_x
_atom_site_fract_y
_atom_site_fract_z
Si Si1 0.920049 0.793139 0.151144
Si Si2 0.341979 0.416381 0.171364
Si Si3 0.144068 0.001063 0.323374
Si Si4 0.224754 0.705930 0.414614
Si Si5 0.929311 0.152953 0.346982
Si Si6 0.789444 0.662715 0.264067
Si Si7 0.502725 0.208029 0.184201
Si Si8 0.370276 0.418520 0.816980
O O1 0.782828 0.805981 0.154484
O O2 0.969942 0.831791 0.235424
O O3 0.941509 0.750407 0.228091
O O4 0.000000 0.792126 0.000000
O O5 0.310791 0.459553 0.239422
O O6 0.265583 0.380945 0.244198
O O7 0.485360 0.416269 0.193074
O O8 0.329857 0.412859 0.989340
O O9 0.176497 0.960210 0.241749
O O10 0.178535 0.000000 0.500000
O O11 0.000000 0.000000 0.318357
O O12 0.250000 0.750000 0.469866
O O13 0.347943 0.691356 0.347687
O O14 0.212947 0.677828 0.561622
O O15 0.122696 0.705801 0.285276
O O16 0.843842 0.118125 0.292153
O O17 0.000000 0.142805 0.500000
O O18 0.925092 0.669626 0.221918
O O19 0.500000 0.209170 0.000000
#
# Coordination Sequence:
#
# PCOD9323213 Si02
#       8
#     8   8   8   8   8   8   8   8
#     4  11  22  39  61  85 120 163 206 260 316 371
#     4  10  20  36  54  87 119 163 198 243 305 374
#     4   9  19  31  54  83 125 159 191 240 307 382
#     4  12  25  41  62  84 123 163 208 264 315 369
#     4  12  23  36  60  90 120 157 208 251 311 366
#     4  12  24  39  62  87 123 160 213 255 311 375
#     4  11  27  42  59  84 118 164 214 261 314 368
#     4  10  20  34  56  82 125 161 195 244 308 376
#
# _framework density 19.055426000000001
#
# number of rings (size 3 to 8) (size 9 to 14) (size 15 to 20)
#    0.000    1.125    3.750    2.625    8.750    1.500 
#    0.000    0.000    0.000    0.000    0.000    0.875 
#    0.000    0.000    0.000    0.000    0.000    0.000 
#
# Total GULP energy -178161.439603 kJ/mol
# GULP energy per Si atom -5567.544988 kJ/mol
# Density = 1.901205 g / cm^3
# Si number density = 19.055426 Si / 1000 Ang^3
#
#
#
# Elastic Constant Matrix: (Units=GPa)
#
#
# Indices 1 2 3 4 5 6 
#
# 1 36.5463 23.6532 29.2357 0.0000 0.0000 0.0000
# 2 23.6532 157.5455 51.0963 0.0000 0.0000 0.0000
# 3 29.2357 51.0963 90.1278 0.0000 0.0000 0.0000
# 4 0.0000 0.0000 0.0000 28.8085 0.0000 0.0000
# 5 0.0000 0.0000 0.0000 0.0000 14.9278 0.0000
# 6 0.0000 0.0000 0.0000 0.0000 0.0000 23.6874
#
#
#
# Elastic Compliance Matrix: (Units=1/GPa)
#
#
# Indices 1 2 3 4 5 6 
#
# 1 0.037491 -0.002064 -0.010991 0.000000 0.000000 0.000000
# 2 -0.002064 0.007891 -0.003804 0.000000 0.000000 0.000000
# 3 -0.010991 -0.003804 0.016817 0.000000 0.000000 0.000000
# 4 0.000000 0.000000 0.000000 0.034712 0.000000 0.000000
# 5 0.000000 0.000000 0.000000 0.000000 0.066989 0.000000
# 6 0.000000 0.000000 0.000000 0.000000 0.000000 0.042216
#
#
# Mechanical properties :
#
#
# Convention : Reuss Voigt Hill
#
# Bulk Modulus (GPa) = 35.11150 54.68779 44.89965
# Shear Modulus (GPa) = 20.05381 25.50038 22.77709
#
# Velocity S-wave (km/s) = 3.24758 3.66214 3.46107
# Velocity P-wave (km/s) = 5.70336 6.82959 6.29173
#
# Compressibility (1/GPa) = 0.02848069
#
# Stress axis : x y z
#
# Youngs Moduli (GPa) = 26.67307 126.72596 59.46219
#
# Poissons Ratio (x) = 0.26156 0.65356
# Poissons Ratio (y) = 0.05505 0.22620
# Poissons Ratio (z) = 0.29317 0.48209
#
# Static dielectric constant tensor:
#      x y z
#    x 1.585280 0.000000 0.000000 
#    y 0.000000 1.709280 0.000000 
#    z 0.000000 0.000000 1.764450 
# 
# From -- ./inp_files/13687.got.cif
#   From: 2010.05.17/outbox.cif.g08.bks.cpg/sg21_7_cif.got.tgz:13687.got - 2010.06.03 23:14:55.
