data_PCOD9323428
_publ_section_title
;
Structure prediction by ZEFSAII (Michael W. Deem and Ramdas Pophale) SiO2 
 PCOD9323428
Probable space group: C 2 2 2
;
_chemical_formula_sum "Si O2"
_cell_formula_units_Z 44
_cell_length_a 24.101325
_cell_length_b 6.154805
_cell_length_c 15.763129
_cell_angle_alpha 90.000000
_cell_angle_beta 90.000000
_cell_angle_gamma 90.000000
_cell_volume 2338.286093
_symmetry_space_group_name_H-M "C 2 2 2"
_symmetry_group_IT_number 21
_symmetry_cell_setting 'orthorhombic'
loop_
_space_group_symop_operation_xyz
x,y,z
-x,-y,z
x,-y,-z
-x,y,-z
1/2+x,1/2+y,z
1/2-x,1/2-y,z
1/2+x,1/2-y,-z
1/2-x,1/2+y,-z
loop_
_atom_site_type_symbol
_atom_site_label
_atom_site_fract_x
_atom_site_fract_y
_atom_site_fract_z
Si Si1 0.500000 0.500000 0.694156
Si Si2 0.102665 0.233135 0.697589
Si Si3 0.947190 0.619111 0.194329
Si Si4 0.750000 0.250000 0.711006
Si Si5 0.720533 0.500000 0.000000
Si Si6 0.848425 0.907200 0.166016
Si Si7 0.800511 0.604346 0.583805
O O1 0.552834 0.607359 0.650094
O O2 0.475773 0.687718 0.753775
O O3 0.079841 0.456905 0.736675
O O4 0.153919 0.265822 0.636098
O O5 0.121831 0.094308 0.779230
O O6 0.895583 0.726676 0.144759
O O7 0.000000 0.500000 0.150176
O O8 0.801058 0.185385 0.771514
O O9 0.772911 0.437863 0.650020
O O10 0.750000 0.250000 0.999978
O O11 0.682651 0.505572 0.083652
O O12 0.826508 0.500000 0.500000
O O13 0.750000 0.750000 0.551368
#
# Coordination Sequence:
#
# PCOD9323428 Si02
#       7
#     4   8   8   4   4   8   8
#     4   8  18  36  60  94 112 156 220 264 314 397
#     4  10  20  36  66  88 121 167 213 265 329 397
#     4   9  18  36  64  93 119 160 219 268 321 394
#     4  12  22  38  60  90 124 172 216 254 328 402
#     4  12  30  44  64 103 145 178 224 284 336 410
#     4  11  23  39  65  94 129 173 219 266 336 400
#     4  12  24  37  57  93 129 164 211 268 324 398
#
# _framework density 18.8172
#
# number of rings (size 3 to 8) (size 9 to 14) (size 15 to 20)
#    0.000    1.455    5.455    0.000    5.091    0.000 
#    0.000    0.000    0.000   31.091    0.000    0.000 
#    0.000    0.000    0.000    0.000    0.000    0.000 
#
# Total GULP energy -122482.946900 kJ/mol
# GULP energy per Si atom -5567.406677 kJ/mol
# Density = 1.877437 g / cm^3
# Si number density = 18.817200 Si / 1000 Ang^3
#
#
#
# Elastic Constant Matrix: (Units=GPa)
#
#
# Indices 1 2 3 4 5 6 
#
# 1 123.1694 48.0968 29.6560 0.0000 0.0000 0.0000
# 2 48.0968 85.4869 16.7227 0.0000 0.0000 0.0000
# 3 29.6560 16.7227 73.6702 0.0000 0.0000 0.0000
# 4 0.0000 0.0000 0.0000 18.7980 0.0000 0.0000
# 5 0.0000 0.0000 0.0000 0.0000 -10.8597 0.0000
# 6 0.0000 0.0000 0.0000 0.0000 0.0000 42.2214
#
#
#
# Elastic Compliance Matrix: (Units=1/GPa)
#
#
# Indices 1 2 3 4 5 6 
#
# 1 0.011076 -0.005608 -0.003186 0.000000 0.000000 0.000000
# 2 -0.005608 0.015081 -0.001166 0.000000 0.000000 0.000000
# 3 -0.003186 -0.001166 0.015121 0.000000 0.000000 0.000000
# 4 0.000000 0.000000 0.000000 0.053197 0.000000 0.000000
# 5 0.000000 0.000000 0.000000 0.000000 -0.092083 0.000000
# 6 0.000000 0.000000 0.000000 0.000000 0.000000 0.023685
#
#
# Mechanical properties :
#
#
# Convention : Reuss Voigt Hill
#
# Bulk Modulus (GPa) = 46.81914 52.36415 49.59164
# Shear Modulus (GPa) = 94.13448 22.55533 58.34491
#
# Velocity S-wave (km/s) = 7.08056 3.46592 5.57436
# Velocity P-wave (km/s) = 9.58023 6.62608 8.23668
#
# Compressibility (1/GPa) = 0.02135879
#
# Stress axis : x y z
#
# Youngs Moduli (GPa) = 90.28570 66.30796 66.13341
#
# Poissons Ratio (x) = 0.37188 0.21067
# Poissons Ratio (y) = 0.50636 0.07709
# Poissons Ratio (z) = 0.28761 0.07729
#
# Static dielectric constant tensor:
#      x y z
#    x 1.690620 0.000000 0.000000 
#    y 0.000000 1.733470 0.000000 
#    z 0.000000 0.000000 1.583880 
# 
# From -- ./inp_files/33751.got.cif
#   From: 2010.05.17/outbox.cif.g08.bks.cpg/sg21_17_cif.got.tgz:33751.got - 2010.06.03 23:14:55.
