data_PCOD9323770
_publ_section_title
;
Structure prediction by ZEFSAII (Michael W. Deem and Ramdas Pophale) SiO2 
 PCOD9323770
Probable space group: C 2 2 2
;
_chemical_formula_sum "Si O2"
_cell_formula_units_Z 56
_cell_length_a 21.854370
_cell_length_b 14.299247
_cell_length_c 8.730315
_cell_angle_alpha 90.000000
_cell_angle_beta 90.000000
_cell_angle_gamma 90.000000
_cell_volume 2728.232470
_symmetry_space_group_name_H-M "C 2 2 2"
_symmetry_group_IT_number 21
_symmetry_cell_setting 'orthorhombic'
loop_
_space_group_symop_operation_xyz
x,y,z
-x,-y,z
x,-y,-z
-x,y,-z
1/2+x,1/2+y,z
1/2-x,1/2-y,z
1/2+x,1/2-y,-z
1/2-x,1/2+y,-z
loop_
_atom_site_type_symbol
_atom_site_label
_atom_site_fract_x
_atom_site_fract_y
_atom_site_fract_z
Si Si1 0.881164 0.403786 0.406333
Si Si2 0.768225 0.356066 0.226467
Si Si3 0.014668 0.390916 0.829841
Si Si4 0.937982 0.947039 0.336754
Si Si5 0.206454 0.660846 0.873403
Si Si6 0.309889 0.485582 0.180195
Si Si7 0.412409 0.773225 0.673334
O O1 0.895658 0.500000 0.500000
O O2 0.812266 0.400436 0.350855
O O3 0.920029 0.389400 0.251475
O O4 0.891096 0.313962 0.512032
O O5 0.750000 0.250000 0.250582
O O6 0.706262 0.413148 0.241048
O O7 0.797668 0.366537 0.054379
O O8 0.000000 0.500000 0.834293
O O9 0.969345 0.336161 0.721005
O O10 0.000000 0.353628 0.000000
O O11 0.875038 0.957808 0.244178
O O12 0.937927 0.833025 0.342113
O O13 0.930198 0.000000 0.500000
O O14 0.000000 0.000000 0.273998
O O15 0.250000 0.750000 0.872198
O O16 0.249752 0.580892 0.795888
O O17 0.143411 0.695308 0.791390
O O18 0.315570 0.500000 0.000000
#
# Coordination Sequence:
#
# PCOD9323770 Si02
#       7
#     8   8   8   8   8   8   8
#     4  12  25  43  67 104 139 173 223 282 349 420
#     4  10  24  41  68 100 137 176 219 279 340 410
#     4  11  25  45  70  99 135 179 227 280 349 422
#     4  11  28  47  65  96 135 187 231 281 341 402
#     4  10  20  43  71 102 133 173 228 278 343 400
#     4  10  22  44  71  98 132 174 224 284 333 403
#     4  12  25  43  71 100 137 183 226 290 343 414
#
# _framework density 20.526111
#
# number of rings (size 3 to 8) (size 9 to 14) (size 15 to 20)
#    0.000    1.143    2.857    2.143    6.000    2.571 
#    2.571    0.000    0.000    0.000    0.000    0.000 
#    0.000    0.000    0.000    0.000    0.000    0.000 
#
# Total GULP energy -155922.249064 kJ/mol
# GULP energy per Si atom -5568.651752 kJ/mol
# Density = 2.047939 g / cm^3
# Si number density = 20.526111 Si / 1000 Ang^3
#
#
#
# Elastic Constant Matrix: (Units=GPa)
#
#
# Indices 1 2 3 4 5 6 
#
# 1 84.8600 41.8606 12.4938 0.0000 0.0000 0.0000
# 2 41.8606 130.0352 17.0201 0.0000 0.0000 0.0000
# 3 12.4938 17.0201 42.4237 0.0000 0.0000 0.0000
# 4 0.0000 0.0000 0.0000 9.9650 0.0000 0.0000
# 5 0.0000 0.0000 0.0000 0.0000 42.9350 0.0000
# 6 0.0000 0.0000 0.0000 0.0000 0.0000 26.6998
#
#
#
# Elastic Compliance Matrix: (Units=1/GPa)
#
#
# Indices 1 2 3 4 5 6 
#
# 1 0.014253 -0.004263 -0.002487 0.000000 0.000000 0.000000
# 2 -0.004263 0.009391 -0.002512 0.000000 0.000000 0.000000
# 3 -0.002487 -0.002512 0.025312 0.000000 0.000000 0.000000
# 4 0.000000 0.000000 0.000000 0.100351 0.000000 0.000000
# 5 0.000000 0.000000 0.000000 0.000000 0.023291 0.000000
# 6 0.000000 0.000000 0.000000 0.000000 0.000000 0.037453
#
#
# Mechanical properties :
#
#
# Convention : Reuss Voigt Hill
#
# Bulk Modulus (GPa) = 32.86047 44.45197 38.65622
# Shear Modulus (GPa) = 20.94496 28.31627 24.63061
#
# Velocity S-wave (km/s) = 3.19784 3.71822 3.46781
# Velocity P-wave (km/s) = 5.44783 6.33537 5.90829
#
# Compressibility (1/GPa) = 0.03043170
#
# Stress axis : x y z
#
# Youngs Moduli (GPa) = 70.16023 106.48141 39.50667
#
# Poissons Ratio (x) = 0.45390 0.09827
# Poissons Ratio (y) = 0.29908 0.09925
# Poissons Ratio (z) = 0.17451 0.26752
#
# Static dielectric constant tensor:
#      x y z
#    x 1.775970 0.000000 0.000000 
#    y 0.000000 1.806260 0.000000 
#    z 0.000000 0.000000 2.039210 
# 
# From -- ./inp_files/17681.got.cif
#   From: 2010.05.17/outbox.cif.g08.bks.cpg/sg21_9_cif.got.tgz:17681.got - 2010.06.03 23:14:55.
