data_PCOD9323662
_publ_section_title
;
Structure prediction by ZEFSAII (Michael W. Deem and Ramdas Pophale) SiO2 
 PCOD9323662
Probable space group: C 2 2 2
;
_chemical_formula_sum "Si O2"
_cell_formula_units_Z 48
_cell_length_a 12.482095
_cell_length_b 12.893965
_cell_length_c 15.692874
_cell_angle_alpha 90.000000
_cell_angle_beta 90.000000
_cell_angle_gamma 90.000000
_cell_volume 2525.669143
_symmetry_space_group_name_H-M "C 2 2 2"
_symmetry_group_IT_number 21
_symmetry_cell_setting 'orthorhombic'
loop_
_space_group_symop_operation_xyz
x,y,z
-x,-y,z
x,-y,-z
-x,y,-z
1/2+x,1/2+y,z
1/2-x,1/2-y,z
1/2+x,1/2-y,-z
1/2-x,1/2+y,-z
loop_
_atom_site_type_symbol
_atom_site_label
_atom_site_fract_x
_atom_site_fract_y
_atom_site_fract_z
Si Si1 0.579795 0.740860 0.235756
Si Si2 0.342180 0.330803 0.705836
Si Si3 0.373240 0.516000 0.824895
Si Si4 0.063362 0.389614 0.076174
Si Si5 0.750000 0.750000 0.374225
Si Si6 0.760474 0.000000 0.000000
Si Si7 0.877821 0.122999 0.489708
O O1 0.461003 0.709200 0.267991
O O2 0.638568 0.637032 0.199235
O O3 0.569267 0.823813 0.160808
O O4 0.652651 0.782644 0.312599
O O5 0.250000 0.250000 0.731133
O O6 0.325163 0.440247 0.753486
O O7 0.340017 0.347474 0.604571
O O8 0.500000 0.500000 0.824495
O O9 0.330356 0.479527 0.916585
O O10 0.000000 0.500000 0.090585
O O11 0.179057 0.413369 0.035986
O O12 0.000000 0.333345 0.000000
O O13 0.800994 0.834416 0.436980
O O14 0.000000 0.162819 0.500000
O O15 0.881667 0.000000 0.500000
#
# Coordination Sequence:
#
# PCOD9323662 Si02
#       7
#     8   8   8   8   4   4   8
#     4  11  23  41  65  95 129 173 219 277 337 402
#     4  11  24  40  65  96 129 173 222 271 336 406
#     4  10  23  40  62  94 126 165 223 271 325 400
#     4   9  22  40  61  89 127 176 219 265 339 406
#     4  12  22  40  68  98 128 162 216 270 328 398
#     4  10  20  40  60  88 128 164 216 270 336 392
#     4  11  23  42  67  92 131 170 214 270 329 399
#
# _framework density 19.004864999999999
#
# number of rings (size 3 to 8) (size 9 to 14) (size 15 to 20)
#    0.000    1.667    2.500    2.250    9.333    2.667 
#    0.000    0.000    0.000    1.000    0.000    0.000 
#    0.000    0.000    0.000    0.000    0.000    0.000 
#
# Total GULP energy -133907.714375 kJ/mol
# GULP energy per Si atom -5579.488099 kJ/mol
# Density = 1.896161 g / cm^3
# Si number density = 19.004865 Si / 1000 Ang^3
#
#
#
# Elastic Constant Matrix: (Units=GPa)
#
#
# Indices 1 2 3 4 5 6 
#
# 1 72.5930 45.1835 44.0831 0.0000 0.0000 0.0000
# 2 45.1835 88.2085 66.4844 0.0000 0.0000 0.0000
# 3 44.0831 66.4844 172.5208 0.0000 0.0000 0.0000
# 4 0.0000 0.0000 0.0000 29.1573 0.0000 0.0000
# 5 0.0000 0.0000 0.0000 0.0000 44.9212 0.0000
# 6 0.0000 0.0000 0.0000 0.0000 0.0000 18.1831
#
#
#
# Elastic Compliance Matrix: (Units=1/GPa)
#
#
# Indices 1 2 3 4 5 6 
#
# 1 0.020565 -0.009264 -0.001685 0.000000 0.000000 0.000000
# 2 -0.009264 0.020151 -0.005398 0.000000 0.000000 0.000000
# 3 -0.001685 -0.005398 0.008307 0.000000 0.000000 0.000000
# 4 0.000000 0.000000 0.000000 0.034297 0.000000 0.000000
# 5 0.000000 0.000000 0.000000 0.000000 0.022261 0.000000
# 6 0.000000 0.000000 0.000000 0.000000 0.000000 0.054996
#
#
# Mechanical properties :
#
#
# Convention : Reuss Voigt Hill
#
# Bulk Modulus (GPa) = 61.24241 71.64716 66.44478
# Shear Modulus (GPa) = 25.16170 30.29040 27.72605
#
# Velocity S-wave (km/s) = 3.64257 3.99660 3.82369
# Velocity P-wave (km/s) = 7.07006 7.68624 7.38458
#
# Compressibility (1/GPa) = 0.01632855
#
# Stress axis : x y z
#
# Youngs Moduli (GPa) = 48.62692 49.62491 120.37684
#
# Poissons Ratio (x) = 0.45974 0.20279
# Poissons Ratio (y) = 0.45049 0.64984
# Poissons Ratio (z) = 0.08192 0.26790
#
# Static dielectric constant tensor:
#      x y z
#    x 1.695110 0.000000 0.000000 
#    y 0.000000 1.664940 0.000000 
#    z 0.000000 0.000000 1.652640 
# 
# From -- ./inp_files/31526.got.cif
#   From: 2010.05.17/outbox.cif.g08.bks.cpg/sg21_16_cif.got.tgz:31526.got - 2010.06.03 23:14:55.
