data_PCOD9323323
_publ_section_title
;
Structure prediction by ZEFSAII (Michael W. Deem and Ramdas Pophale) SiO2 
 PCOD9323323
Probable space group: C 2 2 2
;
_chemical_formula_sum "Si O2"
_cell_formula_units_Z 64
_cell_length_a 12.262566
_cell_length_b 14.934331
_cell_length_c 17.999444
_cell_angle_alpha 90.000000
_cell_angle_beta 90.000000
_cell_angle_gamma 90.000000
_cell_volume 3296.296130
_symmetry_space_group_name_H-M "C 2 2 2"
_symmetry_group_IT_number 21
_symmetry_cell_setting 'orthorhombic'
loop_
_space_group_symop_operation_xyz
x,y,z
-x,-y,z
x,-y,-z
-x,y,-z
1/2+x,1/2+y,z
1/2-x,1/2-y,z
1/2+x,1/2-y,-z
1/2-x,1/2+y,-z
loop_
_atom_site_type_symbol
_atom_site_label
_atom_site_fract_x
_atom_site_fract_y
_atom_site_fract_z
Si Si1 0.758445 0.355069 0.828279
Si Si2 0.852703 0.798130 0.554454
Si Si3 0.085241 0.732373 0.604734
Si Si4 0.958599 0.397551 0.717917
Si Si5 0.087723 0.880580 0.715657
Si Si6 0.316831 0.155630 0.786919
Si Si7 0.871740 0.491503 0.089035
Si Si8 0.347005 0.432743 0.671304
O O1 0.750000 0.250000 0.846839
O O2 0.640493 0.381639 0.796117
O O3 0.797680 0.423435 0.890083
O O4 0.852116 0.377064 0.767089
O O5 0.750000 0.750000 0.589764
O O6 0.857457 0.771746 0.468257
O O7 0.845007 0.897475 0.586672
O O8 0.961008 0.757521 0.588054
O O9 0.121901 0.790147 0.674978
O O10 0.077761 0.631798 0.634588
O O11 0.060185 0.339071 0.751913
O O12 0.000000 0.500000 0.719248
O O13 0.958850 0.895978 0.709142
O O14 0.142430 0.961608 0.671271
O O15 0.250000 0.250000 0.797494
O O16 0.328530 0.094679 0.862518
O O17 0.249491 0.100759 0.724130
O O18 0.000000 0.500000 0.111658
O O19 0.871998 0.500000 0.000000
#
# Coordination Sequence:
#
# PCOD9323323 Si02
#       8
#     8   8   8   8   8   8   8   8
#     4  12  22  38  68  99 132 167 217 271 328 389
#     4  10  21  37  53  79 123 170 205 266 336 389
#     4  10  22  36  56  85 120 161 214 271 329 384
#     4  12  22  40  65  98 122 168 228 277 321 391
#     4  10  20  35  59  92 118 158 214 267 321 385
#     4  12  22  38  69  97 127 167 224 268 322 392
#     4  11  24  46  69 100 140 175 216 270 329 407
#     4  10  20  36  60  87 122 166 212 266 320 392
#
# _framework density 19.415731999999998
#
# number of rings (size 3 to 8) (size 9 to 14) (size 15 to 20)
#    0.000    1.125    5.000    2.625    1.750    1.000 
#    0.000    3.750    2.750    1.500    0.000    0.000 
#    0.000    0.000    0.000    0.000    0.000    0.000 
#
# Total GULP energy -178170.410760 kJ/mol
# GULP energy per Si atom -5567.825336 kJ/mol
# Density = 1.937154 g / cm^3
# Si number density = 19.415732 Si / 1000 Ang^3
#
#
#
# Elastic Constant Matrix: (Units=GPa)
#
#
# Indices 1 2 3 4 5 6 
#
# 1 91.6670 13.1399 16.5838 0.0000 0.0000 0.0000
# 2 13.1399 96.8617 26.7189 0.0000 0.0000 0.0000
# 3 16.5838 26.7189 94.3844 0.0000 0.0000 0.0000
# 4 0.0000 0.0000 0.0000 93.9473 0.0000 0.0000
# 5 0.0000 0.0000 0.0000 0.0000 45.3998 0.0000
# 6 0.0000 0.0000 0.0000 0.0000 0.0000 23.3705
#
#
#
# Elastic Compliance Matrix: (Units=1/GPa)
#
#
# Indices 1 2 3 4 5 6 
#
# 1 0.011370 -0.001075 -0.001693 0.000000 0.000000 0.000000
# 2 -0.001075 0.011300 -0.003010 0.000000 0.000000 0.000000
# 3 -0.001693 -0.003010 0.011745 0.000000 0.000000 0.000000
# 4 0.000000 0.000000 0.000000 0.010644 0.000000 0.000000
# 5 0.000000 0.000000 0.000000 0.000000 0.022027 0.000000
# 6 0.000000 0.000000 0.000000 0.000000 0.000000 0.042789
#
#
# Mechanical properties :
#
#
# Convention : Reuss Voigt Hill
#
# Bulk Modulus (GPa) = 43.74993 43.97759 43.86376
# Shear Modulus (GPa) = 38.74463 47.64156 43.19310
#
# Velocity S-wave (km/s) = 4.47198 4.95892 4.72173
# Velocity P-wave (km/s) = 7.01762 7.44899 7.23652
#
# Compressibility (1/GPa) = 0.02285718
#
# Stress axis : x y z
#
# Youngs Moduli (GPa) = 87.95446 88.49437 85.14569
#
# Poissons Ratio (x) = 0.09515 0.14418
# Poissons Ratio (y) = 0.09457 0.25629
# Poissons Ratio (z) = 0.14893 0.26637
#
# Static dielectric constant tensor:
#      x y z
#    x 1.161110 0.000000 0.000000 
#    y 0.000000 1.728930 0.000000 
#    z 0.000000 0.000000 1.769100 
# 
# From -- ./inp_files/36246.got.cif
#   From: 2010.05.17/outbox.cif.g08.bks.cpg/sg21_19_cif.got.tgz:36246.got - 2010.06.03 23:14:55.
