data_PCOD9323612
_publ_section_title
;
Structure prediction by ZEFSAII (Michael W. Deem and Ramdas Pophale) SiO2 
 PCOD9323612
Probable space group: C 2 2 2
;
_chemical_formula_sum "Si O2"
_cell_formula_units_Z 48
_cell_length_a 14.882130
_cell_length_b 17.489309
_cell_length_c 8.729504
_cell_angle_alpha 90.000000
_cell_angle_beta 90.000000
_cell_angle_gamma 90.000000
_cell_volume 2272.099327
_symmetry_space_group_name_H-M "C 2 2 2"
_symmetry_group_IT_number 21
_symmetry_cell_setting 'orthorhombic'
loop_
_space_group_symop_operation_xyz
x,y,z
-x,-y,z
x,-y,-z
-x,y,-z
1/2+x,1/2+y,z
1/2-x,1/2-y,z
1/2+x,1/2-y,-z
1/2-x,1/2+y,-z
loop_
_atom_site_type_symbol
_atom_site_label
_atom_site_fract_x
_atom_site_fract_y
_atom_site_fract_z
Si Si1 0.500000 0.148837 0.500000
Si Si2 0.086414 0.854659 0.099603
Si Si3 0.000000 0.000000 0.738899
Si Si4 0.039288 0.586731 0.844970
Si Si5 0.904445 0.210237 0.426748
Si Si6 0.748786 0.082570 0.919863
Si Si7 0.829843 0.927474 0.411376
O O1 0.517249 0.112458 0.669062
O O2 0.589560 0.201518 0.474046
O O3 0.094803 0.800501 0.245857
O O4 0.181716 0.863309 0.013633
O O5 0.056444 0.938807 0.162598
O O6 0.000000 0.830492 0.000000
O O7 0.070508 0.954217 0.637597
O O8 0.143775 0.594711 0.889259
O O9 0.000000 0.500000 0.845800
O O10 0.000000 0.626002 0.000000
O O11 0.833433 0.150588 0.493646
O O12 0.000000 0.184912 0.500000
O O13 0.784938 0.083762 0.749257
O O14 0.757038 0.000000 0.000000
O O15 0.789089 0.000000 0.500000
#
# Coordination Sequence:
#
# PCOD9323612 Si02
#       7
#     4   8   4   8   8   8   8
#     4  10  25  48  75 100 132 190 246 292 361 418
#     4  12  20  32  61  98 147 185 212 265 347 428
#     4  12  16  24  48  86 140 180 210 248 324 406
#     4  11  25  51  82  98 125 172 251 321 369 402
#     4  10  20  39  61  95 142 190 226 258 342 431
#     4  12  22  39  66 108 135 172 235 300 357 417
#     4  12  20  32  58 100 144 181 220 274 330 418
#
# _framework density 21.125837000000001
#
# number of rings (size 3 to 8) (size 9 to 14) (size 15 to 20)
#    0.500    0.167    8.333    0.750    0.000    2.000 
#    3.000    0.833    0.000    0.000    0.000    0.000 
#    0.000    0.000    0.000    0.000    0.000    0.000 
#
# Total GULP energy -133603.204188 kJ/mol
# GULP energy per Si atom -5566.800174 kJ/mol
# Density = 2.107775 g / cm^3
# Si number density = 21.125837 Si / 1000 Ang^3
#
#
#
# Elastic Constant Matrix: (Units=GPa)
#
#
# Indices 1 2 3 4 5 6 
#
# 1 118.9773 10.7612 53.9289 0.0000 0.0000 0.0000
# 2 10.7612 56.1074 51.2205 0.0000 0.0000 0.0000
# 3 53.9289 51.2205 196.5950 0.0000 0.0000 0.0000
# 4 0.0000 0.0000 0.0000 82.6484 0.0000 0.0000
# 5 0.0000 0.0000 0.0000 0.0000 -70.8175 0.0000
# 6 0.0000 0.0000 0.0000 0.0000 0.0000 -2.6436
#
#
#
# Elastic Compliance Matrix: (Units=1/GPa)
#
#
# Indices 1 2 3 4 5 6 
#
# 1 0.009622 0.000740 -0.002832 0.000000 0.000000 0.000000
# 2 0.000740 0.023442 -0.006311 0.000000 0.000000 0.000000
# 3 -0.002832 -0.006311 0.007508 0.000000 0.000000 0.000000
# 4 0.000000 0.000000 0.000000 0.012099 0.000000 0.000000
# 5 0.000000 0.000000 0.000000 0.000000 -0.014121 0.000000
# 6 0.000000 0.000000 0.000000 0.000000 0.000000 -0.378273
#
#
# Mechanical properties :
#
#
# Convention : Reuss Voigt Hill
#
# Bulk Modulus (GPa) = 42.07683 67.05565 54.56624
# Shear Modulus (GPa) = -15.87325 18.88872 1.50773
#
# Velocity S-wave (km/s) = -2.74408 2.99340 0.84572
# Velocity P-wave (km/s) = 3.14968 6.61493 5.18063
#
# Compressibility (1/GPa) = 0.02376605
#
# Stress axis : x y z
#
# Youngs Moduli (GPa) = 103.93076 42.65869 133.19740
#
# Poissons Ratio (x) = -0.03157 0.37725
# Poissons Ratio (y) = -0.07692 0.84055
# Poissons Ratio (z) = 0.29436 0.26920
#
# Static dielectric constant tensor:
#      x y z
#    x 1.728680 0.000000 0.000000 
#    y 0.000000 1.869470 0.000000 
#    z 0.000000 0.000000 1.803400 
# 
# From -- ./inp_files/15028.got.cif
#   From: 2010.05.17/outbox.cif.g08.bks.cpg/sg21_8_cif.got.tgz:15028.got - 2010.06.03 23:14:55.
