data_PCOD9323100
_publ_section_title
;
Structure prediction by ZEFSAII (Michael W. Deem and Ramdas Pophale) SiO2 
 PCOD9323100
Probable space group: C 2 2 2
;
_chemical_formula_sum "Si O2"
_cell_formula_units_Z 56
_cell_length_a 14.554291
_cell_length_b 12.521137
_cell_length_c 14.380366
_cell_angle_alpha 90.000000
_cell_angle_beta 90.000000
_cell_angle_gamma 90.000000
_cell_volume 2620.624283
_symmetry_space_group_name_H-M "C 2 2 2"
_symmetry_group_IT_number 21
_symmetry_cell_setting 'orthorhombic'
loop_
_space_group_symop_operation_xyz
x,y,z
-x,-y,z
x,-y,-z
-x,y,-z
1/2+x,1/2+y,z
1/2-x,1/2-y,z
1/2+x,1/2-y,-z
1/2-x,1/2+y,-z
loop_
_atom_site_type_symbol
_atom_site_label
_atom_site_fract_x
_atom_site_fract_y
_atom_site_fract_z
Si Si1 0.449025 0.605128 0.857372
Si Si2 0.980561 0.843595 0.349761
Si Si3 0.007106 0.380322 0.704145
Si Si4 0.214173 0.633556 0.248311
Si Si5 0.750761 0.040828 0.900483
Si Si6 0.938491 0.342519 0.913634
Si Si7 0.346225 0.470705 0.599067
O O1 0.500000 0.500000 0.894403
O O2 0.498876 0.630125 0.759249
O O3 0.340361 0.582603 0.846793
O O4 0.450755 0.714986 0.912809
O O5 0.962235 0.717333 0.352644
O O6 0.068283 0.886537 0.406964
O O7 0.894873 0.918943 0.371522
O O8 0.113695 0.352048 0.710338
O O9 0.000000 0.500000 0.666300
O O10 0.969659 0.379952 0.810539
O O11 0.250000 0.750000 0.221775
O O12 0.210702 0.556382 0.159649
O O13 0.277770 0.577604 0.325650
O O14 0.667787 0.122608 0.919977
O O15 0.784888 0.000000 0.000000
O O16 0.000000 0.383013 0.000000
O O17 0.302998 0.500000 0.500000
#
# Coordination Sequence:
#
# PCOD9323100 Si02
#       7
#     8   8   8   8   8   8   8
#     4  11  23  42  66 100 136 177 227 294 347 412
#     4  10  19  41  70 100 131 169 225 281 345 417
#     4  11  23  41  69  96 135 186 221 281 356 413
#     4  12  24  44  70 101 143 183 232 288 352 423
#     4  12  26  42  68  99 143 184 242 286 346 413
#     4  11  26  42  65  95 137 187 241 287 344 411
#     4  11  22  43  76 104 132 176 236 289 345 420
#
# _framework density 21.368953000000001
#
# number of rings (size 3 to 8) (size 9 to 14) (size 15 to 20)
#    0.000    0.857    5.714    2.143    4.000    1.143 
#    0.000    2.143    0.000    0.000    0.000    0.000 
#    0.000    0.000    0.000    0.000    0.000    0.000 
#
# Total GULP energy -156416.775766 kJ/mol
# GULP energy per Si atom -5586.313420 kJ/mol
# Density = 2.132032 g / cm^3
# Si number density = 21.368953 Si / 1000 Ang^3
#
#
#
# Elastic Constant Matrix: (Units=GPa)
#
#
# Indices 1 2 3 4 5 6 
#
# 1 73.9662 6.4323 -4.4788 0.0000 0.0000 0.0000
# 2 6.4323 164.6883 12.3369 0.0000 0.0000 0.0000
# 3 -4.4788 12.3369 60.1505 0.0000 0.0000 0.0000
# 4 0.0000 0.0000 0.0000 8.1413 0.0000 0.0000
# 5 0.0000 0.0000 0.0000 0.0000 24.4070 0.0000
# 6 0.0000 0.0000 0.0000 0.0000 0.0000 28.6182
#
#
#
# Elastic Compliance Matrix: (Units=1/GPa)
#
#
# Indices 1 2 3 4 5 6 
#
# 1 0.013643 -0.000618 0.001143 0.000000 0.000000 0.000000
# 2 -0.000618 0.006195 -0.001317 0.000000 0.000000 0.000000
# 3 0.001143 -0.001317 0.016980 0.000000 0.000000 0.000000
# 4 0.000000 0.000000 0.000000 0.122831 0.000000 0.000000
# 5 0.000000 0.000000 0.000000 0.000000 0.040972 0.000000
# 6 0.000000 0.000000 0.000000 0.000000 0.000000 0.034943
#
#
# Mechanical properties :
#
#
# Convention : Reuss Voigt Hill
#
# Bulk Modulus (GPa) = 28.38262 36.37620 32.37941
# Shear Modulus (GPa) = 20.08900 31.20092 25.64496
#
# Velocity S-wave (km/s) = 3.06944 3.82528 3.46801
# Velocity P-wave (km/s) = 5.08654 6.04733 5.58763
#
# Compressibility (1/GPa) = 0.03523283
#
# Stress axis : x y z
#
# Youngs Moduli (GPa) = 73.29949 161.42411 58.89246
#
# Poissons Ratio (x) = 0.09983 -0.06729
# Poissons Ratio (y) = 0.04533 0.07754
# Poissons Ratio (z) = -0.08376 0.21253
#
# Static dielectric constant tensor:
#      x y z
#    x 1.818420 0.000000 0.000000 
#    y 0.000000 1.565140 0.000000 
#    z 0.000000 0.000000 1.767620 
# 
# From -- ./inp_files/32313.got.cif
#   From: 2010.05.17/outbox.cif.g08.bks.cpg/sg21_17_cif.got.tgz:32313.got - 2010.06.03 23:14:55.
