data_PCOD9323010
_publ_section_title
;
Structure prediction by ZEFSAII (Michael W. Deem and Ramdas Pophale) SiO2 
 PCOD9323010
Probable space group: C 2 2 2
;
_chemical_formula_sum "Si O2"
_cell_formula_units_Z 64
_cell_length_a 17.788168
_cell_length_b 20.514437
_cell_length_c 9.312770
_cell_angle_alpha 90.000000
_cell_angle_beta 90.000000
_cell_angle_gamma 90.000000
_cell_volume 3398.362497
_symmetry_space_group_name_H-M "C 2 2 2"
_symmetry_group_IT_number 21
_symmetry_cell_setting 'orthorhombic'
loop_
_space_group_symop_operation_xyz
x,y,z
-x,-y,z
x,-y,-z
-x,y,-z
1/2+x,1/2+y,z
1/2-x,1/2-y,z
1/2+x,1/2-y,-z
1/2-x,1/2+y,-z
loop_
_atom_site_type_symbol
_atom_site_label
_atom_site_fract_x
_atom_site_fract_y
_atom_site_fract_z
Si Si1 0.576032 0.772036 0.084355
Si Si2 0.589740 0.513348 0.329834
Si Si3 0.697843 0.187283 0.145562
Si Si4 0.427779 0.382931 0.095409
Si Si5 0.919058 0.368458 0.674261
Si Si6 0.800432 0.059513 0.102598
Si Si7 0.098667 0.617148 0.353874
Si Si8 0.090835 0.494528 0.165133
O O1 0.569206 0.694806 0.099823
O O2 0.585624 0.801447 0.242046
O O3 0.500000 0.795864 0.000000
O O4 0.647445 0.796021 0.993164
O O5 0.500000 0.500000 0.312897
O O6 0.605860 0.500000 0.500000
O O7 0.588654 0.584293 0.250503
O O8 0.650225 0.470930 0.235548
O O9 0.750000 0.250000 0.171539
O O10 0.743007 0.118567 0.137851
O O11 0.637416 0.175915 0.270955
O O12 0.500000 0.406067 0.000000
O O13 0.359703 0.404329 0.997290
O O14 0.881969 0.377776 0.520378
O O15 0.887691 0.424254 0.777365
O O16 0.008499 0.379558 0.656349
O O17 0.772041 0.000000 0.000000
O O18 0.119490 0.549937 0.273343
O O19 0.000000 0.500000 0.168644
O O20 0.111737 0.500000 0.000000
#
# Coordination Sequence:
#
# PCOD9323010 Si02
#       8
#     8   8   8   8   8   8   8   8
#     4  11  22  39  65  93 122 167 219 267 305 385
#     4  10  20  38  65 100 129 161 214 274 324 387
#     4  12  24  42  61  91 132 170 210 264 321 381
#     4  10  19  37  63  94 125 164 213 264 319 374
#     4  10  20  37  61  93 119 158 211 261 316 367
#     4  10  22  40  65  92 124 173 209 262 326 382
#     4  10  21  38  57  88 128 163 202 262 318 379
#     4   9  17  30  57  86 116 151 202 260 304 350
#
# _framework density 18.832598999999998
#
# number of rings (size 3 to 8) (size 9 to 14) (size 15 to 20)
#    0.000    1.750    3.750    1.125    1.750    3.000 
#    2.250    5.625    0.000    0.000    0.000    0.000 
#    0.000    0.000    0.000    0.000    0.000    0.000 
#
# Total GULP energy -178156.349710 kJ/mol
# GULP energy per Si atom -5567.385928 kJ/mol
# Density = 1.878973 g / cm^3
# Si number density = 18.832599 Si / 1000 Ang^3
#
#
#
# Elastic Constant Matrix: (Units=GPa)
#
#
# Indices 1 2 3 4 5 6 
#
# 1 50.6269 22.2877 22.5816 0.0000 0.0000 0.0000
# 2 22.2877 100.4574 64.9813 0.0000 0.0000 0.0000
# 3 22.5816 64.9813 155.1921 0.0000 0.0000 0.0000
# 4 0.0000 0.0000 0.0000 6.9228 0.0000 0.0000
# 5 0.0000 0.0000 0.0000 0.0000 9.3457 0.0000
# 6 0.0000 0.0000 0.0000 0.0000 0.0000 9.5092
#
#
#
# Elastic Compliance Matrix: (Units=1/GPa)
#
#
# Indices 1 2 3 4 5 6 
#
# 1 0.022176 -0.003885 -0.001600 0.000000 0.000000 0.000000
# 2 -0.003885 0.014333 -0.005436 0.000000 0.000000 0.000000
# 3 -0.001600 -0.005436 0.008953 0.000000 0.000000 0.000000
# 4 0.000000 0.000000 0.000000 0.144451 0.000000 0.000000
# 5 0.000000 0.000000 0.000000 0.000000 0.107001 0.000000
# 6 0.000000 0.000000 0.000000 0.000000 0.000000 0.105161
#
#
# Mechanical properties :
#
#
# Convention : Reuss Voigt Hill
#
# Bulk Modulus (GPa) = 42.33816 58.44193 50.39004
# Shear Modulus (GPa) = 11.57969 18.25058 14.91514
#
# Velocity S-wave (km/s) = 2.48236 3.11641 2.81728
# Velocity P-wave (km/s) = 5.54493 6.63694 6.11536
#
# Compressibility (1/GPa) = 0.02361936
#
# Stress axis : x y z
#
# Youngs Moduli (GPa) = 45.09299 69.77037 111.69941
#
# Poissons Ratio (x) = 0.27106 0.17873
# Poissons Ratio (y) = 0.17519 0.60720
# Poissons Ratio (z) = 0.07215 0.37927
#
# Static dielectric constant tensor:
#      x y z
#    x 1.747950 0.000000 0.000000 
#    y 0.000000 1.677520 0.000000 
#    z 0.000000 0.000000 1.699840 
# 
# From -- ./inp_files/16861.got.cif
#   From: 2010.05.17/outbox.cif.g08.bks.cpg/sg21_9_cif.got.tgz:16861.got - 2010.06.03 23:14:55.
