data_PCOD9323543
_publ_section_title
;
Structure prediction by ZEFSAII (Michael W. Deem and Ramdas Pophale) SiO2 
 PCOD9323543
Probable space group: C 2 2 2
;
_chemical_formula_sum "Si O2"
_cell_formula_units_Z 64
_cell_length_a 15.232351
_cell_length_b 16.569736
_cell_length_c 10.915951
_cell_angle_alpha 90.000000
_cell_angle_beta 90.000000
_cell_angle_gamma 90.000000
_cell_volume 2755.142748
_symmetry_space_group_name_H-M "C 2 2 2"
_symmetry_group_IT_number 21
_symmetry_cell_setting 'orthorhombic'
loop_
_space_group_symop_operation_xyz
x,y,z
-x,-y,z
x,-y,-z
-x,y,-z
1/2+x,1/2+y,z
1/2-x,1/2-y,z
1/2+x,1/2-y,-z
1/2-x,1/2+y,-z
loop_
_atom_site_type_symbol
_atom_site_label
_atom_site_fract_x
_atom_site_fract_y
_atom_site_fract_z
Si Si1 0.536046 0.323211 0.362344
Si Si2 0.032123 0.346953 0.361881
Si Si3 0.739362 0.845099 0.894594
Si Si4 0.286289 0.579423 0.338740
Si Si5 0.416919 0.835686 0.912467
Si Si6 0.276532 0.168784 0.450277
Si Si7 0.903679 0.144101 0.958788
Si Si8 0.137405 0.908772 0.716580
O O1 0.500000 0.326688 0.500000
O O2 0.530932 0.228601 0.330560
O O3 0.631811 0.359048 0.348698
O O4 0.462498 0.378473 0.297941
O O5 0.058721 0.376195 0.220642
O O6 0.127952 0.317578 0.399847
O O7 0.000000 0.381754 0.500000
O O8 0.750000 0.750000 0.865486
O O9 0.724080 0.899846 0.775977
O O10 0.670648 0.857738 0.007053
O O11 0.839697 0.863039 0.928135
O O12 0.228616 0.594425 0.458550
O O13 0.334197 0.493928 0.336282
O O14 0.407290 0.736670 0.905470
O O15 0.500000 0.850473 0.000000
O O16 0.250000 0.250000 0.518955
O O17 0.205715 0.153383 0.343730
O O18 0.855963 0.088538 0.860833
O O19 0.000000 0.121071 0.000000
#
# Coordination Sequence:
#
# PCOD9323543 Si02
#       8
#     8   8   8   8   8   8   8   8
#     4  11  21  38  60  95 143 182 221 273 344 431
#     4  11  23  39  68 102 131 174 236 295 345 400
#     4  10  23  39  62  93 132 178 229 287 341 410
#     4  12  26  38  63 101 140 183 222 291 360 431
#     4  10  21  38  66  97 134 171 228 294 348 404
#     4  12  22  41  65  93 134 180 235 289 342 413
#     4  10  20  38  62  89 132 180 228 267 330 421
#     4  12  23  40  64  95 142 184 229 275 356 427
#
# _framework density 23.229285999999998
#
# number of rings (size 3 to 8) (size 9 to 14) (size 15 to 20)
#    0.000    1.000    3.750    3.375    5.250    2.000 
#    0.000    0.625    0.000    1.500    0.000    0.875 
#    0.000    0.000    0.000    0.000    0.000    0.000 
#
# Total GULP energy -178295.283127 kJ/mol
# GULP energy per Si atom -5571.727598 kJ/mol
# Density = 2.317642 g / cm^3
# Si number density = 23.229286 Si / 1000 Ang^3
#
#
#
# Elastic Constant Matrix: (Units=GPa)
#
#
# Indices 1 2 3 4 5 6 
#
# 1 100.3078 16.4279 9.0207 0.0000 0.0000 0.0000
# 2 16.4279 23.8004 -2.4928 0.0000 0.0000 0.0000
# 3 9.0207 -2.4928 95.2070 0.0000 0.0000 0.0000
# 4 0.0000 0.0000 0.0000 7.5915 0.0000 0.0000
# 5 0.0000 0.0000 0.0000 0.0000 31.5676 0.0000
# 6 0.0000 0.0000 0.0000 0.0000 0.0000 12.3149
#
#
#
# Elastic Compliance Matrix: (Units=1/GPa)
#
#
# Indices 1 2 3 4 5 6 
#
# 1 0.011396 -0.008001 -0.001289 0.000000 0.000000 0.000000
# 2 -0.008001 0.047749 0.002008 0.000000 0.000000 0.000000
# 3 -0.001289 0.002008 0.010678 0.000000 0.000000 0.000000
# 4 0.000000 0.000000 0.000000 0.131727 0.000000 0.000000
# 5 0.000000 0.000000 0.000000 0.000000 0.031678 0.000000
# 6 0.000000 0.000000 0.000000 0.000000 0.000000 0.081202
#
#
# Mechanical properties :
#
#
# Convention : Reuss Voigt Hill
#
# Bulk Modulus (GPa) = 18.09650 29.46966 23.78308
# Shear Modulus (GPa) = 14.39211 23.38541 18.88876
#
# Velocity S-wave (km/s) = 2.49181 3.17633 2.85466
# Velocity P-wave (km/s) = 4.01075 5.11528 4.59631
#
# Compressibility (1/GPa) = 0.05525929
#
# Stress axis : x y z
#
# Youngs Moduli (GPa) = 87.75351 20.94294 93.64911
#
# Poissons Ratio (x) = 0.16756 0.12073
# Poissons Ratio (y) = 0.70209 -0.18807
# Poissons Ratio (z) = 0.11313 -0.04206
#
# Static dielectric constant tensor:
#      x y z
#    x 1.887670 0.000000 0.000000 
#    y 0.000000 1.964850 0.000000 
#    z 0.000000 0.000000 2.067110 
# 
# From -- ./inp_files/25480.got.cif
#   From: 2010.05.17/outbox.cif.g08.bks.cpg/sg21_13_cif.got.tgz:25480.got - 2010.06.03 23:14:55.
