data_PCOD9323593
_publ_section_title
;
Structure prediction by ZEFSAII (Michael W. Deem and Ramdas Pophale) SiO2 
 PCOD9323593
Probable space group: C 2 2 2
;
_chemical_formula_sum "Si O2"
_cell_formula_units_Z 34
_cell_length_a 8.552874
_cell_length_b 29.960494
_cell_length_c 6.341173
_cell_angle_alpha 90.000000
_cell_angle_beta 90.000000
_cell_angle_gamma 90.000000
_cell_volume 1624.914993
_symmetry_space_group_name_H-M "C 2 2 2"
_symmetry_group_IT_number 21
_symmetry_cell_setting 'orthorhombic'
loop_
_space_group_symop_operation_xyz
x,y,z
-x,-y,z
x,-y,-z
-x,y,-z
1/2+x,1/2+y,z
1/2-x,1/2-y,z
1/2+x,1/2-y,-z
1/2-x,1/2+y,-z
loop_
_atom_site_type_symbol
_atom_site_label
_atom_site_fract_x
_atom_site_fract_y
_atom_site_fract_z
Si Si1 0.000000 0.353493 0.500000
Si Si2 0.200349 0.428400 0.743561
Si Si3 0.168215 0.121186 0.101493
Si Si4 0.500000 0.409448 0.500000
Si Si5 0.500000 0.000000 0.500000
Si Si6 0.349737 0.206121 0.143034
O O1 0.108808 0.385805 0.642346
O O2 0.094161 0.320605 0.348077
O O3 0.375816 0.434318 0.649025
O O4 0.103368 0.469770 0.656425
O O5 0.223202 0.416769 0.992378
O O6 0.241452 0.168408 0.037307
O O7 0.120855 0.116567 0.346038
O O8 0.000000 0.117970 0.000000
O O9 0.250000 0.250000 0.187365
O O10 0.500000 0.216617 0.000000
#
# Coordination Sequence:
#
# PCOD9323593 Si02
#       6
#     4   8   8   4   2   8
#     4  11  22  42  66  92 141 185 220 285 369 403
#     4  10  21  42  68 100 135 183 223 289 353 420
#     4  10  21  40  68  95 132 181 226 281 353 410
#     4  10  20  38  72  97 131 181 227 270 349 425
#     4  10  24  42  70 106 140 180 242 292 342 442
#     4  12  25  41  64  96 134 179 238 292 335 419
#
# _framework density 20.924171999999999
#
# number of rings (size 3 to 8) (size 9 to 14) (size 15 to 20)
#    0.000    1.412    4.706    0.706    0.000    2.353 
#    0.000    2.353    0.000    4.235    0.000    0.000 
#    0.000    0.000    0.000    0.000    0.000    0.000 
#
# Total GULP energy -94723.179709 kJ/mol
# GULP energy per Si atom -5571.951748 kJ/mol
# Density = 2.087655 g / cm^3
# Si number density = 20.924172 Si / 1000 Ang^3
#
#
#
# Elastic Constant Matrix: (Units=GPa)
#
#
# Indices 1 2 3 4 5 6 
#
# 1 120.3740 71.0659 41.9020 0.0000 0.0000 0.0000
# 2 71.0659 135.6434 42.9348 0.0000 0.0000 0.0000
# 3 41.9020 42.9348 81.9069 0.0000 0.0000 0.0000
# 4 0.0000 0.0000 0.0000 24.5732 0.0000 0.0000
# 5 0.0000 0.0000 0.0000 0.0000 32.2568 0.0000
# 6 0.0000 0.0000 0.0000 0.0000 0.0000 37.6480
#
#
#
# Elastic Compliance Matrix: (Units=1/GPa)
#
#
# Indices 1 2 3 4 5 6 
#
# 1 0.012882 -0.005591 -0.003660 0.000000 0.000000 0.000000
# 2 -0.005591 0.011265 -0.003045 0.000000 0.000000 0.000000
# 3 -0.003660 -0.003045 0.015677 0.000000 0.000000 0.000000
# 4 0.000000 0.000000 0.000000 0.040695 0.000000 0.000000
# 5 0.000000 0.000000 0.000000 0.000000 0.031001 0.000000
# 6 0.000000 0.000000 0.000000 0.000000 0.000000 0.026562
#
#
# Mechanical properties :
#
#
# Convention : Reuss Voigt Hill
#
# Bulk Modulus (GPa) = 65.64315 72.19220 68.91767
# Shear Modulus (GPa) = 29.80613 31.03038 30.41825
#
# Velocity S-wave (km/s) = 3.77833 3.85514 3.81693
# Velocity P-wave (km/s) = 7.10453 7.37515 7.24111
#
# Compressibility (1/GPa) = 0.01523388
#
# Stress axis : x y z
#
# Youngs Moduli (GPa) = 77.62795 88.76916 63.78654
#
# Poissons Ratio (x) = 0.49628 0.23343
# Poissons Ratio (y) = 0.43400 0.19423
# Poissons Ratio (z) = 0.28408 0.27030
#
# Static dielectric constant tensor:
#      x y z
#    x 1.738440 0.000000 0.000000 
#    y 0.000000 1.708040 0.000000 
#    z 0.000000 0.000000 1.859470 
# 
# From -- ./inp_files/1643.got.cif
#   From: 2010.05.17/outbox.cif.g08.bks.cpg/sg21_1_cif.got.tgz:1643.got - 2010.06.03 23:14:55.
