data_PCOD9323522
_publ_section_title
;
Structure prediction by ZEFSAII (Michael W. Deem and Ramdas Pophale) SiO2 
 PCOD9323522
Probable space group: C 2 2 2
;
_chemical_formula_sum "Si O2"
_cell_formula_units_Z 64
_cell_length_a 20.729865
_cell_length_b 16.779964
_cell_length_c 9.042196
_cell_angle_alpha 90.000000
_cell_angle_beta 90.000000
_cell_angle_gamma 90.000000
_cell_volume 3145.295222
_symmetry_space_group_name_H-M "C 2 2 2"
_symmetry_group_IT_number 21
_symmetry_cell_setting 'orthorhombic'
loop_
_space_group_symop_operation_xyz
x,y,z
-x,-y,z
x,-y,-z
-x,y,-z
1/2+x,1/2+y,z
1/2-x,1/2-y,z
1/2+x,1/2-y,-z
1/2-x,1/2+y,-z
loop_
_atom_site_type_symbol
_atom_site_label
_atom_site_fract_x
_atom_site_fract_y
_atom_site_fract_z
Si Si1 0.755875 0.976372 0.168900
Si Si2 0.943679 0.798373 0.602475
Si Si3 0.152288 0.394882 0.807031
Si Si4 0.847289 0.062789 0.389763
Si Si5 0.298225 0.184647 0.099898
Si Si6 0.486871 0.162499 0.822229
Si Si7 0.889278 0.321149 0.648898
Si Si8 0.224874 0.338668 0.532400
O O1 0.745872 0.882425 0.177478
O O2 0.688579 0.021080 0.208798
O O3 0.814272 0.013512 0.259411
O O4 0.767572 0.000000 0.000000
O O5 0.894208 0.865660 0.652589
O O6 0.968723 0.747164 0.742767
O O7 0.912372 0.737418 0.481992
O O8 0.000000 0.834859 0.500000
O O9 0.075568 0.391915 0.787999
O O10 0.192146 0.338447 0.694760
O O11 0.164636 0.360506 0.970297
O O12 0.785850 0.103892 0.469341
O O13 0.879373 0.000000 0.500000
O O14 0.250000 0.250000 0.038717
O O15 0.349370 0.219171 0.216867
O O16 0.550468 0.137666 0.729405
O O17 0.500000 0.166595 0.000000
O O18 0.833802 0.370819 0.567195
O O19 0.250000 0.250000 0.493092
#
# Coordination Sequence:
#
# PCOD9323522 Si02
#       8
#     8   8   8   8   8   8   8   8
#     4   9  22  40  58  93 131 160 203 259 306 369
#     4  10  23  40  60  89 123 161 205 264 301 364
#     4  10  20  38  59  87 127 163 201 250 304 368
#     4  11  22  38  63  86 124 164 203 247 325 378
#     4  11  22  36  61  92 124 159 209 259 306 359
#     4  11  21  40  61  90 118 167 211 249 302 369
#     4  11  21  34  59  89 124 150 208 258 294 363
#     4  11  19  34  60  89 119 154 198 251 314 365
#
# _framework density 20.347850999999999
#
# number of rings (size 3 to 8) (size 9 to 14) (size 15 to 20)
#    0.000    1.500    3.750    1.500    1.750    2.250 
#    0.000    0.625    0.000    0.000    3.250    0.000 
#    0.000    0.000    0.000    0.000    0.000    0.000 
#
# Total GULP energy -178421.666268 kJ/mol
# GULP energy per Si atom -5575.677071 kJ/mol
# Density = 2.030154 g / cm^3
# Si number density = 20.347851 Si / 1000 Ang^3
#
#
#
# Elastic Constant Matrix: (Units=GPa)
#
#
# Indices 1 2 3 4 5 6 
#
# 1 73.0210 14.3366 11.5054 0.0000 0.0000 0.0000
# 2 14.3366 52.1259 10.1990 0.0000 0.0000 0.0000
# 3 11.5054 10.1990 75.1048 0.0000 0.0000 0.0000
# 4 0.0000 0.0000 0.0000 18.4639 0.0000 0.0000
# 5 0.0000 0.0000 0.0000 0.0000 31.7152 0.0000
# 6 0.0000 0.0000 0.0000 0.0000 0.0000 17.5537
#
#
#
# Elastic Compliance Matrix: (Units=1/GPa)
#
#
# Indices 1 2 3 4 5 6 
#
# 1 0.014697 -0.003700 -0.001749 0.000000 0.000000 0.000000
# 2 -0.003700 0.020639 -0.002236 0.000000 0.000000 0.000000
# 3 -0.001749 -0.002236 0.013886 0.000000 0.000000 0.000000
# 4 0.000000 0.000000 0.000000 0.054160 0.000000 0.000000
# 5 0.000000 0.000000 0.000000 0.000000 0.031531 0.000000
# 6 0.000000 0.000000 0.000000 0.000000 0.000000 0.056968
#
#
# Mechanical properties :
#
#
# Convention : Reuss Voigt Hill
#
# Bulk Modulus (GPa) = 29.53979 30.25931 29.89955
# Shear Modulus (GPa) = 22.87963 24.49393 23.68678
#
# Velocity S-wave (km/s) = 3.35688 3.47329 3.41558
# Velocity P-wave (km/s) = 5.43818 5.56671 5.50282
#
# Compressibility (1/GPa) = 0.03385265
#
# Stress axis : x y z
#
# Youngs Moduli (GPa) = 68.04251 48.45095 72.01351
#
# Poissons Ratio (x) = 0.17927 0.12595
# Poissons Ratio (y) = 0.25175 0.16102
# Poissons Ratio (z) = 0.11900 0.10833
#
# Static dielectric constant tensor:
#      x y z
#    x 1.760520 0.000000 0.000000 
#    y 0.000000 1.716040 0.000000 
#    z 0.000000 0.000000 1.774090 
# 
# From -- ./inp_files/16838.got.cif
#   From: 2010.05.17/outbox.cif.g08.bks.cpg/sg21_9_cif.got.tgz:16838.got - 2010.06.03 23:14:55.
