data_PCOD9323102
_publ_section_title
;
Structure prediction by ZEFSAII (Michael W. Deem and Ramdas Pophale) SiO2 
 PCOD9323102
Probable space group: C 2 2 2
;
_chemical_formula_sum "Si O2"
_cell_formula_units_Z 44
_cell_length_a 17.958152
_cell_length_b 7.249070
_cell_length_c 14.154126
_cell_angle_alpha 90.000000
_cell_angle_beta 90.000000
_cell_angle_gamma 90.000000
_cell_volume 1842.582720
_symmetry_space_group_name_H-M "C 2 2 2"
_symmetry_group_IT_number 21
_symmetry_cell_setting 'orthorhombic'
loop_
_space_group_symop_operation_xyz
x,y,z
-x,-y,z
x,-y,-z
-x,y,-z
1/2+x,1/2+y,z
1/2-x,1/2-y,z
1/2+x,1/2-y,-z
1/2-x,1/2+y,-z
loop_
_atom_site_type_symbol
_atom_site_label
_atom_site_fract_x
_atom_site_fract_y
_atom_site_fract_z
Si Si1 0.408701 0.380999 0.907505
Si Si2 0.567569 0.225107 0.575225
Si Si3 0.500000 0.500000 0.732540
Si Si4 0.794727 0.553057 0.339353
Si Si5 0.748393 0.041483 0.137897
Si Si6 0.313662 0.500000 0.500000
Si Si7 0.133846 0.500000 0.000000
O O1 0.454500 0.380176 0.809764
O O2 0.335044 0.493549 0.871502
O O3 0.405816 0.170561 0.947922
O O4 0.428967 0.500000 0.000000
O O5 0.500000 0.192113 0.500000
O O6 0.540850 0.359531 0.660301
O O7 0.619844 0.069587 0.624831
O O8 0.631366 0.332197 0.518094
O O9 0.750000 0.750000 0.325388
O O10 0.786109 0.452896 0.240914
O O11 0.741567 0.460210 0.415066
O O12 0.750000 0.250000 0.098982
O O13 0.691276 0.922130 0.078133
#
# Coordination Sequence:
#
# PCOD9323102 Si02
#       7
#     8   8   4   8   8   4   4
#     4  11  24  43  73 106 143 198 248 305 383 453
#     4  11  22  43  73 106 152 203 246 312 388 460
#     4  12  24  44  72 104 146 206 252 292 388 488
#     4  10  23  37  70 107 134 181 249 307 363 445
#     4  10  22  41  70 104 137 185 239 309 378 441
#     4  10  19  42  63 104 138 188 244 304 369 442
#     4  10  24  44  69 107 146 182 250 322 372 436
#
# _framework density 23.879525000000001
#
# number of rings (size 3 to 8) (size 9 to 14) (size 15 to 20)
#    0.000    1.455    2.727    2.455    5.091    2.182 
#    3.273    2.273    0.000    0.000    0.000    0.000 
#    0.000    0.000    0.000    0.000    0.000    0.000 
#
# Total GULP energy -122574.701666 kJ/mol
# GULP energy per Si atom -5571.577348 kJ/mol
# Density = 2.382517 g / cm^3
# Si number density = 23.879525 Si / 1000 Ang^3
#
#
#
# Elastic Constant Matrix: (Units=GPa)
#
#
# Indices 1 2 3 4 5 6 
#
# 1 138.4760 36.1227 84.8515 0.0000 0.0000 0.0000
# 2 36.1227 104.8836 43.8755 0.0000 0.0000 0.0000
# 3 84.8515 43.8755 194.2708 0.0000 0.0000 0.0000
# 4 0.0000 0.0000 0.0000 27.0741 0.0000 0.0000
# 5 0.0000 0.0000 0.0000 0.0000 73.7088 0.0000
# 6 0.0000 0.0000 0.0000 0.0000 0.0000 14.8251
#
#
#
# Elastic Compliance Matrix: (Units=1/GPa)
#
#
# Indices 1 2 3 4 5 6 
#
# 1 0.010164 -0.001815 -0.004029 0.000000 0.000000 0.000000
# 2 -0.001815 0.010853 -0.001658 0.000000 0.000000 0.000000
# 3 -0.004029 -0.001658 0.007282 0.000000 0.000000 0.000000
# 4 0.000000 0.000000 0.000000 0.036936 0.000000 0.000000
# 5 0.000000 0.000000 0.000000 0.000000 0.013567 0.000000
# 6 0.000000 0.000000 0.000000 0.000000 0.000000 0.067453
#
#
# Mechanical properties :
#
#
# Convention : Reuss Voigt Hill
#
# Bulk Modulus (GPa) = 75.22471 85.25888 80.24180
# Shear Modulus (GPa) = 30.17657 41.30697 35.74177
#
# Velocity S-wave (km/s) = 3.55871 4.16361 3.87299
# Velocity P-wave (km/s) = 6.96104 7.67434 7.32637
#
# Compressibility (1/GPa) = 0.01329350
#
# Stress axis : x y z
#
# Youngs Moduli (GPa) = 98.38709 92.13842 137.32620
#
# Poissons Ratio (x) = 0.16723 0.55334
# Poissons Ratio (y) = 0.17857 0.22775
# Poissons Ratio (z) = 0.39644 0.15281
#
# Static dielectric constant tensor:
#      x y z
#    x 2.139450 0.000000 0.000000 
#    y 0.000000 1.942670 0.000000 
#    z 0.000000 0.000000 1.903080 
# 
# From -- ./inp_files/32759.got.cif
#   From: 2010.05.17/outbox.cif.g08.bks.cpg/sg21_17_cif.got.tgz:32759.got - 2010.06.03 23:14:55.
