data_PCOD9323816
_publ_section_title
;
Structure prediction by ZEFSAII (Michael W. Deem and Ramdas Pophale) SiO2 
 PCOD9323816
Probable space group: C 2 2 2
;
_chemical_formula_sum "Si O2"
_cell_formula_units_Z 64
_cell_length_a 12.476073
_cell_length_b 14.446464
_cell_length_c 17.357485
_cell_angle_alpha 90.000000
_cell_angle_beta 90.000000
_cell_angle_gamma 90.000000
_cell_volume 3128.428730
_symmetry_space_group_name_H-M "C 2 2 2"
_symmetry_group_IT_number 21
_symmetry_cell_setting 'orthorhombic'
loop_
_space_group_symop_operation_xyz
x,y,z
-x,-y,z
x,-y,-z
-x,y,-z
1/2+x,1/2+y,z
1/2-x,1/2-y,z
1/2+x,1/2-y,-z
1/2-x,1/2+y,-z
loop_
_atom_site_type_symbol
_atom_site_label
_atom_site_fract_x
_atom_site_fract_y
_atom_site_fract_z
Si Si1 0.128016 0.501817 0.782117
Si Si2 0.993729 0.109919 0.086256
Si Si3 0.782142 0.856261 0.817554
Si Si4 0.791642 0.856590 0.483653
Si Si5 0.396503 0.058506 0.388559
Si Si6 0.333840 0.664746 0.347288
Si Si7 0.424010 0.277011 0.349168
Si Si8 0.194655 0.839597 0.807232
O O1 0.176895 0.416689 0.829622
O O2 0.133791 0.501754 0.688402
O O3 0.210026 0.585315 0.802216
O O4 0.000000 0.500000 0.797519
O O5 0.880633 0.132378 0.125605
O O6 0.092760 0.135411 0.141189
O O7 0.000000 0.000000 0.079896
O O8 0.000000 0.150265 0.000000
O O9 0.750000 0.750000 0.814898
O O10 0.816637 0.889783 0.731783
O O11 0.750000 0.750000 0.490261
O O12 0.699565 0.921012 0.447814
O O13 0.823738 0.884622 0.570049
O O14 0.885428 0.838779 0.421886
O O15 0.418114 0.165791 0.362502
O O16 0.500000 0.000000 0.417396
O O17 0.250000 0.750000 0.347865
O O18 0.452035 0.704325 0.337945
O O19 0.351923 0.310151 0.277110
O O20 0.250000 0.750000 0.842193
#
# Coordination Sequence:
#
# PCOD9323816 Si02
#       8
#     8   8   8   8   8   8   8   8
#     4  11  24  40  66 104 139 173 221 284 334 399
#     4  11  25  46  72 101 135 178 227 279 339 412
#     4  11  25  43  69  98 138 178 225 278 336 407
#     4   9  18  37  56  84 128 170 223 274 329 389
#     4  10  21  34  62  93 140 169 226 284 341 396
#     4  10  22  34  60  86 126 174 226 270 336 388
#     4  11  19  37  63  97 123 180 226 283 332 406
#     4  12  22  40  72 105 133 180 231 276 340 418
#
# _framework density 20.457553999999998
#
# number of rings (size 3 to 8) (size 9 to 14) (size 15 to 20)
#    0.000    1.375    5.000    0.750    8.750    0.500 
#    0.000    1.250    5.500    0.750    3.250    0.000 
#    0.000    0.000    0.000    0.000    0.000    0.000 
#
# Total GULP energy -178450.046625 kJ/mol
# GULP energy per Si atom -5576.563957 kJ/mol
# Density = 2.041099 g / cm^3
# Si number density = 20.457554 Si / 1000 Ang^3
#
#
#
# Elastic Constant Matrix: (Units=GPa)
#
#
# Indices 1 2 3 4 5 6 
#
# 1 174.5426 58.8581 65.2604 0.0000 0.0000 0.0000
# 2 58.8581 94.5869 24.9090 0.0000 0.0000 0.0000
# 3 65.2604 24.9090 108.8112 0.0000 0.0000 0.0000
# 4 0.0000 0.0000 0.0000 19.6630 0.0000 0.0000
# 5 0.0000 0.0000 0.0000 0.0000 44.0905 0.0000
# 6 0.0000 0.0000 0.0000 0.0000 0.0000 33.0170
#
#
#
# Elastic Compliance Matrix: (Units=1/GPa)
#
#
# Indices 1 2 3 4 5 6 
#
# 1 0.008795 -0.004346 -0.004280 0.000000 0.000000 0.000000
# 2 -0.004346 0.013398 -0.000461 0.000000 0.000000 0.000000
# 3 -0.004280 -0.000461 0.011863 0.000000 0.000000 0.000000
# 4 0.000000 0.000000 0.000000 0.050857 0.000000 0.000000
# 5 0.000000 0.000000 0.000000 0.000000 0.022681 0.000000
# 6 0.000000 0.000000 0.000000 0.000000 0.000000 0.030287
#
#
# Mechanical properties :
#
#
# Convention : Reuss Voigt Hill
#
# Bulk Modulus (GPa) = 62.96173 75.11064 69.03618
# Shear Modulus (GPa) = 30.98906 34.61499 32.80202
#
# Velocity S-wave (km/s) = 3.89626 4.11790 4.00862
# Velocity P-wave (km/s) = 7.14736 7.70744 7.43267
#
# Compressibility (1/GPa) = 0.01588267
#
# Stress axis : x y z
#
# Youngs Moduli (GPa) = 113.70143 74.63932 84.29798
#
# Poissons Ratio (x) = 0.32436 0.36080
# Poissons Ratio (y) = 0.49411 0.03883
# Poissons Ratio (z) = 0.48665 0.03438
#
# Static dielectric constant tensor:
#      x y z
#    x 1.813810 0.000000 0.000000 
#    y 0.000000 1.749030 0.000000 
#    z 0.000000 0.000000 1.768800 
# 
# From -- ./inp_files/36244.got.cif
#   From: 2010.05.17/outbox.cif.g08.bks.cpg/sg21_19_cif.got.tgz:36244.got - 2010.06.03 23:14:55.
