data_PCOD9323296
_publ_section_title
;
Structure prediction by ZEFSAII (Michael W. Deem and Ramdas Pophale) SiO2 
 PCOD9323296
Probable space group: C 2 2 2
;
_chemical_formula_sum "Si O2"
_cell_formula_units_Z 48
_cell_length_a 18.266921
_cell_length_b 7.877645
_cell_length_c 17.678919
_cell_angle_alpha 90.000000
_cell_angle_beta 90.000000
_cell_angle_gamma 90.000000
_cell_volume 2544.002082
_symmetry_space_group_name_H-M "C 2 2 2"
_symmetry_group_IT_number 21
_symmetry_cell_setting 'orthorhombic'
loop_
_space_group_symop_operation_xyz
x,y,z
-x,-y,z
x,-y,-z
-x,y,-z
1/2+x,1/2+y,z
1/2-x,1/2-y,z
1/2+x,1/2-y,-z
1/2-x,1/2+y,-z
loop_
_atom_site_type_symbol
_atom_site_label
_atom_site_fract_x
_atom_site_fract_y
_atom_site_fract_z
Si Si1 0.584304 0.792719 0.500000
Si Si2 0.912507 0.808595 0.193453
Si Si3 0.087493 0.191405 0.806547
Si Si4 0.335041 0.203651 0.347015
Si Si5 0.089136 0.500000 0.086434
Si Si6 0.664959 0.796349 0.652985
O O1 0.500000 0.738365 0.500000
O O2 0.625380 0.737761 0.423914
O O3 0.625380 0.737761 0.576086
O O4 0.585103 0.000000 0.500000
O O5 0.872515 0.780670 0.272919
O O6 0.888723 0.666426 0.133503
O O7 1.000000 0.788429 0.205459
O O8 0.899332 0.000000 0.166028
O O9 0.111277 0.333574 0.866497
O O10 0.127485 0.219330 0.727081
O O11 0.250000 0.250000 0.349876
O O12 0.342826 1.000000 0.342093
O O13 0.000000 0.500000 0.084267
O O14 0.114988 0.500000 0.000000
O O15 0.750000 0.750000 0.650124
#
# Coordination Sequence:
#
# PCOD9323296 Si02
#       6
#     8   8   8   8   8   8
#     4   9  19  34  55  81 112 152 196 240 288 336
#     4  10  20  35  57  86 116 149 193 238 285 343
#     4  10  20  35  57  86 116 149 193 238 285 343
#     4  11  21  35  55  81 114 155 195 240 285 341
#     4   9  18  34  58  87 117 149 185 233 291 343
#     4  11  21  35  55  81 114 155 195 240 285 341
#
# _framework density 18.867910999999999
#
# number of rings (size 3 to 8) (size 9 to 14) (size 15 to 20)
#    0.000    2.000    1.667    2.500    0.000    2.000 
#    0.000    5.833    0.000    7.000    0.000    0.000 
#    0.000    0.000    0.000    0.000    0.000    0.000 
#
# Total GULP energy -134054.436290 kJ/mol
# GULP energy per Si atom -5585.601512 kJ/mol
# Density = 1.882497 g / cm^3
# Si number density = 18.867911 Si / 1000 Ang^3
#
#
#
# Elastic Constant Matrix: (Units=GPa)
#
#
# Indices 1 2 3 4 5 6 
#
# 1 70.6291 45.9711 64.9081 0.0000 0.0000 0.0000
# 2 45.9711 110.0624 73.8799 0.0000 0.0000 0.0000
# 3 64.9081 73.8799 187.5245 0.0000 0.0000 0.0000
# 4 0.0000 0.0000 0.0000 0.4434 0.0000 0.0000
# 5 0.0000 0.0000 0.0000 0.0000 -16.7670 0.0000
# 6 0.0000 0.0000 0.0000 0.0000 0.0000 21.3478
#
#
#
# Elastic Compliance Matrix: (Units=1/GPa)
#
#
# Indices 1 2 3 4 5 6 
#
# 1 0.023244 -0.005857 -0.005738 0.000000 0.000000 0.000000
# 2 -0.005857 0.013828 -0.003421 0.000000 0.000000 0.000000
# 3 -0.005738 -0.003421 0.008666 0.000000 0.000000 0.000000
# 4 0.000000 0.000000 0.000000 2.255523 0.000000 0.000000
# 5 0.000000 0.000000 0.000000 0.000000 -0.059641 0.000000
# 6 0.000000 0.000000 0.000000 0.000000 0.000000 0.046843
#
#
# Mechanical properties :
#
#
# Convention : Reuss Voigt Hill
#
# Bulk Modulus (GPa) = 63.66462 81.97046 72.81754
# Shear Modulus (GPa) = 2.15171 13.23530 7.69351
#
# Velocity S-wave (km/s) = 1.06906 2.65140 2.02149
# Velocity P-wave (km/s) = 5.94469 7.27406 6.64271
#
# Compressibility (1/GPa) = 0.01570731
#
# Stress axis : x y z
#
# Youngs Moduli (GPa) = 43.02236 72.31574 115.38836
#
# Poissons Ratio (x) = 0.42354 0.66209
# Poissons Ratio (y) = 0.25198 0.39471
# Poissons Ratio (z) = 0.24686 0.24737
#
# Static dielectric constant tensor:
#      x y z
#    x 1.615170 0.000000 0.000000 
#    y 0.000000 1.679720 0.000000 
#    z 0.000000 0.000000 1.613620 
# 
# From -- ./inp_files/32827.got.cif
#   From: 2010.05.17/outbox.cif.g08.bks.cpg/sg21_17_cif.got.tgz:32827.got - 2010.06.03 23:14:55.
