data_PCOD9323477
_publ_section_title
;
Structure prediction by ZEFSAII (Michael W. Deem and Ramdas Pophale) SiO2 
 PCOD9323477
Probable space group: C 2 2 2
;
_chemical_formula_sum "Si O2"
_cell_formula_units_Z 42
_cell_length_a 26.140513
_cell_length_b 7.353324
_cell_length_c 9.406994
_cell_angle_alpha 90.000000
_cell_angle_beta 90.000000
_cell_angle_gamma 90.000000
_cell_volume 1808.209203
_symmetry_space_group_name_H-M "C 2 2 2"
_symmetry_group_IT_number 21
_symmetry_cell_setting 'orthorhombic'
loop_
_space_group_symop_operation_xyz
x,y,z
-x,-y,z
x,-y,-z
-x,y,-z
1/2+x,1/2+y,z
1/2-x,1/2-y,z
1/2+x,1/2-y,-z
1/2-x,1/2+y,-z
loop_
_atom_site_type_symbol
_atom_site_label
_atom_site_fract_x
_atom_site_fract_y
_atom_site_fract_z
Si Si1 0.295460 0.522036 0.831532
Si Si2 0.581834 0.278769 0.518082
Si Si3 0.500000 0.000000 0.000000
Si Si4 0.320997 0.931715 0.837231
Si Si5 0.808395 0.191546 0.424208
Si Si6 0.430216 0.025507 0.733871
O O1 0.323349 0.714131 0.814870
O O2 0.236156 0.527012 0.781560
O O3 0.318766 0.359197 0.741158
O O4 0.294419 0.500000 0.000000
O O5 0.576898 0.500000 0.500000
O O6 0.642095 0.221143 0.497679
O O7 0.557003 0.176058 0.383960
O O8 0.561734 0.174838 0.659544
O O9 0.459817 0.928139 0.120051
O O10 0.370277 0.018698 0.768934
O O11 0.320310 0.000000 0.000000
O O12 0.750000 0.250000 0.444734
O O13 0.808689 0.000000 0.500000
#
# Coordination Sequence:
#
# PCOD9323477 Si02
#       6
#     8   8   2   8   8   8
#     4  10  23  34  57  93 136 181 238 268 333 425
#     4  10  24  45  71 102 139 190 228 285 362 426
#     4  12  28  50  78 116 124 184 248 308 362 440
#     4  10  20  37  61  90 132 184 218 285 348 400
#     4  11  24  36  58  96 140 185 237 278 333 421
#     4  11  24  47  73  98 142 175 237 300 363 413
#
# _framework density 23.227401
#
# number of rings (size 3 to 8) (size 9 to 14) (size 15 to 20)
#    0.000    1.524    0.952    3.429   16.000    1.524 
#    0.000    3.810    0.000    0.000    0.000    0.000 
#    0.000    0.000    0.000    0.000    0.000    0.000 
#
# Total GULP energy -117016.236841 kJ/mol
# GULP energy per Si atom -5572.201754 kJ/mol
# Density = 2.317453 g / cm^3
# Si number density = 23.227401 Si / 1000 Ang^3
#
#
#
# Elastic Constant Matrix: (Units=GPa)
#
#
# Indices 1 2 3 4 5 6 
#
# 1 97.7620 39.3897 33.0760 0.0000 0.0000 0.0000
# 2 39.3897 111.7233 18.7478 0.0000 0.0000 0.0000
# 3 33.0760 18.7478 119.8575 0.0000 0.0000 0.0000
# 4 0.0000 0.0000 0.0000 35.7073 0.0000 0.0000
# 5 0.0000 0.0000 0.0000 0.0000 25.0770 0.0000
# 6 0.0000 0.0000 0.0000 0.0000 0.0000 -20.6679
#
#
#
# Elastic Compliance Matrix: (Units=1/GPa)
#
#
# Indices 1 2 3 4 5 6 
#
# 1 0.012841 -0.004039 -0.002912 0.000000 0.000000 0.000000
# 2 -0.004039 0.010462 -0.000522 0.000000 0.000000 0.000000
# 3 -0.002912 -0.000522 0.009228 0.000000 0.000000 0.000000
# 4 0.000000 0.000000 0.000000 0.028005 0.000000 0.000000
# 5 0.000000 0.000000 0.000000 0.000000 0.039877 0.000000
# 6 0.000000 0.000000 0.000000 0.000000 0.000000 -0.048384
#
#
# Mechanical properties :
#
#
# Convention : Reuss Voigt Hill
#
# Bulk Modulus (GPa) = 56.86120 56.86333 56.86227
# Shear Modulus (GPa) = 68.64524 23.89855 46.27190
#
# Velocity S-wave (km/s) = 5.44222 3.21112 4.46817
# Velocity P-wave (km/s) = 8.00148 6.18730 7.15214
#
# Compressibility (1/GPa) = 0.01758669
#
# Stress axis : x y z
#
# Youngs Moduli (GPa) = 77.87298 95.58220 108.36024
#
# Poissons Ratio (x) = 0.38604 0.31554
# Poissons Ratio (y) = 0.31451 0.05656
# Poissons Ratio (z) = 0.22677 0.04989
#
# Static dielectric constant tensor:
#      x y z
#    x 1.952910 0.000000 0.000000 
#    y 0.000000 1.913030 0.000000 
#    z 0.000000 0.000000 1.802730 
# 
# From -- ./inp_files/18989.got.cif
#   From: 2010.05.17/outbox.cif.g08.bks.cpg/sg21_10_cif.got.tgz:18989.got - 2010.06.03 23:14:55.
