data_PCOD9323640
_publ_section_title
;
Structure prediction by ZEFSAII (Michael W. Deem and Ramdas Pophale) SiO2 
 PCOD9323640
Probable space group: C 2 2 2
;
_chemical_formula_sum "Si O2"
_cell_formula_units_Z 58
_cell_length_a 8.887097
_cell_length_b 18.912956
_cell_length_c 16.611955
_cell_angle_alpha 90.000000
_cell_angle_beta 90.000000
_cell_angle_gamma 90.000000
_cell_volume 2792.158569
_symmetry_space_group_name_H-M "C 2 2 2"
_symmetry_group_IT_number 21
_symmetry_cell_setting 'orthorhombic'
loop_
_space_group_symop_operation_xyz
x,y,z
-x,-y,z
x,-y,-z
-x,y,-z
1/2+x,1/2+y,z
1/2-x,1/2-y,z
1/2+x,1/2-y,-z
1/2-x,1/2+y,-z
loop_
_atom_site_type_symbol
_atom_site_label
_atom_site_fract_x
_atom_site_fract_y
_atom_site_fract_z
Si Si1 0.067539 0.259433 0.578113
Si Si2 0.000000 0.000000 0.500000
Si Si3 0.070625 0.235284 0.083810
Si Si4 0.953428 0.926689 0.120895
Si Si5 0.065035 0.886302 0.618700
Si Si6 0.207294 0.431012 0.245736
Si Si7 0.193263 0.083915 0.736927
Si Si8 0.952373 0.682166 0.759029
O O1 0.250000 0.250000 0.570566
O O2 0.037743 0.288067 0.668356
O O3 0.000000 0.300322 0.500000
O O4 0.962209 0.189288 0.580170
O O5 0.902645 0.052697 0.554660
O O6 0.250000 0.250000 0.085282
O O7 0.038306 0.151099 0.084073
O O8 0.000801 0.268227 0.166373
O O9 0.000000 0.264297 0.000000
O O10 0.787803 0.930793 0.158999
O O11 0.068098 0.928065 0.195856
O O12 0.000000 0.000000 0.079056
O O13 0.186085 0.890334 0.689916
O O14 0.901334 0.904276 0.656406
O O15 0.207742 0.513117 0.270826
O O16 0.057359 0.386919 0.238403
O O17 0.284019 0.152534 0.763820
#
# Coordination Sequence:
#
# PCOD9323640 Si02
#       8
#     8   2   8   8   8   8   8   8
#     4  12  28  42  63  96 134 178 228 281 341 409
#     4  12  20  36  64  86 128 168 228 290 324 396
#     4  12  28  46  72 106 141 179 229 284 350 416
#     4   9  20  41  71  98 130 176 230 270 329 412
#     4  11  21  38  63  90 123 177 230 275 333 404
#     4  10  20  39  66  97 129 174 226 278 334 409
#     4  10  20  39  66  97 129 173 229 276 335 403
#     4  12  25  42  69  97 139 179 221 284 355 405
#
# _framework density 20.772459999999999
#
# number of rings (size 3 to 8) (size 9 to 14) (size 15 to 20)
#    0.000    1.103    4.828    2.897    3.862    0.276 
#    0.000    0.000    0.000    3.310    0.000    0.000 
#    0.000    0.000    0.000    0.000    0.000    0.000 
#
# Total GULP energy -161686.955053 kJ/mol
# GULP energy per Si atom -5575.412243 kJ/mol
# Density = 2.072518 g / cm^3
# Si number density = 20.772460 Si / 1000 Ang^3
#
#
#
# Elastic Constant Matrix: (Units=GPa)
#
#
# Indices 1 2 3 4 5 6 
#
# 1 73.3095 25.2206 41.3466 0.0000 0.0000 0.0000
# 2 25.2206 71.6954 17.3839 0.0000 0.0000 0.0000
# 3 41.3466 17.3839 123.8183 0.0000 0.0000 0.0000
# 4 0.0000 0.0000 0.0000 -4.3863 0.0000 0.0000
# 5 0.0000 0.0000 0.0000 0.0000 20.6543 0.0000
# 6 0.0000 0.0000 0.0000 0.0000 0.0000 30.4049
#
#
#
# Elastic Compliance Matrix: (Units=1/GPa)
#
#
# Indices 1 2 3 4 5 6 
#
# 1 0.018498 -0.005186 -0.005449 0.000000 0.000000 0.000000
# 2 -0.005186 0.015893 -0.000500 0.000000 0.000000 0.000000
# 3 -0.005449 -0.000500 0.009966 0.000000 0.000000 0.000000
# 4 0.000000 0.000000 0.000000 -0.227982 0.000000 0.000000
# 5 0.000000 0.000000 0.000000 0.000000 0.048416 0.000000
# 6 0.000000 0.000000 0.000000 0.000000 0.000000 0.032889
#
#
# Mechanical properties :
#
#
# Convention : Reuss Voigt Hill
#
# Bulk Modulus (GPa) = 45.27270 48.52505 46.89888
# Shear Modulus (GPa) = -68.78780 21.65937 -23.56421
#
# Velocity S-wave (km/s) = -5.76080 3.23258 -3.37173
# Velocity P-wave (km/s) = 4.73362 6.11096 2.73282
#
# Compressibility (1/GPa) = 0.02208836
#
# Stress axis : x y z
#
# Youngs Moduli (GPa) = 54.05939 62.91940 100.34038
#
# Poissons Ratio (x) = 0.32630 0.54675
# Poissons Ratio (y) = 0.28035 0.05013
# Poissons Ratio (z) = 0.29457 0.03144
#
# Static dielectric constant tensor:
#      x y z
#    x 1.745570 0.000000 0.000000 
#    y 0.000000 1.779890 0.000000 
#    z 0.000000 0.000000 1.807030 
# 
# From -- ./inp_files/35838.got.cif
#   From: 2010.05.17/outbox.cif.g08.bks.cpg/sg21_18_cif.got.tgz:35838.got - 2010.06.03 23:14:55.
