data_PCOD9323939
_publ_section_title
;
Structure prediction by ZEFSAII (Michael W. Deem and Ramdas Pophale) SiO2 
 PCOD9323939
Probable space group: C 2 2 2
;
_chemical_formula_sum "Si O2"
_cell_formula_units_Z 64
_cell_length_a 15.662801
_cell_length_b 9.076023
_cell_length_c 21.186030
_cell_angle_alpha 90.000000
_cell_angle_beta 90.000000
_cell_angle_gamma 90.000000
_cell_volume 3011.720054
_symmetry_space_group_name_H-M "C 2 2 2"
_symmetry_group_IT_number 21
_symmetry_cell_setting 'orthorhombic'
loop_
_space_group_symop_operation_xyz
x,y,z
-x,-y,z
x,-y,-z
-x,y,-z
1/2+x,1/2+y,z
1/2-x,1/2-y,z
1/2+x,1/2-y,-z
1/2-x,1/2+y,-z
loop_
_atom_site_type_symbol
_atom_site_label
_atom_site_fract_x
_atom_site_fract_y
_atom_site_fract_z
Si Si1 0.510238 0.157872 0.394566
Si Si2 0.493783 0.176100 0.074052
Si Si3 0.425762 0.107072 0.744805
Si Si4 0.071493 0.119325 0.825482
Si Si5 0.664943 0.332505 0.588795
Si Si6 0.166871 0.159259 0.563856
Si Si7 0.186990 0.620107 0.944352
Si Si8 0.258645 0.924357 0.173373
O O1 0.560034 0.114276 0.329762
O O2 0.419401 0.242127 0.390519
O O3 0.576641 0.262610 0.428091
O O4 0.500000 0.000000 0.427490
O O5 0.561104 0.269737 0.114117
O O6 0.394231 0.204888 0.085675
O O7 0.500000 0.000000 0.084003
O O8 0.500000 0.208051 0.000000
O O9 0.445431 0.270441 0.768460
O O10 0.333547 0.063541 0.774031
O O11 0.500000 0.000000 0.770102
O O12 0.160906 0.041497 0.810359
O O13 0.000000 0.000000 0.834700
O O14 0.750000 0.250000 0.612406
O O15 0.663382 0.506561 0.602709
O O16 0.673520 0.344664 0.512399
O O17 0.250000 0.250000 0.585948
O O18 0.250000 0.750000 0.966785
O O19 0.220972 0.520611 0.887475
O O20 0.166376 0.500000 0.000000
O O21 0.250000 0.750000 0.158374
#
# Coordination Sequence:
#
# PCOD9323939 Si02
#       8
#     8   8   8   8   8   8   8   8
#     4  11  23  39  61  95 127 175 232 281 333 394
#     4  11  22  39  60  83 118 165 198 231 302 385
#     4  10  23  43  66  84 121 168 216 261 317 388
#     4  11  23  40  62  92 120 153 204 260 322 367
#     4  10  21  39  62  96 139 181 222 277 337 403
#     4  10  21  37  63  95 137 184 224 273 340 399
#     4  12  24  37  60  92 124 155 198 247 306 378
#     4  10  22  41  65  85 119 161 199 257 308 373
#
# _framework density 21.250315000000001
#
# number of rings (size 3 to 8) (size 9 to 14) (size 15 to 20)
#    0.000    1.375    1.250    5.250    1.750    5.750 
#    0.000    2.500    0.000    0.000    0.000    0.000 
#    0.000    0.000    0.000    0.000    0.000    0.000 
#
# Total GULP energy -178376.832107 kJ/mol
# GULP energy per Si atom -5574.276003 kJ/mol
# Density = 2.120195 g / cm^3
# Si number density = 21.250315 Si / 1000 Ang^3
#
#
#
# Elastic Constant Matrix: (Units=GPa)
#
#
# Indices 1 2 3 4 5 6 
#
# 1 158.3122 63.2647 3.3648 0.0000 0.0000 0.0000
# 2 63.2647 80.6495 5.2037 0.0000 0.0000 0.0000
# 3 3.3648 5.2037 44.2799 0.0000 0.0000 0.0000
# 4 0.0000 0.0000 0.0000 52.1239 0.0000 0.0000
# 5 0.0000 0.0000 0.0000 0.0000 -178.7347 0.0000
# 6 0.0000 0.0000 0.0000 0.0000 0.0000 33.4928
#
#
#
# Elastic Compliance Matrix: (Units=1/GPa)
#
#
# Indices 1 2 3 4 5 6 
#
# 1 0.009202 -0.007228 0.000150 0.000000 0.000000 0.000000
# 2 -0.007228 0.018172 -0.001586 0.000000 0.000000 0.000000
# 3 0.000150 -0.001586 0.022759 0.000000 0.000000 0.000000
# 4 0.000000 0.000000 0.000000 0.019185 0.000000 0.000000
# 5 0.000000 0.000000 0.000000 0.000000 -0.005595 0.000000
# 6 0.000000 0.000000 0.000000 0.000000 0.000000 0.029857
#
#
# Mechanical properties :
#
#
# Convention : Reuss Voigt Hill
#
# Bulk Modulus (GPa) = 30.48412 47.43422 38.95917
# Shear Modulus (GPa) = 41.03663 -4.52971 18.25346
#
# Velocity S-wave (km/s) = 4.39920 -1.46158 2.93400
# Velocity P-wave (km/s) = 6.33880 4.41835 5.46362
#
# Compressibility (1/GPa) = 0.03280396
#
# Stress axis : x y z
#
# Youngs Moduli (GPa) = 108.67310 55.03080 43.93940
#
# Poissons Ratio (x) = 0.39776 -0.00660
# Poissons Ratio (y) = 0.78549 0.06970
# Poissons Ratio (z) = -0.01632 0.08729
#
# Static dielectric constant tensor:
#      x y z
#    x 1.849540 0.000000 0.000000 
#    y 0.000000 1.976620 0.000000 
#    z 0.000000 0.000000 1.898710 
# 
# From -- ./inp_files/38746.got.cif
#   From: 2010.05.17/outbox.cif.g08.bks.cpg/sg21_20_cif.got.tgz:38746.got - 2010.06.03 23:14:55.
