data_PCOD9323704
_publ_section_title
;
Structure prediction by ZEFSAII (Michael W. Deem and Ramdas Pophale) SiO2 
 PCOD9323704
Probable space group: C 2 2 2
;
_chemical_formula_sum "Si O2"
_cell_formula_units_Z 22
_cell_length_a 14.327342
_cell_length_b 6.909018
_cell_length_c 9.751390
_cell_angle_alpha 90.000000
_cell_angle_beta 90.000000
_cell_angle_gamma 90.000000
_cell_volume 965.269265
_symmetry_space_group_name_H-M "C 2 2 2"
_symmetry_group_IT_number 21
_symmetry_cell_setting 'orthorhombic'
loop_
_space_group_symop_operation_xyz
x,y,z
-x,-y,z
x,-y,-z
-x,y,-z
1/2+x,1/2+y,z
1/2-x,1/2-y,z
1/2+x,1/2-y,-z
1/2-x,1/2+y,-z
loop_
_atom_site_type_symbol
_atom_site_label
_atom_site_fract_x
_atom_site_fract_y
_atom_site_fract_z
Si Si1 0.606650 0.767287 0.476280
Si Si2 0.000000 0.500000 0.000000
Si Si3 0.834835 0.362559 0.820558
Si Si4 0.250000 0.250000 0.699474
O O1 0.500000 0.712134 0.500000
O O2 0.642197 0.751242 0.321222
O O3 0.671080 0.675482 0.593150
O O4 0.611759 0.000000 0.500000
O O5 0.070289 0.378070 0.094511
O O6 0.750000 0.250000 0.891381
O O7 0.797177 0.577782 0.784909
#
# Coordination Sequence:
#
# PCOD9323704 Si02
#       4
#     8   2   8   4
#     4   9  17  35  65  99 132 164 212 285 353 395
#     4  12  28  48  68  98 144 198 236 266 330 426
#     4  11  24  44  69  98 137 186 229 282 340 406
#     4  10  20  40  72 104 132 168 230 294 350 406
#
# _framework density 22.791567000000001
#
# number of rings (size 3 to 8) (size 9 to 14) (size 15 to 20)
#    0.000    1.818    1.818    4.364    2.545    0.000 
#    0.000   10.909    0.000    0.000    0.000    0.000 
#    0.000    0.000    0.000    0.000    0.000    0.000 
#
# Total GULP energy -61522.268669 kJ/mol
# GULP energy per Si atom -5592.933515 kJ/mol
# Density = 2.273969 g / cm^3
# Si number density = 22.791567 Si / 1000 Ang^3
#
#
#
# Elastic Constant Matrix: (Units=GPa)
#
#
# Indices 1 2 3 4 5 6 
#
# 1 217.3528 33.7356 67.4240 0.0000 0.0000 0.0000
# 2 33.7356 103.7031 41.3958 0.0000 0.0000 0.0000
# 3 67.4240 41.3958 94.4335 0.0000 0.0000 0.0000
# 4 0.0000 0.0000 0.0000 8.6407 0.0000 0.0000
# 5 0.0000 0.0000 0.0000 0.0000 60.6422 0.0000
# 6 0.0000 0.0000 0.0000 0.0000 0.0000 34.4195
#
#
#
# Elastic Compliance Matrix: (Units=1/GPa)
#
#
# Indices 1 2 3 4 5 6 
#
# 1 0.005917 -0.000289 -0.004098 0.000000 0.000000 0.000000
# 2 -0.000289 0.011702 -0.004923 0.000000 0.000000 0.000000
# 3 -0.004098 -0.004923 0.015673 0.000000 0.000000 0.000000
# 4 0.000000 0.000000 0.000000 0.115731 0.000000 0.000000
# 5 0.000000 0.000000 0.000000 0.000000 0.016490 0.000000
# 6 0.000000 0.000000 0.000000 0.000000 0.000000 0.029053
#
#
# Mechanical properties :
#
#
# Convention : Reuss Voigt Hill
#
# Bulk Modulus (GPa) = 68.15709 77.84445 73.00077
# Shear Modulus (GPa) = 22.92751 38.93606 30.93179
#
# Velocity S-wave (km/s) = 3.17514 4.13771 3.68796
# Velocity P-wave (km/s) = 6.58873 7.55358 7.08759
#
# Compressibility (1/GPa) = 0.01467199
#
# Stress axis : x y z
#
# Youngs Moduli (GPa) = 169.00902 85.45356 63.80204
#
# Poissons Ratio (x) = 0.02470 0.26145
# Poissons Ratio (y) = 0.04885 0.31412
# Poissons Ratio (z) = 0.69257 0.42072
#
# Static dielectric constant tensor:
#      x y z
#    x 1.863180 0.000000 0.000000 
#    y 0.000000 1.914800 0.000000 
#    z 0.000000 0.000000 1.877430 
# 
# From -- ./inp_files/9674.got.cif
#   From: 2010.05.17/outbox.cif.g08.bks.cpg/sg21_5_cif.got.tgz:9674.got - 2010.06.03 23:14:55.
