data_PCOD9323389
_publ_section_title
;
Structure prediction by ZEFSAII (Michael W. Deem and Ramdas Pophale) SiO2 
 PCOD9323389
Probable space group: C 2 2 2
;
_chemical_formula_sum "Si O2"
_cell_formula_units_Z 46
_cell_length_a 24.616164
_cell_length_b 15.189235
_cell_length_c 5.950364
_cell_angle_alpha 90.000000
_cell_angle_beta 90.000000
_cell_angle_gamma 90.000000
_cell_volume 2224.845264
_symmetry_space_group_name_H-M "C 2 2 2"
_symmetry_group_IT_number 21
_symmetry_cell_setting 'orthorhombic'
loop_
_space_group_symop_operation_xyz
x,y,z
-x,-y,z
x,-y,-z
-x,y,-z
1/2+x,1/2+y,z
1/2-x,1/2-y,z
1/2+x,1/2-y,-z
1/2-x,1/2+y,-z
loop_
_atom_site_type_symbol
_atom_site_label
_atom_site_fract_x
_atom_site_fract_y
_atom_site_fract_z
Si Si1 0.000000 0.701849 0.000000
Si Si2 0.165539 0.500000 0.500000
Si Si3 0.250000 0.250000 0.819098
Si Si4 0.000000 0.000000 0.000000
Si Si5 0.098919 0.632396 0.195771
Si Si6 0.650357 0.714386 0.532606
Si Si7 0.952851 0.852554 0.310977
Si Si8 0.182544 0.641053 0.829905
O O1 0.964565 0.639951 0.840072
O O2 0.037429 0.766613 0.847706
O O3 0.126112 0.565708 0.367307
O O4 0.199456 0.558899 0.675513
O O5 0.293853 0.302167 0.666749
O O6 0.221877 0.322708 0.977453
O O7 0.036302 0.062986 0.156209
O O8 0.116062 0.728156 0.289031
O O9 0.127485 0.614711 0.957875
O O10 0.606550 0.648303 0.425838
O O11 0.669656 0.777667 0.331703
O O12 0.000000 0.850338 0.500000
#
# Coordination Sequence:
#
# PCOD9323389 Si02
#       8
#     4   4   4   2   8   8   8   8
#     4  11  20  35  65  95 128 168 220 253 316 384
#     4  10  22  38  61  90 134 180 202 269 332 376
#     4  10  22  36  66 106 118 166 232 284 310 380
#     4  10  26  36  64 108 128 174 206 262 360 380
#     4  10  20  36  60  94 127 168 212 264 311 385
#     4  10  20  37  66  99 124 163 221 270 322 378
#     4  11  21  40  65 102 128 170 209 274 324 401
#     4  10  20  39  60  97 123 168 219 267 319 380
#
# _framework density 20.675594
#
# number of rings (size 3 to 8) (size 9 to 14) (size 15 to 20)
#    0.000    1.739    3.478    1.304    0.000    0.000 
#    0.000    2.609    3.826    0.000  203.478    0.000 
#    0.000    0.000    0.000    0.000    0.000    0.000 
#
# Total GULP energy -128326.868554 kJ/mol
# GULP energy per Si atom -5579.429068 kJ/mol
# Density = 2.062854 g / cm^3
# Si number density = 20.675594 Si / 1000 Ang^3
#
#
#
# Elastic Constant Matrix: (Units=GPa)
#
#
# Indices 1 2 3 4 5 6 
#
# 1 109.4708 34.9116 45.2972 0.0000 0.0000 0.0000
# 2 34.9116 69.5126 35.8490 0.0000 0.0000 0.0000
# 3 45.2972 35.8490 108.5351 0.0000 0.0000 0.0000
# 4 0.0000 0.0000 0.0000 35.3775 0.0000 0.0000
# 5 0.0000 0.0000 0.0000 0.0000 24.4779 0.0000
# 6 0.0000 0.0000 0.0000 0.0000 0.0000 10.8744
#
#
#
# Elastic Compliance Matrix: (Units=1/GPa)
#
#
# Indices 1 2 3 4 5 6 
#
# 1 0.011952 -0.004135 -0.003623 0.000000 0.000000 0.000000
# 2 -0.004135 0.018770 -0.004474 0.000000 0.000000 0.000000
# 3 -0.003623 -0.004474 0.012203 0.000000 0.000000 0.000000
# 4 0.000000 0.000000 0.000000 0.028267 0.000000 0.000000
# 5 0.000000 0.000000 0.000000 0.000000 0.040853 0.000000
# 6 0.000000 0.000000 0.000000 0.000000 0.000000 0.091959
#
#
# Mechanical properties :
#
#
# Convention : Reuss Voigt Hill
#
# Bulk Modulus (GPa) = 54.16297 57.73712 55.95004
# Shear Modulus (GPa) = 21.31095 25.57669 23.44382
#
# Velocity S-wave (km/s) = 3.21398 3.52098 3.37098
# Velocity P-wave (km/s) = 6.32664 6.67200 6.50161
#
# Compressibility (1/GPa) = 0.01846280
#
# Stress axis : x y z
#
# Youngs Moduli (GPa) = 83.66491 53.27714 81.94490
#
# Poissons Ratio (x) = 0.22028 0.29686
# Poissons Ratio (y) = 0.34592 0.36663
# Poissons Ratio (z) = 0.30309 0.23837
#
# Static dielectric constant tensor:
#      x y z
#    x 1.762410 0.000000 0.000000 
#    y 0.000000 1.744940 0.000000 
#    z 0.000000 0.000000 1.773020 
# 
# From -- ./inp_files/4086.got.cif
#   From: 2010.05.17/outbox.cif.g08.bks.cpg/sg21_3_cif.got.tgz:4086.got - 2010.06.03 23:14:55.
