data_PCOD9323898
_publ_section_title
;
Structure prediction by ZEFSAII (Michael W. Deem and Ramdas Pophale) SiO2 
 PCOD9323898
Probable space group: C 2 2 2
;
_chemical_formula_sum "Si O2"
_cell_formula_units_Z 52
_cell_length_a 23.618686
_cell_length_b 21.883655
_cell_length_c 5.400414
_cell_angle_alpha 90.000000
_cell_angle_beta 90.000000
_cell_angle_gamma 90.000000
_cell_volume 2791.275132
_symmetry_space_group_name_H-M "C 2 2 2"
_symmetry_group_IT_number 21
_symmetry_cell_setting 'orthorhombic'
loop_
_space_group_symop_operation_xyz
x,y,z
-x,-y,z
x,-y,-z
-x,y,-z
1/2+x,1/2+y,z
1/2-x,1/2-y,z
1/2+x,1/2-y,-z
1/2-x,1/2+y,-z
loop_
_atom_site_type_symbol
_atom_site_label
_atom_site_fract_x
_atom_site_fract_y
_atom_site_fract_z
Si Si1 0.774597 0.539480 0.750400
Si Si2 0.707382 0.342360 0.678137
Si Si3 0.250000 0.250000 0.937270
Si Si4 0.935160 0.825440 0.965390
Si Si5 0.608617 0.267769 0.517259
Si Si6 0.179573 0.658681 0.401147
Si Si7 0.343708 0.430265 0.966293
O O1 0.775859 0.500000 0.500000
O O2 0.821693 0.592763 0.727275
O O3 0.711472 0.569440 0.785921
O O4 0.782384 0.500000 0.000000
O O5 0.710117 0.292733 0.897753
O O6 0.666164 0.308760 0.487267
O O7 0.772266 0.350518 0.608103
O O8 0.681470 0.404557 0.776488
O O9 0.210319 0.295053 0.785868
O O10 0.916437 0.790994 0.220308
O O11 0.928837 0.783271 0.721987
O O12 0.894822 0.884023 0.915857
O O13 0.000000 0.844373 0.000000
O O14 0.627135 0.196717 0.508219
O O15 0.362135 0.500000 0.000000
#
# Coordination Sequence:
#
# PCOD9323898 Si02
#       7
#     8   8   4   8   8   8   8
#     4  11  24  37  53  83 125 161 189 225 269 343
#     4  11  20  32  52  86 118 144 190 243 279 350
#     4  12  18  30  50  82 120 148 188 232 280 340
#     4  11  25  42  58  80 111 146 202 268 302 322
#     4  11  22  37  61  83 107 147 189 236 307 355
#     4  12  20  32  56  83 119 151 187 228 287 359
#     4  10  21  37  55  77 111 161 204 233 281 338
#
# _framework density 18.629480000000001
#
# number of rings (size 3 to 8) (size 9 to 14) (size 15 to 20)
#    0.000    0.923    4.615    5.077    0.000    2.769 
#    0.000    0.000    0.000    3.692    0.000    0.000 
#    0.000    9.231    0.000    0.000    0.000    0.000 
#
# Total GULP energy -145093.696556 kJ/mol
# GULP energy per Si atom -5580.526791 kJ/mol
# Density = 1.858708 g / cm^3
# Si number density = 18.629480 Si / 1000 Ang^3
#
#
#
# Elastic Constant Matrix: (Units=GPa)
#
#
# Indices 1 2 3 4 5 6 
#
# 1 50.9894 43.0682 18.3818 0.0000 0.0000 0.0000
# 2 43.0682 129.5241 51.7953 0.0000 0.0000 0.0000
# 3 18.3818 51.7953 92.0192 0.0000 0.0000 0.0000
# 4 0.0000 0.0000 0.0000 20.7074 0.0000 0.0000
# 5 0.0000 0.0000 0.0000 0.0000 29.4848 0.0000
# 6 0.0000 0.0000 0.0000 0.0000 0.0000 20.0287
#
#
#
# Elastic Compliance Matrix: (Units=1/GPa)
#
#
# Indices 1 2 3 4 5 6 
#
# 1 0.027285 -0.008895 -0.000444 0.000000 0.000000 0.000000
# 2 -0.008895 0.012863 -0.005463 0.000000 0.000000 0.000000
# 3 -0.000444 -0.005463 0.014031 0.000000 0.000000 0.000000
# 4 0.000000 0.000000 0.000000 0.048292 0.000000 0.000000
# 5 0.000000 0.000000 0.000000 0.000000 0.033916 0.000000
# 6 0.000000 0.000000 0.000000 0.000000 0.000000 0.049928
#
#
# Mechanical properties :
#
#
# Convention : Reuss Voigt Hill
#
# Bulk Modulus (GPa) = 40.69183 55.44705 48.06944
# Shear Modulus (GPa) = 22.31032 24.66335 23.48683
#
# Velocity S-wave (km/s) = 3.46436 3.64247 3.55453
# Velocity P-wave (km/s) = 6.15569 6.89332 6.53492
#
# Compressibility (1/GPa) = 0.02457496
#
# Stress axis : x y z
#
# Youngs Moduli (GPa) = 36.64986 77.74174 71.27019
#
# Poissons Ratio (x) = 0.69153 0.03161
# Poissons Ratio (y) = 0.32601 0.38938
# Poissons Ratio (z) = 0.01626 0.42473
#
# Static dielectric constant tensor:
#      x y z
#    x 1.656380 0.000000 0.000000 
#    y 0.000000 1.684850 0.000000 
#    z 0.000000 0.000000 1.734940 
# 
# From -- ./inp_files/6789.got.cif
#   From: 2010.05.17/outbox.cif.g08.bks.cpg/sg21_4_cif.got.tgz:6789.got - 2010.06.03 23:14:55.
