data_PCOD9323807
_publ_section_title
;
Structure prediction by ZEFSAII (Michael W. Deem and Ramdas Pophale) SiO2 
 PCOD9323807
Probable space group: C 2 2 2
;
_chemical_formula_sum "Si O2"
_cell_formula_units_Z 48
_cell_length_a 13.558185
_cell_length_b 19.955747
_cell_length_c 9.056168
_cell_angle_alpha 90.000000
_cell_angle_beta 90.000000
_cell_angle_gamma 90.000000
_cell_volume 2450.270409
_symmetry_space_group_name_H-M "C 2 2 2"
_symmetry_group_IT_number 21
_symmetry_cell_setting 'orthorhombic'
loop_
_space_group_symop_operation_xyz
x,y,z
-x,-y,z
x,-y,-z
-x,y,-z
1/2+x,1/2+y,z
1/2-x,1/2-y,z
1/2+x,1/2-y,-z
1/2-x,1/2+y,-z
loop_
_atom_site_type_symbol
_atom_site_label
_atom_site_fract_x
_atom_site_fract_y
_atom_site_fract_z
Si Si1 0.310559 0.497424 0.824506
Si Si2 0.500000 0.873583 0.500000
Si Si3 0.109540 0.712749 0.256955
Si Si4 0.500000 0.853628 0.000000
Si Si5 0.320726 0.647828 0.318811
Si Si6 0.110350 0.930549 0.567220
Si Si7 0.908265 0.449538 0.756005
O O1 0.334393 0.422143 0.767567
O O2 0.378114 0.552865 0.739349
O O3 0.197032 0.515869 0.782032
O O4 0.321616 0.500000 0.000000
O O5 0.452545 0.826553 0.378274
O O6 0.420793 0.917172 0.592947
O O7 0.217229 0.680637 0.277155
O O8 0.104854 0.792178 0.281810
O O9 0.069880 0.691836 0.098802
O O10 0.433014 0.897993 0.888872
O O11 0.329670 0.629241 0.492323
O O12 0.000000 0.924280 0.500000
O O13 0.151989 0.000000 0.500000
O O14 0.000000 0.500000 0.764771
#
# Coordination Sequence:
#
# PCOD9323807 Si02
#       7
#     8   4   8   4   8   8   8
#     4  11  21  37  61  92 121 155 198 260 315 365
#     4  10  21  34  56  90 119 156 202 238 292 372
#     4  10  21  38  57  84 116 162 199 240 294 371
#     4  10  21  38  58  86 127 158 192 238 310 374
#     4  10  21  38  59  81 119 158 198 243 304 361
#     4   9  20  39  59  82 113 153 199 255 303 350
#     4  11  20  33  59  94 128 157 191 249 310 372
#
# _framework density 19.589673999999999
#
# number of rings (size 3 to 8) (size 9 to 14) (size 15 to 20)
#    0.000    1.833    0.000    5.500    1.167    2.667 
#    3.000    5.833    0.000    8.000    0.000    0.000 
#    0.000    0.000    0.000    0.000    0.000    0.000 
#
# Total GULP energy -133841.496112 kJ/mol
# GULP energy per Si atom -5576.729005 kJ/mol
# Density = 1.954509 g / cm^3
# Si number density = 19.589674 Si / 1000 Ang^3
#
#
#
# Elastic Constant Matrix: (Units=GPa)
#
#
# Indices 1 2 3 4 5 6 
#
# 1 60.2799 27.9465 46.3890 0.0000 0.0000 0.0000
# 2 27.9465 122.6875 64.1404 0.0000 0.0000 0.0000
# 3 46.3890 64.1404 146.8794 0.0000 0.0000 0.0000
# 4 0.0000 0.0000 0.0000 5.0140 0.0000 0.0000
# 5 0.0000 0.0000 0.0000 0.0000 16.0767 0.0000
# 6 0.0000 0.0000 0.0000 0.0000 0.0000 26.0658
#
#
#
# Elastic Compliance Matrix: (Units=1/GPa)
#
#
# Indices 1 2 3 4 5 6 
#
# 1 0.022220 -0.001805 -0.006230 0.000000 0.000000 0.000000
# 2 -0.001805 0.010709 -0.004106 0.000000 0.000000 0.000000
# 3 -0.006230 -0.004106 0.010569 0.000000 0.000000 0.000000
# 4 0.000000 0.000000 0.000000 0.199442 0.000000 0.000000
# 5 0.000000 0.000000 0.000000 0.000000 0.062202 0.000000
# 6 0.000000 0.000000 0.000000 0.000000 0.000000 0.038364
#
#
# Mechanical properties :
#
#
# Convention : Reuss Voigt Hill
#
# Bulk Modulus (GPa) = 52.03894 67.42207 59.73051
# Shear Modulus (GPa) = 13.36208 22.18936 17.77572
#
# Velocity S-wave (km/s) = 2.61453 3.36922 3.01558
# Velocity P-wave (km/s) = 5.97800 7.04467 6.53314
#
# Compressibility (1/GPa) = 0.01921638
#
# Stress axis : x y z
#
# Youngs Moduli (GPa) = 45.00442 93.38249 94.61573
#
# Poissons Ratio (x) = 0.16851 0.58943
# Poissons Ratio (y) = 0.08121 0.38853
# Poissons Ratio (z) = 0.28037 0.38347
#
# Static dielectric constant tensor:
#      x y z
#    x 1.704050 0.000000 0.000000 
#    y 0.000000 1.695300 0.000000 
#    z 0.000000 0.000000 1.739410 
# 
# From -- ./inp_files/15027.got.cif
#   From: 2010.05.17/outbox.cif.g08.bks.cpg/sg21_8_cif.got.tgz:15027.got - 2010.06.03 23:14:55.
