data_PCOD9323117
_publ_section_title
;
Structure prediction by ZEFSAII (Michael W. Deem and Ramdas Pophale) SiO2 
 PCOD9323117
Probable space group: C 2 2 2
;
_chemical_formula_sum "Si O2"
_cell_formula_units_Z 44
_cell_length_a 18.700090
_cell_length_b 15.501563
_cell_length_c 9.035537
_cell_angle_alpha 90.000000
_cell_angle_beta 90.000000
_cell_angle_gamma 90.000000
_cell_volume 2619.227097
_symmetry_space_group_name_H-M "C 2 2 2"
_symmetry_group_IT_number 21
_symmetry_cell_setting 'orthorhombic'
loop_
_space_group_symop_operation_xyz
x,y,z
-x,-y,z
x,-y,-z
-x,y,-z
1/2+x,1/2+y,z
1/2-x,1/2-y,z
1/2+x,1/2-y,-z
1/2-x,1/2+y,-z
loop_
_atom_site_type_symbol
_atom_site_label
_atom_site_fract_x
_atom_site_fract_y
_atom_site_fract_z
Si Si1 0.913137 0.097377 0.747283
Si Si2 0.172781 0.417737 0.091636
Si Si3 0.500000 0.500000 0.500000
Si Si4 0.580945 0.251692 0.941105
Si Si5 0.000000 0.000000 0.000000
Si Si6 0.708946 0.336883 0.123587
Si Si7 0.730597 0.497290 0.676360
O O1 0.917311 0.197318 0.785856
O O2 0.833399 0.065275 0.724622
O O3 0.954426 0.061697 0.605590
O O4 0.949904 0.054322 0.891181
O O5 0.116123 0.341162 0.086059
O O6 0.199269 0.456808 0.246970
O O7 0.146350 0.500000 0.000000
O O8 0.242897 0.379736 0.006327
O O9 0.500000 0.247581 0.000000
O O10 0.633205 0.305139 0.055007
O O11 0.750000 0.250000 0.172798
O O12 0.709615 0.409800 0.250944
O O13 0.735975 0.500000 0.500000
#
# Coordination Sequence:
#
# PCOD9323117 Si02
#       7
#     8   8   2   8   2   8   8
#     4  11  20  33  51  81 115 152 187 225 284 353
#     4   9  20  39  61  81 111 144 194 248 283 337
#     4  10  24  34  44  78 128 160 176 220 288 366
#     4  11  21  34  61  89 109 144 197 245 289 334
#     4  10  20  30  52  78 118 150 178 226 288 338
#     4   9  19  37  55  81 110 142 189 240 279 330
#     4  11  21  35  55  83 115 155 188 228 292 350
#
# _framework density 16.798849000000001
#
# number of rings (size 3 to 8) (size 9 to 14) (size 15 to 20)
#    0.000    1.818    3.636    1.091    3.818    0.364 
#    3.273    0.000    4.000    0.000    0.000    1.273 
#    0.000    0.000    0.000    0.000    0.000    0.000 
#
# Total GULP energy -122637.548048 kJ/mol
# GULP energy per Si atom -5574.434002 kJ/mol
# Density = 1.676061 g / cm^3
# Si number density = 16.798849 Si / 1000 Ang^3
#
#
#
# Elastic Constant Matrix: (Units=GPa)
#
#
# Indices 1 2 3 4 5 6 
#
# 1 90.1863 61.0664 46.9709 0.0000 0.0000 0.0000
# 2 61.0664 146.5714 64.0932 0.0000 0.0000 0.0000
# 3 46.9709 64.0932 115.3500 0.0000 0.0000 0.0000
# 4 0.0000 0.0000 0.0000 -7.9004 0.0000 0.0000
# 5 0.0000 0.0000 0.0000 0.0000 -223.1592 0.0000
# 6 0.0000 0.0000 0.0000 0.0000 0.0000 24.2168
#
#
#
# Elastic Compliance Matrix: (Units=1/GPa)
#
#
# Indices 1 2 3 4 5 6 
#
# 1 0.016656 -0.005249 -0.003866 0.000000 0.000000 0.000000
# 2 -0.005249 0.010666 -0.003789 0.000000 0.000000 0.000000
# 3 -0.003866 -0.003789 0.012349 0.000000 0.000000 0.000000
# 4 0.000000 0.000000 0.000000 -0.126576 0.000000 0.000000
# 5 0.000000 0.000000 0.000000 0.000000 -0.004481 0.000000
# 6 0.000000 0.000000 0.000000 0.000000 0.000000 0.041294
#
#
# Mechanical properties :
#
#
# Convention : Reuss Voigt Hill
#
# Bulk Modulus (GPa) = 72.13403 77.37429 74.75416
# Shear Modulus (GPa) = -254.27111 -29.37007 -141.82059
#
# Velocity S-wave (km/s) = -12.31628 -4.18585 -9.19816
# Velocity P-wave (km/s) = 12.61829 4.77467 8.25905
#
# Compressibility (1/GPa) = 0.01386308
#
# Stress axis : x y z
#
# Youngs Moduli (GPa) = 60.04003 93.75156 80.97855
#
# Poissons Ratio (x) = 0.49209 0.31304
# Poissons Ratio (y) = 0.31514 0.30686
# Poissons Ratio (z) = 0.23210 0.35526
#
# Static dielectric constant tensor:
#      x y z
#    x 1.581770 0.000000 0.000000 
#    y 0.000000 1.599620 0.000000 
#    z 0.000000 0.000000 1.574610 
# 
# From -- ./inp_files/16369.got.cif
#   From: 2010.05.17/outbox.cif.g08.bks.cpg/sg21_9_cif.got.tgz:16369.got - 2010.06.03 23:14:55.
