data_PCOD9323667
_publ_section_title
;
Structure prediction by ZEFSAII (Michael W. Deem and Ramdas Pophale) SiO2 
 PCOD9323667
Probable space group: C 2 2 2
;
_chemical_formula_sum "Si O2"
_cell_formula_units_Z 56
_cell_length_a 20.979170
_cell_length_b 15.074574
_cell_length_c 9.305526
_cell_angle_alpha 90.000000
_cell_angle_beta 90.000000
_cell_angle_gamma 90.000000
_cell_volume 2942.891680
_symmetry_space_group_name_H-M "C 2 2 2"
_symmetry_group_IT_number 21
_symmetry_cell_setting 'orthorhombic'
loop_
_space_group_symop_operation_xyz
x,y,z
-x,-y,z
x,-y,-z
-x,y,-z
1/2+x,1/2+y,z
1/2-x,1/2-y,z
1/2+x,1/2-y,-z
1/2-x,1/2+y,-z
loop_
_atom_site_type_symbol
_atom_site_label
_atom_site_fract_x
_atom_site_fract_y
_atom_site_fract_z
Si Si1 0.002069 0.778170 0.327334
Si Si2 0.750452 0.353363 0.817379
Si Si3 0.966136 0.419665 0.342009
Si Si4 0.398795 0.607222 0.826733
Si Si5 0.097176 0.096276 0.834856
Si Si6 0.756284 0.851997 0.842825
Si Si7 0.678374 0.008409 0.338190
O O1 0.020187 0.677765 0.281648
O O2 0.056911 0.840581 0.265432
O O3 0.000000 0.781961 0.500000
O O4 0.937133 0.818831 0.261535
O O5 0.750000 0.250000 0.772793
O O6 0.677253 0.386102 0.800609
O O7 0.802453 0.415222 0.738292
O O8 0.762193 0.357501 0.988935
O O9 0.893819 0.454243 0.351280
O O10 0.000000 0.500000 0.259260
O O11 0.000000 0.414326 0.500000
O O12 0.417493 0.505541 0.795809
O O13 0.415012 0.616179 0.996348
O O14 0.171933 0.115109 0.821749
O O15 0.750000 0.750000 0.798344
O O16 0.713140 0.916509 0.751923
O O17 0.703286 0.000000 0.500000
#
# Coordination Sequence:
#
# PCOD9323667 Si02
#       7
#     8   8   8   8   8   8   8
#     4  11  24  37  63  91 122 165 214 270 302 369
#     4  10  23  40  65  95 127 167 214 268 323 379
#     4  10  22  44  62  84 125 174 209 244 322 378
#     4  10  21  39  63  88 127 168 203 253 324 393
#     4  10  20  40  61  89 126 169 204 249 328 389
#     4  10  21  41  65  92 129 169 211 264 323 386
#     4  12  23  38  68  95 124 170 212 264 315 385
#
# _framework density 19.028904000000001
#
# number of rings (size 3 to 8) (size 9 to 14) (size 15 to 20)
#    0.000    1.571    2.857    2.143    2.000    4.000 
#    0.000    0.000    3.143    0.000    0.000    0.000 
#    0.000    0.000    0.000    0.000    0.000    0.000 
#
# Total GULP energy -156152.682160 kJ/mol
# GULP energy per Si atom -5576.881506 kJ/mol
# Density = 1.898559 g / cm^3
# Si number density = 19.028904 Si / 1000 Ang^3
#
#
#
# Elastic Constant Matrix: (Units=GPa)
#
#
# Indices 1 2 3 4 5 6 
#
# 1 85.4790 62.2620 38.2539 0.0000 0.0000 0.0000
# 2 62.2620 190.1396 64.5777 0.0000 0.0000 0.0000
# 3 38.2539 64.5777 48.1646 0.0000 0.0000 0.0000
# 4 0.0000 0.0000 0.0000 43.5675 0.0000 0.0000
# 5 0.0000 0.0000 0.0000 0.0000 4.7858 0.0000
# 6 0.0000 0.0000 0.0000 0.0000 0.0000 -14.6353
#
#
#
# Elastic Compliance Matrix: (Units=1/GPa)
#
#
# Indices 1 2 3 4 5 6 
#
# 1 0.018541 -0.001965 -0.012092 0.000000 0.000000 0.000000
# 2 -0.001965 0.009865 -0.011666 0.000000 0.000000 0.000000
# 3 -0.012092 -0.011666 0.046008 0.000000 0.000000 0.000000
# 4 0.000000 0.000000 0.000000 0.022953 0.000000 0.000000
# 5 0.000000 0.000000 0.000000 0.000000 0.208951 0.000000
# 6 0.000000 0.000000 0.000000 0.000000 0.000000 -0.068328
#
#
# Mechanical properties :
#
#
# Convention : Reuss Voigt Hill
#
# Bulk Modulus (GPa) = 43.53839 72.66339 58.10089
# Shear Modulus (GPa) = 16.82984 17.32291 17.07637
#
# Velocity S-wave (km/s) = 2.97717 3.02047 2.99890
# Velocity P-wave (km/s) = 5.89473 7.10162 6.52614
#
# Compressibility (1/GPa) = 0.02296824
#
# Stress axis : x y z
#
# Youngs Moduli (GPa) = 53.93394 101.37060 21.73552
#
# Poissons Ratio (x) = 0.19915 0.26283
# Poissons Ratio (y) = 0.10596 0.25357
# Poissons Ratio (z) = 0.65217 1.18260
#
# Static dielectric constant tensor:
#      x y z
#    x 1.676010 0.000000 0.000000 
#    y 0.000000 1.692910 0.000000 
#    z 0.000000 0.000000 1.654040 
# 
# From -- ./inp_files/17725.got.cif
#   From: 2010.05.17/outbox.cif.g08.bks.cpg/sg21_9_cif.got.tgz:17725.got - 2010.06.03 23:14:55.
