data_PCOD9323724
_publ_section_title
;
Structure prediction by ZEFSAII (Michael W. Deem and Ramdas Pophale) SiO2 
 PCOD9323724
Probable space group: C 2 2 2
;
_chemical_formula_sum "Si O2"
_cell_formula_units_Z 40
_cell_length_a 13.040578
_cell_length_b 9.251486
_cell_length_c 17.307768
_cell_angle_alpha 90.000000
_cell_angle_beta 90.000000
_cell_angle_gamma 90.000000
_cell_volume 2088.090907
_symmetry_space_group_name_H-M "C 2 2 2"
_symmetry_group_IT_number 21
_symmetry_cell_setting 'orthorhombic'
loop_
_space_group_symop_operation_xyz
x,y,z
-x,-y,z
x,-y,-z
-x,y,-z
1/2+x,1/2+y,z
1/2-x,1/2-y,z
1/2+x,1/2-y,-z
1/2-x,1/2+y,-z
loop_
_atom_site_type_symbol
_atom_site_label
_atom_site_fract_x
_atom_site_fract_y
_atom_site_fract_z
Si Si1 0.782710 0.016119 0.245139
Si Si2 0.250000 0.250000 0.355515
Si Si3 0.000000 0.500000 0.863228
Si Si4 0.536150 0.166469 0.581508
Si Si5 0.416576 0.787774 0.263714
Si Si6 0.219703 0.583579 0.923936
O O1 0.681495 0.105092 0.272641
O O2 0.874614 0.129491 0.246298
O O3 0.791426 0.877780 0.300125
O O4 0.766918 0.968752 0.157006
O O5 0.343064 0.188040 0.406226
O O6 0.977329 0.635407 0.805983
O O7 0.900879 0.454116 0.912138
O O8 0.500000 0.232389 0.500000
O O9 0.481237 0.222995 0.658409
O O10 0.500000 0.000000 0.580015
O O11 0.250000 0.750000 0.933217
O O12 0.256240 0.500000 0.000000
#
# Coordination Sequence:
#
# PCOD9323724 Si02
#       6
#     8   4   4   8   8   8
#     4  10  22  39  69  94 127 171 221 261 325 392
#     4  12  22  44  66  96 124 178 218 266 322 396
#     4  10  21  42  67  86 130 174 216 258 327 392
#     4  11  23  42  65  95 134 170 211 273 335 382
#     4  10  20  41  66  95 126 171 217 262 323 398
#     4  11  24  41  65  93 130 168 213 269 331 384
#
# _framework density 19.156253
#
# number of rings (size 3 to 8) (size 9 to 14) (size 15 to 20)
#    0.000    1.400    4.000    1.500    5.600    2.400 
#    0.000    1.000    0.000    0.000    0.000    0.000 
#    0.000    0.000    0.000    0.000    0.000    0.000 
#
# Total GULP energy -111653.258947 kJ/mol
# GULP energy per Si atom -5582.662947 kJ/mol
# Density = 1.911265 g / cm^3
# Si number density = 19.156253 Si / 1000 Ang^3
#
#
#
# Elastic Constant Matrix: (Units=GPa)
#
#
# Indices 1 2 3 4 5 6 
#
# 1 76.4297 48.2529 66.4597 0.0000 0.0000 0.0000
# 2 48.2529 120.7136 48.3390 0.0000 0.0000 0.0000
# 3 66.4597 48.3390 117.7853 0.0000 0.0000 0.0000
# 4 0.0000 0.0000 0.0000 31.1587 0.0000 0.0000
# 5 0.0000 0.0000 0.0000 0.0000 3.3727 0.0000
# 6 0.0000 0.0000 0.0000 0.0000 0.0000 19.0015
#
#
#
# Elastic Compliance Matrix: (Units=1/GPa)
#
#
# Indices 1 2 3 4 5 6 
#
# 1 0.028929 -0.006016 -0.013854 0.000000 0.000000 0.000000
# 2 -0.006016 0.011164 -0.001187 0.000000 0.000000 0.000000
# 3 -0.013854 -0.001187 0.016794 0.000000 0.000000 0.000000
# 4 0.000000 0.000000 0.000000 0.032094 0.000000 0.000000
# 5 0.000000 0.000000 0.000000 0.000000 0.296501 0.000000
# 6 0.000000 0.000000 0.000000 0.000000 0.000000 0.052627
#
#
# Mechanical properties :
#
#
# Convention : Reuss Voigt Hill
#
# Bulk Modulus (GPa) = 67.69169 71.22578 69.45873
# Shear Modulus (GPa) = 10.30611 20.83170 15.56890
#
# Velocity S-wave (km/s) = 2.32200 3.30125 2.85394
# Velocity P-wave (km/s) = 6.52704 7.19675 6.87006
#
# Compressibility (1/GPa) = 0.01477286
#
# Stress axis : x y z
#
# Youngs Moduli (GPa) = 34.56757 89.57118 59.54387
#
# Poissons Ratio (x) = 0.53886 0.82492
# Poissons Ratio (y) = 0.20796 0.07070
# Poissons Ratio (z) = 0.47890 0.10635
#
# Static dielectric constant tensor:
#      x y z
#    x 1.691630 0.000000 0.000000 
#    y 0.000000 1.614060 0.000000 
#    z 0.000000 0.000000 1.659580 
# 
# From -- ./inp_files/32133.got.cif
#   From: 2010.05.17/outbox.cif.g08.bks.cpg/sg21_17_cif.got.tgz:32133.got - 2010.06.03 23:14:55.
