data_PCOD9323492
_publ_section_title
;
Structure prediction by ZEFSAII (Michael W. Deem and Ramdas Pophale) SiO2 
 PCOD9323492
Probable space group: C 2 2 2
;
_chemical_formula_sum "Si O2"
_cell_formula_units_Z 54
_cell_length_a 11.890472
_cell_length_b 16.223534
_cell_length_c 14.773546
_cell_angle_alpha 90.000000
_cell_angle_beta 90.000000
_cell_angle_gamma 90.000000
_cell_volume 2849.897935
_symmetry_space_group_name_H-M "C 2 2 2"
_symmetry_group_IT_number 21
_symmetry_cell_setting 'orthorhombic'
loop_
_space_group_symop_operation_xyz
x,y,z
-x,-y,z
x,-y,-z
-x,y,-z
1/2+x,1/2+y,z
1/2-x,1/2-y,z
1/2+x,1/2-y,-z
1/2-x,1/2+y,-z
loop_
_atom_site_type_symbol
_atom_site_label
_atom_site_fract_x
_atom_site_fract_y
_atom_site_fract_z
Si Si1 0.516546 0.811826 0.182225
Si Si2 0.181597 0.571495 0.167691
Si Si3 0.500000 0.284105 0.000000
Si Si4 0.544920 0.416054 0.670637
Si Si5 0.721690 0.654286 0.996204
Si Si6 0.745304 0.115508 0.794267
Si Si7 0.000000 0.000000 0.500000
Si Si8 0.155816 0.808869 0.284080
O O1 0.444937 0.896076 0.181506
O O2 0.537377 0.775882 0.081433
O O3 0.636903 0.827961 0.227969
O O4 0.429827 0.748264 0.227206
O O5 0.204398 0.479167 0.198879
O O6 0.269258 0.630352 0.221983
O O7 0.206709 0.591340 0.062303
O O8 0.406049 0.345804 0.964268
O O9 0.500000 0.500000 0.719030
O O10 0.647805 0.379491 0.727665
O O11 0.574705 0.446747 0.569649
O O12 0.433540 0.360842 0.658948
O O13 0.750000 0.750000 0.975767
O O14 0.722844 0.638862 0.102824
O O15 0.250000 0.750000 0.329301
#
# Coordination Sequence:
#
# PCOD9323492 Si02
#       8
#     8   8   4   8   8   8   2   8
#     4  11  21  34  56  81 124 164 206 259 302 341
#     4  11  20  38  52  80 118 178 217 244 298 358
#     4  12  20  34  48  70 112 172 220 250 302 336
#     4  10  21  41  67  93 117 148 197 239 314 390
#     4  12  22  34  50  73 119 175 222 256 300 339
#     4  12  24  34  57  91 118 151 212 273 300 347
#     4   8  20  44  72  88 124 160 178 236 332 406
#     4  10  20  37  63  86 118 161 204 242 291 366
#
# _framework density 18.948046999999999
#
# number of rings (size 3 to 8) (size 9 to 14) (size 15 to 20)
#    0.444    0.593    5.926    2.222    0.000    0.000 
#    0.000    2.963    3.259    0.000    0.000    9.333 
#    0.000    0.000    0.000    0.000    0.000    0.000 
#
# Total GULP energy -150407.434644 kJ/mol
# GULP energy per Si atom -5570.645728 kJ/mol
# Density = 1.890492 g / cm^3
# Si number density = 18.948047 Si / 1000 Ang^3
#
#
#
# Elastic Constant Matrix: (Units=GPa)
#
#
# Indices 1 2 3 4 5 6 
#
# 1 124.3257 21.5621 26.5979 0.0000 0.0000 0.0000
# 2 21.5621 64.9773 1.9284 0.0000 0.0000 0.0000
# 3 26.5979 1.9284 55.0391 0.0000 0.0000 0.0000
# 4 0.0000 0.0000 0.0000 17.5973 0.0000 0.0000
# 5 0.0000 0.0000 0.0000 0.0000 12.9161 0.0000
# 6 0.0000 0.0000 0.0000 0.0000 0.0000 32.4213
#
#
#
# Elastic Compliance Matrix: (Units=1/GPa)
#
#
# Indices 1 2 3 4 5 6 
#
# 1 0.009531 -0.003029 -0.004500 0.000000 0.000000 0.000000
# 2 -0.003029 0.016369 0.000890 0.000000 0.000000 0.000000
# 3 -0.004500 0.000890 0.020312 0.000000 0.000000 0.000000
# 4 0.000000 0.000000 0.000000 0.056827 0.000000 0.000000
# 5 0.000000 0.000000 0.000000 0.000000 0.077423 0.000000
# 6 0.000000 0.000000 0.000000 0.000000 0.000000 0.030844
#
#
# Mechanical properties :
#
#
# Convention : Reuss Voigt Hill
#
# Bulk Modulus (GPa) = 30.36302 38.27988 34.32145
# Shear Modulus (GPa) = 21.22582 25.53719 23.38151
#
# Velocity S-wave (km/s) = 3.35059 3.67515 3.51662
# Velocity P-wave (km/s) = 5.57025 6.18509 5.88571
#
# Compressibility (1/GPa) = 0.03293480
#
# Stress axis : x y z
#
# Youngs Moduli (GPa) = 104.91531 61.09167 49.23119
#
# Poissons Ratio (x) = 0.18507 0.22154
# Poissons Ratio (y) = 0.31783 -0.04384
# Poissons Ratio (z) = 0.47212 -0.05440
#
# Static dielectric constant tensor:
#      x y z
#    x 1.748180 0.000000 0.000000 
#    y 0.000000 1.738670 0.000000 
#    z 0.000000 0.000000 1.647280 
# 
# From -- ./inp_files/31642.got.cif
#   From: 2010.05.17/outbox.cif.g08.bks.cpg/sg21_16_cif.got.tgz:31642.got - 2010.06.03 23:14:55.
