data_PCOD9323093
_publ_section_title
;
Structure prediction by ZEFSAII (Michael W. Deem and Ramdas Pophale) SiO2 
 PCOD9323093
Probable space group: C 2 2 2
;
_chemical_formula_sum "Si O2"
_cell_formula_units_Z 56
_cell_length_a 21.045927
_cell_length_b 8.799570
_cell_length_c 14.931610
_cell_angle_alpha 90.000000
_cell_angle_beta 90.000000
_cell_angle_gamma 90.000000
_cell_volume 2765.261124
_symmetry_space_group_name_H-M "C 2 2 2"
_symmetry_group_IT_number 21
_symmetry_cell_setting 'orthorhombic'
loop_
_space_group_symop_operation_xyz
x,y,z
-x,-y,z
x,-y,-z
-x,y,-z
1/2+x,1/2+y,z
1/2-x,1/2-y,z
1/2+x,1/2-y,-z
1/2-x,1/2+y,-z
loop_
_atom_site_type_symbol
_atom_site_label
_atom_site_fract_x
_atom_site_fract_y
_atom_site_fract_z
Si Si1 0.373966 0.103450 0.205613
Si Si2 0.418009 0.801095 0.288384
Si Si3 0.254184 0.931556 0.902665
Si Si4 0.157543 0.964330 0.249059
Si Si5 0.535527 0.640632 0.191540
Si Si6 0.426503 0.683897 0.488109
Si Si7 0.681394 0.710261 0.371948
O O1 0.323605 0.033039 0.137389
O O2 0.420977 0.221941 0.154678
O O3 0.332852 0.194592 0.280814
O O4 0.412656 0.974906 0.259003
O O5 0.358523 0.711616 0.245044
O O6 0.483066 0.726952 0.250897
O O7 0.410996 0.754678 0.391704
O O8 0.250000 0.750000 0.907398
O O9 0.200842 0.988651 0.833678
O O10 0.244686 0.000000 0.000000
O O11 0.088408 0.047389 0.247026
O O12 0.185807 0.034597 0.339585
O O13 0.500000 0.500000 0.140438
O O14 0.423761 0.500000 0.500000
O O15 0.500000 0.726908 0.500000
O O16 0.376481 0.740509 0.561560
O O17 0.750000 0.750000 0.410045
#
# Coordination Sequence:
#
# PCOD9323093 Si02
#       7
#     8   8   8   8   8   8   8
#     4  11  22  41  65  95 134 165 216 281 336 399
#     4  11  23  37  61 103 127 174 231 276 318 389
#     4  12  25  44  71 100 130 165 209 277 341 416
#     4  10  19  41  65  89 129 175 217 255 331 413
#     4   9  19  37  68  89 118 178 219 254 324 397
#     4  11  23  38  62  94 131 176 236 284 321 390
#     4  11  20  42  63  82 131 189 217 270 340 389
#
# _framework density 20.251251
#
# number of rings (size 3 to 8) (size 9 to 14) (size 15 to 20)
#    0.000    1.286    5.714    2.143    6.000    0.571 
#    5.143    0.714    0.000    9.000    0.000    0.000 
#    0.000    0.000    0.000    0.000    0.000    0.000 
#
# Total GULP energy -156005.047767 kJ/mol
# GULP energy per Si atom -5571.608849 kJ/mol
# Density = 2.020516 g / cm^3
# Si number density = 20.251251 Si / 1000 Ang^3
#
#
#
# Elastic Constant Matrix: (Units=GPa)
#
#
# Indices 1 2 3 4 5 6 
#
# 1 116.4041 28.3648 49.1159 0.0000 0.0000 0.0000
# 2 28.3648 84.6521 13.2089 0.0000 0.0000 0.0000
# 3 49.1159 13.2089 76.1530 0.0000 0.0000 0.0000
# 4 0.0000 0.0000 0.0000 15.2616 0.0000 0.0000
# 5 0.0000 0.0000 0.0000 0.0000 11.7771 0.0000
# 6 0.0000 0.0000 0.0000 0.0000 0.0000 25.5841
#
#
#
# Elastic Compliance Matrix: (Units=1/GPa)
#
#
# Indices 1 2 3 4 5 6 
#
# 1 0.012509 -0.003014 -0.007545 0.000000 0.000000 0.000000
# 2 -0.003014 0.012868 -0.000288 0.000000 0.000000 0.000000
# 3 -0.007545 -0.000288 0.018048 0.000000 0.000000 0.000000
# 4 0.000000 0.000000 0.000000 0.065524 0.000000 0.000000
# 5 0.000000 0.000000 0.000000 0.000000 0.084911 0.000000
# 6 0.000000 0.000000 0.000000 0.000000 0.000000 0.039087
#
#
# Mechanical properties :
#
#
# Convention : Reuss Voigt Hill
#
# Bulk Modulus (GPa) = 46.01861 50.95425 48.48643
# Shear Modulus (GPa) = 19.09249 22.95920 21.02584
#
# Velocity S-wave (km/s) = 3.07380 3.37073 3.22568
# Velocity P-wave (km/s) = 5.94734 6.35332 6.15368
#
# Compressibility (1/GPa) = 0.02173034
#
# Stress axis : x y z
#
# Youngs Moduli (GPa) = 79.94423 77.71260 55.40915
#
# Poissons Ratio (x) = 0.23423 0.41805
# Poissons Ratio (y) = 0.24096 0.01596
# Poissons Ratio (z) = 0.60317 0.02238
#
# Static dielectric constant tensor:
#      x y z
#    x 1.764710 0.000000 0.000000 
#    y 0.000000 1.791900 0.000000 
#    z 0.000000 0.000000 1.692550 
# 
# From -- ./inp_files/33320.got.cif
#   From: 2010.05.17/outbox.cif.g08.bks.cpg/sg21_17_cif.got.tgz:33320.got - 2010.06.03 23:14:55.
