data_PCOD9323056
_publ_section_title
;
Structure prediction by ZEFSAII (Michael W. Deem and Ramdas Pophale) SiO2 
 PCOD9323056
Probable space group: C 2 2 2
;
_chemical_formula_sum "Si O2"
_cell_formula_units_Z 44
_cell_length_a 20.723230
_cell_length_b 12.865228
_cell_length_c 8.927595
_cell_angle_alpha 90.000000
_cell_angle_beta 90.000000
_cell_angle_gamma 90.000000
_cell_volume 2380.177879
_symmetry_space_group_name_H-M "C 2 2 2"
_symmetry_group_IT_number 21
_symmetry_cell_setting 'orthorhombic'
loop_
_space_group_symop_operation_xyz
x,y,z
-x,-y,z
x,-y,-z
-x,y,-z
1/2+x,1/2+y,z
1/2-x,1/2-y,z
1/2+x,1/2-y,-z
1/2-x,1/2+y,-z
loop_
_atom_site_type_symbol
_atom_site_label
_atom_site_fract_x
_atom_site_fract_y
_atom_site_fract_z
Si Si1 0.802924 0.500000 0.000000
Si Si2 0.730259 0.370440 0.753794
Si Si3 0.696193 0.000000 0.500000
Si Si4 0.000000 0.000000 0.000000
Si Si5 0.500000 0.500000 0.500000
Si Si6 0.477050 0.849608 0.674581
Si Si7 0.896130 0.440707 0.258413
Si Si8 0.923369 0.873967 0.251342
O O1 0.760104 0.578963 0.096309
O O2 0.850110 0.443424 0.116560
O O3 0.750000 0.250000 0.743735
O O4 0.761803 0.433685 0.615721
O O5 0.653499 0.383270 0.752989
O O6 0.649437 0.074461 0.402555
O O7 0.043954 0.072577 0.106660
O O8 0.454602 0.431517 0.393928
O O9 0.500000 0.851340 0.500000
O O10 0.545159 0.862114 0.759232
O O11 0.442088 0.746059 0.726007
O O12 0.431406 0.948011 0.711469
#
# Coordination Sequence:
#
# PCOD9323056 Si02
#       8
#     4   8   4   2   2   8   8   8
#     4  10  23  41  60  91 127 172 200 248 304 384
#     4  11  24  40  63  87 125 168 207 254 303 371
#     4  10  19  39  62  89 123 164 200 256 304 368
#     4  10  26  42  60  80 118 170 200 268 292 348
#     4  10  22  38  60  84 114 158 212 268 284 352
#     4  11  20  35  66  98 124 153 192 272 321 372
#     4  10  20  37  62  96 130 149 195 248 329 382
#     4  11  22  40  60  86 119 158 213 247 309 354
#
# _framework density 18.486014000000001
#
# number of rings (size 3 to 8) (size 9 to 14) (size 15 to 20)
#    0.000    1.455    2.727    3.818    0.000    4.364 
#    0.000    3.636    0.000    0.000    0.000    0.000 
#    0.000    0.000    0.000    0.000    0.000    0.000 
#
# Total GULP energy -122872.004834 kJ/mol
# GULP energy per Si atom -5585.091129 kJ/mol
# Density = 1.844394 g / cm^3
# Si number density = 18.486014 Si / 1000 Ang^3
#
#
#
# Elastic Constant Matrix: (Units=GPa)
#
#
# Indices 1 2 3 4 5 6 
#
# 1 184.6805 50.1997 70.5300 0.0000 0.0000 0.0000
# 2 50.1997 78.3206 33.9530 0.0000 0.0000 0.0000
# 3 70.5300 33.9530 115.8741 0.0000 0.0000 0.0000
# 4 0.0000 0.0000 0.0000 13.8917 0.0000 0.0000
# 5 0.0000 0.0000 0.0000 0.0000 19.4861 0.0000
# 6 0.0000 0.0000 0.0000 0.0000 0.0000 30.8436
#
#
#
# Elastic Compliance Matrix: (Units=1/GPa)
#
#
# Indices 1 2 3 4 5 6 
#
# 1 0.007752 -0.003349 -0.003737 0.000000 0.000000 0.000000
# 2 -0.003349 0.016072 -0.002671 0.000000 0.000000 0.000000
# 3 -0.003737 -0.002671 0.011688 0.000000 0.000000 0.000000
# 4 0.000000 0.000000 0.000000 0.071985 0.000000 0.000000
# 5 0.000000 0.000000 0.000000 0.000000 0.051319 0.000000
# 6 0.000000 0.000000 0.000000 0.000000 0.000000 0.032422
#
#
# Mechanical properties :
#
#
# Convention : Reuss Voigt Hill
#
# Bulk Modulus (GPa) = 62.50891 76.47118 69.49004
# Shear Modulus (GPa) = 23.13903 27.79046 25.46474
#
# Velocity S-wave (km/s) = 3.54178 3.88148 3.71551
# Velocity P-wave (km/s) = 7.11430 7.84504 7.48859
#
# Compressibility (1/GPa) = 0.01599772
#
# Stress axis : x y z
#
# Youngs Moduli (GPa) = 128.99362 62.21868 85.56018
#
# Poissons Ratio (x) = 0.20835 0.31978
# Poissons Ratio (y) = 0.43195 0.22855
# Poissons Ratio (z) = 0.48211 0.16620
#
# Static dielectric constant tensor:
#      x y z
#    x 1.621350 0.000000 0.000000 
#    y 0.000000 1.618480 0.000000 
#    z 0.000000 0.000000 1.654870 
# 
# From -- ./inp_files/16398.got.cif
#   From: 2010.05.17/outbox.cif.g08.bks.cpg/sg21_9_cif.got.tgz:16398.got - 2010.06.03 23:14:55.
