data_PCOD9323315
_publ_section_title
;
Structure prediction by ZEFSAII (Michael W. Deem and Ramdas Pophale) SiO2 
 PCOD9323315
Probable space group: C 2 2 2
;
_chemical_formula_sum "Si O2"
_cell_formula_units_Z 64
_cell_length_a 9.414807
_cell_length_b 22.484357
_cell_length_c 16.681386
_cell_angle_alpha 90.000000
_cell_angle_beta 90.000000
_cell_angle_gamma 90.000000
_cell_volume 3531.213903
_symmetry_space_group_name_H-M "C 2 2 2"
_symmetry_group_IT_number 21
_symmetry_cell_setting 'orthorhombic'
loop_
_space_group_symop_operation_xyz
x,y,z
-x,-y,z
x,-y,-z
-x,y,-z
1/2+x,1/2+y,z
1/2-x,1/2-y,z
1/2+x,1/2-y,-z
1/2-x,1/2+y,-z
loop_
_atom_site_type_symbol
_atom_site_label
_atom_site_fract_x
_atom_site_fract_y
_atom_site_fract_z
Si Si1 0.168106 0.187967 0.000227
Si Si2 0.329227 0.313970 0.177332
Si Si3 0.037740 0.179168 0.591642
Si Si4 0.828261 0.501147 0.594714
Si Si5 0.793282 0.628172 0.667166
Si Si6 0.327579 0.314430 0.823412
Si Si7 0.547267 0.812702 0.407793
Si Si8 0.708712 0.379732 0.663168
O O1 0.250000 0.250000 0.999988
O O2 0.199727 0.160329 0.913275
O O3 0.199467 0.160960 0.087553
O O4 0.000000 0.199835 0.000000
O O5 0.250000 0.250000 0.185203
O O6 0.501211 0.306679 0.186205
O O7 0.274074 0.357836 0.246062
O O8 0.984324 0.244752 0.614050
O O9 0.955887 0.129549 0.642293
O O10 0.000000 0.169877 0.500000
O O11 0.202700 0.171629 0.609309
O O12 0.790366 0.500000 0.500000
O O13 0.775739 0.561300 0.636704
O O14 0.764673 0.443996 0.639199
O O15 0.000000 0.500000 0.598838
O O16 0.737670 0.643516 0.755317
O O17 0.955192 0.646363 0.651341
O O18 0.250000 0.250000 0.816331
O O19 0.500000 0.822546 0.500000
O O20 0.707528 0.832764 0.393497
#
# Coordination Sequence:
#
# PCOD9323315 Si02
#       8
#     8   8   8   8   8   8   8   8
#     4   8  16  32  54  83 120 155 181 220 280 346
#     4  10  20  35  58  89 122 152 187 231 286 346
#     4  11  22  35  53  84 116 140 176 235 298 342
#     4  11  24  43  61  76 103 152 208 247 279 331
#     4  12  23  37  58  82 111 151 194 235 280 337
#     4  10  20  35  58  89 122 152 187 231 286 346
#     4  11  22  37  57  80 112 150 186 229 286 350
#     4  12  23  37  58  82 111 151 194 235 280 337
#
# _framework density 18.124079999999999
#
# number of rings (size 3 to 8) (size 9 to 14) (size 15 to 20)
#    0.000    1.375    2.500    4.500    1.750    2.500 
#    0.000    1.250    0.000    0.750    0.000    3.500 
#    0.000    0.000    0.000    0.000    0.000    0.000 
#
# Total GULP energy -178553.034180 kJ/mol
# GULP energy per Si atom -5579.782318 kJ/mol
# Density = 1.808283 g / cm^3
# Si number density = 18.124080 Si / 1000 Ang^3
#
#
#
# Elastic Constant Matrix: (Units=GPa)
#
#
# Indices 1 2 3 4 5 6 
#
# 1 46.0966 19.5044 24.5737 0.0000 0.0000 0.0000
# 2 19.5044 100.0914 61.5395 0.0000 0.0000 0.0000
# 3 24.5737 61.5395 159.6212 0.0000 0.0000 0.0000
# 4 0.0000 0.0000 0.0000 9.0824 0.0000 0.0000
# 5 0.0000 0.0000 0.0000 0.0000 27.7174 0.0000
# 6 0.0000 0.0000 0.0000 0.0000 0.0000 24.0197
#
#
#
# Elastic Compliance Matrix: (Units=1/GPa)
#
#
# Indices 1 2 3 4 5 6 
#
# 1 0.024393 -0.003204 -0.002520 0.000000 0.000000 0.000000
# 2 -0.003204 0.013516 -0.004718 0.000000 0.000000 0.000000
# 3 -0.002520 -0.004718 0.008472 0.000000 0.000000 0.000000
# 4 0.000000 0.000000 0.000000 0.110103 0.000000 0.000000
# 5 0.000000 0.000000 0.000000 0.000000 0.036078 0.000000
# 6 0.000000 0.000000 0.000000 0.000000 0.000000 0.041632
#
#
# Mechanical properties :
#
#
# Convention : Reuss Voigt Hill
#
# Bulk Modulus (GPa) = 39.22038 57.44938 48.33488
# Shear Modulus (GPa) = 18.96986 25.51000 22.23993
#
# Velocity S-wave (km/s) = 3.23873 3.75576 3.50679
# Velocity P-wave (km/s) = 5.97267 7.11156 6.56685
#
# Compressibility (1/GPa) = 0.02549695
#
# Stress axis : x y z
#
# Youngs Moduli (GPa) = 40.99607 73.98811 118.04198
#
# Poissons Ratio (x) = 0.23705 0.29747
# Poissons Ratio (y) = 0.13135 0.55687
# Poissons Ratio (z) = 0.10331 0.34904
#
# Static dielectric constant tensor:
#      x y z
#    x 1.612550 0.000000 0.000000 
#    y 0.000000 1.605340 0.000000 
#    z 0.000000 0.000000 1.666630 
# 
# From -- ./inp_files/35887.got.cif
#   From: 2010.05.17/outbox.cif.g08.bks.cpg/sg21_18_cif.got.tgz:35887.got - 2010.06.03 23:14:55.
