data_PCOD9323674
_publ_section_title
;
Structure prediction by ZEFSAII (Michael W. Deem and Ramdas Pophale) SiO2 
 PCOD9323674
Probable space group: C 2 2 2
;
_chemical_formula_sum "Si O2"
_cell_formula_units_Z 60
_cell_length_a 7.143907
_cell_length_b 24.287862
_cell_length_c 15.241772
_cell_angle_alpha 90.000000
_cell_angle_beta 90.000000
_cell_angle_gamma 90.000000
_cell_volume 2644.603325
_symmetry_space_group_name_H-M "C 2 2 2"
_symmetry_group_IT_number 21
_symmetry_cell_setting 'orthorhombic'
loop_
_space_group_symop_operation_xyz
x,y,z
-x,-y,z
x,-y,-z
-x,y,-z
1/2+x,1/2+y,z
1/2-x,1/2-y,z
1/2+x,1/2-y,-z
1/2-x,1/2+y,-z
loop_
_atom_site_type_symbol
_atom_site_label
_atom_site_fract_x
_atom_site_fract_y
_atom_site_fract_z
Si Si1 0.282284 0.331659 0.000712
Si Si2 0.212744 0.683704 0.668970
Si Si3 0.188187 0.450509 0.929602
Si Si4 0.642589 0.117979 0.832640
Si Si5 0.750000 0.750000 0.854564
Si Si6 0.974907 0.054128 0.214460
Si Si7 0.720064 0.685036 0.520172
Si Si8 0.638354 0.338722 0.290075
O O1 0.266078 0.395371 0.974577
O O2 0.180365 0.294965 0.927199
O O3 0.500000 0.315188 0.000000
O O4 0.201850 0.334245 0.098188
O O5 0.250000 0.750000 0.677194
O O6 0.091859 0.653136 0.744528
O O7 0.166792 0.668758 0.567793
O O8 0.421543 0.662001 0.683240
O O9 0.992502 0.575355 0.876453
O O10 0.347029 0.468755 0.863540
O O11 0.171797 0.500000 0.000000
O O12 0.831136 0.083190 0.812305
O O13 0.655740 0.708162 0.784551
O O14 0.839364 0.101262 0.251003
O O15 0.000000 0.000000 0.274176
O O16 0.500000 0.673896 0.500000
O O17 0.750000 0.750000 0.523893
O O18 0.753220 0.667686 0.620382
#
# Coordination Sequence:
#
# PCOD9323674 Si02
#       8
#     8   8   8   8   4   8   8   8
#     4  12  25  43  59  88 127 181 219 270 339 395
#     4   9  20  36  64  96 135 179 212 270 345 409
#     4  12  27  44  67  95 124 178 237 283 334 396
#     4  11  25  44  63  95 133 171 224 286 337 395
#     4  12  24  38  62  88 132 172 224 264 342 416
#     4  11  24  45  68  91 132 179 227 291 338 394
#     4   9  17  34  63  97 133 173 218 266 333 418
#     4  10  20  40  62  96 134 179 220 275 341 415
#
# _framework density 22.687712000000001
#
# number of rings (size 3 to 8) (size 9 to 14) (size 15 to 20)
#    0.000    1.333    3.333    2.000    2.800    5.333 
#    2.400    0.000    0.000   10.000    0.000    0.000 
#    0.000   10.933    0.000    0.000    0.000    0.000 
#
# Total GULP energy -167139.958597 kJ/mol
# GULP energy per Si atom -5571.331953 kJ/mol
# Density = 2.263607 g / cm^3
# Si number density = 22.687712 Si / 1000 Ang^3
#
#
#
# Elastic Constant Matrix: (Units=GPa)
#
#
# Indices 1 2 3 4 5 6 
#
# 1 95.0472 26.1559 54.9208 0.0000 0.0000 0.0000
# 2 26.1559 127.9846 72.9860 0.0000 0.0000 0.0000
# 3 54.9208 72.9860 185.0561 0.0000 0.0000 0.0000
# 4 0.0000 0.0000 0.0000 14.3514 0.0000 0.0000
# 5 0.0000 0.0000 0.0000 0.0000 25.2127 0.0000
# 6 0.0000 0.0000 0.0000 0.0000 0.0000 31.5577
#
#
#
# Elastic Compliance Matrix: (Units=1/GPa)
#
#
# Indices 1 2 3 4 5 6 
#
# 1 0.012732 -0.000577 -0.003551 0.000000 0.000000 0.000000
# 2 -0.000577 0.010107 -0.003815 0.000000 0.000000 0.000000
# 3 -0.003551 -0.003815 0.007962 0.000000 0.000000 0.000000
# 4 0.000000 0.000000 0.000000 0.069680 0.000000 0.000000
# 5 0.000000 0.000000 0.000000 0.000000 0.039663 0.000000
# 6 0.000000 0.000000 0.000000 0.000000 0.000000 0.031688
#
#
# Mechanical properties :
#
#
# Convention : Reuss Voigt Hill
#
# Bulk Modulus (GPa) = 67.04587 79.57925 73.31256
# Shear Modulus (GPa) = 25.94861 31.15937 28.55399
#
# Velocity S-wave (km/s) = 3.38558 3.70997 3.55148
# Velocity P-wave (km/s) = 6.70064 7.31463 7.01436
#
# Compressibility (1/GPa) = 0.01491516
#
# Stress axis : x y z
#
# Youngs Moduli (GPa) = 78.54422 98.94231 125.59305
#
# Poissons Ratio (x) = 0.05708 0.44598
# Poissons Ratio (y) = 0.04531 0.47913
# Poissons Ratio (z) = 0.27891 0.37746
#
# Static dielectric constant tensor:
#      x y z
#    x 1.963590 0.000000 0.000000 
#    y 0.000000 2.378430 0.000000 
#    z 0.000000 0.000000 1.972040 
# 
# From -- ./inp_files/31797.got.cif
#   From: 2010.05.17/outbox.cif.g08.bks.cpg/sg21_16_cif.got.tgz:31797.got - 2010.06.03 23:14:55.
