data_PCOD9323287
_publ_section_title
;
Structure prediction by ZEFSAII (Michael W. Deem and Ramdas Pophale) SiO2 
 PCOD9323287
Probable space group: C 2 2 2
;
_chemical_formula_sum "Si O2"
_cell_formula_units_Z 64
_cell_length_a 17.264869
_cell_length_b 8.028576
_cell_length_c 22.233623
_cell_angle_alpha 90.000000
_cell_angle_beta 90.000000
_cell_angle_gamma 90.000000
_cell_volume 3081.853908
_symmetry_space_group_name_H-M "C 2 2 2"
_symmetry_group_IT_number 21
_symmetry_cell_setting 'orthorhombic'
loop_
_space_group_symop_operation_xyz
x,y,z
-x,-y,z
x,-y,-z
-x,y,-z
1/2+x,1/2+y,z
1/2-x,1/2-y,z
1/2+x,1/2-y,-z
1/2-x,1/2+y,-z
loop_
_atom_site_type_symbol
_atom_site_label
_atom_site_fract_x
_atom_site_fract_y
_atom_site_fract_z
Si Si1 0.888153 0.653728 0.094266
Si Si2 0.936484 0.720621 0.888662
Si Si3 0.323368 0.326323 0.976130
Si Si4 0.663163 0.305914 0.219540
Si Si5 0.484674 0.297980 0.566480
Si Si6 0.664087 0.684378 0.642262
Si Si7 0.166017 0.796749 0.782030
Si Si8 0.927999 0.869234 0.325483
O O1 0.905823 0.458142 0.088016
O O2 0.843216 0.699016 0.155364
O O3 0.972710 0.733679 0.104024
O O4 0.848633 0.721488 0.034304
O O5 0.893726 0.851608 0.931041
O O6 0.904156 0.734188 0.821855
O O7 0.250000 0.250000 0.942532
O O8 0.295205 0.500000 0.000000
O O9 0.750000 0.250000 0.203372
O O10 0.650113 0.255458 0.289046
O O11 0.661634 0.504471 0.209699
O O12 0.500000 0.500000 0.562893
O O13 0.500000 0.230874 0.500000
O O14 0.399301 0.264229 0.592668
O O15 0.543231 0.253068 0.620287
O O16 0.750000 0.750000 0.626730
O O17 0.643532 0.486550 0.651721
O O18 0.250000 0.750000 0.756651
O O19 0.099132 0.768456 0.732703
O O20 0.000000 0.000000 0.311617
#
# Coordination Sequence:
#
# PCOD9323287 Si02
#       8
#     8   8   8   8   8   8   8   8
#     4  11  25  40  59  84 119 144 187 232 292 334
#     4  11  24  41  60  84 113 150 185 235 281 349
#     4  12  25  43  64  84 110 148 190 234 285 340
#     4  10  20  35  57  81 113 146 191 234 286 342
#     4   8  14  27  48  75 108 144 189 237 282 331
#     4   8  15  27  47  78 107 141 186 235 283 335
#     4  11  22  35  56  83 117 148 188 240 288 339
#     4   8  17  31  52  78 109 147 190 235 287 333
#
# _framework density 20.766721
#
# number of rings (size 3 to 8) (size 9 to 14) (size 15 to 20)
#    0.000    2.375    0.000    3.750    5.250    3.000 
#    0.000    0.625    0.000    0.000    0.000    0.000 
#    0.000   14.250    0.000    0.000    0.000    0.375 
#
# Total GULP energy -178456.428533 kJ/mol
# GULP energy per Si atom -5576.763392 kJ/mol
# Density = 2.071946 g / cm^3
# Si number density = 20.766721 Si / 1000 Ang^3
#
#
#
# Elastic Constant Matrix: (Units=GPa)
#
#
# Indices 1 2 3 4 5 6 
#
# 1 119.3021 8.7582 47.8463 0.0000 0.0000 0.0000
# 2 8.7582 18.4895 -7.0706 0.0000 0.0000 0.0000
# 3 47.8463 -7.0706 130.5001 0.0000 0.0000 0.0000
# 4 0.0000 0.0000 0.0000 -51.5824 0.0000 0.0000
# 5 0.0000 0.0000 0.0000 0.0000 42.6782 0.0000
# 6 0.0000 0.0000 0.0000 0.0000 0.0000 28.9126
#
#
#
# Elastic Compliance Matrix: (Units=1/GPa)
#
#
# Indices 1 2 3 4 5 6 
#
# 1 0.010566 -0.006624 -0.004233 0.000000 0.000000 0.000000
# 2 -0.006624 0.059381 0.005646 0.000000 0.000000 0.000000
# 3 -0.004233 0.005646 0.009521 0.000000 0.000000 0.000000
# 4 0.000000 0.000000 0.000000 -0.019386 0.000000 0.000000
# 5 0.000000 0.000000 0.000000 0.000000 0.023431 0.000000
# 6 0.000000 0.000000 0.000000 0.000000 0.000000 0.034587
#
#
# Mechanical properties :
#
#
# Convention : Reuss Voigt Hill
#
# Bulk Modulus (GPa) = 14.48296 40.81773 27.65034
# Shear Modulus (GPa) = 32.99549 18.58554 25.79051
#
# Velocity S-wave (km/s) = 3.99038 2.99485 3.52791
# Velocity P-wave (km/s) = 5.31226 5.62644 5.47161
#
# Compressibility (1/GPa) = 0.06904666
#
# Stress axis : x y z
#
# Youngs Moduli (GPa) = 94.64430 16.84036 105.03534
#
# Poissons Ratio (x) = 0.11154 0.44459
# Poissons Ratio (y) = 0.62688 -0.59301
# Poissons Ratio (z) = 0.40060 -0.09508
#
# Static dielectric constant tensor:
#      x y z
#    x 1.793550 0.000000 0.000000 
#    y 0.000000 1.770550 0.000000 
#    z 0.000000 0.000000 1.775320 
# 
# From -- ./inp_files/38761.got.cif
#   From: 2010.05.17/outbox.cif.g08.bks.cpg/sg21_20_cif.got.tgz:38761.got - 2010.06.03 23:14:55.
