data_PCOD9323182
_publ_section_title
;
Structure prediction by ZEFSAII (Michael W. Deem and Ramdas Pophale) SiO2 
 PCOD9323182
Probable space group: C 2 2 2
;
_chemical_formula_sum "Si O2"
_cell_formula_units_Z 58
_cell_length_a 19.251360
_cell_length_b 5.734119
_cell_length_c 26.139452
_cell_angle_alpha 90.000000
_cell_angle_beta 90.000000
_cell_angle_gamma 90.000000
_cell_volume 2885.523367
_symmetry_space_group_name_H-M "C 2 2 2"
_symmetry_group_IT_number 21
_symmetry_cell_setting 'orthorhombic'
loop_
_space_group_symop_operation_xyz
x,y,z
-x,-y,z
x,-y,-z
-x,y,-z
1/2+x,1/2+y,z
1/2-x,1/2-y,z
1/2+x,1/2-y,-z
1/2-x,1/2+y,-z
loop_
_atom_site_type_symbol
_atom_site_label
_atom_site_fract_x
_atom_site_fract_y
_atom_site_fract_z
Si Si1 0.822746 0.109630 0.166296
Si Si2 0.928976 0.893925 0.674638
Si Si3 0.428006 0.106614 0.775235
Si Si4 0.708336 0.498061 0.944069
Si Si5 0.500000 0.500000 0.500000
Si Si6 0.671844 0.288607 0.732805
Si Si7 0.427670 0.137259 0.574267
Si Si8 0.724306 0.002398 0.558645
O O1 0.750000 0.250000 0.168069
O O2 0.887000 0.275448 0.178835
O O3 0.830472 0.000075 0.110245
O O4 0.822091 0.934101 0.214142
O O5 0.947595 0.778313 0.728911
O O6 0.906360 0.720226 0.630848
O O7 0.870555 0.077232 0.689442
O O8 0.000000 0.000000 0.653741
O O9 0.500000 0.000000 0.793060
O O10 0.373126 0.933745 0.748689
O O11 0.750000 0.250000 0.943095
O O12 0.750000 0.750000 0.943432
O O13 0.672221 0.500000 0.000000
O O14 0.449322 0.343705 0.535513
O O15 0.750000 0.250000 0.715618
O O16 0.500000 0.000000 0.578508
O O17 0.359563 0.998700 0.556911
O O18 0.750000 0.250000 0.581541
O O19 0.751642 0.000000 0.500000
O O20 0.750000 0.750000 0.580728
#
# Coordination Sequence:
#
# PCOD9323182 Si02
#       8
#     8   8   8   8   2   8   8   8
#     4  10  20  33  60  94 129 170 220 282 335 386
#     4  11  24  43  65  93 129 170 211 269 338 403
#     4  11  22  39  62  89 128 173 217 266 330 406
#     4   9  18  32  54  90 136 175 221 281 345 398
#     4  12  26  44  84 106 128 164 240 280 344 400
#     4  11  22  40  65  91 128 167 216 278 328 394
#     4  12  27  46  73 102 131 172 224 278 336 411
#     4  10  24  46  73 101 140 176 214 271 332 393
#
# _framework density 20.100339999999999
#
# number of rings (size 3 to 8) (size 9 to 14) (size 15 to 20)
#    0.000    1.379    3.448    1.862    6.759    0.000 
#    2.483    0.000    0.000    0.000    0.000    2.897 
#    0.000    0.000    0.000    0.000    0.000    0.000 
#
# Total GULP energy -161753.788935 kJ/mol
# GULP energy per Si atom -5577.716860 kJ/mol
# Density = 2.005459 g / cm^3
# Si number density = 20.100340 Si / 1000 Ang^3
#
#
#
# Elastic Constant Matrix: (Units=GPa)
#
#
# Indices 1 2 3 4 5 6 
#
# 1 115.0783 40.4655 22.5703 0.0000 0.0000 0.0000
# 2 40.4655 98.3405 20.7857 0.0000 0.0000 0.0000
# 3 22.5703 20.7857 99.8226 0.0000 0.0000 0.0000
# 4 0.0000 0.0000 0.0000 39.4101 0.0000 0.0000
# 5 0.0000 0.0000 0.0000 0.0000 -137.0911 0.0000
# 6 0.0000 0.0000 0.0000 0.0000 0.0000 36.8166
#
#
#
# Elastic Compliance Matrix: (Units=1/GPa)
#
#
# Indices 1 2 3 4 5 6 
#
# 1 0.010377 -0.003948 -0.001524 0.000000 0.000000 0.000000
# 2 -0.003948 0.012139 -0.001635 0.000000 0.000000 0.000000
# 3 -0.001524 -0.001635 0.010703 0.000000 0.000000 0.000000
# 4 0.000000 0.000000 0.000000 0.025374 0.000000 0.000000
# 5 0.000000 0.000000 0.000000 0.000000 -0.007294 0.000000
# 6 0.000000 0.000000 0.000000 0.000000 0.000000 0.027162
#
#
# Mechanical properties :
#
#
# Convention : Reuss Voigt Hill
#
# Bulk Modulus (GPa) = 52.61907 53.43161 53.02534
# Shear Modulus (GPa) = 50.50061 3.12178 26.81119
#
# Velocity S-wave (km/s) = 5.01785 1.24759 3.65618
# Velocity P-wave (km/s) = 7.73348 5.35868 6.65290
#
# Compressibility (1/GPa) = 0.01900452
#
# Stress axis : x y z
#
# Youngs Moduli (GPa) = 96.36837 82.38065 93.43300
#
# Poissons Ratio (x) = 0.32522 0.14241
# Poissons Ratio (y) = 0.38044 0.15276
# Poissons Ratio (z) = 0.14689 0.13469
#
# Static dielectric constant tensor:
#      x y z
#    x 1.639090 0.000000 0.000000 
#    y 0.000000 1.858480 0.000000 
#    z 0.000000 0.000000 1.690240 
# 
# From -- ./inp_files/39398.got.cif
#   From: 2010.05.17/outbox.cif.g08.bks.cpg/sg21_20_cif.got.tgz:39398.got - 2010.06.03 23:14:55.
