data_PCOD9323727
_publ_section_title
;
Structure prediction by ZEFSAII (Michael W. Deem and Ramdas Pophale) SiO2 
 PCOD9323727
Probable space group: C 2 2 2
;
_chemical_formula_sum "Si O2"
_cell_formula_units_Z 48
_cell_length_a 10.369932
_cell_length_b 25.929093
_cell_length_c 8.983011
_cell_angle_alpha 90.000000
_cell_angle_beta 90.000000
_cell_angle_gamma 90.000000
_cell_volume 2415.378329
_symmetry_space_group_name_H-M "C 2 2 2"
_symmetry_group_IT_number 21
_symmetry_cell_setting 'orthorhombic'
loop_
_space_group_symop_operation_xyz
x,y,z
-x,-y,z
x,-y,-z
-x,y,-z
1/2+x,1/2+y,z
1/2-x,1/2-y,z
1/2+x,1/2-y,-z
1/2-x,1/2+y,-z
loop_
_atom_site_type_symbol
_atom_site_label
_atom_site_fract_x
_atom_site_fract_y
_atom_site_fract_z
Si Si1 0.355287 0.945572 0.560167
Si Si2 0.274680 0.379294 0.680149
Si Si3 0.613636 0.909936 0.125724
Si Si4 0.391846 0.727504 0.376778
Si Si5 0.644139 0.440222 0.046971
Si Si6 0.033482 0.681684 0.173400
O O1 0.500000 0.938471 0.500000
O O2 0.272319 0.901377 0.478503
O O3 0.370297 0.949117 0.738236
O O4 0.305324 0.000000 0.500000
O O5 0.373442 0.332341 0.660798
O O6 0.330018 0.425341 0.781893
O O7 0.155194 0.352693 0.770369
O O8 0.583188 0.856773 0.213656
O O9 0.500000 0.919918 0.000000
O O10 0.748169 0.908747 0.042318
O O11 0.500000 0.734411 0.500000
O O12 0.250000 0.750000 0.419589
O O13 0.441722 0.763025 0.242362
O O14 0.662661 0.500000 0.000000
O O15 0.500000 0.425963 0.000000
O O16 0.000000 0.688352 0.000000
#
# Coordination Sequence:
#
# PCOD9323727 Si02
#       6
#     8   8   8   8   8   8
#     4  11  22  36  64 104 137 173 226 287 337 395
#     4  11  22  43  63  96 139 173 221 286 337 405
#     4  11  21  40  69  97 128 177 226 285 336 401
#     4  10  25  43  68  94 131 175 222 277 344 399
#     4  11  24  42  63  94 140 185 224 271 340 412
#     4  10  20  41  67  97 125 169 221 285 335 388
#
# _framework density 19.872664
#
# number of rings (size 3 to 8) (size 9 to 14) (size 15 to 20)
#    0.000    1.333    5.000    1.000    4.667    3.667 
#    0.000    2.500    0.000    3.000    0.000    0.000 
#    0.000    0.000    0.000    0.000    0.000    0.000 
#
# Total GULP energy -133647.786928 kJ/mol
# GULP energy per Si atom -5568.657789 kJ/mol
# Density = 1.982743 g / cm^3
# Si number density = 19.872664 Si / 1000 Ang^3
#
#
#
# Elastic Constant Matrix: (Units=GPa)
#
#
# Indices 1 2 3 4 5 6 
#
# 1 86.1302 18.5158 33.2959 0.0000 0.0000 0.0000
# 2 18.5158 98.5861 32.3848 0.0000 0.0000 0.0000
# 3 33.2959 32.3848 118.5407 0.0000 0.0000 0.0000
# 4 0.0000 0.0000 0.0000 9.3150 0.0000 0.0000
# 5 0.0000 0.0000 0.0000 0.0000 4.3780 0.0000
# 6 0.0000 0.0000 0.0000 0.0000 0.0000 4.6641
#
#
#
# Elastic Compliance Matrix: (Units=1/GPa)
#
#
# Indices 1 2 3 4 5 6 
#
# 1 0.013194 -0.001385 -0.003328 0.000000 0.000000 0.000000
# 2 -0.001385 0.011289 -0.002695 0.000000 0.000000 0.000000
# 3 -0.003328 -0.002695 0.010107 0.000000 0.000000 0.000000
# 4 0.000000 0.000000 0.000000 0.107354 0.000000 0.000000
# 5 0.000000 0.000000 0.000000 0.000000 0.228414 0.000000
# 6 0.000000 0.000000 0.000000 0.000000 0.000000 0.214404
#
#
# Mechanical properties :
#
#
# Convention : Reuss Voigt Hill
#
# Bulk Modulus (GPa) = 50.56960 52.40557 51.48759
# Shear Modulus (GPa) = 8.24852 18.27545 13.26199
#
# Velocity S-wave (km/s) = 2.03953 3.03583 2.58611
# Velocity P-wave (km/s) = 5.57210 6.22224 5.90612
#
# Compressibility (1/GPa) = 0.01977473
#
# Stress axis : x y z
#
# Youngs Moduli (GPa) = 75.78930 88.58311 98.94235
#
# Poissons Ratio (x) = 0.12268 0.32925
# Poissons Ratio (y) = 0.10497 0.26665
# Poissons Ratio (z) = 0.25221 0.23874
#
# Static dielectric constant tensor:
#      x y z
#    x 1.702100 0.000000 0.000000 
#    y 0.000000 1.761500 0.000000 
#    z 0.000000 0.000000 1.817430 
# 
# From -- ./inp_files/11515.got.cif
#   From: 2010.05.17/outbox.cif.g08.bks.cpg/sg21_6_cif.got.tgz:11515.got - 2010.06.03 23:14:55.
