data_PCOD9323660
_publ_section_title
;
Structure prediction by ZEFSAII (Michael W. Deem and Ramdas Pophale) SiO2 
 PCOD9323660
Probable space group: C 2 2 2
;
_chemical_formula_sum "Si O2"
_cell_formula_units_Z 48
_cell_length_a 28.053539
_cell_length_b 9.133366
_cell_length_c 9.962170
_cell_angle_alpha 90.000000
_cell_angle_beta 90.000000
_cell_angle_gamma 90.000000
_cell_volume 2552.539468
_symmetry_space_group_name_H-M "C 2 2 2"
_symmetry_group_IT_number 21
_symmetry_cell_setting 'orthorhombic'
loop_
_space_group_symop_operation_xyz
x,y,z
-x,-y,z
x,-y,-z
-x,y,-z
1/2+x,1/2+y,z
1/2-x,1/2-y,z
1/2+x,1/2-y,-z
1/2-x,1/2+y,-z
loop_
_atom_site_type_symbol
_atom_site_label
_atom_site_fract_x
_atom_site_fract_y
_atom_site_fract_z
Si Si1 0.205303 0.858878 0.908228
Si Si2 0.099747 0.828435 0.533893
Si Si3 0.562231 0.842665 0.721653
Si Si4 0.547535 0.182082 0.769894
Si Si5 0.794102 0.140444 0.593641
Si Si6 0.616832 0.170417 0.012209
O O1 0.250000 0.750000 0.920812
O O2 0.200989 0.899805 0.751021
O O3 0.158256 0.774256 0.958523
O O4 0.212588 0.000000 0.000000
O O5 0.075874 0.733224 0.416931
O O6 0.072738 0.796026 0.671924
O O7 0.155456 0.789547 0.550540
O O8 0.097154 0.000000 0.500000
O O9 0.509042 0.798507 0.767039
O O10 0.600342 0.801241 0.836055
O O11 0.559958 0.019340 0.713935
O O12 0.570738 0.187837 0.916532
O O13 0.750000 0.250000 0.579766
O O14 0.786382 0.000000 0.500000
O O15 0.631964 0.000000 0.000000
#
# Coordination Sequence:
#
# PCOD9323660 Si02
#       6
#     8   8   8   8   8   8
#     4  11  24  43  66  92 124 156 199 248 301 361
#     4  11  23  39  58  89 123 159 199 249 301 355
#     4  10  22  36  63  88 119 162 206 246 299 352
#     4  10  20  40  59  88 122 158 206 253 292 353
#     4  10  24  44  63  90 121 158 198 246 298 357
#     4  10  21  39  62  91 121 159 200 250 303 352
#
# _framework density 18.804801999999999
#
# number of rings (size 3 to 8) (size 9 to 14) (size 15 to 20)
#    0.000    1.667    1.667    2.000    4.667    6.667 
#    3.000    0.000    0.000    3.000    0.000    0.000 
#    0.000    0.000    0.000    0.000    0.000    0.000 
#
# Total GULP energy -134094.206173 kJ/mol
# GULP energy per Si atom -5587.258591 kJ/mol
# Density = 1.876200 g / cm^3
# Si number density = 18.804802 Si / 1000 Ang^3
#
#
#
# Elastic Constant Matrix: (Units=GPa)
#
#
# Indices 1 2 3 4 5 6 
#
# 1 87.3936 33.4532 19.3276 0.0000 0.0000 0.0000
# 2 33.4532 45.2455 38.6758 0.0000 0.0000 0.0000
# 3 19.3276 38.6758 86.6804 0.0000 0.0000 0.0000
# 4 0.0000 0.0000 0.0000 29.7268 0.0000 0.0000
# 5 0.0000 0.0000 0.0000 0.0000 28.0879 0.0000
# 6 0.0000 0.0000 0.0000 0.0000 0.0000 21.1879
#
#
#
# Elastic Compliance Matrix: (Units=1/GPa)
#
#
# Indices 1 2 3 4 5 6 
#
# 1 0.016378 -0.014529 0.002831 0.000000 0.000000 0.000000
# 2 -0.014529 0.048618 -0.018453 0.000000 0.000000 0.000000
# 3 0.002831 -0.018453 0.019139 0.000000 0.000000 0.000000
# 4 0.000000 0.000000 0.000000 0.033640 0.000000 0.000000
# 5 0.000000 0.000000 0.000000 0.000000 0.035603 0.000000
# 6 0.000000 0.000000 0.000000 0.000000 0.000000 0.047197
#
#
# Mechanical properties :
#
#
# Convention : Reuss Voigt Hill
#
# Bulk Modulus (GPa) = 41.96047 44.69251 43.32649
# Shear Modulus (GPa) = 18.59974 24.32469 21.46222
#
# Velocity S-wave (km/s) = 3.14840 3.60048 3.38200
# Velocity P-wave (km/s) = 5.96479 6.41114 6.19199
#
# Compressibility (1/GPa) = 0.02383196
#
# Stress axis : x y z
#
# Youngs Moduli (GPa) = 61.05720 20.56856 52.24949
#
# Poissons Ratio (x) = 0.29885 -0.14791
# Poissons Ratio (y) = 0.88712 0.96416
# Poissons Ratio (z) = -0.17285 0.37955
#
# Static dielectric constant tensor:
#      x y z
#    x 1.635810 0.000000 0.000000 
#    y 0.000000 1.626120 0.000000 
#    z 0.000000 0.000000 1.624920 
# 
# From -- ./inp_files/19648.got.cif
#   From: 2010.05.17/outbox.cif.g08.bks.cpg/sg21_10_cif.got.tgz:19648.got - 2010.06.03 23:14:55.
