data_PCOD9323541
_publ_section_title
;
Structure prediction by ZEFSAII (Michael W. Deem and Ramdas Pophale) SiO2 
 PCOD9323541
Probable space group: C 2 2 2
;
_chemical_formula_sum "Si O2"
_cell_formula_units_Z 56
_cell_length_a 15.930428
_cell_length_b 9.384388
_cell_length_c 16.813579
_cell_angle_alpha 90.000000
_cell_angle_beta 90.000000
_cell_angle_gamma 90.000000
_cell_volume 2513.584956
_symmetry_space_group_name_H-M "C 2 2 2"
_symmetry_group_IT_number 21
_symmetry_cell_setting 'orthorhombic'
loop_
_space_group_symop_operation_xyz
x,y,z
-x,-y,z
x,-y,-z
-x,y,-z
1/2+x,1/2+y,z
1/2-x,1/2-y,z
1/2+x,1/2-y,-z
1/2-x,1/2+y,-z
loop_
_atom_site_type_symbol
_atom_site_label
_atom_site_fract_x
_atom_site_fract_y
_atom_site_fract_z
Si Si1 0.872121 0.837915 0.421281
Si Si2 0.805543 0.466306 0.592524
Si Si3 0.497539 0.170072 0.152637
Si Si4 0.150095 0.242446 0.602710
Si Si5 0.333330 0.664918 0.099490
Si Si6 0.013879 0.853317 0.295429
Si Si7 0.833403 0.166188 0.907542
O O1 0.840287 0.687179 0.388283
O O2 0.795724 0.947473 0.403961
O O3 0.955870 0.866938 0.373470
O O4 0.883098 0.188999 0.483617
O O5 0.820396 0.500000 0.500000
O O6 0.860252 0.591995 0.629545
O O7 0.583237 0.248051 0.123736
O O8 0.490339 0.217278 0.244347
O O9 0.416603 0.244108 0.112788
O O10 0.500000 0.000000 0.140107
O O11 0.250000 0.250000 0.592365
O O12 0.108202 0.159161 0.673989
O O13 0.250000 0.750000 0.127983
O O14 0.335063 0.497456 0.123807
O O15 0.329396 0.660892 0.003444
O O16 0.000000 0.000000 0.248286
O O17 0.750000 0.250000 0.878957
#
# Coordination Sequence:
#
# PCOD9323541 Si02
#       7
#     8   8   8   8   8   8   8
#     4  10  20  38  62  88 116 154 204 266 327 386
#     4   9  17  35  63  87 116 147 196 261 327 386
#     4  12  27  46  63  93 140 184 224 271 323 388
#     4  11  21  38  64  90 117 156 208 272 329 394
#     4  10  21  41  76 107 140 172 217 267 319 382
#     4  12  28  41  60  88 125 168 214 266 325 395
#     4  10  21  42  73 111 137 173 217 266 321 382
#
# _framework density 22.278935000000001
#
# number of rings (size 3 to 8) (size 9 to 14) (size 15 to 20)
#    0.000    1.429    2.857    3.857    2.000    4.571 
#    2.571    5.000    0.000    0.000    0.000    0.000 
#    0.000    0.000    0.000    0.000    0.000    0.000 
#
# Total GULP energy -156160.221920 kJ/mol
# GULP energy per Si atom -5577.150783 kJ/mol
# Density = 2.222823 g / cm^3
# Si number density = 22.278935 Si / 1000 Ang^3
#
#
#
# Elastic Constant Matrix: (Units=GPa)
#
#
# Indices 1 2 3 4 5 6 
#
# 1 137.5752 81.4296 22.7825 0.0000 0.0000 0.0000
# 2 81.4296 195.9419 22.5208 0.0000 0.0000 0.0000
# 3 22.7825 22.5208 25.8766 0.0000 0.0000 0.0000
# 4 0.0000 0.0000 0.0000 26.4415 0.0000 0.0000
# 5 0.0000 0.0000 0.0000 0.0000 -3.2248 0.0000
# 6 0.0000 0.0000 0.0000 0.0000 0.0000 38.8982
#
#
#
# Elastic Compliance Matrix: (Units=1/GPa)
#
#
# Indices 1 2 3 4 5 6 
#
# 1 0.010417 -0.003639 -0.006004 0.000000 0.000000 0.000000
# 2 -0.003639 0.006942 -0.002838 0.000000 0.000000 0.000000
# 3 -0.006004 -0.002838 0.046401 0.000000 0.000000 0.000000
# 4 0.000000 0.000000 0.000000 0.037819 0.000000 0.000000
# 5 0.000000 0.000000 0.000000 0.000000 -0.310096 0.000000
# 6 0.000000 0.000000 0.000000 0.000000 0.000000 0.025708
#
#
# Mechanical properties :
#
#
# Convention : Reuss Voigt Hill
#
# Bulk Modulus (GPa) = 25.77469 68.09550 46.93510
# Shear Modulus (GPa) = -34.50344 27.93371 -3.28487
#
# Velocity S-wave (km/s) = -3.93962 3.54477 -1.21558
# Velocity P-wave (km/s) = 3.01662 6.88369 4.37522
#
# Compressibility (1/GPa) = 0.03879775
#
# Stress axis : x y z
#
# Youngs Moduli (GPa) = 95.99745 144.05053 21.55119
#
# Poissons Ratio (x) = 0.52419 0.12940
# Poissons Ratio (y) = 0.34933 0.06116
# Poissons Ratio (z) = 0.57640 0.40880
#
# Static dielectric constant tensor:
#      x y z
#    x 1.806450 0.000000 0.000000 
#    y 0.000000 2.111550 0.000000 
#    z 0.000000 0.000000 1.818090 
# 
# From -- ./inp_files/37597.got.cif
#   From: 2010.05.17/outbox.cif.g08.bks.cpg/sg21_19_cif.got.tgz:37597.got - 2010.06.03 23:14:55.
