data_PCOD9323956
_publ_section_title
;
Structure prediction by ZEFSAII (Michael W. Deem and Ramdas Pophale) SiO2 
 PCOD9323956
Probable space group: C 2 2 2
;
_chemical_formula_sum "Si O2"
_cell_formula_units_Z 32
_cell_length_a 5.295176
_cell_length_b 14.327740
_cell_length_c 18.258104
_cell_angle_alpha 90.000000
_cell_angle_beta 90.000000
_cell_angle_gamma 90.000000
_cell_volume 1385.204099
_symmetry_space_group_name_H-M "C 2 2 2"
_symmetry_group_IT_number 21
_symmetry_cell_setting 'orthorhombic'
loop_
_space_group_symop_operation_xyz
x,y,z
-x,-y,z
x,-y,-z
-x,y,-z
1/2+x,1/2+y,z
1/2-x,1/2-y,z
1/2+x,1/2-y,-z
1/2-x,1/2+y,-z
loop_
_atom_site_type_symbol
_atom_site_label
_atom_site_fract_x
_atom_site_fract_y
_atom_site_fract_z
Si Si1 0.781310 0.896961 0.787573
Si Si2 0.253603 0.637310 0.045629
Si Si3 0.295300 0.105863 0.273257
Si Si4 0.003287 0.685401 0.581038
O O1 0.799828 0.905410 0.874333
O O2 0.510932 0.848801 0.776709
O O3 0.018158 0.853866 0.743976
O O4 0.745308 0.999243 0.751881
O O5 0.250000 0.750000 0.055683
O O6 0.500000 0.613288 0.000000
O O7 0.000000 0.612304 0.000000
O O8 0.419396 0.116854 0.353169
O O9 0.250000 0.750000 0.578743
O O10 0.000000 0.640450 0.500000
O O11 0.750000 0.750000 0.591793
#
# Coordination Sequence:
#
# PCOD9323956 Si02
#       4
#     8   8   8   8
#     4  10  21  38  59  87 121 158 201 247 307 371
#     4  10  21  38  59  85 118 156 200 251 305 364
#     4  10  21  38  57  86 122 156 199 248 305 370
#     4  10  21  38  62  90 120 159 205 254 309 369
#
# _framework density 23.101289000000001
#
# number of rings (size 3 to 8) (size 9 to 14) (size 15 to 20)
#    0.000    2.000    0.000    3.000    0.000    3.000 
#    0.000   17.500    0.000    6.000    0.000    0.000 
#    0.000    0.000    0.000    0.000    0.000    0.000 
#
# Total GULP energy -89184.598514 kJ/mol
# GULP energy per Si atom -5574.037407 kJ/mol
# Density = 2.304871 g / cm^3
# Si number density = 23.101289 Si / 1000 Ang^3
#
#
#
# Elastic Constant Matrix: (Units=GPa)
#
#
# Indices 1 2 3 4 5 6 
#
# 1 241.5109 19.9425 77.0788 0.0000 0.0000 0.0000
# 2 19.9425 95.3217 51.9081 0.0000 0.0000 0.0000
# 3 77.0788 51.9081 248.1382 0.0000 0.0000 0.0000
# 4 0.0000 0.0000 0.0000 201.2762 0.0000 0.0000
# 5 0.0000 0.0000 0.0000 0.0000 40.4729 0.0000
# 6 0.0000 0.0000 0.0000 0.0000 0.0000 -8.5544
#
#
#
# Elastic Compliance Matrix: (Units=1/GPa)
#
#
# Indices 1 2 3 4 5 6 
#
# 1 0.004600 -0.000208 -0.001385 0.000000 0.000000 0.000000
# 2 -0.000208 0.011849 -0.002414 0.000000 0.000000 0.000000
# 3 -0.001385 -0.002414 0.004965 0.000000 0.000000 0.000000
# 4 0.000000 0.000000 0.000000 0.004968 0.000000 0.000000
# 5 0.000000 0.000000 0.000000 0.000000 0.024708 0.000000
# 6 0.000000 0.000000 0.000000 0.000000 0.000000 -0.116899
#
#
# Mechanical properties :
#
#
# Convention : Reuss Voigt Hill
#
# Bulk Modulus (GPa) = 74.63037 98.09219 86.36128
# Shear Modulus (GPa) = -93.76091 75.70835 -9.02628
#
# Velocity S-wave (km/s) = -6.37769 5.73092 -1.97882
# Velocity P-wave (km/s) = 4.67520 9.29222 5.67837
#
# Compressibility (1/GPa) = 0.01339937
#
# Stress axis : x y z
#
# Youngs Moduli (GPa) = 217.39535 84.39605 201.39578
#
# Poissons Ratio (x) = 0.01755 0.27901
# Poissons Ratio (y) = 0.04521 0.48619
# Poissons Ratio (z) = 0.30117 0.20374
#
# Static dielectric constant tensor:
#      x y z
#    x 1.806060 0.000000 0.000000 
#    y 0.000000 1.847390 0.000000 
#    z 0.000000 0.000000 1.980510 
# 
# From -- ./inp_files/28619.got.cif
#   From: 2010.05.17/outbox.cif.g08.bks.cpg/sg21_15_cif.got.tgz:28619.got - 2010.06.03 23:14:55.
