data_PCOD9323975
_publ_section_title
;
Structure prediction by ZEFSAII (Michael W. Deem and Ramdas Pophale) SiO2 
 PCOD9323975
Probable space group: C 2 2 2
;
_chemical_formula_sum "Si O2"
_cell_formula_units_Z 40
_cell_length_a 29.074421
_cell_length_b 12.974336
_cell_length_c 5.219397
_cell_angle_alpha 90.000000
_cell_angle_beta 90.000000
_cell_angle_gamma 90.000000
_cell_volume 1968.867758
_symmetry_space_group_name_H-M "C 2 2 2"
_symmetry_group_IT_number 21
_symmetry_cell_setting 'orthorhombic'
loop_
_space_group_symop_operation_xyz
x,y,z
-x,-y,z
x,-y,-z
-x,y,-z
1/2+x,1/2+y,z
1/2-x,1/2-y,z
1/2+x,1/2-y,-z
1/2-x,1/2+y,-z
loop_
_atom_site_type_symbol
_atom_site_label
_atom_site_fract_x
_atom_site_fract_y
_atom_site_fract_z
Si Si1 0.720375 0.624070 0.500211
Si Si2 0.020674 0.383249 0.757639
Si Si3 0.622400 0.177827 0.126141
Si Si4 0.675209 0.883766 0.387100
Si Si5 0.162790 0.877273 0.997055
O O1 0.721958 0.500000 0.500000
O O2 0.772127 0.653055 0.418408
O O3 0.684714 0.649929 0.276101
O O4 0.701489 0.647421 0.784732
O O5 0.074677 0.379909 0.813807
O O6 0.000000 0.500000 0.755167
O O7 0.000000 0.336571 0.500000
O O8 0.000000 0.326327 0.000000
O O9 0.646430 0.175888 0.400817
O O10 0.652711 0.125998 0.895998
O O11 0.621072 0.298449 0.047383
O O12 0.673574 0.000000 0.500000
O O13 0.152655 0.000000 0.000000
#
# Coordination Sequence:
#
# PCOD9323975 Si02
#       5
#     8   8   8   8   8
#     4   9  19  37  55  82 124 172 200 246 315 330
#     4  10  23  40  61  83 117 154 184 246 313 384
#     4  12  24  37  61  92 112 163 212 243 313 367
#     4  11  24  36  56  89 130 159 203 259 289 373
#     4  10  21  38  60  83 121 161 212 256 287 363
#
# _framework density 20.316246
#
# number of rings (size 3 to 8) (size 9 to 14) (size 15 to 20)
#    0.000    1.600    0.000    4.200    8.400    8.000 
#    0.000    0.000    0.000    0.600    0.000    1.400 
#    0.000    0.000    0.000    0.000    0.000    0.000 
#
# Total GULP energy -111479.207915 kJ/mol
# GULP energy per Si atom -5573.960396 kJ/mol
# Density = 2.027001 g / cm^3
# Si number density = 20.316246 Si / 1000 Ang^3
#
#
#
# Elastic Constant Matrix: (Units=GPa)
#
#
# Indices 1 2 3 4 5 6 
#
# 1 114.4895 40.7648 42.8136 0.0000 0.0000 0.0000
# 2 40.7648 90.8320 11.7933 0.0000 0.0000 0.0000
# 3 42.8136 11.7933 166.5079 0.0000 0.0000 0.0000
# 4 0.0000 0.0000 0.0000 25.7328 0.0000 0.0000
# 5 0.0000 0.0000 0.0000 0.0000 27.1622 0.0000
# 6 0.0000 0.0000 0.0000 0.0000 0.0000 24.6002
#
#
#
# Elastic Compliance Matrix: (Units=1/GPa)
#
#
# Indices 1 2 3 4 5 6 
#
# 1 0.011408 -0.004783 -0.002594 0.000000 0.000000 0.000000
# 2 -0.004783 0.013117 0.000301 0.000000 0.000000 0.000000
# 3 -0.002594 0.000301 0.006652 0.000000 0.000000 0.000000
# 4 0.000000 0.000000 0.000000 0.038861 0.000000 0.000000
# 5 0.000000 0.000000 0.000000 0.000000 0.036816 0.000000
# 6 0.000000 0.000000 0.000000 0.000000 0.000000 0.040650
#
#
# Mechanical properties :
#
#
# Convention : Reuss Voigt Hill
#
# Bulk Modulus (GPa) = 58.74431 62.50807 60.62619
# Shear Modulus (GPa) = 29.88108 33.92956 31.90532
#
# Velocity S-wave (km/s) = 3.83926 4.09108 3.96717
# Velocity P-wave (km/s) = 6.97359 7.29042 7.13376
#
# Compressibility (1/GPa) = 0.01702293
#
# Stress axis : x y z
#
# Youngs Moduli (GPa) = 87.66111 76.23827 150.34170
#
# Poissons Ratio (x) = 0.36463 0.39005
# Poissons Ratio (y) = 0.41926 -0.04522
# Poissons Ratio (z) = 0.22743 -0.02293
#
# Static dielectric constant tensor:
#      x y z
#    x 1.871440 0.000000 0.000000 
#    y 0.000000 1.867050 0.000000 
#    z 0.000000 0.000000 1.740060 
# 
# From -- ./inp_files/6606.got.cif
#   From: 2010.05.17/outbox.cif.g08.bks.cpg/sg21_4_cif.got.tgz:6606.got - 2010.06.03 23:14:55.
