data_PCOD9323333
_publ_section_title
;
Structure prediction by ZEFSAII (Michael W. Deem and Ramdas Pophale) SiO2 
 PCOD9323333
Probable space group: C 2 2 2
;
_chemical_formula_sum "Si O2"
_cell_formula_units_Z 48
_cell_length_a 14.401664
_cell_length_b 27.386965
_cell_length_c 5.883155
_cell_angle_alpha 90.000000
_cell_angle_beta 90.000000
_cell_angle_gamma 90.000000
_cell_volume 2320.421452
_symmetry_space_group_name_H-M "C 2 2 2"
_symmetry_group_IT_number 21
_symmetry_cell_setting 'orthorhombic'
loop_
_space_group_symop_operation_xyz
x,y,z
-x,-y,z
x,-y,-z
-x,y,-z
1/2+x,1/2+y,z
1/2-x,1/2-y,z
1/2+x,1/2-y,-z
1/2-x,1/2+y,-z
loop_
_atom_site_type_symbol
_atom_site_label
_atom_site_fract_x
_atom_site_fract_y
_atom_site_fract_z
Si Si1 0.898975 0.374595 0.074265
Si Si2 0.748709 0.807691 0.666779
Si Si3 0.401274 0.368245 0.903085
Si Si4 0.867189 0.522661 0.754132
Si Si5 0.752389 0.621162 0.285262
Si Si6 0.165386 0.044896 0.634366
O O1 0.831832 0.333660 0.183256
O O2 0.903872 0.421487 0.238722
O O3 0.843725 0.393129 0.851656
O O4 0.000000 0.357243 0.000000
O O5 0.750000 0.750000 0.686091
O O6 0.848554 0.829746 0.742014
O O7 0.731719 0.827990 0.414281
O O8 0.402732 0.420670 0.776388
O O9 0.500000 0.353534 0.000000
O O10 0.330709 0.374149 0.109533
O O11 0.888015 0.500000 0.500000
O O12 0.754320 0.524395 0.769845
O O13 0.898047 0.500000 0.000000
O O14 0.718587 0.581392 0.463488
O O15 0.121354 0.000000 0.500000
#
# Coordination Sequence:
#
# PCOD9323333 Si02
#       6
#     8   8   8   8   8   8
#     4  11  23  41  64  98 136 175 224 286 342 415
#     4  10  23  43  65  93 124 173 227 280 358 422
#     4  10  22  40  65  90 127 164 219 283 342 404
#     4  11  22  39  67  96 135 185 229 276 340 415
#     4  10  20  42  60  88 126 173 210 284 344 404
#     4  10  20  35  62  87 125 174 219 262 331 401
#
# _framework density 20.685898000000002
#
# number of rings (size 3 to 8) (size 9 to 14) (size 15 to 20)
#    0.000    1.667    5.000    2.000    0.000    7.000 
#    0.000    7.500    0.000    0.000    0.000    0.000 
#    0.000    0.000    0.000    0.000    0.000    0.000 
#
# Total GULP energy -133922.544622 kJ/mol
# GULP energy per Si atom -5580.106026 kJ/mol
# Density = 2.063882 g / cm^3
# Si number density = 20.685898 Si / 1000 Ang^3
#
#
#
# Elastic Constant Matrix: (Units=GPa)
#
#
# Indices 1 2 3 4 5 6 
#
# 1 92.4157 24.1355 13.9422 0.0000 0.0000 0.0000
# 2 24.1355 151.1536 48.4404 0.0000 0.0000 0.0000
# 3 13.9422 48.4404 102.0046 0.0000 0.0000 0.0000
# 4 0.0000 0.0000 0.0000 22.4074 0.0000 0.0000
# 5 0.0000 0.0000 0.0000 0.0000 -11.0040 0.0000
# 6 0.0000 0.0000 0.0000 0.0000 0.0000 7.7187
#
#
#
# Elastic Compliance Matrix: (Units=1/GPa)
#
#
# Indices 1 2 3 4 5 6 
#
# 1 0.011349 -0.001551 -0.000815 0.000000 0.000000 0.000000
# 2 -0.001551 0.008015 -0.003594 0.000000 0.000000 0.000000
# 3 -0.000815 -0.003594 0.011622 0.000000 0.000000 0.000000
# 4 0.000000 0.000000 0.000000 0.044628 0.000000 0.000000
# 5 0.000000 0.000000 0.000000 0.000000 -0.090876 0.000000
# 6 0.000000 0.000000 0.000000 0.000000 0.000000 0.129556
#
#
# Mechanical properties :
#
#
# Convention : Reuss Voigt Hill
#
# Bulk Modulus (GPa) = 52.45015 57.62332 55.03673
# Shear Modulus (GPa) = 37.71616 21.09480 29.40548
#
# Velocity S-wave (km/s) = 4.27462 3.19684 3.77440
# Velocity P-wave (km/s) = 7.05505 6.44540 6.75710
#
# Compressibility (1/GPa) = 0.01906572
#
# Stress axis : x y z
#
# Youngs Moduli (GPa) = 88.11625 124.76077 86.04577
#
# Poissons Ratio (x) = 0.19351 0.07009
# Poissons Ratio (y) = 0.13667 0.30928
# Poissons Ratio (z) = 0.07178 0.44843
#
# Static dielectric constant tensor:
#      x y z
#    x 1.718530 0.000000 0.000000 
#    y 0.000000 1.759440 0.000000 
#    z 0.000000 0.000000 1.809750 
# 
# From -- ./inp_files/4113.got.cif
#   From: 2010.05.17/outbox.cif.g08.bks.cpg/sg21_3_cif.got.tgz:4113.got - 2010.06.03 23:14:55.
