data_PCOD9323903
_publ_section_title
;
Structure prediction by ZEFSAII (Michael W. Deem and Ramdas Pophale) SiO2 
 PCOD9323903
Probable space group: C 2 2 2
;
_chemical_formula_sum "Si O2"
_cell_formula_units_Z 34
_cell_length_a 14.827712
_cell_length_b 16.857574
_cell_length_c 7.095252
_cell_angle_alpha 90.000000
_cell_angle_beta 90.000000
_cell_angle_gamma 90.000000
_cell_volume 1773.523885
_symmetry_space_group_name_H-M "C 2 2 2"
_symmetry_group_IT_number 21
_symmetry_cell_setting 'orthorhombic'
loop_
_space_group_symop_operation_xyz
x,y,z
-x,-y,z
x,-y,-z
-x,y,-z
1/2+x,1/2+y,z
1/2-x,1/2-y,z
1/2+x,1/2-y,-z
1/2-x,1/2+y,-z
loop_
_atom_site_type_symbol
_atom_site_label
_atom_site_fract_x
_atom_site_fract_y
_atom_site_fract_z
Si Si1 0.000000 0.500000 0.000000
Si Si2 0.000000 0.118077 0.000000
Si Si3 0.781664 0.928123 0.375555
Si Si4 0.579584 0.707835 0.349835
Si Si5 0.148823 0.000000 0.000000
Si Si6 0.921986 0.396010 0.658139
O O1 0.053642 0.442636 0.147922
O O2 0.045887 0.169943 0.157162
O O3 0.921190 0.063445 0.087450
O O4 0.833743 0.845147 0.406781
O O5 0.675965 0.921251 0.415174
O O6 0.820689 0.000000 0.500000
O O7 0.794800 0.956108 0.159509
O O8 0.500000 0.697163 0.500000
O O9 0.589749 0.801371 0.316570
O O10 0.000000 0.408659 0.500000
#
# Coordination Sequence:
#
# PCOD9323903 Si02
#       6
#     2   4   8   8   4   8
#     4  12  22  40  64  78 108 156 192 236 292 330
#     4   9  17  34  55  83 114 144 180 229 289 348
#     4  11  21  36  58  84 114 151 190 232 286 342
#     4  10  21  37  58  84 117 150 184 234 289 339
#     4   9  19  32  55  85 112 140 185 233 281 351
#     4  11  24  40  58  84 114 150 198 240 277 332
#
# _framework density 19.170873
#
# number of rings (size 3 to 8) (size 9 to 14) (size 15 to 20)
#    0.000    1.647    0.000    5.294    0.000    2.353 
#    0.000    0.000    0.000    8.471    0.000    0.000 
#    0.000    0.000    0.000    0.000    0.000    0.000 
#
# Total GULP energy -94783.206351 kJ/mol
# GULP energy per Si atom -5575.482727 kJ/mol
# Density = 1.912724 g / cm^3
# Si number density = 19.170873 Si / 1000 Ang^3
#
#
#
# Elastic Constant Matrix: (Units=GPa)
#
#
# Indices 1 2 3 4 5 6 
#
# 1 108.2342 60.5990 25.9083 0.0000 0.0000 0.0000
# 2 60.5990 162.6040 42.1985 0.0000 0.0000 0.0000
# 3 25.9083 42.1985 55.1316 0.0000 0.0000 0.0000
# 4 0.0000 0.0000 0.0000 35.3101 0.0000 0.0000
# 5 0.0000 0.0000 0.0000 0.0000 20.9126 0.0000
# 6 0.0000 0.0000 0.0000 0.0000 0.0000 3.5538
#
#
#
# Elastic Compliance Matrix: (Units=1/GPa)
#
#
# Indices 1 2 3 4 5 6 
#
# 1 0.012004 -0.003756 -0.002767 0.000000 0.000000 0.000000
# 2 -0.003756 0.008849 -0.005008 0.000000 0.000000 0.000000
# 3 -0.002767 -0.005008 0.023272 0.000000 0.000000 0.000000
# 4 0.000000 0.000000 0.000000 0.028321 0.000000 0.000000
# 5 0.000000 0.000000 0.000000 0.000000 0.047818 0.000000
# 6 0.000000 0.000000 0.000000 0.000000 0.000000 0.281391
#
#
# Mechanical properties :
#
#
# Convention : Reuss Voigt Hill
#
# Bulk Modulus (GPa) = 47.47394 64.82017 56.14706
# Shear Modulus (GPa) = 11.58109 25.10623 18.34366
#
# Velocity S-wave (km/s) = 2.46051 3.62277 3.09666
# Velocity P-wave (km/s) = 5.73493 7.16830 6.49130
#
# Compressibility (1/GPa) = 0.02106419
#
# Stress axis : x y z
#
# Youngs Moduli (GPa) = 83.30370 113.00206 42.96998
#
# Poissons Ratio (x) = 0.42441 0.11888
# Poissons Ratio (y) = 0.31287 0.21521
# Poissons Ratio (z) = 0.23046 0.56597
#
# Static dielectric constant tensor:
#      x y z
#    x 1.631160 0.000000 0.000000 
#    y 0.000000 1.707950 0.000000 
#    z 0.000000 0.000000 1.639430 
# 
# From -- ./inp_files/3744.got.cif
#   From: 2010.05.17/outbox.cif.g08.bks.cpg/sg21_2_cif.got.tgz:3744.got - 2010.06.03 23:14:55.
