data_PCOD9323393
_publ_section_title
;
Structure prediction by ZEFSAII (Michael W. Deem and Ramdas Pophale) SiO2 
 PCOD9323393
Probable space group: C 2 2 2
;
_chemical_formula_sum "Si O2"
_cell_formula_units_Z 40
_cell_length_a 11.600874
_cell_length_b 30.840689
_cell_length_c 5.896244
_cell_angle_alpha 90.000000
_cell_angle_beta 90.000000
_cell_angle_gamma 90.000000
_cell_volume 2109.551971
_symmetry_space_group_name_H-M "C 2 2 2"
_symmetry_group_IT_number 21
_symmetry_cell_setting 'orthorhombic'
loop_
_space_group_symop_operation_xyz
x,y,z
-x,-y,z
x,-y,-z
-x,y,-z
1/2+x,1/2+y,z
1/2-x,1/2-y,z
1/2+x,1/2-y,-z
1/2-x,1/2+y,-z
loop_
_atom_site_type_symbol
_atom_site_label
_atom_site_fract_x
_atom_site_fract_y
_atom_site_fract_z
Si Si1 0.180301 0.181756 0.653080
Si Si2 0.134564 0.984412 0.749472
Si Si3 0.181661 0.117346 0.282435
Si Si4 0.500000 0.672259 0.000000
Si Si5 0.750000 0.250000 0.707967
Si Si6 0.134665 0.674271 0.967656
O O1 0.162050 0.134942 0.537392
O O2 0.186549 0.215897 0.452196
O O3 0.079570 0.196387 0.821224
O O4 0.297539 0.177796 0.794690
O O5 0.157679 0.933067 0.742965
O O6 0.180476 0.000000 0.500000
O O7 0.000000 0.000000 0.749254
O O8 0.179368 0.000000 0.000000
O O9 0.087925 0.142175 0.133345
O O10 0.302436 0.136783 0.184120
O O11 0.836700 0.279649 0.850228
O O12 0.000000 0.667000 0.000000
#
# Coordination Sequence:
#
# PCOD9323393 Si02
#       6
#     8   8   8   4   4   8
#     4  10  22  40  59  90 127 164 220 267 329 396
#     4  10  22  35  61  99 139 170 204 269 330 405
#     4  10  22  38  63  94 127 175 213 260 330 395
#     4  10  20  36  61  86 128 164 210 264 328 399
#     4  10  22  44  56  96 118 164 220 278 334 372
#     4  10  23  45  64  87 124 174 221 272 319 394
#
# _framework density 18.961372000000001
#
# number of rings (size 3 to 8) (size 9 to 14) (size 15 to 20)
#    0.000    2.000    0.000    2.400   11.200    3.200 
#   43.200    0.000    0.000    0.600    0.000    0.000 
#    0.000    0.000    0.000    0.000    0.000    0.000 
#
# Total GULP energy -111524.453533 kJ/mol
# GULP energy per Si atom -5576.222677 kJ/mol
# Density = 1.891821 g / cm^3
# Si number density = 18.961372 Si / 1000 Ang^3
#
#
#
# Elastic Constant Matrix: (Units=GPa)
#
#
# Indices 1 2 3 4 5 6 
#
# 1 125.5980 28.6793 34.2358 0.0000 0.0000 0.0000
# 2 28.6793 116.8162 38.6015 0.0000 0.0000 0.0000
# 3 34.2358 38.6015 124.9492 0.0000 0.0000 0.0000
# 4 0.0000 0.0000 0.0000 18.2235 0.0000 0.0000
# 5 0.0000 0.0000 0.0000 0.0000 59.2200 0.0000
# 6 0.0000 0.0000 0.0000 0.0000 0.0000 17.1306
#
#
#
# Elastic Compliance Matrix: (Units=1/GPa)
#
#
# Indices 1 2 3 4 5 6 
#
# 1 0.008842 -0.001526 -0.001951 0.000000 0.000000 0.000000
# 2 -0.001526 0.009797 -0.002609 0.000000 0.000000 0.000000
# 3 -0.001951 -0.002609 0.009344 0.000000 0.000000 0.000000
# 4 0.000000 0.000000 0.000000 0.054874 0.000000 0.000000
# 5 0.000000 0.000000 0.000000 0.000000 0.016886 0.000000
# 6 0.000000 0.000000 0.000000 0.000000 0.000000 0.058375
#
#
# Mechanical properties :
#
#
# Convention : Reuss Voigt Hill
#
# Bulk Modulus (GPa) = 63.24579 63.37741 63.31160
# Shear Modulus (GPa) = 28.48013 36.63793 32.55903
#
# Velocity S-wave (km/s) = 3.87978 4.40049 4.14832
# Velocity P-wave (km/s) = 7.31421 7.70170 7.51046
#
# Compressibility (1/GPa) = 0.01581133
#
# Stress axis : x y z
#
# Youngs Moduli (GPa) = 113.09327 102.07096 107.02295
#
# Poissons Ratio (x) = 0.15576 0.20883
# Poissons Ratio (y) = 0.17259 0.27918
# Poissons Ratio (z) = 0.22068 0.26626
#
# Static dielectric constant tensor:
#      x y z
#    x 1.662120 0.000000 0.000000 
#    y 0.000000 1.468980 0.000000 
#    z 0.000000 0.000000 1.734980 
# 
# From -- ./inp_files/3027.got.cif
#   From: 2010.05.17/outbox.cif.g08.bks.cpg/sg21_2_cif.got.tgz:3027.got - 2010.06.03 23:14:55.
