data_PCOD9323079
_publ_section_title
;
Structure prediction by ZEFSAII (Michael W. Deem and Ramdas Pophale) SiO2 
 PCOD9323079
Probable space group: C 2 2 2
;
_chemical_formula_sum "Si O2"
_cell_formula_units_Z 58
_cell_length_a 12.516201
_cell_length_b 26.079271
_cell_length_c 8.106080
_cell_angle_alpha 90.000000
_cell_angle_beta 90.000000
_cell_angle_gamma 90.000000
_cell_volume 2645.933115
_symmetry_space_group_name_H-M "C 2 2 2"
_symmetry_group_IT_number 21
_symmetry_cell_setting 'orthorhombic'
loop_
_space_group_symop_operation_xyz
x,y,z
-x,-y,z
x,-y,-z
-x,y,-z
1/2+x,1/2+y,z
1/2-x,1/2-y,z
1/2+x,1/2-y,-z
1/2-x,1/2+y,-z
loop_
_atom_site_type_symbol
_atom_site_label
_atom_site_fract_x
_atom_site_fract_y
_atom_site_fract_z
Si Si1 0.455058 0.756529 0.812018
Si Si2 0.091556 0.423930 0.256465
Si Si3 0.209125 0.666206 0.934703
Si Si4 0.500000 0.000000 0.000000
Si Si5 0.414550 0.355091 0.234897
Si Si6 0.399816 0.846741 0.288108
Si Si7 0.742369 0.594611 0.505569
Si Si8 0.450372 0.446556 0.684720
O O1 0.341012 0.783761 0.846591
O O2 0.457040 0.701464 0.726118
O O3 0.525312 0.797008 0.708266
O O4 0.500000 0.751673 0.000000
O O5 0.155798 0.379899 0.163658
O O6 0.168843 0.438503 0.407344
O O7 0.978449 0.396286 0.294589
O O8 0.071435 0.467222 0.123486
O O9 0.335020 0.657932 0.916518
O O10 0.163393 0.660538 0.117193
O O11 0.340962 0.379569 0.378568
O O12 0.505040 0.397998 0.214487
O O13 0.310734 0.858345 0.422017
O O14 0.675093 0.562739 0.642809
O O15 0.500000 0.500000 0.753551
O O16 0.500000 0.445044 0.500000
#
# Coordination Sequence:
#
# PCOD9323079 Si02
#       8
#     8   8   8   2   8   8   8   8
#     4   9  19  36  65  90 126 170 212 270 331 394
#     4  10  20  39  60  93 130 166 208 273 330 392
#     4   9  18  37  63  87 124 168 211 263 329 392
#     4  12  20  40  66  96 138 164 214 276 326 392
#     4  10  20  38  63  93 120 166 227 271 324 392
#     4  10  19  40  62  93 132 170 210 272 345 407
#     4  10  22  40  65  91 130 173 217 267 340 411
#     4   9  20  43  61  82 123 171 216 273 324 376
#
# _framework density 21.920432999999999
#
# number of rings (size 3 to 8) (size 9 to 14) (size 15 to 20)
#    0.000    2.345    1.379    1.655    0.000    1.103 
#   12.414   22.069    0.000    2.897    0.000    0.000 
#    0.000    0.000    0.000    0.000    0.000    0.000 
#
# Total GULP energy -161636.568780 kJ/mol
# GULP energy per Si atom -5573.674786 kJ/mol
# Density = 2.187054 g / cm^3
# Si number density = 21.920433 Si / 1000 Ang^3
#
#
#
# Elastic Constant Matrix: (Units=GPa)
#
#
# Indices 1 2 3 4 5 6 
#
# 1 110.3940 67.0035 45.0442 0.0000 0.0000 0.0000
# 2 67.0035 144.7255 34.0605 0.0000 0.0000 0.0000
# 3 45.0442 34.0605 49.3111 0.0000 0.0000 0.0000
# 4 0.0000 0.0000 0.0000 21.1645 0.0000 0.0000
# 5 0.0000 0.0000 0.0000 0.0000 16.9335 0.0000
# 6 0.0000 0.0000 0.0000 0.0000 0.0000 -77.6202
#
#
#
# Elastic Compliance Matrix: (Units=1/GPa)
#
#
# Indices 1 2 3 4 5 6 
#
# 1 0.017059 -0.005052 -0.012094 0.000000 0.000000 0.000000
# 2 -0.005052 0.009747 -0.002118 0.000000 0.000000 0.000000
# 3 -0.012094 -0.002118 0.032790 0.000000 0.000000 0.000000
# 4 0.000000 0.000000 0.000000 0.047249 0.000000 0.000000
# 5 0.000000 0.000000 0.000000 0.000000 0.059055 0.000000
# 6 0.000000 0.000000 0.000000 0.000000 0.000000 -0.012883
#
#
# Mechanical properties :
#
#
# Convention : Reuss Voigt Hill
#
# Bulk Modulus (GPa) = 47.46298 66.29412 56.87855
# Shear Modulus (GPa) = 25.18062 2.65039 13.91550
#
# Velocity S-wave (km/s) = 3.39297 1.10078 2.52229
# Velocity P-wave (km/s) = 6.08679 5.65016 5.87254
#
# Compressibility (1/GPa) = 0.02106905
#
# Stress axis : x y z
#
# Youngs Moduli (GPa) = 58.61935 102.59746 30.49749
#
# Poissons Ratio (x) = 0.51829 0.36883
# Poissons Ratio (y) = 0.29613 0.06459
# Poissons Ratio (z) = 0.70893 0.21729
#
# Static dielectric constant tensor:
#      x y z
#    x 1.850590 0.000000 0.000000 
#    y 0.000000 1.866220 0.000000 
#    z 0.000000 0.000000 1.877280 
# 
# From -- ./inp_files/13546.got.cif
#   From: 2010.05.17/outbox.cif.g08.bks.cpg/sg21_7_cif.got.tgz:13546.got - 2010.06.03 23:14:55.
