data_PCOD9323158
_publ_section_title
;
Structure prediction by ZEFSAII (Michael W. Deem and Ramdas Pophale) SiO2 
 PCOD9323158
Probable space group: C 2 2 2
;
_chemical_formula_sum "Si O2"
_cell_formula_units_Z 48
_cell_length_a 18.079377
_cell_length_b 28.878826
_cell_length_c 5.098892
_cell_angle_alpha 90.000000
_cell_angle_beta 90.000000
_cell_angle_gamma 90.000000
_cell_volume 2662.188532
_symmetry_space_group_name_H-M "C 2 2 2"
_symmetry_group_IT_number 21
_symmetry_cell_setting 'orthorhombic'
loop_
_space_group_symop_operation_xyz
x,y,z
-x,-y,z
x,-y,-z
-x,y,-z
1/2+x,1/2+y,z
1/2-x,1/2-y,z
1/2+x,1/2-y,-z
1/2-x,1/2+y,-z
loop_
_atom_site_type_symbol
_atom_site_label
_atom_site_fract_x
_atom_site_fract_y
_atom_site_fract_z
Si Si1 0.585301 0.415071 0.076129
Si Si2 0.763605 0.641095 0.425629
Si Si3 0.316620 0.323898 0.924535
Si Si4 0.082708 0.738122 0.953182
Si Si5 0.834851 0.051081 0.574947
Si Si6 0.581852 0.175699 0.452845
O O1 0.620244 0.363643 0.062521
O O2 0.602435 0.434442 0.364141
O O3 0.500000 0.414971 0.000000
O O4 0.630319 0.445033 0.862907
O O5 0.721873 0.672282 0.643020
O O6 0.728422 0.590082 0.445664
O O7 0.850109 0.642651 0.483704
O O8 0.743038 0.662262 0.144392
O O9 0.354790 0.275385 0.985195
O O10 0.087821 0.718373 0.659705
O O11 0.087817 0.696177 0.161096
O O12 0.000000 0.758247 0.000000
O O13 0.809137 0.000000 0.500000
O O14 0.500000 0.155748 0.500000
#
# Coordination Sequence:
#
# PCOD9323158 Si02
#       6
#     8   8   8   8   8   8
#     4  10  20  33  50  73 102 134 165 196 232 277
#     4  10  21  35  51  72  97 127 162 202 247 289
#     4  10  20  33  50  73 102 134 165 196 232 277
#     4  10  20  33  50  73 102 134 165 196 232 277
#     4  10  21  35  51  72  97 127 162 202 247 289
#     4  10  21  35  51  72  97 127 162 202 247 289
#
# _framework density 18.030280000000001
#
# number of rings (size 3 to 8) (size 9 to 14) (size 15 to 20)
#    0.000    2.000    0.000    3.500    0.000    6.000 
#    0.000    5.000    0.000    0.500    0.000    0.000 
#    0.000   12.000    0.000    0.000    0.000    2.000 
#
# Total GULP energy -134065.219314 kJ/mol
# GULP energy per Si atom -5586.050805 kJ/mol
# Density = 1.798924 g / cm^3
# Si number density = 18.030280 Si / 1000 Ang^3
#
#
#
# Elastic Constant Matrix: (Units=GPa)
#
#
# Indices 1 2 3 4 5 6 
#
# 1 99.3838 29.9489 -15.2385 0.0000 0.0000 0.0000
# 2 29.9489 17.8694 -5.9850 0.0000 0.0000 0.0000
# 3 -15.2385 -5.9850 56.0618 0.0000 0.0000 0.0000
# 4 0.0000 0.0000 0.0000 16.5543 0.0000 0.0000
# 5 0.0000 0.0000 0.0000 0.0000 18.5912 0.0000
# 6 0.0000 0.0000 0.0000 0.0000 0.0000 3.3887
#
#
#
# Elastic Compliance Matrix: (Units=1/GPa)
#
#
# Indices 1 2 3 4 5 6 
#
# 1 0.020539 -0.033760 0.001979 0.000000 0.000000 0.000000
# 2 -0.033760 0.113530 0.002943 0.000000 0.000000 0.000000
# 3 0.001979 0.002943 0.018690 0.000000 0.000000 0.000000
# 4 0.000000 0.000000 0.000000 0.060407 0.000000 0.000000
# 5 0.000000 0.000000 0.000000 0.000000 0.053789 0.000000
# 6 0.000000 0.000000 0.000000 0.000000 0.000000 0.295096
#
#
# Mechanical properties :
#
#
# Convention : Reuss Voigt Hill
#
# Bulk Modulus (GPa) = 10.51728 21.19620 15.85674
# Shear Modulus (GPa) = 7.67553 18.67948 13.17751
#
# Velocity S-wave (km/s) = 2.06549 3.22220 2.70636
# Velocity P-wave (km/s) = 3.39619 5.06210 4.31039
#
# Compressibility (1/GPa) = 0.09508160
#
# Stress axis : x y z
#
# Youngs Moduli (GPa) = 48.68800 8.80827 53.50587
#
# Poissons Ratio (x) = 0.29737 -0.10587
# Poissons Ratio (y) = 1.64373 -0.15749
# Poissons Ratio (z) = -0.09634 -0.02593
#
# Static dielectric constant tensor:
#      x y z
#    x 1.620420 0.000000 0.000000 
#    y 0.000000 1.597250 0.000000 
#    z 0.000000 0.000000 1.612300 
# 
# From -- ./inp_files/4251.got.cif
#   From: 2010.05.17/outbox.cif.g08.bks.cpg/sg21_3_cif.got.tgz:4251.got - 2010.06.03 23:14:55.
