data_PCOD9323351
_publ_section_title
;
Structure prediction by ZEFSAII (Michael W. Deem and Ramdas Pophale) SiO2 
 PCOD9323351
Probable space group: C 2 2 2
;
_chemical_formula_sum "Si O2"
_cell_formula_units_Z 56
_cell_length_a 23.754722
_cell_length_b 20.662405
_cell_length_c 5.021182
_cell_angle_alpha 90.000000
_cell_angle_beta 90.000000
_cell_angle_gamma 90.000000
_cell_volume 2464.545188
_symmetry_space_group_name_H-M "C 2 2 2"
_symmetry_group_IT_number 21
_symmetry_cell_setting 'orthorhombic'
loop_
_space_group_symop_operation_xyz
x,y,z
-x,-y,z
x,-y,-z
-x,y,-z
1/2+x,1/2+y,z
1/2-x,1/2-y,z
1/2+x,1/2-y,-z
1/2-x,1/2+y,-z
loop_
_atom_site_type_symbol
_atom_site_label
_atom_site_fract_x
_atom_site_fract_y
_atom_site_fract_z
Si Si1 0.134754 0.151661 0.408754
Si Si2 0.586792 0.173936 0.035880
Si Si3 0.668413 0.886293 0.359405
Si Si4 0.087600 0.543209 0.266250
Si Si5 0.439875 0.680645 0.098351
Si Si6 0.226255 0.955884 0.754484
Si Si7 0.805228 0.727599 0.679230
O O1 0.084823 0.148294 0.633005
O O2 0.177436 0.093589 0.341997
O O3 0.169405 0.211849 0.525070
O O4 0.105445 0.169224 0.132227
O O5 0.560109 0.111371 0.178496
O O6 0.554844 0.240452 0.103965
O O7 0.647767 0.195020 0.144832
O O8 0.610110 0.145312 0.754921
O O9 0.713026 0.923600 0.175035
O O10 0.706627 0.828511 0.469698
O O11 0.645464 0.932343 0.594590
O O12 0.061115 0.500000 0.500000
O O13 0.094296 0.500000 0.000000
O O14 0.500000 0.654899 0.000000
O O15 0.237177 0.000000 0.500000
O O16 0.206979 0.000000 0.000000
O O17 0.750000 0.750000 0.830503
#
# Coordination Sequence:
#
# PCOD9323351 Si02
#       7
#     8   8   8   8   8   8   8
#     4  11  23  45  66  96 136 168 214 275 339 392
#     4  10  23  36  60  93 130 165 219 278 322 380
#     4  11  22  36  58  91 134 178 222 256 307 382
#     4  11  22  36  56  85 127 180 223 253 293 370
#     4  11  24  45  74 100 121 160 218 291 360 396
#     4  12  28  40  62  95 140 187 220 255 306 393
#     4  10  20  36  57  91 131 176 209 261 329 395
#
# _framework density 22.722245000000001
#
# number of rings (size 3 to 8) (size 9 to 14) (size 15 to 20)
#    0.000    1.143    4.286    1.714    6.000    2.857 
#    0.000    0.000    0.000    6.857    3.714    0.000 
#    0.000    0.000    0.000    0.000    0.000    0.000 
#
# Total GULP energy -156098.422787 kJ/mol
# GULP energy per Si atom -5574.943671 kJ/mol
# Density = 2.267053 g / cm^3
# Si number density = 22.722245 Si / 1000 Ang^3
#
#
#
# Elastic Constant Matrix: (Units=GPa)
#
#
# Indices 1 2 3 4 5 6 
#
# 1 53.3368 21.9609 -1.5562 0.0000 0.0000 0.0000
# 2 21.9609 68.3593 29.4177 0.0000 0.0000 0.0000
# 3 -1.5562 29.4177 106.4378 0.0000 0.0000 0.0000
# 4 0.0000 0.0000 0.0000 39.0729 0.0000 0.0000
# 5 0.0000 0.0000 0.0000 0.0000 39.0863 0.0000
# 6 0.0000 0.0000 0.0000 0.0000 0.0000 -1.1913
#
#
#
# Elastic Compliance Matrix: (Units=1/GPa)
#
#
# Indices 1 2 3 4 5 6 
#
# 1 0.022227 -0.008263 0.002609 0.000000 0.000000 0.000000
# 2 -0.008263 0.019675 -0.005559 0.000000 0.000000 0.000000
# 3 0.002609 -0.005559 0.010970 0.000000 0.000000 0.000000
# 4 0.000000 0.000000 0.000000 0.025593 0.000000 0.000000
# 5 0.000000 0.000000 0.000000 0.000000 0.025584 0.000000
# 6 0.000000 0.000000 0.000000 0.000000 0.000000 -0.839387
#
#
# Mechanical properties :
#
#
# Convention : Reuss Voigt Hill
#
# Bulk Modulus (GPa) = 32.84532 36.41984 34.63258
# Shear Modulus (GPa) = -7.11478 27.28102 10.08312
#
# Velocity S-wave (km/s) = -1.77144 3.46877 2.10884
# Velocity P-wave (km/s) = 3.20975 5.66624 4.60482
#
# Compressibility (1/GPa) = 0.03044574
#
# Stress axis : x y z
#
# Youngs Moduli (GPa) = 44.98983 50.82488 91.16057
#
# Poissons Ratio (x) = 0.41998 -0.23782
# Poissons Ratio (y) = 0.37177 0.50674
# Poissons Ratio (z) = -0.11737 0.28252
#
# Static dielectric constant tensor:
#      x y z
#    x 1.858800 0.000000 0.000000 
#    y 0.000000 1.840880 0.000000 
#    z 0.000000 0.000000 1.931540 
# 
# From -- ./inp_files/6807.got.cif
#   From: 2010.05.17/outbox.cif.g08.bks.cpg/sg21_4_cif.got.tgz:6807.got - 2010.06.03 23:14:55.
