data_PCOD9323758
_publ_section_title
;
Structure prediction by ZEFSAII (Michael W. Deem and Ramdas Pophale) SiO2 
 PCOD9323758
Probable space group: C 2 2 2
;
_chemical_formula_sum "Si O2"
_cell_formula_units_Z 32
_cell_length_a 11.671255
_cell_length_b 9.458547
_cell_length_c 12.426399
_cell_angle_alpha 90.000000
_cell_angle_beta 90.000000
_cell_angle_gamma 90.000000
_cell_volume 1371.788881
_symmetry_space_group_name_H-M "C 2 2 2"
_symmetry_group_IT_number 21
_symmetry_cell_setting 'orthorhombic'
loop_
_space_group_symop_operation_xyz
x,y,z
-x,-y,z
x,-y,-z
-x,y,-z
1/2+x,1/2+y,z
1/2-x,1/2-y,z
1/2+x,1/2-y,-z
1/2-x,1/2+y,-z
loop_
_atom_site_type_symbol
_atom_site_label
_atom_site_fract_x
_atom_site_fract_y
_atom_site_fract_z
Si Si1 0.000000 0.500000 0.146601
Si Si2 0.837053 0.620722 0.672370
Si Si3 0.662946 0.620722 0.327629
Si Si4 0.500000 0.500000 0.146601
Si Si5 0.500000 0.000000 0.500000
Si Si6 0.000000 0.000000 0.500000
Si Si7 0.500000 0.750000 0.000000
O O1 0.905919 0.422325 0.220064
O O2 0.943853 0.630339 0.078326
O O3 0.750000 0.750000 0.684757
O O4 0.749999 0.500000 0.642756
O O5 0.929126 0.605164 0.577615
O O6 0.750000 0.750000 0.315243
O O7 0.594080 0.577676 0.220064
O O8 0.570874 0.605164 0.422384
O O9 0.443853 0.630339 0.078325
#
# Coordination Sequence:
#
# PCOD9323758 Si02
#       7
#     4   8   8   4   2   2   4
#     4  10  22  42  68 100 138 178 230 288 342 410
#     4  11  24  43  68 100 139 184 229 280 343 409
#     4  11  24  43  68 100 139 184 229 280 343 409
#     4  10  22  42  68 100 138 178 230 288 342 410
#     4  10  26  44  68 102 144 184 230 284 336 406
#     4  10  26  44  68 102 144 184 230 284 336 406
#     4  10  20  42  70  96 136 184 224 286 354 400
#
# _framework density 23.327203999999998
#
# number of rings (size 3 to 8) (size 9 to 14) (size 15 to 20)
#    0.000    1.500    0.000    3.750    0.000   12.000 
#    0.000   18.750    0.000    0.000    0.000    0.000 
#    0.000    0.000    0.000    0.000    0.000    0.000 
#
# Total GULP energy -89086.218586 kJ/mol
# GULP energy per Si atom -5567.888662 kJ/mol
# Density = 2.327411 g / cm^3
# Si number density = 23.327204 Si / 1000 Ang^3
#
#
#
# Elastic Constant Matrix: (Units=GPa)
#
#
# Indices 1 2 3 4 5 6 
#
# 1 120.1724 75.9057 65.1301 0.0000 0.0000 0.0000
# 2 75.9057 213.5383 85.9173 0.0000 0.0000 0.0000
# 3 65.1301 85.9173 142.1353 0.0000 0.0000 0.0000
# 4 0.0000 0.0000 0.0000 23.9183 0.0000 0.0000
# 5 0.0000 0.0000 0.0000 0.0000 -23.4059 0.0000
# 6 0.0000 0.0000 0.0000 0.0000 0.0000 57.6421
#
#
#
# Elastic Compliance Matrix: (Units=1/GPa)
#
#
# Indices 1 2 3 4 5 6 
#
# 1 0.012185 -0.002755 -0.003918 0.000000 0.000000 0.000000
# 2 -0.002755 0.006811 -0.002855 0.000000 0.000000 0.000000
# 3 -0.003918 -0.002855 0.010557 0.000000 0.000000 0.000000
# 4 0.000000 0.000000 0.000000 0.041809 0.000000 0.000000
# 5 0.000000 0.000000 0.000000 0.000000 -0.042724 0.000000
# 6 0.000000 0.000000 0.000000 0.000000 0.000000 0.017348
#
#
# Mechanical properties :
#
#
# Convention : Reuss Voigt Hill
#
# Bulk Modulus (GPa) = 95.26600 103.30582 99.28591
# Shear Modulus (GPa) = 72.95000 28.22376 50.58688
#
# Velocity S-wave (km/s) = 5.59825 3.48215 4.66185
# Velocity P-wave (km/s) = 9.09477 7.78131 8.46356
#
# Compressibility (1/GPa) = 0.01049692
#
# Stress axis : x y z
#
# Youngs Moduli (GPa) = 82.06774 146.82517 94.72785
#
# Poissons Ratio (x) = 0.40448 0.37117
# Poissons Ratio (y) = 0.22609 0.27041
# Poissons Ratio (z) = 0.32156 0.41913
#
# Static dielectric constant tensor:
#      x y z
#    x 1.791650 0.000000 0.000000 
#    y 0.000000 1.880120 0.000000 
#    z 0.000000 0.000000 2.032730 
# 
# From -- ./inp_files/7749.got.cif
#   From: 2010.05.17/outbox.cif.g08.bks.cpg/sg21_4_cif.got.tgz:7749.got - 2010.06.03 23:14:55.
