data_PCOD9323734
_publ_section_title
;
Structure prediction by ZEFSAII (Michael W. Deem and Ramdas Pophale) SiO2 
 PCOD9323734
Probable space group: C 2 2 2
;
_chemical_formula_sum "Si O2"
_cell_formula_units_Z 38
_cell_length_a 7.700012
_cell_length_b 11.995995
_cell_length_c 18.642925
_cell_angle_alpha 90.000000
_cell_angle_beta 90.000000
_cell_angle_gamma 90.000000
_cell_volume 1722.034034
_symmetry_space_group_name_H-M "C 2 2 2"
_symmetry_group_IT_number 21
_symmetry_cell_setting 'orthorhombic'
loop_
_space_group_symop_operation_xyz
x,y,z
-x,-y,z
x,-y,-z
-x,y,-z
1/2+x,1/2+y,z
1/2-x,1/2-y,z
1/2+x,1/2-y,-z
1/2-x,1/2+y,-z
loop_
_atom_site_type_symbol
_atom_site_label
_atom_site_fract_x
_atom_site_fract_y
_atom_site_fract_z
Si Si1 0.000000 0.500000 0.500000
Si Si2 0.162602 0.369210 0.781485
Si Si3 0.103466 0.341522 0.621657
Si Si4 0.302835 0.375021 0.020812
Si Si5 0.750000 0.750000 0.313923
Si Si6 0.741646 0.900875 0.184008
O O1 0.895385 0.577727 0.554323
O O2 0.250000 0.250000 0.789812
O O3 0.150228 0.398820 0.697105
O O4 0.271146 0.467270 0.816064
O O5 0.965920 0.375720 0.809904
O O6 0.250000 0.250000 0.610323
O O7 0.911477 0.291045 0.638160
O O8 0.250000 0.250000 0.991042
O O9 0.297204 0.363027 0.106505
O O10 0.221466 0.500000 0.000000
O O11 0.500000 0.384973 0.000000
O O12 0.814301 0.843705 0.256373
#
# Coordination Sequence:
#
# PCOD9323734 Si02
#       6
#     2   8   8   8   4   8
#     4  12  24  44  74  94 164 190 226 288 350 430
#     4   9  20  40  70 102 130 171 237 290 342 409
#     4  10  23  44  66 106 139 186 233 287 350 421
#     4  11  27  48  65  98 139 179 231 284 359 448
#     4  10  20  44  76 100 138 174 248 304 336 418
#     4  10  20  41  70  96 131 177 221 292 359 400
#
# _framework density 22.066929999999999
#
# number of rings (size 3 to 8) (size 9 to 14) (size 15 to 20)
#    0.000    1.895    1.053    2.526    1.474    8.000 
#    7.579    8.421    0.000    0.000    0.000    0.000 
#    0.000    0.000    0.000    0.000    0.000    0.000 
#
# Total GULP energy -105989.185492 kJ/mol
# GULP energy per Si atom -5578.378184 kJ/mol
# Density = 2.201670 g / cm^3
# Si number density = 22.066930 Si / 1000 Ang^3
#
#
#
# Elastic Constant Matrix: (Units=GPa)
#
#
# Indices 1 2 3 4 5 6 
#
# 1 50.9141 34.2988 46.8828 0.0000 0.0000 0.0000
# 2 34.2988 169.8579 45.5512 0.0000 0.0000 0.0000
# 3 46.8828 45.5512 126.0553 0.0000 0.0000 0.0000
# 4 0.0000 0.0000 0.0000 38.8348 0.0000 0.0000
# 5 0.0000 0.0000 0.0000 0.0000 -20.7373 0.0000
# 6 0.0000 0.0000 0.0000 0.0000 0.0000 -20.2089
#
#
#
# Elastic Compliance Matrix: (Units=1/GPa)
#
#
# Indices 1 2 3 4 5 6 
#
# 1 0.031733 -0.003591 -0.010505 0.000000 0.000000 0.000000
# 2 -0.003591 0.006925 -0.001167 0.000000 0.000000 0.000000
# 3 -0.010505 -0.001167 0.012262 0.000000 0.000000 0.000000
# 4 0.000000 0.000000 0.000000 0.025750 0.000000 0.000000
# 5 0.000000 0.000000 0.000000 0.000000 -0.048222 0.000000
# 6 0.000000 0.000000 0.000000 0.000000 0.000000 -0.049483
#
#
# Mechanical properties :
#
#
# Convention : Reuss Voigt Hill
#
# Bulk Modulus (GPa) = 49.03163 66.69923 57.86543
# Shear Modulus (GPa) = 306.99365 14.25071 160.62218
#
# Velocity S-wave (km/s) = 11.80768 2.54401 8.54088
# Velocity P-wave (km/s) = 14.42785 6.23865 11.11494
#
# Compressibility (1/GPa) = 0.02039500
#
# Stress axis : x y z
#
# Youngs Moduli (GPa) = 31.51330 144.39821 81.55505
#
# Poissons Ratio (x) = 0.51848 0.85670
# Poissons Ratio (y) = 0.11315 0.09518
# Poissons Ratio (z) = 0.33103 0.16852
#
# Static dielectric constant tensor:
#      x y z
#    x 1.774200 0.000000 0.000000 
#    y 0.000000 2.033250 0.000000 
#    z 0.000000 0.000000 1.914740 
# 
# From -- ./inp_files/35500.got.cif
#   From: 2010.05.17/outbox.cif.g08.bks.cpg/sg21_18_cif.got.tgz:35500.got - 2010.06.03 23:14:55.
