data_PCOD9323594
_publ_section_title
;
Structure prediction by ZEFSAII (Michael W. Deem and Ramdas Pophale) SiO2 
 PCOD9323594
Probable space group: C 2 2 2
;
_chemical_formula_sum "Si O2"
_cell_formula_units_Z 42
_cell_length_a 12.246717
_cell_length_b 6.828720
_cell_length_c 17.628224
_cell_angle_alpha 90.000000
_cell_angle_beta 90.000000
_cell_angle_gamma 90.000000
_cell_volume 1474.237819
_symmetry_space_group_name_H-M "C 2 2 2"
_symmetry_group_IT_number 21
_symmetry_cell_setting 'orthorhombic'
loop_
_space_group_symop_operation_xyz
x,y,z
-x,-y,z
x,-y,-z
-x,y,-z
1/2+x,1/2+y,z
1/2-x,1/2-y,z
1/2+x,1/2-y,-z
1/2-x,1/2+y,-z
loop_
_atom_site_type_symbol
_atom_site_label
_atom_site_fract_x
_atom_site_fract_y
_atom_site_fract_z
Si Si1 0.500000 0.000000 0.500000
Si Si2 0.840308 0.367911 0.623878
Si Si3 0.153073 0.455423 0.136843
Si Si4 0.000000 0.500000 0.000000
Si Si5 0.000000 0.000000 0.500000
Si Si6 0.834295 0.117158 0.364116
Si Si7 0.500000 0.000000 0.746777
Si Si8 0.122656 0.982068 0.810334
O O1 0.413694 0.881556 0.550039
O O2 0.798259 0.124993 0.622854
O O3 0.811016 0.630902 0.633861
O O4 0.930980 0.367030 0.689970
O O5 0.088283 0.413884 0.059786
O O6 0.084051 0.595150 0.192930
O O7 0.144640 0.252637 0.183126
O O8 0.275053 0.538294 0.135683
O O9 0.081536 0.895281 0.436743
O O10 0.866838 0.072361 0.274860
O O11 0.000000 0.000000 0.838845
#
# Coordination Sequence:
#
# PCOD9323594 Si02
#       8
#     2   8   8   2   2   8   4   8
#     4  10  26  44  68  94 132 200 254 316 424 478
#     4  11  24  43  67  98 136 191 261 325 397 480
#     4  10  23  48  79 121 162 208 264 328 401 497
#     4  10  24  50  80 126 176 218 256 334 424 490
#     4  12  30  54  68 104 172 208 286 366 430 466
#     4  12  28  46  75 111 152 211 278 353 414 489
#     4  10  20  38  74 100 138 196 244 320 378 472
#     4  11  24  48  80 118 158 212 278 333 398 490
#
# _framework density 28.489298999999999
#
# number of rings (size 3 to 8) (size 9 to 14) (size 15 to 20)
#    0.000    1.143    2.857    1.714    2.667    7.619 
#    6.857    0.000    0.000    0.000    0.000    0.000 
#    0.000    0.000    0.000    0.000    0.000    0.000 
#
# Total GULP energy -116987.402614 kJ/mol
# GULP energy per Si atom -5570.828696 kJ/mol
# Density = 2.842446 g / cm^3
# Si number density = 28.489299 Si / 1000 Ang^3
#
#
#
# Elastic Constant Matrix: (Units=GPa)
#
#
# Indices 1 2 3 4 5 6 
#
# 1 275.6390 71.1233 83.1448 0.0000 0.0000 0.0000
# 2 71.1233 191.7640 54.1166 0.0000 0.0000 0.0000
# 3 83.1448 54.1166 190.2970 0.0000 0.0000 0.0000
# 4 0.0000 0.0000 0.0000 -116.2708 0.0000 0.0000
# 5 0.0000 0.0000 0.0000 0.0000 65.0100 0.0000
# 6 0.0000 0.0000 0.0000 0.0000 0.0000 83.9097
#
#
#
# Elastic Compliance Matrix: (Units=1/GPa)
#
#
# Indices 1 2 3 4 5 6 
#
# 1 0.004414 -0.001188 -0.001591 0.000000 0.000000 0.000000
# 2 -0.001188 0.005990 -0.001184 0.000000 0.000000 0.000000
# 3 -0.001591 -0.001184 0.006287 0.000000 0.000000 0.000000
# 4 0.000000 0.000000 0.000000 -0.008601 0.000000 0.000000
# 5 0.000000 0.000000 0.000000 0.000000 0.015382 0.000000
# 6 0.000000 0.000000 0.000000 0.000000 0.000000 0.011918
#
#
# Mechanical properties :
#
#
# Convention : Reuss Voigt Hill
#
# Bulk Modulus (GPa) = 114.09965 119.38548 116.74256
# Shear Modulus (GPa) = 108.13619 36.48414 72.31016
#
# Velocity S-wave (km/s) = 6.16759 3.58247 5.04347
# Velocity P-wave (km/s) = 9.53183 7.68820 8.65922
#
# Compressibility (1/GPa) = 0.00876427
#
# Stress axis : x y z
#
# Youngs Moduli (GPa) = 226.53034 166.95470 159.06475
#
# Poissons Ratio (x) = 0.19840 0.25304
# Poissons Ratio (y) = 0.26919 0.18835
# Poissons Ratio (z) = 0.36037 0.19770
#
# Static dielectric constant tensor:
#      x y z
#    x 2.491940 0.000000 0.000000 
#    y 0.000000 3.069950 0.000000 
#    z 0.000000 0.000000 2.045920 
# 
# From -- ./inp_files/36138.got.cif
#   From: 2010.05.17/outbox.cif.g08.bks.cpg/sg21_19_cif.got.tgz:36138.got - 2010.06.03 23:14:55.
