data_PCOD9323020
_publ_section_title
;
Structure prediction by ZEFSAII (Michael W. Deem and Ramdas Pophale) SiO2 
 PCOD9323020
Probable space group: C 2 2 2
;
_chemical_formula_sum "Si O2"
_cell_formula_units_Z 52
_cell_length_a 9.284692
_cell_length_b 20.345868
_cell_length_c 12.170045
_cell_angle_alpha 90.000000
_cell_angle_beta 90.000000
_cell_angle_gamma 90.000000
_cell_volume 2298.983785
_symmetry_space_group_name_H-M "C 2 2 2"
_symmetry_group_IT_number 21
_symmetry_cell_setting 'orthorhombic'
loop_
_space_group_symop_operation_xyz
x,y,z
-x,-y,z
x,-y,-z
-x,y,-z
1/2+x,1/2+y,z
1/2-x,1/2-y,z
1/2+x,1/2-y,-z
1/2-x,1/2+y,-z
loop_
_atom_site_type_symbol
_atom_site_label
_atom_site_fract_x
_atom_site_fract_y
_atom_site_fract_z
Si Si1 0.066738 0.138157 0.388945
Si Si2 0.618681 0.881849 0.362497
Si Si3 0.585701 0.228026 0.319498
Si Si4 0.955392 0.892382 0.835056
Si Si5 0.261463 0.828595 0.863826
Si Si6 0.500000 0.500000 0.000000
Si Si7 0.000000 0.500000 0.500000
Si Si8 0.820149 0.683032 0.903658
O O1 0.009320 0.210035 0.354294
O O2 0.012593 0.093468 0.287387
O O3 0.000000 0.113469 0.500000
O O4 0.234828 0.145051 0.413983
O O5 0.478356 0.836388 0.376738
O O6 0.669568 0.872468 0.234459
O O7 0.587790 0.952038 0.417319
O O8 0.750000 0.250000 0.340248
O O9 0.572105 0.208668 0.189646
O O10 0.805731 0.853350 0.836029
O O11 0.094541 0.852298 0.881546
O O12 0.920981 0.952609 0.914949
O O13 0.250000 0.750000 0.833414
O O14 0.345754 0.847054 0.976589
O O15 0.750000 0.750000 0.945720
#
# Coordination Sequence:
#
# PCOD9323020 Si02
#       8
#     8   8   8   8   8   2   2   8
#     4  11  25  47  77 113 144 187 250 320 378 438
#     4  11  27  51  70 104 145 202 251 299 380 452
#     4  11  23  42  78 117 150 181 232 313 387 451
#     4  11  21  44  62 108 148 199 246 304 373 442
#     4  10  21  40  76 109 146 180 242 313 392 445
#     4  12  24  40  74  92 154 212 252 304 362 444
#     4  12  32  56  74  86 152 224 250 314 358 440
#     4  10  19  37  70 112 153 180 226 306 391 451
#
# _framework density 22.618689
#
# number of rings (size 3 to 8) (size 9 to 14) (size 15 to 20)
#    0.000    1.231    4.615    2.308    3.231    0.615 
#   11.077    0.000    0.000    0.923    0.000    0.000 
#    0.000    0.000    0.000    0.000    0.000    0.000 
#
# Total GULP energy -144818.664753 kJ/mol
# GULP energy per Si atom -5569.948644 kJ/mol
# Density = 2.256721 g / cm^3
# Si number density = 22.618689 Si / 1000 Ang^3
#
#
#
# Elastic Constant Matrix: (Units=GPa)
#
#
# Indices 1 2 3 4 5 6 
#
# 1 120.0652 44.9847 36.8163 0.0000 0.0000 0.0000
# 2 44.9847 93.8648 33.3189 0.0000 0.0000 0.0000
# 3 36.8163 33.3189 145.3727 0.0000 0.0000 0.0000
# 4 0.0000 0.0000 0.0000 20.1721 0.0000 0.0000
# 5 0.0000 0.0000 0.0000 0.0000 17.6977 0.0000
# 6 0.0000 0.0000 0.0000 0.0000 0.0000 6.2901
#
#
#
# Elastic Compliance Matrix: (Units=1/GPa)
#
#
# Indices 1 2 3 4 5 6 
#
# 1 0.010499 -0.004450 -0.001639 0.000000 0.000000 0.000000
# 2 -0.004450 0.013483 -0.001963 0.000000 0.000000 0.000000
# 3 -0.001639 -0.001963 0.007744 0.000000 0.000000 0.000000
# 4 0.000000 0.000000 0.000000 0.049573 0.000000 0.000000
# 5 0.000000 0.000000 0.000000 0.000000 0.056504 0.000000
# 6 0.000000 0.000000 0.000000 0.000000 0.000000 0.158979
#
#
# Mechanical properties :
#
#
# Convention : Reuss Voigt Hill
#
# Bulk Modulus (GPa) = 64.01410 65.50474 64.75942
# Shear Modulus (GPa) = 15.71865 25.11086 20.41475
#
# Velocity S-wave (km/s) = 2.63903 3.33555 3.00752
# Velocity P-wave (km/s) = 6.13587 6.62253 6.38384
#
# Compressibility (1/GPa) = 0.01562156
#
# Stress axis : x y z
#
# Youngs Moduli (GPa) = 95.25162 74.16725 129.13323
#
# Poissons Ratio (x) = 0.33002 0.21164
# Poissons Ratio (y) = 0.42384 0.25354
# Poissons Ratio (z) = 0.15611 0.14562
#
# Static dielectric constant tensor:
#      x y z
#    x 1.952060 0.000000 0.000000 
#    y 0.000000 1.861780 0.000000 
#    z 0.000000 0.000000 1.974310 
# 
# From -- ./inp_files/30713.got.cif
#   From: 2010.05.17/outbox.cif.g08.bks.cpg/sg21_16_cif.got.tgz:30713.got - 2010.06.03 23:14:55.
