data_PCOD9323460
_publ_section_title
;
Structure prediction by ZEFSAII (Michael W. Deem and Ramdas Pophale) SiO2 
 PCOD9323460
Probable space group: C 2 2 2
;
_chemical_formula_sum "Si O2"
_cell_formula_units_Z 48
_cell_length_a 16.308074
_cell_length_b 11.481625
_cell_length_c 10.926444
_cell_angle_alpha 90.000000
_cell_angle_beta 90.000000
_cell_angle_gamma 90.000000
_cell_volume 2045.902231
_symmetry_space_group_name_H-M "C 2 2 2"
_symmetry_group_IT_number 21
_symmetry_cell_setting 'orthorhombic'
loop_
_space_group_symop_operation_xyz
x,y,z
-x,-y,z
x,-y,-z
-x,y,-z
1/2+x,1/2+y,z
1/2-x,1/2-y,z
1/2+x,1/2-y,-z
1/2-x,1/2+y,-z
loop_
_atom_site_type_symbol
_atom_site_label
_atom_site_fract_x
_atom_site_fract_y
_atom_site_fract_z
Si Si1 0.844675 0.878967 0.972328
Si Si2 0.670929 0.168365 0.592007
Si Si3 0.372296 0.582935 0.299953
Si Si4 0.803937 0.407048 0.332560
Si Si5 0.342072 0.876986 0.045538
Si Si6 0.962257 0.156555 0.635800
O O1 0.832025 0.904503 0.830404
O O2 0.749736 0.878017 0.016587
O O3 0.878799 0.749373 0.992958
O O4 0.891462 0.000000 0.000000
O O5 0.750000 0.250000 0.606599
O O6 0.648632 0.146821 0.448459
O O7 0.593568 0.232553 0.649802
O O8 0.687737 0.045602 0.655384
O O9 0.291551 0.617514 0.374845
O O10 0.405977 0.456116 0.336314
O O11 0.454910 0.656611 0.287921
O O12 0.832659 0.372015 0.195465
O O13 0.379657 0.000000 0.000000
O O14 0.000000 0.143679 0.500000
#
# Coordination Sequence:
#
# PCOD9323460 Si02
#       6
#     8   8   8   8   8   8
#     4   9  19  35  60  94 122 162 218 276 324 385
#     4  11  22  37  60  92 129 168 219 274 324 399
#     4  10  20  37  60  91 124 166 215 266 326 388
#     4  10  22  37  62  95 127 168 224 269 325 395
#     4   9  19  36  59  92 130 167 209 272 337 391
#     4  11  23  36  57  89 128 170 206 265 334 391
#
# _framework density 23.461531000000001
#
# number of rings (size 3 to 8) (size 9 to 14) (size 15 to 20)
#    0.000    2.000    1.667    2.000    9.333    1.333 
#    3.000    3.333    0.000    0.000    0.000    0.000 
#    0.000    0.000    0.000    0.000    0.000    0.000 
#
# Total GULP energy -133657.894220 kJ/mol
# GULP energy per Si atom -5569.078926 kJ/mol
# Density = 2.340813 g / cm^3
# Si number density = 23.461531 Si / 1000 Ang^3
#
#
#
# Elastic Constant Matrix: (Units=GPa)
#
#
# Indices 1 2 3 4 5 6 
#
# 1 59.7318 22.0988 -3.3956 0.0000 0.0000 0.0000
# 2 22.0988 194.5233 16.3870 0.0000 0.0000 0.0000
# 3 -3.3956 16.3870 14.6920 0.0000 0.0000 0.0000
# 4 0.0000 0.0000 0.0000 -11.4870 0.0000 0.0000
# 5 0.0000 0.0000 0.0000 0.0000 18.6083 0.0000
# 6 0.0000 0.0000 0.0000 0.0000 0.0000 12.5197
#
#
#
# Elastic Compliance Matrix: (Units=1/GPa)
#
#
# Indices 1 2 3 4 5 6 
#
# 1 0.018134 -0.002663 0.007162 0.000000 0.000000 0.000000
# 2 -0.002663 0.006065 -0.007380 0.000000 0.000000 0.000000
# 3 0.007162 -0.007380 0.077952 0.000000 0.000000 0.000000
# 4 0.000000 0.000000 0.000000 -0.087055 0.000000 0.000000
# 5 0.000000 0.000000 0.000000 0.000000 0.053739 0.000000
# 6 0.000000 0.000000 0.000000 0.000000 0.000000 0.079874
#
#
# Mechanical properties :
#
#
# Convention : Reuss Voigt Hill
#
# Bulk Modulus (GPa) = 10.37489 37.68082 24.02785
# Shear Modulus (GPa) = 26.79501 19.51867 23.15684
#
# Velocity S-wave (km/s) = 3.38314 2.88747 3.14508
# Velocity P-wave (km/s) = 4.43762 5.21653 4.84276
#
# Compressibility (1/GPa) = 0.09638660
#
# Stress axis : x y z
#
# Youngs Moduli (GPa) = 55.14498 164.87802 12.82849
#
# Poissons Ratio (x) = 0.43914 -0.09188
# Poissons Ratio (y) = 0.14688 0.09468
# Poissons Ratio (z) = -0.39494 1.21686
#
# Static dielectric constant tensor:
#      x y z
#    x 2.044630 0.000000 0.000000 
#    y 0.000000 1.830700 0.000000 
#    z 0.000000 0.000000 2.421830 
# 
# From -- ./inp_files/26041.got.cif
#   From: 2010.05.17/outbox.cif.g08.bks.cpg/sg21_14_cif.got.tgz:26041.got - 2010.06.03 23:14:55.
