data_PCOD9323797
_publ_section_title
;
Structure prediction by ZEFSAII (Michael W. Deem and Ramdas Pophale) SiO2 
 PCOD9323797
Probable space group: C 2 2 2
;
_chemical_formula_sum "Si O2"
_cell_formula_units_Z 40
_cell_length_a 7.955755
_cell_length_b 14.167715
_cell_length_c 14.489066
_cell_angle_alpha 90.000000
_cell_angle_beta 90.000000
_cell_angle_gamma 90.000000
_cell_volume 1633.133183
_symmetry_space_group_name_H-M "C 2 2 2"
_symmetry_group_IT_number 21
_symmetry_cell_setting 'orthorhombic'
loop_
_space_group_symop_operation_xyz
x,y,z
-x,-y,z
x,-y,-z
-x,y,-z
1/2+x,1/2+y,z
1/2-x,1/2-y,z
1/2+x,1/2-y,-z
1/2-x,1/2+y,-z
loop_
_atom_site_type_symbol
_atom_site_label
_atom_site_fract_x
_atom_site_fract_y
_atom_site_fract_z
Si Si1 0.787431 0.887008 0.087491
Si Si2 0.182308 0.887113 0.108792
Si Si3 0.383684 0.352402 0.686421
Si Si4 0.062840 0.358693 0.604017
Si Si5 0.259608 0.857046 0.713588
O O1 0.696220 0.849972 0.177898
O O2 0.985206 0.863364 0.095276
O O3 0.788382 0.000373 0.101589
O O4 0.726723 0.855750 0.986157
O O5 0.210063 0.855294 0.213444
O O6 0.250282 0.399100 0.617049
O O7 0.416352 0.247272 0.646797
O O8 0.570259 0.395771 0.701040
O O9 0.000000 0.354486 0.500000
O O10 0.912433 0.405051 0.661811
O O11 0.250000 0.750000 0.677320
#
# Coordination Sequence:
#
# PCOD9323797 Si02
#       5
#     8   8   8   8   8
#     4   8  14  28  54  78 107 140 173 207 256 327
#     4   8  14  29  52  80 104 140 175 207 261 315
#     4   9  19  32  52  75 102 130 174 217 256 310
#     4  10  21  33  51  76 100 136 179 221 266 308
#     4   9  18  32  50  79 103 135 169 212 262 309
#
# _framework density 24.492795000000001
#
# number of rings (size 3 to 8) (size 9 to 14) (size 15 to 20)
#    0.000    3.200    0.000    1.200    8.400    0.000 
#    3.600    2.000    0.000    4.800    5.200    0.000 
#    0.000    0.000    0.000    0.000    0.000    0.000 
#
# Total GULP energy -111405.482647 kJ/mol
# GULP energy per Si atom -5570.274132 kJ/mol
# Density = 2.443705 g / cm^3
# Si number density = 24.492795 Si / 1000 Ang^3
#
#
#
# Elastic Constant Matrix: (Units=GPa)
#
#
# Indices 1 2 3 4 5 6 
#
# 1 128.5670 12.8634 68.8412 0.0000 0.0000 0.0000
# 2 12.8634 62.8351 8.9692 0.0000 0.0000 0.0000
# 3 68.8412 8.9692 197.3631 0.0000 0.0000 0.0000
# 4 0.0000 0.0000 0.0000 27.0535 0.0000 0.0000
# 5 0.0000 0.0000 0.0000 0.0000 33.0536 0.0000
# 6 0.0000 0.0000 0.0000 0.0000 0.0000 13.2829
#
#
#
# Elastic Compliance Matrix: (Units=1/GPa)
#
#
# Indices 1 2 3 4 5 6 
#
# 1 0.009705 -0.001513 -0.003316 0.000000 0.000000 0.000000
# 2 -0.001513 0.016255 -0.000211 0.000000 0.000000 0.000000
# 3 -0.003316 -0.000211 0.006233 0.000000 0.000000 0.000000
# 4 0.000000 0.000000 0.000000 0.036964 0.000000 0.000000
# 5 0.000000 0.000000 0.000000 0.000000 0.030254 0.000000
# 6 0.000000 0.000000 0.000000 0.000000 0.000000 0.075285
#
#
# Mechanical properties :
#
#
# Convention : Reuss Voigt Hill
#
# Bulk Modulus (GPa) = 45.22505 63.34586 54.28545
# Shear Modulus (GPa) = 26.02172 34.55078 30.28625
#
# Velocity S-wave (km/s) = 3.26302 3.75994 3.52026
# Velocity P-wave (km/s) = 5.71849 6.69094 6.22374
#
# Compressibility (1/GPa) = 0.02211164
#
# Stress axis : x y z
#
# Youngs Moduli (GPa) = 103.03684 61.52113 160.43176
#
# Poissons Ratio (x) = 0.09311 0.53207
# Poissons Ratio (y) = 0.15594 0.03382
# Poissons Ratio (z) = 0.34172 0.01297
#
# Static dielectric constant tensor:
#      x y z
#    x 2.028650 0.000000 0.000000 
#    y 0.000000 2.073450 0.000000 
#    z 0.000000 0.000000 2.114960 
# 
# From -- ./inp_files/22559.got.cif
#   From: 2010.05.17/outbox.cif.g08.bks.cpg/sg21_12_cif.got.tgz:22559.got - 2010.06.03 23:14:55.
