data_PCOD9323321
_publ_section_title
;
Structure prediction by ZEFSAII (Michael W. Deem and Ramdas Pophale) SiO2 
 PCOD9323321
Probable space group: C 2 2 2
;
_chemical_formula_sum "Si O2"
_cell_formula_units_Z 32
_cell_length_a 5.254226
_cell_length_b 15.531983
_cell_length_c 17.097063
_cell_angle_alpha 90.000000
_cell_angle_beta 90.000000
_cell_angle_gamma 90.000000
_cell_volume 1395.266502
_symmetry_space_group_name_H-M "C 2 2 2"
_symmetry_group_IT_number 21
_symmetry_cell_setting 'orthorhombic'
loop_
_space_group_symop_operation_xyz
x,y,z
-x,-y,z
x,-y,-z
-x,y,-z
1/2+x,1/2+y,z
1/2-x,1/2-y,z
1/2+x,1/2-y,-z
1/2-x,1/2+y,-z
loop_
_atom_site_type_symbol
_atom_site_label
_atom_site_fract_x
_atom_site_fract_y
_atom_site_fract_z
Si Si1 0.492426 0.604105 0.816009
Si Si2 0.492809 0.697266 0.345716
Si Si3 0.498042 0.105173 0.910190
Si Si4 0.743690 0.539322 0.587319
O O1 0.500000 0.500000 0.812231
O O2 0.439965 0.642404 0.730629
O O3 0.257931 0.631977 0.869424
O O4 0.755736 0.631039 0.857830
O O5 0.250000 0.750000 0.316954
O O6 0.342126 0.638516 0.410919
O O7 0.750000 0.750000 0.370338
O O8 0.500000 0.000000 0.911789
O O9 0.500000 0.134482 0.000000
O O10 0.500000 0.500000 0.628131
O O11 0.750899 0.500000 0.500000
O O12 0.000000 0.500000 0.624307
#
# Coordination Sequence:
#
# PCOD9323321 Si02
#       4
#     8   8   8   8
#     4  10  20  35  59  87 120 167 216 263 322 389
#     4  12  25  41  64  97 135 169 211 272 335 391
#     4   9  17  31  55  88 120 156 214 279 322 363
#     4  10  22  44  71  96 125 167 216 267 323 399
#
# _framework density 22.934688000000001
#
# number of rings (size 3 to 8) (size 9 to 14) (size 15 to 20)
#    0.000    1.750    0.000    4.500    0.000    6.000 
#    0.000   10.000    0.000   15.000    0.000    0.000 
#    0.000    0.000    0.000    0.000    0.000    0.000 
#
# Total GULP energy -89117.972650 kJ/mol
# GULP energy per Si atom -5569.873291 kJ/mol
# Density = 2.288249 g / cm^3
# Si number density = 22.934688 Si / 1000 Ang^3
#
#
#
# Elastic Constant Matrix: (Units=GPa)
#
#
# Indices 1 2 3 4 5 6 
#
# 1 225.0191 42.4979 34.8768 0.0000 0.0000 0.0000
# 2 42.4979 58.5459 35.5588 0.0000 0.0000 0.0000
# 3 34.8768 35.5588 112.3526 0.0000 0.0000 0.0000
# 4 0.0000 0.0000 0.0000 87.6961 0.0000 0.0000
# 5 0.0000 0.0000 0.0000 0.0000 -18.4565 0.0000
# 6 0.0000 0.0000 0.0000 0.0000 0.0000 37.2104
#
#
#
# Elastic Compliance Matrix: (Units=1/GPa)
#
#
# Indices 1 2 3 4 5 6 
#
# 1 0.005174 -0.003442 -0.000517 0.000000 0.000000 0.000000
# 2 -0.003442 0.023435 -0.006349 0.000000 0.000000 0.000000
# 3 -0.000517 -0.006349 0.011070 0.000000 0.000000 0.000000
# 4 0.000000 0.000000 0.000000 0.011403 0.000000 0.000000
# 5 0.000000 0.000000 0.000000 0.000000 -0.054182 0.000000
# 6 0.000000 0.000000 0.000000 0.000000 0.000000 0.026874
#
#
# Mechanical properties :
#
#
# Convention : Reuss Voigt Hill
#
# Bulk Modulus (GPa) = 52.45286 69.08719 60.77002
# Shear Modulus (GPa) = 98.53212 40.15561 69.34387
#
# Velocity S-wave (km/s) = 6.56166 4.18888 5.50463
# Velocity P-wave (km/s) = 8.96255 7.32014 8.18266
#
# Compressibility (1/GPa) = 0.01906474
#
# Stress axis : x y z
#
# Youngs Moduli (GPa) = 193.26485 42.67117 90.33221
#
# Poissons Ratio (x) = 0.14688 0.04669
# Poissons Ratio (y) = 0.66522 0.57348
# Poissons Ratio (z) = 0.09988 0.27090
#
# Static dielectric constant tensor:
#      x y z
#    x 1.625690 0.000000 0.000000 
#    y 0.000000 2.174060 0.000000 
#    z 0.000000 0.000000 1.697300 
# 
# From -- ./inp_files/34450.got.cif
#   From: 2010.05.17/outbox.cif.g08.bks.cpg/sg21_18_cif.got.tgz:34450.got - 2010.06.03 23:14:55.
