data_PCOD9323386
_publ_section_title
;
Structure prediction by ZEFSAII (Michael W. Deem and Ramdas Pophale) SiO2 
 PCOD9323386
Probable space group: C 2 2 2
;
_chemical_formula_sum "Si O2"
_cell_formula_units_Z 22
_cell_length_a 5.009547
_cell_length_b 26.641509
_cell_length_c 8.376352
_cell_angle_alpha 90.000000
_cell_angle_beta 90.000000
_cell_angle_gamma 90.000000
_cell_volume 1117.923782
_symmetry_space_group_name_H-M "C 2 2 2"
_symmetry_group_IT_number 21
_symmetry_cell_setting 'orthorhombic'
loop_
_space_group_symop_operation_xyz
x,y,z
-x,-y,z
x,-y,-z
-x,y,-z
1/2+x,1/2+y,z
1/2-x,1/2-y,z
1/2+x,1/2-y,-z
1/2-x,1/2+y,-z
loop_
_atom_site_type_symbol
_atom_site_label
_atom_site_fract_x
_atom_site_fract_y
_atom_site_fract_z
Si Si1 0.373567 0.902549 0.338607
Si Si2 0.000000 0.500000 0.500000
Si Si3 0.750000 0.250000 0.885568
Si Si4 0.366874 0.640107 0.823954
O O1 0.500000 0.879461 0.500000
O O2 0.594571 0.890826 0.203506
O O3 0.091489 0.880406 0.293606
O O4 0.344711 0.961219 0.385751
O O5 0.691215 0.301182 0.793518
O O6 0.500000 0.238699 0.000000
O O7 0.500000 0.636578 0.000000
#
# Coordination Sequence:
#
# PCOD9323386 Si02
#       4
#     8   2   4   8
#     4  10  22  40  63  85 122 169 199 245 311 368
#     4   8  24  42  66  78 132 166 202 234 348 352
#     4  10  20  36  60  90 130 164 192 242 322 362
#     4  11  21  38  63  93 119 158 207 252 293 361
#
# _framework density 19.679338000000001
#
# number of rings (size 3 to 8) (size 9 to 14) (size 15 to 20)
#    1.091    0.727    0.000    6.545    0.000    2.909 
#    0.000    9.091    0.000    2.182    0.000    0.000 
#    0.000    0.000    0.000    0.000    0.000    0.000 
#
# Total GULP energy -61307.700776 kJ/mol
# GULP energy per Si atom -5573.427343 kJ/mol
# Density = 1.963455 g / cm^3
# Si number density = 19.679338 Si / 1000 Ang^3
#
#
#
# Elastic Constant Matrix: (Units=GPa)
#
#
# Indices 1 2 3 4 5 6 
#
# 1 126.9365 64.7154 11.3777 0.0000 0.0000 0.0000
# 2 64.7154 175.7753 42.0140 0.0000 0.0000 0.0000
# 3 11.3777 42.0140 47.1846 0.0000 0.0000 0.0000
# 4 0.0000 0.0000 0.0000 40.1498 0.0000 0.0000
# 5 0.0000 0.0000 0.0000 0.0000 24.7793 0.0000
# 6 0.0000 0.0000 0.0000 0.0000 0.0000 173.4068
#
#
#
# Elastic Compliance Matrix: (Units=1/GPa)
#
#
# Indices 1 2 3 4 5 6 
#
# 1 0.009741 -0.003843 0.001073 0.000000 0.000000 0.000000
# 2 -0.003843 0.008743 -0.006858 0.000000 0.000000 0.000000
# 3 0.001073 -0.006858 0.027042 0.000000 0.000000 0.000000
# 4 0.000000 0.000000 0.000000 0.024907 0.000000 0.000000
# 5 0.000000 0.000000 0.000000 0.000000 0.040356 0.000000
# 6 0.000000 0.000000 0.000000 0.000000 0.000000 0.005767
#
#
# Mechanical properties :
#
#
# Convention : Reuss Voigt Hill
#
# Bulk Modulus (GPa) = 38.06788 65.12341 51.59564
# Shear Modulus (GPa) = 34.58567 63.11981 48.85274
#
# Velocity S-wave (km/s) = 4.19676 5.66955 4.98781
# Velocity P-wave (km/s) = 6.54750 8.71909 7.71013
#
# Compressibility (1/GPa) = 0.02626886
#
# Stress axis : x y z
#
# Youngs Moduli (GPa) = 102.65965 114.37469 36.98007
#
# Poissons Ratio (x) = 0.43951 -0.03967
# Poissons Ratio (y) = 0.39450 0.25363
# Poissons Ratio (z) = -0.11013 0.78444
#
# Static dielectric constant tensor:
#      x y z
#    x 1.683240 0.000000 0.000000 
#    y 0.000000 1.689270 0.000000 
#    z 0.000000 0.000000 1.668500 
# 
# From -- ./inp_files/8761.got.cif
#   From: 2010.05.17/outbox.cif.g08.bks.cpg/sg21_5_cif.got.tgz:8761.got - 2010.06.03 23:14:55.
