data_PCOD9323038
_publ_section_title
;
Structure prediction by ZEFSAII (Michael W. Deem and Ramdas Pophale) SiO2 
 PCOD9323038
Probable space group: C 2 2 2
;
_chemical_formula_sum "Si O2"
_cell_formula_units_Z 32
_cell_length_a 14.449294
_cell_length_b 12.397318
_cell_length_c 9.210044
_cell_angle_alpha 90.000000
_cell_angle_beta 90.000000
_cell_angle_gamma 90.000000
_cell_volume 1649.818139
_symmetry_space_group_name_H-M "C 2 2 2"
_symmetry_group_IT_number 21
_symmetry_cell_setting 'orthorhombic'
loop_
_space_group_symop_operation_xyz
x,y,z
-x,-y,z
x,-y,-z
-x,y,-z
1/2+x,1/2+y,z
1/2-x,1/2-y,z
1/2+x,1/2-y,-z
1/2-x,1/2+y,-z
loop_
_atom_site_type_symbol
_atom_site_label
_atom_site_fract_x
_atom_site_fract_y
_atom_site_fract_z
Si Si1 0.890419 0.704772 0.835459
Si Si2 0.406166 0.894520 0.891697
Si Si3 0.602095 0.539793 0.833048
Si Si4 0.711887 0.982491 0.670667
O O1 0.896058 0.831198 0.813408
O O2 0.828612 0.633790 0.726022
O O3 0.994866 0.654498 0.843686
O O4 0.856123 0.688717 0.001580
O O5 0.353436 0.931608 0.750664
O O6 0.407471 0.000000 0.000000
O O7 0.500000 0.500000 0.791357
O O8 0.686015 0.499869 0.734362
O O9 0.617042 0.500000 0.000000
O O10 0.708891 0.000000 0.500000
#
# Coordination Sequence:
#
# PCOD9323038 Si02
#       4
#     8   8   8   8
#     4  10  19  38  63  90 114 149 196 246 293 342
#     4   9  17  34  63  90 113 143 196 256 295 334
#     4  11  23  41  62  85 116 154 198 246 291 343
#     4  11  23  38  57  86 123 157 193 238 292 352
#
# _framework density 19.396076999999998
#
# number of rings (size 3 to 8) (size 9 to 14) (size 15 to 20)
#    0.000    1.750    0.000   11.250    0.000    2.500 
#    0.000   16.250    0.000    0.000    0.000    0.000 
#    0.000    0.000    0.000    0.000    0.000    0.000 
#
# Total GULP energy -89166.760215 kJ/mol
# GULP energy per Si atom -5572.922513 kJ/mol
# Density = 1.935193 g / cm^3
# Si number density = 19.396077 Si / 1000 Ang^3
#
#
#
# Elastic Constant Matrix: (Units=GPa)
#
#
# Indices 1 2 3 4 5 6 
#
# 1 117.7341 40.6168 89.6717 0.0000 0.0000 0.0000
# 2 40.6168 64.3026 32.3734 0.0000 0.0000 0.0000
# 3 89.6717 32.3734 154.0695 0.0000 0.0000 0.0000
# 4 0.0000 0.0000 0.0000 10.1826 0.0000 0.0000
# 5 0.0000 0.0000 0.0000 0.0000 -115.3149 0.0000
# 6 0.0000 0.0000 0.0000 0.0000 0.0000 19.7633
#
#
#
# Elastic Compliance Matrix: (Units=1/GPa)
#
#
# Indices 1 2 3 4 5 6 
#
# 1 0.017453 -0.006609 -0.008769 0.000000 0.000000 0.000000
# 2 -0.006609 0.019894 -0.000333 0.000000 0.000000 0.000000
# 3 -0.008769 -0.000333 0.011664 0.000000 0.000000 0.000000
# 4 0.000000 0.000000 0.000000 0.098207 0.000000 0.000000
# 5 0.000000 0.000000 0.000000 0.000000 -0.008672 0.000000
# 6 0.000000 0.000000 0.000000 0.000000 0.000000 0.050599
#
#
# Mechanical properties :
#
#
# Convention : Reuss Voigt Hill
#
# Bulk Modulus (GPa) = 56.85804 73.49224 65.17514
# Shear Modulus (GPa) = 22.08176 -5.51084 8.28546
#
# Velocity S-wave (km/s) = 3.37778 -1.68742 2.06906
# Velocity P-wave (km/s) = 6.67760 5.84602 6.27560
#
# Compressibility (1/GPa) = 0.01758766
#
# Stress axis : x y z
#
# Youngs Moduli (GPa) = 57.29739 50.26621 85.73028
#
# Poissons Ratio (x) = 0.33222 0.75178
# Poissons Ratio (y) = 0.37869 0.02859
# Poissons Ratio (z) = 0.50245 0.01676
#
# Static dielectric constant tensor:
#      x y z
#    x 1.726260 0.000000 0.000000 
#    y 0.000000 1.756480 0.000000 
#    z 0.000000 0.000000 1.674190 
# 
# From -- ./inp_files/12135.got.cif
#   From: 2010.05.17/outbox.cif.g08.bks.cpg/sg21_7_cif.got.tgz:12135.got - 2010.06.03 23:14:55.
