data_PCOD9323582
_publ_section_title
;
Structure prediction by ZEFSAII (Michael W. Deem and Ramdas Pophale) SiO2 
 PCOD9323582
Probable space group: C 2 2 2
;
_chemical_formula_sum "Si O2"
_cell_formula_units_Z 36
_cell_length_a 19.263894
_cell_length_b 10.095713
_cell_length_c 8.772672
_cell_angle_alpha 90.000000
_cell_angle_beta 90.000000
_cell_angle_gamma 90.000000
_cell_volume 1706.133332
_symmetry_space_group_name_H-M "C 2 2 2"
_symmetry_group_IT_number 21
_symmetry_cell_setting 'orthorhombic'
loop_
_space_group_symop_operation_xyz
x,y,z
-x,-y,z
x,-y,-z
-x,y,-z
1/2+x,1/2+y,z
1/2-x,1/2-y,z
1/2+x,1/2-y,-z
1/2-x,1/2+y,-z
loop_
_atom_site_type_symbol
_atom_site_label
_atom_site_fract_x
_atom_site_fract_y
_atom_site_fract_z
Si Si1 0.379394 0.433311 0.163923
Si Si2 0.630116 0.876029 0.394069
Si Si3 0.483766 0.198396 0.167839
Si Si4 0.250000 0.750000 0.751460
Si Si5 0.929552 0.158773 0.398110
O O1 0.447384 0.342065 0.154341
O O2 0.313484 0.333365 0.174853
O O3 0.394470 0.537435 0.303918
O O4 0.372391 0.500000 0.000000
O O5 0.572599 0.884931 0.261243
O O6 0.707955 0.864241 0.335591
O O7 0.618388 0.737102 0.483165
O O8 0.619807 0.000000 0.500000
O O9 0.549387 0.231287 0.272221
O O10 0.500000 0.149818 0.000000
O O11 0.000000 0.133768 0.500000
#
# Coordination Sequence:
#
# PCOD9323582 Si02
#       5
#     8   8   8   4   8
#     4  11  22  41  67  97 136 168 223 279 324 397
#     4  10  24  44  63  96 137 176 225 271 323 400
#     4  10  20  38  68 101 130 163 212 276 346 387
#     4  10  26  42  62  92 130 182 232 264 328 386
#     4  10  22  38  70 105 126 165 218 273 347 384
#
# _framework density 21.100342999999999
#
# number of rings (size 3 to 8) (size 9 to 14) (size 15 to 20)
#    0.000    1.778    2.222    0.667    3.111   15.556 
#    4.000    2.222    0.000    0.000    0.000    0.000 
#    0.000    0.000    0.000    0.000    0.000    0.000 
#
# Total GULP energy -100374.652575 kJ/mol
# GULP energy per Si atom -5576.369588 kJ/mol
# Density = 2.105232 g / cm^3
# Si number density = 21.100343 Si / 1000 Ang^3
#
#
#
# Elastic Constant Matrix: (Units=GPa)
#
#
# Indices 1 2 3 4 5 6 
#
# 1 51.2079 5.1762 19.1040 0.0000 0.0000 0.0000
# 2 5.1762 89.0672 40.1544 0.0000 0.0000 0.0000
# 3 19.1040 40.1544 132.4483 0.0000 0.0000 0.0000
# 4 0.0000 0.0000 0.0000 20.5732 0.0000 0.0000
# 5 0.0000 0.0000 0.0000 0.0000 6.5350 0.0000
# 6 0.0000 0.0000 0.0000 0.0000 0.0000 11.9176
#
#
#
# Elastic Compliance Matrix: (Units=1/GPa)
#
#
# Indices 1 2 3 4 5 6 
#
# 1 0.020641 0.000165 -0.003027 0.000000 0.000000 0.000000
# 2 0.000165 0.013006 -0.003967 0.000000 0.000000 0.000000
# 3 -0.003027 -0.003967 0.009189 0.000000 0.000000 0.000000
# 4 0.000000 0.000000 0.000000 0.048607 0.000000 0.000000
# 5 0.000000 0.000000 0.000000 0.000000 0.153023 0.000000
# 6 0.000000 0.000000 0.000000 0.000000 0.000000 0.083910
#
#
# Mechanical properties :
#
#
# Convention : Reuss Voigt Hill
#
# Bulk Modulus (GPa) = 34.27163 44.62138 39.44651
# Shear Modulus (GPa) = 14.21421 21.69106 17.95264
#
# Velocity S-wave (km/s) = 2.59829 3.20972 2.92005
# Velocity P-wave (km/s) = 5.02782 5.91012 5.48673
#
# Compressibility (1/GPa) = 0.02917865
#
# Stress axis : x y z
#
# Youngs Moduli (GPa) = 48.44743 76.88574 108.82067
#
# Poissons Ratio (x) = -0.01270 0.32943
# Poissons Ratio (y) = -0.00801 0.43169
# Poissons Ratio (z) = 0.14666 0.30500
#
# Static dielectric constant tensor:
#      x y z
#    x 1.719320 0.000000 0.000000 
#    y 0.000000 1.813560 0.000000 
#    z 0.000000 0.000000 1.826510 
# 
# From -- ./inp_files/17344.got.cif
#   From: 2010.05.17/outbox.cif.g08.bks.cpg/sg21_9_cif.got.tgz:17344.got - 2010.06.03 23:14:55.
