data_PCOD9323186
_publ_section_title
;
Structure prediction by ZEFSAII (Michael W. Deem and Ramdas Pophale) SiO2 
 PCOD9323186
Probable space group: C 2 2 2
;
_chemical_formula_sum "Si O2"
_cell_formula_units_Z 64
_cell_length_a 27.803805
_cell_length_b 15.049590
_cell_length_c 8.716933
_cell_angle_alpha 90.000000
_cell_angle_beta 90.000000
_cell_angle_gamma 90.000000
_cell_volume 3647.477406
_symmetry_space_group_name_H-M "C 2 2 2"
_symmetry_group_IT_number 21
_symmetry_cell_setting 'orthorhombic'
loop_
_space_group_symop_operation_xyz
x,y,z
-x,-y,z
x,-y,-z
-x,y,-z
1/2+x,1/2+y,z
1/2-x,1/2-y,z
1/2+x,1/2-y,-z
1/2-x,1/2+y,-z
loop_
_atom_site_type_symbol
_atom_site_label
_atom_site_fract_x
_atom_site_fract_y
_atom_site_fract_z
Si Si1 0.446949 0.096054 0.933026
Si Si2 0.673451 0.593543 0.065665
Si Si3 0.219084 0.595961 0.062688
Si Si4 0.326535 0.408442 0.431955
Si Si5 0.636177 0.214981 0.568091
Si Si6 0.730852 0.151874 0.400730
Si Si7 0.553161 0.903786 0.566336
Si Si8 0.364375 0.217291 0.065309
O O1 0.448900 0.091174 0.749694
O O2 0.500000 0.113944 0.000000
O O3 0.409322 0.169729 0.986925
O O4 0.431824 0.000000 0.000000
O O5 0.726220 0.609653 0.993567
O O6 0.678616 0.585832 0.248890
O O7 0.640530 0.678230 0.030846
O O8 0.655495 0.500000 0.000000
O O9 0.183690 0.669841 0.996321
O O10 0.203554 0.500000 0.000000
O O11 0.218398 0.599551 0.246526
O O12 0.346559 0.500000 0.500000
O O13 0.357115 0.319787 0.467201
O O14 0.274168 0.392951 0.506837
O O15 0.684242 0.167165 0.505305
O O16 0.590669 0.169960 0.488756
O O17 0.633016 0.205499 0.751347
O O18 0.750000 0.250000 0.353990
O O19 0.500000 0.886089 0.500000
O O20 0.568331 0.000000 0.500000
#
# Coordination Sequence:
#
# PCOD9323186 Si02
#       8
#     8   8   8   8   8   8   8   8
#     4  11  22  38  59  83 110 139 172 211 261 315
#     4  10  21  35  53  77 106 141 179 220 263 310
#     4  11  21  32  49  76 108 142 180 218 262 312
#     4  10  20  35  54  75 106 143 179 219 262 310
#     4  10  22  36  53  79 107 139 178 219 263 312
#     4  10  20  34  51  74 105 142 182 220 260 308
#     4  11  22  38  59  82 109 139 172 213 260 312
#     4  11  21  36  55  78 108 139 176 219 264 312
#
# _framework density 17.546374
#
# number of rings (size 3 to 8) (size 9 to 14) (size 15 to 20)
#    0.000    1.500    0.000    7.500    0.000    6.500 
#    0.000    0.000    0.000    0.750    0.000    5.250 
#    0.000    0.000    0.000    0.000    0.000    0.000 
#
# Total GULP energy -178854.388786 kJ/mol
# GULP energy per Si atom -5589.199650 kJ/mol
# Density = 1.750644 g / cm^3
# Si number density = 17.546374 Si / 1000 Ang^3
#
#
#
# Elastic Constant Matrix: (Units=GPa)
#
#
# Indices 1 2 3 4 5 6 
#
# 1 69.5008 66.5833 48.3762 0.0000 0.0000 0.0000
# 2 66.5833 144.7559 80.5823 0.0000 0.0000 0.0000
# 3 48.3762 80.5823 135.6991 0.0000 0.0000 0.0000
# 4 0.0000 0.0000 0.0000 36.0601 0.0000 0.0000
# 5 0.0000 0.0000 0.0000 0.0000 65.8743 0.0000
# 6 0.0000 0.0000 0.0000 0.0000 0.0000 21.8664
#
#
#
# Elastic Compliance Matrix: (Units=1/GPa)
#
#
# Indices 1 2 3 4 5 6 
#
# 1 0.026691 -0.010427 -0.003323 0.000000 0.000000 0.000000
# 2 -0.010427 0.014393 -0.004830 0.000000 0.000000 0.000000
# 3 -0.003323 -0.004830 0.011422 0.000000 0.000000 0.000000
# 4 0.000000 0.000000 0.000000 0.027731 0.000000 0.000000
# 5 0.000000 0.000000 0.000000 0.000000 0.015180 0.000000
# 6 0.000000 0.000000 0.000000 0.000000 0.000000 0.045732
#
#
# Mechanical properties :
#
#
# Convention : Reuss Voigt Hill
#
# Bulk Modulus (GPa) = 65.16504 82.33770 73.75137
# Shear Modulus (GPa) = 27.25911 35.05443 31.15677
#
# Velocity S-wave (km/s) = 3.94578 4.47454 4.21845
# Velocity P-wave (km/s) = 7.61435 8.58621 8.11484
#
# Compressibility (1/GPa) = 0.01534565
#
# Stress axis : x y z
#
# Youngs Moduli (GPa) = 37.46623 69.47896 87.54980
#
# Poissons Ratio (x) = 0.72445 0.29096
# Poissons Ratio (y) = 0.39066 0.42285
# Poissons Ratio (z) = 0.12451 0.33557
#
# Static dielectric constant tensor:
#      x y z
#    x 1.549380 0.000000 0.000000 
#    y 0.000000 1.611880 0.000000 
#    z 0.000000 0.000000 1.586800 
# 
# From -- ./inp_files/18630.got.cif
#   From: 2010.05.17/outbox.cif.g08.bks.cpg/sg21_10_cif.got.tgz:18630.got - 2010.06.03 23:14:55.
