data_PCOD9323542
_publ_section_title
;
Structure prediction by ZEFSAII (Michael W. Deem and Ramdas Pophale) SiO2 
 PCOD9323542
Probable space group: C 2 2 2
;
_chemical_formula_sum "Si O2"
_cell_formula_units_Z 48
_cell_length_a 31.072889
_cell_length_b 4.986237
_cell_length_c 14.392837
_cell_angle_alpha 90.000000
_cell_angle_beta 90.000000
_cell_angle_gamma 90.000000
_cell_volume 2229.979947
_symmetry_space_group_name_H-M "C 2 2 2"
_symmetry_group_IT_number 21
_symmetry_cell_setting 'orthorhombic'
loop_
_space_group_symop_operation_xyz
x,y,z
-x,-y,z
x,-y,-z
-x,y,-z
1/2+x,1/2+y,z
1/2-x,1/2-y,z
1/2+x,1/2-y,-z
1/2-x,1/2+y,-z
loop_
_atom_site_type_symbol
_atom_site_label
_atom_site_fract_x
_atom_site_fract_y
_atom_site_fract_z
Si Si1 0.908744 0.880460 0.277212
Si Si2 0.704665 0.082982 0.285307
Si Si3 0.452700 0.128932 0.809081
Si Si4 0.842404 0.761438 0.136004
Si Si5 0.721841 0.500000 0.000000
Si Si6 0.909531 0.500000 0.000000
Si Si7 0.831880 0.926557 0.393565
O O1 0.924130 0.587640 0.246163
O O2 0.869684 0.936596 0.206624
O O3 0.882828 0.866195 0.373940
O O4 0.944987 0.095530 0.247709
O O5 0.750000 0.250000 0.272568
O O6 0.677275 0.298893 0.340342
O O7 0.681648 0.978347 0.190970
O O8 0.698556 0.810474 0.349916
O O9 0.500000 0.000000 0.809268
O O10 0.437276 0.140705 0.917640
O O11 0.806050 0.928144 0.087824
O O12 0.876672 0.682338 0.057647
O O13 0.750000 0.250000 0.024341
O O14 0.823196 0.000000 0.500000
#
# Coordination Sequence:
#
# PCOD9323542 Si02
#       7
#     8   8   8   8   4   4   8
#     4  10  22  41  63  88 121 163 204 251 315 390
#     4  11  25  43  65  95 131 169 214 275 340 387
#     4  11  22  38  62  93 128 162 203 258 318 375
#     4  10  23  42  62  86 125 173 220 266 316 379
#     4  12  27  40  58  87 121 168 227 279 314 358
#     4  10  20  38  62  89 122 164 216 259 302 372
#     4  11  23  43  71  97 124 165 216 267 326 403
#
# _framework density 21.524856
#
# number of rings (size 3 to 8) (size 9 to 14) (size 15 to 20)
#    0.000    1.333    0.000    6.250    0.000   13.333 
#    0.000    3.333    0.000    3.000    0.000    0.000 
#    0.000    0.000    0.000    0.000    0.000    0.000 
#
# Total GULP energy -133841.453173 kJ/mol
# GULP energy per Si atom -5576.727216 kJ/mol
# Density = 2.147586 g / cm^3
# Si number density = 21.524856 Si / 1000 Ang^3
#
#
#
# Elastic Constant Matrix: (Units=GPa)
#
#
# Indices 1 2 3 4 5 6 
#
# 1 95.8625 17.4222 33.2408 0.0000 0.0000 0.0000
# 2 17.4222 110.3120 37.4246 0.0000 0.0000 0.0000
# 3 33.2408 37.4246 56.8987 0.0000 0.0000 0.0000
# 4 0.0000 0.0000 0.0000 29.0537 0.0000 0.0000
# 5 0.0000 0.0000 0.0000 0.0000 17.7938 0.0000
# 6 0.0000 0.0000 0.0000 0.0000 0.0000 3.4381
#
#
#
# Elastic Compliance Matrix: (Units=1/GPa)
#
#
# Indices 1 2 3 4 5 6 
#
# 1 0.013121 0.000680 -0.008113 0.000000 0.000000 0.000000
# 2 0.000680 0.011704 -0.008096 0.000000 0.000000 0.000000
# 3 -0.008113 -0.008096 0.027640 0.000000 0.000000 0.000000
# 4 0.000000 0.000000 0.000000 0.034419 0.000000 0.000000
# 5 0.000000 0.000000 0.000000 0.000000 0.056199 0.000000
# 6 0.000000 0.000000 0.000000 0.000000 0.000000 0.290861
#
#
# Mechanical properties :
#
#
# Convention : Reuss Voigt Hill
#
# Bulk Modulus (GPa) = 46.71126 48.80538 47.75832
# Shear Modulus (GPa) = 10.59012 21.72282 16.15647
#
# Velocity S-wave (km/s) = 2.22050 3.18023 2.74267
# Velocity P-wave (km/s) = 5.32188 6.01734 5.68026
#
# Compressibility (1/GPa) = 0.02140812
#
# Stress axis : x y z
#
# Youngs Moduli (GPa) = 76.21265 85.43827 36.17998
#
# Poissons Ratio (x) = -0.05810 0.29352
# Poissons Ratio (y) = -0.05183 0.29290
# Poissons Ratio (z) = 0.61830 0.69169
#
# Static dielectric constant tensor:
#      x y z
#    x 1.838500 0.000000 0.000000 
#    y 0.000000 1.799230 0.000000 
#    z 0.000000 0.000000 1.942940 
# 
# From -- ./inp_files/33989.got.cif
#   From: 2010.05.17/outbox.cif.g08.bks.cpg/sg21_17_cif.got.tgz:33989.got - 2010.06.03 23:14:55.
