data_PCOD9323050
_publ_section_title
;
Structure prediction by ZEFSAII (Michael W. Deem and Ramdas Pophale) SiO2 
 PCOD9323050
Probable space group: C 2 2 2
;
_chemical_formula_sum "Si O2"
_cell_formula_units_Z 28
_cell_length_a 17.581298
_cell_length_b 9.643585
_cell_length_c 6.963021
_cell_angle_alpha 90.000000
_cell_angle_beta 90.000000
_cell_angle_gamma 90.000000
_cell_volume 1180.557523
_symmetry_space_group_name_H-M "C 2 2 2"
_symmetry_group_IT_number 21
_symmetry_cell_setting 'orthorhombic'
loop_
_space_group_symop_operation_xyz
x,y,z
-x,-y,z
x,-y,-z
-x,y,-z
1/2+x,1/2+y,z
1/2-x,1/2-y,z
1/2+x,1/2-y,-z
1/2-x,1/2+y,-z
loop_
_atom_site_type_symbol
_atom_site_label
_atom_site_fract_x
_atom_site_fract_y
_atom_site_fract_z
Si Si1 0.694066 0.500000 0.500000
Si Si2 0.902465 0.208343 0.749012
Si Si3 0.670884 0.989918 0.773387
Si Si4 0.058090 0.264363 0.853699
O O1 0.642506 0.389479 0.607664
O O2 0.753076 0.549072 0.662385
O O3 0.993948 0.192392 0.726648
O O4 0.632944 0.137688 0.719611
O O5 0.895540 0.180105 0.982617
O O6 0.610399 0.868284 0.742731
O O7 0.685726 0.000000 0.000000
O O8 0.000000 0.345376 0.000000
#
# Coordination Sequence:
#
# PCOD9323050 Si02
#       4
#     4   8   8   8
#     4  12  22  34  61 114 157 172 214 300 386 448
#     4   8  18  35  63  99 142 178 236 287 352 423
#     4  10  19  38  68 101 137 185 242 299 355 412
#     4   7  16  37  75  96 128 188 253 297 332 414
#
# _framework density 23.717607999999998
#
# number of rings (size 3 to 8) (size 9 to 14) (size 15 to 20)
#    1.714    1.143    0.000    1.714    4.000    0.000 
#    0.000   14.286    0.000   13.714    0.000   18.000 
#    0.000    0.000    0.000    0.000    0.000    0.000 
#
# Total GULP energy -77992.507484 kJ/mol
# GULP energy per Si atom -5570.893392 kJ/mol
# Density = 2.366363 g / cm^3
# Si number density = 23.717608 Si / 1000 Ang^3
#
#
#
# Elastic Constant Matrix: (Units=GPa)
#
#
# Indices 1 2 3 4 5 6 
#
# 1 161.2337 79.7406 79.8752 0.0000 0.0000 0.0000
# 2 79.7406 99.9684 59.1197 0.0000 0.0000 0.0000
# 3 79.8752 59.1197 129.5356 0.0000 0.0000 0.0000
# 4 0.0000 0.0000 0.0000 41.8108 0.0000 0.0000
# 5 0.0000 0.0000 0.0000 0.0000 354.8124 0.0000
# 6 0.0000 0.0000 0.0000 0.0000 0.0000 38.7020
#
#
#
# Elastic Compliance Matrix: (Units=1/GPa)
#
#
# Indices 1 2 3 4 5 6 
#
# 1 0.011586 -0.006871 -0.004008 0.000000 0.000000 0.000000
# 2 -0.006871 0.017776 -0.003876 0.000000 0.000000 0.000000
# 3 -0.004008 -0.003876 0.011961 0.000000 0.000000 0.000000
# 4 0.000000 0.000000 0.000000 0.023917 0.000000 0.000000
# 5 0.000000 0.000000 0.000000 0.000000 0.002818 0.000000
# 6 0.000000 0.000000 0.000000 0.000000 0.000000 0.025838
#
#
# Mechanical properties :
#
#
# Convention : Reuss Voigt Hill
#
# Bulk Modulus (GPa) = 84.66161 92.02318 88.34240
# Shear Modulus (GPa) = 39.26309 98.53183 68.89746
#
# Velocity S-wave (km/s) = 4.07312 6.45244 5.39557
# Velocity P-wave (km/s) = 7.60879 9.71574 8.72609
#
# Compressibility (1/GPa) = 0.01181173
#
# Stress axis : x y z
#
# Youngs Moduli (GPa) = 86.30905 56.25427 83.60851
#
# Poissons Ratio (x) = 0.38655 0.33513
# Poissons Ratio (y) = 0.59307 0.32407
# Poissons Ratio (z) = 0.34595 0.21804
#
# Static dielectric constant tensor:
#      x y z
#    x 1.923720 0.000000 0.000000 
#    y 0.000000 1.908680 0.000000 
#    z 0.000000 0.000000 1.987260 
# 
# From -- ./inp_files/13926.got.cif
#   From: 2010.05.17/outbox.cif.g08.bks.cpg/sg21_7_cif.got.tgz:13926.got - 2010.06.03 23:14:55.
