data_PCOD9323394
_publ_section_title
;
Structure prediction by ZEFSAII (Michael W. Deem and Ramdas Pophale) SiO2 
 PCOD9323394
Probable space group: C 2 2 2
;
_chemical_formula_sum "Si O2"
_cell_formula_units_Z 64
_cell_length_a 34.738297
_cell_length_b 7.583622
_cell_length_c 10.960447
_cell_angle_alpha 90.000000
_cell_angle_beta 90.000000
_cell_angle_gamma 90.000000
_cell_volume 2887.443321
_symmetry_space_group_name_H-M "C 2 2 2"
_symmetry_group_IT_number 21
_symmetry_cell_setting 'orthorhombic'
loop_
_space_group_symop_operation_xyz
x,y,z
-x,-y,z
x,-y,-z
-x,y,-z
1/2+x,1/2+y,z
1/2-x,1/2-y,z
1/2+x,1/2-y,-z
1/2-x,1/2+y,-z
loop_
_atom_site_type_symbol
_atom_site_label
_atom_site_fract_x
_atom_site_fract_y
_atom_site_fract_z
Si Si1 0.704474 0.712086 1.000000
Si Si2 0.921886 0.202838 0.742428
Si Si3 0.836803 0.791692 0.248239
Si Si4 0.421886 0.702838 0.257572
Si Si5 0.163197 0.208308 0.751761
Si Si6 0.705031 0.792258 0.500000
Si Si7 0.500000 0.297852 0.356743
Si Si8 0.954388 0.286682 0.000000
O O1 0.750000 0.750000 0.000000
O O2 0.684452 0.777761 0.125954
O O3 0.701060 0.500000 0.000000
O O4 0.684452 0.777761 0.874045
O O5 0.879616 0.283182 0.729361
O O6 0.933071 0.209476 0.883538
O O7 0.959778 0.286917 0.682339
O O8 0.919794 0.000000 0.695702
O O9 0.813149 0.775022 0.373372
O O10 0.842320 1.000000 0.224654
O O11 0.379616 0.783181 0.270639
O O12 0.459778 0.786917 0.317661
O O13 0.433071 0.709476 0.116462
O O14 0.186851 0.224977 0.626628
O O15 0.750000 0.750000 0.500000
O O16 0.699295 0.000000 0.500000
O O17 0.500000 0.500000 0.304199
O O18 0.500000 0.310391 0.500000
O O19 0.951484 0.500000 0.000000
O O20 0.000000 0.242960 0.000000
#
# Coordination Sequence:
#
# PCOD9323394 Si02
#       8
#     8   8   8   8   8   8   8   8
#     4  10  21  38  60  88 119 152 196 246 307 369
#     4  10  20  36  61  87 116 153 200 251 299 356
#     4  10  22  40  64  94 125 158 201 257 311 365
#     4  10  20  36  61  87 116 153 200 251 299 356
#     4  10  22  40  64  94 125 158 201 257 311 365
#     4  12  26  44  66  93 126 165 207 249 302 369
#     4   9  18  31  53  86 114 145 194 247 294 345
#     4  11  22  35  53  80 120 161 200 248 303 356
#
# _framework density 22.164937999999999
#
# number of rings (size 3 to 8) (size 9 to 14) (size 15 to 20)
#    0.000    1.750    1.250    3.000    1.750    6.500 
#    0.000    1.250    0.000    0.750    0.000    0.000 
#    0.000    0.000    0.000    0.000    0.000    0.000 
#
# Total GULP energy -178635.188452 kJ/mol
# GULP energy per Si atom -5582.349639 kJ/mol
# Density = 2.211449 g / cm^3
# Si number density = 22.164938 Si / 1000 Ang^3
#
#
#
# Elastic Constant Matrix: (Units=GPa)
#
#
# Indices 1 2 3 4 5 6 
#
# 1 245.7277 -1.8169 95.0611 0.0000 0.0000 0.0000
# 2 -1.8169 61.8867 -13.7065 0.0000 0.0000 0.0000
# 3 95.0611 -13.7065 142.7690 0.0000 0.0000 0.0000
# 4 0.0000 0.0000 0.0000 22.2094 0.0000 0.0000
# 5 0.0000 0.0000 0.0000 0.0000 4.0995 0.0000
# 6 0.0000 0.0000 0.0000 0.0000 0.0000 -0.6125
#
#
#
# Elastic Compliance Matrix: (Units=1/GPa)
#
#
# Indices 1 2 3 4 5 6 
#
# 1 0.005508 -0.000665 -0.003731 0.000000 0.000000 0.000000
# 2 -0.000665 0.016590 0.002035 0.000000 0.000000 0.000000
# 3 -0.003731 0.002035 0.009684 0.000000 0.000000 0.000000
# 4 0.000000 0.000000 0.000000 0.045026 0.000000 0.000000
# 5 0.000000 0.000000 0.000000 0.000000 0.243930 0.000000
# 6 0.000000 0.000000 0.000000 0.000000 0.000000 -1.632694
#
#
# Mechanical properties :
#
#
# Convention : Reuss Voigt Hill
#
# Bulk Modulus (GPa) = 36.95405 67.71765 52.33585
# Shear Modulus (GPa) = -3.85144 29.86234 13.00545
#
# Velocity S-wave (km/s) = -1.31962 3.67451 2.42494
# Velocity P-wave (km/s) = 3.79297 6.97286 5.61281
#
# Compressibility (1/GPa) = 0.02706063
#
# Stress axis : x y z
#
# Youngs Moduli (GPa) = 181.55025 60.27794 103.26111
#
# Poissons Ratio (x) = 0.04007 0.38530
# Poissons Ratio (y) = 0.12068 -0.21017
# Poissons Ratio (z) = 0.67742 -0.12268
#
# Static dielectric constant tensor:
#      x y z
#    x 1.855220 0.000000 0.000000 
#    y 0.000000 1.906810 0.000000 
#    z 0.000000 0.000000 1.764440 
# 
# From -- ./inp_files/28102.got.cif
#   From: 2010.05.17/outbox.cif.g08.bks.cpg/sg21_15_cif.got.tgz:28102.got - 2010.06.03 23:14:55.
