data_PCOD9323241
_publ_section_title
;
Structure prediction by ZEFSAII (Michael W. Deem and Ramdas Pophale) SiO2 
 PCOD9323241
Probable space group: C 2 2 2
;
_chemical_formula_sum "Si O2"
_cell_formula_units_Z 40
_cell_length_a 7.190835
_cell_length_b 20.796497
_cell_length_c 12.165252
_cell_angle_alpha 90.000000
_cell_angle_beta 90.000000
_cell_angle_gamma 90.000000
_cell_volume 1819.242617
_symmetry_space_group_name_H-M "C 2 2 2"
_symmetry_group_IT_number 21
_symmetry_cell_setting 'orthorhombic'
loop_
_space_group_symop_operation_xyz
x,y,z
-x,-y,z
x,-y,-z
-x,y,-z
1/2+x,1/2+y,z
1/2-x,1/2-y,z
1/2+x,1/2-y,-z
1/2-x,1/2+y,-z
loop_
_atom_site_type_symbol
_atom_site_label
_atom_site_fract_x
_atom_site_fract_y
_atom_site_fract_z
Si Si1 0.750000 0.750000 0.924200
Si Si2 0.042331 0.810368 0.272273
Si Si3 0.458083 0.424616 0.869960
Si Si4 0.043049 0.681286 0.373753
Si Si5 0.500000 0.861842 0.000000
Si Si6 0.027430 0.572539 0.205987
O O1 0.908228 0.775565 0.842638
O O2 0.666437 0.810829 0.983525
O O3 0.958383 0.876783 0.225123
O O4 0.958906 0.750946 0.340814
O O5 0.235831 0.820532 0.341084
O O6 0.500000 0.500000 0.853110
O O7 0.238788 0.417852 0.838517
O O8 0.500000 0.410610 0.000000
O O9 0.973006 0.623707 0.297486
O O10 0.000000 0.669486 0.500000
O O11 0.575873 0.908500 0.094684
O O12 0.000000 0.500000 0.241212
#
# Coordination Sequence:
#
# PCOD9323241 Si02
#       6
#     4   8   8   8   4   8
#     4  10  20  34  60  84 120 160 196 250 298 360
#     4   9  18  39  56  83 119 150 199 268 305 346
#     4  10  22  37  58  90 125 174 206 240 312 383
#     4   9  18  39  64  81 107 157 205 257 315 358
#     4  12  21  38  58  90 125 168 196 250 315 368
#     4  11  24  39  58  90 132 163 204 259 306 366
#
# _framework density 21.987171
#
# number of rings (size 3 to 8) (size 9 to 14) (size 15 to 20)
#    0.000    2.200    6.000    0.300    7.000    0.400 
#    0.000    6.000    0.000    3.000    0.000    0.000 
#    0.000    0.000    0.000    0.000    0.000    0.000 
#
# Total GULP energy -111354.581710 kJ/mol
# GULP energy per Si atom -5567.729085 kJ/mol
# Density = 2.193713 g / cm^3
# Si number density = 21.987171 Si / 1000 Ang^3
#
#
#
# Elastic Constant Matrix: (Units=GPa)
#
#
# Indices 1 2 3 4 5 6 
#
# 1 59.3641 7.8219 16.9263 0.0000 0.0000 0.0000
# 2 7.8219 159.7919 81.0625 0.0000 0.0000 0.0000
# 3 16.9263 81.0625 146.2542 0.0000 0.0000 0.0000
# 4 0.0000 0.0000 0.0000 6.9073 0.0000 0.0000
# 5 0.0000 0.0000 0.0000 0.0000 9.1651 0.0000
# 6 0.0000 0.0000 0.0000 0.0000 0.0000 29.3206
#
#
#
# Elastic Compliance Matrix: (Units=1/GPa)
#
#
# Indices 1 2 3 4 5 6 
#
# 1 0.017426 0.000237 -0.002148 0.000000 0.000000 0.000000
# 2 0.000237 0.008709 -0.004855 0.000000 0.000000 0.000000
# 3 -0.002148 -0.004855 0.009777 0.000000 0.000000 0.000000
# 4 0.000000 0.000000 0.000000 0.144775 0.000000 0.000000
# 5 0.000000 0.000000 0.000000 0.000000 0.109109 0.000000
# 6 0.000000 0.000000 0.000000 0.000000 0.000000 0.034106
#
#
# Mechanical properties :
#
#
# Convention : Reuss Voigt Hill
#
# Bulk Modulus (GPa) = 44.68150 64.11461 54.39805
# Shear Modulus (GPa) = 14.49721 26.38524 20.44123
#
# Velocity S-wave (km/s) = 2.57056 3.46790 3.05239
# Velocity P-wave (km/s) = 5.40149 6.72744 6.10060
#
# Compressibility (1/GPa) = 0.02238063
#
# Stress axis : x y z
#
# Youngs Moduli (GPa) = 57.38401 114.82001 102.28424
#
# Poissons Ratio (x) = -0.02717 0.21970
# Poissons Ratio (y) = -0.01358 0.49655
# Poissons Ratio (z) = 0.12326 0.55740
#
# Static dielectric constant tensor:
#      x y z
#    x 2.015890 0.000000 0.000000 
#    y 0.000000 1.852650 0.000000 
#    z 0.000000 0.000000 1.792520 
# 
# From -- ./inp_files/22591.got.cif
#   From: 2010.05.17/outbox.cif.g08.bks.cpg/sg21_12_cif.got.tgz:22591.got - 2010.06.03 23:14:55.
