data_PCOD9323757
_publ_section_title
;
Structure prediction by ZEFSAII (Michael W. Deem and Ramdas Pophale) SiO2 
 PCOD9323757
Probable space group: C 2 2 2
;
_chemical_formula_sum "Si O2"
_cell_formula_units_Z 30
_cell_length_a 15.193382
_cell_length_b 5.408040
_cell_length_c 14.698285
_cell_angle_alpha 90.000000
_cell_angle_beta 90.000000
_cell_angle_gamma 90.000000
_cell_volume 1207.705423
_symmetry_space_group_name_H-M "C 2 2 2"
_symmetry_group_IT_number 21
_symmetry_cell_setting 'orthorhombic'
loop_
_space_group_symop_operation_xyz
x,y,z
-x,-y,z
x,-y,-z
-x,y,-z
1/2+x,1/2+y,z
1/2-x,1/2-y,z
1/2+x,1/2-y,-z
1/2-x,1/2+y,-z
loop_
_atom_site_type_symbol
_atom_site_label
_atom_site_fract_x
_atom_site_fract_y
_atom_site_fract_z
Si Si1 0.417104 0.838501 0.650405
Si Si2 0.144050 0.976034 0.819316
Si Si3 0.841572 0.490517 0.106278
Si Si4 0.303505 0.000000 0.500000
Si Si5 0.000000 0.000000 0.500000
O O1 0.378653 0.638622 0.721079
O O2 0.352635 0.026932 0.598240
O O3 0.446071 0.676696 0.564720
O O4 0.500000 0.000000 0.685473
O O5 0.109095 0.748704 0.879810
O O6 0.113055 0.244804 0.853584
O O7 0.249291 0.994134 0.838107
O O8 0.818440 0.500000 0.000000
O O9 0.250000 0.750000 0.511967
#
# Coordination Sequence:
#
# PCOD9323757 Si02
#       5
#     8   8   8   4   2
#     4  12  27  49  72 105 154 212 257 309 395 461
#     4  10  22  37  69 107 142 189 251 300 357 469
#     4  10  20  42  70 112 159 187 230 321 403 438
#     4  12  28  48  75 105 146 198 264 338 376 442
#     4  12  24  52  76  88 154 218 250 294 398 466
#
# _framework density 24.840496000000002
#
# number of rings (size 3 to 8) (size 9 to 14) (size 15 to 20)
#    0.000    1.067    2.667    4.800    7.467    0.000 
#    4.800    0.000    0.000    0.800    0.000    0.000 
#    0.000    0.000    0.000    0.000    0.000    0.000 
#
# Total GULP energy -83697.439555 kJ/mol
# GULP energy per Si atom -5579.829304 kJ/mol
# Density = 2.478396 g / cm^3
# Si number density = 24.840496 Si / 1000 Ang^3
#
#
#
# Elastic Constant Matrix: (Units=GPa)
#
#
# Indices 1 2 3 4 5 6 
#
# 1 72.8967 36.2895 52.1052 0.0000 0.0000 0.0000
# 2 36.2895 212.4170 58.8126 0.0000 0.0000 0.0000
# 3 52.1052 58.8126 192.3032 0.0000 0.0000 0.0000
# 4 0.0000 0.0000 0.0000 40.2638 0.0000 0.0000
# 5 0.0000 0.0000 0.0000 0.0000 54.0276 0.0000
# 6 0.0000 0.0000 0.0000 0.0000 0.0000 12.8003
#
#
#
# Elastic Compliance Matrix: (Units=1/GPa)
#
#
# Indices 1 2 3 4 5 6 
#
# 1 0.017653 -0.001848 -0.004218 0.000000 0.000000 0.000000
# 2 -0.001848 0.005337 -0.001131 0.000000 0.000000 0.000000
# 3 -0.004218 -0.001131 0.006689 0.000000 0.000000 0.000000
# 4 0.000000 0.000000 0.000000 0.024836 0.000000 0.000000
# 5 0.000000 0.000000 0.000000 0.000000 0.018509 0.000000
# 6 0.000000 0.000000 0.000000 0.000000 0.000000 0.078123
#
#
# Mechanical properties :
#
#
# Convention : Reuss Voigt Hill
#
# Bulk Modulus (GPa) = 65.42828 85.78128 75.60478
# Shear Modulus (GPa) = 29.30205 43.44563 36.37384
#
# Velocity S-wave (km/s) = 3.43827 4.18662 3.83076
# Velocity P-wave (km/s) = 6.49298 7.61434 7.07591
#
# Compressibility (1/GPa) = 0.01528391
#
# Stress axis : x y z
#
# Youngs Moduli (GPa) = 56.64786 187.38192 149.49890
#
# Poissons Ratio (x) = 0.34628 0.63058
# Poissons Ratio (y) = 0.10469 0.16915
# Poissons Ratio (z) = 0.23894 0.21201
#
# Static dielectric constant tensor:
#      x y z
#    x 1.869710 0.000000 0.000000 
#    y 0.000000 2.104500 0.000000 
#    z 0.000000 0.000000 1.982620 
# 
# From -- ./inp_files/32543.got.cif
#   From: 2010.05.17/outbox.cif.g08.bks.cpg/sg21_17_cif.got.tgz:32543.got - 2010.06.03 23:14:55.
