data_PCOD9323196
_publ_section_title
;
Structure prediction by ZEFSAII (Michael W. Deem and Ramdas Pophale) SiO2 
 PCOD9323196
Probable space group: C 2 2 2
;
_chemical_formula_sum "Si O2"
_cell_formula_units_Z 32
_cell_length_a 19.745858
_cell_length_b 8.415799
_cell_length_c 9.970981
_cell_angle_alpha 90.000000
_cell_angle_beta 90.000000
_cell_angle_gamma 90.000000
_cell_volume 1656.949425
_symmetry_space_group_name_H-M "C 2 2 2"
_symmetry_group_IT_number 21
_symmetry_cell_setting 'orthorhombic'
loop_
_space_group_symop_operation_xyz
x,y,z
-x,-y,z
x,-y,-z
-x,y,-z
1/2+x,1/2+y,z
1/2-x,1/2-y,z
1/2+x,1/2-y,-z
1/2-x,1/2+y,-z
loop_
_atom_site_type_symbol
_atom_site_label
_atom_site_fract_x
_atom_site_fract_y
_atom_site_fract_z
Si Si1 0.806093 0.119546 0.383999
Si Si2 0.936106 0.666415 0.575595
Si Si3 0.613390 0.524328 0.148250
Si Si4 0.496978 0.759411 0.151386
O O1 0.750000 0.250000 0.348783
O O2 0.872054 0.219477 0.429783
O O3 0.782656 0.000000 0.500000
O O4 0.831643 0.015726 0.259214
O O5 0.923252 0.500000 0.500000
O O6 0.962497 0.643264 0.728170
O O7 0.000000 0.744667 0.500000
O O8 0.572118 0.687185 0.176794
O O9 0.554617 0.390195 0.147505
O O10 0.643499 0.500000 0.000000
O O11 0.500000 0.825218 0.000000
#
# Coordination Sequence:
#
# PCOD9323196 Si02
#       4
#     8   8   8   8
#     4  11  22  36  55  78 109 144 178 217 266 319
#     4  10  20  34  53  79 111 141 176 219 260 312
#     4   8  15  30  54  81 104 132 176 223 265 313
#     4   8  14  28  53  82 107 133 171 220 268 310
#
# _framework density 19.312598999999999
#
# number of rings (size 3 to 8) (size 9 to 14) (size 15 to 20)
#    0.000    2.750    0.000    3.750    0.000    2.500 
#    0.000    3.750    0.000   12.000    0.000    0.000 
#    0.000    0.000    0.000    0.000    0.000    0.000 
#
# Total GULP energy -89118.927024 kJ/mol
# GULP energy per Si atom -5569.932939 kJ/mol
# Density = 1.926864 g / cm^3
# Si number density = 19.312599 Si / 1000 Ang^3
#
#
#
# Elastic Constant Matrix: (Units=GPa)
#
#
# Indices 1 2 3 4 5 6 
#
# 1 61.5101 7.4526 10.4116 0.0000 0.0000 0.0000
# 2 7.4526 64.5595 26.2182 0.0000 0.0000 0.0000
# 3 10.4116 26.2182 125.1933 0.0000 0.0000 0.0000
# 4 0.0000 0.0000 0.0000 4.4362 0.0000 0.0000
# 5 0.0000 0.0000 0.0000 0.0000 0.9982 0.0000
# 6 0.0000 0.0000 0.0000 0.0000 0.0000 13.9721
#
#
#
# Elastic Compliance Matrix: (Units=1/GPa)
#
#
# Indices 1 2 3 4 5 6 
#
# 1 0.016619 -0.001483 -0.001071 0.000000 0.000000 0.000000
# 2 -0.001483 0.017062 -0.003450 0.000000 0.000000 0.000000
# 3 -0.001071 -0.003450 0.008799 0.000000 0.000000 0.000000
# 4 0.000000 0.000000 0.000000 0.225418 0.000000 0.000000
# 5 0.000000 0.000000 0.000000 0.000000 1.001824 0.000000
# 6 0.000000 0.000000 0.000000 0.000000 0.000000 0.071571
#
#
# Mechanical properties :
#
#
# Convention : Reuss Voigt Hill
#
# Bulk Modulus (GPa) = 32.81852 37.71419 35.26635
# Shear Modulus (GPa) = 3.66714 17.69334 10.68024
#
# Velocity S-wave (km/s) = 1.37948 3.03009 2.35419
# Velocity P-wave (km/s) = 4.42352 5.64027 5.06853
#
# Compressibility (1/GPa) = 0.03047060
#
# Stress axis : x y z
#
# Youngs Moduli (GPa) = 60.17371 58.61056 113.64666
#
# Poissons Ratio (x) = 0.08694 0.12177
# Poissons Ratio (y) = 0.08925 0.39205
# Poissons Ratio (z) = 0.06447 0.20219
#
# Static dielectric constant tensor:
#      x y z
#    x 1.646380 0.000000 0.000000 
#    y 0.000000 1.754590 0.000000 
#    z 0.000000 0.000000 1.744270 
# 
# From -- ./inp_files/17083.got.cif
#   From: 2010.05.17/outbox.cif.g08.bks.cpg/sg21_9_cif.got.tgz:17083.got - 2010.06.03 23:14:55.
