data_PCOD9323564
_publ_section_title
;
Structure prediction by ZEFSAII (Michael W. Deem and Ramdas Pophale) SiO2 
 PCOD9323564
Probable space group: C 2 2 2
;
_chemical_formula_sum "Si O2"
_cell_formula_units_Z 48
_cell_length_a 9.391918
_cell_length_b 15.610501
_cell_length_c 17.657428
_cell_angle_alpha 90.000000
_cell_angle_beta 90.000000
_cell_angle_gamma 90.000000
_cell_volume 2588.800463
_symmetry_space_group_name_H-M "C 2 2 2"
_symmetry_group_IT_number 21
_symmetry_cell_setting 'orthorhombic'
loop_
_space_group_symop_operation_xyz
x,y,z
-x,-y,z
x,-y,-z
-x,y,-z
1/2+x,1/2+y,z
1/2-x,1/2-y,z
1/2+x,1/2-y,-z
1/2-x,1/2+y,-z
loop_
_atom_site_type_symbol
_atom_site_label
_atom_site_fract_x
_atom_site_fract_y
_atom_site_fract_z
Si Si1 0.837665 0.100109 0.904641
Si Si2 0.750000 0.750000 0.209493
Si Si3 0.750000 0.750000 0.823196
Si Si4 0.857038 0.329915 0.448902
Si Si5 0.320334 0.403790 0.917342
Si Si6 0.571473 0.591964 0.576257
Si Si7 0.525088 0.260837 0.305214
O O1 0.775750 0.168694 0.845951
O O2 0.009893 0.108668 0.903485
O O3 0.794602 0.001124 0.890307
O O4 0.796449 0.110446 0.993067
O O5 0.621929 0.764223 0.267802
O O6 0.770772 0.666587 0.874028
O O7 0.623410 0.729283 0.767131
O O8 0.750000 0.250000 0.471967
O O9 0.741432 0.406131 0.439473
O O10 0.912950 0.306930 0.365073
O O11 0.000000 0.340505 0.500000
O O12 0.500000 0.500000 0.587116
O O13 0.500000 0.628633 0.500000
O O14 0.530205 0.652066 0.646177
#
# Coordination Sequence:
#
# PCOD9323564 Si02
#       7
#     8   4   4   8   8   8   8
#     4   9  19  38  57  90 112 161 208 255 304 373
#     4  12  23  36  59  94 128 154 206 260 323 368
#     4  12  19  38  59  92 118 164 198 254 309 374
#     4  10  20  38  65  92 119 161 213 252 303 381
#     4   9  19  36  64  80 118 159 212 251 303 376
#     4  10  22  42  65  89 121 164 208 256 309 368
#     4  11  23  36  59  90 122 158 204 248 314 374
#
# _framework density 18.541405999999998
#
# number of rings (size 3 to 8) (size 9 to 14) (size 15 to 20)
#    0.000    1.833    4.167    3.500    3.500    1.333 
#    0.000    2.500    0.000    2.000    0.000    0.000 
#    0.000    0.000    0.000    0.000    0.000    0.000 
#
# Total GULP energy -133670.939986 kJ/mol
# GULP energy per Si atom -5569.622499 kJ/mol
# Density = 1.849920 g / cm^3
# Si number density = 18.541406 Si / 1000 Ang^3
#
#
#
# Elastic Constant Matrix: (Units=GPa)
#
#
# Indices 1 2 3 4 5 6 
#
# 1 95.5736 47.6641 50.9704 0.0000 0.0000 0.0000
# 2 47.6641 106.3837 71.8139 0.0000 0.0000 0.0000
# 3 50.9704 71.8139 108.4483 0.0000 0.0000 0.0000
# 4 0.0000 0.0000 0.0000 0.8524 0.0000 0.0000
# 5 0.0000 0.0000 0.0000 0.0000 26.9962 0.0000
# 6 0.0000 0.0000 0.0000 0.0000 0.0000 25.6636
#
#
#
# Elastic Compliance Matrix: (Units=1/GPa)
#
#
# Indices 1 2 3 4 5 6 
#
# 1 0.014635 -0.003461 -0.004587 0.000000 0.000000 0.000000
# 2 -0.003461 0.017817 -0.010172 0.000000 0.000000 0.000000
# 3 -0.004587 -0.010172 0.018112 0.000000 0.000000 0.000000
# 4 0.000000 0.000000 0.000000 1.173108 0.000000 0.000000
# 5 0.000000 0.000000 0.000000 0.000000 0.037042 0.000000
# 6 0.000000 0.000000 0.000000 0.000000 0.000000 0.038966
#
#
# Mechanical properties :
#
#
# Convention : Reuss Voigt Hill
#
# Bulk Modulus (GPa) = 70.79176 72.36694 71.57935
# Shear Modulus (GPa) = 3.72904 20.03291 11.88098
#
# Velocity S-wave (km/s) = 1.41971 3.29057 2.53411
# Velocity P-wave (km/s) = 6.39927 7.31791 6.87395
#
# Compressibility (1/GPa) = 0.01412594
#
# Stress axis : x y z
#
# Youngs Moduli (GPa) = 68.32786 56.12649 55.21094
#
# Poissons Ratio (x) = 0.19425 0.25324
# Poissons Ratio (y) = 0.23648 0.56159
# Poissons Ratio (z) = 0.31340 0.57090
#
# Static dielectric constant tensor:
#      x y z
#    x 1.636060 0.000000 0.000000 
#    y 0.000000 1.677710 0.000000 
#    z 0.000000 0.000000 1.618610 
# 
# From -- ./inp_files/30546.got.cif
#   From: 2010.05.17/outbox.cif.g08.bks.cpg/sg21_16_cif.got.tgz:30546.got - 2010.06.03 23:14:55.
