data_PCOD9323235
_publ_section_title
;
Structure prediction by ZEFSAII (Michael W. Deem and Ramdas Pophale) SiO2 
 PCOD9323235
Probable space group: C 2 2 2
;
_chemical_formula_sum "Si O2"
_cell_formula_units_Z 32
_cell_length_a 14.426193
_cell_length_b 20.711845
_cell_length_c 5.332993
_cell_angle_alpha 90.000000
_cell_angle_beta 90.000000
_cell_angle_gamma 90.000000
_cell_volume 1593.461369
_symmetry_space_group_name_H-M "C 2 2 2"
_symmetry_group_IT_number 21
_symmetry_cell_setting 'orthorhombic'
loop_
_space_group_symop_operation_xyz
x,y,z
-x,-y,z
x,-y,-z
-x,y,-z
1/2+x,1/2+y,z
1/2-x,1/2-y,z
1/2+x,1/2-y,-z
1/2-x,1/2+y,-z
loop_
_atom_site_type_symbol
_atom_site_label
_atom_site_fract_x
_atom_site_fract_y
_atom_site_fract_z
Si Si1 0.539945 0.073212 0.752676
Si Si2 0.898530 0.146298 0.910549
Si Si3 0.746390 0.434082 0.646575
Si Si4 0.181409 0.808957 0.415734
O O1 0.500000 0.104223 0.500000
O O2 0.650228 0.067109 0.754725
O O3 0.500000 0.000000 0.751442
O O4 0.500000 0.105997 0.000000
O O5 0.830459 0.085724 0.852696
O O6 0.892123 0.184651 0.645538
O O7 0.860032 0.189357 0.138377
O O8 0.000000 0.125801 0.000000
O O9 0.728530 0.500000 0.500000
O O10 0.738817 0.375323 0.449817
O O11 0.250000 0.750000 0.456674
#
# Coordination Sequence:
#
# PCOD9323235 Si02
#       4
#     8   8   8   8
#     4  10  20  34  59  87 137 162 214 264 340 404
#     4  10  23  43  73  95 139 179 238 291 348 419
#     4  10  23  41  70  99 138 184 224 297 350 418
#     4  10  23  43  71  94 137 177 239 284 355 406
#
# _framework density 20.082068
#
# number of rings (size 3 to 8) (size 9 to 14) (size 15 to 20)
#    1.500    0.500    2.500    1.500    3.500    1.000 
#    0.000    7.500    0.000    0.000    0.000    0.000 
#    0.000    0.000    0.000    0.000    0.000    0.000 
#
# Total GULP energy -89093.508844 kJ/mol
# GULP energy per Si atom -5568.344303 kJ/mol
# Density = 2.003636 g / cm^3
# Si number density = 20.082068 Si / 1000 Ang^3
#
#
#
# Elastic Constant Matrix: (Units=GPa)
#
#
# Indices 1 2 3 4 5 6 
#
# 1 160.7835 28.4152 56.8755 0.0000 0.0000 0.0000
# 2 28.4152 76.4392 24.5593 0.0000 0.0000 0.0000
# 3 56.8755 24.5593 169.8516 0.0000 0.0000 0.0000
# 4 0.0000 0.0000 0.0000 7.1790 0.0000 0.0000
# 5 0.0000 0.0000 0.0000 0.0000 14.9461 0.0000
# 6 0.0000 0.0000 0.0000 0.0000 0.0000 20.4371
#
#
#
# Elastic Compliance Matrix: (Units=1/GPa)
#
#
# Indices 1 2 3 4 5 6 
#
# 1 0.007345 -0.002035 -0.002165 0.000000 0.000000 0.000000
# 2 -0.002035 0.014283 -0.001384 0.000000 0.000000 0.000000
# 3 -0.002165 -0.001384 0.006813 0.000000 0.000000 0.000000
# 4 0.000000 0.000000 0.000000 0.139295 0.000000 0.000000
# 5 0.000000 0.000000 0.000000 0.000000 0.066907 0.000000
# 6 0.000000 0.000000 0.000000 0.000000 0.000000 0.048931
#
#
# Mechanical properties :
#
#
# Convention : Reuss Voigt Hill
#
# Bulk Modulus (GPa) = 57.89346 69.64161 63.76754
# Shear Modulus (GPa) = 16.63895 28.32739 22.48317
#
# Velocity S-wave (km/s) = 2.88157 3.75984 3.34962
# Velocity P-wave (km/s) = 6.32157 7.32136 6.83976
#
# Compressibility (1/GPa) = 0.01727311
#
# Stress axis : x y z
#
# Youngs Moduli (GPa) = 136.14504 70.01170 146.78537
#
# Poissons Ratio (x) = 0.14246 0.31784
# Poissons Ratio (y) = 0.27702 0.20314
# Poissons Ratio (z) = 0.29480 0.09689
#
# Static dielectric constant tensor:
#      x y z
#    x 1.713770 0.000000 0.000000 
#    y 0.000000 1.698830 0.000000 
#    z 0.000000 0.000000 1.606100 
# 
# From -- ./inp_files/3631.got.cif
#   From: 2010.05.17/outbox.cif.g08.bks.cpg/sg21_2_cif.got.tgz:3631.got - 2010.06.03 23:14:55.
