data_PCOD9323457
_publ_section_title
;
Structure prediction by ZEFSAII (Michael W. Deem and Ramdas Pophale) SiO2 
 PCOD9323457
Probable space group: C 2 2 2
;
_chemical_formula_sum "Si O2"
_cell_formula_units_Z 56
_cell_length_a 14.393245
_cell_length_b 8.257898
_cell_length_c 21.099221
_cell_angle_alpha 90.000000
_cell_angle_beta 90.000000
_cell_angle_gamma 90.000000
_cell_volume 2507.810136
_symmetry_space_group_name_H-M "C 2 2 2"
_symmetry_group_IT_number 21
_symmetry_cell_setting 'orthorhombic'
loop_
_space_group_symop_operation_xyz
x,y,z
-x,-y,z
x,-y,-z
-x,y,-z
1/2+x,1/2+y,z
1/2-x,1/2-y,z
1/2+x,1/2-y,-z
1/2-x,1/2+y,-z
loop_
_atom_site_type_symbol
_atom_site_label
_atom_site_fract_x
_atom_site_fract_y
_atom_site_fract_z
Si Si1 0.854778 0.805625 0.490390
Si Si2 0.889049 0.306305 0.811982
Si Si3 0.676211 0.615095 0.940132
Si Si4 0.010049 0.803896 0.398428
Si Si5 0.944986 0.825839 0.743821
Si Si6 0.775272 0.010531 0.197763
Si Si7 0.995879 0.687614 0.075650
O O1 0.750000 0.750000 0.489646
O O2 0.913917 0.746118 0.550775
O O3 0.910482 0.752720 0.427117
O O4 0.855995 0.000000 0.500000
O O5 0.830641 0.154367 0.786818
O O6 0.832271 0.464752 0.791421
O O7 0.993376 0.291790 0.786959
O O8 0.902723 0.265896 0.887133
O O9 0.750000 0.750000 0.962934
O O10 0.721949 0.538776 0.877784
O O11 0.582756 0.696034 0.911671
O O12 0.655689 0.500000 0.000000
O O13 0.042304 0.765067 0.327932
O O14 0.000000 0.000000 0.399986
O O15 0.839201 0.856391 0.766864
O O16 0.000000 0.000000 0.747959
O O17 0.000000 0.500000 0.094646
O O18 0.000000 0.689212 0.000000
#
# Coordination Sequence:
#
# PCOD9323457 Si02
#       7
#     8   8   8   8   8   8   8
#     4   9  17  33  57  89 119 161 203 251 306 361
#     4  10  20  37  60  86 120 153 206 264 320 393
#     4  12  27  41  63  90 121 164 213 268 332 397
#     4   8  16  33  56  81 122 161 204 253 304 373
#     4   9  17  35  57  85 118 161 208 261 317 382
#     4  10  21  37  60  87 118 158 203 267 326 381
#     4  11  24  40  62  86 117 157 204 263 333 390
#
# _framework density 22.330238000000001
#
# number of rings (size 3 to 8) (size 9 to 14) (size 15 to 20)
#    0.000    2.143    1.429    2.571    6.000    1.429 
#   10.286    2.143    0.000    0.000    0.000    0.000 
#    0.000    0.000    0.000    0.000    0.000    0.000 
#
# Total GULP energy -156072.130946 kJ/mol
# GULP energy per Si atom -5574.004677 kJ/mol
# Density = 2.227941 g / cm^3
# Si number density = 22.330238 Si / 1000 Ang^3
#
#
#
# Elastic Constant Matrix: (Units=GPa)
#
#
# Indices 1 2 3 4 5 6 
#
# 1 167.9205 40.7921 59.7380 0.0000 0.0000 0.0000
# 2 40.7921 48.2580 19.4731 0.0000 0.0000 0.0000
# 3 59.7380 19.4731 125.1129 0.0000 0.0000 0.0000
# 4 0.0000 0.0000 0.0000 4.4902 0.0000 0.0000
# 5 0.0000 0.0000 0.0000 0.0000 6.9414 0.0000
# 6 0.0000 0.0000 0.0000 0.0000 0.0000 43.9575
#
#
#
# Elastic Compliance Matrix: (Units=1/GPa)
#
#
# Indices 1 2 3 4 5 6 
#
# 1 0.008513 -0.005928 -0.003142 0.000000 0.000000 0.000000
# 2 -0.005928 0.026239 -0.001253 0.000000 0.000000 0.000000
# 3 -0.003142 -0.001253 0.009688 0.000000 0.000000 0.000000
# 4 0.000000 0.000000 0.000000 0.222709 0.000000 0.000000
# 5 0.000000 0.000000 0.000000 0.000000 0.144064 0.000000
# 6 0.000000 0.000000 0.000000 0.000000 0.000000 0.022749
#
#
# Mechanical properties :
#
#
# Convention : Reuss Voigt Hill
#
# Bulk Modulus (GPa) = 42.02965 64.58864 53.30914
# Shear Modulus (GPa) = 10.80986 25.83035 18.32011
#
# Velocity S-wave (km/s) = 2.20259 3.40478 2.86740
# Velocity P-wave (km/s) = 5.03302 6.66662 5.90657
#
# Compressibility (1/GPa) = 0.02379273
#
# Stress axis : x y z
#
# Youngs Moduli (GPa) = 117.46598 38.11159 103.21916
#
# Poissons Ratio (x) = 0.22593 0.32432
# Poissons Ratio (y) = 0.69636 0.12937
# Poissons Ratio (z) = 0.36909 0.04777
#
# Static dielectric constant tensor:
#      x y z
#    x 1.964470 0.000000 0.000000 
#    y 0.000000 2.108990 0.000000 
#    z 0.000000 0.000000 1.872500 
# 
# From -- ./inp_files/37601.got.cif
#   From: 2010.05.17/outbox.cif.g08.bks.cpg/sg21_19_cif.got.tgz:37601.got - 2010.06.03 23:14:55.
