data_PCOD9323948
_publ_section_title
;
Structure prediction by ZEFSAII (Michael W. Deem and Ramdas Pophale) SiO2 
 PCOD9323948
Probable space group: C 2 2 2
;
_chemical_formula_sum "Si O2"
_cell_formula_units_Z 56
_cell_length_a 14.130632
_cell_length_b 22.031963
_cell_length_c 9.656591
_cell_angle_alpha 90.000000
_cell_angle_beta 90.000000
_cell_angle_gamma 90.000000
_cell_volume 3006.343614
_symmetry_space_group_name_H-M "C 2 2 2"
_symmetry_group_IT_number 21
_symmetry_cell_setting 'orthorhombic'
loop_
_space_group_symop_operation_xyz
x,y,z
-x,-y,z
x,-y,-z
-x,y,-z
1/2+x,1/2+y,z
1/2-x,1/2-y,z
1/2+x,1/2-y,-z
1/2-x,1/2+y,-z
loop_
_atom_site_type_symbol
_atom_site_label
_atom_site_fract_x
_atom_site_fract_y
_atom_site_fract_z
Si Si1 0.403886 0.250093 0.585360
Si Si2 0.613130 0.105353 0.000759
Si Si3 0.756777 0.056665 0.209189
Si Si4 0.904278 0.261394 0.088030
Si Si5 0.742734 0.415198 0.762619
Si Si6 0.886206 0.870015 0.996716
Si Si7 0.251096 0.147565 0.534342
O O1 0.500000 0.253101 0.500000
O O2 0.422487 0.243471 0.748873
O O3 0.340934 0.192338 0.541702
O O4 0.339882 0.309496 0.559563
O O5 0.661566 0.095947 0.851885
O O6 0.500000 0.098391 0.000000
O O7 0.664730 0.061660 0.110161
O O8 0.639457 0.173469 0.052557
O O9 0.743969 0.098303 0.343610
O O10 0.773007 0.987138 0.247651
O O11 0.841310 0.084366 0.115711
O O12 0.855877 0.198641 0.043336
O O13 0.000000 0.261949 0.000000
O O14 0.659321 0.387067 0.856572
O O15 0.746686 0.384195 0.614086
O O16 0.000000 0.873523 0.000000
#
# Coordination Sequence:
#
# PCOD9323948 Si02
#       7
#     8   8   8   8   8   8   8
#     4  11  25  43  66  92 126 157 199 251 316 368
#     4  10  22  40  65  91 122 157 207 258 306 354
#     4  11  22  43  61  87 126 166 206 249 296 363
#     4  10  21  37  67  93 117 154 200 252 312 360
#     4  11  26  38  61  92 123 166 210 247 295 361
#     4  10  22  40  65  91 122 157 207 258 306 354
#     4  11  25  41  64  91 126 164 197 250 310 370
#
# _framework density 18.627279000000001
#
# number of rings (size 3 to 8) (size 9 to 14) (size 15 to 20)
#    0.000    1.429    2.857    2.143    8.000    5.714 
#    0.000    0.000    0.000    5.143    0.000    0.000 
#    0.000    0.000    0.000    0.000    0.000    0.000 
#
# Total GULP energy -156425.139769 kJ/mol
# GULP energy per Si atom -5586.612135 kJ/mol
# Density = 1.858488 g / cm^3
# Si number density = 18.627279 Si / 1000 Ang^3
#
#
#
# Elastic Constant Matrix: (Units=GPa)
#
#
# Indices 1 2 3 4 5 6 
#
# 1 81.3832 -5.7072 17.3811 0.0000 0.0000 0.0000
# 2 -5.7072 102.0050 45.8995 0.0000 0.0000 0.0000
# 3 17.3811 45.8995 147.9871 0.0000 0.0000 0.0000
# 4 0.0000 0.0000 0.0000 35.1817 0.0000 0.0000
# 5 0.0000 0.0000 0.0000 0.0000 21.4341 0.0000
# 6 0.0000 0.0000 0.0000 0.0000 0.0000 -2.3089
#
#
#
# Elastic Compliance Matrix: (Units=1/GPa)
#
#
# Indices 1 2 3 4 5 6 
#
# 1 0.012831 0.001622 -0.002010 0.000000 0.000000 0.000000
# 2 0.001622 0.011599 -0.003788 0.000000 0.000000 0.000000
# 3 -0.002010 -0.003788 0.008168 0.000000 0.000000 0.000000
# 4 0.000000 0.000000 0.000000 0.028424 0.000000 0.000000
# 5 0.000000 0.000000 0.000000 0.000000 0.046655 0.000000
# 6 0.000000 0.000000 0.000000 0.000000 0.000000 -0.433100
#
#
# Mechanical properties :
#
#
# Convention : Reuss Voigt Hill
#
# Bulk Modulus (GPa) = 41.24365 49.61356 45.42860
# Shear Modulus (GPa) = -16.18177 29.11482 6.46653
#
# Velocity S-wave (km/s) = -2.95059 3.95779 1.86523
# Velocity P-wave (km/s) = 3.25294 6.89770 5.39258
#
# Compressibility (1/GPa) = 0.02424616
#
# Stress axis : x y z
#
# Youngs Moduli (GPa) = 77.93841 86.21651 122.42424
#
# Poissons Ratio (x) = -0.13988 0.24609
# Poissons Ratio (y) = -0.12645 0.46374
# Poissons Ratio (z) = 0.15667 0.32659
#
# Static dielectric constant tensor:
#      x y z
#    x 1.633060 0.000000 0.000000 
#    y 0.000000 1.661080 0.000000 
#    z 0.000000 0.000000 1.606030 
# 
# From -- ./inp_files/15314.got.cif
#   From: 2010.05.17/outbox.cif.g08.bks.cpg/sg21_8_cif.got.tgz:15314.got - 2010.06.03 23:14:55.
