data_PCOD9323553
_publ_section_title
;
Structure prediction by ZEFSAII (Michael W. Deem and Ramdas Pophale) SiO2 
 PCOD9323553
Probable space group: C 2 2 2
;
_chemical_formula_sum "Si O2"
_cell_formula_units_Z 28
_cell_length_a 5.083031
_cell_length_b 15.130220
_cell_length_c 17.592482
_cell_angle_alpha 90.000000
_cell_angle_beta 90.000000
_cell_angle_gamma 90.000000
_cell_volume 1352.991651
_symmetry_space_group_name_H-M "C 2 2 2"
_symmetry_group_IT_number 21
_symmetry_cell_setting 'orthorhombic'
loop_
_space_group_symop_operation_xyz
x,y,z
-x,-y,z
x,-y,-z
-x,y,-z
1/2+x,1/2+y,z
1/2-x,1/2-y,z
1/2+x,1/2-y,-z
1/2-x,1/2+y,-z
loop_
_atom_site_type_symbol
_atom_site_label
_atom_site_fract_x
_atom_site_fract_y
_atom_site_fract_z
Si Si1 0.500000 0.186132 0.500000
Si Si2 0.760622 0.441872 0.205342
Si Si3 0.997283 0.685034 0.666362
Si Si4 0.255080 0.356250 0.953433
O O1 0.750000 0.250000 0.496664
O O2 0.528083 0.140932 0.582413
O O3 0.500000 0.500000 0.226263
O O4 0.903416 0.387334 0.272861
O O5 0.698748 0.379672 0.134362
O O6 0.000000 0.500000 0.174583
O O7 0.750000 0.750000 0.662489
O O8 0.250000 0.750000 0.682719
O O9 0.250000 0.250000 0.956921
O O10 0.500000 0.391313 0.000000
O O11 0.000000 0.387158 0.000000
#
# Coordination Sequence:
#
# PCOD9323553 Si02
#       4
#     4   8   8   8
#     4   8  16  32  59  88 109 144 200 252 288 334
#     4  12  25  38  57  89 125 157 193 241 305 367
#     4  10  20  38  63  87 116 156 204 250 294 350
#     4  10  22  40  61  83 110 151 202 248 292 349
#
# _framework density 20.694880000000001
#
# number of rings (size 3 to 8) (size 9 to 14) (size 15 to 20)
#    0.000    1.714    0.000    4.286    0.000    6.857 
#    0.000    0.714    0.000    1.714    0.000    0.000 
#    0.000    0.000    0.000    0.000    0.000    0.000 
#
# Total GULP energy -77959.942054 kJ/mol
# GULP energy per Si atom -5568.567290 kJ/mol
# Density = 2.064778 g / cm^3
# Si number density = 20.694880 Si / 1000 Ang^3
#
#
#
# Elastic Constant Matrix: (Units=GPa)
#
#
# Indices 1 2 3 4 5 6 
#
# 1 178.4986 30.0824 41.0884 0.0000 0.0000 0.0000
# 2 30.0824 46.2353 32.7259 0.0000 0.0000 0.0000
# 3 41.0884 32.7259 167.2115 0.0000 0.0000 0.0000
# 4 0.0000 0.0000 0.0000 7.1881 0.0000 0.0000
# 5 0.0000 0.0000 0.0000 0.0000 31.5092 0.0000
# 6 0.0000 0.0000 0.0000 0.0000 0.0000 -2.3415
#
#
#
# Elastic Compliance Matrix: (Units=1/GPa)
#
#
# Indices 1 2 3 4 5 6 
#
# 1 0.006402 -0.003543 -0.000880 0.000000 0.000000 0.000000
# 2 -0.003543 0.027067 -0.004427 0.000000 0.000000 0.000000
# 3 -0.000880 -0.004427 0.007063 0.000000 0.000000 0.000000
# 4 0.000000 0.000000 0.000000 0.139120 0.000000 0.000000
# 5 0.000000 0.000000 0.000000 0.000000 0.031737 0.000000
# 6 0.000000 0.000000 0.000000 0.000000 0.000000 -0.427081
#
#
# Mechanical properties :
#
#
# Convention : Reuss Voigt Hill
#
# Bulk Modulus (GPa) = 43.79574 66.63763 55.21669
# Shear Modulus (GPa) = -26.26278 26.47439 0.10581
#
# Velocity S-wave (km/s) = -3.56623 3.58057 0.22636
# Velocity P-wave (km/s) = 2.06184 7.02595 5.17760
#
# Compressibility (1/GPa) = 0.02283327
#
# Stress axis : x y z
#
# Youngs Moduli (GPa) = 156.20543 36.94554 141.58186
#
# Poissons Ratio (x) = 0.13088 0.12456
# Poissons Ratio (y) = 0.55337 0.62677
# Poissons Ratio (z) = 0.13742 0.16355
#
# Static dielectric constant tensor:
#      x y z
#    x 1.703730 0.000000 0.000000 
#    y 0.000000 1.007940 0.000000 
#    z 0.000000 0.000000 1.816920 
# 
# From -- ./inp_files/28566.got.cif
#   From: 2010.05.17/outbox.cif.g08.bks.cpg/sg21_15_cif.got.tgz:28566.got - 2010.06.03 23:14:55.
