data_PCOD9323303
_publ_section_title
;
Structure prediction by ZEFSAII (Michael W. Deem and Ramdas Pophale) SiO2 
 PCOD9323303
Probable space group: C 2 2 2
;
_chemical_formula_sum "Si O2"
_cell_formula_units_Z 48
_cell_length_a 15.469584
_cell_length_b 14.115809
_cell_length_c 10.436720
_cell_angle_alpha 90.000000
_cell_angle_beta 90.000000
_cell_angle_gamma 90.000000
_cell_volume 2279.021596
_symmetry_space_group_name_H-M "C 2 2 2"
_symmetry_group_IT_number 21
_symmetry_cell_setting 'orthorhombic'
loop_
_space_group_symop_operation_xyz
x,y,z
-x,-y,z
x,-y,-z
-x,y,-z
1/2+x,1/2+y,z
1/2-x,1/2-y,z
1/2+x,1/2-y,-z
1/2-x,1/2+y,-z
loop_
_atom_site_type_symbol
_atom_site_label
_atom_site_fract_x
_atom_site_fract_y
_atom_site_fract_z
Si Si1 0.403735 0.047210 0.372345
Si Si2 0.851881 0.448466 0.123050
Si Si3 0.599695 0.458760 0.634882
Si Si4 0.903007 0.239441 0.532402
Si Si5 0.651529 0.561487 0.884467
Si Si6 0.852921 0.252421 0.235638
O O1 0.404582 0.158926 0.399578
O O2 0.500000 0.000000 0.362521
O O3 0.363946 0.000000 0.500000
O O4 0.355932 0.019129 0.243208
O O5 0.753001 0.424323 0.085410
O O6 0.889879 0.349870 0.177717
O O7 0.892331 0.500000 0.000000
O O8 0.500000 0.500000 0.645856
O O9 0.631168 0.500000 0.500000
O O10 0.622252 0.347403 0.623194
O O11 0.646724 0.500496 0.756339
O O12 0.863151 0.246155 0.389796
O O13 0.000000 0.210678 0.500000
O O14 0.611221 0.662050 0.842239
O O15 0.612468 0.500000 0.000000
O O16 0.750000 0.250000 0.217032
#
# Coordination Sequence:
#
# PCOD9323303 Si02
#       6
#     8   8   8   8   8   8
#     4  11  21  36  59  86 112 149 185 235 277 333
#     4  10  22  39  58  82 116 151 188 233 281 334
#     4  11  21  36  59  86 112 149 185 235 277 333
#     4  12  20  35  58  86 116 144 188 231 282 332
#     4  10  22  39  58  82 116 151 188 233 281 334
#     4  10  20  35  58  83 110 149 188 231 284 330
#
# _framework density 21.061668999999998
#
# number of rings (size 3 to 8) (size 9 to 14) (size 15 to 20)
#    0.000    1.333    6.667    0.000    0.000    4.000 
#    0.000    1.667    0.000    6.000    0.000    0.000 
#    0.000    0.000    0.000    0.000    0.000    0.000 
#
# Total GULP energy -133772.025761 kJ/mol
# GULP energy per Si atom -5573.834407 kJ/mol
# Density = 2.101373 g / cm^3
# Si number density = 21.061669 Si / 1000 Ang^3
#
#
#
# Elastic Constant Matrix: (Units=GPa)
#
#
# Indices 1 2 3 4 5 6 
#
# 1 18.9524 1.3198 5.3050 0.0000 0.0000 0.0000
# 2 1.3198 165.0690 45.4551 0.0000 0.0000 0.0000
# 3 5.3050 45.4551 107.0654 0.0000 0.0000 0.0000
# 4 0.0000 0.0000 0.0000 115.6945 0.0000 0.0000
# 5 0.0000 0.0000 0.0000 0.0000 -8.4737 0.0000
# 6 0.0000 0.0000 0.0000 0.0000 0.0000 30.5004
#
#
#
# Elastic Compliance Matrix: (Units=1/GPa)
#
#
# Indices 1 2 3 4 5 6 
#
# 1 0.053523 0.000342 -0.002797 0.000000 0.000000 0.000000
# 2 0.000342 0.006862 -0.002930 0.000000 0.000000 0.000000
# 3 -0.002797 -0.002930 0.010723 0.000000 0.000000 0.000000
# 4 0.000000 0.000000 0.000000 0.008643 0.000000 0.000000
# 5 0.000000 0.000000 0.000000 0.000000 -0.118013 0.000000
# 6 0.000000 0.000000 0.000000 0.000000 0.000000 0.032786
#
#
# Mechanical properties :
#
#
# Convention : Reuss Voigt Hill
#
# Bulk Modulus (GPa) = 16.57352 43.91627 30.24489
# Shear Modulus (GPa) = 196.78698 43.47805 120.13251
#
# Velocity S-wave (km/s) = 9.67660 4.54841 7.56057
# Velocity P-wave (km/s) = 11.52106 6.96280 9.51881
#
# Compressibility (1/GPa) = 0.06033721
#
# Stress axis : x y z
#
# Youngs Moduli (GPa) = 18.68362 145.72433 93.25929
#
# Poissons Ratio (x) = -0.04989 0.26088
# Poissons Ratio (y) = -0.00640 0.27328
# Poissons Ratio (z) = 0.05226 0.42703
#
# Static dielectric constant tensor:
#      x y z
#    x 1.811840 0.000000 0.000000 
#    y 0.000000 2.034220 0.000000 
#    z 0.000000 0.000000 1.755450 
# 
# From -- ./inp_files/17578.got.cif
#   From: 2010.05.17/outbox.cif.g08.bks.cpg/sg21_9_cif.got.tgz:17578.got - 2010.06.03 23:14:55.
