data_PCOD9323783
_publ_section_title
;
Structure prediction by ZEFSAII (Michael W. Deem and Ramdas Pophale) SiO2 
 PCOD9323783
Probable space group: C 2 2 2
;
_chemical_formula_sum "Si O2"
_cell_formula_units_Z 56
_cell_length_a 15.725910
_cell_length_b 14.911124
_cell_length_c 10.148119
_cell_angle_alpha 90.000000
_cell_angle_beta 90.000000
_cell_angle_gamma 90.000000
_cell_volume 2379.642512
_symmetry_space_group_name_H-M "C 2 2 2"
_symmetry_group_IT_number 21
_symmetry_cell_setting 'orthorhombic'
loop_
_space_group_symop_operation_xyz
x,y,z
-x,-y,z
x,-y,-z
-x,y,-z
1/2+x,1/2+y,z
1/2-x,1/2-y,z
1/2+x,1/2-y,-z
1/2-x,1/2+y,-z
loop_
_atom_site_type_symbol
_atom_site_label
_atom_site_fract_x
_atom_site_fract_y
_atom_site_fract_z
Si Si1 0.980851 0.774009 0.727213
Si Si2 0.162566 0.711218 0.437843
Si Si3 0.041793 0.597789 0.123839
Si Si4 0.290389 0.914612 0.200437
Si Si5 0.113235 0.903315 0.060900
Si Si6 0.170297 0.182577 0.213065
Si Si7 0.288867 0.064830 0.385268
O O1 0.913511 0.777182 0.604647
O O2 0.971614 0.668119 0.760736
O O3 0.946786 0.842511 0.842942
O O4 0.081680 0.789244 0.717499
O O5 0.250000 0.750000 0.497553
O O6 0.199380 0.665853 0.303642
O O7 0.145865 0.631586 0.542240
O O8 0.141314 0.596861 0.086768
O O9 0.000000 0.500000 0.139622
O O10 0.000000 0.644544 0.000000
O O11 0.196492 0.923455 0.148821
O O12 0.328929 0.999633 0.277676
O O13 0.143366 0.847642 0.933373
O O14 0.085720 0.000000 0.000000
O O15 0.250000 0.250000 0.198696
O O16 0.211286 0.107488 0.306279
O O17 0.254704 0.000000 0.500000
#
# Coordination Sequence:
#
# PCOD9323783 Si02
#       7
#     8   8   8   8   8   8   8
#     4  11  26  46  70 114 147 196 252 310 377 467
#     4  10  20  44  78  94 137 190 251 301 368 438
#     4  10  23  37  66 100 147 187 238 298 368 453
#     4  10  22  41  71 104 140 194 244 300 381 453
#     4  12  25  44  74 108 155 203 242 307 388 476
#     4  12  28  43  73 109 155 189 248 315 377 451
#     4  10  23  47  74 100 137 194 252 309 366 449
#
# _framework density 23.532945999999999
#
# number of rings (size 3 to 8) (size 9 to 14) (size 15 to 20)
#    0.000    1.286    2.857    1.714   10.000    1.143 
#    0.000    2.857    6.286    0.000    0.000    0.000 
#    0.000    0.000    0.000    0.000    0.000    0.000 
#
# Total GULP energy -156085.937882 kJ/mol
# GULP energy per Si atom -5574.497781 kJ/mol
# Density = 2.347938 g / cm^3
# Si number density = 23.532946 Si / 1000 Ang^3
#
#
#
# Elastic Constant Matrix: (Units=GPa)
#
#
# Indices 1 2 3 4 5 6 
#
# 1 134.2733 43.7695 31.0099 0.0000 0.0000 0.0000
# 2 43.7695 95.5605 23.6870 0.0000 0.0000 0.0000
# 3 31.0099 23.6870 85.0474 0.0000 0.0000 0.0000
# 4 0.0000 0.0000 0.0000 40.5058 0.0000 0.0000
# 5 0.0000 0.0000 0.0000 0.0000 15.5630 0.0000
# 6 0.0000 0.0000 0.0000 0.0000 0.0000 56.7837
#
#
#
# Elastic Compliance Matrix: (Units=1/GPa)
#
#
# Indices 1 2 3 4 5 6 
#
# 1 0.009167 -0.003620 -0.002334 0.000000 0.000000 0.000000
# 2 -0.003620 0.012670 -0.002209 0.000000 0.000000 0.000000
# 3 -0.002334 -0.002209 0.013224 0.000000 0.000000 0.000000
# 4 0.000000 0.000000 0.000000 0.024688 0.000000 0.000000
# 5 0.000000 0.000000 0.000000 0.000000 0.064255 0.000000
# 6 0.000000 0.000000 0.000000 0.000000 0.000000 0.017611
#
#
# Mechanical properties :
#
#
# Convention : Reuss Voigt Hill
#
# Bulk Modulus (GPa) = 53.37556 56.86822 55.12189
# Shear Modulus (GPa) = 30.45330 36.99815 33.72572
#
# Velocity S-wave (km/s) = 3.60122 3.96938 3.78977
# Velocity P-wave (km/s) = 6.32631 6.72501 6.52870
#
# Compressibility (1/GPa) = 0.01873517
#
# Stress axis : x y z
#
# Youngs Moduli (GPa) = 109.09207 78.92549 75.61766
#
# Poissons Ratio (x) = 0.28571 0.17650
# Poissons Ratio (y) = 0.39491 0.16703
# Poissons Ratio (z) = 0.25463 0.17434
#
# Static dielectric constant tensor:
#      x y z
#    x 1.925610 0.000000 0.000000 
#    y 0.000000 2.026240 0.000000 
#    z 0.000000 0.000000 1.416250 
# 
# From -- ./inp_files/25272.got.cif
#   From: 2010.05.17/outbox.cif.g08.bks.cpg/sg21_13_cif.got.tgz:25272.got - 2010.06.03 23:14:55.
