data_PCOD9323904
_publ_section_title
;
Structure prediction by ZEFSAII (Michael W. Deem and Ramdas Pophale) SiO2 
 PCOD9323904
Probable space group: C 2 2 2
;
_chemical_formula_sum "Si O2"
_cell_formula_units_Z 64
_cell_length_a 15.445004
_cell_length_b 9.101150
_cell_length_c 22.000363
_cell_angle_alpha 90.000000
_cell_angle_beta 90.000000
_cell_angle_gamma 90.000000
_cell_volume 3092.531585
_symmetry_space_group_name_H-M "C 2 2 2"
_symmetry_group_IT_number 21
_symmetry_cell_setting 'orthorhombic'
loop_
_space_group_symop_operation_xyz
x,y,z
-x,-y,z
x,-y,-z
-x,y,-z
1/2+x,1/2+y,z
1/2-x,1/2-y,z
1/2+x,1/2-y,-z
1/2-x,1/2+y,-z
loop_
_atom_site_type_symbol
_atom_site_label
_atom_site_fract_x
_atom_site_fract_y
_atom_site_fract_z
Si Si1 0.085585 0.072273 0.433253
Si Si2 0.251090 0.080952 0.614589
Si Si3 0.412910 0.917928 0.736860
Si Si4 0.924168 0.900195 0.217284
Si Si5 0.585194 0.915827 0.409939
Si Si6 0.846073 0.821885 0.990681
Si Si7 0.492580 0.329816 0.084321
Si Si8 0.247615 0.918603 0.237789
O O1 0.082702 0.248101 0.431614
O O2 0.091841 0.000000 0.500000
O O3 0.167181 0.013773 0.397950
O O4 0.000000 0.000000 0.405096
O O5 0.250000 0.250000 0.594653
O O6 0.252607 0.084914 0.688293
O O7 0.327294 0.002782 0.576982
O O8 0.407533 0.744660 0.745210
O O9 0.412193 0.930374 0.663740
O O10 0.500000 0.000000 0.757292
O O11 0.334768 0.990961 0.774311
O O12 0.963484 0.838578 0.153924
O O13 0.837267 0.997268 0.213783
O O14 0.000000 0.000000 0.244651
O O15 0.500000 0.000000 0.431011
O O16 0.750000 0.750000 0.989302
O O17 0.909519 0.780271 0.933122
O O18 0.911374 0.769696 0.045239
O O19 0.833875 0.000000 0.000000
O O20 0.500000 0.500000 0.065783
O O21 0.250000 0.750000 0.216469
#
# Coordination Sequence:
#
# PCOD9323904 Si02
#       8
#     8   8   8   8   8   8   8   8
#     4  11  24  40  57  85 117 148 190 239 289 345
#     4  10  21  38  61  88 114 148 191 237 289 348
#     4  10  21  37  58  87 118 151 193 238 284 346
#     4  11  21  35  55  82 119 160 190 234 295 344
#     4  10  21  40  64  85 113 153 193 235 289 348
#     4   9  17  35  60  81 106 146 194 242 286 342
#     4   8  18  36  54  78 114 151 190 231 287 352
#     4  10  21  37  58  85 117 151 194 239 285 349
#
# _framework density 20.695021000000001
#
# number of rings (size 3 to 8) (size 9 to 14) (size 15 to 20)
#    0.000    2.125    0.000    3.750    0.000    8.000 
#    0.000   15.625    0.000    0.000    0.000    0.000 
#    0.000    0.000    0.000    0.000    0.000    0.000 
#
# Total GULP energy -178276.139595 kJ/mol
# GULP energy per Si atom -5571.129362 kJ/mol
# Density = 2.064792 g / cm^3
# Si number density = 20.695021 Si / 1000 Ang^3
#
#
#
# Elastic Constant Matrix: (Units=GPa)
#
#
# Indices 1 2 3 4 5 6 
#
# 1 173.8393 71.4916 6.2808 0.0000 0.0000 0.0000
# 2 71.4916 131.8774 -3.6820 0.0000 0.0000 0.0000
# 3 6.2808 -3.6820 30.3073 0.0000 0.0000 0.0000
# 4 0.0000 0.0000 0.0000 3.7186 0.0000 0.0000
# 5 0.0000 0.0000 0.0000 0.0000 10.1406 0.0000
# 6 0.0000 0.0000 0.0000 0.0000 0.0000 43.8508
#
#
#
# Elastic Compliance Matrix: (Units=1/GPa)
#
#
# Indices 1 2 3 4 5 6 
#
# 1 0.007529 -0.004139 -0.002063 0.000000 0.000000 0.000000
# 2 -0.004139 0.009884 0.002059 0.000000 0.000000 0.000000
# 3 -0.002063 0.002059 0.033673 0.000000 0.000000 0.000000
# 4 0.000000 0.000000 0.000000 0.268917 0.000000 0.000000
# 5 0.000000 0.000000 0.000000 0.000000 0.098613 0.000000
# 6 0.000000 0.000000 0.000000 0.000000 0.000000 0.022805
#
#
# Mechanical properties :
#
#
# Convention : Reuss Voigt Hill
#
# Bulk Modulus (GPa) = 23.36513 53.80053 38.58283
# Shear Modulus (GPa) = 10.77644 29.00426 19.89035
#
# Velocity S-wave (km/s) = 2.28442 3.74773 3.10355
# Velocity P-wave (km/s) = 4.27467 6.69183 5.61487
#
# Compressibility (1/GPa) = 0.04279882
#
# Stress axis : x y z
#
# Youngs Moduli (GPa) = 132.81514 101.17156 29.69733
#
# Poissons Ratio (x) = 0.41878 0.06127
# Poissons Ratio (y) = 0.54976 -0.06114
# Poissons Ratio (z) = 0.27403 -0.20827
#
# Static dielectric constant tensor:
#      x y z
#    x 1.779760 0.000000 0.000000 
#    y 0.000000 1.707440 0.000000 
#    z 0.000000 0.000000 1.886360 
# 
# From -- ./inp_files/38757.got.cif
#   From: 2010.05.17/outbox.cif.g08.bks.cpg/sg21_20_cif.got.tgz:38757.got - 2010.06.03 23:14:55.
