data_PCOD9323706
_publ_section_title
;
Structure prediction by ZEFSAII (Michael W. Deem and Ramdas Pophale) SiO2 
 PCOD9323706
Probable space group: C 2 2 2
;
_chemical_formula_sum "Si O2"
_cell_formula_units_Z 22
_cell_length_a 5.638809
_cell_length_b 13.675588
_cell_length_c 11.543809
_cell_angle_alpha 90.000000
_cell_angle_beta 90.000000
_cell_angle_gamma 90.000000
_cell_volume 890.189618
_symmetry_space_group_name_H-M "C 2 2 2"
_symmetry_group_IT_number 21
_symmetry_cell_setting 'orthorhombic'
loop_
_space_group_symop_operation_xyz
x,y,z
-x,-y,z
x,-y,-z
-x,y,-z
1/2+x,1/2+y,z
1/2-x,1/2-y,z
1/2+x,1/2-y,-z
1/2-x,1/2+y,-z
loop_
_atom_site_type_symbol
_atom_site_label
_atom_site_fract_x
_atom_site_fract_y
_atom_site_fract_z
Si Si1 0.750000 0.750000 0.710194
Si Si2 0.500000 0.500000 0.500000
Si Si3 0.103729 0.848909 0.882122
Si Si4 0.861631 0.402889 0.663351
O O1 0.612324 0.676952 0.796326
O O2 0.538505 0.810414 0.647372
O O3 0.638318 0.422276 0.581481
O O4 0.250000 0.750000 0.913473
O O5 0.280377 0.905263 0.797281
O O6 0.000000 0.890638 0.000000
O O7 0.000000 0.500000 0.637239
#
# Coordination Sequence:
#
# PCOD9323706 Si02
#       4
#     4   2   8   8
#     4  10  22  44  76 112 144 198 254 308 384 468
#     4  12  26  52  78 102 156 212 264 342 382 460
#     4  10  20  40  76 109 151 194 242 308 380 465
#     4  11  25  46  80 105 155 206 256 321 390 460
#
# _framework density 24.713833000000001
#
# number of rings (size 3 to 8) (size 9 to 14) (size 15 to 20)
#    0.000    1.455    1.818    2.727    0.000    0.000 
#    0.000   13.636  180.000    0.000    0.000    0.000 
#    0.000    0.000    0.000    0.000    0.000    0.000 
#
# Total GULP energy -61454.949968 kJ/mol
# GULP energy per Si atom -5586.813633 kJ/mol
# Density = 2.465758 g / cm^3
# Si number density = 24.713833 Si / 1000 Ang^3
#
#
#
# Elastic Constant Matrix: (Units=GPa)
#
#
# Indices 1 2 3 4 5 6 
#
# 1 118.9924 43.9395 66.2659 0.0000 0.0000 0.0000
# 2 43.9395 95.9923 66.8256 0.0000 0.0000 0.0000
# 3 66.2659 66.8256 159.4539 0.0000 0.0000 0.0000
# 4 0.0000 0.0000 0.0000 4.8941 0.0000 0.0000
# 5 0.0000 0.0000 0.0000 0.0000 13.0522 0.0000
# 6 0.0000 0.0000 0.0000 0.0000 0.0000 30.9804
#
#
#
# Elastic Compliance Matrix: (Units=1/GPa)
#
#
# Indices 1 2 3 4 5 6 
#
# 1 0.011414 -0.002715 -0.003606 0.000000 0.000000 0.000000
# 2 -0.002715 0.015354 -0.005307 0.000000 0.000000 0.000000
# 3 -0.003606 -0.005307 0.009994 0.000000 0.000000 0.000000
# 4 0.000000 0.000000 0.000000 0.204328 0.000000 0.000000
# 5 0.000000 0.000000 0.000000 0.000000 0.076616 0.000000
# 6 0.000000 0.000000 0.000000 0.000000 0.000000 0.032278
#
#
# Mechanical properties :
#
#
# Convention : Reuss Voigt Hill
#
# Bulk Modulus (GPa) = 74.02879 80.94452 77.48665
# Shear Modulus (GPa) = 13.23655 22.94584 18.09120
#
# Velocity S-wave (km/s) = 2.31680 3.05037 2.70854
# Velocity P-wave (km/s) = 6.09723 6.72534 6.41897
#
# Compressibility (1/GPa) = 0.01350826
#
# Stress axis : x y z
#
# Youngs Moduli (GPa) = 87.60853 65.12796 100.06002
#
# Poissons Ratio (x) = 0.17679 0.36081
# Poissons Ratio (y) = 0.23781 0.53100
# Poissons Ratio (z) = 0.31591 0.34562
#
# Static dielectric constant tensor:
#      x y z
#    x 2.151790 0.000000 0.000000 
#    y 0.000000 1.923950 0.000000 
#    z 0.000000 0.000000 1.920030 
# 
# From -- ./inp_files/20213.got.cif
#   From: 2010.05.17/outbox.cif.g08.bks.cpg/sg21_11_cif.got.tgz:20213.got - 2010.06.03 23:14:55.
