data_PCOD9323915
_publ_section_title
;
Structure prediction by ZEFSAII (Michael W. Deem and Ramdas Pophale) SiO2 
 PCOD9323915
Probable space group: C 2 2 2
;
_chemical_formula_sum "Si O2"
_cell_formula_units_Z 24
_cell_length_a 8.543662
_cell_length_b 20.160500
_cell_length_c 7.058563
_cell_angle_alpha 90.000000
_cell_angle_beta 90.000000
_cell_angle_gamma 90.000000
_cell_volume 1215.798639
_symmetry_space_group_name_H-M "C 2 2 2"
_symmetry_group_IT_number 21
_symmetry_cell_setting 'orthorhombic'
loop_
_space_group_symop_operation_xyz
x,y,z
-x,-y,z
x,-y,-z
-x,y,-z
1/2+x,1/2+y,z
1/2-x,1/2-y,z
1/2+x,1/2-y,-z
1/2-x,1/2+y,-z
loop_
_atom_site_type_symbol
_atom_site_label
_atom_site_fract_x
_atom_site_fract_y
_atom_site_fract_z
Si Si1 0.000000 0.890050 0.500000
Si Si2 0.864540 0.188707 0.148660
Si Si3 0.666209 0.939994 0.894549
Si Si4 0.752822 0.500000 0.500000
O O1 0.943611 0.842482 0.666277
O O2 0.138488 0.939941 0.565939
O O3 0.750000 0.250000 0.187655
O O4 0.758265 0.127601 0.079342
O O5 0.000000 0.206706 0.000000
O O6 0.657537 0.965342 0.676188
O O7 0.500000 0.932934 0.000000
O O8 0.753509 0.000000 0.000000
#
# Coordination Sequence:
#
# PCOD9323915 Si02
#       4
#     4   8   8   4
#     4   9  20  38  62  86 114 155 198 240 286 345
#     4  11  23  40  61  87 118 154 196 242 293 346
#     4  10  21  37  59  89 120 153 191 238 290 344
#     4   9  18  37  62  88 116 150 196 242 286 342
#
# _framework density 19.740107999999999
#
# number of rings (size 3 to 8) (size 9 to 14) (size 15 to 20)
#    0.000    2.000    0.000    3.000    0.000    7.333 
#    0.000   13.333    0.000    0.000    0.000    0.000 
#    0.000    0.000    0.000    0.000    0.000    0.000 
#
# Total GULP energy -66912.860151 kJ/mol
# GULP energy per Si atom -5576.071679 kJ/mol
# Density = 1.969518 g / cm^3
# Si number density = 19.740108 Si / 1000 Ang^3
#
#
#
# Elastic Constant Matrix: (Units=GPa)
#
#
# Indices 1 2 3 4 5 6 
#
# 1 110.8083 58.2588 59.3244 0.0000 0.0000 0.0000
# 2 58.2588 146.4242 43.0067 0.0000 0.0000 0.0000
# 3 59.3244 43.0067 91.8927 0.0000 0.0000 0.0000
# 4 0.0000 0.0000 0.0000 14.5351 0.0000 0.0000
# 5 0.0000 0.0000 0.0000 0.0000 37.2693 0.0000
# 6 0.0000 0.0000 0.0000 0.0000 0.0000 -8.8293
#
#
#
# Elastic Compliance Matrix: (Units=1/GPa)
#
#
# Indices 1 2 3 4 5 6 
#
# 1 0.015350 -0.003706 -0.008175 0.000000 0.000000 0.000000
# 2 -0.003706 0.008813 -0.001732 0.000000 0.000000 0.000000
# 3 -0.008175 -0.001732 0.016970 0.000000 0.000000 0.000000
# 4 0.000000 0.000000 0.000000 0.068799 0.000000 0.000000
# 5 0.000000 0.000000 0.000000 0.000000 0.026832 0.000000
# 6 0.000000 0.000000 0.000000 0.000000 0.000000 -0.113259
#
#
# Mechanical properties :
#
#
# Convention : Reuss Voigt Hill
#
# Bulk Modulus (GPa) = 71.90671 74.47834 73.19252
# Shear Modulus (GPa) = 90.30675 21.16404 55.73540
#
# Velocity S-wave (km/s) = 6.77105 3.27790 5.31939
# Velocity P-wave (km/s) = 9.88106 7.22063 8.65369
#
# Compressibility (1/GPa) = 0.01390691
#
# Stress axis : x y z
#
# Youngs Moduli (GPa) = 65.14663 113.47204 58.92593
#
# Poissons Ratio (x) = 0.42056 0.48173
# Poissons Ratio (y) = 0.24145 0.10205
# Poissons Ratio (z) = 0.53258 0.19651
#
# Static dielectric constant tensor:
#      x y z
#    x 1.767430 0.000000 0.000000 
#    y 0.000000 1.675650 0.000000 
#    z 0.000000 0.000000 1.733710 
# 
# From -- ./inp_files/1156.got.cif
#   From: 2010.05.17/outbox.cif.g08.bks.cpg/sg21_1_cif.got.tgz:1156.got - 2010.06.03 23:14:55.
