data_PCOD9323941
_publ_section_title
;
Structure prediction by ZEFSAII (Michael W. Deem and Ramdas Pophale) SiO2 
 PCOD9323941
Probable space group: C 2 2 2
;
_chemical_formula_sum "Si O2"
_cell_formula_units_Z 54
_cell_length_a 12.094126
_cell_length_b 15.138302
_cell_length_c 15.519778
_cell_angle_alpha 90.000000
_cell_angle_beta 90.000000
_cell_angle_gamma 90.000000
_cell_volume 2841.431289
_symmetry_space_group_name_H-M "C 2 2 2"
_symmetry_group_IT_number 21
_symmetry_cell_setting 'orthorhombic'
loop_
_space_group_symop_operation_xyz
x,y,z
-x,-y,z
x,-y,-z
-x,y,-z
1/2+x,1/2+y,z
1/2-x,1/2-y,z
1/2+x,1/2-y,-z
1/2-x,1/2+y,-z
loop_
_atom_site_type_symbol
_atom_site_label
_atom_site_fract_x
_atom_site_fract_y
_atom_site_fract_z
Si Si1 0.265178 0.914886 0.742444
Si Si2 0.011619 0.300753 0.263529
Si Si3 0.208421 0.390381 0.675101
Si Si4 0.350029 0.688810 0.179343
Si Si5 0.250000 0.250000 0.531716
Si Si6 0.368903 0.504760 0.101993
Si Si7 0.500000 0.500000 0.500000
Si Si8 0.902548 0.836192 0.393074
O O1 0.377886 0.857722 0.752601
O O2 0.183016 0.858370 0.683417
O O3 0.284481 0.004588 0.686400
O O4 0.204694 0.944900 0.832103
O O5 0.019963 0.234907 0.345428
O O6 0.906892 0.363672 0.280582
O O7 0.966881 0.237794 0.186771
O O8 0.311318 0.348174 0.727330
O O9 0.214859 0.336563 0.586311
O O10 0.250000 0.750000 0.151784
O O11 0.344153 0.605319 0.121104
O O12 0.152613 0.216546 0.470838
O O13 0.500000 0.500000 0.122448
O O14 0.350632 0.500000 0.000000
O O15 0.442842 0.429239 0.434254
#
# Coordination Sequence:
#
# PCOD9323941 Si02
#       8
#     8   8   8   8   4   8   2   8
#     4  11  23  40  62  92 123 159 207 263 326 367
#     4  11  20  40  60  91 118 166 204 257 318 375
#     4  10  21  37  64  82 121 172 209 255 300 380
#     4   9  19  38  65  88 118 165 208 242 318 384
#     4  12  20  42  56  86 128 160 222 262 302 362
#     4  10  22  41  66  94 122 158 205 256 313 396
#     4  12  28  36  60  80 118 164 224 256 296 376
#     4  12  25  38  56  86 120 161 210 266 309 358
#
# _framework density 19.004508000000001
#
# number of rings (size 3 to 8) (size 9 to 14) (size 15 to 20)
#    0.000    1.333    3.704    3.111    5.185    0.000 
#    0.000    4.444    3.259   15.111    0.000    0.000 
#    0.000    0.000    0.000    0.000    0.000    0.000 
#
# Total GULP energy -150359.632544 kJ/mol
# GULP energy per Si atom -5568.875279 kJ/mol
# Density = 1.896125 g / cm^3
# Si number density = 19.004508 Si / 1000 Ang^3
#
#
#
# Elastic Constant Matrix: (Units=GPa)
#
#
# Indices 1 2 3 4 5 6 
#
# 1 69.7154 54.3393 41.6637 0.0000 0.0000 0.0000
# 2 54.3393 112.0425 44.9198 0.0000 0.0000 0.0000
# 3 41.6637 44.9198 92.0098 0.0000 0.0000 0.0000
# 4 0.0000 0.0000 0.0000 -20.7480 0.0000 0.0000
# 5 0.0000 0.0000 0.0000 0.0000 16.9949 0.0000
# 6 0.0000 0.0000 0.0000 0.0000 0.0000 11.4713
#
#
#
# Elastic Compliance Matrix: (Units=1/GPa)
#
#
# Indices 1 2 3 4 5 6 
#
# 1 0.026301 -0.009923 -0.007065 0.000000 0.000000 0.000000
# 2 -0.009923 0.014841 -0.002752 0.000000 0.000000 0.000000
# 3 -0.007065 -0.002752 0.015411 0.000000 0.000000 0.000000
# 4 0.000000 0.000000 0.000000 -0.048198 0.000000 0.000000
# 5 0.000000 0.000000 0.000000 0.000000 0.058841 0.000000
# 6 0.000000 0.000000 0.000000 0.000000 0.000000 0.087174
#
#
# Mechanical properties :
#
#
# Convention : Reuss Voigt Hill
#
# Bulk Modulus (GPa) = 58.57328 61.73482 60.15405
# Shear Modulus (GPa) = 25.05737 10.39997 17.72867
#
# Velocity S-wave (km/s) = 3.63505 2.34185 3.05760
# Velocity P-wave (km/s) = 6.96461 6.31404 6.64729
#
# Compressibility (1/GPa) = 0.01707263
#
# Stress axis : x y z
#
# Youngs Moduli (GPa) = 38.02181 67.38015 64.88799
#
# Poissons Ratio (x) = 0.66862 0.45843
# Poissons Ratio (y) = 0.37729 0.17859
# Poissons Ratio (z) = 0.26862 0.18544
#
# Static dielectric constant tensor:
#      x y z
#    x 1.608300 0.000000 0.000000 
#    y 0.000000 1.611650 0.000000 
#    z 0.000000 0.000000 1.790390 
# 
# From -- ./inp_files/31629.got.cif
#   From: 2010.05.17/outbox.cif.g08.bks.cpg/sg21_16_cif.got.tgz:31629.got - 2010.06.03 23:14:55.
