data_PCOD9323188
_publ_section_title
;
Structure prediction by ZEFSAII (Michael W. Deem and Ramdas Pophale) SiO2 
 PCOD9323188
Probable space group: C 2 2 2
;
_chemical_formula_sum "Si O2"
_cell_formula_units_Z 60
_cell_length_a 5.495241
_cell_length_b 22.047124
_cell_length_c 23.624770
_cell_angle_alpha 90.000000
_cell_angle_beta 90.000000
_cell_angle_gamma 90.000000
_cell_volume 2862.241521
_symmetry_space_group_name_H-M "C 2 2 2"
_symmetry_group_IT_number 21
_symmetry_cell_setting 'orthorhombic'
loop_
_space_group_symop_operation_xyz
x,y,z
-x,-y,z
x,-y,-z
-x,y,-z
1/2+x,1/2+y,z
1/2-x,1/2-y,z
1/2+x,1/2-y,-z
1/2-x,1/2+y,-z
loop_
_atom_site_type_symbol
_atom_site_label
_atom_site_fract_x
_atom_site_fract_y
_atom_site_fract_z
Si Si1 0.144562 0.315038 0.184205
Si Si2 0.227691 0.176119 0.337860
Si Si3 0.000000 0.500000 0.103415
Si Si4 0.550914 0.203488 0.064119
Si Si5 0.153722 0.083634 0.944491
Si Si6 0.873559 0.934444 0.169796
Si Si7 0.251440 0.676167 0.530694
Si Si8 0.223714 0.322009 0.722762
O O1 0.250000 0.250000 0.205485
O O2 0.318591 0.371386 0.201436
O O3 0.134477 0.307631 0.115767
O O4 0.877965 0.327670 0.212048
O O5 0.250000 0.250000 0.336391
O O6 0.231790 0.158187 0.403644
O O7 0.482031 0.154771 0.309959
O O8 0.975229 0.156177 0.306949
O O9 0.788290 0.479507 0.062750
O O10 0.893125 0.549203 0.145730
O O11 0.750000 0.250000 0.087910
O O12 0.657468 0.137654 0.053285
O O13 0.500000 0.227414 0.000000
O O14 0.019102 0.086924 0.885094
O O15 0.000000 0.088542 0.000000
O O16 0.000000 0.000000 0.188738
O O17 0.500000 0.656339 0.500000
O O18 0.250000 0.750000 0.529121
O O19 0.000000 0.656769 0.500000
O O20 0.250000 0.250000 0.715214
#
# Coordination Sequence:
#
# PCOD9323188 Si02
#       8
#     8   8   4   8   8   8   8   8
#     4  12  23  40  64  88 109 144 200 251 306 384
#     4   9  17  30  46  69 109 148 191 253 309 344
#     4  10  22  43  56  82 108 138 168 222 281 368
#     4  12  24  40  57  79 114 139 176 231 313 383
#     4  11  23  38  60  83 106 135 174 215 281 368
#     4  10  23  42  61  84 112 142 177 234 305 369
#     4   9  15  23  39  65  97 144 198 245 291 346
#     4  10  20  34  51  78 108 146 193 254 309 352
#
# _framework density 20.962592000000001
#
# number of rings (size 3 to 8) (size 9 to 14) (size 15 to 20)
#    0.000    1.600    1.333    4.800    0.000    7.200 
#    0.000    0.000    0.000    0.000    0.000    0.000 
#    0.000    0.000    0.000    0.000    0.000    0.667 
#
# Total GULP energy -167091.330164 kJ/mol
# GULP energy per Si atom -5569.711005 kJ/mol
# Density = 2.091488 g / cm^3
# Si number density = 20.962592 Si / 1000 Ang^3
#
#
#
# Elastic Constant Matrix: (Units=GPa)
#
#
# Indices 1 2 3 4 5 6 
#
# 1 138.9330 23.2059 68.8425 0.0000 0.0000 0.0000
# 2 23.2059 71.4422 18.0219 0.0000 0.0000 0.0000
# 3 68.8425 18.0219 135.9700 0.0000 0.0000 0.0000
# 4 0.0000 0.0000 0.0000 46.7765 0.0000 0.0000
# 5 0.0000 0.0000 0.0000 0.0000 35.1671 0.0000
# 6 0.0000 0.0000 0.0000 0.0000 0.0000 32.4374
#
#
#
# Elastic Compliance Matrix: (Units=1/GPa)
#
#
# Indices 1 2 3 4 5 6 
#
# 1 0.009881 -0.002015 -0.004736 0.000000 0.000000 0.000000
# 2 -0.002015 0.014892 -0.000954 0.000000 0.000000 0.000000
# 3 -0.004736 -0.000954 0.009879 0.000000 0.000000 0.000000
# 4 0.000000 0.000000 0.000000 0.021378 0.000000 0.000000
# 5 0.000000 0.000000 0.000000 0.000000 0.028436 0.000000
# 6 0.000000 0.000000 0.000000 0.000000 0.000000 0.030829
#
#
# Mechanical properties :
#
#
# Convention : Reuss Voigt Hill
#
# Bulk Modulus (GPa) = 51.96608 62.94287 57.45447
# Shear Modulus (GPa) = 36.46508 38.62785 37.54647
#
# Velocity S-wave (km/s) = 4.17529 4.29733 4.23675
# Velocity P-wave (km/s) = 6.93454 7.39690 7.16945
#
# Compressibility (1/GPa) = 0.01924332
#
# Stress axis : x y z
#
# Youngs Moduli (GPa) = 101.20616 67.14833 101.22820
#
# Poissons Ratio (x) = 0.13530 0.47938
# Poissons Ratio (y) = 0.20392 0.09654
# Poissons Ratio (z) = 0.47928 0.06404
#
# Static dielectric constant tensor:
#      x y z
#    x 1.490110 0.000000 0.000000 
#    y 0.000000 1.833190 0.000000 
#    z 0.000000 0.000000 1.802900 
# 
# From -- ./inp_files/38336.got.cif
#   From: 2010.05.17/outbox.cif.g08.bks.cpg/sg21_20_cif.got.tgz:38336.got - 2010.06.03 23:14:55.
