data_PCOD9323049
_publ_section_title
;
Structure prediction by ZEFSAII (Michael W. Deem and Ramdas Pophale) SiO2 
 PCOD9323049
Probable space group: C 2 2 2
;
_chemical_formula_sum "Si O2"
_cell_formula_units_Z 38
_cell_length_a 21.288750
_cell_length_b 8.352194
_cell_length_c 9.511967
_cell_angle_alpha 90.000000
_cell_angle_beta 90.000000
_cell_angle_gamma 90.000000
_cell_volume 1691.301641
_symmetry_space_group_name_H-M "C 2 2 2"
_symmetry_group_IT_number 21
_symmetry_cell_setting 'orthorhombic'
loop_
_space_group_symop_operation_xyz
x,y,z
-x,-y,z
x,-y,-z
-x,y,-z
1/2+x,1/2+y,z
1/2-x,1/2-y,z
1/2+x,1/2-y,-z
1/2-x,1/2+y,-z
loop_
_atom_site_type_symbol
_atom_site_label
_atom_site_fract_x
_atom_site_fract_y
_atom_site_fract_z
Si Si1 0.623867 0.581599 0.363410
Si Si2 0.796771 0.601027 0.859307
Si Si3 0.000000 0.210904 0.500000
Si Si4 0.500000 0.500000 0.000000
Si Si5 0.420356 0.715006 0.219319
Si Si6 0.299848 0.124307 0.387226
O O1 0.655371 0.500000 0.500000
O O2 0.552915 0.620983 0.410370
O O3 0.622175 0.439254 0.256273
O O4 0.650793 0.752004 0.322594
O O5 0.750000 0.750000 0.869400
O O6 0.869085 0.654579 0.828265
O O7 0.773098 0.485227 0.734801
O O8 0.795541 0.500000 0.000000
O O9 0.957062 0.273566 0.363971
O O10 0.464327 0.628836 0.102590
O O11 0.250000 0.250000 0.450719
O O12 0.326245 0.000000 0.500000
#
# Coordination Sequence:
#
# PCOD9323049 Si02
#       6
#     8   8   4   2   8   8
#     4  10  19  38  67  96 132 182 234 292 362 444
#     4  12  29  49  70 104 148 205 255 314 378 450
#     4  10  19  42  67 104 137 190 235 294 373 450
#     4  12  24  38  78 112 144 198 242 306 380 474
#     4  11  23  43  73 105 145 191 258 300 374 457
#     4  12  24  42  67 100 135 184 245 315 368 428
#
# _framework density 22.467901999999999
#
# number of rings (size 3 to 8) (size 9 to 14) (size 15 to 20)
#    0.000    0.842    2.105    7.895    4.421    0.000 
#    0.000    7.368    0.000    0.000    0.000    0.000 
#    0.000    0.000    0.000    0.000    0.000    0.000 
#
# Total GULP energy -105780.499358 kJ/mol
# GULP energy per Si atom -5567.394703 kJ/mol
# Density = 2.241676 g / cm^3
# Si number density = 22.467902 Si / 1000 Ang^3
#
#
#
# Elastic Constant Matrix: (Units=GPa)
#
#
# Indices 1 2 3 4 5 6 
#
# 1 81.3374 36.3791 19.5271 0.0000 0.0000 0.0000
# 2 36.3791 119.4419 53.6155 0.0000 0.0000 0.0000
# 3 19.5271 53.6155 115.0191 0.0000 0.0000 0.0000
# 4 0.0000 0.0000 0.0000 22.9483 0.0000 0.0000
# 5 0.0000 0.0000 0.0000 0.0000 11.6781 0.0000
# 6 0.0000 0.0000 0.0000 0.0000 0.0000 22.9156
#
#
#
# Elastic Compliance Matrix: (Units=1/GPa)
#
#
# Indices 1 2 3 4 5 6 
#
# 1 0.014256 -0.004117 -0.000501 0.000000 0.000000 0.000000
# 2 -0.004117 0.011777 -0.004791 0.000000 0.000000 0.000000
# 3 -0.000501 -0.004791 0.011012 0.000000 0.000000 0.000000
# 4 0.000000 0.000000 0.000000 0.043576 0.000000 0.000000
# 5 0.000000 0.000000 0.000000 0.000000 0.085630 0.000000
# 6 0.000000 0.000000 0.000000 0.000000 0.000000 0.043638
#
#
# Mechanical properties :
#
#
# Convention : Reuss Voigt Hill
#
# Bulk Modulus (GPa) = 54.86227 59.42688 57.14457
# Shear Modulus (GPa) = 21.29619 25.26018 23.27818
#
# Velocity S-wave (km/s) = 3.08206 3.35666 3.22229
# Velocity P-wave (km/s) = 6.09397 6.44438 6.27162
#
# Compressibility (1/GPa) = 0.01822746
#
# Stress axis : x y z
#
# Youngs Moduli (GPa) = 70.14477 84.91335 90.80648
#
# Poissons Ratio (x) = 0.34960 0.04551
# Poissons Ratio (y) = 0.28880 0.43502
# Poissons Ratio (z) = 0.03515 0.40679
#
# Static dielectric constant tensor:
#      x y z
#    x 2.007740 0.000000 0.000000 
#    y 0.000000 1.919200 0.000000 
#    z 0.000000 0.000000 1.913390 
# 
# From -- ./inp_files/18262.got.cif
#   From: 2010.05.17/outbox.cif.g08.bks.cpg/sg21_10_cif.got.tgz:18262.got - 2010.06.03 23:14:55.
