data_PCOD9323552
_publ_section_title
;
Structure prediction by ZEFSAII (Michael W. Deem and Ramdas Pophale) SiO2 
 PCOD9323552
Probable space group: C 2 2 2
;
_chemical_formula_sum "Si O2"
_cell_formula_units_Z 48
_cell_length_a 14.273878
_cell_length_b 26.892055
_cell_length_c 6.456298
_cell_angle_alpha 90.000000
_cell_angle_beta 90.000000
_cell_angle_gamma 90.000000
_cell_volume 2478.275246
_symmetry_space_group_name_H-M "C 2 2 2"
_symmetry_group_IT_number 21
_symmetry_cell_setting 'orthorhombic'
loop_
_space_group_symop_operation_xyz
x,y,z
-x,-y,z
x,-y,-z
-x,y,-z
1/2+x,1/2+y,z
1/2-x,1/2-y,z
1/2+x,1/2-y,-z
1/2-x,1/2+y,-z
loop_
_atom_site_type_symbol
_atom_site_label
_atom_site_fract_x
_atom_site_fract_y
_atom_site_fract_z
Si Si1 0.909817 0.818088 0.375498
Si Si2 0.179965 0.547756 0.117536
Si Si3 0.775503 0.091599 0.723524
Si Si4 0.107840 0.378656 0.564170
Si Si5 0.000000 0.761259 0.000000
Si Si6 0.293509 0.500000 0.500000
Si Si7 0.348459 0.769147 0.309058
O O1 0.831318 0.858020 0.318816
O O2 0.874681 0.772147 0.518032
O O3 0.000000 0.839382 0.500000
O O4 0.945667 0.795223 0.162144
O O5 0.114938 0.588432 0.227044
O O6 0.235347 0.522985 0.308726
O O7 0.136203 0.500000 0.000000
O O8 0.250141 0.575639 0.957566
O O9 0.674336 0.096076 0.609165
O O10 0.836267 0.048200 0.610989
O O11 0.151614 0.324145 0.599051
O O12 0.000000 0.374249 0.500000
O O13 0.926800 0.730137 0.867370
O O14 0.250000 0.750000 0.221664
#
# Coordination Sequence:
#
# PCOD9323552 Si02
#       7
#     8   8   8   8   4   4   8
#     4  10  22  40  61  88 123 159 205 259 314 378
#     4   9  20  38  61  89 121 162 211 259 311 379
#     4  10  20  38  63  86 116 163 203 251 318 379
#     4  11  23  39  60  89 126 164 210 262 316 380
#     4  10  24  38  60  92 124 160 212 256 306 394
#     4   8  18  38  60  86 120 154 202 258 314 374
#     4  11  23  42  62  90 129 168 207 261 323 383
#
# _framework density 19.368310000000001
#
# number of rings (size 3 to 8) (size 9 to 14) (size 15 to 20)
#    0.000    2.000    1.667    1.500    2.333    5.333 
#    0.000   19.583    0.000    0.000    0.000    0.000 
#    0.000    0.000    0.000    0.000    0.000    0.000 
#
# Total GULP energy -133726.655688 kJ/mol
# GULP energy per Si atom -5571.943987 kJ/mol
# Density = 1.932423 g / cm^3
# Si number density = 19.368310 Si / 1000 Ang^3
#
#
#
# Elastic Constant Matrix: (Units=GPa)
#
#
# Indices 1 2 3 4 5 6 
#
# 1 47.8544 28.2872 18.5922 0.0000 0.0000 0.0000
# 2 28.2872 102.9214 39.2174 0.0000 0.0000 0.0000
# 3 18.5922 39.2174 104.9740 0.0000 0.0000 0.0000
# 4 0.0000 0.0000 0.0000 12.6690 0.0000 0.0000
# 5 0.0000 0.0000 0.0000 0.0000 17.9117 0.0000
# 6 0.0000 0.0000 0.0000 0.0000 0.0000 -16.9875
#
#
#
# Elastic Compliance Matrix: (Units=1/GPa)
#
#
# Indices 1 2 3 4 5 6 
#
# 1 0.025380 -0.006136 -0.002203 0.000000 0.000000 0.000000
# 2 -0.006136 0.012812 -0.003700 0.000000 0.000000 0.000000
# 3 -0.002203 -0.003700 0.011299 0.000000 0.000000 0.000000
# 4 0.000000 0.000000 0.000000 0.078933 0.000000 0.000000
# 5 0.000000 0.000000 0.000000 0.000000 0.055829 0.000000
# 6 0.000000 0.000000 0.000000 0.000000 0.000000 -0.058867
#
#
# Mechanical properties :
#
#
# Convention : Reuss Voigt Hill
#
# Bulk Modulus (GPa) = 39.34939 47.54929 43.44934
# Shear Modulus (GPa) = 31.65877 14.02884 22.84381
#
# Velocity S-wave (km/s) = 4.04736 2.69424 3.43803
# Velocity P-wave (km/s) = 6.49631 5.85507 6.18401
#
# Compressibility (1/GPa) = 0.02541335
#
# Stress axis : x y z
#
# Youngs Moduli (GPa) = 39.40172 78.04932 88.50722
#
# Poissons Ratio (x) = 0.47892 0.19495
# Poissons Ratio (y) = 0.24177 0.32746
# Poissons Ratio (z) = 0.08679 0.28877
#
# Static dielectric constant tensor:
#      x y z
#    x 1.687000 0.000000 0.000000 
#    y 0.000000 1.702150 0.000000 
#    z 0.000000 0.000000 1.683230 
# 
# From -- ./inp_files/4140.got.cif
#   From: 2010.05.17/outbox.cif.g08.bks.cpg/sg21_3_cif.got.tgz:4140.got - 2010.06.03 23:14:55.
