data_PCOD9323016
_publ_section_title
;
Structure prediction by ZEFSAII (Michael W. Deem and Ramdas Pophale) SiO2 
 PCOD9323016
Probable space group: C 2 2 2
;
_chemical_formula_sum "Si O2"
_cell_formula_units_Z 26
_cell_length_a 22.414191
_cell_length_b 7.628389
_cell_length_c 7.322188
_cell_angle_alpha 90.000000
_cell_angle_beta 90.000000
_cell_angle_gamma 90.000000
_cell_volume 1251.978224
_symmetry_space_group_name_H-M "C 2 2 2"
_symmetry_group_IT_number 21
_symmetry_cell_setting 'orthorhombic'
loop_
_space_group_symop_operation_xyz
x,y,z
-x,-y,z
x,-y,-z
-x,y,-z
1/2+x,1/2+y,z
1/2-x,1/2-y,z
1/2+x,1/2-y,-z
1/2-x,1/2+y,-z
loop_
_atom_site_type_symbol
_atom_site_label
_atom_site_fract_x
_atom_site_fract_y
_atom_site_fract_z
Si Si1 0.684691 0.677853 0.756754
Si Si2 0.819136 0.781185 0.196690
Si Si3 0.092411 0.537732 0.303904
Si Si4 0.500000 0.000000 0.000000
O O1 0.750000 0.750000 0.703177
O O2 0.669868 0.475015 0.725507
O O3 0.636723 0.801739 0.666712
O O4 0.680581 0.707053 0.975962
O O5 0.750000 0.750000 0.248656
O O6 0.865801 0.628418 0.246367
O O7 0.064427 0.500000 0.500000
O O8 0.045803 0.586915 0.144246
#
# Coordination Sequence:
#
# PCOD9323016 Si02
#       4
#     8   8   8   2
#     4  10  19  37  67  99 136 171 204 259 332 392
#     4  10  19  37  67  99 136 171 204 259 332 392
#     4  12  25  43  69  96 129 173 218 271 323 381
#     4  12  26  52  66  86 128 178 234 270 306 386
#
# _framework density 20.767135
#
# number of rings (size 3 to 8) (size 9 to 14) (size 15 to 20)
#    0.000    1.231    6.154    0.462    0.000    2.462 
#    0.000    3.077    0.000    3.692    0.000    0.000 
#    0.000    0.000    0.000    0.000    0.000    0.000 
#
# Total GULP energy -72532.786477 kJ/mol
# GULP energy per Si atom -5579.445114 kJ/mol
# Density = 2.071987 g / cm^3
# Si number density = 20.767135 Si / 1000 Ang^3
#
#
#
# Elastic Constant Matrix: (Units=GPa)
#
#
# Indices 1 2 3 4 5 6 
#
# 1 112.0877 38.7718 20.1480 0.0000 0.0000 0.0000
# 2 38.7718 137.7168 2.5837 0.0000 0.0000 0.0000
# 3 20.1480 2.5837 96.8212 0.0000 0.0000 0.0000
# 4 0.0000 0.0000 0.0000 8.6500 0.0000 0.0000
# 5 0.0000 0.0000 0.0000 0.0000 -11.2544 0.0000
# 6 0.0000 0.0000 0.0000 0.0000 0.0000 0.2170
#
#
#
# Elastic Compliance Matrix: (Units=1/GPa)
#
#
# Indices 1 2 3 4 5 6 
#
# 1 0.010280 -0.002855 -0.002063 0.000000 0.000000 0.000000
# 2 -0.002855 0.008058 0.000379 0.000000 0.000000 0.000000
# 3 -0.002063 0.000379 0.010748 0.000000 0.000000 0.000000
# 4 0.000000 0.000000 0.000000 0.115608 0.000000 0.000000
# 5 0.000000 0.000000 0.000000 0.000000 -0.088854 0.000000
# 6 0.000000 0.000000 0.000000 0.000000 0.000000 4.608255
#
#
# Mechanical properties :
#
#
# Convention : Reuss Voigt Hill
#
# Bulk Modulus (GPa) = 49.98242 52.18138 51.08190
# Shear Modulus (GPa) = 1.06841 18.53066 9.79954
#
# Velocity S-wave (km/s) = 0.71805 2.99039 2.17463
# Velocity P-wave (km/s) = 4.98074 6.09136 5.56383
#
# Compressibility (1/GPa) = 0.02000703
#
# Stress axis : x y z
#
# Youngs Moduli (GPa) = 97.27476 124.09900 93.04479
#
# Poissons Ratio (x) = 0.35436 0.19196
# Poissons Ratio (y) = 0.27777 -0.03528
# Poissons Ratio (z) = 0.20068 -0.04706
#
# Static dielectric constant tensor:
#      x y z
#    x 1.727830 0.000000 0.000000 
#    y 0.000000 1.739750 0.000000 
#    z 0.000000 0.000000 1.786180 
# 
# From -- ./inp_files/15850.got.cif
#   From: 2010.05.17/outbox.cif.g08.bks.cpg/sg21_8_cif.got.tgz:15850.got - 2010.06.03 23:14:55.
