data_PCOD9323755
_publ_section_title
;
Structure prediction by ZEFSAII (Michael W. Deem and Ramdas Pophale) SiO2 
 PCOD9323755
Probable space group: C 2 2 2
;
_chemical_formula_sum "Si O2"
_cell_formula_units_Z 34
_cell_length_a 10.390176
_cell_length_b 10.324429
_cell_length_c 15.228922
_cell_angle_alpha 90.000000
_cell_angle_beta 90.000000
_cell_angle_gamma 90.000000
_cell_volume 1633.646582
_symmetry_space_group_name_H-M "C 2 2 2"
_symmetry_group_IT_number 21
_symmetry_cell_setting 'orthorhombic'
loop_
_space_group_symop_operation_xyz
x,y,z
-x,-y,z
x,-y,-z
-x,y,-z
1/2+x,1/2+y,z
1/2-x,1/2-y,z
1/2+x,1/2-y,-z
1/2-x,1/2+y,-z
loop_
_atom_site_type_symbol
_atom_site_label
_atom_site_fract_x
_atom_site_fract_y
_atom_site_fract_z
Si Si1 0.312808 0.945718 0.097028
Si Si2 0.500000 0.500000 0.500000
Si Si3 0.649821 0.638702 0.651760
Si Si4 0.946732 0.798569 0.838597
Si Si5 0.710178 0.387599 0.769422
O O1 0.172073 0.882163 0.120449
O O2 0.419724 0.837282 0.114859
O O3 0.321701 0.059698 0.167791
O O4 0.315694 0.000000 0.000000
O O5 0.577623 0.593057 0.565480
O O6 0.750000 0.750000 0.626941
O O7 0.577474 0.707541 0.733483
O O8 0.688018 0.501125 0.698506
O O9 0.088035 0.860945 0.835019
O O10 0.750000 0.250000 0.729793
#
# Coordination Sequence:
#
# PCOD9323755 Si02
#       5
#     8   2   8   8   8
#     4  10  21  39  64  97 129 181 242 279 334 406
#     4  12  24  40  80 104 126 180 244 282 352 434
#     4  11  21  45  71  97 133 178 228 279 356 424
#     4  10  20  42  68  88 137 188 221 285 351 410
#     4  11  23  39  67  97 133 186 224 281 357 409
#
# _framework density 20.812335000000001
#
# number of rings (size 3 to 8) (size 9 to 14) (size 15 to 20)
#    0.000    1.412    7.059    2.118    3.294    3.765 
#    0.000    1.176    0.000    0.000    0.000    0.000 
#    0.000    0.000    0.000    0.000    0.000    0.000 
#
# Total GULP energy -94713.341024 kJ/mol
# GULP energy per Si atom -5571.373001 kJ/mol
# Density = 2.076496 g / cm^3
# Si number density = 20.812335 Si / 1000 Ang^3
#
#
#
# Elastic Constant Matrix: (Units=GPa)
#
#
# Indices 1 2 3 4 5 6 
#
# 1 86.8289 62.1436 24.2862 0.0000 0.0000 0.0000
# 2 62.1436 150.5201 66.8547 0.0000 0.0000 0.0000
# 3 24.2862 66.8547 159.4656 0.0000 0.0000 0.0000
# 4 0.0000 0.0000 0.0000 14.8686 0.0000 0.0000
# 5 0.0000 0.0000 0.0000 0.0000 8.0564 0.0000
# 6 0.0000 0.0000 0.0000 0.0000 0.0000 34.6350
#
#
#
# Elastic Compliance Matrix: (Units=1/GPa)
#
#
# Indices 1 2 3 4 5 6 
#
# 1 0.016370 -0.006944 0.000418 0.000000 0.000000 0.000000
# 2 -0.006944 0.011110 -0.003600 0.000000 0.000000 0.000000
# 3 0.000418 -0.003600 0.007717 0.000000 0.000000 0.000000
# 4 0.000000 0.000000 0.000000 0.067256 0.000000 0.000000
# 5 0.000000 0.000000 0.000000 0.000000 0.124124 0.000000
# 6 0.000000 0.000000 0.000000 0.000000 0.000000 0.028873
#
#
# Mechanical properties :
#
#
# Convention : Reuss Voigt Hill
#
# Bulk Modulus (GPa) = 66.91656 78.15373 72.53514
# Shear Modulus (GPa) = 17.81375 27.74735 22.78055
#
# Velocity S-wave (km/s) = 2.92879 3.65528 3.31202
# Velocity P-wave (km/s) = 6.60751 7.44634 7.03943
#
# Compressibility (1/GPa) = 0.01494398
#
# Stress axis : x y z
#
# Youngs Moduli (GPa) = 61.08762 90.01218 129.59186
#
# Poissons Ratio (x) = 0.62507 -0.05420
# Poissons Ratio (y) = 0.42421 0.46653
# Poissons Ratio (z) = -0.02555 0.32405
#
# Static dielectric constant tensor:
#      x y z
#    x 2.065090 0.000000 0.000000 
#    y 0.000000 2.091980 0.000000 
#    z 0.000000 0.000000 1.707840 
# 
# From -- ./inp_files/31231.got.cif
#   From: 2010.05.17/outbox.cif.g08.bks.cpg/sg21_16_cif.got.tgz:31231.got - 2010.06.03 23:14:55.
