data_PCOD9323177
_publ_section_title
;
Structure prediction by ZEFSAII (Michael W. Deem and Ramdas Pophale) SiO2 
 PCOD9323177
Probable space group: C 2 2 2
;
_chemical_formula_sum "Si O2"
_cell_formula_units_Z 48
_cell_length_a 19.642692
_cell_length_b 11.501102
_cell_length_c 12.100813
_cell_angle_alpha 90.000000
_cell_angle_beta 90.000000
_cell_angle_gamma 90.000000
_cell_volume 2733.726178
_symmetry_space_group_name_H-M "C 2 2 2"
_symmetry_group_IT_number 21
_symmetry_cell_setting 'orthorhombic'
loop_
_space_group_symop_operation_xyz
x,y,z
-x,-y,z
x,-y,-z
-x,y,-z
1/2+x,1/2+y,z
1/2-x,1/2-y,z
1/2+x,1/2-y,-z
1/2-x,1/2+y,-z
loop_
_atom_site_type_symbol
_atom_site_label
_atom_site_fract_x
_atom_site_fract_y
_atom_site_fract_z
Si Si1 0.644339 0.500000 0.500000
Si Si2 0.752759 0.060492 0.882352
Si Si3 0.565992 0.388762 0.219387
Si Si4 0.132804 0.260917 0.138752
Si Si5 0.500000 0.702100 0.000000
Si Si6 0.066298 0.139351 0.324641
Si Si7 0.709181 0.631916 0.705444
O O1 0.597022 0.595224 0.438652
O O2 0.688417 0.565752 0.592574
O O3 0.816018 0.151424 0.880064
O O4 0.682020 0.129747 0.872573
O O5 0.757856 0.964273 0.786060
O O6 0.756014 0.000000 0.000000
O O7 0.534353 0.368445 0.099901
O O8 0.574946 0.524823 0.246110
O O9 0.514106 0.341169 0.312818
O O10 0.639106 0.332776 0.233185
O O11 0.105578 0.241951 0.263667
O O12 0.065619 0.263283 0.059878
O O13 0.750000 0.750000 0.686517
#
# Coordination Sequence:
#
# PCOD9323177 Si02
#       7
#     4   8   8   8   4   8   8
#     4  10  20  39  58  88 114 151 192 248 304 345
#     4  11  23  37  56  84 118 158 189 240 295 350
#     4   9  18  32  54  86 115 145 187 241 294 348
#     4  10  21  36  57  83 113 155 195 237 289 351
#     4  10  20  33  57  86 118 156 195 233 294 352
#     4   9  18  33  55  82 111 142 185 249 295 338
#     4  11  24  39  59  86 121 156 196 241 293 356
#
# _framework density 17.558451999999999
#
# number of rings (size 3 to 8) (size 9 to 14) (size 15 to 20)
#    0.000    2.000    3.333    1.000    4.667   11.333 
#    0.000    0.417    0.000    0.000    0.000    0.000 
#    0.000    0.000    0.000    0.000    0.000    0.000 
#
# Total GULP energy -133681.493157 kJ/mol
# GULP energy per Si atom -5570.062215 kJ/mol
# Density = 1.751849 g / cm^3
# Si number density = 17.558452 Si / 1000 Ang^3
#
#
#
# Elastic Constant Matrix: (Units=GPa)
#
#
# Indices 1 2 3 4 5 6 
#
# 1 111.4082 40.4506 39.8047 0.0000 0.0000 0.0000
# 2 40.4506 58.0680 40.3732 0.0000 0.0000 0.0000
# 3 39.8047 40.3732 124.8265 0.0000 0.0000 0.0000
# 4 0.0000 0.0000 0.0000 12.8458 0.0000 0.0000
# 5 0.0000 0.0000 0.0000 0.0000 8.8273 0.0000
# 6 0.0000 0.0000 0.0000 0.0000 0.0000 18.0404
#
#
#
# Elastic Compliance Matrix: (Units=1/GPa)
#
#
# Indices 1 2 3 4 5 6 
#
# 1 0.012222 -0.007488 -0.001475 0.000000 0.000000 0.000000
# 2 -0.007488 0.026805 -0.006282 0.000000 0.000000 0.000000
# 3 -0.001475 -0.006282 0.010513 0.000000 0.000000 0.000000
# 4 0.000000 0.000000 0.000000 0.077847 0.000000 0.000000
# 5 0.000000 0.000000 0.000000 0.000000 0.113285 0.000000
# 6 0.000000 0.000000 0.000000 0.000000 0.000000 0.055431
#
#
# Mechanical properties :
#
#
# Convention : Reuss Voigt Hill
#
# Bulk Modulus (GPa) = 52.49450 59.50664 56.00057
# Shear Modulus (GPa) = 15.01754 19.52097 17.26926
#
# Velocity S-wave (km/s) = 2.92770 3.33794 3.13953
# Velocity P-wave (km/s) = 6.43355 6.98713 6.71604
#
# Compressibility (1/GPa) = 0.01904961
#
# Stress axis : x y z
#
# Youngs Moduli (GPa) = 81.81996 37.30642 95.11688
#
# Poissons Ratio (x) = 0.27935 0.14034
# Poissons Ratio (y) = 0.61267 0.59751
# Poissons Ratio (z) = 0.12072 0.23435
#
# Static dielectric constant tensor:
#      x y z
#    x 1.670380 0.000000 0.000000 
#    y 0.000000 1.590560 0.000000 
#    z 0.000000 0.000000 1.621710 
# 
# From -- ./inp_files/26792.got.cif
#   From: 2010.05.17/outbox.cif.g08.bks.cpg/sg21_14_cif.got.tgz:26792.got - 2010.06.03 23:14:55.
