data_PCOD9323337
_publ_section_title
;
Structure prediction by ZEFSAII (Michael W. Deem and Ramdas Pophale) SiO2 
 PCOD9323337
Probable space group: C 2 2 2
;
_chemical_formula_sum "Si O2"
_cell_formula_units_Z 58
_cell_length_a 22.985004
_cell_length_b 8.350875
_cell_length_c 14.382927
_cell_angle_alpha 90.000000
_cell_angle_beta 90.000000
_cell_angle_gamma 90.000000
_cell_volume 2760.729417
_symmetry_space_group_name_H-M "C 2 2 2"
_symmetry_group_IT_number 21
_symmetry_cell_setting 'orthorhombic'
loop_
_space_group_symop_operation_xyz
x,y,z
-x,-y,z
x,-y,-z
-x,y,-z
1/2+x,1/2+y,z
1/2-x,1/2-y,z
1/2+x,1/2-y,-z
1/2-x,1/2+y,-z
loop_
_atom_site_type_symbol
_atom_site_label
_atom_site_fract_x
_atom_site_fract_y
_atom_site_fract_z
Si Si1 0.578865 0.323343 0.044523
Si Si2 0.802709 0.379373 0.415379
Si Si3 0.883674 0.285526 0.859121
Si Si4 0.500000 0.500000 0.500000
Si Si5 0.413558 0.688195 0.359680
Si Si6 0.160580 0.060890 0.812302
Si Si7 0.497417 0.184392 0.797013
Si Si8 0.721249 0.928879 0.231951
O O1 0.635709 0.320184 0.110545
O O2 0.527983 0.285935 0.117202
O O3 0.570668 0.500000 0.000000
O O4 0.587790 0.201283 0.960271
O O5 0.794890 0.500000 0.500000
O O6 0.750000 0.250000 0.412739
O O7 0.864929 0.289783 0.414411
O O8 0.801400 0.494245 0.326216
O O9 0.854496 0.112446 0.853649
O O10 0.833669 0.409982 0.835505
O O11 0.935126 0.275043 0.783540
O O12 0.456064 0.596497 0.431096
O O13 0.374066 0.587760 0.284705
O O14 0.456607 0.787420 0.291602
O O15 0.229008 0.051521 0.799727
O O16 0.500000 0.000000 0.823844
O O17 0.750000 0.750000 0.245045
#
# Coordination Sequence:
#
# PCOD9323337 Si02
#       8
#     8   8   8   2   8   8   8   8
#     4   9  20  37  64  95 132 178 235 286 332 407
#     4  12  26  44  72 103 133 174 228 289 348 424
#     4  10  20  35  65  95 130 174 233 277 335 394
#     4  12  28  44  74 108 138 180 226 302 352 432
#     4  11  25  44  68  98 134 176 224 280 355 412
#     4   9  19  40  66  89 132 177 228 273 339 410
#     4  11  23  40  64  91 137 184 226 280 346 418
#     4  10  21  41  69  95 135 181 225 284 347 413
#
# _framework density 21.008941
#
# number of rings (size 3 to 8) (size 9 to 14) (size 15 to 20)
#    0.000    1.655    1.379    2.483    0.966   11.586 
#    0.000    0.000   69.793    0.000    0.000    0.000 
#    0.000    0.000    0.000    0.000    0.000    0.000 
#
# Total GULP energy -161816.260554 kJ/mol
# GULP energy per Si atom -5579.871054 kJ/mol
# Density = 2.096112 g / cm^3
# Si number density = 21.008941 Si / 1000 Ang^3
#
#
#
# Elastic Constant Matrix: (Units=GPa)
#
#
# Indices 1 2 3 4 5 6 
#
# 1 150.4573 36.6967 40.9024 0.0000 0.0000 0.0000
# 2 36.6967 72.5228 41.0689 0.0000 0.0000 0.0000
# 3 40.9024 41.0689 79.7605 0.0000 0.0000 0.0000
# 4 0.0000 0.0000 0.0000 8.4958 0.0000 0.0000
# 5 0.0000 0.0000 0.0000 0.0000 47.2480 0.0000
# 6 0.0000 0.0000 0.0000 0.0000 0.0000 21.5849
#
#
#
# Elastic Compliance Matrix: (Units=1/GPa)
#
#
# Indices 1 2 3 4 5 6 
#
# 1 0.008018 -0.002440 -0.002855 0.000000 0.000000 0.000000
# 2 -0.002440 0.020207 -0.009153 0.000000 0.000000 0.000000
# 3 -0.002855 -0.009153 0.018715 0.000000 0.000000 0.000000
# 4 0.000000 0.000000 0.000000 0.117706 0.000000 0.000000
# 5 0.000000 0.000000 0.000000 0.000000 0.021165 0.000000
# 6 0.000000 0.000000 0.000000 0.000000 0.000000 0.046329
#
#
# Mechanical properties :
#
#
# Convention : Reuss Voigt Hill
#
# Bulk Modulus (GPa) = 55.42549 60.00851 57.71700
# Shear Modulus (GPa) = 18.72310 27.73725 23.23017
#
# Velocity S-wave (km/s) = 2.98853 3.63748 3.32886
# Velocity P-wave (km/s) = 6.19254 6.80198 6.50440
#
# Compressibility (1/GPa) = 0.01804224
#
# Stress axis : x y z
#
# Youngs Moduli (GPa) = 124.72329 49.48810 53.43379
#
# Poissons Ratio (x) = 0.12076 0.15256
# Poissons Ratio (y) = 0.30434 0.48909
# Poissons Ratio (z) = 0.35611 0.45298
#
# Static dielectric constant tensor:
#      x y z
#    x 1.860290 0.000000 0.000000 
#    y 0.000000 1.708730 0.000000 
#    z 0.000000 0.000000 1.760750 
# 
# From -- ./inp_files/33576.got.cif
#   From: 2010.05.17/outbox.cif.g08.bks.cpg/sg21_17_cif.got.tgz:33576.got - 2010.06.03 23:14:55.
