data_PCOD9323834
_publ_section_title
;
Structure prediction by ZEFSAII (Michael W. Deem and Ramdas Pophale) SiO2 
 PCOD9323834
Probable space group: C 2 2 2
;
_chemical_formula_sum "Si O2"
_cell_formula_units_Z 26
_cell_length_a 14.219876
_cell_length_b 5.286043
_cell_length_c 14.741091
_cell_angle_alpha 90.000000
_cell_angle_beta 90.000000
_cell_angle_gamma 90.000000
_cell_volume 1108.041759
_symmetry_space_group_name_H-M "C 2 2 2"
_symmetry_group_IT_number 21
_symmetry_cell_setting 'orthorhombic'
loop_
_space_group_symop_operation_xyz
x,y,z
-x,-y,z
x,-y,-z
-x,y,-z
1/2+x,1/2+y,z
1/2-x,1/2-y,z
1/2+x,1/2-y,-z
1/2-x,1/2+y,-z
loop_
_atom_site_type_symbol
_atom_site_label
_atom_site_fract_x
_atom_site_fract_y
_atom_site_fract_z
Si Si1 0.500000 0.000000 0.500000
Si Si2 0.636962 0.735586 0.639041
Si Si3 0.637961 0.765938 0.247896
Si Si4 0.104260 0.752187 0.959656
O O1 0.430132 0.181136 0.557208
O O2 0.750000 0.750000 0.616554
O O3 0.614901 0.461921 0.682505
O O4 0.617972 0.957740 0.712091
O O5 0.750000 0.750000 0.235471
O O6 0.596515 0.737021 0.148304
O O7 0.148587 0.500000 0.000000
O O8 0.000000 0.751530 0.000000
O O9 0.151136 0.000000 0.000000
#
# Coordination Sequence:
#
# PCOD9323834 Si02
#       4
#     2   8   8   8
#     4  12  28  46  80 108 138 190 236 298 380 428
#     4  10  25  46  70 101 137 178 234 294 350 432
#     4  10  22  43  65  91 135 183 225 283 353 413
#     4  10  21  35  57  89 125 167 218 278 327 392
#
# _framework density 23.46482
#
# number of rings (size 3 to 8) (size 9 to 14) (size 15 to 20)
#    0.000    1.846    0.000    1.846    0.000   16.000 
#    0.000    0.000    0.000    0.000    0.000    0.000 
#    0.000    0.000    0.000    0.000    0.000    0.000 
#
# Total GULP energy -72733.952994 kJ/mol
# GULP energy per Si atom -5594.919461 kJ/mol
# Density = 2.341141 g / cm^3
# Si number density = 23.464820 Si / 1000 Ang^3
#
#
#
# Elastic Constant Matrix: (Units=GPa)
#
#
# Indices 1 2 3 4 5 6 
#
# 1 139.0020 21.8147 64.4098 0.0000 0.0000 0.0000
# 2 21.8147 172.2035 36.3736 0.0000 0.0000 0.0000
# 3 64.4098 36.3736 148.4097 0.0000 0.0000 0.0000
# 4 0.0000 0.0000 0.0000 31.7808 0.0000 0.0000
# 5 0.0000 0.0000 0.0000 0.0000 51.0261 0.0000
# 6 0.0000 0.0000 0.0000 0.0000 0.0000 -1.9612
#
#
#
# Elastic Compliance Matrix: (Units=1/GPa)
#
#
# Indices 1 2 3 4 5 6 
#
# 1 0.009023 -0.000333 -0.003834 0.000000 0.000000 0.000000
# 2 -0.000333 0.006136 -0.001359 0.000000 0.000000 0.000000
# 3 -0.003834 -0.001359 0.008735 0.000000 0.000000 0.000000
# 4 0.000000 0.000000 0.000000 0.031466 0.000000 0.000000
# 5 0.000000 0.000000 0.000000 0.000000 0.019598 0.000000
# 6 0.000000 0.000000 0.000000 0.000000 0.000000 -0.509897
#
#
# Mechanical properties :
#
#
# Convention : Reuss Voigt Hill
#
# Bulk Modulus (GPa) = 77.87468 78.31237 78.09352
# Shear Modulus (GPa) = -11.91599 38.63695 13.36048
#
# Velocity S-wave (km/s) = -2.25594 4.06222 2.38876
# Velocity P-wave (km/s) = 5.14531 7.44641 6.40013
#
# Compressibility (1/GPa) = 0.01284114
#
# Stress axis : x y z
#
# Youngs Moduli (GPa) = 110.82561 162.96148 114.47665
#
# Poissons Ratio (x) = 0.05429 0.43895
# Poissons Ratio (y) = 0.03692 0.15562
# Poissons Ratio (z) = 0.42495 0.22153
#
# Static dielectric constant tensor:
#      x y z
#    x 1.873400 0.000000 0.000000 
#    y 0.000000 1.843550 0.000000 
#    z 0.000000 0.000000 1.844980 
# 
# From -- ./inp_files/25634.got.cif
#   From: 2010.05.17/outbox.cif.g08.bks.cpg/sg21_13_cif.got.tgz:25634.got - 2010.06.03 23:14:55.
