data_PCOD9323031
_publ_section_title
;
Structure prediction by ZEFSAII (Michael W. Deem and Ramdas Pophale) SiO2 
 PCOD9323031
Probable space group: C 2 2 2
;
_chemical_formula_sum "Si O2"
_cell_formula_units_Z 48
_cell_length_a 18.192729
_cell_length_b 8.880804
_cell_length_c 16.349475
_cell_angle_alpha 90.000000
_cell_angle_beta 90.000000
_cell_angle_gamma 90.000000
_cell_volume 2641.520267
_symmetry_space_group_name_H-M "C 2 2 2"
_symmetry_group_IT_number 21
_symmetry_cell_setting 'orthorhombic'
loop_
_space_group_symop_operation_xyz
x,y,z
-x,-y,z
x,-y,-z
-x,y,-z
1/2+x,1/2+y,z
1/2-x,1/2-y,z
1/2+x,1/2-y,-z
1/2-x,1/2+y,-z
loop_
_atom_site_type_symbol
_atom_site_label
_atom_site_fract_x
_atom_site_fract_y
_atom_site_fract_z
Si Si1 0.074931 0.568631 0.336956
Si Si2 0.521158 0.175653 0.909479
Si Si3 0.554406 0.638226 0.764395
Si Si4 0.850911 0.368557 0.800509
Si Si5 0.698148 0.455642 0.752167
Si Si6 0.231628 0.425754 0.585949
O O1 0.061394 0.738932 0.307282
O O2 0.097094 0.471869 0.255924
O O3 0.145079 0.557057 0.395059
O O4 0.000000 0.500000 0.370981
O O5 0.478753 0.274720 0.842385
O O6 0.606699 0.174832 0.883086
O O7 0.500000 0.000000 0.904845
O O8 0.500000 0.228792 0.000000
O O9 0.500000 0.500000 0.744203
O O10 0.635158 0.570007 0.779899
O O11 0.772131 0.450053 0.807031
O O12 0.835029 0.211975 0.754183
O O13 0.725404 0.499246 0.661746
O O14 0.250879 0.500000 0.500000
O O15 0.250000 0.250000 0.585180
#
# Coordination Sequence:
#
# PCOD9323031 Si02
#       6
#     8   8   8   8   8   8
#     4  11  20  38  64  88 118 161 209 247 299 375
#     4  11  22  38  62  87 124 161 200 250 314 365
#     4  12  20  37  63  93 116 158 212 256 296 368
#     4  10  19  38  61  89 116 166 204 244 303 370
#     4  10  22  37  65  87 119 157 211 252 291 367
#     4  11  25  40  61  90 125 159 200 256 320 364
#
# _framework density 18.171354000000001
#
# number of rings (size 3 to 8) (size 9 to 14) (size 15 to 20)
#    0.000    1.167    6.667    0.000    4.667    0.667 
#    0.000    0.000   14.667    0.500    0.000    0.000 
#    0.000    0.000    0.000    0.000    0.000    0.000 
#
# Total GULP energy -133939.165138 kJ/mol
# GULP energy per Si atom -5580.798547 kJ/mol
# Density = 1.813000 g / cm^3
# Si number density = 18.171354 Si / 1000 Ang^3
#
#
#
# Elastic Constant Matrix: (Units=GPa)
#
#
# Indices 1 2 3 4 5 6 
#
# 1 127.3981 33.8077 35.1486 0.0000 0.0000 0.0000
# 2 33.8077 89.0883 18.7834 0.0000 0.0000 0.0000
# 3 35.1486 18.7834 67.0618 0.0000 0.0000 0.0000
# 4 0.0000 0.0000 0.0000 19.2385 0.0000 0.0000
# 5 0.0000 0.0000 0.0000 0.0000 11.4481 0.0000
# 6 0.0000 0.0000 0.0000 0.0000 0.0000 39.5687
#
#
#
# Elastic Compliance Matrix: (Units=1/GPa)
#
#
# Indices 1 2 3 4 5 6 
#
# 1 0.009792 -0.002799 -0.004348 0.000000 0.000000 0.000000
# 2 -0.002799 0.012729 -0.002098 0.000000 0.000000 0.000000
# 3 -0.004348 -0.002098 0.017778 0.000000 0.000000 0.000000
# 4 0.000000 0.000000 0.000000 0.051979 0.000000 0.000000
# 5 0.000000 0.000000 0.000000 0.000000 0.087351 0.000000
# 6 0.000000 0.000000 0.000000 0.000000 0.000000 0.025273
#
#
# Mechanical properties :
#
#
# Convention : Reuss Voigt Hill
#
# Bulk Modulus (GPa) = 45.85373 51.00306 48.42840
# Shear Modulus (GPa) = 21.67666 27.10494 24.39080
#
# Velocity S-wave (km/s) = 3.45759 3.86635 3.66767
# Velocity P-wave (km/s) = 6.42096 6.93256 6.68166
#
# Compressibility (1/GPa) = 0.02180848
#
# Stress axis : x y z
#
# Youngs Moduli (GPa) = 102.12590 78.55799 56.24841
#
# Poissons Ratio (x) = 0.21989 0.24458
# Poissons Ratio (y) = 0.28586 0.11803
# Poissons Ratio (z) = 0.44406 0.16484
#
# Static dielectric constant tensor:
#      x y z
#    x 1.655700 0.000000 0.000000 
#    y 0.000000 1.626150 0.000000 
#    z 0.000000 0.000000 1.600500 
# 
# From -- ./inp_files/32829.got.cif
#   From: 2010.05.17/outbox.cif.g08.bks.cpg/sg21_17_cif.got.tgz:32829.got - 2010.06.03 23:14:55.
