data_PCOD9323995
_publ_section_title
;
Structure prediction by ZEFSAII (Michael W. Deem and Ramdas Pophale) SiO2 
 PCOD9323995
Probable space group: C 2 2 2
;
_chemical_formula_sum "Si O2"
_cell_formula_units_Z 48
_cell_length_a 4.995825
_cell_length_b 30.194426
_cell_length_c 14.597952
_cell_angle_alpha 90.000000
_cell_angle_beta 90.000000
_cell_angle_gamma 90.000000
_cell_volume 2202.043664
_symmetry_space_group_name_H-M "C 2 2 2"
_symmetry_group_IT_number 21
_symmetry_cell_setting 'orthorhombic'
loop_
_space_group_symop_operation_xyz
x,y,z
-x,-y,z
x,-y,-z
-x,y,-z
1/2+x,1/2+y,z
1/2-x,1/2-y,z
1/2+x,1/2-y,-z
1/2-x,1/2+y,-z
loop_
_atom_site_type_symbol
_atom_site_label
_atom_site_fract_x
_atom_site_fract_y
_atom_site_fract_z
Si Si1 0.231512 0.470680 0.282965
Si Si2 0.482437 0.280112 0.788906
Si Si3 0.120497 0.201689 0.401000
Si Si4 0.460249 0.927380 0.106390
Si Si5 0.245677 0.394127 0.432195
Si Si6 0.048023 0.870149 0.894797
O O1 0.500000 0.500000 0.271421
O O2 0.094972 0.456673 0.185905
O O3 0.277563 0.428125 0.347767
O O4 0.000000 0.500000 0.330088
O O5 0.750000 0.250000 0.791301
O O6 0.420957 0.293911 0.683922
O O7 0.502238 0.326569 0.838102
O O8 0.250000 0.250000 0.828059
O O9 0.250000 0.250000 0.403091
O O10 0.285043 0.155892 0.390796
O O11 0.000000 0.196479 0.500000
O O12 0.156154 0.911373 0.125324
O O13 0.645070 0.884118 0.112991
O O14 0.500000 0.943581 0.000000
O O15 0.500000 0.396713 0.500000
O O16 0.000000 0.403696 0.500000
O O17 0.000000 0.859758 0.000000
#
# Coordination Sequence:
#
# PCOD9323995 Si02
#       6
#     8   8   8   8   8   8
#     4  12  26  44  69  98 132 174 218 273 337 403
#     4  11  23  36  56  88 125 167 213 266 324 388
#     4  10  21  38  62  90 124 162 207 260 318 377
#     4  10  22  42  66  93 123 163 214 269 329 396
#     4  11  25  43  67  97 130 173 221 272 331 399
#     4  10  21  39  63  88 123 168 213 266 325 388
#
# _framework density 21.797934999999999
#
# number of rings (size 3 to 8) (size 9 to 14) (size 15 to 20)
#    0.000    1.333    0.000    5.000    0.000   11.000 
#    0.000    0.833    0.000    0.000    0.000    0.000 
#    0.000    0.000    0.000    0.000    0.000    0.000 
#
# Total GULP energy -133923.163537 kJ/mol
# GULP energy per Si atom -5580.131814 kJ/mol
# Density = 2.174832 g / cm^3
# Si number density = 21.797935 Si / 1000 Ang^3
#
#
#
# Elastic Constant Matrix: (Units=GPa)
#
#
# Indices 1 2 3 4 5 6 
#
# 1 93.5254 16.1087 24.6227 0.0000 0.0000 0.0000
# 2 16.1087 135.6163 80.7835 0.0000 0.0000 0.0000
# 3 24.6227 80.7835 93.8750 0.0000 0.0000 0.0000
# 4 0.0000 0.0000 0.0000 346.8764 0.0000 0.0000
# 5 0.0000 0.0000 0.0000 0.0000 27.3349 0.0000
# 6 0.0000 0.0000 0.0000 0.0000 0.0000 23.6606
#
#
#
# Elastic Compliance Matrix: (Units=1/GPa)
#
#
# Indices 1 2 3 4 5 6 
#
# 1 0.011537 0.000887 -0.003789 0.000000 0.000000 0.000000
# 2 0.000887 0.015197 -0.013310 0.000000 0.000000 0.000000
# 3 -0.003789 -0.013310 0.023100 0.000000 0.000000 0.000000
# 4 0.000000 0.000000 0.000000 0.002883 0.000000 0.000000
# 5 0.000000 0.000000 0.000000 0.000000 0.036583 0.000000
# 6 0.000000 0.000000 0.000000 0.000000 0.000000 0.042264
#
#
# Mechanical properties :
#
#
# Convention : Reuss Voigt Hill
#
# Bulk Modulus (GPa) = 57.44116 62.89406 60.16761
# Shear Modulus (GPa) = 29.44747 93.00783 61.22765
#
# Velocity S-wave (km/s) = 3.67949 6.53918 5.30563
# Velocity P-wave (km/s) = 6.66786 9.26986 8.07436
#
# Compressibility (1/GPa) = 0.01740912
#
# Stress axis : x y z
#
# Youngs Moduli (GPa) = 86.67661 65.80205 43.28912
#
# Poissons Ratio (x) = -0.05835 0.16403
# Poissons Ratio (y) = -0.07686 0.57619
# Poissons Ratio (z) = 0.32843 0.87585
#
# Static dielectric constant tensor:
#      x y z
#    x 1.799990 0.000000 0.000000 
#    y 0.000000 1.744110 0.000000 
#    z 0.000000 0.000000 1.857310 
# 
# From -- ./inp_files/29376.got.cif
#   From: 2010.05.17/outbox.cif.g08.bks.cpg/sg21_15_cif.got.tgz:29376.got - 2010.06.03 23:14:55.
