data_PCOD9323509
_publ_section_title
;
Structure prediction by ZEFSAII (Michael W. Deem and Ramdas Pophale) SiO2 
 PCOD9323509
Probable space group: C 2 2 2
;
_chemical_formula_sum "Si O2"
_cell_formula_units_Z 48
_cell_length_a 31.825674
_cell_length_b 7.945021
_cell_length_c 9.176534
_cell_angle_alpha 90.000000
_cell_angle_beta 90.000000
_cell_angle_gamma 90.000000
_cell_volume 2320.338453
_symmetry_space_group_name_H-M "C 2 2 2"
_symmetry_group_IT_number 21
_symmetry_cell_setting 'orthorhombic'
loop_
_space_group_symop_operation_xyz
x,y,z
-x,-y,z
x,-y,-z
-x,y,-z
1/2+x,1/2+y,z
1/2-x,1/2-y,z
1/2+x,1/2-y,-z
1/2-x,1/2+y,-z
loop_
_atom_site_type_symbol
_atom_site_label
_atom_site_fract_x
_atom_site_fract_y
_atom_site_fract_z
Si Si1 0.235998 0.003363 0.826567
Si Si2 0.410496 0.223558 0.351877
Si Si3 0.949990 0.023941 0.166415
Si Si4 0.815858 0.175070 0.594911
Si Si5 0.589014 0.846093 0.690877
Si Si6 0.810168 0.671986 0.698459
O O1 0.208691 0.167174 0.781685
O O2 0.283312 0.023014 0.767255
O O3 0.212571 0.861997 0.733487
O O4 0.236102 0.000000 0.000000
O O5 0.431056 0.381255 0.272022
O O6 0.360663 0.257747 0.352114
O O7 0.420981 0.203124 0.523124
O O8 0.421582 0.042010 0.283318
O O9 0.934879 0.208452 0.214605
O O10 0.000000 0.000000 0.172030
O O11 0.935746 0.000000 0.000000
O O12 0.799453 0.302791 0.471970
O O13 0.821607 0.000000 0.500000
O O14 0.639652 0.834031 0.709967
#
# Coordination Sequence:
#
# PCOD9323509 Si02
#       6
#     8   8   8   8   8   8
#     4  10  20  38  55  84 124 166 220 276 317 371
#     4  10  21  41  68 100 127 166 215 272 321 377
#     4  11  25  44  67  97 134 170 204 252 322 401
#     4   9  18  38  62  85 122 176 215 267 330 387
#     4  10  22  43  68  95 129 164 221 268 319 390
#     4   9  20  41  54  84 124 164 216 272 316 381
#
# _framework density 20.686637000000001
#
# number of rings (size 3 to 8) (size 9 to 14) (size 15 to 20)
#    0.000    2.167    0.000    3.500    0.000    5.333 
#   42.000    3.333    0.000    0.000    0.000    0.000 
#    0.000    0.000    0.000    0.000    0.000    0.000 
#
# Total GULP energy -134096.394267 kJ/mol
# GULP energy per Si atom -5587.349761 kJ/mol
# Density = 2.063955 g / cm^3
# Si number density = 20.686637 Si / 1000 Ang^3
#
#
#
# Elastic Constant Matrix: (Units=GPa)
#
#
# Indices 1 2 3 4 5 6 
#
# 1 44.5306 24.9319 40.9533 0.0000 0.0000 0.0000
# 2 24.9319 135.1748 50.0713 0.0000 0.0000 0.0000
# 3 40.9533 50.0713 131.0011 0.0000 0.0000 0.0000
# 4 0.0000 0.0000 0.0000 19.1782 0.0000 0.0000
# 5 0.0000 0.0000 0.0000 0.0000 39.3324 0.0000
# 6 0.0000 0.0000 0.0000 0.0000 0.0000 20.6057
#
#
#
# Elastic Compliance Matrix: (Units=1/GPa)
#
#
# Indices 1 2 3 4 5 6 
#
# 1 0.032273 -0.002581 -0.009103 0.000000 0.000000 0.000000
# 2 -0.002581 0.008824 -0.002566 0.000000 0.000000 0.000000
# 3 -0.009103 -0.002566 0.011460 0.000000 0.000000 0.000000
# 4 0.000000 0.000000 0.000000 0.052142 0.000000 0.000000
# 5 0.000000 0.000000 0.000000 0.000000 0.025424 0.000000
# 6 0.000000 0.000000 0.000000 0.000000 0.000000 0.048530
#
#
# Mechanical properties :
#
#
# Convention : Reuss Voigt Hill
#
# Bulk Modulus (GPa) = 41.56571 60.29106 50.92839
# Shear Modulus (GPa) = 23.23717 28.80658 26.02188
#
# Velocity S-wave (km/s) = 3.35519 3.73570 3.55055
# Velocity P-wave (km/s) = 5.92844 6.91487 6.44057
#
# Compressibility (1/GPa) = 0.02405829
#
# Stress axis : x y z
#
# Youngs Moduli (GPa) = 30.98584 113.32291 87.26005
#
# Poissons Ratio (x) = 0.29245 0.79430
# Poissons Ratio (y) = 0.07996 0.22392
# Poissons Ratio (z) = 0.28205 0.29080
#
# Static dielectric constant tensor:
#      x y z
#    x 1.716500 0.000000 0.000000 
#    y 0.000000 1.845900 0.000000 
#    z 0.000000 0.000000 1.719150 
# 
# From -- ./inp_files/19675.got.cif
#   From: 2010.05.17/outbox.cif.g08.bks.cpg/sg21_10_cif.got.tgz:19675.got - 2010.06.03 23:14:55.
