data_PCOD9323857
_publ_section_title
;
Structure prediction by ZEFSAII (Michael W. Deem and Ramdas Pophale) SiO2 
 PCOD9323857
Probable space group: C 2 2 2
;
_chemical_formula_sum "Si O2"
_cell_formula_units_Z 64
_cell_length_a 14.954030
_cell_length_b 37.537680
_cell_length_c 5.270298
_cell_angle_alpha 90.000000
_cell_angle_beta 90.000000
_cell_angle_gamma 90.000000
_cell_volume 2958.426934
_symmetry_space_group_name_H-M "C 2 2 2"
_symmetry_group_IT_number 21
_symmetry_cell_setting 'orthorhombic'
loop_
_space_group_symop_operation_xyz
x,y,z
-x,-y,z
x,-y,-z
-x,y,-z
1/2+x,1/2+y,z
1/2-x,1/2-y,z
1/2+x,1/2-y,-z
1/2-x,1/2+y,-z
loop_
_atom_site_type_symbol
_atom_site_label
_atom_site_fract_x
_atom_site_fract_y
_atom_site_fract_z
Si Si1 0.460344 0.459530 0.751877
Si Si2 0.308927 0.342362 0.796756
Si Si3 0.107446 0.262920 0.467972
Si Si4 0.694056 0.835354 0.297156
Si Si5 0.786466 0.077392 0.152807
Si Si6 0.827936 0.414565 0.651723
Si Si7 0.899989 0.515042 0.251657
Si Si8 0.395039 0.726985 0.031211
O O1 0.500000 0.500000 0.751207
O O2 0.500000 0.442556 0.500000
O O3 0.354806 0.454148 0.778133
O O4 0.500000 0.441584 0.000000
O O5 0.271257 0.337017 0.513278
O O6 0.334157 0.383850 0.822692
O O7 0.381478 0.312920 0.868727
O O8 0.233109 0.334860 0.012321
O O9 0.134842 0.301616 0.368733
O O10 0.142807 0.252366 0.746362
O O11 0.000000 0.260905 0.500000
O O12 0.141430 0.235799 0.248914
O O13 0.645690 0.873552 0.323197
O O14 0.709980 0.078893 0.369374
O O15 0.746996 0.076752 0.868139
O O16 0.903349 0.442841 0.721874
O O17 0.852454 0.500000 0.500000
O O18 0.000000 0.500000 0.249971
O O19 0.854860 0.500000 0.000000
O O20 0.500000 0.734021 0.000000
#
# Coordination Sequence:
#
# PCOD9323857 Si02
#       8
#     8   8   8   8   8   8   8   8
#     4  10  21  39  56  82 114 148 188 237 286 344
#     4  10  21  36  58  86 112 151 195 238 289 340
#     4  10  21  37  55  82 118 154 192 236 286 338
#     4  10  21  37  59  83 116 149 194 239 284 343
#     4  10  21  39  60  84 121 153 195 244 293 353
#     4  10  21  40  60  88 117 154 193 239 295 347
#     4  10  21  40  61  87 121 147 189 245 285 352
#     4  10  21  36  55  82 119 152 194 238 285 342
#
# _framework density 21.633116000000001
#
# number of rings (size 3 to 8) (size 9 to 14) (size 15 to 20)
#    0.000    2.000    0.000    3.000    0.000    3.500 
#   15.750    1.875    5.500    0.000    0.000    0.000 
#    0.000    0.000    0.000    0.000    0.000    0.000 
#
# Total GULP energy -178470.332033 kJ/mol
# GULP energy per Si atom -5577.197876 kJ/mol
# Density = 2.158388 g / cm^3
# Si number density = 21.633116 Si / 1000 Ang^3
#
#
#
# Elastic Constant Matrix: (Units=GPa)
#
#
# Indices 1 2 3 4 5 6 
#
# 1 25.7873 18.2672 3.9648 0.0000 0.0000 0.0000
# 2 18.2672 113.3179 24.2491 0.0000 0.0000 0.0000
# 3 3.9648 24.2491 137.8554 0.0000 0.0000 0.0000
# 4 0.0000 0.0000 0.0000 9.1511 0.0000 0.0000
# 5 0.0000 0.0000 0.0000 0.0000 14.1889 0.0000
# 6 0.0000 0.0000 0.0000 0.0000 0.0000 34.7446
#
#
#
# Elastic Compliance Matrix: (Units=1/GPa)
#
#
# Indices 1 2 3 4 5 6 
#
# 1 0.043778 -0.007053 -0.000018 0.000000 0.000000 0.000000
# 2 -0.007053 0.010306 -0.001610 0.000000 0.000000 0.000000
# 3 -0.000018 -0.001610 0.007538 0.000000 0.000000 0.000000
# 4 0.000000 0.000000 0.000000 0.109276 0.000000 0.000000
# 5 0.000000 0.000000 0.000000 0.000000 0.070478 0.000000
# 6 0.000000 0.000000 0.000000 0.000000 0.000000 0.028781
#
#
# Mechanical properties :
#
#
# Convention : Reuss Voigt Hill
#
# Bulk Modulus (GPa) = 22.59450 41.10256 31.84853
# Shear Modulus (GPa) = 16.54131 26.98221 21.76176
#
# Velocity S-wave (km/s) = 2.76819 3.53549 3.17511
# Velocity P-wave (km/s) = 4.54800 5.97556 5.30997
#
# Compressibility (1/GPa) = 0.04425856
#
# Stress axis : x y z
#
# Youngs Moduli (GPa) = 22.84258 97.02840 132.66610
#
# Poissons Ratio (x) = 0.68436 0.00244
# Poissons Ratio (y) = 0.16111 0.21360
# Poissons Ratio (z) = 0.00042 0.15622
#
# Static dielectric constant tensor:
#      x y z
#    x 1.788350 0.000000 0.000000 
#    y 0.000000 1.806670 0.000000 
#    z 0.000000 0.000000 1.835510 
# 
# From -- ./inp_files/5395.got.cif
#   From: 2010.05.17/outbox.cif.g08.bks.cpg/sg21_3_cif.got.tgz:5395.got - 2010.06.03 23:14:55.
