data_PCOD9323780
_publ_section_title
;
Structure prediction by ZEFSAII (Michael W. Deem and Ramdas Pophale) SiO2 
 PCOD9323780
Probable space group: C 2 2 2
;
_chemical_formula_sum "Si O2"
_cell_formula_units_Z 22
_cell_length_a 6.383275
_cell_length_b 13.096899
_cell_length_c 11.986829
_cell_angle_alpha 90.000000
_cell_angle_beta 90.000000
_cell_angle_gamma 90.000000
_cell_volume 1002.112185
_symmetry_space_group_name_H-M "C 2 2 2"
_symmetry_group_IT_number 21
_symmetry_cell_setting 'orthorhombic'
loop_
_space_group_symop_operation_xyz
x,y,z
-x,-y,z
x,-y,-z
-x,y,-z
1/2+x,1/2+y,z
1/2-x,1/2-y,z
1/2+x,1/2-y,-z
1/2-x,1/2+y,-z
loop_
_atom_site_type_symbol
_atom_site_label
_atom_site_fract_x
_atom_site_fract_y
_atom_site_fract_z
Si Si1 0.500000 0.000000 0.500000
Si Si2 0.324304 0.137951 0.692295
Si Si3 0.500000 0.500000 0.833457
Si Si4 0.394433 0.888904 0.892477
O O1 0.374039 0.072699 0.583483
O O2 0.250000 0.250000 0.662499
O O3 0.525399 0.154176 0.774880
O O4 0.152405 0.071932 0.760338
O O5 0.651102 0.419135 0.897385
O O6 0.500000 0.000000 0.891379
O O7 0.500000 0.834982 0.000000
#
# Coordination Sequence:
#
# PCOD9323780 Si02
#       4
#     2   8   4   8
#     4  12  24  50  62  98 146 176 248 296 328 418
#     4  11  25  44  68 101 137 182 238 288 345 419
#     4  10  20  44  72  96 140 185 221 290 350 412
#     4   9  19  40  67 103 140 177 228 283 353 420
#
# _framework density 21.953631000000001
#
# number of rings (size 3 to 8) (size 9 to 14) (size 15 to 20)
#    0.000    1.818    5.455    0.000    0.000   16.727 
#    6.545    0.000    0.000    0.000    0.000    0.000 
#    0.000    0.000    0.000    0.000    0.000    0.000 
#
# Total GULP energy -61326.993945 kJ/mol
# GULP energy per Si atom -5575.181268 kJ/mol
# Density = 2.190366 g / cm^3
# Si number density = 21.953631 Si / 1000 Ang^3
#
#
#
# Elastic Constant Matrix: (Units=GPa)
#
#
# Indices 1 2 3 4 5 6 
#
# 1 150.4672 37.3179 80.1121 0.0000 0.0000 0.0000
# 2 37.3179 123.1318 52.3724 0.0000 0.0000 0.0000
# 3 80.1121 52.3724 152.5448 0.0000 0.0000 0.0000
# 4 0.0000 0.0000 0.0000 -31.6274 0.0000 0.0000
# 5 0.0000 0.0000 0.0000 0.0000 20.5688 0.0000
# 6 0.0000 0.0000 0.0000 0.0000 0.0000 17.6252
#
#
#
# Elastic Compliance Matrix: (Units=1/GPa)
#
#
# Indices 1 2 3 4 5 6 
#
# 1 0.009304 -0.000868 -0.004588 0.000000 0.000000 0.000000
# 2 -0.000868 0.009591 -0.002837 0.000000 0.000000 0.000000
# 3 -0.004588 -0.002837 0.009939 0.000000 0.000000 0.000000
# 4 0.000000 0.000000 0.000000 -0.031618 0.000000 0.000000
# 5 0.000000 0.000000 0.000000 0.000000 0.048617 0.000000
# 6 0.000000 0.000000 0.000000 0.000000 0.000000 0.056737
#
#
# Mechanical properties :
#
#
# Convention : Reuss Voigt Hill
#
# Bulk Modulus (GPa) = 81.64855 85.08317 83.36586
# Shear Modulus (GPa) = 40.57132 18.40275 29.48703
#
# Velocity S-wave (km/s) = 4.30355 2.89840 3.66888
# Velocity P-wave (km/s) = 7.87186 7.07397 7.48356
#
# Compressibility (1/GPa) = 0.01224761
#
# Stress axis : x y z
#
# Youngs Moduli (GPa) = 107.47880 104.26259 100.61392
#
# Poissons Ratio (x) = 0.09053 0.46163
# Poissons Ratio (y) = 0.09333 0.28543
# Poissons Ratio (z) = 0.49313 0.29578
#
# Static dielectric constant tensor:
#      x y z
#    x 1.897810 0.000000 0.000000 
#    y 0.000000 1.787120 0.000000 
#    z 0.000000 0.000000 1.914720 
# 
# From -- ./inp_files/20188.got.cif
#   From: 2010.05.17/outbox.cif.g08.bks.cpg/sg21_11_cif.got.tgz:20188.got - 2010.06.03 23:14:55.
