data_PCOD9323862
_publ_section_title
;
Structure prediction by ZEFSAII (Michael W. Deem and Ramdas Pophale) SiO2 
 PCOD9323862
Probable space group: C 2 2 2
;
_chemical_formula_sum "Si O2"
_cell_formula_units_Z 38
_cell_length_a 12.872758
_cell_length_b 31.422576
_cell_length_c 4.987600
_cell_angle_alpha 90.000000
_cell_angle_beta 90.000000
_cell_angle_gamma 90.000000
_cell_volume 2017.460342
_symmetry_space_group_name_H-M "C 2 2 2"
_symmetry_group_IT_number 21
_symmetry_cell_setting 'orthorhombic'
loop_
_space_group_symop_operation_xyz
x,y,z
-x,-y,z
x,-y,-z
-x,y,-z
1/2+x,1/2+y,z
1/2-x,1/2-y,z
1/2+x,1/2-y,-z
1/2-x,1/2+y,-z
loop_
_atom_site_type_symbol
_atom_site_label
_atom_site_fract_x
_atom_site_fract_y
_atom_site_fract_z
Si Si1 0.000000 0.500000 0.500000
Si Si2 0.771581 0.299126 0.427585
Si Si3 0.122250 0.122973 0.545665
Si Si4 0.380816 0.834119 0.922222
Si Si5 0.845843 0.500000 0.000000
Si Si6 0.235300 0.087110 0.047181
O O1 0.085492 0.512250 0.735306
O O2 0.750000 0.250000 0.478781
O O3 0.673305 0.330007 0.481145
O O4 0.859609 0.317043 0.625927
O O5 0.811994 0.306254 0.126803
O O6 0.180863 0.092317 0.334540
O O7 0.000000 0.123820 0.500000
O O8 0.153774 0.106315 0.836935
O O9 0.335094 0.881609 0.948589
O O10 0.500000 0.832552 0.000000
O O11 0.774178 0.458830 0.042154
#
# Coordination Sequence:
#
# PCOD9323862 Si02
#       6
#     2   8   8   8   4   8
#     4  10  24  34  60  90 114 154 196 226 296 366
#     4  10  21  38  57  84 116 145 193 241 285 342
#     4  10  21  39  60  84 114 159 198 239 292 342
#     4  10  21  36  56  84 114 150 182 229 295 350
#     4  11  22  42  57  90 122 152 197 242 293 342
#     4  10  22  39  59  83 121 150 192 245 285 349
#
# _framework density 18.835560999999998
#
# number of rings (size 3 to 8) (size 9 to 14) (size 15 to 20)
#    0.000    1.895    0.000    3.158    2.947    1.684 
#    0.000    3.158    0.000    0.000    0.000    0.000 
#    0.000    0.000    0.000    0.000    0.000    0.000 
#
# Total GULP energy -105854.743320 kJ/mol
# GULP energy per Si atom -5571.302280 kJ/mol
# Density = 1.879269 g / cm^3
# Si number density = 18.835561 Si / 1000 Ang^3
#
#
#
# Elastic Constant Matrix: (Units=GPa)
#
#
# Indices 1 2 3 4 5 6 
#
# 1 91.7190 18.8136 -19.2696 0.0000 0.0000 0.0000
# 2 18.8136 107.1910 -16.5222 0.0000 0.0000 0.0000
# 3 -19.2696 -16.5222 60.2533 0.0000 0.0000 0.0000
# 4 0.0000 0.0000 0.0000 14.0871 0.0000 0.0000
# 5 0.0000 0.0000 0.0000 0.0000 16.2104 0.0000
# 6 0.0000 0.0000 0.0000 0.0000 0.0000 27.2977
#
#
#
# Elastic Compliance Matrix: (Units=1/GPa)
#
#
# Indices 1 2 3 4 5 6 
#
# 1 0.011937 -0.001573 0.003386 0.000000 0.000000 0.000000
# 2 -0.001573 0.009948 0.002225 0.000000 0.000000 0.000000
# 3 0.003386 0.002225 0.018290 0.000000 0.000000 0.000000
# 4 0.000000 0.000000 0.000000 0.070987 0.000000 0.000000
# 5 0.000000 0.000000 0.000000 0.000000 0.061689 0.000000
# 6 0.000000 0.000000 0.000000 0.000000 0.000000 0.036633
#
#
# Mechanical properties :
#
#
# Convention : Reuss Voigt Hill
#
# Bulk Modulus (GPa) = 20.72525 25.02301 22.87413
# Shear Modulus (GPa) = 22.98942 29.92848 26.45895
#
# Velocity S-wave (km/s) = 3.49740 3.99047 3.75204
# Velocity P-wave (km/s) = 5.22841 5.87755 5.56246
#
# Compressibility (1/GPa) = 0.04825032
#
# Stress axis : x y z
#
# Youngs Moduli (GPa) = 83.77332 100.52085 54.67591
#
# Poissons Ratio (x) = 0.15814 -0.18514
# Poissons Ratio (y) = 0.13179 -0.12164
# Poissons Ratio (z) = -0.28367 -0.22364
#
# Static dielectric constant tensor:
#      x y z
#    x 1.631530 0.000000 0.000000 
#    y 0.000000 1.641530 0.000000 
#    z 0.000000 0.000000 1.642700 
# 
# From -- ./inp_files/2900.got.cif
#   From: 2010.05.17/outbox.cif.g08.bks.cpg/sg21_2_cif.got.tgz:2900.got - 2010.06.03 23:14:55.
