data_PCOD9323697
_publ_section_title
;
Structure prediction by ZEFSAII (Michael W. Deem and Ramdas Pophale) SiO2 
 PCOD9323697
Probable space group: C 2 2 2
;
_chemical_formula_sum "Si O2"
_cell_formula_units_Z 20
_cell_length_a 8.216841
_cell_length_b 11.325174
_cell_length_c 8.421316
_cell_angle_alpha 90.000000
_cell_angle_beta 90.000000
_cell_angle_gamma 90.000000
_cell_volume 783.663700
_symmetry_space_group_name_H-M "C 2 2 2"
_symmetry_group_IT_number 21
_symmetry_cell_setting 'orthorhombic'
loop_
_space_group_symop_operation_xyz
x,y,z
-x,-y,z
x,-y,-z
-x,y,-z
1/2+x,1/2+y,z
1/2-x,1/2-y,z
1/2+x,1/2-y,-z
1/2-x,1/2+y,-z
loop_
_atom_site_type_symbol
_atom_site_label
_atom_site_fract_x
_atom_site_fract_y
_atom_site_fract_z
Si Si1 0.028243 0.660051 0.681388
Si Si2 0.857412 0.096569 0.801980
Si Si3 0.250000 0.750000 0.094358
O O1 0.874445 0.677801 0.796967
O O2 0.000000 0.630093 0.500000
O O3 0.090972 0.796044 0.687604
O O4 0.170251 0.575254 0.749279
O O5 0.833126 0.156190 0.975364
O O6 0.000000 0.000000 0.792616
#
# Coordination Sequence:
#
# PCOD9323697 Si02
#       3
#     8   8   4
#     4  10  21  41  69 102 151 193 229 302 371 424
#     4  10  21  39  68 105 143 192 247 296 359 440
#     4  10  20  40  70 100 146 196 238 304 366 420
#
# _framework density 25.521151
#
# number of rings (size 3 to 8) (size 9 to 14) (size 15 to 20)
#    0.000    2.400    0.000    7.200    0.000    4.000 
#    0.000    8.000    0.000   26.400    0.000    0.000 
#    0.000    0.000    0.000    0.000    0.000    0.000 
#
# Total GULP energy -55911.246155 kJ/mol
# GULP energy per Si atom -5591.124616 kJ/mol
# Density = 2.546306 g / cm^3
# Si number density = 25.521151 Si / 1000 Ang^3
#
#
#
# Elastic Constant Matrix: (Units=GPa)
#
#
# Indices 1 2 3 4 5 6 
#
# 1 259.2681 101.1879 129.7989 0.0000 0.0000 0.0000
# 2 101.1879 177.7879 65.0657 0.0000 0.0000 0.0000
# 3 129.7989 65.0657 218.1404 0.0000 0.0000 0.0000
# 4 0.0000 0.0000 0.0000 9.5695 0.0000 0.0000
# 5 0.0000 0.0000 0.0000 0.0000 39.8100 0.0000
# 6 0.0000 0.0000 0.0000 0.0000 0.0000 69.4748
#
#
#
# Elastic Compliance Matrix: (Units=1/GPa)
#
#
# Indices 1 2 3 4 5 6 
#
# 1 0.006354 -0.002506 -0.003033 0.000000 0.000000 0.000000
# 2 -0.002506 0.007302 -0.000687 0.000000 0.000000 0.000000
# 3 -0.003033 -0.000687 0.006594 0.000000 0.000000 0.000000
# 4 0.000000 0.000000 0.000000 0.104499 0.000000 0.000000
# 5 0.000000 0.000000 0.000000 0.000000 0.025119 0.000000
# 6 0.000000 0.000000 0.000000 0.000000 0.000000 0.014394
#
#
# Mechanical properties :
#
#
# Convention : Reuss Voigt Hill
#
# Bulk Modulus (GPa) = 128.24313 138.58903 133.41608
# Shear Modulus (GPa) = 27.88418 47.71378 37.79898
#
# Velocity S-wave (km/s) = 3.30902 4.32855 3.85266
# Velocity P-wave (km/s) = 8.05967 8.91085 8.49593
#
# Compressibility (1/GPa) = 0.00779769
#
# Stress axis : x y z
#
# Youngs Moduli (GPa) = 157.39282 136.94069 151.65751
#
# Poissons Ratio (x) = 0.34319 0.45998
# Poissons Ratio (y) = 0.39444 0.10418
# Poissons Ratio (z) = 0.47737 0.09407
#
# Static dielectric constant tensor:
#      x y z
#    x 2.215610 0.000000 0.000000 
#    y 0.000000 2.324900 0.000000 
#    z 0.000000 0.000000 1.933720 
# 
# From -- ./inp_files/9484.got.cif
#   From: 2010.05.17/outbox.cif.g08.bks.cpg/sg21_5_cif.got.tgz:9484.got - 2010.06.03 23:14:55.
