data_PCOD9323951
_publ_section_title
;
Structure prediction by ZEFSAII (Michael W. Deem and Ramdas Pophale) SiO2 
 PCOD9323951
Probable space group: C 2 2 2
;
_chemical_formula_sum "Si O2"
_cell_formula_units_Z 48
_cell_length_a 8.856853
_cell_length_b 28.929612
_cell_length_c 8.259359
_cell_angle_alpha 90.000000
_cell_angle_beta 90.000000
_cell_angle_gamma 90.000000
_cell_volume 2116.256910
_symmetry_space_group_name_H-M "C 2 2 2"
_symmetry_group_IT_number 21
_symmetry_cell_setting 'orthorhombic'
loop_
_space_group_symop_operation_xyz
x,y,z
-x,-y,z
x,-y,-z
-x,y,-z
1/2+x,1/2+y,z
1/2-x,1/2-y,z
1/2+x,1/2-y,-z
1/2-x,1/2+y,-z
loop_
_atom_site_type_symbol
_atom_site_label
_atom_site_fract_x
_atom_site_fract_y
_atom_site_fract_z
Si Si1 0.669622 0.949222 0.562338
Si Si2 0.624183 0.628458 0.608395
Si Si3 0.176959 0.298845 0.179982
Si Si4 0.833005 0.553488 0.950470
Si Si5 0.393239 0.621014 0.863800
Si Si6 0.168153 0.702012 0.212938
O O1 0.500000 0.941226 0.500000
O O2 0.782080 0.909188 0.508720
O O3 0.672985 0.945903 0.756675
O O4 0.713942 0.000000 0.500000
O O5 0.500000 0.654381 0.500000
O O6 0.517562 0.602549 0.739172
O O7 0.738458 0.661625 0.701574
O O8 0.250000 0.250000 0.225215
O O9 0.284789 0.341580 0.218911
O O10 0.009290 0.301271 0.252018
O O11 0.171482 0.301118 0.982965
O O12 0.820418 0.500000 0.000000
O O13 0.708898 0.583338 0.045397
O O14 0.000000 0.570895 0.000000
O O15 0.500000 0.645332 0.000000
O O16 0.250000 0.750000 0.256650
#
# Coordination Sequence:
#
# PCOD9323951 Si02
#       6
#     8   8   8   8   8   8
#     4  11  25  47  70  98 139 185 235 285 352 429
#     4  12  28  45  67 103 144 190 227 292 358 420
#     4  10  21  37  74 110 139 178 228 298 345 404
#     4  11  25  44  73 102 134 183 236 296 347 411
#     4  12  24  44  69 105 142 175 240 289 344 412
#     4  10  21  42  70 105 143 181 234 284 349 417
#
# _framework density 22.681554999999999
#
# number of rings (size 3 to 8) (size 9 to 14) (size 15 to 20)
#    0.000    1.000    3.333    3.000   11.667    0.667 
#    0.000    3.333    0.000    0.000    0.000    0.000 
#    0.000    0.000    0.000    0.000    0.000    0.000 
#
# Total GULP energy -134230.461846 kJ/mol
# GULP energy per Si atom -5592.935910 kJ/mol
# Density = 2.262993 g / cm^3
# Si number density = 22.681555 Si / 1000 Ang^3
#
#
#
# Elastic Constant Matrix: (Units=GPa)
#
#
# Indices 1 2 3 4 5 6 
#
# 1 204.8384 105.7398 52.2705 0.0000 0.0000 0.0000
# 2 105.7398 131.2821 38.9794 0.0000 0.0000 0.0000
# 3 52.2705 38.9794 62.3574 0.0000 0.0000 0.0000
# 4 0.0000 0.0000 0.0000 27.3678 0.0000 0.0000
# 5 0.0000 0.0000 0.0000 0.0000 43.5899 0.0000
# 6 0.0000 0.0000 0.0000 0.0000 0.0000 40.4057
#
#
#
# Elastic Compliance Matrix: (Units=1/GPa)
#
#
# Indices 1 2 3 4 5 6 
#
# 1 0.009002 -0.006152 -0.003700 0.000000 0.000000 0.000000
# 2 -0.006152 0.013557 -0.003318 0.000000 0.000000 0.000000
# 3 -0.003700 -0.003318 0.021212 0.000000 0.000000 0.000000
# 4 0.000000 0.000000 0.000000 0.036539 0.000000 0.000000
# 5 0.000000 0.000000 0.000000 0.000000 0.022941 0.000000
# 6 0.000000 0.000000 0.000000 0.000000 0.000000 0.024749
#
#
# Mechanical properties :
#
#
# Convention : Reuss Voigt Hill
#
# Bulk Modulus (GPa) = 57.36744 88.05082 72.70913
# Shear Modulus (GPa) = 31.22065 35.70523 33.46294
#
# Velocity S-wave (km/s) = 3.71412 3.97192 3.84518
# Velocity P-wave (km/s) = 6.61365 7.74207 7.20000
#
# Compressibility (1/GPa) = 0.01743149
#
# Stress axis : x y z
#
# Youngs Moduli (GPa) = 111.09065 73.76207 47.14255
#
# Poissons Ratio (x) = 0.45376 0.17444
# Poissons Ratio (y) = 0.68339 0.15642
# Poissons Ratio (z) = 0.41106 0.24474
#
# Static dielectric constant tensor:
#      x y z
#    x 1.823000 0.000000 0.000000 
#    y 0.000000 1.817220 0.000000 
#    z 0.000000 0.000000 1.914690 
# 
# From -- ./inp_files/11491.got.cif
#   From: 2010.05.17/outbox.cif.g08.bks.cpg/sg21_6_cif.got.tgz:11491.got - 2010.06.03 23:14:55.
