data_PCOD9323469
_publ_section_title
;
Structure prediction by ZEFSAII (Michael W. Deem and Ramdas Pophale) SiO2 
 PCOD9323469
Probable space group: C 2 2 2
;
_chemical_formula_sum "Si O2"
_cell_formula_units_Z 60
_cell_length_a 10.205647
_cell_length_b 27.046430
_cell_length_c 11.723009
_cell_angle_alpha 90.000000
_cell_angle_beta 90.000000
_cell_angle_gamma 90.000000
_cell_volume 3235.859001
_symmetry_space_group_name_H-M "C 2 2 2"
_symmetry_group_IT_number 21
_symmetry_cell_setting 'orthorhombic'
loop_
_space_group_symop_operation_xyz
x,y,z
-x,-y,z
x,-y,-z
-x,y,-z
1/2+x,1/2+y,z
1/2-x,1/2-y,z
1/2+x,1/2-y,-z
1/2-x,1/2+y,-z
loop_
_atom_site_type_symbol
_atom_site_label
_atom_site_fract_x
_atom_site_fract_y
_atom_site_fract_z
Si Si1 0.857247 0.394181 0.041248
Si Si2 0.210298 0.103217 0.725545
Si Si3 0.669354 0.796277 0.669943
Si Si4 0.114568 0.277751 0.919436
Si Si5 0.440802 0.449087 0.316825
Si Si6 0.000000 0.363381 0.500000
Si Si7 0.705374 0.058556 0.513256
Si Si8 0.360981 0.549203 0.937021
O O1 0.793892 0.411545 0.162305
O O2 0.869662 0.335376 0.050648
O O3 0.745410 0.408657 0.952238
O O4 0.000000 0.413286 0.000000
O O5 0.228223 0.162077 0.713429
O O6 0.270868 0.077181 0.614980
O O7 0.058508 0.087586 0.718186
O O8 0.750000 0.750000 0.620166
O O9 0.593079 0.776921 0.782505
O O10 0.576758 0.826850 0.585199
O O11 0.250000 0.250000 0.940702
O O12 0.000000 0.257434 0.000000
O O13 0.500000 0.500000 0.363049
O O14 0.334113 0.433378 0.409300
O O15 0.377259 0.462114 0.195397
O O16 0.902730 0.402916 0.560571
O O17 0.673731 0.000000 0.500000
O O18 0.311800 0.500000 0.000000
O O19 0.500000 0.560712 0.000000
#
# Coordination Sequence:
#
# PCOD9323469 Si02
#       8
#     8   8   8   8   8   4   8   8
#     4  10  21  38  61  85 118 163 201 253 312 371
#     4  10  20  37  61  87 122 154 206 257 300 374
#     4   9  20  42  64  82 120 162 194 252 312 359
#     4   9  19  37  62  88 117 151 194 246 309 369
#     4  12  21  36  59  88 123 161 209 253 304 376
#     4  10  23  44  60  88 126 156 211 258 308 378
#     4  11  23  36  62  90 123 163 200 256 314 367
#     4  11  21  36  55  81 122 161 205 252 296 352
#
# _framework density 18.542217000000001
#
# number of rings (size 3 to 8) (size 9 to 14) (size 15 to 20)
#    0.000    1.733    4.000    0.600    0.000    5.067 
#    7.200    0.667    0.000    0.000    0.000    0.000 
#    0.000    0.000    0.000    0.000    0.000    0.000 
#
# Total GULP energy -167116.528818 kJ/mol
# GULP energy per Si atom -5570.550961 kJ/mol
# Density = 1.850001 g / cm^3
# Si number density = 18.542217 Si / 1000 Ang^3
#
#
#
# Elastic Constant Matrix: (Units=GPa)
#
#
# Indices 1 2 3 4 5 6 
#
# 1 110.6182 45.2541 49.3966 0.0000 0.0000 0.0000
# 2 45.2541 68.5241 37.8369 0.0000 0.0000 0.0000
# 3 49.3966 37.8369 88.7676 0.0000 0.0000 0.0000
# 4 0.0000 0.0000 0.0000 23.7188 0.0000 0.0000
# 5 0.0000 0.0000 0.0000 0.0000 27.3020 0.0000
# 6 0.0000 0.0000 0.0000 0.0000 0.0000 35.6850
#
#
#
# Elastic Compliance Matrix: (Units=1/GPa)
#
#
# Indices 1 2 3 4 5 6 
#
# 1 0.013898 -0.006419 -0.004998 0.000000 0.000000 0.000000
# 2 -0.006419 0.022050 -0.005827 0.000000 0.000000 0.000000
# 3 -0.004998 -0.005827 0.016530 0.000000 0.000000 0.000000
# 4 0.000000 0.000000 0.000000 0.042161 0.000000 0.000000
# 5 0.000000 0.000000 0.000000 0.000000 0.036627 0.000000
# 6 0.000000 0.000000 0.000000 0.000000 0.000000 0.028023
#
#
# Mechanical properties :
#
#
# Convention : Reuss Voigt Hill
#
# Bulk Modulus (GPa) = 55.58287 59.20946 57.39616
# Shear Modulus (GPa) = 25.02850 26.36929 25.69890
#
# Velocity S-wave (km/s) = 3.67796 3.77519 3.72690
# Velocity P-wave (km/s) = 6.93383 7.14173 7.03855
#
# Compressibility (1/GPa) = 0.01799116
#
# Stress axis : x y z
#
# Youngs Moduli (GPa) = 71.95429 45.35200 60.49540
#
# Poissons Ratio (x) = 0.29110 0.30234
# Poissons Ratio (y) = 0.46184 0.35250
# Poissons Ratio (z) = 0.35961 0.26426
#
# Static dielectric constant tensor:
#      x y z
#    x 1.701210 0.000000 0.000000 
#    y 0.000000 1.650640 0.000000 
#    z 0.000000 0.000000 1.667380 
# 
# From -- ./inp_files/22994.got.cif
#   From: 2010.05.17/outbox.cif.g08.bks.cpg/sg21_12_cif.got.tgz:22994.got - 2010.06.03 23:14:55.
