data_PCOD9323769
_publ_section_title
;
Structure prediction by ZEFSAII (Michael W. Deem and Ramdas Pophale) SiO2 
 PCOD9323769
Probable space group: C 2 2 2
;
_chemical_formula_sum "Si O2"
_cell_formula_units_Z 32
_cell_length_a 16.994280
_cell_length_b 14.138813
_cell_length_c 5.446087
_cell_angle_alpha 90.000000
_cell_angle_beta 90.000000
_cell_angle_gamma 90.000000
_cell_volume 1308.580050
_symmetry_space_group_name_H-M "C 2 2 2"
_symmetry_group_IT_number 21
_symmetry_cell_setting 'orthorhombic'
loop_
_space_group_symop_operation_xyz
x,y,z
-x,-y,z
x,-y,-z
-x,y,-z
1/2+x,1/2+y,z
1/2-x,1/2-y,z
1/2+x,1/2-y,-z
1/2-x,1/2+y,-z
loop_
_atom_site_type_symbol
_atom_site_label
_atom_site_fract_x
_atom_site_fract_y
_atom_site_fract_z
Si Si1 0.500000 0.184524 0.000000
Si Si2 0.608337 0.500000 0.000000
Si Si3 0.120821 0.439195 0.252265
Si Si4 0.713501 0.602860 0.368278
Si Si5 0.425314 0.332625 0.676805
O O1 0.543138 0.119940 0.802254
O O2 0.435009 0.250916 0.875866
O O3 0.662839 0.577908 0.130092
O O4 0.565138 0.435711 0.198944
O O5 0.111006 0.500000 0.500000
O O6 0.197604 0.373445 0.297268
O O7 0.135139 0.500000 0.000000
O O8 0.720354 0.500000 0.500000
O O9 0.658224 0.666353 0.539082
O O10 0.500000 0.320449 0.500000
#
# Coordination Sequence:
#
# PCOD9323769 Si02
#       5
#     4   4   8   8   8
#     4  12  29  47  76 116 160 198 270 337 417 474
#     4  10  20  43  70 103 144 204 254 309 384 484
#     4  11  26  52  86 109 146 211 281 333 394 474
#     4   9  20  42  77 105 144 199 262 317 389 474
#     4  11  25  43  70 115 160 203 256 322 404 484
#
# _framework density 24.453987999999999
#
# number of rings (size 3 to 8) (size 9 to 14) (size 15 to 20)
#    0.000    1.500    1.250    1.875    3.500   13.000 
#    0.000    7.500    5.500    0.000    0.000    0.000 
#    0.000    0.000    0.000    0.000    0.000    0.000 
#
# Total GULP energy -89558.682377 kJ/mol
# GULP energy per Si atom -5597.417649 kJ/mol
# Density = 2.439833 g / cm^3
# Si number density = 24.453988 Si / 1000 Ang^3
#
#
#
# Elastic Constant Matrix: (Units=GPa)
#
#
# Indices 1 2 3 4 5 6 
#
# 1 130.9005 62.3824 52.2016 0.0000 0.0000 0.0000
# 2 62.3824 80.3944 54.2403 0.0000 0.0000 0.0000
# 3 52.2016 54.2403 134.7817 0.0000 0.0000 0.0000
# 4 0.0000 0.0000 0.0000 35.1591 0.0000 0.0000
# 5 0.0000 0.0000 0.0000 0.0000 36.3562 0.0000
# 6 0.0000 0.0000 0.0000 0.0000 0.0000 -14.5386
#
#
#
# Elastic Compliance Matrix: (Units=1/GPa)
#
#
# Indices 1 2 3 4 5 6 
#
# 1 0.012277 -0.008673 -0.001265 0.000000 0.000000 0.000000
# 2 -0.008673 0.023202 -0.005978 0.000000 0.000000 0.000000
# 3 -0.001265 -0.005978 0.010315 0.000000 0.000000 0.000000
# 4 0.000000 0.000000 0.000000 0.028442 0.000000 0.000000
# 5 0.000000 0.000000 0.000000 0.000000 0.027506 0.000000
# 6 0.000000 0.000000 0.000000 0.000000 0.000000 -0.068782
#
#
# Mechanical properties :
#
#
# Convention : Reuss Voigt Hill
#
# Bulk Modulus (GPa) = 71.62159 75.96946 73.79553
# Shear Modulus (GPa) = 71.99937 23.21215 47.60576
#
# Velocity S-wave (km/s) = 5.43201 3.08428 4.41698
# Velocity P-wave (km/s) = 8.28819 6.61947 7.50039
#
# Compressibility (1/GPa) = 0.01396227
#
# Stress axis : x y z
#
# Youngs Moduli (GPa) = 81.45283 43.09987 96.94709
#
# Poissons Ratio (x) = 0.37382 0.12260
# Poissons Ratio (y) = 0.70646 0.57955
# Poissons Ratio (z) = 0.10300 0.25765
#
# Static dielectric constant tensor:
#      x y z
#    x 1.959880 0.000000 0.000000 
#    y 0.000000 1.912130 0.000000 
#    z 0.000000 0.000000 2.019420 
# 
# From -- ./inp_files/4668.got.cif
#   From: 2010.05.17/outbox.cif.g08.bks.cpg/sg21_3_cif.got.tgz:4668.got - 2010.06.03 23:14:55.
