data_PCOD9323563
_publ_section_title
;
Structure prediction by ZEFSAII (Michael W. Deem and Ramdas Pophale) SiO2 
 PCOD9323563
Probable space group: C 2 2 2
;
_chemical_formula_sum "Si O2"
_cell_formula_units_Z 44
_cell_length_a 14.783453
_cell_length_b 24.541185
_cell_length_c 6.337254
_cell_angle_alpha 90.000000
_cell_angle_beta 90.000000
_cell_angle_gamma 90.000000
_cell_volume 2299.177646
_symmetry_space_group_name_H-M "C 2 2 2"
_symmetry_group_IT_number 21
_symmetry_cell_setting 'orthorhombic'
loop_
_space_group_symop_operation_xyz
x,y,z
-x,-y,z
x,-y,-z
-x,y,-z
1/2+x,1/2+y,z
1/2-x,1/2-y,z
1/2+x,1/2-y,-z
1/2-x,1/2+y,-z
loop_
_atom_site_type_symbol
_atom_site_label
_atom_site_fract_x
_atom_site_fract_y
_atom_site_fract_z
Si Si1 0.329444 0.104394 0.288868
Si Si2 0.750000 0.250000 0.124100
Si Si3 0.731829 0.551600 0.890175
Si Si4 0.682517 0.353648 0.378615
Si Si5 0.156105 0.500000 0.500000
Si Si6 0.500000 0.294974 0.500000
Si Si7 0.579654 0.786439 0.154196
O O1 0.241804 0.121149 0.430166
O O2 0.384145 0.159754 0.267270
O O3 0.384683 0.055101 0.400498
O O4 0.295942 0.081445 0.062465
O O5 0.735243 0.302998 0.270395
O O6 0.662698 0.239996 0.976509
O O7 0.671635 0.598582 0.791899
O O8 0.786823 0.524418 0.696463
O O9 0.685055 0.500000 0.000000
O O10 0.585746 0.331238 0.441860
O O11 0.464480 0.256519 0.312791
O O12 0.500000 0.803973 0.000000
#
# Coordination Sequence:
#
# PCOD9323563 Si02
#       7
#     8   4   8   8   4   4   8
#     4  10  20  38  65  91 125 172 212 265 325 387
#     4  12  22  44  62  94 130 172 218 266 332 396
#     4   9  18  37  65  94 117 166 222 263 319 386
#     4  11  22  38  63  93 131 171 215 264 325 390
#     4   8  18  34  66  94 118 158 226 264 318 387
#     4  12  26  40  58  98 136 168 216 266 324 394
#     4  12  25  40  62  94 131 169 216 267 324 395
#
# _framework density 19.137277999999998
#
# number of rings (size 3 to 8) (size 9 to 14) (size 15 to 20)
#    0.000    1.455    3.636    2.182    0.000    0.000 
#    0.000    0.000    0.000   38.182    0.000    0.000 
#    0.000    0.000    0.000    0.000    0.000    0.000 
#
# Total GULP energy -122682.925427 kJ/mol
# GULP energy per Si atom -5576.496610 kJ/mol
# Density = 1.909372 g / cm^3
# Si number density = 19.137278 Si / 1000 Ang^3
#
#
#
# Elastic Constant Matrix: (Units=GPa)
#
#
# Indices 1 2 3 4 5 6 
#
# 1 66.4369 9.0706 16.7596 0.0000 0.0000 0.0000
# 2 9.0706 107.5914 23.1913 0.0000 0.0000 0.0000
# 3 16.7596 23.1913 73.4118 0.0000 0.0000 0.0000
# 4 0.0000 0.0000 0.0000 45.4958 0.0000 0.0000
# 5 0.0000 0.0000 0.0000 0.0000 31.2448 0.0000
# 6 0.0000 0.0000 0.0000 0.0000 0.0000 -0.2244
#
#
#
# Elastic Compliance Matrix: (Units=1/GPa)
#
#
# Indices 1 2 3 4 5 6 
#
# 1 0.016008 -0.000603 -0.003464 0.000000 0.000000 0.000000
# 2 -0.000603 0.009996 -0.003020 0.000000 0.000000 0.000000
# 3 -0.003464 -0.003020 0.015367 0.000000 0.000000 0.000000
# 4 0.000000 0.000000 0.000000 0.021980 0.000000 0.000000
# 5 0.000000 0.000000 0.000000 0.000000 0.032005 0.000000
# 6 0.000000 0.000000 0.000000 0.000000 0.000000 -4.456921
#
#
# Mechanical properties :
#
#
# Convention : Reuss Voigt Hill
#
# Bulk Modulus (GPa) = 36.76937 38.38704 37.57820
# Shear Modulus (GPa) = -1.15252 28.53115 13.68932
#
# Velocity S-wave (km/s) = -0.77688 3.86536 2.67745
# Velocity P-wave (km/s) = 4.29540 6.32643 5.40713
#
# Compressibility (1/GPa) = 0.02719655
#
# Stress axis : x y z
#
# Youngs Moduli (GPa) = 62.46850 100.03738 65.07558
#
# Poissons Ratio (x) = 0.06031 0.22543
# Poissons Ratio (y) = 0.03766 0.19654
# Poissons Ratio (z) = 0.21640 0.30214
#
# Static dielectric constant tensor:
#      x y z
#    x 1.606970 0.000000 0.000000 
#    y 0.000000 1.743630 0.000000 
#    z 0.000000 0.000000 1.637550 
# 
# From -- ./inp_files/4066.got.cif
#   From: 2010.05.17/outbox.cif.g08.bks.cpg/sg21_3_cif.got.tgz:4066.got - 2010.06.03 23:14:55.
