data_PCOD9323290
_publ_section_title
;
Structure prediction by ZEFSAII (Michael W. Deem and Ramdas Pophale) SiO2 
 PCOD9323290
Probable space group: C 2 2 2
;
_chemical_formula_sum "Si O2"
_cell_formula_units_Z 64
_cell_length_a 35.853231
_cell_length_b 9.441217
_cell_length_c 10.853347
_cell_angle_alpha 90.000000
_cell_angle_beta 90.000000
_cell_angle_gamma 90.000000
_cell_volume 3673.837707
_symmetry_space_group_name_H-M "C 2 2 2"
_symmetry_group_IT_number 21
_symmetry_cell_setting 'orthorhombic'
loop_
_space_group_symop_operation_xyz
x,y,z
-x,-y,z
x,-y,-z
-x,y,-z
1/2+x,1/2+y,z
1/2-x,1/2-y,z
1/2+x,1/2-y,-z
1/2-x,1/2+y,-z
loop_
_atom_site_type_symbol
_atom_site_label
_atom_site_fract_x
_atom_site_fract_y
_atom_site_fract_z
Si Si1 0.848548 0.491362 0.645702
Si Si2 0.590244 0.772037 0.272202
Si Si3 0.293204 0.585864 0.872493
Si Si4 0.092178 0.272795 0.728136
Si Si5 0.044272 0.671646 0.500630
Si Si6 0.373125 0.496735 0.149586
Si Si7 0.791846 0.576728 0.134310
Si Si8 0.958238 0.506832 0.856043
O O1 0.837423 0.500000 0.500000
O O2 0.874725 0.353971 0.667079
O O3 0.874755 0.624604 0.680280
O O4 0.817247 0.479107 0.753115
O O5 0.560986 0.751500 0.381104
O O6 0.603899 0.636350 0.199741
O O7 0.568132 0.879286 0.184754
O O8 0.330068 0.525319 0.808081
O O9 0.251395 0.563427 0.823281
O O10 0.298859 0.755112 0.887344
O O11 0.292123 0.500000 0.000000
O O12 0.064733 0.254492 0.612883
O O13 0.065141 0.355317 0.821491
O O14 0.109720 0.136978 0.791664
O O15 0.053821 0.500000 0.500000
O O16 0.000000 0.680450 0.500000
O O17 0.373934 0.500000 0.000000
O O18 0.797297 0.500000 0.000000
O O19 0.000000 0.500000 0.797509
O O20 0.962718 0.500000 0.000000
#
# Coordination Sequence:
#
# PCOD9323290 Si02
#       8
#     8   8   8   8   8   8   8   8
#     4  11  21  38  61  92 123 153 201 255 300 352
#     4  11  20  38  59  84 117 154 193 244 301 351
#     4   9  20  39  59  89 125 156 205 254 302 349
#     4  11  22  37  59  87 117 154 198 243 301 356
#     4  11  20  38  65  88 110 149 207 256 288 343
#     4  11  24  39  59  88 125 157 192 248 305 365
#     4  10  21  37  67  90 118 164 214 253 295 359
#     4  10  20  35  57  84 113 148 194 245 295 354
#
# _framework density 17.420476000000001
#
# number of rings (size 3 to 8) (size 9 to 14) (size 15 to 20)
#    0.000    1.500    5.000    1.500    3.500    2.500 
#    0.000    3.125    8.250    4.500    0.000    0.000 
#    0.000    0.000    0.000    0.000    0.000    0.000 
#
# Total GULP energy -178294.133028 kJ/mol
# GULP energy per Si atom -5571.691657 kJ/mol
# Density = 1.738083 g / cm^3
# Si number density = 17.420476 Si / 1000 Ang^3
#
#
#
# Elastic Constant Matrix: (Units=GPa)
#
#
# Indices 1 2 3 4 5 6 
#
# 1 142.5490 61.1058 60.5789 0.0000 0.0000 0.0000
# 2 61.1058 93.3616 42.5359 0.0000 0.0000 0.0000
# 3 60.5789 42.5359 116.7010 0.0000 0.0000 0.0000
# 4 0.0000 0.0000 0.0000 24.6908 0.0000 0.0000
# 5 0.0000 0.0000 0.0000 0.0000 41.3123 0.0000
# 6 0.0000 0.0000 0.0000 0.0000 0.0000 16.3206
#
#
#
# Elastic Compliance Matrix: (Units=1/GPa)
#
#
# Indices 1 2 3 4 5 6 
#
# 1 0.010924 -0.005476 -0.003675 0.000000 0.000000 0.000000
# 2 -0.005476 0.015588 -0.002839 0.000000 0.000000 0.000000
# 3 -0.003675 -0.002839 0.011511 0.000000 0.000000 0.000000
# 4 0.000000 0.000000 0.000000 0.040501 0.000000 0.000000
# 5 0.000000 0.000000 0.000000 0.000000 0.024206 0.000000
# 6 0.000000 0.000000 0.000000 0.000000 0.000000 0.061272
#
#
# Mechanical properties :
#
#
# Convention : Reuss Voigt Hill
#
# Bulk Modulus (GPa) = 71.20356 75.67254 73.43805
# Shear Modulus (GPa) = 25.95193 29.02416 27.48805
#
# Velocity S-wave (km/s) = 3.86390 4.08621 3.97661
# Velocity P-wave (km/s) = 7.80183 8.11147 7.95816
#
# Compressibility (1/GPa) = 0.01404424
#
# Stress axis : x y z
#
# Youngs Moduli (GPa) = 91.54156 64.14986 86.87020
#
# Poissons Ratio (x) = 0.35126 0.31923
# Poissons Ratio (y) = 0.50124 0.24666
# Poissons Ratio (z) = 0.33640 0.18215
#
# Static dielectric constant tensor:
#      x y z
#    x 1.612420 0.000000 0.000000 
#    y 0.000000 1.577070 0.000000 
#    z 0.000000 0.000000 1.717950 
# 
# From -- ./inp_files/28095.got.cif
#   From: 2010.05.17/outbox.cif.g08.bks.cpg/sg21_15_cif.got.tgz:28095.got - 2010.06.03 23:14:55.
