data_PCOD9323339
_publ_section_title
;
Structure prediction by ZEFSAII (Michael W. Deem and Ramdas Pophale) SiO2 
 PCOD9323339
Probable space group: C 2 2 2
;
_chemical_formula_sum "Si O2"
_cell_formula_units_Z 32
_cell_length_a 7.830981
_cell_length_b 14.848491
_cell_length_c 11.153297
_cell_angle_alpha 90.000000
_cell_angle_beta 90.000000
_cell_angle_gamma 90.000000
_cell_volume 1296.885867
_symmetry_space_group_name_H-M "C 2 2 2"
_symmetry_group_IT_number 21
_symmetry_cell_setting 'orthorhombic'
loop_
_space_group_symop_operation_xyz
x,y,z
-x,-y,z
x,-y,-z
-x,y,-z
1/2+x,1/2+y,z
1/2-x,1/2-y,z
1/2+x,1/2-y,-z
1/2-x,1/2+y,-z
loop_
_atom_site_type_symbol
_atom_site_label
_atom_site_fract_x
_atom_site_fract_y
_atom_site_fract_z
Si Si1 0.333493 0.880282 0.741597
Si Si2 0.500121 0.279794 0.359240
Si Si3 0.818253 0.055546 0.250205
Si Si4 0.705211 0.647292 0.990638
O O1 0.490258 0.815661 0.708982
O O2 0.172577 0.831372 0.678841
O O3 0.295251 0.875104 0.883846
O O4 0.314486 0.982904 0.699751
O O5 0.500000 0.263485 0.500000
O O6 0.641727 0.352821 0.321368
O O7 0.753477 0.082437 0.118636
O O8 0.000000 0.000000 0.240174
O O9 0.750000 0.750000 0.960838
O O10 0.500000 0.641771 0.000000
#
# Coordination Sequence:
#
# PCOD9323339 Si02
#       4
#     8   8   8   8
#     4  10  20  37  62  99 129 166 232 290 328 415
#     4  10  20  38  61  92 134 177 224 283 338 391
#     4  10  20  35  67 100 125 171 230 270 346 424
#     4  12  20  37  65 103 140 175 218 287 361 425
#
# _framework density 24.674489999999999
#
# number of rings (size 3 to 8) (size 9 to 14) (size 15 to 20)
#    0.000    1.500    7.500    0.750    0.000    4.500 
#    4.500    0.000    0.000   13.500    0.000    0.000 
#    0.000    0.000    0.000    0.000    0.000    0.000 
#
# Total GULP energy -89536.660233 kJ/mol
# GULP energy per Si atom -5596.041265 kJ/mol
# Density = 2.461833 g / cm^3
# Si number density = 24.674490 Si / 1000 Ang^3
#
#
#
# Elastic Constant Matrix: (Units=GPa)
#
#
# Indices 1 2 3 4 5 6 
#
# 1 108.2792 54.8153 25.6101 0.0000 0.0000 0.0000
# 2 54.8153 229.4776 61.9691 0.0000 0.0000 0.0000
# 3 25.6101 61.9691 142.1818 0.0000 0.0000 0.0000
# 4 0.0000 0.0000 0.0000 37.3645 0.0000 0.0000
# 5 0.0000 0.0000 0.0000 0.0000 -94.3735 0.0000
# 6 0.0000 0.0000 0.0000 0.0000 0.0000 25.2189
#
#
#
# Elastic Compliance Matrix: (Units=1/GPa)
#
#
# Indices 1 2 3 4 5 6 
#
# 1 0.010610 -0.002287 -0.000914 0.000000 0.000000 0.000000
# 2 -0.002287 0.005432 -0.001956 0.000000 0.000000 0.000000
# 3 -0.000914 -0.001956 0.008050 0.000000 0.000000 0.000000
# 4 0.000000 0.000000 0.000000 0.026763 0.000000 0.000000
# 5 0.000000 0.000000 0.000000 0.000000 -0.010596 0.000000
# 6 0.000000 0.000000 0.000000 0.000000 0.000000 0.039653
#
#
# Mechanical properties :
#
#
# Convention : Reuss Voigt Hill
#
# Bulk Modulus (GPa) = 72.58033 84.96972 78.77503
# Shear Modulus (GPa) = 52.73217 16.14492 34.43855
#
# Velocity S-wave (km/s) = 4.62791 2.56074 3.73998
# Velocity P-wave (km/s) = 7.61812 6.57679 7.11653
#
# Compressibility (1/GPa) = 0.01377784
#
# Stress axis : x y z
#
# Youngs Moduli (GPa) = 94.25442 184.08656 124.22031
#
# Poissons Ratio (x) = 0.42109 0.11354
# Poissons Ratio (y) = 0.21561 0.24292
# Poissons Ratio (z) = 0.08615 0.36000
#
# Static dielectric constant tensor:
#      x y z
#    x 1.874070 0.000000 0.000000 
#    y 0.000000 1.987170 0.000000 
#    z 0.000000 0.000000 1.890150 
# 
# From -- ./inp_files/21839.got.cif
#   From: 2010.05.17/outbox.cif.g08.bks.cpg/sg21_11_cif.got.tgz:21839.got - 2010.06.03 23:14:55.
