data_PCOD9323298
_publ_section_title
;
Structure prediction by ZEFSAII (Michael W. Deem and Ramdas Pophale) SiO2 
 PCOD9323298
Probable space group: C 2 2 2
;
_chemical_formula_sum "Si O2"
_cell_formula_units_Z 64
_cell_length_a 31.232152
_cell_length_b 8.625153
_cell_length_c 12.687639
_cell_angle_alpha 90.000000
_cell_angle_beta 90.000000
_cell_angle_gamma 90.000000
_cell_volume 3417.822705
_symmetry_space_group_name_H-M "C 2 2 2"
_symmetry_group_IT_number 21
_symmetry_cell_setting 'orthorhombic'
loop_
_space_group_symop_operation_xyz
x,y,z
-x,-y,z
x,-y,-z
-x,y,-z
1/2+x,1/2+y,z
1/2-x,1/2-y,z
1/2+x,1/2-y,-z
1/2-x,1/2+y,-z
loop_
_atom_site_type_symbol
_atom_site_label
_atom_site_fract_x
_atom_site_fract_y
_atom_site_fract_z
Si Si1 0.086833 0.325627 0.189789
Si Si2 0.412395 0.815870 0.229208
Si Si3 0.001274 0.186263 0.875816
Si Si4 0.859419 0.329675 0.019904
Si Si5 0.332045 0.646612 0.716081
Si Si6 0.285976 0.628068 0.925065
Si Si7 0.203355 0.319215 0.471820
Si Si8 0.371208 0.622191 0.417014
O O1 0.084586 0.497324 0.239853
O O2 0.040311 0.250271 0.184329
O O3 0.123337 0.225622 0.247819
O O4 0.102765 0.330574 0.067625
O O5 0.456238 0.750632 0.179743
O O6 0.377036 0.799664 0.136258
O O7 0.399648 0.720996 0.334439
O O8 0.000000 0.000000 0.872630
O O9 0.000000 0.232713 0.000000
O O10 0.839973 0.500000 0.000000
O O11 0.824819 0.203357 0.990092
O O12 0.306736 0.582002 0.815618
O O13 0.305254 0.773866 0.650416
O O14 0.342270 0.498933 0.646274
O O15 0.250000 0.750000 0.899914
O O16 0.266642 0.500000 0.000000
O O17 0.203314 0.500000 0.500000
O O18 0.250000 0.250000 0.501593
O O19 0.162328 0.238479 0.527420
O O20 0.393452 0.500000 0.500000
#
# Coordination Sequence:
#
# PCOD9323298 Si02
#       8
#     8   8   8   8   8   8   8   8
#     4  10  20  35  57  88 118 155 195 241 292 359
#     4  11  20  36  59  83 120 159 195 242 299 352
#     4  11  22  34  55  89 125 161 199 245 294 358
#     4   9  19  34  53  78 112 149 189 232 284 344
#     4  10  21  39  60  82 115 151 194 246 305 358
#     4  11  22  35  52  76 111 152 192 231 281 352
#     4  11  22  40  64  90 115 147 198 260 309 354
#     4  10  22  39  60  88 116 153 199 250 306 362
#
# _framework density 18.725370999999999
#
# number of rings (size 3 to 8) (size 9 to 14) (size 15 to 20)
#    0.000    1.625    1.250    4.500    0.000    1.500 
#    0.000    6.250    0.000    8.625    0.000   11.375 
#    0.000    0.000    0.000    0.000    0.000    0.000 
#
# Total GULP energy -178458.265628 kJ/mol
# GULP energy per Si atom -5576.820801 kJ/mol
# Density = 1.868275 g / cm^3
# Si number density = 18.725371 Si / 1000 Ang^3
#
#
#
# Elastic Constant Matrix: (Units=GPa)
#
#
# Indices 1 2 3 4 5 6 
#
# 1 65.3355 12.8250 23.1248 0.0000 0.0000 0.0000
# 2 12.8250 71.8013 25.3641 0.0000 0.0000 0.0000
# 3 23.1248 25.3641 80.8986 0.0000 0.0000 0.0000
# 4 0.0000 0.0000 0.0000 26.7063 0.0000 0.0000
# 5 0.0000 0.0000 0.0000 0.0000 57.9618 0.0000
# 6 0.0000 0.0000 0.0000 0.0000 0.0000 38.2684
#
#
#
# Elastic Compliance Matrix: (Units=1/GPa)
#
#
# Indices 1 2 3 4 5 6 
#
# 1 0.017171 -0.001499 -0.004438 0.000000 0.000000 0.000000
# 2 -0.001499 0.015793 -0.004523 0.000000 0.000000 0.000000
# 3 -0.004438 -0.004523 0.015048 0.000000 0.000000 0.000000
# 4 0.000000 0.000000 0.000000 0.037444 0.000000 0.000000
# 5 0.000000 0.000000 0.000000 0.000000 0.017253 0.000000
# 6 0.000000 0.000000 0.000000 0.000000 0.000000 0.026131
#
#
# Mechanical properties :
#
#
# Convention : Reuss Voigt Hill
#
# Bulk Modulus (GPa) = 36.91297 37.85147 37.38222
# Shear Modulus (GPa) = 31.48796 35.03539 33.26168
#
# Velocity S-wave (km/s) = 4.10514 4.33021 4.21918
# Velocity P-wave (km/s) = 6.49809 6.72747 6.61378
#
# Compressibility (1/GPa) = 0.02709075
#
# Stress axis : x y z
#
# Youngs Moduli (GPa) = 58.23861 63.31971 66.45447
#
# Poissons Ratio (x) = 0.09493 0.29494
# Poissons Ratio (y) = 0.08731 0.30057
# Poissons Ratio (z) = 0.25847 0.28639
#
# Static dielectric constant tensor:
#      x y z
#    x 1.620310 0.000000 0.000000 
#    y 0.000000 1.668040 0.000000 
#    z 0.000000 0.000000 1.628950 
# 
# From -- ./inp_files/28078.got.cif
#   From: 2010.05.17/outbox.cif.g08.bks.cpg/sg21_15_cif.got.tgz:28078.got - 2010.06.03 23:14:55.
