data_PCOD9323778
_publ_section_title
;
Structure prediction by ZEFSAII (Michael W. Deem and Ramdas Pophale) SiO2 
 PCOD9323778
Probable space group: C 2 2 2
;
_chemical_formula_sum "Si O2"
_cell_formula_units_Z 42
_cell_length_a 23.322324
_cell_length_b 8.780004
_cell_length_c 11.232924
_cell_angle_alpha 90.000000
_cell_angle_beta 90.000000
_cell_angle_gamma 90.000000
_cell_volume 2300.166948
_symmetry_space_group_name_H-M "C 2 2 2"
_symmetry_group_IT_number 21
_symmetry_cell_setting 'orthorhombic'
loop_
_space_group_symop_operation_xyz
x,y,z
-x,-y,z
x,-y,-z
-x,y,-z
1/2+x,1/2+y,z
1/2-x,1/2-y,z
1/2+x,1/2-y,-z
1/2-x,1/2+y,-z
loop_
_atom_site_type_symbol
_atom_site_label
_atom_site_fract_x
_atom_site_fract_y
_atom_site_fract_z
Si Si1 0.856609 0.445207 0.868213
Si Si2 0.336016 0.534612 0.635381
Si Si3 0.809496 0.288600 0.284078
Si Si4 0.750000 0.750000 0.214992
Si Si5 0.909536 0.688049 0.348177
Si Si6 0.000000 0.500000 0.500000
Si Si7 0.682645 0.000000 0.500000
O O1 0.846068 0.597927 0.793405
O O2 0.797598 0.345249 0.858848
O O3 0.903729 0.353778 0.791023
O O4 0.870461 0.500000 0.000000
O O5 0.319328 0.500000 0.500000
O O6 0.341624 0.368407 0.692120
O O7 0.286955 0.633100 0.703170
O O8 0.394084 0.634594 0.637365
O O9 0.750000 0.250000 0.220570
O O10 0.791950 0.380175 0.405112
O O11 0.856178 0.606507 0.415716
O O12 0.962671 0.611244 0.415271
#
# Coordination Sequence:
#
# PCOD9323778 Si02
#       7
#     8   8   8   4   8   2   4
#     4  10  22  37  53  78 122 158 209 241 274 347
#     4  11  21  31  52  84 125 151 191 242 295 359
#     4  11  21  29  50  79 116 163 195 230 284 340
#     4  10  22  32  48  82 116 170 204 220 284 352
#     4   9  20  37  58  84 107 149 188 248 307 359
#     4  10  20  44  72  84 120 142 192 266 330 372
#     4   9  18  31  48  74 110 138 182 235 293 352
#
# _framework density 18.259544999999999
#
# number of rings (size 3 to 8) (size 9 to 14) (size 15 to 20)
#    0.000    1.905    3.810    0.000    4.000    0.000 
#    3.429    3.810    0.000    0.000    0.000    0.000 
#   11.429    0.000    0.000    0.000    0.000    0.000 
#
# Total GULP energy -117012.715754 kJ/mol
# GULP energy per Si atom -5572.034084 kJ/mol
# Density = 1.821799 g / cm^3
# Si number density = 18.259545 Si / 1000 Ang^3
#
#
#
# Elastic Constant Matrix: (Units=GPa)
#
#
# Indices 1 2 3 4 5 6 
#
# 1 54.6587 28.4242 18.0686 0.0000 0.0000 0.0000
# 2 28.4242 142.0520 33.0726 0.0000 0.0000 0.0000
# 3 18.0686 33.0726 109.6442 0.0000 0.0000 0.0000
# 4 0.0000 0.0000 0.0000 20.1311 0.0000 0.0000
# 5 0.0000 0.0000 0.0000 0.0000 13.2243 0.0000
# 6 0.0000 0.0000 0.0000 0.0000 0.0000 20.8851
#
#
#
# Elastic Compliance Matrix: (Units=1/GPa)
#
#
# Indices 1 2 3 4 5 6 
#
# 1 0.020971 -0.003648 -0.002356 0.000000 0.000000 0.000000
# 2 -0.003648 0.008206 -0.001874 0.000000 0.000000 0.000000
# 3 -0.002356 -0.001874 0.010074 0.000000 0.000000 0.000000
# 4 0.000000 0.000000 0.000000 0.049674 0.000000 0.000000
# 5 0.000000 0.000000 0.000000 0.000000 0.075618 0.000000
# 6 0.000000 0.000000 0.000000 0.000000 0.000000 0.047881
#
#
# Mechanical properties :
#
#
# Convention : Reuss Voigt Hill
#
# Bulk Modulus (GPa) = 42.56059 51.72062 47.14061
# Shear Modulus (GPa) = 21.18542 25.96740 23.57641
#
# Velocity S-wave (km/s) = 3.40992 3.77520 3.59720
# Velocity P-wave (km/s) = 6.23400 6.88401 6.56705
#
# Compressibility (1/GPa) = 0.02349592
#
# Stress axis : x y z
#
# Youngs Moduli (GPa) = 47.68488 121.86333 99.26673
#
# Poissons Ratio (x) = 0.44454 0.23383
# Poissons Ratio (y) = 0.17395 0.18603
# Poissons Ratio (z) = 0.11232 0.22838
#
# Static dielectric constant tensor:
#      x y z
#    x 1.674130 0.000000 0.000000 
#    y 0.000000 1.736200 0.000000 
#    z 0.000000 0.000000 1.667030 
# 
# From -- ./inp_files/27704.got.cif
#   From: 2010.05.17/outbox.cif.g08.bks.cpg/sg21_14_cif.got.tgz:27704.got - 2010.06.03 23:14:55.
