data_PCOD9323838
_publ_section_title
;
Structure prediction by ZEFSAII (Michael W. Deem and Ramdas Pophale) SiO2 
 PCOD9323838
Probable space group: C 2 2 2
;
_chemical_formula_sum "Si O2"
_cell_formula_units_Z 64
_cell_length_a 16.217380
_cell_length_b 21.090647
_cell_length_c 9.200891
_cell_angle_alpha 90.000000
_cell_angle_beta 90.000000
_cell_angle_gamma 90.000000
_cell_volume 3147.027092
_symmetry_space_group_name_H-M "C 2 2 2"
_symmetry_group_IT_number 21
_symmetry_cell_setting 'orthorhombic'
loop_
_space_group_symop_operation_xyz
x,y,z
-x,-y,z
x,-y,-z
-x,y,-z
1/2+x,1/2+y,z
1/2-x,1/2-y,z
1/2+x,1/2-y,-z
1/2-x,1/2+y,-z
loop_
_atom_site_type_symbol
_atom_site_label
_atom_site_fract_x
_atom_site_fract_y
_atom_site_fract_z
Si Si1 0.917326 0.896560 0.403050
Si Si2 0.221750 0.116545 0.882946
Si Si3 0.106531 0.770050 0.205887
Si Si4 0.832277 0.707332 0.052909
Si Si5 0.420962 0.568438 0.924883
Si Si6 0.423879 0.255197 0.321983
Si Si7 0.680225 0.800562 0.544710
Si Si8 0.257485 0.436193 0.576832
O O1 0.929271 0.932404 0.248901
O O2 0.889795 0.826039 0.353044
O O3 0.847596 0.926415 0.504955
O O4 0.000000 0.892901 0.500000
O O5 0.162680 0.167002 0.796197
O O6 0.301403 0.145199 0.966524
O O7 0.239446 0.065589 0.754354
O O8 0.163321 0.097727 0.017490
O O9 0.102411 0.745369 0.043679
O O10 0.161687 0.718609 0.290355
O O11 0.016360 0.771364 0.273130
O O12 0.750000 0.750000 0.058480
O O13 0.873808 0.711393 0.208820
O O14 0.419595 0.500000 0.000000
O O15 0.500000 0.602501 0.000000
O O16 0.405004 0.216582 0.466860
O O17 0.750000 0.750000 0.493455
O O18 0.707857 0.872577 0.533750
O O19 0.224459 0.500000 0.500000
#
# Coordination Sequence:
#
# PCOD9323838 Si02
#       8
#     8   8   8   8   8   8   8   8
#     4  12  24  40  64  96 135 181 219 273 335 403
#     4  11  21  41  63  89 131 177 220 268 335 401
#     4  11  20  38  61  90 123 171 208 268 330 403
#     4  10  21  35  58  89 130 166 204 267 331 396
#     4  11  24  40  58  89 135 180 225 267 320 402
#     4  12  23  35  62  98 130 159 217 277 343 392
#     4  12  21  40  62  90 129 162 214 277 331 392
#     4  12  25  41  64  92 129 176 226 272 334 408
#
# _framework density 20.336653999999999
#
# number of rings (size 3 to 8) (size 9 to 14) (size 15 to 20)
#    0.000    0.625    3.750    6.750    1.750    1.250 
#    0.000    0.000    0.000    1.500    0.000    0.000 
#    0.000    0.000    0.000    0.000    0.000    0.000 
#
# Total GULP energy -178436.625003 kJ/mol
# GULP energy per Si atom -5576.144531 kJ/mol
# Density = 2.029037 g / cm^3
# Si number density = 20.336654 Si / 1000 Ang^3
#
#
#
# Elastic Constant Matrix: (Units=GPa)
#
#
# Indices 1 2 3 4 5 6 
#
# 1 55.2620 16.8616 13.8170 0.0000 0.0000 0.0000
# 2 16.8616 82.6725 21.0481 0.0000 0.0000 0.0000
# 3 13.8170 21.0481 121.0895 0.0000 0.0000 0.0000
# 4 0.0000 0.0000 0.0000 21.2022 0.0000 0.0000
# 5 0.0000 0.0000 0.0000 0.0000 38.7543 0.0000
# 6 0.0000 0.0000 0.0000 0.0000 0.0000 17.5803
#
#
#
# Elastic Compliance Matrix: (Units=1/GPa)
#
#
# Indices 1 2 3 4 5 6 
#
# 1 0.019593 -0.003586 -0.001612 0.000000 0.000000 0.000000
# 2 -0.003586 0.013312 -0.001905 0.000000 0.000000 0.000000
# 3 -0.001612 -0.001905 0.008773 0.000000 0.000000 0.000000
# 4 0.000000 0.000000 0.000000 0.047165 0.000000 0.000000
# 5 0.000000 0.000000 0.000000 0.000000 0.025804 0.000000
# 6 0.000000 0.000000 0.000000 0.000000 0.000000 0.056882
#
#
# Mechanical properties :
#
#
# Convention : Reuss Voigt Hill
#
# Bulk Modulus (GPa) = 36.39958 40.27525 38.33741
# Shear Modulus (GPa) = 25.65523 29.32718 27.49120
#
# Velocity S-wave (km/s) = 3.55565 3.80160 3.68068
# Velocity P-wave (km/s) = 5.89866 6.25434 6.07910
#
# Compressibility (1/GPa) = 0.02747285
#
# Stress axis : x y z
#
# Youngs Moduli (GPa) = 51.03921 75.11914 113.98037
#
# Poissons Ratio (x) = 0.26934 0.18378
# Poissons Ratio (y) = 0.18300 0.21711
# Poissons Ratio (z) = 0.08230 0.14309
#
# Static dielectric constant tensor:
#      x y z
#    x 1.777720 0.000000 0.000000 
#    y 0.000000 1.831460 0.000000 
#    z 0.000000 0.000000 1.818550 
# 
# From -- ./inp_files/16859.got.cif
#   From: 2010.05.17/outbox.cif.g08.bks.cpg/sg21_9_cif.got.tgz:16859.got - 2010.06.03 23:14:55.
