data_PCOD9323440
_publ_section_title
;
Structure prediction by ZEFSAII (Michael W. Deem and Ramdas Pophale) SiO2 
 PCOD9323440
Probable space group: C 2 2 2
;
_chemical_formula_sum "Si O2"
_cell_formula_units_Z 44
_cell_length_a 5.452145
_cell_length_b 27.125572
_cell_length_c 14.532769
_cell_angle_alpha 90.000000
_cell_angle_beta 90.000000
_cell_angle_gamma 90.000000
_cell_volume 2149.288291
_symmetry_space_group_name_H-M "C 2 2 2"
_symmetry_group_IT_number 21
_symmetry_cell_setting 'orthorhombic'
loop_
_space_group_symop_operation_xyz
x,y,z
-x,-y,z
x,-y,-z
-x,y,-z
1/2+x,1/2+y,z
1/2-x,1/2-y,z
1/2+x,1/2-y,-z
1/2-x,1/2+y,-z
loop_
_atom_site_type_symbol
_atom_site_label
_atom_site_fract_x
_atom_site_fract_y
_atom_site_fract_z
Si Si1 0.524292 0.941042 0.788045
Si Si2 0.477816 0.441728 0.102525
Si Si3 0.411207 0.837414 0.735398
Si Si4 0.375659 0.300296 0.091301
Si Si5 0.750000 0.250000 0.228978
Si Si6 0.245510 0.190574 0.449951
O O1 0.784615 0.929402 0.836630
O O2 0.498532 0.893631 0.721789
O O3 0.289288 0.933966 0.854618
O O4 0.500000 0.000000 0.759801
O O5 0.500000 0.500000 0.095503
O O6 0.500000 0.422007 0.000000
O O7 0.312026 0.828915 0.840430
O O8 0.598917 0.791870 0.718073
O O9 0.219289 0.827410 0.655070
O O10 0.250000 0.250000 0.057255
O O11 0.578240 0.282130 0.162929
O O12 0.500000 0.322243 0.000000
O O13 0.500000 0.174279 0.500000
O O14 0.250000 0.250000 0.450479
O O15 0.000000 0.173657 0.500000
#
# Coordination Sequence:
#
# PCOD9323440 Si02
#       6
#     8   8   8   8   4   8
#     4  10  22  39  60  88 122 166 214 266 321 372
#     4   9  18  36  57  81 118 164 218 273 316 360
#     4  11  25  38  64  94 126 170 216 263 321 390
#     4  10  20  37  56  83 128 175 214 258 311 376
#     4  10  22  38  60  84 130 170 212 260 310 380
#     4  10  23  41  66  95 128 157 199 260 325 382
#
# _framework density 20.471893999999999
#
# number of rings (size 3 to 8) (size 9 to 14) (size 15 to 20)
#    0.000    2.000    0.909    2.182    8.909    2.909 
#    3.273    0.000    0.000    0.545    0.000    1.273 
#    0.000    0.000    0.000    0.000    0.000    0.000 
#
# Total GULP energy -122480.746192 kJ/mol
# GULP energy per Si atom -5567.306645 kJ/mol
# Density = 2.042530 g / cm^3
# Si number density = 20.471894 Si / 1000 Ang^3
#
#
#
# Elastic Constant Matrix: (Units=GPa)
#
#
# Indices 1 2 3 4 5 6 
#
# 1 52.5455 5.9803 27.6952 0.0000 0.0000 0.0000
# 2 5.9803 122.8470 30.6235 0.0000 0.0000 0.0000
# 3 27.6952 30.6235 70.6407 0.0000 0.0000 0.0000
# 4 0.0000 0.0000 0.0000 9.2739 0.0000 0.0000
# 5 0.0000 0.0000 0.0000 0.0000 28.5266 0.0000
# 6 0.0000 0.0000 0.0000 0.0000 0.0000 23.2035
#
#
#
# Elastic Compliance Matrix: (Units=1/GPa)
#
#
# Indices 1 2 3 4 5 6 
#
# 1 0.024180 0.001330 -0.010057 0.000000 0.000000 0.000000
# 2 0.001330 0.009200 -0.004509 0.000000 0.000000 0.000000
# 3 -0.010057 -0.004509 0.020054 0.000000 0.000000 0.000000
# 4 0.000000 0.000000 0.000000 0.107829 0.000000 0.000000
# 5 0.000000 0.000000 0.000000 0.000000 0.035055 0.000000
# 6 0.000000 0.000000 0.000000 0.000000 0.000000 0.043097
#
#
# Mechanical properties :
#
#
# Convention : Reuss Voigt Hill
#
# Bulk Modulus (GPa) = 37.09031 41.62570 39.35801
# Shear Modulus (GPa) = 18.19014 24.31643 21.25329
#
# Velocity S-wave (km/s) = 2.98408 3.45018 3.22556
# Velocity P-wave (km/s) = 5.47996 6.02071 5.75669
#
# Compressibility (1/GPa) = 0.02696122
#
# Stress axis : x y z
#
# Youngs Moduli (GPa) = 41.35604 108.70040 49.86590
#
# Poissons Ratio (x) = -0.14455 0.50148
# Poissons Ratio (y) = -0.05499 0.22487
# Poissons Ratio (z) = 0.41590 0.49018
#
# Static dielectric constant tensor:
#      x y z
#    x 1.860340 0.000000 0.000000 
#    y 0.000000 1.739450 0.000000 
#    z 0.000000 0.000000 1.726420 
# 
# From -- ./inp_files/29311.got.cif
#   From: 2010.05.17/outbox.cif.g08.bks.cpg/sg21_15_cif.got.tgz:29311.got - 2010.06.03 23:14:55.
