data_PCOD9323950
_publ_section_title
;
Structure prediction by ZEFSAII (Michael W. Deem and Ramdas Pophale) SiO2 
 PCOD9323950
Probable space group: C 2 2 2
;
_chemical_formula_sum "Si O2"
_cell_formula_units_Z 38
_cell_length_a 17.103647
_cell_length_b 19.462517
_cell_length_c 5.402103
_cell_angle_alpha 90.000000
_cell_angle_beta 90.000000
_cell_angle_gamma 90.000000
_cell_volume 1798.252157
_symmetry_space_group_name_H-M "C 2 2 2"
_symmetry_group_IT_number 21
_symmetry_cell_setting 'orthorhombic'
loop_
_space_group_symop_operation_xyz
x,y,z
-x,-y,z
x,-y,-z
-x,y,-z
1/2+x,1/2+y,z
1/2-x,1/2-y,z
1/2+x,1/2-y,-z
1/2-x,1/2+y,-z
loop_
_atom_site_type_symbol
_atom_site_label
_atom_site_fract_x
_atom_site_fract_y
_atom_site_fract_z
Si Si1 0.571966 0.125178 0.688048
Si Si2 0.500000 0.500000 0.000000
Si Si3 0.381916 0.572473 0.362025
Si Si4 0.599314 0.000000 0.000000
Si Si5 0.000000 0.265281 0.000000
Si Si6 0.000000 0.821506 0.500000
Si Si7 0.206308 0.425677 0.633547
O O1 0.500000 0.138215 0.500000
O O2 0.653941 0.122534 0.542197
O O3 0.566747 0.182285 0.902098
O O4 0.558097 0.049279 0.801471
O O5 0.442019 0.551117 0.146879
O O6 0.375078 0.500000 0.500000
O O7 0.424957 0.629114 0.527590
O O8 0.294159 0.595862 0.299196
O O9 0.654568 0.055877 0.130959
O O10 0.984899 0.220441 0.246315
O O11 0.211821 0.500000 0.500000
#
# Coordination Sequence:
#
# PCOD9323950 Si02
#       7
#     8   2   8   4   4   4   8
#     4  11  23  43  68  97 140 183 236 296 360 426
#     4  12  18  36  70 110 146 188 220 314 376 446
#     4  11  22  41  70 106 139 178 238 301 371 426
#     4  10  21  37  69 105 132 180 224 298 376 419
#     4  12  27  45  69  94 139 190 250 278 340 439
#     4  12  25  46  70  99 134 198 236 290 344 429
#     4   9  21  38  63 104 141 172 226 302 365 427
#
# _framework density 21.131630999999999
#
# number of rings (size 3 to 8) (size 9 to 14) (size 15 to 20)
#    0.000    1.263    3.158    2.526    0.000   10.105 
#    0.000    1.053    4.632    0.000    0.000    0.000 
#    0.000    0.000    0.000    0.000    0.000    0.000 
#
# Total GULP energy -105958.232395 kJ/mol
# GULP energy per Si atom -5576.749073 kJ/mol
# Density = 2.108353 g / cm^3
# Si number density = 21.131631 Si / 1000 Ang^3
#
#
#
# Elastic Constant Matrix: (Units=GPa)
#
#
# Indices 1 2 3 4 5 6 
#
# 1 122.1987 47.9599 48.9585 0.0000 0.0000 0.0000
# 2 47.9599 94.0160 44.3525 0.0000 0.0000 0.0000
# 3 48.9585 44.3525 110.5655 0.0000 0.0000 0.0000
# 4 0.0000 0.0000 0.0000 47.0705 0.0000 0.0000
# 5 0.0000 0.0000 0.0000 0.0000 -9.1528 0.0000
# 6 0.0000 0.0000 0.0000 0.0000 0.0000 5.2453
#
#
#
# Elastic Compliance Matrix: (Units=1/GPa)
#
#
# Indices 1 2 3 4 5 6 
#
# 1 0.011111 -0.004128 -0.003264 0.000000 0.000000 0.000000
# 2 -0.004128 0.014653 -0.004050 0.000000 0.000000 0.000000
# 3 -0.003264 -0.004050 0.012114 0.000000 0.000000 0.000000
# 4 0.000000 0.000000 0.000000 0.021245 0.000000 0.000000
# 5 0.000000 0.000000 0.000000 0.000000 -0.109257 0.000000
# 6 0.000000 0.000000 0.000000 0.000000 0.000000 0.190648
#
#
# Mechanical properties :
#
#
# Convention : Reuss Voigt Hill
#
# Bulk Modulus (GPa) = 66.69299 67.70244 67.19771
# Shear Modulus (GPa) = 29.69159 20.99989 25.34574
#
# Velocity S-wave (km/s) = 3.75250 3.15582 3.46702
# Velocity P-wave (km/s) = 7.09960 6.73698 6.92067
#
# Compressibility (1/GPa) = 0.01499408
#
# Stress axis : x y z
#
# Youngs Moduli (GPa) = 89.99756 68.24531 82.54683
#
# Poissons Ratio (x) = 0.28174 0.26944
# Poissons Ratio (y) = 0.37154 0.33431
# Poissons Ratio (z) = 0.29376 0.27639
#
# Static dielectric constant tensor:
#      x y z
#    x 1.820680 0.000000 0.000000 
#    y 0.000000 1.792030 0.000000 
#    z 0.000000 0.000000 1.874720 
# 
# From -- ./inp_files/4871.got.cif
#   From: 2010.05.17/outbox.cif.g08.bks.cpg/sg21_3_cif.got.tgz:4871.got - 2010.06.03 23:14:55.
