data_PCOD9323381
_publ_section_title
;
Structure prediction by ZEFSAII (Michael W. Deem and Ramdas Pophale) SiO2 
 PCOD9323381
Probable space group: C 2 2 2
;
_chemical_formula_sum "Si O2"
_cell_formula_units_Z 36
_cell_length_a 23.696011
_cell_length_b 5.214381
_cell_length_c 15.871125
_cell_angle_alpha 90.000000
_cell_angle_beta 90.000000
_cell_angle_gamma 90.000000
_cell_volume 1961.036674
_symmetry_space_group_name_H-M "C 2 2 2"
_symmetry_group_IT_number 21
_symmetry_cell_setting 'orthorhombic'
loop_
_space_group_symop_operation_xyz
x,y,z
-x,-y,z
x,-y,-z
-x,y,-z
1/2+x,1/2+y,z
1/2-x,1/2-y,z
1/2+x,1/2-y,-z
1/2-x,1/2+y,-z
loop_
_atom_site_type_symbol
_atom_site_label
_atom_site_fract_x
_atom_site_fract_y
_atom_site_fract_z
Si Si1 0.750000 0.250000 0.649298
Si Si2 0.000000 0.500000 0.000000
Si Si3 0.964658 0.741516 0.163496
Si Si4 0.191281 0.500000 0.500000
Si Si5 0.373010 0.743074 0.702726
Si Si6 0.099756 0.248176 0.597018
Si Si7 0.000000 0.500000 0.500000
O O1 0.770435 0.460610 0.581536
O O2 0.694168 0.307851 0.702443
O O3 0.036529 0.328395 0.064211
O O4 0.904963 0.763698 0.208700
O O5 0.000000 0.500000 0.201100
O O6 0.000000 0.000000 0.175554
O O7 0.147759 0.274465 0.524598
O O8 0.399229 0.520627 0.644184
O O9 0.384594 0.020164 0.661070
O O10 0.040497 0.322270 0.555990
#
# Coordination Sequence:
#
# PCOD9323381 Si02
#       7
#     4   2   8   4   8   8   2
#     4  10  20  36  60  80 116 158 210 252 284 336
#     4   8  22  38  66  92 114 154 178 220 300 378
#     4  10  21  38  62  92 118 146 182 234 291 368
#     4   9  18  35  54  76 113 160 219 240 282 326
#     4  11  23  37  58  86 115 152 194 249 296 340
#     4  10  23  36  53  81 114 160 202 248 298 340
#     4  10  24  36  52  78 120 164 202 254 306 364
#
# _framework density 18.357638999999999
#
# number of rings (size 3 to 8) (size 9 to 14) (size 15 to 20)
#    0.667    1.333    0.000    3.000    4.667   10.667 
#    0.000    0.000    0.000    0.000    5.778    0.000 
#    0.000    0.000    0.000    0.000    0.000    0.000 
#
# Total GULP energy -100407.880843 kJ/mol
# GULP energy per Si atom -5578.215602 kJ/mol
# Density = 1.831586 g / cm^3
# Si number density = 18.357639 Si / 1000 Ang^3
#
#
#
# Elastic Constant Matrix: (Units=GPa)
#
#
# Indices 1 2 3 4 5 6 
#
# 1 157.1790 21.1216 69.4170 0.0000 0.0000 0.0000
# 2 21.1216 95.6509 26.6089 0.0000 0.0000 0.0000
# 3 69.4170 26.6089 103.8868 0.0000 0.0000 0.0000
# 4 0.0000 0.0000 0.0000 5.8311 0.0000 0.0000
# 5 0.0000 0.0000 0.0000 0.0000 49.7294 0.0000
# 6 0.0000 0.0000 0.0000 0.0000 0.0000 11.5469
#
#
#
# Elastic Compliance Matrix: (Units=1/GPa)
#
#
# Indices 1 2 3 4 5 6 
#
# 1 0.009036 -0.000340 -0.005951 0.000000 0.000000 0.000000
# 2 -0.000340 0.011270 -0.002659 0.000000 0.000000 0.000000
# 3 -0.005951 -0.002659 0.014283 0.000000 0.000000 0.000000
# 4 0.000000 0.000000 0.000000 0.171493 0.000000 0.000000
# 5 0.000000 0.000000 0.000000 0.000000 0.020109 0.000000
# 6 0.000000 0.000000 0.000000 0.000000 0.000000 0.086603
#
#
# Mechanical properties :
#
#
# Convention : Reuss Voigt Hill
#
# Bulk Modulus (GPa) = 59.92067 65.66796 62.79431
# Shear Modulus (GPa) = 14.86959 29.39278 22.13118
#
# Velocity S-wave (km/s) = 2.84913 4.00574 3.47588
# Velocity P-wave (km/s) = 6.59810 7.56596 7.09855
#
# Compressibility (1/GPa) = 0.01668873
#
# Stress axis : x y z
#
# Youngs Moduli (GPa) = 110.66898 88.73468 70.01182
#
# Poissons Ratio (x) = 0.03016 0.41662
# Poissons Ratio (y) = 0.03762 0.18619
# Poissons Ratio (z) = 0.65856 0.23598
#
# Static dielectric constant tensor:
#      x y z
#    x 1.657090 0.000000 0.000000 
#    y 0.000000 1.654390 0.000000 
#    z 0.000000 0.000000 1.640920 
# 
# From -- ./inp_files/33461.got.cif
#   From: 2010.05.17/outbox.cif.g08.bks.cpg/sg21_17_cif.got.tgz:33461.got - 2010.06.03 23:14:55.
