data_PCOD9323166
_publ_section_title
;
Structure prediction by ZEFSAII (Michael W. Deem and Ramdas Pophale) SiO2 
 PCOD9323166
Probable space group: C 2 2 2
;
_chemical_formula_sum "Si O2"
_cell_formula_units_Z 40
_cell_length_a 28.092918
_cell_length_b 8.017693
_cell_length_c 9.563066
_cell_angle_alpha 90.000000
_cell_angle_beta 90.000000
_cell_angle_gamma 90.000000
_cell_volume 2153.988735
_symmetry_space_group_name_H-M "C 2 2 2"
_symmetry_group_IT_number 21
_symmetry_cell_setting 'orthorhombic'
loop_
_space_group_symop_operation_xyz
x,y,z
-x,-y,z
x,-y,-z
-x,y,-z
1/2+x,1/2+y,z
1/2-x,1/2-y,z
1/2+x,1/2-y,-z
1/2-x,1/2+y,-z
loop_
_atom_site_type_symbol
_atom_site_label
_atom_site_fract_x
_atom_site_fract_y
_atom_site_fract_z
Si Si1 0.697891 0.189772 0.943356
Si Si2 0.948107 0.049772 0.335706
Si Si3 0.304501 0.699511 0.247971
Si Si4 0.615528 0.828810 0.573777
Si Si5 0.644201 0.637373 0.294686
O O1 0.750000 0.250000 0.894284
O O2 0.661596 0.230808 0.819760
O O3 0.687310 0.297714 0.081678
O O4 0.699290 0.000000 0.000000
O O5 0.928415 0.238694 0.347403
O O6 0.948669 0.000000 0.500000
O O7 0.906588 0.946914 0.259613
O O8 0.000000 0.000000 0.280792
O O9 0.250000 0.750000 0.273862
O O10 0.340469 0.830646 0.319056
O O11 0.318551 0.515652 0.300270
O O12 0.635763 0.717066 0.446010
O O13 0.601937 0.000000 0.500000
#
# Coordination Sequence:
#
# PCOD9323166 Si02
#       5
#     8   8   8   8   8
#     4  11  21  34  52  76 106 143 180 214 256 310
#     4   8  16  34  56  77 105 136 172 214 265 318
#     4  10  20  34  51  75 108 146 178 209 257 315
#     4  10  20  33  53  83 109 135 174 221 265 308
#     4  10  20  35  54  78 105 137 177 219 260 310
#
# _framework density 18.570198999999999
#
# number of rings (size 3 to 8) (size 9 to 14) (size 15 to 20)
#    0.000    2.200    0.000    6.000    0.000    2.400 
#    0.000    8.000    0.000    9.600    0.000    5.600 
#    0.000    0.000    0.000    0.000    0.000    0.000 
#
# Total GULP energy -111450.262940 kJ/mol
# GULP energy per Si atom -5572.513147 kJ/mol
# Density = 1.852793 g / cm^3
# Si number density = 18.570199 Si / 1000 Ang^3
#
#
#
# Elastic Constant Matrix: (Units=GPa)
#
#
# Indices 1 2 3 4 5 6 
#
# 1 136.3908 42.4925 41.6587 0.0000 0.0000 0.0000
# 2 42.4925 91.2598 19.9203 0.0000 0.0000 0.0000
# 3 41.6587 19.9203 42.1150 0.0000 0.0000 0.0000
# 4 0.0000 0.0000 0.0000 21.9328 0.0000 0.0000
# 5 0.0000 0.0000 0.0000 0.0000 -7.0592 0.0000
# 6 0.0000 0.0000 0.0000 0.0000 0.0000 13.4725
#
#
#
# Elastic Compliance Matrix: (Units=1/GPa)
#
#
# Indices 1 2 3 4 5 6 
#
# 1 0.011256 -0.003134 -0.009652 0.000000 0.000000 0.000000
# 2 -0.003134 0.013092 -0.003092 0.000000 0.000000 0.000000
# 3 -0.009652 -0.003092 0.034754 0.000000 0.000000 0.000000
# 4 0.000000 0.000000 0.000000 0.045594 0.000000 0.000000
# 5 0.000000 0.000000 0.000000 0.000000 -0.141658 0.000000
# 6 0.000000 0.000000 0.000000 0.000000 0.000000 0.074225
#
#
# Mechanical properties :
#
#
# Convention : Reuss Voigt Hill
#
# Bulk Modulus (GPa) = 36.56821 53.10096 44.83458
# Shear Modulus (GPa) = 63.99094 16.71548 40.35321
#
# Velocity S-wave (km/s) = 5.87654 3.00346 4.66661
# Velocity P-wave (km/s) = 8.11046 6.37844 7.29603
#
# Compressibility (1/GPa) = 0.02734616
#
# Stress axis : x y z
#
# Youngs Moduli (GPa) = 88.83796 76.38184 28.77329
#
# Poissons Ratio (x) = 0.23941 0.27772
# Poissons Ratio (y) = 0.27845 0.08897
# Poissons Ratio (z) = 0.85746 0.23618
#
# Static dielectric constant tensor:
#      x y z
#    x 1.659260 0.000000 0.000000 
#    y 0.000000 1.714740 0.000000 
#    z 0.000000 0.000000 1.632870 
# 
# From -- ./inp_files/11345.got.cif
#   From: 2010.05.17/outbox.cif.g08.bks.cpg/sg21_6_cif.got.tgz:11345.got - 2010.06.03 23:14:55.
