data_PCOD9323424
_publ_section_title
;
Structure prediction by ZEFSAII (Michael W. Deem and Ramdas Pophale) SiO2 
 PCOD9323424
Probable space group: C 2 2 2
;
_chemical_formula_sum "Si O2"
_cell_formula_units_Z 56
_cell_length_a 16.115919
_cell_length_b 20.480628
_cell_length_c 8.224589
_cell_angle_alpha 90.000000
_cell_angle_beta 90.000000
_cell_angle_gamma 90.000000
_cell_volume 2714.641911
_symmetry_space_group_name_H-M "C 2 2 2"
_symmetry_group_IT_number 21
_symmetry_cell_setting 'orthorhombic'
loop_
_space_group_symop_operation_xyz
x,y,z
-x,-y,z
x,-y,-z
-x,y,-z
1/2+x,1/2+y,z
1/2-x,1/2-y,z
1/2+x,1/2-y,-z
1/2-x,1/2+y,-z
loop_
_atom_site_type_symbol
_atom_site_label
_atom_site_fract_x
_atom_site_fract_y
_atom_site_fract_z
Si Si1 0.634028 0.682163 0.309481
Si Si2 0.537800 0.630529 0.826535
Si Si3 0.045869 0.363577 0.858419
Si Si4 0.836970 0.928624 0.571848
Si Si5 0.420539 0.814593 0.612772
Si Si6 0.841978 0.758154 0.954759
Si Si7 0.148190 0.430225 0.579056
O O1 0.540794 0.658739 0.269011
O O2 0.666333 0.624413 0.424616
O O3 0.631657 0.749504 0.407501
O O4 0.669046 0.707984 0.134941
O O5 0.593427 0.586246 0.707608
O O6 0.598321 0.690288 0.868503
O O7 0.500000 0.604405 0.000000
O O8 0.113058 0.311455 0.924517
O O9 0.087341 0.408769 0.723388
O O10 0.968129 0.323182 0.782371
O O11 0.000000 0.402778 0.000000
O O12 0.743039 0.929348 0.639872
O O13 0.853898 0.000000 0.500000
O O14 0.500000 0.809325 0.500000
O O15 0.367356 0.876579 0.561216
O O16 0.750000 0.750000 0.885562
O O17 0.129850 0.500000 0.500000
#
# Coordination Sequence:
#
# PCOD9323424 Si02
#       7
#     8   8   8   8   8   8   8
#     4  11  22  38  64  95 131 167 227 275 325 388
#     4  10  21  42  66  94 131 168 219 277 325 393
#     4  11  20  40  69  94 133 173 220 273 331 394
#     4  11  25  44  65  95 135 180 221 272 333 397
#     4  10  20  36  64  92 130 168 216 275 323 385
#     4  11  22  37  62  99 137 170 217 279 340 390
#     4  10  25  44  63  97 141 173 222 272 327 397
#
# _framework density 20.628869999999999
#
# number of rings (size 3 to 8) (size 9 to 14) (size 15 to 20)
#    0.000    1.429    2.857    2.571    4.000    3.714 
#    0.000    6.429    0.000    6.857    0.000    0.000 
#    0.000    0.000    0.000    0.000    0.000    0.000 
#
# Total GULP energy -156053.938286 kJ/mol
# GULP energy per Si atom -5573.354939 kJ/mol
# Density = 2.058192 g / cm^3
# Si number density = 20.628870 Si / 1000 Ang^3
#
#
#
# Elastic Constant Matrix: (Units=GPa)
#
#
# Indices 1 2 3 4 5 6 
#
# 1 86.3704 28.5526 41.1885 0.0000 0.0000 0.0000
# 2 28.5526 127.0612 39.9074 0.0000 0.0000 0.0000
# 3 41.1885 39.9074 67.9620 0.0000 0.0000 0.0000
# 4 0.0000 0.0000 0.0000 3.6305 0.0000 0.0000
# 5 0.0000 0.0000 0.0000 0.0000 -0.5141 0.0000
# 6 0.0000 0.0000 0.0000 0.0000 0.0000 20.4290
#
#
#
# Elastic Compliance Matrix: (Units=1/GPa)
#
#
# Indices 1 2 3 4 5 6 
#
# 1 0.016333 -0.000688 -0.009495 0.000000 0.000000 0.000000
# 2 -0.000688 0.009679 -0.005266 0.000000 0.000000 0.000000
# 3 -0.009495 -0.005266 0.023561 0.000000 0.000000 0.000000
# 4 0.000000 0.000000 0.000000 0.275446 0.000000 0.000000
# 5 0.000000 0.000000 0.000000 0.000000 -1.945202 0.000000
# 6 0.000000 0.000000 0.000000 0.000000 0.000000 0.048950
#
#
# Mechanical properties :
#
#
# Convention : Reuss Voigt Hill
#
# Bulk Modulus (GPa) = 53.54911 55.63228 54.59070
# Shear Modulus (GPa) = -3.25922 16.15875 6.44977
#
# Velocity S-wave (km/s) = -1.25832 2.80180 1.77013
# Velocity P-wave (km/s) = 4.88912 6.12319 5.54062
#
# Compressibility (1/GPa) = 0.01867445
#
# Stress axis : x y z
#
# Youngs Moduli (GPa) = 61.22396 103.31710 42.44325
#
# Poissons Ratio (x) = 0.07111 0.40299
# Poissons Ratio (y) = 0.04214 0.22352
# Poissons Ratio (z) = 0.58131 0.54411
#
# Static dielectric constant tensor:
#      x y z
#    x 1.731350 0.000000 0.000000 
#    y 0.000000 1.712070 0.000000 
#    z 0.000000 0.000000 1.711180 
# 
# From -- ./inp_files/15261.got.cif
#   From: 2010.05.17/outbox.cif.g08.bks.cpg/sg21_8_cif.got.tgz:15261.got - 2010.06.03 23:14:55.
