data_PCOD9323962
_publ_section_title
;
Structure prediction by ZEFSAII (Michael W. Deem and Ramdas Pophale) SiO2 
 PCOD9323962
Probable space group: C 2 2 2
;
_chemical_formula_sum "Si O2"
_cell_formula_units_Z 56
_cell_length_a 18.856025
_cell_length_b 9.791582
_cell_length_c 15.818838
_cell_angle_alpha 90.000000
_cell_angle_beta 90.000000
_cell_angle_gamma 90.000000
_cell_volume 2920.637043
_symmetry_space_group_name_H-M "C 2 2 2"
_symmetry_group_IT_number 21
_symmetry_cell_setting 'orthorhombic'
loop_
_space_group_symop_operation_xyz
x,y,z
-x,-y,z
x,-y,-z
-x,y,-z
1/2+x,1/2+y,z
1/2-x,1/2-y,z
1/2+x,1/2-y,-z
1/2-x,1/2+y,-z
loop_
_atom_site_type_symbol
_atom_site_label
_atom_site_fract_x
_atom_site_fract_y
_atom_site_fract_z
Si Si1 0.964660 0.355949 0.653645
Si Si2 0.166779 0.958971 0.733148
Si Si3 0.919417 0.151912 0.028321
Si Si4 0.086715 0.763477 0.224463
Si Si5 0.333176 0.760857 0.882059
Si Si6 0.664941 0.982461 0.250264
Si Si7 0.566572 0.584928 0.414719
O O1 0.887309 0.401835 0.686673
O O2 0.958489 0.241643 0.581585
O O3 0.000000 0.500000 0.629632
O O4 0.013481 0.283573 0.728011
O O5 0.126255 0.102476 0.741423
O O6 0.251755 0.972145 0.729013
O O7 0.149571 0.858526 0.812555
O O8 0.133576 0.905326 0.646464
O O9 0.874760 0.249121 0.968360
O O10 0.919824 0.198103 0.125496
O O11 0.000000 0.155301 0.000000
O O12 0.892838 0.000000 0.000000
O O13 0.138452 0.635996 0.240539
O O14 0.250000 0.750000 0.898768
O O15 0.346784 0.904134 0.837522
O O16 0.500000 0.500000 0.376049
O O17 0.581778 0.500000 0.500000
#
# Coordination Sequence:
#
# PCOD9323962 Si02
#       7
#     8   8   8   8   8   8   8
#     4  10  21  40  67  95 132 168 210 262 330 397
#     4  11  21  39  68  89 123 169 216 262 314 397
#     4  11  23  36  57  89 123 158 222 277 314 356
#     4  11  22  38  62  91 126 172 218 267 314 383
#     4  10  21  38  58  87 123 169 209 257 323 379
#     4  10  22  38  63  91 124 171 213 254 327 386
#     4  11  23  40  69  99 124 160 212 264 318 393
#
# _framework density 19.173898999999999
#
# number of rings (size 3 to 8) (size 9 to 14) (size 15 to 20)
#    0.000    1.429    4.286    1.286    0.000    1.714 
#    0.000    2.143    6.286    0.000    0.000    0.000 
#    0.000    0.000    0.000    0.000    0.000    0.000 
#
# Total GULP energy -156055.384265 kJ/mol
# GULP energy per Si atom -5573.406581 kJ/mol
# Density = 1.913026 g / cm^3
# Si number density = 19.173899 Si / 1000 Ang^3
#
#
#
# Elastic Constant Matrix: (Units=GPa)
#
#
# Indices 1 2 3 4 5 6 
#
# 1 66.3355 36.9775 40.6511 0.0000 0.0000 0.0000
# 2 36.9775 117.2456 55.2653 0.0000 0.0000 0.0000
# 3 40.6511 55.2653 97.7187 0.0000 0.0000 0.0000
# 4 0.0000 0.0000 0.0000 40.7472 0.0000 0.0000
# 5 0.0000 0.0000 0.0000 0.0000 20.2205 0.0000
# 6 0.0000 0.0000 0.0000 0.0000 0.0000 -40.4631
#
#
#
# Elastic Compliance Matrix: (Units=1/GPa)
#
#
# Indices 1 2 3 4 5 6 
#
# 1 0.021209 -0.003450 -0.006872 0.000000 0.000000 0.000000
# 2 -0.003450 0.012190 -0.005459 0.000000 0.000000 0.000000
# 3 -0.006872 -0.005459 0.016180 0.000000 0.000000 0.000000
# 4 0.000000 0.000000 0.000000 0.024542 0.000000 0.000000
# 5 0.000000 0.000000 0.000000 0.000000 0.049455 0.000000
# 6 0.000000 0.000000 0.000000 0.000000 0.000000 -0.024714
#
#
# Mechanical properties :
#
#
# Convention : Reuss Voigt Hill
#
# Bulk Modulus (GPa) = 55.50248 60.78750 58.14499
# Shear Modulus (GPa) = 36.64898 13.99464 25.32181
#
# Velocity S-wave (km/s) = 4.37670 2.70456 3.63800
# Velocity P-wave (km/s) = 7.38582 6.44398 6.93092
#
# Compressibility (1/GPa) = 0.01801721
#
# Stress axis : x y z
#
# Youngs Moduli (GPa) = 47.14951 82.03176 61.80594
#
# Poissons Ratio (x) = 0.28300 0.42473
# Poissons Ratio (y) = 0.16266 0.33741
# Poissons Ratio (z) = 0.32401 0.44783
#
# Static dielectric constant tensor:
#      x y z
#    x 1.624080 0.000000 0.000000 
#    y 0.000000 1.717080 0.000000 
#    z 0.000000 0.000000 1.854860 
# 
# From -- ./inp_files/33289.got.cif
#   From: 2010.05.17/outbox.cif.g08.bks.cpg/sg21_17_cif.got.tgz:33289.got - 2010.06.03 23:14:55.
