data_PCOD9323346
_publ_section_title
;
Structure prediction by ZEFSAII (Michael W. Deem and Ramdas Pophale) SiO2 
 PCOD9323346
Probable space group: C 2 2 2
;
_chemical_formula_sum "Si O2"
_cell_formula_units_Z 64
_cell_length_a 17.432161
_cell_length_b 22.439560
_cell_length_c 7.438639
_cell_angle_alpha 90.000000
_cell_angle_beta 90.000000
_cell_angle_gamma 90.000000
_cell_volume 2909.772586
_symmetry_space_group_name_H-M "C 2 2 2"
_symmetry_group_IT_number 21
_symmetry_cell_setting 'orthorhombic'
loop_
_space_group_symop_operation_xyz
x,y,z
-x,-y,z
x,-y,-z
-x,y,-z
1/2+x,1/2+y,z
1/2-x,1/2-y,z
1/2+x,1/2-y,-z
1/2-x,1/2+y,-z
loop_
_atom_site_type_symbol
_atom_site_label
_atom_site_fract_x
_atom_site_fract_y
_atom_site_fract_z
Si Si1 0.660008 0.083778 0.639935
Si Si2 0.682854 0.702058 0.855204
Si Si3 0.536474 0.747378 0.694337
Si Si4 0.717147 0.430376 0.158971
Si Si5 0.436710 0.356430 0.132913
Si Si6 0.172917 0.944413 0.754273
Si Si7 0.010867 0.627337 0.717988
Si Si8 0.622114 0.048575 0.245639
O O1 0.749036 0.085618 0.684932
O O2 0.602515 0.128910 0.736604
O O3 0.650351 0.083486 0.425277
O O4 0.624418 0.020286 0.701796
O O5 0.750000 0.750000 0.895875
O O6 0.625200 0.731092 0.711403
O O7 0.709857 0.637652 0.781016
O O8 0.629802 0.680906 0.025289
O O9 0.500000 0.755681 0.500000
O O10 0.488236 0.694289 0.778210
O O11 0.524719 0.811375 0.784697
O O12 0.684633 0.484561 0.282791
O O13 0.806665 0.441681 0.114481
O O14 0.674072 0.438335 0.971032
O O15 0.400946 0.403018 0.277384
O O16 0.500000 0.386930 0.000000
O O17 0.000000 0.618892 0.500000
O O18 0.960063 0.574576 0.802495
#
# Coordination Sequence:
#
# PCOD9323346 Si02
#       8
#     8   8   8   8   8   8   8   8
#     4   9  17  28  48  74 100 130 167 204 242 292
#     4  10  20  36  56  77 102 137 174 208 251 307
#     4  10  21  36  52  75 106 136 170 215 259 305
#     4   9  18  32  51  74  99 127 164 210 256 300
#     4   9  20  38  56  74 100 134 171 211 259 312
#     4   9  18  34  52  74  99 125 163 213 256 298
#     4   9  17  30  47  69 100 137 169 198 243 299
#     4   9  16  29  48  72 101 133 165 201 243 295
#
# _framework density 21.994845000000002
#
# number of rings (size 3 to 8) (size 9 to 14) (size 15 to 20)
#    0.000    2.750    0.000    1.125    0.000    4.500 
#    0.000   13.125    0.000    3.750    0.000    0.000 
#    0.000    0.000    0.000    0.000    0.000    0.000 
#
# Total GULP energy -178183.504883 kJ/mol
# GULP energy per Si atom -5568.234528 kJ/mol
# Density = 2.194478 g / cm^3
# Si number density = 21.994845 Si / 1000 Ang^3
#
#
#
# Elastic Constant Matrix: (Units=GPa)
#
#
# Indices 1 2 3 4 5 6 
#
# 1 113.7186 51.0876 6.4421 0.0000 0.0000 0.0000
# 2 51.0876 95.5880 1.0143 0.0000 0.0000 0.0000
# 3 6.4421 1.0143 18.1063 0.0000 0.0000 0.0000
# 4 0.0000 0.0000 0.0000 10.9653 0.0000 0.0000
# 5 0.0000 0.0000 0.0000 0.0000 23.0633 0.0000
# 6 0.0000 0.0000 0.0000 0.0000 0.0000 39.9510
#
#
#
# Elastic Compliance Matrix: (Units=1/GPa)
#
#
# Indices 1 2 3 4 5 6 
#
# 1 0.011836 -0.006285 -0.003859 0.000000 0.000000 0.000000
# 2 -0.006285 0.013805 0.001463 0.000000 0.000000 0.000000
# 3 -0.003859 0.001463 0.056521 0.000000 0.000000 0.000000
# 4 0.000000 0.000000 0.000000 0.091197 0.000000 0.000000
# 5 0.000000 0.000000 0.000000 0.000000 0.043359 0.000000
# 6 0.000000 0.000000 0.000000 0.000000 0.000000 0.025031
#
#
# Mechanical properties :
#
#
# Convention : Reuss Voigt Hill
#
# Bulk Modulus (GPa) = 15.43228 38.27787 26.85508
# Shear Modulus (GPa) = 17.81203 26.05385 21.93294
#
# Velocity S-wave (km/s) = 2.84883 3.44545 3.16125
# Velocity P-wave (km/s) = 4.22524 5.76794 5.05578
#
# Compressibility (1/GPa) = 0.06479923
#
# Stress axis : x y z
#
# Youngs Moduli (GPa) = 84.49088 72.43799 17.69268
#
# Poissons Ratio (x) = 0.45525 0.06828
# Poissons Ratio (y) = 0.53100 -0.02588
# Poissons Ratio (z) = 0.32605 -0.10596
#
# Static dielectric constant tensor:
#      x y z
#    x 1.873160 0.000000 0.000000 
#    y 0.000000 1.921150 0.000000 
#    z 0.000000 0.000000 1.911460 
# 
# From -- ./inp_files/15464.got.cif
#   From: 2010.05.17/outbox.cif.g08.bks.cpg/sg21_8_cif.got.tgz:15464.got - 2010.06.03 23:14:55.
