data_PCOD9323983
_publ_section_title
;
Structure prediction by ZEFSAII (Michael W. Deem and Ramdas Pophale) SiO2 
 PCOD9323983
Probable space group: C 2 2 2
;
_chemical_formula_sum "Si O2"
_cell_formula_units_Z 54
_cell_length_a 28.848090
_cell_length_b 5.013351
_cell_length_c 18.092483
_cell_angle_alpha 90.000000
_cell_angle_beta 90.000000
_cell_angle_gamma 90.000000
_cell_volume 2616.636225
_symmetry_space_group_name_H-M "C 2 2 2"
_symmetry_group_IT_number 21
_symmetry_cell_setting 'orthorhombic'
loop_
_space_group_symop_operation_xyz
x,y,z
-x,-y,z
x,-y,-z
-x,y,-z
1/2+x,1/2+y,z
1/2-x,1/2-y,z
1/2+x,1/2-y,-z
1/2-x,1/2+y,-z
loop_
_atom_site_type_symbol
_atom_site_label
_atom_site_fract_x
_atom_site_fract_y
_atom_site_fract_z
Si Si1 0.945816 0.944901 0.686143
Si Si2 0.178247 0.732509 0.549630
Si Si3 0.750000 0.750000 0.946698
Si Si4 0.422825 0.068875 0.398504
Si Si5 0.695665 0.741919 0.276176
Si Si6 0.500000 0.000000 0.500000
Si Si7 0.148850 0.749668 0.054366
Si Si8 0.135897 0.746086 0.216738
O O1 0.935787 0.736880 0.618927
O O2 0.913653 0.802780 0.745907
O O3 0.925024 0.235877 0.670920
O O4 0.000000 0.000000 0.700493
O O5 0.202266 0.500000 0.500000
O O6 0.126724 0.620036 0.566511
O O7 0.196234 0.776875 0.633540
O O8 0.176840 0.000000 0.500000
O O9 0.799230 0.761348 0.909484
O O10 0.751737 0.500000 0.000000
O O11 0.464770 0.166491 0.450014
O O12 0.750000 0.750000 0.252214
O O13 0.668963 0.492736 0.240285
O O14 0.665127 0.994918 0.248723
O O15 0.122097 0.727870 0.130321
O O16 0.144716 0.500000 0.000000
O O17 0.142014 0.000000 0.000000
#
# Coordination Sequence:
#
# PCOD9323983 Si02
#       8
#     8   8   4   8   8   2   8   8
#     4  12  23  42  64  93 127 167 213 267 324 397
#     4  12  24  41  65  86 125 173 224 283 339 389
#     4   8  16  30  50  80 120 154 196 242 302 372
#     4  12  24  38  58  92 127 161 212 269 329 406
#     4  12  27  44  65  95 129 177 234 278 333 400
#     4  12  24  34  60  90 124 170 198 266 360 390
#     4  10  21  38  60  95 131 171 212 261 322 399
#     4  12  24  44  69  94 136 177 217 277 340 399
#
# _framework density 20.637181999999999
#
# number of rings (size 3 to 8) (size 9 to 14) (size 15 to 20)
#    0.000    0.593    5.185    3.111    2.074    1.185 
#    2.667    0.000    0.000    0.444    0.000    1.037 
#    0.000    0.000    0.000    0.000    0.000    0.000 
#
# Total GULP energy -150533.587285 kJ/mol
# GULP energy per Si atom -5575.318048 kJ/mol
# Density = 2.059021 g / cm^3
# Si number density = 20.637182 Si / 1000 Ang^3
#
#
#
# Elastic Constant Matrix: (Units=GPa)
#
#
# Indices 1 2 3 4 5 6 
#
# 1 100.4424 29.0348 27.1083 0.0000 0.0000 0.0000
# 2 29.0348 166.4342 46.6495 0.0000 0.0000 0.0000
# 3 27.1083 46.6495 130.8590 0.0000 0.0000 0.0000
# 4 0.0000 0.0000 0.0000 10.5759 0.0000 0.0000
# 5 0.0000 0.0000 0.0000 0.0000 22.0456 0.0000
# 6 0.0000 0.0000 0.0000 0.0000 0.0000 18.2225
#
#
#
# Elastic Compliance Matrix: (Units=1/GPa)
#
#
# Indices 1 2 3 4 5 6 
#
# 1 0.010832 -0.001401 -0.001745 0.000000 0.000000 0.000000
# 2 -0.001401 0.006856 -0.002154 0.000000 0.000000 0.000000
# 3 -0.001745 -0.002154 0.008771 0.000000 0.000000 0.000000
# 4 0.000000 0.000000 0.000000 0.094555 0.000000 0.000000
# 5 0.000000 0.000000 0.000000 0.000000 0.045360 0.000000
# 6 0.000000 0.000000 0.000000 0.000000 0.000000 0.054877
#
#
# Mechanical properties :
#
#
# Convention : Reuss Voigt Hill
#
# Bulk Modulus (GPa) = 63.04884 67.03566 65.04225
# Shear Modulus (GPa) = 21.08483 29.83166 25.45824
#
# Velocity S-wave (km/s) = 3.19986 3.80614 3.51609
# Velocity P-wave (km/s) = 6.65354 7.20202 6.93320
#
# Compressibility (1/GPa) = 0.01586072
#
# Stress axis : x y z
#
# Youngs Moduli (GPa) = 92.32184 145.84714 114.01062
#
# Poissons Ratio (x) = 0.20428 0.19890
# Poissons Ratio (y) = 0.12931 0.24559
# Poissons Ratio (z) = 0.16106 0.31417
#
# Static dielectric constant tensor:
#      x y z
#    x 1.811650 0.000000 0.000000 
#    y 0.000000 1.742920 0.000000 
#    z 0.000000 0.000000 1.795580 
# 
# From -- ./inp_files/34060.got.cif
#   From: 2010.05.17/outbox.cif.g08.bks.cpg/sg21_18_cif.got.tgz:34060.got - 2010.06.03 23:14:55.
