data_PCOD9323219
_publ_section_title
;
Structure prediction by ZEFSAII (Michael W. Deem and Ramdas Pophale) SiO2 
 PCOD9323219
Probable space group: C 2 2 2
;
_chemical_formula_sum "Si O2"
_cell_formula_units_Z 32
_cell_length_a 15.170525
_cell_length_b 7.933683
_cell_length_c 10.901700
_cell_angle_alpha 90.000000
_cell_angle_beta 90.000000
_cell_angle_gamma 90.000000
_cell_volume 1312.108294
_symmetry_space_group_name_H-M "C 2 2 2"
_symmetry_group_IT_number 21
_symmetry_cell_setting 'orthorhombic'
loop_
_space_group_symop_operation_xyz
x,y,z
-x,-y,z
x,-y,-z
-x,y,-z
1/2+x,1/2+y,z
1/2-x,1/2-y,z
1/2+x,1/2-y,-z
1/2-x,1/2+y,-z
loop_
_atom_site_type_symbol
_atom_site_label
_atom_site_fract_x
_atom_site_fract_y
_atom_site_fract_z
Si Si1 0.279648 0.556682 0.626842
Si Si2 0.154792 0.676703 0.924347
Si Si3 0.848431 0.836872 0.836676
Si Si4 0.091905 0.467911 0.699222
O O1 0.325028 0.500000 0.500000
O O2 0.250000 0.750000 0.622560
O O3 0.333062 0.497229 0.748438
O O4 0.184818 0.462711 0.630754
O O5 0.250000 0.750000 0.890327
O O6 0.103998 0.611772 0.804880
O O7 0.165213 0.500000 0.000000
O O8 0.120385 0.815171 0.021988
O O9 0.750000 0.750000 0.841494
O O10 0.911768 0.712176 0.764272
O O11 0.000000 0.500000 0.634299
#
# Coordination Sequence:
#
# PCOD9323219 Si02
#       4
#     8   8   8   8
#     4  11  22  40  65  89 119 165 220 276 325 384
#     4   9  17  31  54  83 116 155 202 252 301 366
#     4   8  17  34  55  84 117 153 205 253 302 377
#     4  10  20  34  56  90 127 163 204 254 322 391
#
# _framework density 24.388228000000002
#
# number of rings (size 3 to 8) (size 9 to 14) (size 15 to 20)
#    0.000    2.500    0.000    4.500    0.000    5.000 
#    0.000    1.250    0.000    1.500    0.000   73.500 
#    0.000    0.000    0.000    0.000    0.000    0.000 
#
# Total GULP energy -89146.175205 kJ/mol
# GULP energy per Si atom -5571.635950 kJ/mol
# Density = 2.433272 g / cm^3
# Si number density = 24.388228 Si / 1000 Ang^3
#
#
#
# Elastic Constant Matrix: (Units=GPa)
#
#
# Indices 1 2 3 4 5 6 
#
# 1 60.6004 -7.5493 -3.7821 0.0000 0.0000 0.0000
# 2 -7.5493 131.2743 54.6237 0.0000 0.0000 0.0000
# 3 -3.7821 54.6237 167.0322 0.0000 0.0000 0.0000
# 4 0.0000 0.0000 0.0000 31.3554 0.0000 0.0000
# 5 0.0000 0.0000 0.0000 0.0000 -8.6676 0.0000
# 6 0.0000 0.0000 0.0000 0.0000 0.0000 14.4317
#
#
#
# Elastic Compliance Matrix: (Units=1/GPa)
#
#
# Indices 1 2 3 4 5 6 
#
# 1 0.016621 0.000925 0.000074 0.000000 0.000000 0.000000
# 2 0.000925 0.008869 -0.002879 0.000000 0.000000 0.000000
# 3 0.000074 -0.002879 0.006930 0.000000 0.000000 0.000000
# 4 0.000000 0.000000 0.000000 0.031892 0.000000 0.000000
# 5 0.000000 0.000000 0.000000 0.000000 -0.115372 0.000000
# 6 0.000000 0.000000 0.000000 0.000000 0.000000 0.069292
#
#
# Mechanical properties :
#
#
# Convention : Reuss Voigt Hill
#
# Bulk Modulus (GPa) = 34.89228 49.49904 42.19566
# Shear Modulus (GPa) = 158.49094 28.46486 93.47790
#
# Velocity S-wave (km/s) = 8.07018 3.42007 6.19777
# Velocity P-wave (km/s) = 10.05858 5.99468 8.27983
#
# Compressibility (1/GPa) = 0.02865963
#
# Stress axis : x y z
#
# Youngs Moduli (GPa) = 60.16340 112.75252 144.29631
#
# Poissons Ratio (x) = -0.10431 -0.01065
# Poissons Ratio (y) = -0.05566 0.41549
# Poissons Ratio (z) = -0.00444 0.32466
#
# Static dielectric constant tensor:
#      x y z
#    x 1.941780 0.000000 0.000000 
#    y 0.000000 2.030790 0.000000 
#    z 0.000000 0.000000 2.062170 
# 
# From -- ./inp_files/24699.got.cif
#   From: 2010.05.17/outbox.cif.g08.bks.cpg/sg21_13_cif.got.tgz:24699.got - 2010.06.03 23:14:55.
