data_PCOD9323867
_publ_section_title
;
Structure prediction by ZEFSAII (Michael W. Deem and Ramdas Pophale) SiO2 
 PCOD9323867
Probable space group: C 2 2 2
;
_chemical_formula_sum "Si O2"
_cell_formula_units_Z 64
_cell_length_a 22.084848
_cell_length_b 17.040805
_cell_length_c 8.623761
_cell_angle_alpha 90.000000
_cell_angle_beta 90.000000
_cell_angle_gamma 90.000000
_cell_volume 3245.497159
_symmetry_space_group_name_H-M "C 2 2 2"
_symmetry_group_IT_number 21
_symmetry_cell_setting 'orthorhombic'
loop_
_space_group_symop_operation_xyz
x,y,z
-x,-y,z
x,-y,-z
-x,y,-z
1/2+x,1/2+y,z
1/2-x,1/2-y,z
1/2+x,1/2-y,-z
1/2-x,1/2+y,-z
loop_
_atom_site_type_symbol
_atom_site_label
_atom_site_fract_x
_atom_site_fract_y
_atom_site_fract_z
Si Si1 0.646391 0.338839 0.195467
Si Si2 0.825494 0.996180 0.687619
Si Si3 0.933269 0.703481 0.949337
Si Si4 0.436978 0.034304 0.826167
Si Si5 0.814892 0.717756 0.544375
Si Si6 0.811504 0.544487 0.663662
Si Si7 0.661930 0.187193 0.788928
Si Si8 0.291718 0.641380 0.876860
O O1 0.631800 0.426553 0.251260
O O2 0.597794 0.280967 0.118649
O O3 0.664919 0.289177 0.347051
O O4 0.696686 0.353242 0.061013
O O5 0.755589 0.973584 0.723988
O O6 0.830944 0.000000 0.500000
O O7 0.830518 0.076091 0.785264
O O8 0.939300 0.628979 0.835559
O O9 0.893089 0.673235 0.094674
O O10 0.000000 0.724396 0.000000
O O11 0.371928 0.016619 0.750808
O O12 0.500000 0.000000 0.755894
O O13 0.435735 0.000000 0.000000
O O14 0.750000 0.750000 0.485383
O O15 0.811198 0.638863 0.645200
O O16 0.851847 0.689251 0.393619
O O17 0.813684 0.500000 0.500000
O O18 0.684133 0.275325 0.820635
O O19 0.720743 0.135123 0.832288
#
# Coordination Sequence:
#
# PCOD9323867 Si02
#       8
#     8   8   8   8   8   8   8   8
#     4  11  24  38  64  91 126 170 219 274 325 402
#     4  11  22  37  60  95 137 164 204 270 346 400
#     4  11  24  44  64  91 123 174 231 273 319 395
#     4  11  24  41  60  83 125 171 220 270 315 363
#     4  12  21  39  59  91 135 172 211 268 337 399
#     4  11  25  36  57  91 129 171 213 260 324 397
#     4  10  22  37  62  89 133 170 211 265 331 396
#     4  10  21  36  57  97 128 164 210 262 334 396
#
# _framework density 19.719626999999999
#
# number of rings (size 3 to 8) (size 9 to 14) (size 15 to 20)
#    0.000    1.125    5.000    2.625    8.750    0.250 
#    0.000    0.625    0.000    6.000    0.000    3.500 
#    0.000    0.000    0.000    0.000    0.000    0.000 
#
# Total GULP energy -178415.423434 kJ/mol
# GULP energy per Si atom -5575.481982 kJ/mol
# Density = 1.967474 g / cm^3
# Si number density = 19.719627 Si / 1000 Ang^3
#
#
#
# Elastic Constant Matrix: (Units=GPa)
#
#
# Indices 1 2 3 4 5 6 
#
# 1 61.3790 11.4497 26.6559 0.0000 0.0000 0.0000
# 2 11.4497 110.7937 15.2259 0.0000 0.0000 0.0000
# 3 26.6559 15.2259 56.3870 0.0000 0.0000 0.0000
# 4 0.0000 0.0000 0.0000 31.5477 0.0000 0.0000
# 5 0.0000 0.0000 0.0000 0.0000 13.8743 0.0000
# 6 0.0000 0.0000 0.0000 0.0000 0.0000 15.4398
#
#
#
# Elastic Compliance Matrix: (Units=1/GPa)
#
#
# Indices 1 2 3 4 5 6 
#
# 1 0.020573 -0.000820 -0.009504 0.000000 0.000000 0.000000
# 2 -0.000820 0.009406 -0.002152 0.000000 0.000000 0.000000
# 3 -0.009504 -0.002152 0.022809 0.000000 0.000000 0.000000
# 4 0.000000 0.000000 0.000000 0.031698 0.000000 0.000000
# 5 0.000000 0.000000 0.000000 0.000000 0.072076 0.000000
# 6 0.000000 0.000000 0.000000 0.000000 0.000000 0.064768
#
#
# Mechanical properties :
#
#
# Convention : Reuss Voigt Hill
#
# Bulk Modulus (GPa) = 35.92585 37.24695 36.58640
# Shear Modulus (GPa) = 19.56489 23.85422 21.70956
#
# Velocity S-wave (km/s) = 3.15326 3.48180 3.32160
# Velocity P-wave (km/s) = 5.61385 5.92395 5.77098
#
# Compressibility (1/GPa) = 0.02783511
#
# Stress axis : x y z
#
# Youngs Moduli (GPa) = 48.60845 106.31165 43.84325
#
# Poissons Ratio (x) = 0.08717 0.41668
# Poissons Ratio (y) = 0.03986 0.09436
# Poissons Ratio (z) = 0.46197 0.22882
#
# Static dielectric constant tensor:
#      x y z
#    x 1.695040 0.000000 0.000000 
#    y 0.000000 1.743390 0.000000 
#    z 0.000000 0.000000 1.806750 
# 
# From -- ./inp_files/17849.got.cif
#   From: 2010.05.17/outbox.cif.g08.bks.cpg/sg21_9_cif.got.tgz:17849.got - 2010.06.03 23:14:55.
