data_PCOD9323528
_publ_section_title
;
Structure prediction by ZEFSAII (Michael W. Deem and Ramdas Pophale) SiO2 
 PCOD9323528
Probable space group: C 2 2 2
;
_chemical_formula_sum "Si O2"
_cell_formula_units_Z 44
_cell_length_a 9.101165
_cell_length_b 17.228265
_cell_length_c 14.162850
_cell_angle_alpha 90.000000
_cell_angle_beta 90.000000
_cell_angle_gamma 90.000000
_cell_volume 2220.696391
_symmetry_space_group_name_H-M "C 2 2 2"
_symmetry_group_IT_number 21
_symmetry_cell_setting 'orthorhombic'
loop_
_space_group_symop_operation_xyz
x,y,z
-x,-y,z
x,-y,-z
-x,y,-z
1/2+x,1/2+y,z
1/2-x,1/2-y,z
1/2+x,1/2-y,-z
1/2-x,1/2+y,-z
loop_
_atom_site_type_symbol
_atom_site_label
_atom_site_fract_x
_atom_site_fract_y
_atom_site_fract_z
Si Si1 0.462436 0.117210 0.099294
Si Si2 0.210062 0.375426 0.745143
Si Si3 0.514191 0.187942 0.611303
Si Si4 0.250000 0.750000 0.881160
Si Si5 0.298090 0.944023 0.720528
Si Si6 0.046338 0.163600 0.269548
O O1 0.607501 0.136126 0.162009
O O2 0.359583 0.190286 0.069731
O O3 0.363407 0.070028 0.174196
O O4 0.500000 0.079951 0.000000
O O5 0.191520 0.464147 0.708617
O O6 0.379097 0.353210 0.757992
O O7 0.140608 0.323744 0.663133
O O8 0.500000 0.183034 0.500000
O O9 0.612631 0.117236 0.654562
O O10 0.563900 0.272897 0.647041
O O11 0.139403 0.798320 0.814901
O O12 0.131292 0.915906 0.709940
#
# Coordination Sequence:
#
# PCOD9323528 Si02
#       6
#     8   8   8   4   8   8
#     4  10  21  38  61  88 120 159 198 241 294 350
#     4  11  23  37  63  90 117 158 205 239 294 359
#     4  11  22  39  64  87 117 159 200 243 296 358
#     4  10  20  38  60  86 124 154 188 258 304 328
#     4  10  22  41  59  86 126 161 188 250 302 342
#     4  11  20  40  61  87 121 153 202 245 294 350
#
# _framework density 19.813604999999999
#
# number of rings (size 3 to 8) (size 9 to 14) (size 15 to 20)
#    0.000    1.455    5.455    3.273    0.000    7.273 
#    0.000    2.727    0.000    7.636    0.000    0.000 
#    0.000    0.000    0.000    0.000    0.000    0.000 
#
# Total GULP energy -122650.493433 kJ/mol
# GULP energy per Si atom -5575.022429 kJ/mol
# Density = 1.976851 g / cm^3
# Si number density = 19.813605 Si / 1000 Ang^3
#
#
#
# Elastic Constant Matrix: (Units=GPa)
#
#
# Indices 1 2 3 4 5 6 
#
# 1 156.8314 27.9454 37.0609 0.0000 0.0000 0.0000
# 2 27.9454 97.0547 33.1130 0.0000 0.0000 0.0000
# 3 37.0609 33.1130 133.9356 0.0000 0.0000 0.0000
# 4 0.0000 0.0000 0.0000 -1.7407 0.0000 0.0000
# 5 0.0000 0.0000 0.0000 0.0000 2.7842 0.0000
# 6 0.0000 0.0000 0.0000 0.0000 0.0000 10.9391
#
#
#
# Elastic Compliance Matrix: (Units=1/GPa)
#
#
# Indices 1 2 3 4 5 6 
#
# 1 0.007012 -0.001482 -0.001574 0.000000 0.000000 0.000000
# 2 -0.001482 0.011566 -0.002449 0.000000 0.000000 0.000000
# 3 -0.001574 -0.002449 0.008507 0.000000 0.000000 0.000000
# 4 0.000000 0.000000 0.000000 -0.574479 0.000000 0.000000
# 5 0.000000 0.000000 0.000000 0.000000 0.359174 0.000000
# 6 0.000000 0.000000 0.000000 0.000000 0.000000 0.091415
#
#
# Mechanical properties :
#
#
# Convention : Reuss Voigt Hill
#
# Bulk Modulus (GPa) = 62.20917 64.89560 63.55239
# Shear Modulus (GPa) = -62.16225 21.71000 -20.22613
#
# Velocity S-wave (km/s) = -5.60728 3.31374 -3.19849
# Velocity P-wave (km/s) = 3.23370 6.88951 4.30166
#
# Compressibility (1/GPa) = 0.01607480
#
# Stress axis : x y z
#
# Youngs Moduli (GPa) = 142.60655 86.46121 117.54554
#
# Poissons Ratio (x) = 0.12814 0.18501
# Poissons Ratio (y) = 0.21136 0.28791
# Poissons Ratio (z) = 0.22445 0.21177
#
# Static dielectric constant tensor:
#      x y z
#    x 1.714650 0.000000 0.000000 
#    y 0.000000 1.758490 0.000000 
#    z 0.000000 0.000000 1.656940 
# 
# From -- ./inp_files/30402.got.cif
#   From: 2010.05.17/outbox.cif.g08.bks.cpg/sg21_16_cif.got.tgz:30402.got - 2010.06.03 23:14:55.
