data_PCOD9323508
_publ_section_title
;
Structure prediction by ZEFSAII (Michael W. Deem and Ramdas Pophale) SiO2 
 PCOD9323508
Probable space group: C 2 2 2
;
_chemical_formula_sum "Si O2"
_cell_formula_units_Z 56
_cell_length_a 13.394199
_cell_length_b 14.268503
_cell_length_c 15.369553
_cell_angle_alpha 90.000000
_cell_angle_beta 90.000000
_cell_angle_gamma 90.000000
_cell_volume 2937.354713
_symmetry_space_group_name_H-M "C 2 2 2"
_symmetry_group_IT_number 21
_symmetry_cell_setting 'orthorhombic'
loop_
_space_group_symop_operation_xyz
x,y,z
-x,-y,z
x,-y,-z
-x,y,-z
1/2+x,1/2+y,z
1/2-x,1/2-y,z
1/2+x,1/2-y,-z
1/2-x,1/2+y,-z
loop_
_atom_site_type_symbol
_atom_site_label
_atom_site_fract_x
_atom_site_fract_y
_atom_site_fract_z
Si Si1 0.260691 0.587094 0.432554
Si Si2 0.043874 0.703639 0.097408
Si Si3 0.834623 0.505239 0.277151
Si Si4 0.291429 0.049809 0.912655
Si Si5 0.487083 0.853906 0.722925
Si Si6 0.558168 0.415065 0.091857
Si Si7 0.086405 0.256383 0.571039
O O1 0.262158 0.500000 0.500000
O O2 0.249847 0.537335 0.338418
O O3 0.164674 0.657073 0.442733
O O4 0.353398 0.658860 0.435266
O O5 0.147446 0.646353 0.097922
O O6 0.055481 0.810634 0.127491
O O7 0.976190 0.661835 0.173954
O O8 0.000000 0.697593 0.000000
O O9 0.805756 0.507811 0.176161
O O10 0.883057 0.602302 0.309595
O O11 0.925823 0.431636 0.283097
O O12 0.173696 0.063723 0.922486
O O13 0.330402 0.000000 0.000000
O O14 0.531226 0.771310 0.664050
O O15 0.500000 0.500000 0.139026
O O16 0.500000 0.407084 0.000000
O O17 0.000000 0.261672 0.500000
#
# Coordination Sequence:
#
# PCOD9323508 Si02
#       7
#     8   8   8   8   8   8   8
#     4  10  21  38  61  89 118 151 197 239 293 356
#     4  10  21  34  58  89 119 156 200 246 294 342
#     4   9  19  33  58  90 119 155 189 242 299 346
#     4  11  20  34  60  87 119 157 201 249 291 340
#     4   9  18  35  56  89 125 148 192 241 296 354
#     4  10  20  38  53  74 111 158 204 242 287 344
#     4  10  21  37  62  89 117 154 191 242 295 353
#
# _framework density 19.064772999999999
#
# number of rings (size 3 to 8) (size 9 to 14) (size 15 to 20)
#    0.000    2.143    1.429    2.143    2.000    3.143 
#    0.000    1.429    0.000    1.714    0.000    0.000 
#    0.000    0.000    0.000    0.000    0.000    0.000 
#
# Total GULP energy -155873.524122 kJ/mol
# GULP energy per Si atom -5566.911576 kJ/mol
# Density = 1.902138 g / cm^3
# Si number density = 19.064773 Si / 1000 Ang^3
#
#
#
# Elastic Constant Matrix: (Units=GPa)
#
#
# Indices 1 2 3 4 5 6 
#
# 1 91.6449 45.4404 30.8170 0.0000 0.0000 0.0000
# 2 45.4404 116.0796 35.5603 0.0000 0.0000 0.0000
# 3 30.8170 35.5603 112.0753 0.0000 0.0000 0.0000
# 4 0.0000 0.0000 0.0000 -4.6538 0.0000 0.0000
# 5 0.0000 0.0000 0.0000 0.0000 10.8199 0.0000
# 6 0.0000 0.0000 0.0000 0.0000 0.0000 34.1631
#
#
#
# Elastic Compliance Matrix: (Units=1/GPa)
#
#
# Indices 1 2 3 4 5 6 
#
# 1 0.014078 -0.004791 -0.002351 0.000000 0.000000 0.000000
# 2 -0.004791 0.011173 -0.002228 0.000000 0.000000 0.000000
# 3 -0.002351 -0.002228 0.010276 0.000000 0.000000 0.000000
# 4 0.000000 0.000000 0.000000 -0.214877 0.000000 0.000000
# 5 0.000000 0.000000 0.000000 0.000000 0.092422 0.000000
# 6 0.000000 0.000000 0.000000 0.000000 0.000000 0.029271
#
#
# Mechanical properties :
#
#
# Convention : Reuss Voigt Hill
#
# Bulk Modulus (GPa) = 59.56772 60.38168 59.97470
# Shear Modulus (GPa) = -150.04365 21.93130 -64.05617
#
# Velocity S-wave (km/s) = -8.88104 3.39537 -5.80277
# Velocity P-wave (km/s) = 8.59367 6.86382 3.65644
#
# Compressibility (1/GPa) = 0.01678762
#
# Stress axis : x y z
#
# Youngs Moduli (GPa) = 71.03519 89.50510 97.31608
#
# Poissons Ratio (x) = 0.42878 0.22877
# Poissons Ratio (y) = 0.34030 0.21679
# Poissons Ratio (z) = 0.16699 0.19939
#
# Static dielectric constant tensor:
#      x y z
#    x 1.642010 0.000000 0.000000 
#    y 0.000000 1.723190 0.000000 
#    z 0.000000 0.000000 1.695070 
# 
# From -- ./inp_files/31609.got.cif
#   From: 2010.05.17/outbox.cif.g08.bks.cpg/sg21_16_cif.got.tgz:31609.got - 2010.06.03 23:14:55.
