data_PCOD9323892
_publ_section_title
;
Structure prediction by ZEFSAII (Michael W. Deem and Ramdas Pophale) SiO2 
 PCOD9323892
Probable space group: C 2 2 2
;
_chemical_formula_sum "Si O2"
_cell_formula_units_Z 36
_cell_length_a 21.784052
_cell_length_b 5.317817
_cell_length_c 14.130997
_cell_angle_alpha 90.000000
_cell_angle_beta 90.000000
_cell_angle_gamma 90.000000
_cell_volume 1636.985593
_symmetry_space_group_name_H-M "C 2 2 2"
_symmetry_group_IT_number 21
_symmetry_cell_setting 'orthorhombic'
loop_
_space_group_symop_operation_xyz
x,y,z
-x,-y,z
x,-y,-z
-x,y,-z
1/2+x,1/2+y,z
1/2-x,1/2-y,z
1/2+x,1/2-y,-z
1/2-x,1/2+y,-z
loop_
_atom_site_type_symbol
_atom_site_label
_atom_site_fract_x
_atom_site_fract_y
_atom_site_fract_z
Si Si1 0.405162 0.500000 0.000000
Si Si2 0.359226 0.741725 0.713358
Si Si3 0.069040 0.249144 0.458322
Si Si4 0.118341 0.744736 0.178937
Si Si5 0.000000 0.000000 0.853231
Si Si6 0.750000 0.250000 0.563594
O O1 0.371317 0.696529 0.067522
O O2 0.450510 0.367129 0.076497
O O3 0.423149 0.742576 0.653783
O O4 0.351004 0.475343 0.764344
O O5 0.307876 0.773155 0.633951
O O6 0.361049 0.976739 0.783914
O O7 0.098039 0.500000 0.500000
O O8 0.000000 0.248760 0.500000
O O9 0.099046 0.000000 0.500000
O O10 0.044948 0.800145 0.195258
O O11 0.745782 0.500000 0.500000
#
# Coordination Sequence:
#
# PCOD9323892 Si02
#       6
#     4   8   8   8   4   4
#     4   7  16  42  58  94 138 182 198 248 328 421
#     4  12  24  38  64  91 118 168 227 275 321 393
#     4  10  21  37  52  79 120 156 192 256 327 394
#     4  10  21  38  61  96 127 164 214 258 316 395
#     4   7  16  38  56  94 135 180 201 242 324 422
#     4  12  26  48  68  86 126 176 230 292 352 396
#
# _framework density 21.991643
#
# number of rings (size 3 to 8) (size 9 to 14) (size 15 to 20)
#    1.333    0.667    0.000    4.000    0.000    7.111 
#    0.000    2.222    0.000    2.667    0.000    0.000 
#    0.000    0.000    0.000    0.000    0.000    0.000 
#
# Total GULP energy -100254.394635 kJ/mol
# GULP energy per Si atom -5569.688591 kJ/mol
# Density = 2.194159 g / cm^3
# Si number density = 21.991643 Si / 1000 Ang^3
#
#
#
# Elastic Constant Matrix: (Units=GPa)
#
#
# Indices 1 2 3 4 5 6 
#
# 1 67.6160 6.7230 30.6020 0.0000 0.0000 0.0000
# 2 6.7230 159.6529 54.9781 0.0000 0.0000 0.0000
# 3 30.6020 54.9781 95.1481 0.0000 0.0000 0.0000
# 4 0.0000 0.0000 0.0000 43.1430 0.0000 0.0000
# 5 0.0000 0.0000 0.0000 0.0000 41.6639 0.0000
# 6 0.0000 0.0000 0.0000 0.0000 0.0000 -3.6020
#
#
#
# Elastic Compliance Matrix: (Units=1/GPa)
#
#
# Indices 1 2 3 4 5 6 
#
# 1 0.017595 0.001508 -0.006530 0.000000 0.000000 0.000000
# 2 0.001508 0.007949 -0.005078 0.000000 0.000000 0.000000
# 3 -0.006530 -0.005078 0.015544 0.000000 0.000000 0.000000
# 4 0.000000 0.000000 0.000000 0.023179 0.000000 0.000000
# 5 0.000000 0.000000 0.000000 0.000000 0.024002 0.000000
# 6 0.000000 0.000000 0.000000 0.000000 0.000000 -0.277625
#
#
# Mechanical properties :
#
#
# Convention : Reuss Voigt Hill
#
# Bulk Modulus (GPa) = 47.87566 56.33593 52.10579
# Shear Modulus (GPa) = -30.82724 31.58190 0.37733
#
# Velocity S-wave (km/s) = -3.74808 3.79368 0.41467
# Velocity P-wave (km/s) = 1.75680 6.69791 4.89634
#
# Compressibility (1/GPa) = 0.02088744
#
# Stress axis : x y z
#
# Youngs Moduli (GPa) = 56.83447 125.80668 64.33231
#
# Poissons Ratio (x) = -0.18969 0.42011
# Poissons Ratio (y) = -0.08570 0.32667
# Poissons Ratio (z) = 0.37114 0.63883
#
# Static dielectric constant tensor:
#      x y z
#    x 1.722590 0.000000 0.000000 
#    y 0.000000 1.813110 0.000000 
#    z 0.000000 0.000000 1.865190 
# 
# From -- ./inp_files/33448.got.cif
#   From: 2010.05.17/outbox.cif.g08.bks.cpg/sg21_17_cif.got.tgz:33448.got - 2010.06.03 23:14:55.
