data_PCOD9323723
_publ_section_title
;
Structure prediction by ZEFSAII (Michael W. Deem and Ramdas Pophale) SiO2 
 PCOD9323723
Probable space group: C 2 2 2
;
_chemical_formula_sum "Si O2"
_cell_formula_units_Z 64
_cell_length_a 11.998120
_cell_length_b 14.357707
_cell_length_c 17.579431
_cell_angle_alpha 90.000000
_cell_angle_beta 90.000000
_cell_angle_gamma 90.000000
_cell_volume 3028.329322
_symmetry_space_group_name_H-M "C 2 2 2"
_symmetry_group_IT_number 21
_symmetry_cell_setting 'orthorhombic'
loop_
_space_group_symop_operation_xyz
x,y,z
-x,-y,z
x,-y,-z
-x,y,-z
1/2+x,1/2+y,z
1/2-x,1/2-y,z
1/2+x,1/2-y,-z
1/2-x,1/2+y,-z
loop_
_atom_site_type_symbol
_atom_site_label
_atom_site_fract_x
_atom_site_fract_y
_atom_site_fract_z
Si Si1 0.676440 0.662572 0.684487
Si Si2 0.568014 0.918955 0.237691
Si Si3 0.061847 0.245489 0.822992
Si Si4 0.289749 0.551800 0.687787
Si Si5 0.331331 0.938760 0.923740
Si Si6 0.907253 0.925275 0.151812
Si Si7 0.026928 0.889581 0.585181
Si Si8 0.382114 0.764902 0.010148
O O1 0.750000 0.750000 0.658059
O O2 0.646703 0.684528 0.772361
O O3 0.727625 0.559213 0.672659
O O4 0.558413 0.660101 0.641586
O O5 0.489831 0.831325 0.222776
O O6 0.677808 0.898094 0.285453
O O7 0.612724 0.962622 0.157123
O O8 0.500000 0.000000 0.277707
O O9 0.118382 0.281927 0.899645
O O10 0.961122 0.176074 0.843277
O O11 0.369925 0.551240 0.761966
O O12 0.349430 0.607652 0.619915
O O13 0.201305 0.926291 0.901773
O O14 0.398774 0.848417 0.951040
O O15 0.336925 0.000000 0.000000
O O16 0.000000 0.000000 0.127189
O O17 0.000000 0.857246 0.500000
O O18 0.000000 0.000000 0.587118
O O19 0.250000 0.750000 0.994023
O O20 0.500000 0.707235 0.000000
#
# Coordination Sequence:
#
# PCOD9323723 Si02
#       8
#     8   8   8   8   8   8   8   8
#     4  11  21  37  63  96 128 167 210 266 324 397
#     4  11  24  40  63  92 127 173 225 284 344 410
#     4  12  23  40  66  88 126 170 224 279 345 396
#     4  10  20  41  66  94 133 165 223 273 330 399
#     4  11  26  40  60  82 123 169 226 291 352 403
#     4  11  22  42  64  93 123 166 225 294 333 406
#     4   9  18  38  68  99 131 170 214 263 320 395
#     4  12  26  44  61  87 122 166 226 290 347 409
#
# _framework density 21.133765
#
# number of rings (size 3 to 8) (size 9 to 14) (size 15 to 20)
#    0.000    1.125    3.750    3.000    1.750    2.750 
#    0.000    1.250    0.000    0.000    0.000    6.125 
#    0.000    0.000    0.000    0.000    0.000    0.000 
#
# Total GULP energy -178415.283901 kJ/mol
# GULP energy per Si atom -5575.477622 kJ/mol
# Density = 2.108566 g / cm^3
# Si number density = 21.133765 Si / 1000 Ang^3
#
#
#
# Elastic Constant Matrix: (Units=GPa)
#
#
# Indices 1 2 3 4 5 6 
#
# 1 90.8809 5.2069 11.0727 0.0000 0.0000 0.0000
# 2 5.2069 58.6501 -4.0552 0.0000 0.0000 0.0000
# 3 11.0727 -4.0552 82.3032 0.0000 0.0000 0.0000
# 4 0.0000 0.0000 0.0000 13.3225 0.0000 0.0000
# 5 0.0000 0.0000 0.0000 0.0000 16.2277 0.0000
# 6 0.0000 0.0000 0.0000 0.0000 0.0000 29.4784
#
#
#
# Elastic Compliance Matrix: (Units=1/GPa)
#
#
# Indices 1 2 3 4 5 6 
#
# 1 0.011258 -0.001108 -0.001569 0.000000 0.000000 0.000000
# 2 -0.001108 0.017218 0.000997 0.000000 0.000000 0.000000
# 3 -0.001569 0.000997 0.012410 0.000000 0.000000 0.000000
# 4 0.000000 0.000000 0.000000 0.075061 0.000000 0.000000
# 5 0.000000 0.000000 0.000000 0.000000 0.061623 0.000000
# 6 0.000000 0.000000 0.000000 0.000000 0.000000 0.033923
#
#
# Mechanical properties :
#
#
# Convention : Reuss Voigt Hill
#
# Bulk Modulus (GPa) = 26.64781 28.47591 27.56186
# Shear Modulus (GPa) = 21.99138 26.44638 24.21888
#
# Velocity S-wave (km/s) = 3.22930 3.54132 3.38891
# Velocity P-wave (km/s) = 5.15180 5.49770 5.32756
#
# Compressibility (1/GPa) = 0.03752653
#
# Stress axis : x y z
#
# Youngs Moduli (GPa) = 88.82512 58.08014 80.57729
#
# Poissons Ratio (x) = 0.06435 0.12644
# Poissons Ratio (y) = 0.09842 -0.08037
# Poissons Ratio (z) = 0.13938 -0.05793
#
# Static dielectric constant tensor:
#      x y z
#    x 1.886120 0.000000 0.000000 
#    y 0.000000 1.818380 0.000000 
#    z 0.000000 0.000000 1.790670 
# 
# From -- ./inp_files/36251.got.cif
#   From: 2010.05.17/outbox.cif.g08.bks.cpg/sg21_19_cif.got.tgz:36251.got - 2010.06.03 23:14:55.
