data_PCOD9323786
_publ_section_title
;
Structure prediction by ZEFSAII (Michael W. Deem and Ramdas Pophale) SiO2 
 PCOD9323786
Probable space group: C 2 2 2
;
_chemical_formula_sum "Si O2"
_cell_formula_units_Z 34
_cell_length_a 17.094439
_cell_length_b 7.650474
_cell_length_c 12.776604
_cell_angle_alpha 90.000000
_cell_angle_beta 90.000000
_cell_angle_gamma 90.000000
_cell_volume 1670.931440
_symmetry_space_group_name_H-M "C 2 2 2"
_symmetry_group_IT_number 21
_symmetry_cell_setting 'orthorhombic'
loop_
_space_group_symop_operation_xyz
x,y,z
-x,-y,z
x,-y,-z
-x,y,-z
1/2+x,1/2+y,z
1/2-x,1/2-y,z
1/2+x,1/2-y,-z
1/2-x,1/2+y,-z
loop_
_atom_site_type_symbol
_atom_site_label
_atom_site_fract_x
_atom_site_fract_y
_atom_site_fract_z
Si Si1 0.500000 0.500000 0.000000
Si Si2 0.035422 0.312861 0.651140
Si Si3 0.500000 0.000000 0.000000
Si Si4 0.500000 0.500000 0.500000
Si Si5 0.300752 0.077700 0.611953
Si Si6 0.918581 0.249462 0.843249
Si Si7 0.250000 0.750000 0.740082
O O1 0.442172 0.593308 0.919200
O O2 0.123689 0.366310 0.679284
O O3 0.000000 0.500000 0.612179
O O4 0.977066 0.256983 0.743773
O O5 0.042697 0.143834 0.574312
O O6 0.441937 0.093532 0.080571
O O7 0.250000 0.250000 0.593968
O O8 0.327658 0.000000 0.500000
O O9 0.254152 0.923556 0.668894
O O10 0.829895 0.246433 0.805535
#
# Coordination Sequence:
#
# PCOD9323786 Si02
#       7
#     2   8   2   2   8   8   4
#     4  10  26  44  76 104 132 176 238 290 364 438
#     4  12  25  47  69 104 143 195 240 282 353 426
#     4  10  20  48  80  96 136 184 232 294 362 428
#     4  12  28  36  76 100 144 192 250 284 332 432
#     4  12  27  43  67 100 148 189 234 287 342 414
#     4  11  24  47  73 104 138 181 235 297 357 424
#     4  12  26  48  68 104 146 178 234 298 352 416
#
# _framework density 20.347932
#
# number of rings (size 3 to 8) (size 9 to 14) (size 15 to 20)
#    0.000    0.471    4.706    2.471    8.235    0.941 
#    0.000    0.000    0.000    0.000    0.000    0.000 
#    0.000    0.000    0.000    0.000    0.000    0.000 
#
# Total GULP energy -94774.784996 kJ/mol
# GULP energy per Si atom -5574.987353 kJ/mol
# Density = 2.030162 g / cm^3
# Si number density = 20.347932 Si / 1000 Ang^3
#
#
#
# Elastic Constant Matrix: (Units=GPa)
#
#
# Indices 1 2 3 4 5 6 
#
# 1 149.1365 43.9993 66.1304 0.0000 0.0000 0.0000
# 2 43.9993 138.6540 49.4628 0.0000 0.0000 0.0000
# 3 66.1304 49.4628 123.6471 0.0000 0.0000 0.0000
# 4 0.0000 0.0000 0.0000 54.2947 0.0000 0.0000
# 5 0.0000 0.0000 0.0000 0.0000 32.2909 0.0000
# 6 0.0000 0.0000 0.0000 0.0000 0.0000 32.8492
#
#
#
# Elastic Compliance Matrix: (Units=1/GPa)
#
#
# Indices 1 2 3 4 5 6 
#
# 1 0.008995 -0.001328 -0.004279 0.000000 0.000000 0.000000
# 2 -0.001328 0.008609 -0.002734 0.000000 0.000000 0.000000
# 3 -0.004279 -0.002734 0.011470 0.000000 0.000000 0.000000
# 4 0.000000 0.000000 0.000000 0.018418 0.000000 0.000000
# 5 0.000000 0.000000 0.000000 0.000000 0.030969 0.000000
# 6 0.000000 0.000000 0.000000 0.000000 0.000000 0.030442
#
#
# Mechanical properties :
#
#
# Convention : Reuss Voigt Hill
#
# Bulk Modulus (GPa) = 80.70010 81.18027 80.94019
# Shear Modulus (GPa) = 38.54637 40.67665 39.61151
#
# Velocity S-wave (km/s) = 4.35715 4.47593 4.41694
# Velocity P-wave (km/s) = 8.06593 8.16668 8.11646
#
# Compressibility (1/GPa) = 0.01239156
#
# Stress axis : x y z
#
# Youngs Moduli (GPa) = 111.17826 116.16153 87.18469
#
# Poissons Ratio (x) = 0.15422 0.37311
# Poissons Ratio (y) = 0.14760 0.23834
# Poissons Ratio (z) = 0.47579 0.31755
#
# Static dielectric constant tensor:
#      x y z
#    x 1.689850 0.000000 0.000000 
#    y 0.000000 1.813160 0.000000 
#    z 0.000000 0.000000 1.707950 
# 
# From -- ./inp_files/24846.got.cif
#   From: 2010.05.17/outbox.cif.g08.bks.cpg/sg21_13_cif.got.tgz:24846.got - 2010.06.03 23:14:55.
