data_PCOD9323927
_publ_section_title
;
Structure prediction by ZEFSAII (Michael W. Deem and Ramdas Pophale) SiO2 
 PCOD9323927
Probable space group: C 2 2 2
;
_chemical_formula_sum "Si O2"
_cell_formula_units_Z 32
_cell_length_a 36.772619
_cell_length_b 5.037889
_cell_length_c 7.664968
_cell_angle_alpha 90.000000
_cell_angle_beta 90.000000
_cell_angle_gamma 90.000000
_cell_volume 1419.984169
_symmetry_space_group_name_H-M "C 2 2 2"
_symmetry_group_IT_number 21
_symmetry_cell_setting 'orthorhombic'
loop_
_space_group_symop_operation_xyz
x,y,z
-x,-y,z
x,-y,-z
-x,y,-z
1/2+x,1/2+y,z
1/2-x,1/2-y,z
1/2+x,1/2-y,-z
1/2-x,1/2+y,-z
loop_
_atom_site_type_symbol
_atom_site_label
_atom_site_fract_x
_atom_site_fract_y
_atom_site_fract_z
Si Si1 0.343954 0.246563 0.604460
Si Si2 0.774708 0.503977 0.790831
Si Si3 0.541442 0.014699 0.212687
Si Si4 0.587684 0.508433 0.209748
O O1 0.327039 0.500000 0.500000
O O2 0.374405 0.404110 0.713884
O O3 0.361807 0.000000 0.500000
O O4 0.313303 0.077674 0.706904
O O5 0.750000 0.250000 0.742979
O O6 0.750000 0.750000 0.743171
O O7 0.779950 0.500000 0.000000
O O8 0.570478 0.788878 0.263313
O O9 0.500000 0.000000 0.274946
O O10 0.557632 0.295436 0.262806
O O11 0.540060 0.000000 0.000000
O O12 0.591417 0.500000 0.000000
#
# Coordination Sequence:
#
# PCOD9323927 Si02
#       4
#     8   8   8   8
#     4  12  26  42  64  95 134 172 209 262 319 380
#     4  10  23  44  70  96 123 162 213 265 317 379
#     4   9  17  32  58  92 124 157 209 272 320 363
#     4  10  21  37  61  91 125 168 213 260 316 378
#
# _framework density 22.53546
#
# number of rings (size 3 to 8) (size 9 to 14) (size 15 to 20)
#    0.000    1.750    0.000    3.750    0.000   13.000 
#    0.000    0.000    0.000   11.250    0.000    0.000 
#    0.000    0.000    0.000    0.000    0.000    0.000 
#
# Total GULP energy -89285.221329 kJ/mol
# GULP energy per Si atom -5580.326333 kJ/mol
# Density = 2.248417 g / cm^3
# Si number density = 22.535460 Si / 1000 Ang^3
#
#
#
# Elastic Constant Matrix: (Units=GPa)
#
#
# Indices 1 2 3 4 5 6 
#
# 1 168.2423 54.5796 54.5711 0.0000 0.0000 0.0000
# 2 54.5796 171.4714 40.8483 0.0000 0.0000 0.0000
# 3 54.5711 40.8483 44.4039 0.0000 0.0000 0.0000
# 4 0.0000 0.0000 0.0000 -3.4596 0.0000 0.0000
# 5 0.0000 0.0000 0.0000 0.0000 134.5195 0.0000
# 6 0.0000 0.0000 0.0000 0.0000 0.0000 37.4350
#
#
#
# Elastic Compliance Matrix: (Units=1/GPa)
#
#
# Indices 1 2 3 4 5 6 
#
# 1 0.009898 -0.000324 -0.011866 0.000000 0.000000 0.000000
# 2 -0.000324 0.007479 -0.006483 0.000000 0.000000 0.000000
# 3 -0.011866 -0.006483 0.043067 0.000000 0.000000 0.000000
# 4 0.000000 0.000000 0.000000 -0.289050 0.000000 0.000000
# 5 0.000000 0.000000 0.000000 0.000000 0.007434 0.000000
# 6 0.000000 0.000000 0.000000 0.000000 0.000000 0.026713
#
#
# Mechanical properties :
#
#
# Convention : Reuss Voigt Hill
#
# Bulk Modulus (GPa) = 43.29143 76.01284 59.65213
# Shear Modulus (GPa) = -33.46398 49.30689 7.92146
#
# Velocity S-wave (km/s) = -3.85768 4.68265 1.87690
# Velocity P-wave (km/s) = 0.76826 7.93976 5.58791
#
# Compressibility (1/GPa) = 0.02309926
#
# Stress axis : x y z
#
# Youngs Moduli (GPa) = 101.03299 133.70465 23.21949
#
# Poissons Ratio (x) = 0.04327 0.27553
# Poissons Ratio (y) = 0.03270 0.15052
# Poissons Ratio (z) = 1.19889 0.86674
#
# Static dielectric constant tensor:
#      x y z
#    x 1.991080 0.000000 0.000000 
#    y 0.000000 1.779910 0.000000 
#    z 0.000000 0.000000 1.964480 
# 
# From -- ./inp_files/19329.got.cif
#   From: 2010.05.17/outbox.cif.g08.bks.cpg/sg21_10_cif.got.tgz:19329.got - 2010.06.03 23:14:55.
