data_PCOD9323821
_publ_section_title
;
Structure prediction by ZEFSAII (Michael W. Deem and Ramdas Pophale) SiO2 
 PCOD9323821
Probable space group: C 2 2 2
;
_chemical_formula_sum "Si O2"
_cell_formula_units_Z 52
_cell_length_a 13.393292
_cell_length_b 13.212079
_cell_length_c 13.260966
_cell_angle_alpha 90.000000
_cell_angle_beta 90.000000
_cell_angle_gamma 90.000000
_cell_volume 2346.570793
_symmetry_space_group_name_H-M "C 2 2 2"
_symmetry_group_IT_number 21
_symmetry_cell_setting 'orthorhombic'
loop_
_space_group_symop_operation_xyz
x,y,z
-x,-y,z
x,-y,-z
-x,y,-z
1/2+x,1/2+y,z
1/2-x,1/2-y,z
1/2+x,1/2-y,-z
1/2-x,1/2+y,-z
loop_
_atom_site_type_symbol
_atom_site_label
_atom_site_fract_x
_atom_site_fract_y
_atom_site_fract_z
Si Si1 0.539414 0.093327 0.247598
Si Si2 0.904338 0.393772 0.557922
Si Si3 0.367390 0.472086 0.114524
Si Si4 0.750000 0.250000 0.656147
Si Si5 0.744421 0.862715 0.799401
Si Si6 0.667599 0.112010 0.974828
Si Si7 0.425000 0.270926 0.176998
O O1 0.500000 0.157834 0.500000
O O2 0.457717 0.087538 0.335506
O O3 0.521225 0.206544 0.208327
O O4 0.500000 0.000000 0.180070
O O5 0.886071 0.500000 0.500000
O O6 0.803890 0.332285 0.582821
O O7 0.843413 0.417245 0.262961
O O8 0.339282 0.564396 0.187683
O O9 0.260978 0.413268 0.098519
O O10 0.443086 0.386869 0.150013
O O11 0.391048 0.500000 0.000000
O O12 0.658318 0.275099 0.733376
O O13 0.750000 0.750000 0.757933
O O14 0.705518 0.853992 0.915384
O O15 0.611776 0.202667 0.918236
O O16 0.624526 0.000000 0.000000
#
# Coordination Sequence:
#
# PCOD9323821 Si02
#       7
#     8   8   8   4   8   8   8
#     4  11  22  36  59  91 121 153 200 270 317 371
#     4  10  21  42  66  93 127 152 196 257 335 396
#     4   9  17  30  53  77 111 171 214 247 300 360
#     4  10  22  34  68 100 118 160 204 254 322 400
#     4  10  21  35  53  83 122 166 214 250 306 360
#     4   9  16  29  51  79 121 169 207 252 301 351
#     4  11  19  33  57  90 126 161 215 261 306 374
#
# _framework density 22.159997000000001
#
# number of rings (size 3 to 8) (size 9 to 14) (size 15 to 20)
#    0.000    2.308    3.077    3.692    2.154    0.615 
#    1.385    4.615    0.000    4.154    0.000    0.000 
#    0.000    0.000    0.000    0.000    0.000    0.000 
#
# Total GULP energy -144746.746831 kJ/mol
# GULP energy per Si atom -5567.182570 kJ/mol
# Density = 2.210956 g / cm^3
# Si number density = 22.159997 Si / 1000 Ang^3
#
#
#
# Elastic Constant Matrix: (Units=GPa)
#
#
# Indices 1 2 3 4 5 6 
#
# 1 103.8628 50.6335 18.2543 0.0000 0.0000 0.0000
# 2 50.6335 162.5384 29.3620 0.0000 0.0000 0.0000
# 3 18.2543 29.3620 48.1123 0.0000 0.0000 0.0000
# 4 0.0000 0.0000 0.0000 23.4911 0.0000 0.0000
# 5 0.0000 0.0000 0.0000 0.0000 -3.1547 0.0000
# 6 0.0000 0.0000 0.0000 0.0000 0.0000 34.9204
#
#
#
# Elastic Compliance Matrix: (Units=1/GPa)
#
#
# Indices 1 2 3 4 5 6 
#
# 1 0.011607 -0.003170 -0.002469 0.000000 0.000000 0.000000
# 2 -0.003170 0.007780 -0.003546 0.000000 0.000000 0.000000
# 3 -0.002469 -0.003546 0.023885 0.000000 0.000000 0.000000
# 4 0.000000 0.000000 0.000000 0.042569 0.000000 0.000000
# 5 0.000000 0.000000 0.000000 0.000000 -0.316988 0.000000
# 6 0.000000 0.000000 0.000000 0.000000 0.000000 0.028637
#
#
# Mechanical properties :
#
#
# Convention : Reuss Voigt Hill
#
# Bulk Modulus (GPa) = 40.15500 56.77924 48.46712
# Shear Modulus (GPa) = -28.43532 25.46894 -1.48319
#
# Velocity S-wave (km/s) = -3.58604 3.39384 -0.81900
# Velocity P-wave (km/s) = 1.00677 6.40590 4.58526
#
# Compressibility (1/GPa) = 0.02490350
#
# Stress axis : x y z
#
# Youngs Moduli (GPa) = 86.15190 128.52920 41.86656
#
# Poissons Ratio (x) = 0.40741 0.10339
# Poissons Ratio (y) = 0.27308 0.14844
# Poissons Ratio (z) = 0.21275 0.45571
#
# Static dielectric constant tensor:
#      x y z
#    x 1.855770 0.000000 0.000000 
#    y 0.000000 2.053530 0.000000 
#    z 0.000000 0.000000 1.910790 
# 
# From -- ./inp_files/26165.got.cif
#   From: 2010.05.17/outbox.cif.g08.bks.cpg/sg21_14_cif.got.tgz:26165.got - 2010.06.03 23:14:55.
