data_PCOD9323385
_publ_section_title
;
Structure prediction by ZEFSAII (Michael W. Deem and Ramdas Pophale) SiO2 
 PCOD9323385
Probable space group: C 2 2 2
;
_chemical_formula_sum "Si O2"
_cell_formula_units_Z 48
_cell_length_a 14.056954
_cell_length_b 26.865558
_cell_length_c 5.327581
_cell_angle_alpha 90.000000
_cell_angle_beta 90.000000
_cell_angle_gamma 90.000000
_cell_volume 2011.949846
_symmetry_space_group_name_H-M "C 2 2 2"
_symmetry_group_IT_number 21
_symmetry_cell_setting 'orthorhombic'
loop_
_space_group_symop_operation_xyz
x,y,z
-x,-y,z
x,-y,-z
-x,y,-z
1/2+x,1/2+y,z
1/2-x,1/2-y,z
1/2+x,1/2-y,-z
1/2-x,1/2+y,-z
loop_
_atom_site_type_symbol
_atom_site_label
_atom_site_fract_x
_atom_site_fract_y
_atom_site_fract_z
Si Si1 0.383882 0.720174 0.003517
Si Si2 0.616702 0.165020 0.992107
Si Si3 0.395343 0.554157 0.387449
Si Si4 0.111905 0.611298 0.491270
Si Si5 0.173860 0.500000 0.500000
Si Si6 0.617121 0.337730 0.504776
Si Si7 0.797673 0.000000 0.000000
O O1 0.353984 0.777446 0.980177
O O2 0.354473 0.687486 0.764735
O O3 0.500000 0.720337 0.000000
O O4 0.354879 0.695225 0.265290
O O5 0.649316 0.133879 0.750966
O O6 0.500000 0.164527 0.000000
O O7 0.650567 0.138939 0.246298
O O8 0.371416 0.500000 0.500000
O O9 0.500000 0.559862 0.500000
O O10 0.347515 0.605346 0.472239
O O11 0.368802 0.544313 0.095415
O O12 0.121644 0.552249 0.463874
O O13 0.000000 0.622830 0.500000
O O14 0.227854 0.491392 0.233504
O O15 0.500000 0.338446 0.500000
#
# Coordination Sequence:
#
# PCOD9323385 Si02
#       7
#     8   8   8   8   4   8   4
#     4   9  16  28  47  80 121 152 185 239 301 353
#     4   9  17  30  53  85 122 158 197 247 300 357
#     4  10  23  42  63  89 122 156 198 247 304 372
#     4  10  20  36  60  90 123 166 208 249 304 356
#     4  12  25  42  61  88 128 162 208 258 305 372
#     4   9  18  30  50  80 116 153 185 234 302 359
#     4  12  26  45  61  90 124 164 206 252 313 372
#
# _framework density 23.857454000000001
#
# number of rings (size 3 to 8) (size 9 to 14) (size 15 to 20)
#    0.000    2.167    0.833    2.250    2.333    5.333 
#    3.000    3.333    0.000    0.000    0.000   17.500 
#    0.000    0.000    0.000    0.000    0.000    0.000 
#
# Total GULP energy -133967.909364 kJ/mol
# GULP energy per Si atom -5581.996223 kJ/mol
# Density = 2.380315 g / cm^3
# Si number density = 23.857454 Si / 1000 Ang^3
#
#
#
# Elastic Constant Matrix: (Units=GPa)
#
#
# Indices 1 2 3 4 5 6 
#
# 1 54.2863 6.6674 26.6959 0.0000 0.0000 0.0000
# 2 6.6674 215.2149 103.6193 0.0000 0.0000 0.0000
# 3 26.6959 103.6193 209.7357 0.0000 0.0000 0.0000
# 4 0.0000 0.0000 0.0000 30.5765 0.0000 0.0000
# 5 0.0000 0.0000 0.0000 0.0000 6.8117 0.0000
# 6 0.0000 0.0000 0.0000 0.0000 0.0000 53.8882
#
#
#
# Elastic Compliance Matrix: (Units=1/GPa)
#
#
# Indices 1 2 3 4 5 6 
#
# 1 0.019752 0.000785 -0.002902 0.000000 0.000000 0.000000
# 2 0.000785 0.006128 -0.003127 0.000000 0.000000 0.000000
# 3 -0.002902 -0.003127 0.006682 0.000000 0.000000 0.000000
# 4 0.000000 0.000000 0.000000 0.032705 0.000000 0.000000
# 5 0.000000 0.000000 0.000000 0.000000 0.146807 0.000000
# 6 0.000000 0.000000 0.000000 0.000000 0.000000 0.018557
#
#
# Mechanical properties :
#
#
# Convention : Reuss Voigt Hill
#
# Bulk Modulus (GPa) = 45.30307 83.68911 64.49609
# Shear Modulus (GPa) = 20.12263 41.07223 30.59743
#
# Velocity S-wave (km/s) = 2.90738 4.15368 3.58510
# Velocity P-wave (km/s) = 5.50461 7.62621 6.65056
#
# Compressibility (1/GPa) = 0.02207356
#
# Stress axis : x y z
#
# Youngs Moduli (GPa) = 50.62903 163.18624 149.64677
#
# Poissons Ratio (x) = -0.12816 0.43428
# Poissons Ratio (y) = -0.03976 0.46802
# Poissons Ratio (z) = 0.14693 0.51036
#
# Static dielectric constant tensor:
#      x y z
#    x 2.183870 0.000000 0.000000 
#    y 0.000000 1.819630 0.000000 
#    z 0.000000 0.000000 1.837110 
# 
# From -- ./inp_files/5205.got.cif
#   From: 2010.05.17/outbox.cif.g08.bks.cpg/sg21_3_cif.got.tgz:5205.got - 2010.06.03 23:14:55.
