data_PCOD9323803
_publ_section_title
;
Structure prediction by ZEFSAII (Michael W. Deem and Ramdas Pophale) SiO2 
 PCOD9323803
Probable space group: C 2 2 2
;
_chemical_formula_sum "Si O2"
_cell_formula_units_Z 30
_cell_length_a 5.091662
_cell_length_b 24.134071
_cell_length_c 10.974662
_cell_angle_alpha 90.000000
_cell_angle_beta 90.000000
_cell_angle_gamma 90.000000
_cell_volume 1348.594257
_symmetry_space_group_name_H-M "C 2 2 2"
_symmetry_group_IT_number 21
_symmetry_cell_setting 'orthorhombic'
loop_
_space_group_symop_operation_xyz
x,y,z
-x,-y,z
x,-y,-z
-x,y,-z
1/2+x,1/2+y,z
1/2-x,1/2-y,z
1/2+x,1/2-y,-z
1/2-x,1/2+y,-z
loop_
_atom_site_type_symbol
_atom_site_label
_atom_site_fract_x
_atom_site_fract_y
_atom_site_fract_z
Si Si1 0.363009 0.445292 0.742842
Si Si2 0.500000 0.789822 0.000000
Si Si3 0.999866 0.281119 0.356079
Si Si4 0.377903 0.878377 0.788287
Si Si5 0.000000 0.000000 0.500000
O O1 0.500000 0.500000 0.797999
O O2 0.580454 0.397807 0.767267
O O3 0.344448 0.461526 0.597935
O O4 0.084066 0.428701 0.798347
O O5 0.750000 0.750000 0.975473
O O6 0.581022 0.832700 0.107243
O O7 0.750000 0.250000 0.304754
O O8 0.000000 0.272833 0.500000
O O9 0.250000 0.250000 0.303352
O O10 0.019308 0.345411 0.329761
#
# Coordination Sequence:
#
# PCOD9323803 Si02
#       5
#     8   4   8   8   2
#     4  10  24  40  65  97 129 167 218 263 326 391
#     4  12  26  46  71  96 131 176 230 278 324 390
#     4  10  21  34  53  84 119 152 198 259 322 385
#     4  12  23  41  66  92 126 175 220 265 331 383
#     4   8  24  42  68  92 144 170 216 270 330 390
#
# _framework density 22.245387000000001
#
# number of rings (size 3 to 8) (size 9 to 14) (size 15 to 20)
#    0.800    0.533    0.000    5.600    3.733    1.067 
#    0.000    4.000    0.000    0.000    0.000    0.000 
#    0.000    0.000    0.000    0.000    0.000    0.000 
#
# Total GULP energy -83658.110049 kJ/mol
# GULP energy per Si atom -5577.207337 kJ/mol
# Density = 2.219476 g / cm^3
# Si number density = 22.245387 Si / 1000 Ang^3
#
#
#
# Elastic Constant Matrix: (Units=GPa)
#
#
# Indices 1 2 3 4 5 6 
#
# 1 106.6625 16.5821 26.1905 0.0000 0.0000 0.0000
# 2 16.5821 80.2924 23.2663 0.0000 0.0000 0.0000
# 3 26.1905 23.2663 82.0787 0.0000 0.0000 0.0000
# 4 0.0000 0.0000 0.0000 25.9022 0.0000 0.0000
# 5 0.0000 0.0000 0.0000 0.0000 5.6739 0.0000
# 6 0.0000 0.0000 0.0000 0.0000 0.0000 48.1044
#
#
#
# Elastic Compliance Matrix: (Units=1/GPa)
#
#
# Indices 1 2 3 4 5 6 
#
# 1 0.010292 -0.001279 -0.002921 0.000000 0.000000 0.000000
# 2 -0.001279 0.013728 -0.003483 0.000000 0.000000 0.000000
# 3 -0.002921 -0.003483 0.014103 0.000000 0.000000 0.000000
# 4 0.000000 0.000000 0.000000 0.038607 0.000000 0.000000
# 5 0.000000 0.000000 0.000000 0.000000 0.176247 0.000000
# 6 0.000000 0.000000 0.000000 0.000000 0.000000 0.020788
#
#
# Mechanical properties :
#
#
# Convention : Reuss Voigt Hill
#
# Bulk Modulus (GPa) = 43.94577 44.56793 44.25685
# Shear Modulus (GPa) = 16.85109 29.46906 23.16007
#
# Velocity S-wave (km/s) = 2.75527 3.64363 3.23014
# Velocity P-wave (km/s) = 5.46991 6.14651 5.81805
#
# Compressibility (1/GPa) = 0.02275532
#
# Stress axis : x y z
#
# Youngs Moduli (GPa) = 97.16736 72.84408 70.90694
#
# Poissons Ratio (x) = 0.09316 0.20715
# Poissons Ratio (y) = 0.12427 0.24699
# Poissons Ratio (z) = 0.28386 0.25374
#
# Static dielectric constant tensor:
#      x y z
#    x 1.825630 0.000000 0.000000 
#    y 0.000000 1.833900 0.000000 
#    z 0.000000 0.000000 1.870360 
# 
# From -- ./inp_files/20685.got.cif
#   From: 2010.05.17/outbox.cif.g08.bks.cpg/sg21_11_cif.got.tgz:20685.got - 2010.06.03 23:14:55.
