data_PCOD9323824
_publ_section_title
;
Structure prediction by ZEFSAII (Michael W. Deem and Ramdas Pophale) SiO2 
 PCOD9323824
Probable space group: C 2 2 2
;
_chemical_formula_sum "Si O2"
_cell_formula_units_Z 58
_cell_length_a 23.988919
_cell_length_b 7.636172
_cell_length_c 15.079804
_cell_angle_alpha 90.000000
_cell_angle_beta 90.000000
_cell_angle_gamma 90.000000
_cell_volume 2762.371451
_symmetry_space_group_name_H-M "C 2 2 2"
_symmetry_group_IT_number 21
_symmetry_cell_setting 'orthorhombic'
loop_
_space_group_symop_operation_xyz
x,y,z
-x,-y,z
x,-y,-z
-x,y,-z
1/2+x,1/2+y,z
1/2-x,1/2-y,z
1/2+x,1/2-y,-z
1/2-x,1/2+y,-z
loop_
_atom_site_type_symbol
_atom_site_label
_atom_site_fract_x
_atom_site_fract_y
_atom_site_fract_z
Si Si1 0.890024 0.799362 0.227669
Si Si2 0.685254 0.192076 0.117750
Si Si3 0.315351 0.780182 0.921551
Si Si4 0.689213 0.809707 0.381197
Si Si5 0.603784 0.684594 0.728060
Si Si6 0.994791 0.218307 0.148203
Si Si7 0.686675 0.215260 0.421943
Si Si8 0.500000 0.000000 0.000000
O O1 0.846093 0.836412 0.149684
O O2 0.856763 0.704442 0.305263
O O3 0.943467 0.722320 0.178175
O O4 0.907823 0.979316 0.271152
O O5 0.750000 0.250000 0.127501
O O6 0.649545 0.261376 0.198565
O O7 0.678211 0.982062 0.108631
O O8 0.664836 0.256478 0.021167
O O9 0.250000 0.750000 0.922061
O O10 0.750000 0.750000 0.346293
O O11 0.681949 0.715187 0.476756
O O12 0.686910 0.008106 0.410728
O O13 0.546124 0.754715 0.768722
O O14 0.634420 0.723780 0.636157
O O15 0.975397 0.350687 0.069008
O O16 0.000000 0.000000 0.129118
O O17 0.750000 0.250000 0.389336
#
# Coordination Sequence:
#
# PCOD9323824 Si02
#       8
#     8   8   8   8   8   8   8   2
#     4  11  23  40  60  84 122 159 201 260 309 370
#     4  10  21  35  54  81 113 151 196 241 303 371
#     4  10  21  35  54  81 113 151 196 241 303 371
#     4  10  21  38  63  94 125 160 205 254 313 384
#     4  11  23  40  60  84 122 159 201 260 309 370
#     4  10  27  45  64  97 126 166 224 266 320 378
#     4  10  21  38  63  94 125 160 205 254 313 384
#     4  12  26  44  76  86 126 176 218 284 312 368
#
# _framework density 20.996452999999999
#
# number of rings (size 3 to 8) (size 9 to 14) (size 15 to 20)
#    0.000    1.655    0.000    3.517    5.793    3.310 
#    0.000    0.690    0.000    4.138    0.000    0.000 
#    0.000    0.000    0.000    0.000    0.000    0.000 
#
# Total GULP energy -161507.255017 kJ/mol
# GULP energy per Si atom -5569.215690 kJ/mol
# Density = 2.094866 g / cm^3
# Si number density = 20.996453 Si / 1000 Ang^3
#
#
#
# Elastic Constant Matrix: (Units=GPa)
#
#
# Indices 1 2 3 4 5 6 
#
# 1 62.9943 -10.4333 35.6299 0.0000 0.0000 0.0000
# 2 -10.4333 40.2093 4.9468 0.0000 0.0000 0.0000
# 3 35.6299 4.9468 78.3786 0.0000 0.0000 0.0000
# 4 0.0000 0.0000 0.0000 -0.5035 0.0000 0.0000
# 5 0.0000 0.0000 0.0000 0.0000 -41.7398 0.0000
# 6 0.0000 0.0000 0.0000 0.0000 0.0000 19.5115
#
#
#
# Elastic Compliance Matrix: (Units=1/GPa)
#
#
# Indices 1 2 3 4 5 6 
#
# 1 0.023383 0.007433 -0.011099 0.000000 0.000000 0.000000
# 2 0.007433 0.027427 -0.005110 0.000000 0.000000 0.000000
# 3 -0.011099 -0.005110 0.018126 0.000000 0.000000 0.000000
# 4 0.000000 0.000000 0.000000 -1.985978 0.000000 0.000000
# 5 0.000000 0.000000 0.000000 0.000000 -0.023958 0.000000
# 6 0.000000 0.000000 0.000000 0.000000 0.000000 0.051252
#
#
# Mechanical properties :
#
#
# Convention : Reuss Voigt Hill
#
# Bulk Modulus (GPa) = 19.46103 26.87434 23.16769
# Shear Modulus (GPa) = -2.69532 5.54957 1.42713
#
# Velocity S-wave (km/s) = -1.13424 1.62753 0.82533
# Velocity P-wave (km/s) = 2.75200 4.04463 3.45923
#
# Compressibility (1/GPa) = 0.05138475
#
# Stress axis : x y z
#
# Youngs Moduli (GPa) = 42.76622 36.46033 55.16818
#
# Poissons Ratio (x) = -0.27100 0.61229
# Poissons Ratio (y) = -0.31787 0.28190
# Poissons Ratio (z) = 0.47465 0.18631
#
# Static dielectric constant tensor:
#      x y z
#    x 1.987740 0.000000 0.000000 
#    y 0.000000 1.840570 0.000000 
#    z 0.000000 0.000000 1.879910 
# 
# From -- ./inp_files/33601.got.cif
#   From: 2010.05.17/outbox.cif.g08.bks.cpg/sg21_17_cif.got.tgz:33601.got - 2010.06.03 23:14:55.
