data_PCOD9323692
_publ_section_title
;
Structure prediction by ZEFSAII (Michael W. Deem and Ramdas Pophale) SiO2 
 PCOD9323692
Probable space group: C 2 2 2
;
_chemical_formula_sum "Si O2"
_cell_formula_units_Z 56
_cell_length_a 20.019923
_cell_length_b 9.084720
_cell_length_c 15.068902
_cell_angle_alpha 90.000000
_cell_angle_beta 90.000000
_cell_angle_gamma 90.000000
_cell_volume 2740.662502
_symmetry_space_group_name_H-M "C 2 2 2"
_symmetry_group_IT_number 21
_symmetry_cell_setting 'orthorhombic'
loop_
_space_group_symop_operation_xyz
x,y,z
-x,-y,z
x,-y,-z
-x,y,-z
1/2+x,1/2+y,z
1/2-x,1/2-y,z
1/2+x,1/2-y,-z
1/2-x,1/2+y,-z
loop_
_atom_site_type_symbol
_atom_site_label
_atom_site_fract_x
_atom_site_fract_y
_atom_site_fract_z
Si Si1 0.067184 0.676829 0.776455
Si Si2 0.457112 0.264041 0.910207
Si Si3 0.387708 0.511533 0.791942
Si Si4 0.652959 0.940024 0.871475
Si Si5 0.579892 0.984936 0.600798
Si Si6 0.782702 0.906469 0.070868
Si Si7 0.327970 0.752186 0.307003
O O1 0.116707 0.590404 0.842745
O O2 0.086421 0.599488 0.683165
O O3 0.997257 0.673371 0.832424
O O4 0.070584 0.850789 0.758391
O O5 0.429189 0.409182 0.860590
O O6 0.394532 0.158965 0.932788
O O7 0.500000 0.289194 0.000000
O O8 0.327962 0.595134 0.842685
O O9 0.355863 0.408362 0.717252
O O10 0.668955 0.840920 0.785736
O O11 0.723028 0.980774 0.911315
O O12 0.617596 0.837818 0.633760
O O13 0.500000 0.000000 0.592762
O O14 0.605925 0.000000 0.500000
O O15 0.750000 0.750000 0.050187
O O16 0.825249 0.000000 0.000000
O O17 0.250000 0.750000 0.337080
#
# Coordination Sequence:
#
# PCOD9323692 Si02
#       7
#     8   8   8   8   8   8   8
#     4  11  22  41  61  94 126 162 216 268 323 393
#     4  11  26  39  61  91 132 176 221 269 322 384
#     4  11  24  40  63  90 129 172 208 273 337 381
#     4  10  22  40  62  84 120 170 217 261 316 386
#     4  10  22  44  72  98 128 172 220 271 335 419
#     4  12  27  40  58  86 123 170 225 266 309 383
#     4  10  20  40  68  95 128 167 212 266 339 404
#
# _framework density 20.433015999999999
#
# number of rings (size 3 to 8) (size 9 to 14) (size 15 to 20)
#    0.000    1.286    2.857    3.429    8.000    1.143 
#    0.000    2.143    0.000    1.714    0.000    0.000 
#    0.000    0.000    0.000    0.000    0.000    0.000 
#
# Total GULP energy -155985.148585 kJ/mol
# GULP energy per Si atom -5570.898164 kJ/mol
# Density = 2.038651 g / cm^3
# Si number density = 20.433016 Si / 1000 Ang^3
#
#
#
# Elastic Constant Matrix: (Units=GPa)
#
#
# Indices 1 2 3 4 5 6 
#
# 1 68.5001 18.8186 6.3532 0.0000 0.0000 0.0000
# 2 18.8186 123.2003 25.0661 0.0000 0.0000 0.0000
# 3 6.3532 25.0661 83.6191 0.0000 0.0000 0.0000
# 4 0.0000 0.0000 0.0000 13.4785 0.0000 0.0000
# 5 0.0000 0.0000 0.0000 0.0000 65.3093 0.0000
# 6 0.0000 0.0000 0.0000 0.0000 0.0000 33.3824
#
#
#
# Elastic Compliance Matrix: (Units=1/GPa)
#
#
# Indices 1 2 3 4 5 6 
#
# 1 0.015257 -0.002231 -0.000491 0.000000 0.000000 0.000000
# 2 -0.002231 0.008970 -0.002519 0.000000 0.000000 0.000000
# 3 -0.000491 -0.002519 0.012752 0.000000 0.000000 0.000000
# 4 0.000000 0.000000 0.000000 0.074192 0.000000 0.000000
# 5 0.000000 0.000000 0.000000 0.000000 0.015312 0.000000
# 6 0.000000 0.000000 0.000000 0.000000 0.000000 0.029956
#
#
# Mechanical properties :
#
#
# Convention : Reuss Voigt Hill
#
# Bulk Modulus (GPa) = 37.73976 41.75505 39.74741
# Shear Modulus (GPa) = 28.44914 37.43948 32.94431
#
# Velocity S-wave (km/s) = 3.73542 4.28518 4.01971
# Velocity P-wave (km/s) = 6.09217 6.70546 6.40616
#
# Compressibility (1/GPa) = 0.02649725
#
# Stress axis : x y z
#
# Youngs Moduli (GPa) = 65.54442 111.48027 78.42213
#
# Poissons Ratio (x) = 0.24867 0.03847
# Poissons Ratio (y) = 0.14621 0.19758
# Poissons Ratio (z) = 0.03215 0.28087
#
# Static dielectric constant tensor:
#      x y z
#    x 1.814240 0.000000 0.000000 
#    y 0.000000 1.722550 0.000000 
#    z 0.000000 0.000000 1.792220 
# 
# From -- ./inp_files/30768.got.cif
#   From: 2010.05.17/outbox.cif.g08.bks.cpg/sg21_16_cif.got.tgz:30768.got - 2010.06.03 23:14:55.
