data_PCOD9323979
_publ_section_title
;
Structure prediction by ZEFSAII (Michael W. Deem and Ramdas Pophale) SiO2 
 PCOD9323979
Probable space group: C 2 2 2
;
_chemical_formula_sum "Si O2"
_cell_formula_units_Z 48
_cell_length_a 8.533637
_cell_length_b 14.588729
_cell_length_c 16.915111
_cell_angle_alpha 90.000000
_cell_angle_beta 90.000000
_cell_angle_gamma 90.000000
_cell_volume 2105.845350
_symmetry_space_group_name_H-M "C 2 2 2"
_symmetry_group_IT_number 21
_symmetry_cell_setting 'orthorhombic'
loop_
_space_group_symop_operation_xyz
x,y,z
-x,-y,z
x,-y,-z
-x,y,-z
1/2+x,1/2+y,z
1/2-x,1/2-y,z
1/2+x,1/2-y,-z
1/2-x,1/2+y,-z
loop_
_atom_site_type_symbol
_atom_site_label
_atom_site_fract_x
_atom_site_fract_y
_atom_site_fract_z
Si Si1 0.139486 0.162981 0.105102
Si Si2 0.810459 0.000006 0.370069
Si Si3 0.830848 0.605320 0.968746
Si Si4 0.635577 0.064426 0.783433
Si Si5 0.097642 0.714411 0.187962
Si Si6 0.187250 0.148035 0.503522
O O1 0.250000 0.250000 0.118153
O O2 0.224704 0.083707 0.155452
O O3 0.982211 0.198197 0.145030
O O4 0.175658 0.141396 0.013822
O O5 0.711586 0.983584 0.291719
O O6 0.769256 0.916710 0.429639
O O7 0.769342 0.092773 0.416979
O O8 0.000000 0.000000 0.356130
O O9 0.837657 0.645796 0.880641
O O10 0.833481 0.500000 0.000000
O O11 0.000000 0.642714 0.000000
O O12 0.538155 0.158248 0.766780
O O13 0.500000 0.000000 0.818339
O O14 0.250000 0.750000 0.234247
O O15 0.250000 0.250000 0.499520
O O16 0.000000 0.151448 0.500000
#
# Coordination Sequence:
#
# PCOD9323979 Si02
#       6
#     8   8   8   8   8   8
#     4  10  21  38  60  89 118 161 215 266 327 386
#     4   9  21  42  67  94 134 177 218 277 336 399
#     4  11  20  36  65  91 120 163 212 273 336 400
#     4  11  23  41  62  88 128 175 214 263 331 397
#     4  11  25  41  63  92 130 172 223 280 334 401
#     4   9  19  39  68 102 132 168 220 275 331 398
#
# _framework density 22.793697999999999
#
# number of rings (size 3 to 8) (size 9 to 14) (size 15 to 20)
#    0.000    1.833    3.333    2.500    0.000    4.667 
#    0.000   12.500    0.000    0.000    0.000    0.000 
#    0.000    0.000    0.000    0.000    0.000    0.000 
#
# Total GULP energy -133821.879773 kJ/mol
# GULP energy per Si atom -5575.911657 kJ/mol
# Density = 2.274182 g / cm^3
# Si number density = 22.793698 Si / 1000 Ang^3
#
#
#
# Elastic Constant Matrix: (Units=GPa)
#
#
# Indices 1 2 3 4 5 6 
#
# 1 86.5900 32.9566 19.9841 0.0000 0.0000 0.0000
# 2 32.9566 112.0939 36.0896 0.0000 0.0000 0.0000
# 3 19.9841 36.0896 70.6809 0.0000 0.0000 0.0000
# 4 0.0000 0.0000 0.0000 12.2789 0.0000 0.0000
# 5 0.0000 0.0000 0.0000 0.0000 21.0577 0.0000
# 6 0.0000 0.0000 0.0000 0.0000 0.0000 23.7796
#
#
#
# Elastic Compliance Matrix: (Units=1/GPa)
#
#
# Indices 1 2 3 4 5 6 
#
# 1 0.013260 -0.003221 -0.002105 0.000000 0.000000 0.000000
# 2 -0.003221 0.011459 -0.004940 0.000000 0.000000 0.000000
# 3 -0.002105 -0.004940 0.017265 0.000000 0.000000 0.000000
# 4 0.000000 0.000000 0.000000 0.081441 0.000000 0.000000
# 5 0.000000 0.000000 0.000000 0.000000 0.047489 0.000000
# 6 0.000000 0.000000 0.000000 0.000000 0.000000 0.042053
#
#
# Mechanical properties :
#
#
# Convention : Reuss Voigt Hill
#
# Bulk Modulus (GPa) = 46.61314 49.71394 48.16354
# Shear Modulus (GPa) = 20.77714 23.44552 22.11133
#
# Velocity S-wave (km/s) = 3.02243 3.21065 3.11796
# Velocity P-wave (km/s) = 5.71616 5.96675 5.84280
#
# Compressibility (1/GPa) = 0.02145318
#
# Stress axis : x y z
#
# Youngs Moduli (GPa) = 75.41281 87.27061 57.91900
#
# Poissons Ratio (x) = 0.28111 0.12189
# Poissons Ratio (y) = 0.24291 0.28612
# Poissons Ratio (z) = 0.15871 0.43112
#
# Static dielectric constant tensor:
#      x y z
#    x 1.905750 0.000000 0.000000 
#    y 0.000000 2.014560 0.000000 
#    z 0.000000 0.000000 1.870230 
# 
# From -- ./inp_files/35658.got.cif
#   From: 2010.05.17/outbox.cif.g08.bks.cpg/sg21_18_cif.got.tgz:35658.got - 2010.06.03 23:14:55.
