data_PCOD9323844
_publ_section_title
;
Structure prediction by ZEFSAII (Michael W. Deem and Ramdas Pophale) SiO2 
 PCOD9323844
Probable space group: C 2 2 2
;
_chemical_formula_sum "Si O2"
_cell_formula_units_Z 32
_cell_length_a 7.492231
_cell_length_b 33.333653
_cell_length_c 5.589033
_cell_angle_alpha 90.000000
_cell_angle_beta 90.000000
_cell_angle_gamma 90.000000
_cell_volume 1395.824263
_symmetry_space_group_name_H-M "C 2 2 2"
_symmetry_group_IT_number 21
_symmetry_cell_setting 'orthorhombic'
loop_
_space_group_symop_operation_xyz
x,y,z
-x,-y,z
x,-y,-z
-x,y,-z
1/2+x,1/2+y,z
1/2-x,1/2-y,z
1/2+x,1/2-y,-z
1/2-x,1/2+y,-z
loop_
_atom_site_type_symbol
_atom_site_label
_atom_site_fract_x
_atom_site_fract_y
_atom_site_fract_z
Si Si1 0.697690 0.829716 0.384442
Si Si2 0.500000 0.792144 0.000000
Si Si3 0.216876 0.952767 0.002370
Si Si4 0.750000 0.250000 0.362179
Si Si5 0.204836 0.082000 0.494717
O O1 0.500000 0.833284 0.500000
O O2 0.654708 0.820371 0.107806
O O3 0.786636 0.789524 0.484202
O O4 0.793025 0.870302 0.455426
O O5 0.414473 0.763604 0.198029
O O6 0.281005 0.931715 0.248413
O O7 0.286517 0.935249 0.750820
O O8 0.000000 0.947392 0.000000
O O9 0.254335 0.000000 0.000000
O O10 0.000000 0.067346 0.500000
#
# Coordination Sequence:
#
# PCOD9323844 Si02
#       5
#     8   4   8   4   8
#     4  10  23  39  57  85 119 159 198 243 304 359
#     4  10  22  40  62  82 117 166 195 260 304 358
#     4   9  18  35  58  88 121 153 194 249 306 356
#     4  10  22  40  60  86 114 158 206 242 312 360
#     4  10  21  35  60  91 118 156 201 249 298 358
#
# _framework density 22.925522999999998
#
# number of rings (size 3 to 8) (size 9 to 14) (size 15 to 20)
#    0.000    2.250    0.000    1.500    7.000    8.000 
#    2.250    0.000    0.000    4.500    0.000    0.000 
#    0.000    0.000    0.000    0.000    0.000    0.000 
#
# Total GULP energy -89326.691836 kJ/mol
# GULP energy per Si atom -5582.918240 kJ/mol
# Density = 2.287334 g / cm^3
# Si number density = 22.925523 Si / 1000 Ang^3
#
#
#
# Elastic Constant Matrix: (Units=GPa)
#
#
# Indices 1 2 3 4 5 6 
#
# 1 55.6792 -8.8165 13.2709 0.0000 0.0000 0.0000
# 2 -8.8165 138.4344 103.3891 0.0000 0.0000 0.0000
# 3 13.2709 103.3891 204.5180 0.0000 0.0000 0.0000
# 4 0.0000 0.0000 0.0000 27.7594 0.0000 0.0000
# 5 0.0000 0.0000 0.0000 0.0000 5.9085 0.0000
# 6 0.0000 0.0000 0.0000 0.0000 0.0000 2.7130
#
#
#
# Elastic Compliance Matrix: (Units=1/GPa)
#
#
# Indices 1 2 3 4 5 6 
#
# 1 0.019223 0.003463 -0.002998 0.000000 0.000000 0.000000
# 2 0.003463 0.012229 -0.006407 0.000000 0.000000 0.000000
# 3 -0.002998 -0.006407 0.008323 0.000000 0.000000 0.000000
# 4 0.000000 0.000000 0.000000 0.036024 0.000000 0.000000
# 5 0.000000 0.000000 0.000000 0.000000 0.169249 0.000000
# 6 0.000000 0.000000 0.000000 0.000000 0.000000 0.368590
#
#
# Mechanical properties :
#
#
# Convention : Reuss Voigt Hill
#
# Bulk Modulus (GPa) = 35.85270 68.25760 52.05515
# Shear Modulus (GPa) = 7.87626 26.66205 17.26916
#
# Velocity S-wave (km/s) = 1.85554 3.41396 2.74756
# Velocity P-wave (km/s) = 4.50149 6.73635 5.72896
#
# Compressibility (1/GPa) = 0.02789190
#
# Stress axis : x y z
#
# Youngs Moduli (GPa) = 52.02080 81.77160 120.14975
#
# Poissons Ratio (x) = -0.28321 0.36024
# Poissons Ratio (y) = -0.18017 0.76979
# Poissons Ratio (z) = 0.15597 0.52390
#
# Static dielectric constant tensor:
#      x y z
#    x 1.894780 0.000000 0.000000 
#    y 0.000000 1.807680 0.000000 
#    z 0.000000 0.000000 1.952430 
# 
# From -- ./inp_files/1519.got.cif
#   From: 2010.05.17/outbox.cif.g08.bks.cpg/sg21_1_cif.got.tgz:1519.got - 2010.06.03 23:14:55.
