data_PCOD9323787
_publ_section_title
;
Structure prediction by ZEFSAII (Michael W. Deem and Ramdas Pophale) SiO2 
 PCOD9323787
Probable space group: C 2 2 2
;
_chemical_formula_sum "Si O2"
_cell_formula_units_Z 34
_cell_length_a 21.330242
_cell_length_b 11.210817
_cell_length_c 5.500605
_cell_angle_alpha 90.000000
_cell_angle_beta 90.000000
_cell_angle_gamma 90.000000
_cell_volume 1315.356591
_symmetry_space_group_name_H-M "C 2 2 2"
_symmetry_group_IT_number 21
_symmetry_cell_setting 'orthorhombic'
loop_
_space_group_symop_operation_xyz
x,y,z
-x,-y,z
x,-y,-z
-x,y,-z
1/2+x,1/2+y,z
1/2-x,1/2-y,z
1/2+x,1/2-y,-z
1/2-x,1/2+y,-z
loop_
_atom_site_type_symbol
_atom_site_label
_atom_site_fract_x
_atom_site_fract_y
_atom_site_fract_z
Si Si1 0.500000 0.739435 0.000000
Si Si2 0.718930 0.627935 0.128973
Si Si3 0.000000 0.500000 0.500000
Si Si4 0.603449 0.158297 0.281995
Si Si5 0.297001 0.000000 0.500000
Si Si6 0.411304 0.628597 0.623408
O O1 0.560678 0.823364 0.954761
O O2 0.475359 0.662160 0.770470
O O3 0.750000 0.750000 0.024778
O O4 0.755558 0.602315 0.379705
O O5 0.645151 0.639223 0.180714
O O6 0.726330 0.500000 0.000000
O O7 0.947321 0.400670 0.454624
O O8 0.660625 0.067535 0.297793
O O9 0.613151 0.285172 0.406927
O O10 0.415452 0.500000 0.500000
#
# Coordination Sequence:
#
# PCOD9323787 Si02
#       6
#     4   8   2   8   4   8
#     4  12  28  48  76 116 154 213 263 306 414 488
#     4  12  29  52  81 117 156 211 274 332 406 488
#     4  10  20  50  66 108 154 196 254 328 386 450
#     4  11  25  47  76 114 155 202 260 332 391 472
#     4  11  26  51  84 108 155 202 263 340 402 453
#     4  12  28  50  74 114 162 204 266 333 400 486
#
# _framework density 25.848503000000001
#
# number of rings (size 3 to 8) (size 9 to 14) (size 15 to 20)
#    0.000    0.471    5.882    0.000    6.588    4.235 
#    0.000    0.000    0.000    0.000    0.000    0.000 
#    0.000    0.000    0.000    0.000    0.000    0.000 
#
# Total GULP energy -94805.177743 kJ/mol
# GULP energy per Si atom -5576.775161 kJ/mol
# Density = 2.578967 g / cm^3
# Si number density = 25.848503 Si / 1000 Ang^3
#
#
#
# Elastic Constant Matrix: (Units=GPa)
#
#
# Indices 1 2 3 4 5 6 
#
# 1 128.7955 22.9645 17.0726 0.0000 0.0000 0.0000
# 2 22.9645 134.8190 14.6588 0.0000 0.0000 0.0000
# 3 17.0726 14.6588 55.9802 0.0000 0.0000 0.0000
# 4 0.0000 0.0000 0.0000 109.8935 0.0000 0.0000
# 5 0.0000 0.0000 0.0000 0.0000 44.3900 0.0000
# 6 0.0000 0.0000 0.0000 0.0000 0.0000 150.7577
#
#
#
# Elastic Compliance Matrix: (Units=1/GPa)
#
#
# Indices 1 2 3 4 5 6 
#
# 1 0.008266 -0.001167 -0.002215 0.000000 0.000000 0.000000
# 2 -0.001167 0.007800 -0.001686 0.000000 0.000000 0.000000
# 3 -0.002215 -0.001686 0.018981 0.000000 0.000000 0.000000
# 4 0.000000 0.000000 0.000000 0.009100 0.000000 0.000000
# 5 0.000000 0.000000 0.000000 0.000000 0.022528 0.000000
# 6 0.000000 0.000000 0.000000 0.000000 0.000000 0.006633
#
#
# Mechanical properties :
#
#
# Convention : Reuss Voigt Hill
#
# Bulk Modulus (GPa) = 40.14692 47.66515 43.90603
# Shear Modulus (GPa) = 54.49758 78.66816 66.58287
#
# Velocity S-wave (km/s) = 4.59665 5.52272 5.08083
# Velocity P-wave (km/s) = 6.61344 7.69074 7.17234
#
# Compressibility (1/GPa) = 0.02490851
#
# Stress axis : x y z
#
# Youngs Moduli (GPa) = 120.97749 128.21304 52.68516
#
# Poissons Ratio (x) = 0.14964 0.11671
# Poissons Ratio (y) = 0.14120 0.08885
# Poissons Ratio (z) = 0.26800 0.21622
#
# Static dielectric constant tensor:
#      x y z
#    x 1.966100 0.000000 0.000000 
#    y 0.000000 2.032870 0.000000 
#    z 0.000000 0.000000 2.064620 
# 
# From -- ./inp_files/2634.got.cif
#   From: 2010.05.17/outbox.cif.g08.bks.cpg/sg21_2_cif.got.tgz:2634.got - 2010.06.03 23:14:55.
