data_PCOD9323694
_publ_section_title
;
Structure prediction by ZEFSAII (Michael W. Deem and Ramdas Pophale) SiO2 
 PCOD9323694
Probable space group: C 2 2 2
;
_chemical_formula_sum "Si O2"
_cell_formula_units_Z 56
_cell_length_a 5.685151
_cell_length_b 28.995119
_cell_length_c 13.887549
_cell_angle_alpha 90.000000
_cell_angle_beta 90.000000
_cell_angle_gamma 90.000000
_cell_volume 2289.246211
_symmetry_space_group_name_H-M "C 2 2 2"
_symmetry_group_IT_number 21
_symmetry_cell_setting 'orthorhombic'
loop_
_space_group_symop_operation_xyz
x,y,z
-x,-y,z
x,-y,-z
-x,y,-z
1/2+x,1/2+y,z
1/2-x,1/2-y,z
1/2+x,1/2-y,-z
1/2-x,1/2+y,-z
loop_
_atom_site_type_symbol
_atom_site_label
_atom_site_fract_x
_atom_site_fract_y
_atom_site_fract_z
Si Si1 0.371994 0.320878 0.913563
Si Si2 0.754160 0.828068 0.533743
Si Si3 0.626842 0.088350 0.089163
Si Si4 0.246819 0.566127 0.464011
Si Si5 0.250817 0.635758 0.770243
Si Si6 0.635319 0.798707 0.726665
Si Si7 0.080312 0.052694 0.738276
O O1 0.256664 0.367138 0.956752
O O2 0.564389 0.338506 0.838221
O O3 0.181422 0.299437 0.841460
O O4 0.500000 0.294300 0.000000
O O5 0.500000 0.807610 0.500000
O O6 0.749446 0.880815 0.499997
O O7 0.768907 0.830662 0.649923
O O8 0.000000 0.806182 0.500000
O O9 0.445426 0.110439 0.164892
O O10 0.807545 0.060862 0.156148
O O11 0.500000 0.063637 0.000000
O O12 0.500000 0.547761 0.500000
O O13 0.241698 0.561425 0.348904
O O14 0.000000 0.547088 0.500000
O O15 0.381853 0.592184 0.722532
O O16 0.123750 0.678409 0.715158
O O17 0.750000 0.750000 0.696584
O O18 0.000000 0.000000 0.732045
#
# Coordination Sequence:
#
# PCOD9323694 Si02
#       7
#     8   8   8   8   8   8   8
#     4  10  20  40  68  99 134 186 242 298 368 450
#     4  10  23  43  74 105 140 191 248 308 382 460
#     4  10  20  40  71  99 135 190 244 300 377 456
#     4  10  23  44  75 106 146 194 250 312 387 469
#     4  10  22  42  74  95 140 191 238 309 374 464
#     4  11  26  43  66 107 143 188 245 311 380 457
#     4  11  26  44  70 111 149 193 254 324 389 468
#
# _framework density 24.462198000000001
#
# number of rings (size 3 to 8) (size 9 to 14) (size 15 to 20)
#    0.000    1.714    1.429    2.571   10.000    2.000 
#    2.571    2.857    0.000    0.000    0.000    0.000 
#    0.000    0.000    0.000    0.000    0.000    0.000 
#
# Total GULP energy -156080.507361 kJ/mol
# GULP energy per Si atom -5574.303834 kJ/mol
# Density = 2.440652 g / cm^3
# Si number density = 24.462198 Si / 1000 Ang^3
#
#
#
# Elastic Constant Matrix: (Units=GPa)
#
#
# Indices 1 2 3 4 5 6 
#
# 1 141.1071 44.3781 33.4991 0.0000 0.0000 0.0000
# 2 44.3781 117.6126 4.6856 0.0000 0.0000 0.0000
# 3 33.4991 4.6856 107.5099 0.0000 0.0000 0.0000
# 4 0.0000 0.0000 0.0000 24.2108 0.0000 0.0000
# 5 0.0000 0.0000 0.0000 0.0000 55.5605 0.0000
# 6 0.0000 0.0000 0.0000 0.0000 0.0000 3.8624
#
#
#
# Elastic Compliance Matrix: (Units=1/GPa)
#
#
# Indices 1 2 3 4 5 6 
#
# 1 0.008697 -0.003179 -0.002571 0.000000 0.000000 0.000000
# 2 -0.003179 0.009679 0.000569 0.000000 0.000000 0.000000
# 3 -0.002571 0.000569 0.010078 0.000000 0.000000 0.000000
# 4 0.000000 0.000000 0.000000 0.041304 0.000000 0.000000
# 5 0.000000 0.000000 0.000000 0.000000 0.017998 0.000000
# 6 0.000000 0.000000 0.000000 0.000000 0.000000 0.258905
#
#
# Mechanical properties :
#
#
# Convention : Reuss Voigt Hill
#
# Bulk Modulus (GPa) = 55.27674 59.03945 57.15810
# Shear Modulus (GPa) = 13.77200 35.63786 24.70493
#
# Velocity S-wave (km/s) = 2.37532 3.82102 3.18138
# Velocity P-wave (km/s) = 5.49260 6.60714 6.07548
#
# Compressibility (1/GPa) = 0.01809079
#
# Stress axis : x y z
#
# Youngs Moduli (GPa) = 114.98057 103.31198 99.22700
#
# Poissons Ratio (x) = 0.32845 0.25515
# Poissons Ratio (y) = 0.36555 -0.05644
# Poissons Ratio (z) = 0.29566 -0.05876
#
# Static dielectric constant tensor:
#      x y z
#    x 2.041730 0.000000 0.000000 
#    y 0.000000 1.938880 0.000000 
#    z 0.000000 0.000000 2.062890 
# 
# From -- ./inp_files/29576.got.cif
#   From: 2010.05.17/outbox.cif.g08.bks.cpg/sg21_15_cif.got.tgz:29576.got - 2010.06.03 23:14:55.
