data_PCOD9323721
_publ_section_title
;
Structure prediction by ZEFSAII (Michael W. Deem and Ramdas Pophale) SiO2 
 PCOD9323721
Probable space group: C 2 2 2
;
_chemical_formula_sum "Si O2"
_cell_formula_units_Z 64
_cell_length_a 17.965278
_cell_length_b 13.385554
_cell_length_c 13.336617
_cell_angle_alpha 90.000000
_cell_angle_beta 90.000000
_cell_angle_gamma 90.000000
_cell_volume 3207.125624
_symmetry_space_group_name_H-M "C 2 2 2"
_symmetry_group_IT_number 21
_symmetry_cell_setting 'orthorhombic'
loop_
_space_group_symop_operation_xyz
x,y,z
-x,-y,z
x,-y,-z
-x,y,-z
1/2+x,1/2+y,z
1/2-x,1/2-y,z
1/2+x,1/2-y,-z
1/2-x,1/2+y,-z
loop_
_atom_site_type_symbol
_atom_site_label
_atom_site_fract_x
_atom_site_fract_y
_atom_site_fract_z
Si Si1 0.931233 0.388591 0.071846
Si Si2 0.330546 0.236432 0.303184
Si Si3 0.448305 0.901744 0.292736
Si Si4 0.435155 0.430984 0.779706
Si Si5 0.991369 0.209955 0.613298
Si Si6 0.334528 0.977403 0.801269
Si Si7 0.410940 0.321429 0.978354
Si Si8 0.827049 0.080932 0.839747
O O1 0.964724 0.356662 0.181554
O O2 0.885824 0.294965 0.026161
O O3 0.887185 0.512524 0.893031
O O4 0.000000 0.401538 0.000000
O O5 0.250000 0.250000 0.357889
O O6 0.404859 0.269139 0.361229
O O7 0.344815 0.127284 0.255834
O O8 0.320781 0.311797 0.211038
O O9 0.466252 0.815958 0.370929
O O10 0.500000 0.000000 0.306193
O O11 0.363099 0.940106 0.280172
O O12 0.500000 0.500000 0.825445
O O13 0.471004 0.368125 0.690386
O O14 0.402277 0.362715 0.866719
O O15 0.372134 0.512613 0.760461
O O16 0.000000 0.174874 0.500000
O O17 0.252423 0.971905 0.846101
O O18 0.500000 0.320486 0.000000
O O19 0.369117 0.392684 0.057007
#
# Coordination Sequence:
#
# PCOD9323721 Si02
#       8
#     8   8   8   8   8   8   8   8
#     4   9  20  37  63  92 129 172 218 267 329 391
#     4  10  21  43  66  93 135 171 212 276 331 388
#     4  10  20  41  65  92 132 170 209 274 339 399
#     4  12  22  40  63  86 131 171 213 270 317 387
#     4  12  24  43  71 105 124 164 230 281 338 405
#     4   9  21  42  63  91 134 171 220 268 335 388
#     4  11  20  36  62  91 122 173 225 260 313 387
#     4  11  23  38  63  94 131 179 222 261 322 404
#
# _framework density 19.955563999999999
#
# number of rings (size 3 to 8) (size 9 to 14) (size 15 to 20)
#    0.750    0.750    5.000    0.375    1.750    0.750 
#    2.250   13.750    0.000    3.000    0.000    0.000 
#    0.000    0.000    0.000    0.000    0.000    0.000 
#
# Total GULP energy -178184.179888 kJ/mol
# GULP energy per Si atom -5568.255621 kJ/mol
# Density = 1.991014 g / cm^3
# Si number density = 19.955564 Si / 1000 Ang^3
#
#
#
# Elastic Constant Matrix: (Units=GPa)
#
#
# Indices 1 2 3 4 5 6 
#
# 1 120.1069 45.2788 41.9646 0.0000 0.0000 0.0000
# 2 45.2788 106.8022 23.6941 0.0000 0.0000 0.0000
# 3 41.9646 23.6941 71.7901 0.0000 0.0000 0.0000
# 4 0.0000 0.0000 0.0000 18.0920 0.0000 0.0000
# 5 0.0000 0.0000 0.0000 0.0000 16.0513 0.0000
# 6 0.0000 0.0000 0.0000 0.0000 0.0000 33.4395
#
#
#
# Elastic Compliance Matrix: (Units=1/GPa)
#
#
# Indices 1 2 3 4 5 6 
#
# 1 0.011683 -0.003709 -0.005605 0.000000 0.000000 0.000000
# 2 -0.003709 0.011281 -0.001555 0.000000 0.000000 0.000000
# 3 -0.005605 -0.001555 0.017719 0.000000 0.000000 0.000000
# 4 0.000000 0.000000 0.000000 0.055273 0.000000 0.000000
# 5 0.000000 0.000000 0.000000 0.000000 0.062300 0.000000
# 6 0.000000 0.000000 0.000000 0.000000 0.000000 0.029905
#
#
# Mechanical properties :
#
#
# Convention : Reuss Voigt Hill
#
# Bulk Modulus (GPa) = 52.78663 57.84157 55.31410
# Shear Modulus (GPa) = 23.12538 26.03401 24.57970
#
# Velocity S-wave (km/s) = 3.40787 3.61584 3.51340
# Velocity P-wave (km/s) = 6.48030 6.81766 6.65112
#
# Compressibility (1/GPa) = 0.01894419
#
# Stress axis : x y z
#
# Youngs Moduli (GPa) = 85.59759 88.64735 56.43702
#
# Poissons Ratio (x) = 0.32883 0.31631
# Poissons Ratio (y) = 0.31752 0.08775
# Poissons Ratio (z) = 0.47975 0.13783
#
# Static dielectric constant tensor:
#      x y z
#    x 1.788550 0.000000 0.000000 
#    y 0.000000 1.783830 0.000000 
#    z 0.000000 0.000000 1.717430 
# 
# From -- ./inp_files/26229.got.cif
#   From: 2010.05.17/outbox.cif.g08.bks.cpg/sg21_14_cif.got.tgz:26229.got - 2010.06.03 23:14:55.
