data_PCOD9323861
_publ_section_title
;
Structure prediction by ZEFSAII (Michael W. Deem and Ramdas Pophale) SiO2 
 PCOD9323861
Probable space group: C 2 2 2
;
_chemical_formula_sum "Si O2"
_cell_formula_units_Z 32
_cell_length_a 19.764239
_cell_length_b 4.896762
_cell_length_c 12.671200
_cell_angle_alpha 90.000000
_cell_angle_beta 90.000000
_cell_angle_gamma 90.000000
_cell_volume 1226.328550
_symmetry_space_group_name_H-M "C 2 2 2"
_symmetry_group_IT_number 21
_symmetry_cell_setting 'orthorhombic'
loop_
_space_group_symop_operation_xyz
x,y,z
-x,-y,z
x,-y,-z
-x,y,-z
1/2+x,1/2+y,z
1/2-x,1/2-y,z
1/2+x,1/2-y,-z
1/2-x,1/2+y,-z
loop_
_atom_site_type_symbol
_atom_site_label
_atom_site_fract_x
_atom_site_fract_y
_atom_site_fract_z
Si Si1 0.806682 0.539024 0.660529
Si Si2 0.339349 0.909644 0.108335
Si Si3 0.428201 0.392600 0.153881
Si Si4 0.892182 0.034698 0.616087
O O1 0.750000 0.750000 0.619128
O O2 0.797446 0.511410 0.786644
O O3 0.827395 0.246606 0.612423
O O4 0.872106 0.727844 0.646354
O O5 0.368207 0.604385 0.122038
O O6 0.405389 0.102763 0.111468
O O7 0.303932 0.000000 0.000000
O O8 0.500000 0.500000 0.117562
O O9 0.431202 0.362401 0.281384
O O10 0.921687 0.000000 0.500000
#
# Coordination Sequence:
#
# PCOD9323861 Si02
#       4
#     8   8   8   8
#     4  10  21  38  57  81 111 144 186 233 280 335
#     4  10  21  37  56  82 114 147 188 235 282 337
#     4  10  21  36  56  83 114 149 189 232 280 339
#     4  10  21  37  57  82 113 146 185 232 280 335
#
# _framework density 26.094149000000002
#
# number of rings (size 3 to 8) (size 9 to 14) (size 15 to 20)
#    0.000    2.000    0.000    3.000    0.000    5.500 
#    0.000    7.500    0.000    9.000    0.000    0.000 
#    0.000    0.000    0.000    0.000    0.000    0.000 
#
# Total GULP energy -89386.465732 kJ/mol
# GULP energy per Si atom -5586.654108 kJ/mol
# Density = 2.603476 g / cm^3
# Si number density = 26.094149 Si / 1000 Ang^3
#
#
#
# Elastic Constant Matrix: (Units=GPa)
#
#
# Indices 1 2 3 4 5 6 
#
# 1 64.9328 26.5068 2.9127 0.0000 0.0000 0.0000
# 2 26.5068 153.0233 14.0828 0.0000 0.0000 0.0000
# 3 2.9127 14.0828 203.5758 0.0000 0.0000 0.0000
# 4 0.0000 0.0000 0.0000 19.3547 0.0000 0.0000
# 5 0.0000 0.0000 0.0000 0.0000 -10.2207 0.0000
# 6 0.0000 0.0000 0.0000 0.0000 0.0000 33.3288
#
#
#
# Elastic Compliance Matrix: (Units=1/GPa)
#
#
# Indices 1 2 3 4 5 6 
#
# 1 0.016573 -0.002867 -0.000039 0.000000 0.000000 0.000000
# 2 -0.002867 0.007073 -0.000448 0.000000 0.000000 0.000000
# 3 -0.000039 -0.000448 0.004944 0.000000 0.000000 0.000000
# 4 0.000000 0.000000 0.000000 0.051667 0.000000 0.000000
# 5 0.000000 0.000000 0.000000 0.000000 -0.097841 0.000000
# 6 0.000000 0.000000 0.000000 0.000000 0.000000 0.030004
#
#
# Mechanical properties :
#
#
# Convention : Reuss Voigt Hill
#
# Bulk Modulus (GPa) = 45.70193 56.50404 51.10299
# Shear Modulus (GPa) = 189.23811 33.69454 111.46633
#
# Velocity S-wave (km/s) = 8.52518 3.59732 6.54291
# Velocity P-wave (km/s) = 10.69847 6.24141 8.75821
#
# Compressibility (1/GPa) = 0.02188091
#
# Stress axis : x y z
#
# Youngs Moduli (GPa) = 60.34018 141.38555 202.27602
#
# Poissons Ratio (x) = 0.40538 0.00784
# Poissons Ratio (y) = 0.17301 0.09067
# Poissons Ratio (z) = 0.00234 0.06338
#
# Static dielectric constant tensor:
#      x y z
#    x 2.171790 0.000000 0.000000 
#    y 0.000000 1.951980 0.000000 
#    z 0.000000 0.000000 2.162110 
# 
# From -- ./inp_files/20845.got.cif
#   From: 2010.05.17/outbox.cif.g08.bks.cpg/sg21_11_cif.got.tgz:20845.got - 2010.06.03 23:14:55.
