data_PCOD9323570
_publ_section_title
;
Structure prediction by ZEFSAII (Michael W. Deem and Ramdas Pophale) SiO2 
 PCOD9323570
Probable space group: C 2 2 2
;
_chemical_formula_sum "Si O2"
_cell_formula_units_Z 30
_cell_length_a 18.499193
_cell_length_b 7.350369
_cell_length_c 10.946424
_cell_angle_alpha 90.000000
_cell_angle_beta 90.000000
_cell_angle_gamma 90.000000
_cell_volume 1488.449798
_symmetry_space_group_name_H-M "C 2 2 2"
_symmetry_group_IT_number 21
_symmetry_cell_setting 'orthorhombic'
loop_
_space_group_symop_operation_xyz
x,y,z
-x,-y,z
x,-y,-z
-x,y,-z
1/2+x,1/2+y,z
1/2-x,1/2-y,z
1/2+x,1/2-y,-z
1/2-x,1/2+y,-z
loop_
_atom_site_type_symbol
_atom_site_label
_atom_site_fract_x
_atom_site_fract_y
_atom_site_fract_z
Si Si1 0.612953 0.785451 0.661127
Si Si2 0.250000 0.250000 0.489587
Si Si3 0.827030 0.537351 0.142175
Si Si4 0.000000 0.500000 0.500000
Si Si5 0.322979 0.569179 0.740144
O O1 0.684518 0.810614 0.576469
O O2 0.615945 0.577848 0.709290
O O3 0.622312 0.908876 0.779388
O O4 0.548090 0.865551 0.582573
O O5 0.288381 0.382789 0.391508
O O6 0.743801 0.492242 0.180113
O O7 0.841784 0.743259 0.190300
O O8 0.835801 0.500000 0.000000
#
# Coordination Sequence:
#
# PCOD9323570 Si02
#       5
#     8   4   8   2   8
#     4  12  23  41  64  95 143 190 228 302 357 428
#     4  10  20  38  66 100 130 176 244 302 352 418
#     4  10  22  37  62 103 140 176 240 297 355 427
#     4  12  28  44  68 104 148 192 252 286 382 444
#     4  10  22  33  61 100 137 176 229 300 367 409
#
# _framework density 20.155197000000001
#
# number of rings (size 3 to 8) (size 9 to 14) (size 15 to 20)
#    0.000    1.600    2.667    4.000   11.200    0.000 
#    0.000   11.333    0.000    0.000    0.000   11.200 
#    0.000    0.000    0.000    0.000    0.000    0.000 
#
# Total GULP energy -83715.731347 kJ/mol
# GULP energy per Si atom -5581.048756 kJ/mol
# Density = 2.010932 g / cm^3
# Si number density = 20.155197 Si / 1000 Ang^3
#
#
#
# Elastic Constant Matrix: (Units=GPa)
#
#
# Indices 1 2 3 4 5 6 
#
# 1 71.9678 43.8339 53.7493 0.0000 0.0000 0.0000
# 2 43.8339 127.9916 60.4094 0.0000 0.0000 0.0000
# 3 53.7493 60.4094 205.2399 0.0000 0.0000 0.0000
# 4 0.0000 0.0000 0.0000 24.7232 0.0000 0.0000
# 5 0.0000 0.0000 0.0000 0.0000 6.3041 0.0000
# 6 0.0000 0.0000 0.0000 0.0000 0.0000 18.7495
#
#
#
# Elastic Compliance Matrix: (Units=1/GPa)
#
#
# Indices 1 2 3 4 5 6 
#
# 1 0.019696 -0.005006 -0.003685 0.000000 0.000000 0.000000
# 2 -0.005006 0.010346 -0.001734 0.000000 0.000000 0.000000
# 3 -0.003685 -0.001734 0.006348 0.000000 0.000000 0.000000
# 4 0.000000 0.000000 0.000000 0.040448 0.000000 0.000000
# 5 0.000000 0.000000 0.000000 0.000000 0.158628 0.000000
# 6 0.000000 0.000000 0.000000 0.000000 0.000000 0.053335
#
#
# Mechanical properties :
#
#
# Convention : Reuss Voigt Hill
#
# Bulk Modulus (GPa) = 64.35106 80.13161 72.24133
# Shear Modulus (GPa) = 15.88155 26.43580 21.15867
#
# Velocity S-wave (km/s) = 2.81011 3.62555 3.24356
# Velocity P-wave (km/s) = 6.52120 7.57428 7.06738
#
# Compressibility (1/GPa) = 0.01553976
#
# Stress axis : x y z
#
# Youngs Moduli (GPa) = 50.77116 96.65528 157.53761
#
# Poissons Ratio (x) = 0.48390 0.58046
# Poissons Ratio (y) = 0.25418 0.27319
# Poissons Ratio (z) = 0.18707 0.16761
#
# Static dielectric constant tensor:
#      x y z
#    x 1.690810 0.000000 0.000000 
#    y 0.000000 1.878540 0.000000 
#    z 0.000000 0.000000 1.679680 
# 
# From -- ./inp_files/24712.got.cif
#   From: 2010.05.17/outbox.cif.g08.bks.cpg/sg21_13_cif.got.tgz:24712.got - 2010.06.03 23:14:55.
