data_PCOD9323330
_publ_section_title
;
Structure prediction by ZEFSAII (Michael W. Deem and Ramdas Pophale) SiO2 
 PCOD9323330
Probable space group: C 2 2 2
;
_chemical_formula_sum "Si O2"
_cell_formula_units_Z 42
_cell_length_a 16.315114
_cell_length_b 10.895926
_cell_length_c 13.734760
_cell_angle_alpha 90.000000
_cell_angle_beta 90.000000
_cell_angle_gamma 90.000000
_cell_volume 2441.604590
_symmetry_space_group_name_H-M "C 2 2 2"
_symmetry_group_IT_number 21
_symmetry_cell_setting 'orthorhombic'
loop_
_space_group_symop_operation_xyz
x,y,z
-x,-y,z
x,-y,-z
-x,y,-z
1/2+x,1/2+y,z
1/2-x,1/2-y,z
1/2+x,1/2-y,-z
1/2-x,1/2+y,-z
loop_
_atom_site_type_symbol
_atom_site_label
_atom_site_fract_x
_atom_site_fract_y
_atom_site_fract_z
Si Si1 0.000000 0.500000 0.500000
Si Si2 0.243372 0.943718 0.710562
Si Si3 0.750000 0.250000 0.549329
Si Si4 0.338183 0.682059 0.223341
Si Si5 0.750000 0.250000 0.878944
Si Si6 0.902238 0.851782 0.989731
Si Si7 0.633584 0.863666 0.614590
O O1 0.053194 0.416498 0.569227
O O2 0.216289 0.853380 0.623390
O O3 0.267320 0.863382 0.804943
O O4 0.176317 0.042640 0.743427
O O5 0.316509 0.026869 0.667272
O O6 0.686277 0.188277 0.475589
O O7 0.250000 0.750000 0.215065
O O8 0.380194 0.685095 0.119915
O O9 0.382090 0.757251 0.307910
O O10 0.831686 0.212816 0.941852
O O11 0.000000 0.823203 0.000000
O O12 0.893028 0.000000 0.000000
#
# Coordination Sequence:
#
# PCOD9323330 Si02
#       7
#     2   8   4   8   4   8   8
#     4  12  24  40  56  94 134 158 200 272 310 372
#     4  10  20  35  61  92 114 156 214 254 292 380
#     4  11  18  35  62  86 114 159 208 239 302 372
#     4  10  20  38  63  87 119 164 204 254 308 373
#     4  11  22  37  66  92 120 167 214 257 312 376
#     4  11  23  40  62  90 127 162 204 260 318 373
#     4  11  22  37  61  87 123 163 201 252 315 359
#
# _framework density 17.201802000000001
#
# number of rings (size 3 to 8) (size 9 to 14) (size 15 to 20)
#    0.000    1.333    7.619    0.000    0.000    1.524 
#    0.000    0.000    0.000    8.571    0.000    0.000 
#    0.000    0.000    0.000    0.000    0.000    0.000 
#
# Total GULP energy -117002.596455 kJ/mol
# GULP energy per Si atom -5571.552212 kJ/mol
# Density = 1.716265 g / cm^3
# Si number density = 17.201802 Si / 1000 Ang^3
#
#
#
# Elastic Constant Matrix: (Units=GPa)
#
#
# Indices 1 2 3 4 5 6 
#
# 1 103.6216 55.8642 73.9222 0.0000 0.0000 0.0000
# 2 55.8642 119.1935 80.0516 0.0000 0.0000 0.0000
# 3 73.9222 80.0516 174.3553 0.0000 0.0000 0.0000
# 4 0.0000 0.0000 0.0000 36.1429 0.0000 0.0000
# 5 0.0000 0.0000 0.0000 0.0000 18.9612 0.0000
# 6 0.0000 0.0000 0.0000 0.0000 0.0000 13.5196
#
#
#
# Elastic Compliance Matrix: (Units=1/GPa)
#
#
# Indices 1 2 3 4 5 6 
#
# 1 0.015049 -0.004002 -0.004543 0.000000 0.000000 0.000000
# 2 -0.004002 0.013194 -0.004361 0.000000 0.000000 0.000000
# 3 -0.004543 -0.004361 0.009664 0.000000 0.000000 0.000000
# 4 0.000000 0.000000 0.000000 0.027668 0.000000 0.000000
# 5 0.000000 0.000000 0.000000 0.000000 0.052739 0.000000
# 6 0.000000 0.000000 0.000000 0.000000 0.000000 0.073967
#
#
# Mechanical properties :
#
#
# Convention : Reuss Voigt Hill
#
# Bulk Modulus (GPa) = 82.67977 90.76073 86.72025
# Shear Modulus (GPa) = 22.50981 26.21355 24.36168
#
# Velocity S-wave (km/s) = 3.62134 3.90793 3.76736
# Velocity P-wave (km/s) = 8.10274 8.55800 8.33348
#
# Compressibility (1/GPa) = 0.01209486
#
# Stress axis : x y z
#
# Youngs Moduli (GPa) = 66.44976 75.78929 103.47902
#
# Poissons Ratio (x) = 0.30332 0.47009
# Poissons Ratio (y) = 0.26594 0.45129
# Poissons Ratio (z) = 0.30187 0.33053
#
# Static dielectric constant tensor:
#      x y z
#    x 1.573120 0.000000 0.000000 
#    y 0.000000 1.596270 0.000000 
#    z 0.000000 0.000000 1.583580 
# 
# From -- ./inp_files/25996.got.cif
#   From: 2010.05.17/outbox.cif.g08.bks.cpg/sg21_13_cif.got.tgz:25996.got - 2010.06.03 23:14:55.
