data_PCOD9323719
_publ_section_title
;
Structure prediction by ZEFSAII (Michael W. Deem and Ramdas Pophale) SiO2 
 PCOD9323719
Probable space group: C 2 2 2
;
_chemical_formula_sum "Si O2"
_cell_formula_units_Z 28
_cell_length_a 19.187229
_cell_length_b 10.057267
_cell_length_c 7.608451
_cell_angle_alpha 90.000000
_cell_angle_beta 90.000000
_cell_angle_gamma 90.000000
_cell_volume 1468.211045
_symmetry_space_group_name_H-M "C 2 2 2"
_symmetry_group_IT_number 21
_symmetry_cell_setting 'orthorhombic'
loop_
_space_group_symop_operation_xyz
x,y,z
-x,-y,z
x,-y,-z
-x,y,-z
1/2+x,1/2+y,z
1/2-x,1/2-y,z
1/2+x,1/2-y,-z
1/2-x,1/2+y,-z
loop_
_atom_site_type_symbol
_atom_site_label
_atom_site_fract_x
_atom_site_fract_y
_atom_site_fract_z
Si Si1 0.075258 0.784502 0.061625
Si Si2 0.417876 0.347049 0.540423
Si Si3 0.830510 0.281906 0.758913
Si Si4 0.384015 0.000000 0.000000
O O1 0.094526 0.831413 0.253291
O O2 0.072567 0.623370 0.073692
O O3 0.132302 0.808492 0.910282
O O4 0.000000 0.834720 0.000000
O O5 0.401153 0.500000 0.500000
O O6 0.500000 0.324792 0.500000
O O7 0.372941 0.249121 0.418035
O O8 0.750000 0.250000 0.737661
O O9 0.840937 0.429113 0.842905
#
# Coordination Sequence:
#
# PCOD9323719 Si02
#       4
#     8   8   8   4
#     4  10  20  41  65  90 122 160 208 255 302 361
#     4  11  23  40  63  95 123 164 210 251 305 365
#     4  10  23  42  62  95 124 161 205 254 313 362
#     4   8  21  40  64  86 123 162 204 244 321 340
#
# _framework density 19.070826
#
# number of rings (size 3 to 8) (size 9 to 14) (size 15 to 20)
#    1.714    0.286    2.857    0.429    0.000    5.714 
#    5.143    1.429    0.000    0.000    0.000    0.000 
#    0.000    0.000    0.000    0.000    0.000    0.000 
#
# Total GULP energy -77944.649045 kJ/mol
# GULP energy per Si atom -5567.474932 kJ/mol
# Density = 1.902742 g / cm^3
# Si number density = 19.070826 Si / 1000 Ang^3
#
#
#
# Elastic Constant Matrix: (Units=GPa)
#
#
# Indices 1 2 3 4 5 6 
#
# 1 98.6256 18.4537 38.9549 0.0000 0.0000 0.0000
# 2 18.4537 70.5170 24.5116 0.0000 0.0000 0.0000
# 3 38.9549 24.5116 150.3821 0.0000 0.0000 0.0000
# 4 0.0000 0.0000 0.0000 34.6120 0.0000 0.0000
# 5 0.0000 0.0000 0.0000 0.0000 27.2017 0.0000
# 6 0.0000 0.0000 0.0000 0.0000 0.0000 -30.9531
#
#
#
# Elastic Compliance Matrix: (Units=1/GPa)
#
#
# Indices 1 2 3 4 5 6 
#
# 1 0.011583 -0.002108 -0.002657 0.000000 0.000000 0.000000
# 2 -0.002108 0.015416 -0.001967 0.000000 0.000000 0.000000
# 3 -0.002657 -0.001967 0.007659 0.000000 0.000000 0.000000
# 4 0.000000 0.000000 0.000000 0.028892 0.000000 0.000000
# 5 0.000000 0.000000 0.000000 0.000000 0.036762 0.000000
# 6 0.000000 0.000000 0.000000 0.000000 0.000000 -0.032307
#
#
# Mechanical properties :
#
#
# Convention : Reuss Voigt Hill
#
# Bulk Modulus (GPa) = 47.18077 53.70724 50.44401
# Shear Modulus (GPa) = 56.47615 22.01242 39.24428
#
# Velocity S-wave (km/s) = 5.44777 3.40110 4.54124
# Velocity P-wave (km/s) = 8.02274 6.60655 7.34884
#
# Compressibility (1/GPa) = 0.02119507
#
# Stress axis : x y z
#
# Youngs Moduli (GPa) = 86.33226 64.86686 130.57283
#
# Poissons Ratio (x) = 0.13672 0.34693
# Poissons Ratio (y) = 0.18196 0.25681
# Poissons Ratio (z) = 0.22938 0.12758
#
# Static dielectric constant tensor:
#      x y z
#    x 1.642510 0.000000 0.000000 
#    y 0.000000 1.686190 0.000000 
#    z 0.000000 0.000000 1.764230 
# 
# From -- ./inp_files/15966.got.cif
#   From: 2010.05.17/outbox.cif.g08.bks.cpg/sg21_8_cif.got.tgz:15966.got - 2010.06.03 23:14:55.
