data_PCOD9323268
_publ_section_title
;
Structure prediction by ZEFSAII (Michael W. Deem and Ramdas Pophale) SiO2 
 PCOD9323268
Probable space group: C 2 2 2
;
_chemical_formula_sum "Si O2"
_cell_formula_units_Z 56
_cell_length_a 26.388705
_cell_length_b 25.916677
_cell_length_c 5.207316
_cell_angle_alpha 90.000000
_cell_angle_beta 90.000000
_cell_angle_gamma 90.000000
_cell_volume 3561.322696
_symmetry_space_group_name_H-M "C 2 2 2"
_symmetry_group_IT_number 21
_symmetry_cell_setting 'orthorhombic'
loop_
_space_group_symop_operation_xyz
x,y,z
-x,-y,z
x,-y,-z
-x,y,-z
1/2+x,1/2+y,z
1/2-x,1/2-y,z
1/2+x,1/2-y,-z
1/2-x,1/2+y,-z
loop_
_atom_site_type_symbol
_atom_site_label
_atom_site_fract_x
_atom_site_fract_y
_atom_site_fract_z
Si Si1 0.530483 0.746599 0.249794
Si Si2 0.143695 0.750238 0.599657
Si Si3 0.224816 0.440163 0.561440
Si Si4 0.798634 0.216948 0.105392
Si Si5 0.145475 0.630901 0.661389
Si Si6 0.245525 0.386671 0.064014
Si Si7 0.469483 0.127999 0.246522
O O1 0.500000 0.730409 0.500000
O O2 0.588904 0.732452 0.294153
O O3 0.530085 0.809263 0.238292
O O4 0.500000 0.728178 0.000000
O O5 0.161733 0.778132 0.339481
O O6 0.141882 0.688540 0.545795
O O7 0.181150 0.759797 0.837871
O O8 0.220499 0.500000 0.500000
O O9 0.171037 0.410557 0.527891
O O10 0.258118 0.411098 0.341756
O O11 0.244411 0.429559 0.844787
O O12 0.750000 0.250000 0.192642
O O13 0.779863 0.159733 0.035580
O O14 0.187642 0.633225 0.887662
O O15 0.089710 0.614158 0.746564
O O16 0.500000 0.112300 0.500000
O O17 0.500000 0.109047 0.000000
#
# Coordination Sequence:
#
# PCOD9323268 Si02
#       7
#     8   8   8   8   8   8   8
#     4   9  17  31  44  63  91 124 167 201 224 269
#     4  11  21  30  49  71 100 133 160 197 244 282
#     4  10  20  35  52  69  85 120 165 207 246 289
#     4  12  20  32  45  71 102 130 157 190 246 294
#     4   9  21  31  50  69  94 119 164 198 249 286
#     4  10  21  33  49  70  93 123 155 203 234 296
#     4   9  18  28  44  65  87 114 151 202 248 288
#
# _framework density 15.724494
#
# number of rings (size 3 to 8) (size 9 to 14) (size 15 to 20)
#    0.857    1.143    1.429    3.429    2.000    2.286 
#    0.000    0.000    0.000    0.429    0.000    0.000 
#    0.000    0.000    0.000    0.000    0.000  150.000 
#
# Total GULP energy -155882.870067 kJ/mol
# GULP energy per Si atom -5567.245360 kJ/mol
# Density = 1.568870 g / cm^3
# Si number density = 15.724494 Si / 1000 Ang^3
#
#
#
# Elastic Constant Matrix: (Units=GPa)
#
#
# Indices 1 2 3 4 5 6 
#
# 1 45.2622 16.5732 11.3559 0.0000 0.0000 0.0000
# 2 16.5732 37.9030 2.4371 0.0000 0.0000 0.0000
# 3 11.3559 2.4371 81.3792 0.0000 0.0000 0.0000
# 4 0.0000 0.0000 0.0000 13.2601 0.0000 0.0000
# 5 0.0000 0.0000 0.0000 0.0000 26.7033 0.0000
# 6 0.0000 0.0000 0.0000 0.0000 0.0000 8.0707
#
#
#
# Elastic Compliance Matrix: (Units=1/GPa)
#
#
# Indices 1 2 3 4 5 6 
#
# 1 0.027239 -0.011689 -0.003451 0.000000 0.000000 0.000000
# 2 -0.011689 0.031450 0.000689 0.000000 0.000000 0.000000
# 3 -0.003451 0.000689 0.012749 0.000000 0.000000 0.000000
# 4 0.000000 0.000000 0.000000 0.075414 0.000000 0.000000
# 5 0.000000 0.000000 0.000000 0.000000 0.037449 0.000000
# 6 0.000000 0.000000 0.000000 0.000000 0.000000 0.123905
#
#
# Mechanical properties :
#
#
# Convention : Reuss Voigt Hill
#
# Bulk Modulus (GPa) = 23.50877 25.03076 24.26977
# Shear Modulus (GPa) = 14.23344 18.55204 16.39274
#
# Velocity S-wave (km/s) = 3.01188 3.43857 3.23227
# Velocity P-wave (km/s) = 5.20366 5.63187 5.42199
#
# Compressibility (1/GPa) = 0.04253731
#
# Stress axis : x y z
#
# Youngs Moduli (GPa) = 36.71182 31.79685 78.43707
#
# Poissons Ratio (x) = 0.37166 0.27069
# Poissons Ratio (y) = 0.42911 -0.05406
# Poissons Ratio (z) = 0.12669 -0.02191
#
# Static dielectric constant tensor:
#      x y z
#    x 1.527920 0.000000 0.000000 
#    y 0.000000 1.505080 0.000000 
#    z 0.000000 0.000000 1.538650 
# 
# From -- ./inp_files/6085.got.cif
#   From: 2010.05.17/outbox.cif.g08.bks.cpg/sg21_4_cif.got.tgz:6085.got - 2010.06.03 23:14:55.
