data_PCOD9323536
_publ_section_title
;
Structure prediction by ZEFSAII (Michael W. Deem and Ramdas Pophale) SiO2 
 PCOD9323536
Probable space group: C 2 2 2
;
_chemical_formula_sum "Si O2"
_cell_formula_units_Z 64
_cell_length_a 14.629971
_cell_length_b 17.152664
_cell_length_c 11.741857
_cell_angle_alpha 90.000000
_cell_angle_beta 90.000000
_cell_angle_gamma 90.000000
_cell_volume 2946.536550
_symmetry_space_group_name_H-M "C 2 2 2"
_symmetry_group_IT_number 21
_symmetry_cell_setting 'orthorhombic'
loop_
_space_group_symop_operation_xyz
x,y,z
-x,-y,z
x,-y,-z
-x,y,-z
1/2+x,1/2+y,z
1/2-x,1/2-y,z
1/2+x,1/2-y,-z
1/2-x,1/2+y,-z
loop_
_atom_site_type_symbol
_atom_site_label
_atom_site_fract_x
_atom_site_fract_y
_atom_site_fract_z
Si Si1 0.653107 0.704037 0.959085
Si Si2 0.760692 0.085672 0.197503
Si Si3 0.355721 0.763029 0.803645
Si Si4 0.467367 0.912116 0.627450
Si Si5 0.895906 0.134404 0.378271
Si Si6 0.098361 0.705174 0.249671
Si Si7 0.290426 0.081070 0.244255
Si Si8 0.897038 0.863011 0.354556
O O1 0.750000 0.750000 0.962836
O O2 0.680168 0.620120 0.907534
O O3 0.588563 0.748929 0.869891
O O4 0.618116 0.711988 0.086918
O O5 0.827211 0.082642 0.305923
O O6 0.686443 0.150804 0.231300
O O7 0.713647 0.002419 0.184410
O O8 0.250000 0.750000 0.772183
O O9 0.344013 0.854483 0.832371
O O10 0.404352 0.725512 0.694454
O O11 0.500000 0.892107 0.500000
O O12 0.518945 0.853040 0.711853
O O13 0.358195 0.914671 0.646318
O O14 0.500000 0.000000 0.651110
O O15 0.885370 0.224520 0.338051
O O16 0.876426 0.132131 0.511893
O O17 0.998909 0.107279 0.347969
O O18 0.186596 0.100257 0.283120
#
# Coordination Sequence:
#
# PCOD9323536 Si02
#       8
#     8   8   8   8   8   8   8   8
#     4   8  17  38  64  90 117 163 214 260 308 370
#     4  10  21  38  62  90 124 161 211 259 318 380
#     4   9  19  38  63  92 122 161 213 260 321 371
#     4  11  24  37  57  90 134 167 202 252 321 393
#     4  10  22  38  59  88 121 167 219 256 311 371
#     4  10  20  38  61  87 122 167 212 263 306 382
#     4  11  23  39  61  93 126 167 205 260 327 380
#     4  10  23  39  59  89 126 165 210 266 307 383
#
# _framework density 21.720416
#
# number of rings (size 3 to 8) (size 9 to 14) (size 15 to 20)
#    0.000    2.125    1.250    1.875    5.250    3.000 
#    0.000   16.875    0.000    0.750    0.000   14.000 
#    0.000    0.000    0.000    0.000    0.000    0.000 
#
# Total GULP energy -178323.016500 kJ/mol
# GULP energy per Si atom -5572.594266 kJ/mol
# Density = 2.167098 g / cm^3
# Si number density = 21.720416 Si / 1000 Ang^3
#
#
#
# Elastic Constant Matrix: (Units=GPa)
#
#
# Indices 1 2 3 4 5 6 
#
# 1 77.8798 20.4084 21.5233 0.0000 0.0000 0.0000
# 2 20.4084 80.2068 12.8600 0.0000 0.0000 0.0000
# 3 21.5233 12.8600 58.8588 0.0000 0.0000 0.0000
# 4 0.0000 0.0000 0.0000 6.2916 0.0000 0.0000
# 5 0.0000 0.0000 0.0000 0.0000 12.5268 0.0000
# 6 0.0000 0.0000 0.0000 0.0000 0.0000 24.3259
#
#
#
# Elastic Compliance Matrix: (Units=1/GPa)
#
#
# Indices 1 2 3 4 5 6 
#
# 1 0.014965 -0.003037 -0.004809 0.000000 0.000000 0.000000
# 2 -0.003037 0.013537 -0.001847 0.000000 0.000000 0.000000
# 3 -0.004809 -0.001847 0.019152 0.000000 0.000000 0.000000
# 4 0.000000 0.000000 0.000000 0.158943 0.000000 0.000000
# 5 0.000000 0.000000 0.000000 0.000000 0.079829 0.000000
# 6 0.000000 0.000000 0.000000 0.000000 0.000000 0.041108
#
#
# Mechanical properties :
#
#
# Convention : Reuss Voigt Hill
#
# Bulk Modulus (GPa) = 35.37566 36.28097 35.82831
# Shear Modulus (GPa) = 14.03144 19.43910 16.73527
#
# Velocity S-wave (km/s) = 2.54442 2.99485 2.77877
# Velocity P-wave (km/s) = 4.99542 5.35712 5.17943
#
# Compressibility (1/GPa) = 0.02826803
#
# Stress axis : x y z
#
# Youngs Moduli (GPa) = 66.82210 73.87356 52.21424
#
# Poissons Ratio (x) = 0.22434 0.25109
# Poissons Ratio (y) = 0.20293 0.09645
# Poissons Ratio (z) = 0.32134 0.13645
#
# Static dielectric constant tensor:
#      x y z
#    x 1.868860 0.000000 0.000000 
#    y 0.000000 1.900380 0.000000 
#    z 0.000000 0.000000 1.809980 
# 
# From -- ./inp_files/25493.got.cif
#   From: 2010.05.17/outbox.cif.g08.bks.cpg/sg21_13_cif.got.tgz:25493.got - 2010.06.03 23:14:55.
