data_PCOD9323345
_publ_section_title
;
Structure prediction by ZEFSAII (Michael W. Deem and Ramdas Pophale) SiO2 
 PCOD9323345
Probable space group: C 2 2 2
;
_chemical_formula_sum "Si O2"
_cell_formula_units_Z 48
_cell_length_a 26.643591
_cell_length_b 14.771965
_cell_length_c 5.482880
_cell_angle_alpha 90.000000
_cell_angle_beta 90.000000
_cell_angle_gamma 90.000000
_cell_volume 2157.942007
_symmetry_space_group_name_H-M "C 2 2 2"
_symmetry_group_IT_number 21
_symmetry_cell_setting 'orthorhombic'
loop_
_space_group_symop_operation_xyz
x,y,z
-x,-y,z
x,-y,-z
-x,y,-z
1/2+x,1/2+y,z
1/2-x,1/2-y,z
1/2+x,1/2-y,-z
1/2-x,1/2+y,-z
loop_
_atom_site_type_symbol
_atom_site_label
_atom_site_fract_x
_atom_site_fract_y
_atom_site_fract_z
Si Si1 0.676059 0.620439 0.704180
Si Si2 0.067720 0.949634 0.251351
Si Si3 0.303057 0.248989 0.309523
Si Si4 0.136535 0.690541 0.079057
Si Si5 0.530440 0.242263 0.250400
Si Si6 0.784972 0.415599 0.326644
O O1 0.628183 0.558860 0.741310
O O2 0.682921 0.654189 0.423946
O O3 0.662560 0.714296 0.838755
O O4 0.729080 0.579498 0.781418
O O5 0.045460 0.848565 0.257793
O O6 0.053371 0.000000 0.500000
O O7 0.054467 0.000000 0.000000
O O8 0.250000 0.250000 0.158520
O O9 0.286633 0.175935 0.512430
O O10 0.354960 0.207078 0.206900
O O11 0.082803 0.689422 0.204713
O O12 0.170732 0.604541 0.139483
O O13 0.500000 0.220957 0.500000
O O14 0.500000 0.227695 0.000000
O O15 0.793764 0.500000 0.500000
#
# Coordination Sequence:
#
# PCOD9323345 Si02
#       6
#     8   8   8   8   8   8
#     4   9  20  35  58  86 131 170 208 235 294 381
#     4  11  24  39  61  92 134 170 202 253 313 370
#     4   9  18  34  60  85 122 169 210 251 298 379
#     4  10  21  37  62  85 119 159 214 259 316 370
#     4  11  26  43  67  91 115 160 221 272 319 373
#     4  10  20  36  55  92 127 162 200 253 312 380
#
# _framework density 22.243414999999999
#
# number of rings (size 3 to 8) (size 9 to 14) (size 15 to 20)
#    0.000    2.000    0.000    4.000   11.667    2.667 
#    3.000    0.000    0.000    0.500    0.000    0.000 
#    0.000    0.000    0.000    0.000    0.000    0.000 
#
# Total GULP energy -133832.783340 kJ/mol
# GULP energy per Si atom -5576.365972 kJ/mol
# Density = 2.219279 g / cm^3
# Si number density = 22.243415 Si / 1000 Ang^3
#
#
#
# Elastic Constant Matrix: (Units=GPa)
#
#
# Indices 1 2 3 4 5 6 
#
# 1 153.9771 22.1829 57.9163 0.0000 0.0000 0.0000
# 2 22.1829 49.5431 10.0275 0.0000 0.0000 0.0000
# 3 57.9163 10.0275 93.9729 0.0000 0.0000 0.0000
# 4 0.0000 0.0000 0.0000 20.3956 0.0000 0.0000
# 5 0.0000 0.0000 0.0000 0.0000 40.2430 0.0000
# 6 0.0000 0.0000 0.0000 0.0000 0.0000 22.7655
#
#
#
# Elastic Compliance Matrix: (Units=1/GPa)
#
#
# Indices 1 2 3 4 5 6 
#
# 1 0.008850 -0.002922 -0.005142 0.000000 0.000000 0.000000
# 2 -0.002922 0.021595 -0.000504 0.000000 0.000000 0.000000
# 3 -0.005142 -0.000504 0.013864 0.000000 0.000000 0.000000
# 4 0.000000 0.000000 0.000000 0.049030 0.000000 0.000000
# 5 0.000000 0.000000 0.000000 0.000000 0.024849 0.000000
# 6 0.000000 0.000000 0.000000 0.000000 0.000000 0.043926
#
#
# Mechanical properties :
#
#
# Convention : Reuss Voigt Hill
#
# Bulk Modulus (GPa) = 36.80081 53.08295 44.94188
# Shear Modulus (GPa) = 26.55244 30.50526 28.52885
#
# Velocity S-wave (km/s) = 3.45878 3.70730 3.58519
# Velocity P-wave (km/s) = 5.70363 6.49937 6.11446
#
# Compressibility (1/GPa) = 0.02717331
#
# Stress axis : x y z
#
# Youngs Moduli (GPa) = 112.99963 46.30799 72.12739
#
# Poissons Ratio (x) = 0.13529 0.37090
# Poissons Ratio (y) = 0.33014 0.03633
# Poissons Ratio (z) = 0.58108 0.02332
#
# Static dielectric constant tensor:
#      x y z
#    x 1.915440 0.000000 0.000000 
#    y 0.000000 1.766830 0.000000 
#    z 0.000000 0.000000 2.094410 
# 
# From -- ./inp_files/7324.got.cif
#   From: 2010.05.17/outbox.cif.g08.bks.cpg/sg21_4_cif.got.tgz:7324.got - 2010.06.03 23:14:55.
