data_PCOD9323828
_publ_section_title
;
Structure prediction by ZEFSAII (Michael W. Deem and Ramdas Pophale) SiO2 
 PCOD9323828
Probable space group: C 2 2 2
;
_chemical_formula_sum "Si O2"
_cell_formula_units_Z 38
_cell_length_a 15.689031
_cell_length_b 28.993588
_cell_length_c 5.004230
_cell_angle_alpha 90.000000
_cell_angle_beta 90.000000
_cell_angle_gamma 90.000000
_cell_volume 2276.330653
_symmetry_space_group_name_H-M "C 2 2 2"
_symmetry_group_IT_number 21
_symmetry_cell_setting 'orthorhombic'
loop_
_space_group_symop_operation_xyz
x,y,z
-x,-y,z
x,-y,-z
-x,y,-z
1/2+x,1/2+y,z
1/2-x,1/2-y,z
1/2+x,1/2-y,-z
1/2-x,1/2+y,-z
loop_
_atom_site_type_symbol
_atom_site_label
_atom_site_fract_x
_atom_site_fract_y
_atom_site_fract_z
Si Si1 0.153725 0.136145 0.600975
Si Si2 0.500000 0.296146 0.500000
Si Si3 0.908089 0.087561 0.919689
Si Si4 0.804926 0.705970 0.623019
Si Si5 0.581353 0.217287 0.861238
Si Si6 0.000000 0.000000 0.000000
O O1 0.139806 0.114193 0.311068
O O2 0.239718 0.164026 0.651533
O O3 0.076082 0.172968 0.617965
O O4 0.144084 0.094737 0.811033
O O5 0.542714 0.263904 0.727548
O O6 0.000000 0.109110 0.000000
O O7 0.938061 0.035714 0.846660
O O8 0.750000 0.750000 0.525748
O O9 0.873559 0.694556 0.394042
O O10 0.850410 0.720892 0.899057
O O11 0.500000 0.193422 0.000000
#
# Coordination Sequence:
#
# PCOD9323828 Si02
#       6
#     8   4   8   8   8   2
#     4  12  23  35  53  81 110 141 191 241 270 320
#     4  12  22  34  54  67 104 140 200 227 268 324
#     4  10  21  35  55  79 108 146 183 219 268 338
#     4  12  24  35  51  74 106 142 186 244 288 310
#     4  12  23  37  51  68  94 147 193 230 278 329
#     4   8  20  38  60  82 112 150 194 206 292 342
#
# _framework density 16.693532999999999
#
# number of rings (size 3 to 8) (size 9 to 14) (size 15 to 20)
#    0.632    0.000    6.316    1.895    5.895    1.684 
#    0.000    0.000    0.000    0.000    0.000    0.000 
#    0.000    0.000    0.000   66.316    0.000    0.000 
#
# Total GULP energy -105830.818735 kJ/mol
# GULP energy per Si atom -5570.043091 kJ/mol
# Density = 1.665554 g / cm^3
# Si number density = 16.693533 Si / 1000 Ang^3
#
#
#
# Elastic Constant Matrix: (Units=GPa)
#
#
# Indices 1 2 3 4 5 6 
#
# 1 75.5638 27.7370 30.9613 0.0000 0.0000 0.0000
# 2 27.7370 43.5488 15.3423 0.0000 0.0000 0.0000
# 3 30.9613 15.3423 101.1464 0.0000 0.0000 0.0000
# 4 0.0000 0.0000 0.0000 11.2040 0.0000 0.0000
# 5 0.0000 0.0000 0.0000 0.0000 34.5897 0.0000
# 6 0.0000 0.0000 0.0000 0.0000 0.0000 18.4004
#
#
#
# Elastic Compliance Matrix: (Units=1/GPa)
#
#
# Indices 1 2 3 4 5 6 
#
# 1 0.018794 -0.010505 -0.004160 0.000000 0.000000 0.000000
# 2 -0.010505 0.030131 -0.001355 0.000000 0.000000 0.000000
# 3 -0.004160 -0.001355 0.011365 0.000000 0.000000 0.000000
# 4 0.000000 0.000000 0.000000 0.089254 0.000000 0.000000
# 5 0.000000 0.000000 0.000000 0.000000 0.028910 0.000000
# 6 0.000000 0.000000 0.000000 0.000000 0.000000 0.054347
#
#
# Mechanical properties :
#
#
# Convention : Reuss Voigt Hill
#
# Bulk Modulus (GPa) = 35.39584 40.92671 38.16127
# Shear Modulus (GPa) = 18.23106 22.58671 20.40888
#
# Velocity S-wave (km/s) = 3.30828 3.68233 3.50031
# Velocity P-wave (km/s) = 5.98685 6.53063 6.26464
#
# Compressibility (1/GPa) = 0.02825191
#
# Stress axis : x y z
#
# Youngs Moduli (GPa) = 53.20797 33.18866 87.98629
#
# Poissons Ratio (x) = 0.34864 0.36598
# Poissons Ratio (y) = 0.55894 0.11920
# Poissons Ratio (z) = 0.22132 0.04496
#
# Static dielectric constant tensor:
#      x y z
#    x 1.596670 0.000000 0.000000 
#    y 0.000000 1.563520 0.000000 
#    z 0.000000 0.000000 1.595820 
# 
# From -- ./inp_files/4205.got.cif
#   From: 2010.05.17/outbox.cif.g08.bks.cpg/sg21_3_cif.got.tgz:4205.got - 2010.06.03 23:14:55.
