data_PCOD9323367
_publ_section_title
;
Structure prediction by ZEFSAII (Michael W. Deem and Ramdas Pophale) SiO2 
 PCOD9323367
Probable space group: C 2 2 2
;
_chemical_formula_sum "Si O2"
_cell_formula_units_Z 48
_cell_length_a 8.755140
_cell_length_b 14.723987
_cell_length_c 18.444131
_cell_angle_alpha 90.000000
_cell_angle_beta 90.000000
_cell_angle_gamma 90.000000
_cell_volume 2377.643395
_symmetry_space_group_name_H-M "C 2 2 2"
_symmetry_group_IT_number 21
_symmetry_cell_setting 'orthorhombic'
loop_
_space_group_symop_operation_xyz
x,y,z
-x,-y,z
x,-y,-z
-x,y,-z
1/2+x,1/2+y,z
1/2-x,1/2-y,z
1/2+x,1/2-y,-z
1/2-x,1/2+y,-z
loop_
_atom_site_type_symbol
_atom_site_label
_atom_site_fract_x
_atom_site_fract_y
_atom_site_fract_z
Si Si1 0.294376 0.338403 0.169208
Si Si2 0.342284 0.655458 0.203444
Si Si3 0.430619 0.102277 0.573864
Si Si4 0.329965 0.468708 0.651538
Si Si5 0.164726 0.339276 0.323504
Si Si6 0.683926 0.485905 0.081935
O O1 0.250000 0.250000 0.123127
O O2 0.472381 0.335873 0.194097
O O3 0.181274 0.333574 0.237720
O O4 0.259553 0.430283 0.128914
O O5 0.250000 0.750000 0.212152
O O6 0.321925 0.588981 0.273443
O O7 0.288083 0.604320 0.129467
O O8 0.500000 0.142255 0.500000
O O9 0.252012 0.088368 0.587762
O O10 0.498422 0.155947 0.642109
O O11 0.500000 0.000000 0.575791
O O12 0.500000 0.500000 0.636100
O O13 0.243369 0.564847 0.659037
O O14 0.250000 0.250000 0.353009
O O15 0.500000 0.500000 0.079416
O O16 0.740365 0.500000 0.000000
#
# Coordination Sequence:
#
# PCOD9323367 Si02
#       6
#     8   8   8   8   8   8
#     4  10  20  36  59  85 119 156 206 244 300 358
#     4  11  22  36  58  94 118 154 211 254 297 362
#     4   9  21  40  60  87 122 159 201 245 313 372
#     4  11  20  38  63  87 119 156 205 258 296 358
#     4  10  20  37  60  85 118 158 197 251 295 360
#     4   9  18  37  61  85 122 162 195 244 307 361
#
# _framework density 20.188058000000002
#
# number of rings (size 3 to 8) (size 9 to 14) (size 15 to 20)
#    0.000    2.000    3.333    0.500    4.667    0.667 
#    0.000   10.000    0.000    1.000    0.000    0.000 
#    0.000    0.000    0.000    0.000    0.000    0.000 
#
# Total GULP energy -133643.491267 kJ/mol
# GULP energy per Si atom -5568.478803 kJ/mol
# Density = 2.014211 g / cm^3
# Si number density = 20.188058 Si / 1000 Ang^3
#
#
#
# Elastic Constant Matrix: (Units=GPa)
#
#
# Indices 1 2 3 4 5 6 
#
# 1 69.9984 36.4424 55.3960 0.0000 0.0000 0.0000
# 2 36.4424 105.2729 36.0973 0.0000 0.0000 0.0000
# 3 55.3960 36.0973 105.4590 0.0000 0.0000 0.0000
# 4 0.0000 0.0000 0.0000 3.3666 0.0000 0.0000
# 5 0.0000 0.0000 0.0000 0.0000 15.3386 0.0000
# 6 0.0000 0.0000 0.0000 0.0000 0.0000 25.9786
#
#
#
# Elastic Compliance Matrix: (Units=1/GPa)
#
#
# Indices 1 2 3 4 5 6 
#
# 1 0.026588 -0.005002 -0.012254 0.000000 0.000000 0.000000
# 2 -0.005002 0.011703 -0.001378 0.000000 0.000000 0.000000
# 3 -0.012254 -0.001378 0.016391 0.000000 0.000000 0.000000
# 4 0.000000 0.000000 0.000000 0.297036 0.000000 0.000000
# 5 0.000000 0.000000 0.000000 0.000000 0.065195 0.000000
# 6 0.000000 0.000000 0.000000 0.000000 0.000000 0.038493
#
#
# Mechanical properties :
#
#
# Convention : Reuss Voigt Hill
#
# Bulk Modulus (GPa) = 57.42773 59.62240 58.52506
# Shear Modulus (GPa) = 10.03049 19.12307 14.57678
#
# Velocity S-wave (km/s) = 2.23144 3.08108 2.69001
# Velocity P-wave (km/s) = 5.92851 6.50038 6.22102
#
# Compressibility (1/GPa) = 0.01741319
#
# Stress axis : x y z
#
# Youngs Moduli (GPa) = 37.61090 85.44566 61.00885
#
# Poissons Ratio (x) = 0.42741 0.74761
# Poissons Ratio (y) = 0.18814 0.08409
# Poissons Ratio (z) = 0.46089 0.11777
#
# Static dielectric constant tensor:
#      x y z
#    x 1.758270 0.000000 0.000000 
#    y 0.000000 1.889190 0.000000 
#    z 0.000000 0.000000 1.758100 
# 
# From -- ./inp_files/35701.got.cif
#   From: 2010.05.17/outbox.cif.g08.bks.cpg/sg21_18_cif.got.tgz:35701.got - 2010.06.03 23:14:55.
