data_PCOD9323000
_publ_section_title
;
Structure prediction by ZEFSAII (Michael W. Deem and Ramdas Pophale) SiO2 
 PCOD9323000
Probable space group: C 2 2 2
;
_chemical_formula_sum "Si O2"
_cell_formula_units_Z 32
_cell_length_a 20.774167
_cell_length_b 11.221251
_cell_length_c 6.710766
_cell_angle_alpha 90.000000
_cell_angle_beta 90.000000
_cell_angle_gamma 90.000000
_cell_volume 1564.361038
_symmetry_space_group_name_H-M "C 2 2 2"
_symmetry_group_IT_number 21
_symmetry_cell_setting 'orthorhombic'
loop_
_space_group_symop_operation_xyz
x,y,z
-x,-y,z
x,-y,-z
-x,y,-z
1/2+x,1/2+y,z
1/2-x,1/2-y,z
1/2+x,1/2-y,-z
1/2-x,1/2+y,-z
loop_
_atom_site_type_symbol
_atom_site_label
_atom_site_fract_x
_atom_site_fract_y
_atom_site_fract_z
Si Si1 0.178495 0.796084 0.771430
Si Si2 0.589494 0.380884 0.119493
Si Si3 0.066392 0.621481 0.614847
Si Si4 0.142925 0.000000 0.500000
Si Si5 0.500000 0.171721 0.000000
O O1 0.250000 0.750000 0.796997
O O2 0.126334 0.711074 0.655539
O O3 0.183463 0.912544 0.635447
O O4 0.149100 0.834804 0.984697
O O5 0.602156 0.423757 0.342393
O O6 0.543592 0.267232 0.119081
O O7 0.567724 0.500000 0.000000
O O8 0.085738 0.500000 0.500000
O O9 0.000000 0.661106 0.500000
O O10 0.042166 0.601323 0.841115
#
# Coordination Sequence:
#
# PCOD9323000 Si02
#       5
#     8   8   8   4   4
#     4  10  22  38  62  92 127 169 214 265 324 381
#     4   9  19  36  59  91 123 160 206 267 325 386
#     4  10  22  39  62  90 128 170 225 263 316 381
#     4  10  20  38  63  88 123 156 210 260 316 384
#     4  10  19  37  62  90 128 168 207 265 322 372
#
# _framework density 20.455635999999998
#
# number of rings (size 3 to 8) (size 9 to 14) (size 15 to 20)
#    0.000    2.250    0.000    1.875    1.750    3.000 
#    0.000   14.375   33.000    0.000    0.000    0.000 
#    0.000    0.000    0.000    0.000    0.000    0.000 
#
# Total GULP energy -89108.576545 kJ/mol
# GULP energy per Si atom -5569.286034 kJ/mol
# Density = 2.040908 g / cm^3
# Si number density = 20.455636 Si / 1000 Ang^3
#
#
#
# Elastic Constant Matrix: (Units=GPa)
#
#
# Indices 1 2 3 4 5 6 
#
# 1 115.5671 42.6548 33.6999 0.0000 0.0000 0.0000
# 2 42.6548 88.4855 47.1967 0.0000 0.0000 0.0000
# 3 33.6999 47.1967 141.0276 0.0000 0.0000 0.0000
# 4 0.0000 0.0000 0.0000 49.3488 0.0000 0.0000
# 5 0.0000 0.0000 0.0000 0.0000 5.5778 0.0000
# 6 0.0000 0.0000 0.0000 0.0000 0.0000 27.4062
#
#
#
# Elastic Compliance Matrix: (Units=1/GPa)
#
#
# Indices 1 2 3 4 5 6 
#
# 1 0.010642 -0.004593 -0.001006 0.000000 0.000000 0.000000
# 2 -0.004593 0.015740 -0.004170 0.000000 0.000000 0.000000
# 3 -0.001006 -0.004170 0.008727 0.000000 0.000000 0.000000
# 4 0.000000 0.000000 0.000000 0.020264 0.000000 0.000000
# 5 0.000000 0.000000 0.000000 0.000000 0.179282 0.000000
# 6 0.000000 0.000000 0.000000 0.000000 0.000000 0.036488
#
#
# Mechanical properties :
#
#
# Convention : Reuss Voigt Hill
#
# Bulk Modulus (GPa) = 64.22590 65.79813 65.01202
# Shear Modulus (GPa) = 16.89930 31.23514 24.06722
#
# Velocity S-wave (km/s) = 2.87739 3.91189 3.43382
# Velocity P-wave (km/s) = 6.51958 7.25533 6.89728
#
# Compressibility (1/GPa) = 0.01557004
#
# Stress axis : x y z
#
# Youngs Moduli (GPa) = 93.97046 63.53357 114.59189
#
# Poissons Ratio (x) = 0.29184 0.11524
# Poissons Ratio (y) = 0.43165 0.47783
# Poissons Ratio (z) = 0.09450 0.26493
#
# Static dielectric constant tensor:
#      x y z
#    x 1.587840 0.000000 0.000000 
#    y 0.000000 1.784700 0.000000 
#    z 0.000000 0.000000 1.733500 
# 
# From -- ./inp_files/2614.got.cif
#   From: 2010.05.17/outbox.cif.g08.bks.cpg/sg21_2_cif.got.tgz:2614.got - 2010.06.03 23:14:55.
