data_PCOD9323146
_publ_section_title
;
Structure prediction by ZEFSAII (Michael W. Deem and Ramdas Pophale) SiO2 
 PCOD9323146
Probable space group: C 2 2 2
;
_chemical_formula_sum "Si O2"
_cell_formula_units_Z 48
_cell_length_a 11.894629
_cell_length_b 21.230755
_cell_length_c 9.248994
_cell_angle_alpha 90.000000
_cell_angle_beta 90.000000
_cell_angle_gamma 90.000000
_cell_volume 2335.666528
_symmetry_space_group_name_H-M "C 2 2 2"
_symmetry_group_IT_number 21
_symmetry_cell_setting 'orthorhombic'
loop_
_space_group_symop_operation_xyz
x,y,z
-x,-y,z
x,-y,-z
-x,y,-z
1/2+x,1/2+y,z
1/2-x,1/2-y,z
1/2+x,1/2-y,-z
1/2-x,1/2+y,-z
loop_
_atom_site_type_symbol
_atom_site_label
_atom_site_fract_x
_atom_site_fract_y
_atom_site_fract_z
Si Si1 0.911520 0.949766 0.746981
Si Si2 0.072576 0.742978 0.367820
Si Si3 0.630347 0.123237 0.028559
Si Si4 0.130409 0.252710 0.152055
Si Si5 0.249754 0.649420 0.330639
Si Si6 0.500000 0.643587 0.000000
Si Si7 0.736448 0.500000 0.000000
O O1 0.829800 0.910878 0.638607
O O2 0.964986 0.899188 0.862191
O O3 0.836752 0.989527 0.858075
O O4 0.000000 0.000000 0.684686
O O5 0.149412 0.683773 0.419852
O O6 0.158966 0.795067 0.309724
O O7 0.000000 0.769270 0.500000
O O8 0.978458 0.729799 0.247221
O O9 0.651158 0.190442 0.956929
O O10 0.500000 0.110813 0.000000
O O11 0.679469 0.130190 0.189214
O O12 0.693676 0.062598 0.968940
O O13 0.250000 0.250000 0.235422
O O14 0.095979 0.190099 0.063214
#
# Coordination Sequence:
#
# PCOD9323146 Si02
#       7
#     8   8   8   8   8   4   4
#     4  11  20  34  60  94 127 169 202 247 322 397
#     4  11  24  42  62  87 123 172 222 263 327 373
#     4  11  21  36  57  95 131 165 201 248 333 397
#     4  12  24  33  58  93 127 162 202 269 318 390
#     4  10  22  40  64  89 126 163 207 274 316 386
#     4  12  19  36  56  91 136 158 198 254 324 385
#     4  10  20  32  54  88 138 172 196 238 304 422
#
# _framework density 20.550878999999998
#
# number of rings (size 3 to 8) (size 9 to 14) (size 15 to 20)
#    0.000    1.000    5.833    2.250    7.000    0.000 
#    0.000    0.000    0.000    0.500    4.333    4.667 
#    0.000    0.000    0.000    0.000    0.000    0.000 
#
# Total GULP energy -133704.137763 kJ/mol
# GULP energy per Si atom -5571.005740 kJ/mol
# Density = 2.050410 g / cm^3
# Si number density = 20.550879 Si / 1000 Ang^3
#
#
#
# Elastic Constant Matrix: (Units=GPa)
#
#
# Indices 1 2 3 4 5 6 
#
# 1 153.2620 49.0953 10.8152 0.0000 0.0000 0.0000
# 2 49.0953 110.5278 9.1644 0.0000 0.0000 0.0000
# 3 10.8152 9.1644 12.3162 0.0000 0.0000 0.0000
# 4 0.0000 0.0000 0.0000 -12.7341 0.0000 0.0000
# 5 0.0000 0.0000 0.0000 0.0000 4.2464 0.0000
# 6 0.0000 0.0000 0.0000 0.0000 0.0000 -46.7808
#
#
#
# Elastic Compliance Matrix: (Units=1/GPa)
#
#
# Indices 1 2 3 4 5 6 
#
# 1 0.007842 -0.003104 -0.004577 0.000000 0.000000 0.000000
# 2 -0.003104 0.010871 -0.005363 0.000000 0.000000 0.000000
# 3 -0.004577 -0.005363 0.089204 0.000000 0.000000 0.000000
# 4 0.000000 0.000000 0.000000 -0.078529 0.000000 0.000000
# 5 0.000000 0.000000 0.000000 0.000000 0.235496 0.000000
# 6 0.000000 0.000000 0.000000 0.000000 0.000000 -0.021376
#
#
# Mechanical properties :
#
#
# Convention : Reuss Voigt Hill
#
# Bulk Modulus (GPa) = 12.22065 46.02841 29.12453
# Shear Modulus (GPa) = 16.84230 2.74836 9.79533
#
# Velocity S-wave (km/s) = 2.86587 1.15769 2.18557
# Velocity P-wave (km/s) = 4.11222 4.92269 4.53560
#
# Compressibility (1/GPa) = 0.08182869
#
# Stress axis : x y z
#
# Youngs Moduli (GPa) = 127.51818 91.98864 11.21030
#
# Poissons Ratio (x) = 0.28552 0.05131
# Poissons Ratio (y) = 0.39580 0.06012
# Poissons Ratio (z) = 0.58362 0.49337
#
# Static dielectric constant tensor:
#      x y z
#    x 1.846920 0.000000 0.000000 
#    y 0.000000 1.764660 0.000000 
#    z 0.000000 0.000000 1.745880 
# 
# From -- ./inp_files/24211.got.cif
#   From: 2010.05.17/outbox.cif.g08.bks.cpg/sg21_13_cif.got.tgz:24211.got - 2010.06.03 23:14:55.
