data_PCOD9323400
_publ_section_title
;
Structure prediction by ZEFSAII (Michael W. Deem and Ramdas Pophale) SiO2 
 PCOD9323400
Probable space group: C 2 2 2
;
_chemical_formula_sum "Si O2"
_cell_formula_units_Z 52
_cell_length_a 18.857279
_cell_length_b 7.184580
_cell_length_c 17.916295
_cell_angle_alpha 90.000000
_cell_angle_beta 90.000000
_cell_angle_gamma 90.000000
_cell_volume 2427.328842
_symmetry_space_group_name_H-M "C 2 2 2"
_symmetry_group_IT_number 21
_symmetry_cell_setting 'orthorhombic'
loop_
_space_group_symop_operation_xyz
x,y,z
-x,-y,z
x,-y,-z
-x,y,-z
1/2+x,1/2+y,z
1/2-x,1/2-y,z
1/2+x,1/2-y,-z
1/2-x,1/2+y,-z
loop_
_atom_site_type_symbol
_atom_site_label
_atom_site_fract_x
_atom_site_fract_y
_atom_site_fract_z
Si Si1 0.423603 0.087870 0.735932
Si Si2 0.775664 0.043781 0.087149
Si Si3 0.334799 0.235694 0.439004
Si Si4 0.125362 0.821060 0.716553
Si Si5 0.333048 0.198373 0.602572
Si Si6 0.570723 0.428660 0.159986
Si Si7 0.250000 0.750000 0.804533
O O1 0.384018 0.215265 0.673800
O O2 0.430704 0.216868 0.809067
O O3 0.500000 0.000000 0.713105
O O4 0.379528 0.896325 0.740558
O O5 0.750000 0.250000 0.102039
O O6 0.857440 0.030389 0.114617
O O7 0.726732 0.905096 0.135353
O O8 0.770804 0.000000 0.000000
O O9 0.250000 0.250000 0.432736
O O10 0.374621 0.339870 0.372008
O O11 0.352946 0.292264 0.523431
O O12 0.344260 0.018019 0.419973
O O13 0.202410 0.869783 0.748166
O O14 0.072927 0.939100 0.766284
O O15 0.250000 0.250000 0.617674
O O16 0.500000 0.500000 0.119048
#
# Coordination Sequence:
#
# PCOD9323400 Si02
#       7
#     8   8   8   8   8   8   4
#     4  11  22  39  60  85 125 167 212 261 311 372
#     4  11  23  42  68  99 133 161 200 254 315 378
#     4   9  17  33  53  84 122 154 204 267 323 369
#     4  10  20  36  61  89 120 159 207 261 309 366
#     4   9  20  33  54  85 117 161 207 267 321 373
#     4  11  24  41  65  92 123 168 212 253 308 383
#     4  10  20  36  64  98 124 156 198 254 314 368
#
# _framework density 21.422726999999998
#
# number of rings (size 3 to 8) (size 9 to 14) (size 15 to 20)
#    0.000    1.846    3.077    0.923    2.154    2.154 
#    0.000    6.154    0.000    0.923    0.000    0.000 
#    0.000    0.000    0.000    0.000    0.000    0.000 
#
# Total GULP energy -144815.865255 kJ/mol
# GULP energy per Si atom -5569.840971 kJ/mol
# Density = 2.137397 g / cm^3
# Si number density = 21.422727 Si / 1000 Ang^3
#
#
#
# Elastic Constant Matrix: (Units=GPa)
#
#
# Indices 1 2 3 4 5 6 
#
# 1 56.8156 -23.6773 20.3690 0.0000 0.0000 0.0000
# 2 -23.6773 70.4892 13.6562 0.0000 0.0000 0.0000
# 3 20.3690 13.6562 82.4699 0.0000 0.0000 0.0000
# 4 0.0000 0.0000 0.0000 14.8703 0.0000 0.0000
# 5 0.0000 0.0000 0.0000 0.0000 -80.9963 0.0000
# 6 0.0000 0.0000 0.0000 0.0000 0.0000 33.2063
#
#
#
# Elastic Compliance Matrix: (Units=1/GPa)
#
#
# Indices 1 2 3 4 5 6 
#
# 1 0.024355 0.009656 -0.007614 0.000000 0.000000 0.000000
# 2 0.009656 0.018485 -0.005446 0.000000 0.000000 0.000000
# 3 -0.007614 -0.005446 0.014908 0.000000 0.000000 0.000000
# 4 0.000000 0.000000 0.000000 0.067248 0.000000 0.000000
# 5 0.000000 0.000000 0.000000 0.000000 -0.012346 0.000000
# 6 0.000000 0.000000 0.000000 0.000000 0.000000 0.030115
#
#
# Mechanical properties :
#
#
# Convention : Reuss Voigt Hill
#
# Bulk Modulus (GPa) = 19.63125 25.60785 22.61955
# Shear Modulus (GPa) = 30.02060 6.71118 18.36589
#
# Velocity S-wave (km/s) = 3.74751 1.77188 2.93116
# Velocity P-wave (km/s) = 5.28288 4.02065 4.69438
#
# Compressibility (1/GPa) = 0.05093920
#
# Stress axis : x y z
#
# Youngs Moduli (GPa) = 41.06015 54.09794 67.07806
#
# Poissons Ratio (x) = -0.52236 0.51074
# Poissons Ratio (y) = -0.39647 0.36529
# Poissons Ratio (z) = 0.31264 0.29461
#
# Static dielectric constant tensor:
#      x y z
#    x 1.961280 0.000000 0.000000 
#    y 0.000000 2.112730 0.000000 
#    z 0.000000 0.000000 1.786300 
# 
# From -- ./inp_files/33230.got.cif
#   From: 2010.05.17/outbox.cif.g08.bks.cpg/sg21_17_cif.got.tgz:33230.got - 2010.06.03 23:14:55.
