data_PCOD9323326
_publ_section_title
;
Structure prediction by ZEFSAII (Michael W. Deem and Ramdas Pophale) SiO2 
 PCOD9323326
Probable space group: C 2 2 2
;
_chemical_formula_sum "Si O2"
_cell_formula_units_Z 32
_cell_length_a 10.493858
_cell_length_b 20.316511
_cell_length_c 7.497423
_cell_angle_alpha 90.000000
_cell_angle_beta 90.000000
_cell_angle_gamma 90.000000
_cell_volume 1598.439948
_symmetry_space_group_name_H-M "C 2 2 2"
_symmetry_group_IT_number 21
_symmetry_cell_setting 'orthorhombic'
loop_
_space_group_symop_operation_xyz
x,y,z
-x,-y,z
x,-y,-z
-x,y,-z
1/2+x,1/2+y,z
1/2-x,1/2-y,z
1/2+x,1/2-y,-z
1/2-x,1/2+y,-z
loop_
_atom_site_type_symbol
_atom_site_label
_atom_site_fract_x
_atom_site_fract_y
_atom_site_fract_z
Si Si1 0.796074 0.924002 0.480744
Si Si2 0.616824 0.759938 0.900906
Si Si3 0.981938 0.885292 0.796666
Si Si4 0.854349 0.302442 0.477719
O O1 0.869318 0.909708 0.667620
O O2 0.679340 0.874307 0.454231
O O3 0.894548 0.904789 0.321275
O O4 0.761777 0.000000 0.500000
O O5 0.750000 0.750000 0.006519
O O6 0.552565 0.692122 0.827366
O O7 0.661527 0.802757 0.735054
O O8 0.500000 0.793592 0.000000
O O9 0.000000 0.911003 0.000000
O O10 0.750000 0.250000 0.546122
O O11 0.000000 0.281887 0.500000
#
# Coordination Sequence:
#
# PCOD9323326 Si02
#       4
#     8   8   8   8
#     4  11  23  39  62  95 129 169 215 265 318 383
#     4  10  20  35  60  91 127 157 209 263 318 377
#     4  10  20  38  65  93 126 167 216 264 314 375
#     4  11  22  40  63  89 126 164 211 260 323 379
#
# _framework density 20.01952
#
# number of rings (size 3 to 8) (size 9 to 14) (size 15 to 20)
#    0.000    1.500    5.000    3.000    0.000    7.500 
#    0.000    0.000    0.000    0.000    0.000    0.000 
#    0.000    0.000    0.000    0.000    0.000    0.000 
#
# Total GULP energy -89067.698839 kJ/mol
# GULP energy per Si atom -5566.731177 kJ/mol
# Density = 1.997395 g / cm^3
# Si number density = 20.019520 Si / 1000 Ang^3
#
#
#
# Elastic Constant Matrix: (Units=GPa)
#
#
# Indices 1 2 3 4 5 6 
#
# 1 140.7811 36.2709 18.2294 0.0000 0.0000 0.0000
# 2 36.2709 114.1900 13.4339 0.0000 0.0000 0.0000
# 3 18.2294 13.4339 102.3827 0.0000 0.0000 0.0000
# 4 0.0000 0.0000 0.0000 -55.5584 0.0000 0.0000
# 5 0.0000 0.0000 0.0000 0.0000 24.6258 0.0000
# 6 0.0000 0.0000 0.0000 0.0000 0.0000 19.6221
#
#
#
# Elastic Compliance Matrix: (Units=1/GPa)
#
#
# Indices 1 2 3 4 5 6 
#
# 1 0.007854 -0.002367 -0.001088 0.000000 0.000000 0.000000
# 2 -0.002367 0.009608 -0.000839 0.000000 0.000000 0.000000
# 3 -0.001088 -0.000839 0.010071 0.000000 0.000000 0.000000
# 4 0.000000 0.000000 0.000000 -0.017999 0.000000 0.000000
# 5 0.000000 0.000000 0.000000 0.000000 0.040608 0.000000
# 6 0.000000 0.000000 0.000000 0.000000 0.000000 0.050963
#
#
# Mechanical properties :
#
#
# Convention : Reuss Voigt Hill
#
# Bulk Modulus (GPa) = 52.78399 54.80245 53.79322
# Shear Modulus (GPa) = 43.10082 17.03254 30.06668
#
# Velocity S-wave (km/s) = 4.64501 2.92001 3.87960
# Velocity P-wave (km/s) = 7.42911 6.22917 6.85544
#
# Compressibility (1/GPa) = 0.01894514
#
# Stress axis : x y z
#
# Youngs Moduli (GPa) = 127.32613 104.08186 99.29407
#
# Poissons Ratio (x) = 0.24633 0.10802
# Poissons Ratio (y) = 0.30134 0.08333
# Poissons Ratio (z) = 0.13851 0.08735
#
# Static dielectric constant tensor:
#      x y z
#    x 1.921520 0.000000 0.000000 
#    y 0.000000 1.718750 0.000000 
#    z 0.000000 0.000000 1.792820 
# 
# From -- ./inp_files/12589.got.cif
#   From: 2010.05.17/outbox.cif.g08.bks.cpg/sg21_7_cif.got.tgz:12589.got - 2010.06.03 23:14:55.
