data_PCOD9323790
_publ_section_title
;
Structure prediction by ZEFSAII (Michael W. Deem and Ramdas Pophale) SiO2 
 PCOD9323790
Probable space group: C 2 2 2
;
_chemical_formula_sum "Si O2"
_cell_formula_units_Z 48
_cell_length_a 20.527125
_cell_length_b 15.036524
_cell_length_c 8.289452
_cell_angle_alpha 90.000000
_cell_angle_beta 90.000000
_cell_angle_gamma 90.000000
_cell_volume 2558.594134
_symmetry_space_group_name_H-M "C 2 2 2"
_symmetry_group_IT_number 21
_symmetry_cell_setting 'orthorhombic'
loop_
_space_group_symop_operation_xyz
x,y,z
-x,-y,z
x,-y,-z
-x,y,-z
1/2+x,1/2+y,z
1/2-x,1/2-y,z
1/2+x,1/2-y,-z
1/2-x,1/2+y,-z
loop_
_atom_site_type_symbol
_atom_site_label
_atom_site_fract_x
_atom_site_fract_y
_atom_site_fract_z
Si Si1 0.161290 0.389186 0.165468
Si Si2 0.075271 0.472469 0.678306
Si Si3 0.821902 0.784227 0.308488
Si Si4 0.196467 0.143473 0.668739
Si Si5 0.693720 0.537938 0.179357
Si Si6 0.340961 0.178189 0.799700
O O1 0.110731 0.467425 0.189511
O O2 0.140293 0.307264 0.281337
O O3 0.231030 0.433179 0.207897
O O4 0.164415 0.351312 0.984990
O O5 0.100017 0.500000 0.500000
O O6 0.098382 0.372371 0.717796
O O7 0.000000 0.500000 0.682863
O O8 0.750000 0.750000 0.254535
O O9 0.815334 0.820688 0.489112
O O10 0.843417 0.869253 0.205446
O O11 0.273546 0.148738 0.711446
O O12 0.160296 0.215333 0.782049
O O13 0.176063 0.042479 0.701534
O O14 0.688372 0.500000 0.000000
#
# Coordination Sequence:
#
# PCOD9323790 Si02
#       6
#     8   8   8   8   8   8
#     4  11  21  35  52  76 108 145 182 229 271 325
#     4  11  24  39  57  80 108 148 192 232 275 324
#     4  10  21  30  48  73 102 144 176 214 271 332
#     4  11  20  33  50  77 107 144 179 221 278 333
#     4  11  19  30  48  75 107 141 174 215 266 329
#     4  11  21  34  52  77 105 143 183 223 275 327
#
# _framework density 18.760303
#
# number of rings (size 3 to 8) (size 9 to 14) (size 15 to 20)
#    0.000    1.167    5.000    3.000    7.000    1.333 
#    0.000    0.000    0.000    0.000    0.000    1.167 
#    0.000    9.333    0.000    0.000    0.000    0.000 
#
# Total GULP energy -133875.059874 kJ/mol
# GULP energy per Si atom -5578.127495 kJ/mol
# Density = 1.871760 g / cm^3
# Si number density = 18.760303 Si / 1000 Ang^3
#
#
#
# Elastic Constant Matrix: (Units=GPa)
#
#
# Indices 1 2 3 4 5 6 
#
# 1 30.5920 7.4223 9.4119 0.0000 0.0000 0.0000
# 2 7.4223 140.0980 43.6799 0.0000 0.0000 0.0000
# 3 9.4119 43.6799 93.2204 0.0000 0.0000 0.0000
# 4 0.0000 0.0000 0.0000 36.7502 0.0000 0.0000
# 5 0.0000 0.0000 0.0000 0.0000 13.0679 0.0000
# 6 0.0000 0.0000 0.0000 0.0000 0.0000 17.6866
#
#
#
# Elastic Compliance Matrix: (Units=1/GPa)
#
#
# Indices 1 2 3 4 5 6 
#
# 1 0.033823 -0.000852 -0.003016 0.000000 0.000000 0.000000
# 2 -0.000852 0.008380 -0.003841 0.000000 0.000000 0.000000
# 3 -0.003016 -0.003841 0.012831 0.000000 0.000000 0.000000
# 4 0.000000 0.000000 0.000000 0.027211 0.000000 0.000000
# 5 0.000000 0.000000 0.000000 0.000000 0.076523 0.000000
# 6 0.000000 0.000000 0.000000 0.000000 0.000000 0.056540
#
#
# Mechanical properties :
#
#
# Convention : Reuss Voigt Hill
#
# Bulk Modulus (GPa) = 25.24102 42.77098 34.00600
# Shear Modulus (GPa) = 20.49758 27.06069 23.77913
#
# Velocity S-wave (km/s) = 3.30904 3.80207 3.56409
# Velocity P-wave (km/s) = 5.29937 6.49018 5.92477
#
# Compressibility (1/GPa) = 0.03961805
#
# Stress axis : x y z
#
# Youngs Moduli (GPa) = 29.56592 119.32500 77.93360
#
# Poissons Ratio (x) = 0.10162 0.23503
# Poissons Ratio (y) = 0.02518 0.29933
# Poissons Ratio (z) = 0.08917 0.45831
#
# Static dielectric constant tensor:
#      x y z
#    x 1.644740 0.000000 0.000000 
#    y 0.000000 1.731740 0.000000 
#    z 0.000000 0.000000 1.706040 
# 
# From -- ./inp_files/14957.got.cif
#   From: 2010.05.17/outbox.cif.g08.bks.cpg/sg21_8_cif.got.tgz:14957.got - 2010.06.03 23:14:55.
