data_PCOD9323354
_publ_section_title
;
Structure prediction by ZEFSAII (Michael W. Deem and Ramdas Pophale) SiO2 
 PCOD9323354
Probable space group: C 2 2 2
;
_chemical_formula_sum "Si O2"
_cell_formula_units_Z 64
_cell_length_a 23.002499
_cell_length_b 16.892387
_cell_length_c 7.610925
_cell_angle_alpha 90.000000
_cell_angle_beta 90.000000
_cell_angle_gamma 90.000000
_cell_volume 2957.355170
_symmetry_space_group_name_H-M "C 2 2 2"
_symmetry_group_IT_number 21
_symmetry_cell_setting 'orthorhombic'
loop_
_space_group_symop_operation_xyz
x,y,z
-x,-y,z
x,-y,-z
-x,y,-z
1/2+x,1/2+y,z
1/2-x,1/2-y,z
1/2+x,1/2-y,-z
1/2-x,1/2+y,-z
loop_
_atom_site_type_symbol
_atom_site_label
_atom_site_fract_x
_atom_site_fract_y
_atom_site_fract_z
Si Si1 0.135898 0.655045 0.704792
Si Si2 0.738422 0.592083 0.213253
Si Si3 0.932584 0.499965 0.714876
Si Si4 0.381125 0.332999 0.796630
Si Si5 0.500007 0.407677 0.214915
Si Si6 0.364150 0.844973 0.294847
Si Si7 0.738435 0.592235 0.787055
Si Si8 0.381104 0.666937 0.796323
O O1 0.204063 0.636343 0.723252
O O2 0.100661 0.579102 0.774784
O O3 0.121425 0.663097 0.499834
O O4 0.120750 0.738488 0.789769
O O5 0.740845 0.499908 0.264441
O O6 0.678799 0.631767 0.278575
O O7 0.739749 0.595985 0.000159
O O8 0.929939 0.500000 0.500000
O O9 0.899314 0.578987 0.774943
O O10 0.000000 0.500000 0.765708
O O11 0.440959 0.366505 0.720362
O O12 0.379408 0.238418 0.790202
O O13 0.321167 0.368011 0.721766
O O14 0.380668 0.358839 0.000130
O O15 0.500000 0.500000 0.259206
O O16 0.440998 0.366471 0.279752
O O17 0.500000 0.401461 0.000000
O O18 0.295968 0.863503 0.276253
#
# Coordination Sequence:
#
# PCOD9323354 Si02
#       8
#     8   8   8   8   8   8   8   8
#     4  11  22  37  58  83 111 146 188 229 276 330
#     4  10  20  36  58  82 112 148 185 227 277 328
#     4   9  20  38  57  77 107 148 187 224 270 331
#     4  10  21  36  57  85 114 145 184 230 278 328
#     4   9  18  36  61  86 113 146 188 230 272 327
#     4  11  22  37  58  83 111 146 188 229 276 330
#     4  10  20  36  58  82 112 148 185 227 277 328
#     4  10  21  36  57  85 114 145 184 230 278 328
#
# _framework density 21.64096
#
# number of rings (size 3 to 8) (size 9 to 14) (size 15 to 20)
#    0.000    2.000    1.250    2.250    1.750    7.000 
#    0.000    0.000    0.000    6.000    0.000    0.000 
#    0.000    0.000    0.000    0.000    0.000    0.000 
#
# Total GULP energy -178862.604085 kJ/mol
# GULP energy per Si atom -5589.456378 kJ/mol
# Density = 2.159170 g / cm^3
# Si number density = 21.640960 Si / 1000 Ang^3
#
#
#
# Elastic Constant Matrix: (Units=GPa)
#
#
# Indices 1 2 3 4 5 6 
#
# 1 198.9438 82.9719 -9.9786 0.0000 0.0000 0.0000
# 2 82.9719 120.1912 -17.1310 0.0000 0.0000 0.0000
# 3 -9.9786 -17.1310 42.2831 0.0000 0.0000 0.0000
# 4 0.0000 0.0000 0.0000 -28.7866 0.0000 0.0000
# 5 0.0000 0.0000 0.0000 0.0000 81.8171 0.0000
# 6 0.0000 0.0000 0.0000 0.0000 0.0000 16.1501
#
#
#
# Elastic Compliance Matrix: (Units=1/GPa)
#
#
# Indices 1 2 3 4 5 6 
#
# 1 0.007063 -0.004923 -0.000328 0.000000 0.000000 0.000000
# 2 -0.004923 0.012261 0.003806 0.000000 0.000000 0.000000
# 3 -0.000328 0.003806 0.025115 0.000000 0.000000 0.000000
# 4 0.000000 0.000000 0.000000 -0.034738 0.000000 0.000000
# 5 0.000000 0.000000 0.000000 0.000000 0.012222 0.000000
# 6 0.000000 0.000000 0.000000 0.000000 0.000000 0.061919
#
#
# Mechanical properties :
#
#
# Convention : Reuss Voigt Hill
#
# Bulk Modulus (GPa) = 24.06748 52.57141 38.31945
# Shear Modulus (GPa) = 49.71148 34.20652 41.95900
#
# Velocity S-wave (km/s) = 4.79801 3.98004 4.40804
# Velocity P-wave (km/s) = 6.46838 6.74286 6.60705
#
# Compressibility (1/GPa) = 0.04154984
#
# Stress axis : x y z
#
# Youngs Moduli (GPa) = 141.57992 81.56108 39.81727
#
# Poissons Ratio (x) = 0.40149 0.01304
# Poissons Ratio (y) = 0.69694 -0.15153
# Poissons Ratio (z) = 0.04637 -0.31040
#
# Static dielectric constant tensor:
#      x y z
#    x 1.760750 0.000000 0.000000 
#    y 0.000000 1.728740 0.000000 
#    z 0.000000 0.000000 1.825590 
# 
# From -- ./inp_files/18629.got.cif
#   From: 2010.05.17/outbox.cif.g08.bks.cpg/sg21_10_cif.got.tgz:18629.got - 2010.06.03 23:14:55.
