data_PCOD9323896
_publ_section_title
;
Structure prediction by ZEFSAII (Michael W. Deem and Ramdas Pophale) SiO2 
 PCOD9323896
Probable space group: C 2 2 2
;
_chemical_formula_sum "Si O2"
_cell_formula_units_Z 56
_cell_length_a 30.179647
_cell_length_b 17.005008
_cell_length_c 5.305593
_cell_angle_alpha 90.000000
_cell_angle_beta 90.000000
_cell_angle_gamma 90.000000
_cell_volume 2722.857591
_symmetry_space_group_name_H-M "C 2 2 2"
_symmetry_group_IT_number 21
_symmetry_cell_setting 'orthorhombic'
loop_
_space_group_symop_operation_xyz
x,y,z
-x,-y,z
x,-y,-z
-x,y,-z
1/2+x,1/2+y,z
1/2-x,1/2-y,z
1/2+x,1/2-y,-z
1/2-x,1/2+y,-z
loop_
_atom_site_type_symbol
_atom_site_label
_atom_site_fract_x
_atom_site_fract_y
_atom_site_fract_z
Si Si1 0.637273 0.791622 0.106723
Si Si2 0.954116 0.762081 0.932798
Si Si3 0.145069 0.869209 0.565529
Si Si4 0.453196 0.634674 0.565109
Si Si5 0.271294 0.422964 0.168954
Si Si6 0.673909 0.049421 0.736064
Si Si7 0.292159 0.284921 0.805640
O O1 0.640161 0.712425 0.275895
O O2 0.645323 0.871830 0.248836
O O3 0.589958 0.787152 0.974260
O O4 0.677977 0.784638 0.913194
O O5 0.953438 0.797114 0.650974
O O6 0.954200 0.831267 0.149147
O O7 0.000000 0.719246 0.000000
O O8 0.095668 0.902403 0.532613
O O9 0.181300 0.923992 0.695253
O O10 0.171366 0.840740 0.320847
O O11 0.500000 0.592608 0.500000
O O12 0.225337 0.426677 0.319477
O O13 0.270114 0.500000 0.000000
O O14 0.271103 0.340731 0.018183
O O15 0.658121 0.000000 0.500000
O O16 0.672186 0.000000 0.000000
O O17 0.250000 0.250000 0.655083
#
# Coordination Sequence:
#
# PCOD9323896 Si02
#       7
#     8   8   8   8   8   8   8
#     4  10  21  37  54  85 120 148 193 248 291 350
#     4   9  17  31  55  84 115 145 182 237 296 345
#     4  10  22  32  58  85 113 152 192 243 298 344
#     4   9  17  32  52  84 119 142 181 237 296 350
#     4  10  24  38  52  79 119 158 200 236 287 352
#     4  11  26  40  57  80 116 164 199 235 289 350
#     4  11  21  34  57  86 115 150 196 247 297 340
#
# _framework density 20.566627
#
# number of rings (size 3 to 8) (size 9 to 14) (size 15 to 20)
#    0.000    2.000    2.857    0.000    8.000    0.000 
#    0.000    0.000    0.000    0.429    0.000    4.000 
#    0.000    0.000    0.000    0.000    0.000    0.000 
#
# Total GULP energy -156062.286719 kJ/mol
# GULP energy per Si atom -5573.653097 kJ/mol
# Density = 2.051982 g / cm^3
# Si number density = 20.566627 Si / 1000 Ang^3
#
#
#
# Elastic Constant Matrix: (Units=GPa)
#
#
# Indices 1 2 3 4 5 6 
#
# 1 138.4288 24.9097 8.9717 0.0000 0.0000 0.0000
# 2 24.9097 63.6092 11.7701 0.0000 0.0000 0.0000
# 3 8.9717 11.7701 64.4318 0.0000 0.0000 0.0000
# 4 0.0000 0.0000 0.0000 19.7212 0.0000 0.0000
# 5 0.0000 0.0000 0.0000 0.0000 16.2263 0.0000
# 6 0.0000 0.0000 0.0000 0.0000 0.0000 27.3699
#
#
#
# Elastic Compliance Matrix: (Units=1/GPa)
#
#
# Indices 1 2 3 4 5 6 
#
# 1 0.007790 -0.002950 -0.000546 0.000000 0.000000 0.000000
# 2 -0.002950 0.017388 -0.002766 0.000000 0.000000 0.000000
# 3 -0.000546 -0.002766 0.016102 0.000000 0.000000 0.000000
# 4 0.000000 0.000000 0.000000 0.050707 0.000000 0.000000
# 5 0.000000 0.000000 0.000000 0.000000 0.061629 0.000000
# 6 0.000000 0.000000 0.000000 0.000000 0.000000 0.036536
#
#
# Mechanical properties :
#
#
# Convention : Reuss Voigt Hill
#
# Bulk Modulus (GPa) = 34.77397 39.75254 37.26325
# Shear Modulus (GPa) = 23.55609 27.38468 25.47038
#
# Velocity S-wave (km/s) = 3.38798 3.65295 3.52296
# Velocity P-wave (km/s) = 5.67884 6.09612 5.89117
#
# Compressibility (1/GPa) = 0.02875715
#
# Stress axis : x y z
#
# Youngs Moduli (GPa) = 128.36834 57.51148 62.10596
#
# Poissons Ratio (x) = 0.16964 0.03390
# Poissons Ratio (y) = 0.37864 0.17176
# Poissons Ratio (z) = 0.07008 0.15906
#
# Static dielectric constant tensor:
#      x y z
#    x 1.787030 0.000000 0.000000 
#    y 0.000000 1.756310 0.000000 
#    z 0.000000 0.000000 1.767910 
# 
# From -- ./inp_files/8042.got.cif
#   From: 2010.05.17/outbox.cif.g08.bks.cpg/sg21_5_cif.got.tgz:8042.got - 2010.06.03 23:14:55.
