data_PCOD9323206
_publ_section_title
;
Structure prediction by ZEFSAII (Michael W. Deem and Ramdas Pophale) SiO2 
 PCOD9323206
Probable space group: C 2 2 2
;
_chemical_formula_sum "Si O2"
_cell_formula_units_Z 64
_cell_length_a 11.225468
_cell_length_b 18.618464
_cell_length_c 14.934390
_cell_angle_alpha 90.000000
_cell_angle_beta 90.000000
_cell_angle_gamma 90.000000
_cell_volume 3121.302024
_symmetry_space_group_name_H-M "C 2 2 2"
_symmetry_group_IT_number 21
_symmetry_cell_setting 'orthorhombic'
loop_
_space_group_symop_operation_xyz
x,y,z
-x,-y,z
x,-y,-z
-x,y,-z
1/2+x,1/2+y,z
1/2-x,1/2-y,z
1/2+x,1/2-y,-z
1/2-x,1/2+y,-z
loop_
_atom_site_type_symbol
_atom_site_label
_atom_site_fract_x
_atom_site_fract_y
_atom_site_fract_z
Si Si1 0.373226 0.008896 0.797844
Si Si2 0.535708 0.421993 0.604105
Si Si3 0.333802 0.310943 0.162573
Si Si4 0.870478 0.028020 0.898816
Si Si5 0.289719 0.885866 0.673644
Si Si6 0.065249 0.204662 0.724380
Si Si7 0.819923 0.648755 0.693089
Si Si8 0.858872 0.416323 0.496142
O O1 0.373521 0.085524 0.751420
O O2 0.500000 0.000000 0.847770
O O3 0.248274 0.000562 0.849694
O O4 0.366504 0.947515 0.721171
O O5 0.500000 0.500000 0.639060
O O6 0.500000 0.418320 0.500000
O O7 0.672584 0.420617 0.630721
O O8 0.483742 0.352964 0.653868
O O9 0.250000 0.250000 0.117349
O O10 0.357808 0.385464 0.109810
O O11 0.254044 0.332459 0.249854
O O12 0.464884 0.288794 0.198451
O O13 0.000000 0.000000 0.862556
O O14 0.866234 0.000000 0.000000
O O15 0.344738 0.861709 0.580584
O O16 0.092445 0.283610 0.687909
O O17 0.197477 0.173053 0.741632
O O18 0.803640 0.618205 0.592976
O O19 0.814345 0.500000 0.500000
O O20 0.000000 0.424364 0.500000
#
# Coordination Sequence:
#
# PCOD9323206 Si02
#       8
#     8   8   8   8   8   8   8   8
#     4  11  22  37  67  97 131 173 226 274 338 411
#     4  10  20  34  55  77 112 158 227 288 333 380
#     4  10  23  42  71  97 136 173 225 272 342 420
#     4  10  23  46  79 108 135 173 221 278 341 428
#     4  10  21  36  54  86 119 175 226 281 327 391
#     4  10  23  38  55  92 123 173 215 273 344 395
#     4  11  22  37  59  85 137 175 225 284 339 398
#     4  11  22  34  52  80 122 173 235 286 335 392
#
# _framework density 20.504265
#
# number of rings (size 3 to 8) (size 9 to 14) (size 15 to 20)
#    0.000    1.625    1.250    3.000    7.000    4.250 
#    4.500    0.000    8.250    0.000    0.000    0.000 
#    0.000    0.000    0.000    0.000    0.000    0.000 
#
# Total GULP energy -178260.120409 kJ/mol
# GULP energy per Si atom -5570.628763 kJ/mol
# Density = 2.045760 g / cm^3
# Si number density = 20.504265 Si / 1000 Ang^3
#
#
#
# Elastic Constant Matrix: (Units=GPa)
#
#
# Indices 1 2 3 4 5 6 
#
# 1 130.5363 45.5812 26.1427 0.0000 0.0000 0.0000
# 2 45.5812 112.6437 25.1429 0.0000 0.0000 0.0000
# 3 26.1427 25.1429 56.3800 0.0000 0.0000 0.0000
# 4 0.0000 0.0000 0.0000 -117.3387 0.0000 0.0000
# 5 0.0000 0.0000 0.0000 0.0000 -83.0146 0.0000
# 6 0.0000 0.0000 0.0000 0.0000 0.0000 54.0475
#
#
#
# Elastic Compliance Matrix: (Units=1/GPa)
#
#
# Indices 1 2 3 4 5 6 
#
# 1 0.009340 -0.003124 -0.002938 0.000000 0.000000 0.000000
# 2 -0.003124 0.010904 -0.003414 0.000000 0.000000 0.000000
# 3 -0.002938 -0.003414 0.020622 0.000000 0.000000 0.000000
# 4 0.000000 0.000000 0.000000 -0.008522 0.000000 0.000000
# 5 0.000000 0.000000 0.000000 0.000000 -0.012046 0.000000
# 6 0.000000 0.000000 0.000000 0.000000 0.000000 0.018502
#
#
# Mechanical properties :
#
#
# Convention : Reuss Voigt Hill
#
# Bulk Modulus (GPa) = 45.63309 54.81039 50.22174
# Shear Modulus (GPa) = 76.85894 -15.74828 30.55533
#
# Velocity S-wave (km/s) = 6.12909 -2.77438 3.86449
# Velocity P-wave (km/s) = 8.50831 4.06526 6.66775
#
# Compressibility (1/GPa) = 0.02191392
#
# Stress axis : x y z
#
# Youngs Moduli (GPa) = 107.06910 91.71313 48.49304
#
# Poissons Ratio (x) = 0.28648 0.14246
# Poissons Ratio (y) = 0.33444 0.16556
# Poissons Ratio (z) = 0.31454 0.31312
#
# Static dielectric constant tensor:
#      x y z
#    x 1.812780 0.000000 0.000000 
#    y 0.000000 1.748770 0.000000 
#    z 0.000000 0.000000 1.241190 
# 
# From -- ./inp_files/31776.got.cif
#   From: 2010.05.17/outbox.cif.g08.bks.cpg/sg21_16_cif.got.tgz:31776.got - 2010.06.03 23:14:55.
