data_PCOD9323300
_publ_section_title
;
Structure prediction by ZEFSAII (Michael W. Deem and Ramdas Pophale) SiO2 
 PCOD9323300
Probable space group: C 2 2 2
;
_chemical_formula_sum "Si O2"
_cell_formula_units_Z 22
_cell_length_a 16.912773
_cell_length_b 11.049538
_cell_length_c 5.137347
_cell_angle_alpha 90.000000
_cell_angle_beta 90.000000
_cell_angle_gamma 90.000000
_cell_volume 960.058817
_symmetry_space_group_name_H-M "C 2 2 2"
_symmetry_group_IT_number 21
_symmetry_cell_setting 'orthorhombic'
loop_
_space_group_symop_operation_xyz
x,y,z
-x,-y,z
x,-y,-z
-x,y,-z
1/2+x,1/2+y,z
1/2-x,1/2-y,z
1/2+x,1/2-y,-z
1/2-x,1/2+y,-z
loop_
_atom_site_type_symbol
_atom_site_label
_atom_site_fract_x
_atom_site_fract_y
_atom_site_fract_z
Si Si1 0.663995 0.312953 0.859082
Si Si2 0.000000 0.500000 0.500000
Si Si3 0.234795 0.000000 0.500000
Si Si4 0.625333 0.180335 0.358496
O O1 0.750000 0.250000 0.868405
O O2 0.682630 0.441948 0.728881
O O3 0.615207 0.241380 0.639262
O O4 0.627995 0.282304 0.138160
O O5 0.056852 0.582895 0.325865
O O6 0.292689 0.897065 0.379039
#
# Coordination Sequence:
#
# PCOD9323300 Si02
#       4
#     8   2   4   8
#     4  10  20  35  57  91 124 159 204 251 311 369
#     4  10  24  42  60  88 132 172 204 252 304 362
#     4   9  20  37  60  89 130 161 198 266 320 353
#     4  10  22  36  59  90 124 165 207 248 304 375
#
# _framework density 22.915261999999998
#
# number of rings (size 3 to 8) (size 9 to 14) (size 15 to 20)
#    0.000    2.182    0.000    3.273    0.000   23.273 
#    0.000    0.000    0.000    1.091    0.000   20.364 
#    0.000    0.000    0.000    0.000    0.000    0.000 
#
# Total GULP energy -61465.932210 kJ/mol
# GULP energy per Si atom -5587.812019 kJ/mol
# Density = 2.286311 g / cm^3
# Si number density = 22.915262 Si / 1000 Ang^3
#
#
#
# Elastic Constant Matrix: (Units=GPa)
#
#
# Indices 1 2 3 4 5 6 
#
# 1 60.7133 33.2916 28.9640 0.0000 0.0000 0.0000
# 2 33.2916 106.7828 43.8785 0.0000 0.0000 0.0000
# 3 28.9640 43.8785 141.5018 0.0000 0.0000 0.0000
# 4 0.0000 0.0000 0.0000 48.8418 0.0000 0.0000
# 5 0.0000 0.0000 0.0000 0.0000 5.6916 0.0000
# 6 0.0000 0.0000 0.0000 0.0000 0.0000 44.6350
#
#
#
# Elastic Compliance Matrix: (Units=1/GPa)
#
#
# Indices 1 2 3 4 5 6 
#
# 1 0.020643 -0.005386 -0.002555 0.000000 0.000000 0.000000
# 2 -0.005386 0.012138 -0.002661 0.000000 0.000000 0.000000
# 3 -0.002555 -0.002661 0.008415 0.000000 0.000000 0.000000
# 4 0.000000 0.000000 0.000000 0.020474 0.000000 0.000000
# 5 0.000000 0.000000 0.000000 0.000000 0.175699 0.000000
# 6 0.000000 0.000000 0.000000 0.000000 0.000000 0.022404
#
#
# Mechanical properties :
#
#
# Convention : Reuss Voigt Hill
#
# Bulk Modulus (GPa) = 50.02249 57.91846 53.97047
# Shear Modulus (GPa) = 17.38272 33.35793 25.37032
#
# Velocity S-wave (km/s) = 2.75719 3.81951 3.33098
# Velocity P-wave (km/s) = 5.65799 6.69190 6.19655
#
# Compressibility (1/GPa) = 0.01999101
#
# Stress axis : x y z
#
# Youngs Moduli (GPa) = 48.44211 82.38914 118.83051
#
# Poissons Ratio (x) = 0.44374 0.30365
# Poissons Ratio (y) = 0.26090 0.31624
# Poissons Ratio (z) = 0.12379 0.21926
#
# Static dielectric constant tensor:
#      x y z
#    x 1.849180 0.000000 0.000000 
#    y 0.000000 1.953040 0.000000 
#    z 0.000000 0.000000 1.879120 
# 
# From -- ./inp_files/181.got.cif
#   From: 2010.05.17/outbox.cif.g08.bks.cpg/sg21_1_cif.got.tgz:181.got - 2010.06.03 23:14:55.
