data_PCOD9323144
_publ_section_title
;
Structure prediction by ZEFSAII (Michael W. Deem and Ramdas Pophale) SiO2 
 PCOD9323144
Probable space group: C 2 2 2
;
_chemical_formula_sum "Si O2"
_cell_formula_units_Z 40
_cell_length_a 25.966603
_cell_length_b 8.674565
_cell_length_c 8.963054
_cell_angle_alpha 90.000000
_cell_angle_beta 90.000000
_cell_angle_gamma 90.000000
_cell_volume 2018.918821
_symmetry_space_group_name_H-M "C 2 2 2"
_symmetry_group_IT_number 21
_symmetry_cell_setting 'orthorhombic'
loop_
_space_group_symop_operation_xyz
x,y,z
-x,-y,z
x,-y,-z
-x,y,-z
1/2+x,1/2+y,z
1/2-x,1/2-y,z
1/2+x,1/2-y,-z
1/2-x,1/2+y,-z
loop_
_atom_site_type_symbol
_atom_site_label
_atom_site_fract_x
_atom_site_fract_y
_atom_site_fract_z
Si Si1 0.575027 0.741671 0.400181
Si Si2 0.250000 0.750000 0.562029
Si Si3 0.650094 0.142802 0.391318
Si Si4 0.688942 0.726397 0.882918
Si Si5 0.500000 0.500000 0.500000
Si Si6 0.000000 0.500000 0.500000
Si Si7 0.828891 0.122803 0.787156
O O1 0.604832 0.741959 0.560015
O O2 0.535587 0.603407 0.397296
O O3 0.537782 0.891865 0.400697
O O4 0.621255 0.704522 0.286343
O O5 0.294473 0.813046 0.457041
O O6 0.218972 0.862136 0.672787
O O7 0.658653 0.144727 0.214392
O O8 0.636870 0.000000 0.500000
O O9 0.750000 0.750000 0.859801
O O10 0.669246 0.559572 0.822418
O O11 0.681236 0.714978 0.059905
#
# Coordination Sequence:
#
# PCOD9323144 Si02
#       7
#     8   4   8   8   2   2   8
#     4  10  21  39  65  94 118 164 210 282 316 393
#     4  10  20  32  52  86 126 158 214 242 294 382
#     4  11  21  35  58  92 124 165 206 256 312 371
#     4  11  21  37  59  89 135 178 202 253 304 389
#     4  10  20  38  68  90 116 154 220 280 344 360
#     4  10  20  42  68  90 124 150 230 274 348 360
#     4  10  22  38  58  91 129 169 213 250 323 381
#
# _framework density 19.812584000000001
#
# number of rings (size 3 to 8) (size 9 to 14) (size 15 to 20)
#    0.000    1.600    3.000    2.400    0.000    1.600 
#    0.000    0.000    0.000   19.200    0.000    0.000 
#    0.000    0.000    0.000    0.000    0.000    0.000 
#
# Total GULP energy -111343.577743 kJ/mol
# GULP energy per Si atom -5567.178887 kJ/mol
# Density = 1.976749 g / cm^3
# Si number density = 19.812584 Si / 1000 Ang^3
#
#
#
# Elastic Constant Matrix: (Units=GPa)
#
#
# Indices 1 2 3 4 5 6 
#
# 1 125.6274 38.3102 24.0292 0.0000 0.0000 0.0000
# 2 38.3102 69.5798 17.9168 0.0000 0.0000 0.0000
# 3 24.0292 17.9168 78.6794 0.0000 0.0000 0.0000
# 4 0.0000 0.0000 0.0000 19.4483 0.0000 0.0000
# 5 0.0000 0.0000 0.0000 0.0000 18.6383 0.0000
# 6 0.0000 0.0000 0.0000 0.0000 0.0000 37.3418
#
#
#
# Elastic Compliance Matrix: (Units=1/GPa)
#
#
# Indices 1 2 3 4 5 6 
#
# 1 0.009821 -0.004924 -0.001878 0.000000 0.000000 0.000000
# 2 -0.004924 0.017736 -0.002535 0.000000 0.000000 0.000000
# 3 -0.001878 -0.002535 0.013861 0.000000 0.000000 0.000000
# 4 0.000000 0.000000 0.000000 0.051418 0.000000 0.000000
# 5 0.000000 0.000000 0.000000 0.000000 0.053653 0.000000
# 6 0.000000 0.000000 0.000000 0.000000 0.000000 0.026780
#
#
# Mechanical properties :
#
#
# Convention : Reuss Voigt Hill
#
# Bulk Modulus (GPa) = 43.96856 48.26656 46.11756
# Shear Modulus (GPa) = 25.05977 27.99436 26.52706
#
# Velocity S-wave (km/s) = 3.56032 3.76301 3.66307
# Velocity P-wave (km/s) = 6.25632 6.57988 6.42014
#
# Compressibility (1/GPa) = 0.02274352
#
# Stress axis : x y z
#
# Youngs Moduli (GPa) = 101.82527 56.38350 72.14653
#
# Poissons Ratio (x) = 0.27761 0.13550
# Poissons Ratio (y) = 0.50135 0.18290
# Poissons Ratio (z) = 0.19124 0.14294
#
# Static dielectric constant tensor:
#      x y z
#    x 1.682820 0.000000 0.000000 
#    y 0.000000 1.388930 0.000000 
#    z 0.000000 0.000000 1.700550 
# 
# From -- ./inp_files/19002.got.cif
#   From: 2010.05.17/outbox.cif.g08.bks.cpg/sg21_10_cif.got.tgz:19002.got - 2010.06.03 23:14:55.
