data_PCOD9323502
_publ_section_title
;
Structure prediction by ZEFSAII (Michael W. Deem and Ramdas Pophale) SiO2 
 PCOD9323502
Probable space group: C 2 2 2
;
_chemical_formula_sum "Si O2"
_cell_formula_units_Z 56
_cell_length_a 20.720132
_cell_length_b 15.677399
_cell_length_c 8.822823
_cell_angle_alpha 90.000000
_cell_angle_beta 90.000000
_cell_angle_gamma 90.000000
_cell_volume 2865.986208
_symmetry_space_group_name_H-M "C 2 2 2"
_symmetry_group_IT_number 21
_symmetry_cell_setting 'orthorhombic'
loop_
_space_group_symop_operation_xyz
x,y,z
-x,-y,z
x,-y,-z
-x,y,-z
1/2+x,1/2+y,z
1/2-x,1/2-y,z
1/2+x,1/2-y,-z
1/2-x,1/2+y,-z
loop_
_atom_site_type_symbol
_atom_site_label
_atom_site_fract_x
_atom_site_fract_y
_atom_site_fract_z
Si Si1 0.748923 0.005047 0.180117
Si Si2 0.108482 0.526900 0.327316
Si Si3 0.072681 0.282041 0.653203
Si Si4 0.575182 0.765551 0.290763
Si Si5 0.698715 0.676650 0.685234
Si Si6 0.934831 0.417413 0.909592
Si Si7 0.797147 0.829988 0.323138
O O1 0.678969 0.014589 0.256545
O O2 0.788950 0.088746 0.228660
O O3 0.776898 0.916785 0.243545
O O4 0.744678 0.000000 0.000000
O O5 0.112923 0.500000 0.500000
O O6 0.086988 0.622663 0.291375
O O7 0.059351 0.460318 0.254134
O O8 0.080348 0.292797 0.469595
O O9 0.127957 0.216956 0.704160
O O10 0.002385 0.252376 0.711649
O O11 0.594088 0.828471 0.150103
O O12 0.628707 0.692040 0.283714
O O13 0.750000 0.750000 0.730594
O O14 0.708739 0.660149 0.505320
O O15 0.905450 0.500000 0.000000
O O16 0.000000 0.399868 0.000000
O O17 0.750000 0.750000 0.282954
#
# Coordination Sequence:
#
# PCOD9323502 Si02
#       7
#     8   8   8   8   8   8   8
#     4  12  26  42  64 100 137 171 219 275 345 408
#     4  12  22  39  68  94 131 178 223 272 328 401
#     4  10  20  37  66  95 126 163 230 284 319 383
#     4  10  21  39  60  95 129 173 220 275 331 382
#     4  10  20  41  68  96 123 171 226 279 331 386
#     4  11  22  37  52  89 137 173 211 256 329 406
#     4  10  22  42  70  92 126 174 227 277 324 394
#
# _framework density 19.539522000000002
#
# number of rings (size 3 to 8) (size 9 to 14) (size 15 to 20)
#    0.000    1.286    2.857    4.286    2.000    0.571 
#    5.143    0.714    0.000    4.286    0.000    0.000 
#    0.000    0.000    0.000    0.000    0.000    0.000 
#
# Total GULP energy -156057.254471 kJ/mol
# GULP energy per Si atom -5573.473374 kJ/mol
# Density = 1.949505 g / cm^3
# Si number density = 19.539522 Si / 1000 Ang^3
#
#
#
# Elastic Constant Matrix: (Units=GPa)
#
#
# Indices 1 2 3 4 5 6 
#
# 1 124.7726 64.9017 37.5119 0.0000 0.0000 0.0000
# 2 64.9017 120.2661 45.9826 0.0000 0.0000 0.0000
# 3 37.5119 45.9826 84.5710 0.0000 0.0000 0.0000
# 4 0.0000 0.0000 0.0000 32.7549 0.0000 0.0000
# 5 0.0000 0.0000 0.0000 0.0000 20.6606 0.0000
# 6 0.0000 0.0000 0.0000 0.0000 0.0000 10.5629
#
#
#
# Elastic Compliance Matrix: (Units=1/GPa)
#
#
# Indices 1 2 3 4 5 6 
#
# 1 0.011449 -0.005349 -0.002170 0.000000 0.000000 0.000000
# 2 -0.005349 0.012996 -0.004694 0.000000 0.000000 0.000000
# 3 -0.002170 -0.004694 0.015339 0.000000 0.000000 0.000000
# 4 0.000000 0.000000 0.000000 0.030530 0.000000 0.000000
# 5 0.000000 0.000000 0.000000 0.000000 0.048401 0.000000
# 6 0.000000 0.000000 0.000000 0.000000 0.000000 0.094671
#
#
# Mechanical properties :
#
#
# Convention : Reuss Voigt Hill
#
# Bulk Modulus (GPa) = 65.10837 69.60021 67.35429
# Shear Modulus (GPa) = 20.58196 24.87658 22.72927
#
# Velocity S-wave (km/s) = 3.24906 3.57198 3.41434
# Velocity P-wave (km/s) = 6.88977 7.26014 7.07738
#
# Compressibility (1/GPa) = 0.01535901
#
# Stress axis : x y z
#
# Youngs Moduli (GPa) = 87.34168 76.94690 65.19360
#
# Poissons Ratio (x) = 0.41158 0.14148
# Poissons Ratio (y) = 0.46718 0.30599
# Poissons Ratio (z) = 0.18954 0.36116
#
# Static dielectric constant tensor:
#      x y z
#    x 1.716370 0.000000 0.000000 
#    y 0.000000 1.680480 0.000000 
#    z 0.000000 0.000000 1.746600 
# 
# From -- ./inp_files/17714.got.cif
#   From: 2010.05.17/outbox.cif.g08.bks.cpg/sg21_9_cif.got.tgz:17714.got - 2010.06.03 23:14:55.
