data_PCOD9323572
_publ_section_title
;
Structure prediction by ZEFSAII (Michael W. Deem and Ramdas Pophale) SiO2 
 PCOD9323572
Probable space group: C 2 2 2
;
_chemical_formula_sum "Si O2"
_cell_formula_units_Z 60
_cell_length_a 14.001078
_cell_length_b 8.656960
_cell_length_c 24.892509
_cell_angle_alpha 90.000000
_cell_angle_beta 90.000000
_cell_angle_gamma 90.000000
_cell_volume 3017.140668
_symmetry_space_group_name_H-M "C 2 2 2"
_symmetry_group_IT_number 21
_symmetry_cell_setting 'orthorhombic'
loop_
_space_group_symop_operation_xyz
x,y,z
-x,-y,z
x,-y,-z
-x,y,-z
1/2+x,1/2+y,z
1/2-x,1/2-y,z
1/2+x,1/2-y,-z
1/2-x,1/2+y,-z
loop_
_atom_site_type_symbol
_atom_site_label
_atom_site_fract_x
_atom_site_fract_y
_atom_site_fract_z
Si Si1 0.144412 0.183615 0.439096
Si Si2 0.750000 0.750000 0.791789
Si Si3 0.970881 0.236540 0.878882
Si Si4 0.346753 0.426999 0.886794
Si Si5 0.143767 0.813772 0.441403
Si Si6 0.815795 0.406281 0.949202
Si Si7 0.958207 0.328335 0.239119
Si Si8 0.999721 0.314709 0.355798
O O1 0.250000 0.250000 0.437398
O O2 0.106118 0.225638 0.498684
O O3 0.088916 0.253417 0.389189
O O4 0.142358 0.998563 0.436263
O O5 0.701982 0.624961 0.831397
O O6 0.842229 0.680811 0.761470
O O7 0.902244 0.359552 0.908655
O O8 0.074703 0.199896 0.905514
O O9 0.999600 0.266066 0.816998
O O10 0.908048 0.081656 0.879782
O O11 0.259925 0.471666 0.924857
O O12 0.250000 0.750000 0.439561
O O13 0.087161 0.740831 0.392553
O O14 0.750000 0.250000 0.959354
O O15 0.855308 0.500000 0.000000
O O16 0.992698 0.253127 0.294909
O O17 0.000000 0.500000 0.240388
O O18 0.000000 0.500000 0.354218
#
# Coordination Sequence:
#
# PCOD9323572 Si02
#       8
#     8   4   8   8   8   8   8   8
#     4  10  21  40  60  89 122 163 208 258 324 385
#     4  10  20  38  66  86 118 166 204 254 318 378
#     4   9  19  41  63  90 122 166 211 247 319 382
#     4   9  19  37  65  88 123 163 201 257 308 375
#     4  10  21  38  63  87 123 164 205 258 324 393
#     4  10  21  38  66  93 127 163 205 259 317 378
#     4  10  22  40  61  89 123 161 211 265 310 378
#     4  11  23  38  57  89 127 161 210 266 314 371
#
# _framework density 19.886378000000001
#
# number of rings (size 3 to 8) (size 9 to 14) (size 15 to 20)
#    0.000    2.133    0.000    2.400    1.867    3.200 
#    9.600    7.333   11.733    0.000    0.000    0.000 
#    0.000    0.000    0.000    0.000    0.000    0.000 
#
# Total GULP energy -167259.750944 kJ/mol
# GULP energy per Si atom -5575.325031 kJ/mol
# Density = 1.984112 g / cm^3
# Si number density = 19.886378 Si / 1000 Ang^3
#
#
#
# Elastic Constant Matrix: (Units=GPa)
#
#
# Indices 1 2 3 4 5 6 
#
# 1 143.4474 35.5129 72.1094 0.0000 0.0000 0.0000
# 2 35.5129 42.0728 42.0170 0.0000 0.0000 0.0000
# 3 72.1094 42.0170 127.8305 0.0000 0.0000 0.0000
# 4 0.0000 0.0000 0.0000 31.8137 0.0000 0.0000
# 5 0.0000 0.0000 0.0000 0.0000 -44.6284 0.0000
# 6 0.0000 0.0000 0.0000 0.0000 0.0000 27.3581
#
#
#
# Elastic Compliance Matrix: (Units=1/GPa)
#
#
# Indices 1 2 3 4 5 6 
#
# 1 0.010221 -0.004272 -0.004362 0.000000 0.000000 0.000000
# 2 -0.004272 0.037168 -0.009807 0.000000 0.000000 0.000000
# 3 -0.004362 -0.009807 0.013507 0.000000 0.000000 0.000000
# 4 0.000000 0.000000 0.000000 0.031433 0.000000 0.000000
# 5 0.000000 0.000000 0.000000 0.000000 -0.022407 0.000000
# 6 0.000000 0.000000 0.000000 0.000000 0.000000 0.036552
#
#
# Mechanical properties :
#
#
# Convention : Reuss Voigt Hill
#
# Bulk Modulus (GPa) = 41.64063 68.06993 54.85528
# Shear Modulus (GPa) = 33.03363 13.82278 23.42820
#
# Velocity S-wave (km/s) = 4.08010 2.63931 3.43607
# Velocity P-wave (km/s) = 6.57123 6.60240 6.58683
#
# Compressibility (1/GPa) = 0.02401500
#
# Stress axis : x y z
#
# Youngs Moduli (GPa) = 97.83438 26.90477 74.03591
#
# Poissons Ratio (x) = 0.11493 0.32293
# Poissons Ratio (y) = 0.41791 0.72609
# Poissons Ratio (z) = 0.42674 0.26386
#
# Static dielectric constant tensor:
#      x y z
#    x 1.710570 0.000000 0.000000 
#    y 0.000000 1.706710 0.000000 
#    z 0.000000 0.000000 1.733560 
# 
# From -- ./inp_files/38738.got.cif
#   From: 2010.05.17/outbox.cif.g08.bks.cpg/sg21_20_cif.got.tgz:38738.got - 2010.06.03 23:14:55.
