data_PCOD9323549
_publ_section_title
;
Structure prediction by ZEFSAII (Michael W. Deem and Ramdas Pophale) SiO2 
 PCOD9323549
Probable space group: C 2 2 2
;
_chemical_formula_sum "Si O2"
_cell_formula_units_Z 64
_cell_length_a 8.920744
_cell_length_b 14.699520
_cell_length_c 23.007662
_cell_angle_alpha 90.000000
_cell_angle_beta 90.000000
_cell_angle_gamma 90.000000
_cell_volume 3017.009784
_symmetry_space_group_name_H-M "C 2 2 2"
_symmetry_group_IT_number 21
_symmetry_cell_setting 'orthorhombic'
loop_
_space_group_symop_operation_xyz
x,y,z
-x,-y,z
x,-y,-z
-x,y,-z
1/2+x,1/2+y,z
1/2-x,1/2-y,z
1/2+x,1/2-y,-z
1/2-x,1/2+y,-z
loop_
_atom_site_type_symbol
_atom_site_label
_atom_site_fract_x
_atom_site_fract_y
_atom_site_fract_z
Si Si1 0.534940 0.832751 0.250025
Si Si2 0.575796 0.591219 0.361840
Si Si3 0.870295 0.125337 0.770574
Si Si4 0.329050 0.847506 0.151384
Si Si5 0.430447 0.100198 0.378841
Si Si6 0.939165 0.603678 0.061287
Si Si7 0.928460 0.239119 0.440652
Si Si8 0.350144 0.526815 0.890060
O O1 0.689361 0.880535 0.231254
O O2 0.567399 0.728193 0.232776
O O3 0.388863 0.865926 0.216200
O O4 0.522871 0.852179 0.318010
O O5 0.500000 0.500000 0.384454
O O6 0.575241 0.588294 0.291529
O O7 0.749896 0.599191 0.379795
O O8 0.482211 0.674295 0.388245
O O9 0.905317 0.078498 0.831564
O O10 0.250000 0.750000 0.148732
O O11 0.479355 0.843199 0.112571
O O12 0.234556 0.933444 0.128434
O O13 0.496618 0.163184 0.428855
O O14 0.500000 0.000000 0.380270
O O15 0.763734 0.590794 0.074029
O O16 0.000000 0.500000 0.063727
O O17 0.000000 0.640466 0.000000
O O18 0.250000 0.250000 0.556427
O O19 0.000000 0.201525 0.500000
O O20 0.500000 0.500000 0.923784
#
# Coordination Sequence:
#
# PCOD9323549 Si02
#       8
#     8   8   8   8   8   8   8   8
#     4  10  21  37  62  92 135 175 216 269 336 407
#     4  11  23  42  66 100 141 177 227 281 345 411
#     4  10  20  38  62  96 133 176 214 275 338 406
#     4  11  23  39  60  93 132 174 224 271 338 403
#     4  11  24  42  68 100 136 179 229 280 345 411
#     4   9  20  42  67  89 127 179 227 280 337 399
#     4  12  26  48  73  99 135 183 236 288 343 406
#     4  11  22  39  65  97 130 172 225 277 342 408
#
# _framework density 21.213058
#
# number of rings (size 3 to 8) (size 9 to 14) (size 15 to 20)
#    0.000    1.375    2.500    3.000    3.500    1.000 
#    2.250   10.000    0.000    0.000    0.000    0.000 
#    0.000    0.000    0.000    0.000    0.000    0.000 
#
# Total GULP energy -178713.683787 kJ/mol
# GULP energy per Si atom -5584.802618 kJ/mol
# Density = 2.116478 g / cm^3
# Si number density = 21.213058 Si / 1000 Ang^3
#
#
#
# Elastic Constant Matrix: (Units=GPa)
#
#
# Indices 1 2 3 4 5 6 
#
# 1 139.9933 28.1309 49.0558 0.0000 0.0000 0.0000
# 2 28.1309 83.0040 20.9861 0.0000 0.0000 0.0000
# 3 49.0558 20.9861 68.3621 0.0000 0.0000 0.0000
# 4 0.0000 0.0000 0.0000 19.1821 0.0000 0.0000
# 5 0.0000 0.0000 0.0000 0.0000 7.3942 0.0000
# 6 0.0000 0.0000 0.0000 0.0000 0.0000 23.8874
#
#
#
# Elastic Compliance Matrix: (Units=1/GPa)
#
#
# Indices 1 2 3 4 5 6 
#
# 1 0.009750 -0.001665 -0.006486 0.000000 0.000000 0.000000
# 2 -0.001665 0.013346 -0.002902 0.000000 0.000000 0.000000
# 3 -0.006486 -0.002902 0.020173 0.000000 0.000000 0.000000
# 4 0.000000 0.000000 0.000000 0.052132 0.000000 0.000000
# 5 0.000000 0.000000 0.000000 0.000000 0.135241 0.000000
# 6 0.000000 0.000000 0.000000 0.000000 0.000000 0.041863
#
#
# Mechanical properties :
#
#
# Convention : Reuss Voigt Hill
#
# Bulk Modulus (GPa) = 47.25113 54.18946 50.72029
# Shear Modulus (GPa) = 16.57469 22.97186 19.77327
#
# Velocity S-wave (km/s) = 2.79828 3.29433 3.05639
# Velocity P-wave (km/s) = 5.72394 6.33016 6.03467
#
# Compressibility (1/GPa) = 0.02116351
#
# Stress axis : x y z
#
# Youngs Moduli (GPa) = 102.55976 74.93104 49.57117
#
# Poissons Ratio (x) = 0.12474 0.32150
# Poissons Ratio (y) = 0.17073 0.14387
# Poissons Ratio (z) = 0.66517 0.21747
#
# Static dielectric constant tensor:
#      x y z
#    x 1.779690 0.000000 0.000000 
#    y 0.000000 1.777120 0.000000 
#    z 0.000000 0.000000 1.807210 
# 
# From -- ./inp_files/38525.got.cif
#   From: 2010.05.17/outbox.cif.g08.bks.cpg/sg21_20_cif.got.tgz:38525.got - 2010.06.03 23:14:55.
