data_PCOD9323765
_publ_section_title
;
Structure prediction by ZEFSAII (Michael W. Deem and Ramdas Pophale) SiO2 
 PCOD9323765
Probable space group: C 2 2 2
;
_chemical_formula_sum "Si O2"
_cell_formula_units_Z 44
_cell_length_a 7.683691
_cell_length_b 17.677617
_cell_length_c 14.557428
_cell_angle_alpha 90.000000
_cell_angle_beta 90.000000
_cell_angle_gamma 90.000000
_cell_volume 1977.325934
_symmetry_space_group_name_H-M "C 2 2 2"
_symmetry_group_IT_number 21
_symmetry_cell_setting 'orthorhombic'
loop_
_space_group_symop_operation_xyz
x,y,z
-x,-y,z
x,-y,-z
-x,y,-z
1/2+x,1/2+y,z
1/2-x,1/2-y,z
1/2+x,1/2-y,-z
1/2-x,1/2+y,-z
loop_
_atom_site_type_symbol
_atom_site_label
_atom_site_fract_x
_atom_site_fract_y
_atom_site_fract_z
Si Si1 0.000000 0.500000 0.812569
Si Si2 0.207471 0.901433 0.735641
Si Si3 0.069334 0.204333 0.397003
Si Si4 0.750000 0.750000 0.738038
Si Si5 0.000000 0.000000 0.861534
Si Si6 0.000000 0.208773 0.000000
Si Si7 0.728957 0.884089 0.890270
Si Si8 0.750000 0.250000 0.847722
O O1 0.848226 0.467823 0.746183
O O2 0.953481 0.573194 0.874404
O O3 0.128194 0.878412 0.638694
O O4 0.052767 0.930386 0.798948
O O5 0.260939 0.823525 0.784470
O O6 0.250000 0.250000 0.396541
O O7 0.000000 0.203793 0.500000
O O8 0.920469 0.237503 0.327574
O O9 0.738632 0.825242 0.803178
O O10 0.836727 0.962917 0.907735
O O11 0.825978 0.163927 0.030959
O O12 0.075369 0.249657 0.089496
#
# Coordination Sequence:
#
# PCOD9323765 Si02
#       8
#     4   8   8   4   4   4   8   4
#     4  10  26  44  75 101 134 192 252 284 369 441
#     4  11  23  46  70 100 139 187 234 290 361 428
#     4  12  24  42  74 114 147 180 244 304 356 433
#     4  12  23  45  80 104 144 196 236 297 373 428
#     4  10  20  43  65  90 136 192 220 272 361 417
#     4  12  26  41  70 103 144 172 254 294 348 405
#     4  11  24  44  69  99 137 190 234 297 351 427
#     4  12  25  43  70  98 136 192 230 301 341 426
#
# _framework density 22.252274
#
# number of rings (size 3 to 8) (size 9 to 14) (size 15 to 20)
#    0.000    0.727    5.455    1.636    5.091    0.364 
#    0.000    1.364    0.000    1.091    0.000    0.000 
#    0.000    0.000    0.000    0.000    0.000    0.000 
#
# Total GULP energy -122488.596192 kJ/mol
# GULP energy per Si atom -5567.663463 kJ/mol
# Density = 2.220163 g / cm^3
# Si number density = 22.252274 Si / 1000 Ang^3
#
#
#
# Elastic Constant Matrix: (Units=GPa)
#
#
# Indices 1 2 3 4 5 6 
#
# 1 105.6030 26.4985 40.8664 0.0000 0.0000 0.0000
# 2 26.4985 108.8580 47.6315 0.0000 0.0000 0.0000
# 3 40.8664 47.6315 118.2792 0.0000 0.0000 0.0000
# 4 0.0000 0.0000 0.0000 20.6348 0.0000 0.0000
# 5 0.0000 0.0000 0.0000 0.0000 44.8009 0.0000
# 6 0.0000 0.0000 0.0000 0.0000 0.0000 43.0517
#
#
#
# Elastic Compliance Matrix: (Units=1/GPa)
#
#
# Indices 1 2 3 4 5 6 
#
# 1 0.011067 -0.001239 -0.003325 0.000000 0.000000 0.000000
# 2 -0.001239 0.011290 -0.004118 0.000000 0.000000 0.000000
# 3 -0.003325 -0.004118 0.011262 0.000000 0.000000 0.000000
# 4 0.000000 0.000000 0.000000 0.048462 0.000000 0.000000
# 5 0.000000 0.000000 0.000000 0.000000 0.022321 0.000000
# 6 0.000000 0.000000 0.000000 0.000000 0.000000 0.023228
#
#
# Mechanical properties :
#
#
# Convention : Reuss Voigt Hill
#
# Bulk Modulus (GPa) = 61.52269 62.52589 62.02429
# Shear Modulus (GPa) = 33.24204 36.21372 34.72788
#
# Velocity S-wave (km/s) = 3.86926 4.03850 3.95478
# Velocity P-wave (km/s) = 6.90430 7.06439 6.98481
#
# Compressibility (1/GPa) = 0.01625417
#
# Stress axis : x y z
#
# Youngs Moduli (GPa) = 90.35895 88.57449 88.79619
#
# Poissons Ratio (x) = 0.10976 0.29522
# Poissons Ratio (y) = 0.11197 0.36569
# Poissons Ratio (z) = 0.30042 0.36478
#
# Static dielectric constant tensor:
#      x y z
#    x 1.427050 0.000000 0.000000 
#    y 0.000000 1.891390 0.000000 
#    z 0.000000 0.000000 1.876270 
# 
# From -- ./inp_files/30446.got.cif
#   From: 2010.05.17/outbox.cif.g08.bks.cpg/sg21_16_cif.got.tgz:30446.got - 2010.06.03 23:14:55.
