data_PCOD9323562
_publ_section_title
;
Structure prediction by ZEFSAII (Michael W. Deem and Ramdas Pophale) SiO2 
 PCOD9323562
Probable space group: C 2 2 2
;
_chemical_formula_sum "Si O2"
_cell_formula_units_Z 40
_cell_length_a 15.492586
_cell_length_b 13.470708
_cell_length_c 8.041532
_cell_angle_alpha 90.000000
_cell_angle_beta 90.000000
_cell_angle_gamma 90.000000
_cell_volume 1678.236384
_symmetry_space_group_name_H-M "C 2 2 2"
_symmetry_group_IT_number 21
_symmetry_cell_setting 'orthorhombic'
loop_
_space_group_symop_operation_xyz
x,y,z
-x,-y,z
x,-y,-z
-x,y,-z
1/2+x,1/2+y,z
1/2-x,1/2-y,z
1/2+x,1/2-y,-z
1/2-x,1/2+y,-z
loop_
_atom_site_type_symbol
_atom_site_label
_atom_site_fract_x
_atom_site_fract_y
_atom_site_fract_z
Si Si1 0.212272 0.960680 0.687645
Si Si2 0.710086 0.151709 0.199105
Si Si3 0.869439 0.598806 0.115742
Si Si4 0.971425 0.677637 0.691058
Si Si5 0.525242 0.607137 0.304093
O O1 0.300953 0.907934 0.735362
O O2 0.128811 0.892510 0.715516
O O3 0.208198 0.000000 0.500000
O O4 0.221360 0.062383 0.796093
O O5 0.750000 0.250000 0.274436
O O6 0.622790 0.129696 0.299694
O O7 0.672108 0.174471 0.016518
O O8 0.961510 0.621584 0.191313
O O9 0.871586 0.500000 0.000000
O O10 0.977863 0.792696 0.752230
O O11 0.000000 0.675600 0.500000
O O12 0.500000 0.500000 0.230445
O O13 0.500000 0.602325 0.500000
#
# Coordination Sequence:
#
# PCOD9323562 Si02
#       5
#     8   8   8   8   8
#     4  11  22  41  70 100 132 178 227 293 341 406
#     4  11  25  42  65  97 140 182 230 272 346 423
#     4  10  25  46  67  96 139 183 229 287 353 420
#     4  11  24  43  71 104 134 182 235 294 343 416
#     4  10  20  38  65 100 140 170 221 283 354 402
#
# _framework density 23.834544999999999
#
# number of rings (size 3 to 8) (size 9 to 14) (size 15 to 20)
#    0.000    1.400    2.000    3.000    5.600    5.600 
#    0.000    5.000    0.000    0.000    0.000    0.000 
#    0.000    0.000    0.000    0.000    0.000    0.000 
#
# Total GULP energy -111714.813236 kJ/mol
# GULP energy per Si atom -5585.740662 kJ/mol
# Density = 2.378030 g / cm^3
# Si number density = 23.834545 Si / 1000 Ang^3
#
#
#
# Elastic Constant Matrix: (Units=GPa)
#
#
# Indices 1 2 3 4 5 6 
#
# 1 109.8432 23.0463 10.9516 0.0000 0.0000 0.0000
# 2 23.0463 50.5732 0.5244 0.0000 0.0000 0.0000
# 3 10.9516 0.5244 56.8505 0.0000 0.0000 0.0000
# 4 0.0000 0.0000 0.0000 18.1646 0.0000 0.0000
# 5 0.0000 0.0000 0.0000 0.0000 18.2658 0.0000
# 6 0.0000 0.0000 0.0000 0.0000 0.0000 36.0215
#
#
#
# Elastic Compliance Matrix: (Units=1/GPa)
#
#
# Indices 1 2 3 4 5 6 
#
# 1 0.010275 -0.004662 -0.001936 0.000000 0.000000 0.000000
# 2 -0.004662 0.021891 0.000696 0.000000 0.000000 0.000000
# 3 -0.001936 0.000696 0.017957 0.000000 0.000000 0.000000
# 4 0.000000 0.000000 0.000000 0.055052 0.000000 0.000000
# 5 0.000000 0.000000 0.000000 0.000000 0.054747 0.000000
# 6 0.000000 0.000000 0.000000 0.000000 0.000000 0.027761
#
#
# Mechanical properties :
#
#
# Convention : Reuss Voigt Hill
#
# Bulk Modulus (GPa) = 26.09773 31.81238 28.95506
# Shear Modulus (GPa) = 23.55596 26.67334 25.11465
#
# Velocity S-wave (km/s) = 3.14715 3.34893 3.24961
# Velocity P-wave (km/s) = 4.91726 5.32259 5.12393
#
# Compressibility (1/GPa) = 0.03831751
#
# Stress axis : x y z
#
# Youngs Moduli (GPa) = 97.32207 45.68137 55.68983
#
# Poissons Ratio (x) = 0.21298 0.10784
# Poissons Ratio (y) = 0.45375 -0.03877
# Poissons Ratio (z) = 0.18845 -0.03180
#
# Static dielectric constant tensor:
#      x y z
#    x 1.871310 0.000000 0.000000 
#    y 0.000000 2.011390 0.000000 
#    z 0.000000 0.000000 1.914340 
# 
# From -- ./inp_files/14496.got.cif
#   From: 2010.05.17/outbox.cif.g08.bks.cpg/sg21_8_cif.got.tgz:14496.got - 2010.06.03 23:14:55.
