data_PCOD9323094
_publ_section_title
;
Structure prediction by ZEFSAII (Michael W. Deem and Ramdas Pophale) SiO2 
 PCOD9323094
Probable space group: C 2 2 2
;
_chemical_formula_sum "Si O2"
_cell_formula_units_Z 58
_cell_length_a 17.524916
_cell_length_b 14.406887
_cell_length_c 11.778165
_cell_angle_alpha 90.000000
_cell_angle_beta 90.000000
_cell_angle_gamma 90.000000
_cell_volume 2973.745028
_symmetry_space_group_name_H-M "C 2 2 2"
_symmetry_group_IT_number 21
_symmetry_cell_setting 'orthorhombic'
loop_
_space_group_symop_operation_xyz
x,y,z
-x,-y,z
x,-y,-z
-x,y,-z
1/2+x,1/2+y,z
1/2-x,1/2-y,z
1/2+x,1/2-y,-z
1/2-x,1/2+y,-z
loop_
_atom_site_type_symbol
_atom_site_label
_atom_site_fract_x
_atom_site_fract_y
_atom_site_fract_z
Si Si1 0.038808 0.635099 0.185941
Si Si2 0.500000 0.000000 0.000000
Si Si3 0.664251 0.715800 0.870263
Si Si4 0.889098 0.090692 0.321069
Si Si5 0.925035 0.595679 0.563951
Si Si6 0.334825 0.729668 0.506633
Si Si7 0.930178 0.782534 0.086607
Si Si8 0.930434 0.119767 0.684307
O O1 0.104500 0.711689 0.183109
O O2 0.048771 0.585898 0.306056
O O3 0.960077 0.689771 0.153663
O O4 0.049185 0.563715 0.083248
O O5 0.750000 0.750000 0.851621
O O6 0.643307 0.621405 0.802325
O O7 0.642210 0.719026 0.003575
O O8 0.840787 0.148315 0.412699
O O9 0.978266 0.120128 0.335387
O O10 0.893551 0.980578 0.340186
O O11 0.903945 0.500000 0.500000
O O12 0.863168 0.675197 0.550021
O O13 0.000000 0.631507 0.500000
O O14 0.250000 0.750000 0.548142
O O15 0.389579 0.696325 0.607695
O O16 0.920659 0.858033 0.183396
O O17 0.000000 0.803271 0.000000
#
# Coordination Sequence:
#
# PCOD9323094 Si02
#       8
#     8   2   8   8   8   8   8   8
#     4  11  21  39  64  94 126 169 222 267 322 384
#     4  12  20  36  66  96 122 172 226 274 312 372
#     4  11  22  41  66  93 131 177 211 262 341 395
#     4  11  22  41  69  99 127 171 220 275 324 397
#     4  11  23  40  64  95 119 167 217 270 313 382
#     4  12  25  42  64  91 138 175 208 267 331 388
#     4  10  19  41  65  93 129 167 212 271 326 385
#     4  11  23  40  70 103 124 169 225 272 327 391
#
# _framework density 19.504026
#
# number of rings (size 3 to 8) (size 9 to 14) (size 15 to 20)
#    0.000    0.966    6.207    3.724    0.000    3.310 
#    0.000    1.379    0.000    0.000    0.000    0.000 
#    0.000    0.000    0.000    0.000    0.000    0.000 
#
# Total GULP energy -161789.217678 kJ/mol
# GULP energy per Si atom -5578.938541 kJ/mol
# Density = 1.945963 g / cm^3
# Si number density = 19.504026 Si / 1000 Ang^3
#
#
#
# Elastic Constant Matrix: (Units=GPa)
#
#
# Indices 1 2 3 4 5 6 
#
# 1 58.4522 25.4901 9.4386 0.0000 0.0000 0.0000
# 2 25.4901 66.2544 30.7787 0.0000 0.0000 0.0000
# 3 9.4386 30.7787 120.8108 0.0000 0.0000 0.0000
# 4 0.0000 0.0000 0.0000 38.6268 0.0000 0.0000
# 5 0.0000 0.0000 0.0000 0.0000 13.8054 0.0000
# 6 0.0000 0.0000 0.0000 0.0000 0.0000 15.1016
#
#
#
# Elastic Compliance Matrix: (Units=1/GPa)
#
#
# Indices 1 2 3 4 5 6 
#
# 1 0.020580 -0.008133 0.000464 0.000000 0.000000 0.000000
# 2 -0.008133 0.020334 -0.004545 0.000000 0.000000 0.000000
# 3 0.000464 -0.004545 0.009399 0.000000 0.000000 0.000000
# 4 0.000000 0.000000 0.000000 0.025889 0.000000 0.000000
# 5 0.000000 0.000000 0.000000 0.000000 0.072436 0.000000
# 6 0.000000 0.000000 0.000000 0.000000 0.000000 0.066218
#
#
# Mechanical properties :
#
#
# Convention : Reuss Voigt Hill
#
# Bulk Modulus (GPa) = 38.63301 41.88139 40.25720
# Shear Modulus (GPa) = 20.16848 25.49410 22.83129
#
# Velocity S-wave (km/s) = 3.21918 3.61933 3.42511
# Velocity P-wave (km/s) = 5.80243 6.24387 6.02719
#
# Compressibility (1/GPa) = 0.02588460
#
# Stress axis : x y z
#
# Youngs Moduli (GPa) = 48.59119 49.17900 106.39379
#
# Poissons Ratio (x) = 0.39999 -0.04940
# Poissons Ratio (y) = 0.39521 0.48356
# Poissons Ratio (z) = -0.02256 0.22352
#
# Static dielectric constant tensor:
#      x y z
#    x 1.668730 0.000000 0.000000 
#    y 0.000000 1.733360 0.000000 
#    z 0.000000 0.000000 1.748680 
# 
# From -- ./inp_files/26206.got.cif
#   From: 2010.05.17/outbox.cif.g08.bks.cpg/sg21_14_cif.got.tgz:26206.got - 2010.06.03 23:14:55.
