data_PCOD9323480
_publ_section_title
;
Structure prediction by ZEFSAII (Michael W. Deem and Ramdas Pophale) SiO2 
 PCOD9323480
Probable space group: C 2 2 2
;
_chemical_formula_sum "Si O2"
_cell_formula_units_Z 44
_cell_length_a 21.453474
_cell_length_b 8.670173
_cell_length_c 11.371998
_cell_angle_alpha 90.000000
_cell_angle_beta 90.000000
_cell_angle_gamma 90.000000
_cell_volume 2115.252252
_symmetry_space_group_name_H-M "C 2 2 2"
_symmetry_group_IT_number 21
_symmetry_cell_setting 'orthorhombic'
loop_
_space_group_symop_operation_xyz
x,y,z
-x,-y,z
x,-y,-z
-x,y,-z
1/2+x,1/2+y,z
1/2-x,1/2-y,z
1/2+x,1/2-y,-z
1/2-x,1/2+y,-z
loop_
_atom_site_type_symbol
_atom_site_label
_atom_site_fract_x
_atom_site_fract_y
_atom_site_fract_z
Si Si1 0.750000 0.750000 0.207531
Si Si2 0.432532 0.573547 0.305550
Si Si3 0.378630 0.129396 0.587957
Si Si4 0.300456 0.940942 0.177471
Si Si5 0.336445 0.625421 0.105722
Si Si6 0.325667 0.623177 0.579803
O O1 0.790688 0.620708 0.141854
O O2 0.704596 0.667077 0.298599
O O3 0.500000 0.500000 0.297245
O O4 0.427743 0.745172 0.361410
O O5 0.397092 0.585880 0.181204
O O6 0.389748 0.460433 0.383516
O O7 0.338023 0.067638 0.698851
O O8 0.335136 0.230484 0.502316
O O9 0.404910 0.000000 0.500000
O O10 0.334064 0.812964 0.094886
O O11 0.227210 0.894966 0.180848
O O12 0.332041 0.500000 0.000000
O O13 0.289225 0.500000 0.500000
#
# Coordination Sequence:
#
# PCOD9323480 Si02
#       6
#     4   8   8   8   8   8
#     4  12  20  32  58  90 138 164 208 250 326 408
#     4  10  22  42  62  86 128 172 228 276 314 385
#     4  10  20  37  61  94 132 174 211 258 321 388
#     4  10  22  38  61  94 134 160 207 268 332 405
#     4  10  22  42  63  92 122 165 217 283 347 387
#     4  10  22  32  55  89 129 177 205 251 315 389
#
# _framework density 20.801302
#
# number of rings (size 3 to 8) (size 9 to 14) (size 15 to 20)
#    0.000    1.818    3.636    0.000    5.091    5.091 
#    0.000    1.818    0.000    0.000    0.000    0.000 
#    5.455    0.000    0.000    0.000    0.000    0.000 
#
# Total GULP energy -122501.777059 kJ/mol
# GULP energy per Si atom -5568.262594 kJ/mol
# Density = 2.075396 g / cm^3
# Si number density = 20.801302 Si / 1000 Ang^3
#
#
#
# Elastic Constant Matrix: (Units=GPa)
#
#
# Indices 1 2 3 4 5 6 
#
# 1 113.0002 57.9857 53.6320 0.0000 0.0000 0.0000
# 2 57.9857 164.8912 71.8687 0.0000 0.0000 0.0000
# 3 53.6320 71.8687 111.2576 0.0000 0.0000 0.0000
# 4 0.0000 0.0000 0.0000 40.1256 0.0000 0.0000
# 5 0.0000 0.0000 0.0000 0.0000 17.4581 0.0000
# 6 0.0000 0.0000 0.0000 0.0000 0.0000 29.4726
#
#
#
# Elastic Compliance Matrix: (Units=1/GPa)
#
#
# Indices 1 2 3 4 5 6 
#
# 1 0.012114 -0.002387 -0.004298 0.000000 0.000000 0.000000
# 2 -0.002387 0.008911 -0.004606 0.000000 0.000000 0.000000
# 3 -0.004298 -0.004606 0.014035 0.000000 0.000000 0.000000
# 4 0.000000 0.000000 0.000000 0.024922 0.000000 0.000000
# 5 0.000000 0.000000 0.000000 0.000000 0.057280 0.000000
# 6 0.000000 0.000000 0.000000 0.000000 0.000000 0.033930
#
#
# Mechanical properties :
#
#
# Convention : Reuss Voigt Hill
#
# Bulk Modulus (GPa) = 80.13060 84.01354 82.07207
# Shear Modulus (GPa) = 28.10038 31.12211 29.61124
#
# Velocity S-wave (km/s) = 3.67944 3.87222 3.77706
# Velocity P-wave (km/s) = 7.52706 7.77614 7.65261
#
# Compressibility (1/GPa) = 0.01247963
#
# Stress axis : x y z
#
# Youngs Moduli (GPa) = 82.54786 112.21474 71.24929
#
# Poissons Ratio (x) = 0.26784 0.30622
# Poissons Ratio (y) = 0.19703 0.32817
# Poissons Ratio (z) = 0.35478 0.51685
#
# Static dielectric constant tensor:
#      x y z
#    x 1.713000 0.000000 0.000000 
#    y 0.000000 1.910380 0.000000 
#    z 0.000000 0.000000 1.797260 
# 
# From -- ./inp_files/27257.got.cif
#   From: 2010.05.17/outbox.cif.g08.bks.cpg/sg21_14_cif.got.tgz:27257.got - 2010.06.03 23:14:55.
