data_PCOD9323314
_publ_section_title
;
Structure prediction by ZEFSAII (Michael W. Deem and Ramdas Pophale) SiO2 
 PCOD9323314
Probable space group: C 2 2 2
;
_chemical_formula_sum "Si O2"
_cell_formula_units_Z 58
_cell_length_a 23.542751
_cell_length_b 8.473927
_cell_length_c 14.751178
_cell_angle_alpha 90.000000
_cell_angle_beta 90.000000
_cell_angle_gamma 90.000000
_cell_volume 2942.853422
_symmetry_space_group_name_H-M "C 2 2 2"
_symmetry_group_IT_number 21
_symmetry_cell_setting 'orthorhombic'
loop_
_space_group_symop_operation_xyz
x,y,z
-x,-y,z
x,-y,-z
-x,y,-z
1/2+x,1/2+y,z
1/2-x,1/2-y,z
1/2+x,1/2-y,-z
1/2-x,1/2+y,-z
loop_
_atom_site_type_symbol
_atom_site_label
_atom_site_fract_x
_atom_site_fract_y
_atom_site_fract_z
Si Si1 0.938964 0.830028 0.837952
Si Si2 0.143794 0.697811 0.636824
Si Si3 0.615760 0.998088 0.107547
Si Si4 0.500000 0.500000 0.000000
Si Si5 0.537281 0.156679 0.754916
Si Si6 0.839169 0.042050 0.276285
Si Si7 0.225144 0.574516 0.781375
Si Si8 0.312676 0.321412 0.541134
O O1 0.908687 0.662812 0.855833
O O2 0.891814 0.935898 0.789845
O O3 0.993478 0.797638 0.773715
O O4 0.961368 0.897286 0.932591
O O5 0.080694 0.664270 0.671653
O O6 0.189780 0.585320 0.686457
O O7 0.152777 0.715051 0.530242
O O8 0.157475 0.869564 0.678915
O O9 0.576479 0.865559 0.155396
O O10 0.679269 0.972011 0.143682
O O11 0.612023 0.000000 0.000000
O O12 0.500000 0.000000 0.745168
O O13 0.839572 0.164690 0.359336
O O14 0.778123 0.042567 0.227578
O O15 0.250000 0.750000 0.799946
O O16 0.309514 0.500000 0.500000
O O17 0.250000 0.250000 0.546850
#
# Coordination Sequence:
#
# PCOD9323314 Si02
#       8
#     8   8   8   2   8   8   8   8
#     4  11  23  37  59  86 112 152 196 251 293 340
#     4   9  17  36  60  83 115 156 197 227 290 357
#     4  10  21  38  59  84 109 155 198 241 297 354
#     4  12  24  40  58  84 114 152 208 250 286 352
#     4   9  19  37  61  82 114 152 199 246 291 344
#     4  10  21  35  56  87 120 149 188 239 299 345
#     4   9  19  37  59  81 120 157 186 237 299 362
#     4  10  20  35  58  89 117 155 193 235 285 360
#
# _framework density 19.708762
#
# number of rings (size 3 to 8) (size 9 to 14) (size 15 to 20)
#    0.000    2.207    0.000    3.724    1.931    4.138 
#    6.207    0.690    0.000    4.966    0.000    0.000 
#    0.000    0.000    0.000    0.000    0.000    0.000 
#
# Total GULP energy -161944.043189 kJ/mol
# GULP energy per Si atom -5584.277351 kJ/mol
# Density = 1.966390 g / cm^3
# Si number density = 19.708762 Si / 1000 Ang^3
#
#
#
# Elastic Constant Matrix: (Units=GPa)
#
#
# Indices 1 2 3 4 5 6 
#
# 1 147.1642 21.7766 58.7942 0.0000 0.0000 0.0000
# 2 21.7766 25.9694 11.5542 0.0000 0.0000 0.0000
# 3 58.7942 11.5542 91.9265 0.0000 0.0000 0.0000
# 4 0.0000 0.0000 0.0000 15.6600 0.0000 0.0000
# 5 0.0000 0.0000 0.0000 0.0000 17.3192 0.0000
# 6 0.0000 0.0000 0.0000 0.0000 0.0000 35.3116
#
#
#
# Elastic Compliance Matrix: (Units=1/GPa)
#
#
# Indices 1 2 3 4 5 6 
#
# 1 0.009889 -0.005803 -0.005596 0.000000 0.000000 0.000000
# 2 -0.005803 0.044193 -0.001843 0.000000 0.000000 0.000000
# 3 -0.005596 -0.001843 0.014689 0.000000 0.000000 0.000000
# 4 0.000000 0.000000 0.000000 0.063857 0.000000 0.000000
# 5 0.000000 0.000000 0.000000 0.000000 0.057739 0.000000
# 6 0.000000 0.000000 0.000000 0.000000 0.000000 0.028319
#
#
# Mechanical properties :
#
#
# Convention : Reuss Voigt Hill
#
# Bulk Modulus (GPa) = 23.64758 49.92332 36.78545
# Shear Modulus (GPa) = 19.28518 25.18717 22.23618
#
# Velocity S-wave (km/s) = 3.13150 3.57875 3.36257
# Velocity P-wave (km/s) = 5.00996 6.51629 5.81213
#
# Compressibility (1/GPa) = 0.04228762
#
# Stress axis : x y z
#
# Youngs Moduli (GPa) = 101.11846 22.62796 68.07927
#
# Poissons Ratio (x) = 0.13131 0.38095
# Poissons Ratio (y) = 0.58680 0.12547
# Poissons Ratio (z) = 0.56582 0.04170
#
# Static dielectric constant tensor:
#      x y z
#    x 1.687380 0.000000 0.000000 
#    y 0.000000 1.740650 0.000000 
#    z 0.000000 0.000000 1.670810 
# 
# From -- ./inp_files/33591.got.cif
#   From: 2010.05.17/outbox.cif.g08.bks.cpg/sg21_17_cif.got.tgz:33591.got - 2010.06.03 23:14:55.
