data_PCOD9323068
_publ_section_title
;
Structure prediction by ZEFSAII (Michael W. Deem and Ramdas Pophale) SiO2 
 PCOD9323068
Probable space group: C 2 2 2
;
_chemical_formula_sum "Si O2"
_cell_formula_units_Z 58
_cell_length_a 8.838478
_cell_length_b 17.842383
_cell_length_c 18.905865
_cell_angle_alpha 90.000000
_cell_angle_beta 90.000000
_cell_angle_gamma 90.000000
_cell_volume 2981.445639
_symmetry_space_group_name_H-M "C 2 2 2"
_symmetry_group_IT_number 21
_symmetry_cell_setting 'orthorhombic'
loop_
_space_group_symop_operation_xyz
x,y,z
-x,-y,z
x,-y,-z
-x,y,-z
1/2+x,1/2+y,z
1/2-x,1/2-y,z
1/2+x,1/2-y,-z
1/2-x,1/2+y,-z
loop_
_atom_site_type_symbol
_atom_site_label
_atom_site_fract_x
_atom_site_fract_y
_atom_site_fract_z
Si Si1 0.000000 0.500000 0.000000
Si Si2 0.891614 0.308511 0.697872
Si Si3 0.974824 0.121593 0.078221
Si Si4 0.425466 0.728028 0.423381
Si Si5 0.269766 0.540350 0.728251
Si Si6 0.904556 0.893781 0.688215
Si Si7 0.255361 0.491787 0.107527
Si Si8 0.406504 0.271659 0.804225
O O1 0.118435 0.533473 0.942865
O O2 0.750000 0.250000 0.701125
O O3 0.836289 0.393911 0.699180
O O4 0.986442 0.284957 0.628821
O O5 0.994891 0.291339 0.766262
O O6 0.998469 0.182823 0.138211
O O7 0.104660 0.060430 0.088056
O O8 0.816708 0.076245 0.091056
O O9 0.000000 0.152444 0.000000
O O10 0.500000 0.727926 0.500000
O O11 0.250000 0.750000 0.427390
O O12 0.436064 0.646664 0.385712
O O13 0.286659 0.461856 0.686763
O O14 0.439041 0.575526 0.722011
O O15 0.228937 0.519189 0.808927
O O16 0.855962 0.827823 0.741079
O O17 0.250000 0.250000 0.840220
#
# Coordination Sequence:
#
# PCOD9323068 Si02
#       8
#     2   8   8   8   8   8   8   8
#     4  12  24  34  52 104 136 158 222 280 350 398
#     4  11  20  39  65  98 132 169 214 269 329 404
#     4  11  19  39  65  77 118 177 221 258 338 410
#     4  11  24  43  70  95 136 183 221 266 336 412
#     4  11  20  37  70  97 128 167 218 279 325 383
#     4  10  19  39  68 100 124 165 227 267 325 401
#     4  11  20  38  61  93 122 166 215 277 334 403
#     4  11  22  38  61  90 127 168 222 276 331 397
#
# _framework density 19.453651000000001
#
# number of rings (size 3 to 8) (size 9 to 14) (size 15 to 20)
#    0.000    1.103    6.897    3.310    0.000    1.103 
#    2.483    3.448    1.517    0.828    0.000    0.000 
#    0.000    0.000    0.000    0.000    0.000    0.000 
#
# Total GULP energy -161742.498819 kJ/mol
# GULP energy per Si atom -5577.327545 kJ/mol
# Density = 1.940937 g / cm^3
# Si number density = 19.453651 Si / 1000 Ang^3
#
#
#
# Elastic Constant Matrix: (Units=GPa)
#
#
# Indices 1 2 3 4 5 6 
#
# 1 90.0517 29.2007 36.5215 0.0000 0.0000 0.0000
# 2 29.2007 93.9659 38.5499 0.0000 0.0000 0.0000
# 3 36.5215 38.5499 139.2961 0.0000 0.0000 0.0000
# 4 0.0000 0.0000 0.0000 17.8252 0.0000 0.0000
# 5 0.0000 0.0000 0.0000 0.0000 28.6716 0.0000
# 6 0.0000 0.0000 0.0000 0.0000 0.0000 27.1970
#
#
#
# Elastic Compliance Matrix: (Units=1/GPa)
#
#
# Indices 1 2 3 4 5 6 
#
# 1 0.013141 -0.003012 -0.002612 0.000000 0.000000 0.000000
# 2 -0.003012 0.012696 -0.002724 0.000000 0.000000 0.000000
# 3 -0.002612 -0.002724 0.008618 0.000000 0.000000 0.000000
# 4 0.000000 0.000000 0.000000 0.056100 0.000000 0.000000
# 5 0.000000 0.000000 0.000000 0.000000 0.034878 0.000000
# 6 0.000000 0.000000 0.000000 0.000000 0.000000 0.036769
#
#
# Mechanical properties :
#
#
# Convention : Reuss Voigt Hill
#
# Bulk Modulus (GPa) = 56.31058 59.09532 57.70295
# Shear Modulus (GPa) = 27.05403 29.34153 28.19778
#
# Velocity S-wave (km/s) = 3.73324 3.88787 3.81134
# Velocity P-wave (km/s) = 6.89867 7.11319 7.00675
#
# Compressibility (1/GPa) = 0.01775865
#
# Stress axis : x y z
#
# Youngs Moduli (GPa) = 76.09966 78.76728 116.04293
#
# Poissons Ratio (x) = 0.23726 0.30307
# Poissons Ratio (y) = 0.22922 0.31607
# Poissons Ratio (z) = 0.19875 0.21454
#
# Static dielectric constant tensor:
#      x y z
#    x 1.729060 0.000000 0.000000 
#    y 0.000000 1.714420 0.000000 
#    z 0.000000 0.000000 1.674060 
# 
# From -- ./inp_files/35847.got.cif
#   From: 2010.05.17/outbox.cif.g08.bks.cpg/sg21_18_cif.got.tgz:35847.got - 2010.06.03 23:14:55.
