data_PCOD9323439
_publ_section_title
;
Structure prediction by ZEFSAII (Michael W. Deem and Ramdas Pophale) SiO2 
 PCOD9323439
Probable space group: C 2 2 2
;
_chemical_formula_sum "Si O2"
_cell_formula_units_Z 52
_cell_length_a 20.543931
_cell_length_b 23.332371
_cell_length_c 5.190730
_cell_angle_alpha 90.000000
_cell_angle_beta 90.000000
_cell_angle_gamma 90.000000
_cell_volume 2488.117354
_symmetry_space_group_name_H-M "C 2 2 2"
_symmetry_group_IT_number 21
_symmetry_cell_setting 'orthorhombic'
loop_
_space_group_symop_operation_xyz
x,y,z
-x,-y,z
x,-y,-z
-x,y,-z
1/2+x,1/2+y,z
1/2-x,1/2-y,z
1/2+x,1/2-y,-z
1/2-x,1/2+y,-z
loop_
_atom_site_type_symbol
_atom_site_label
_atom_site_fract_x
_atom_site_fract_y
_atom_site_fract_z
Si Si1 0.749892 0.930890 0.032188
Si Si2 0.683211 0.434264 0.462032
Si Si3 0.457850 0.413653 0.761803
Si Si4 0.943060 0.210290 0.303918
Si Si5 0.821418 0.275397 0.366879
Si Si6 0.140339 0.652919 0.861683
Si Si7 0.500000 0.816360 0.000000
O O1 0.801850 0.911094 0.252153
O O2 0.679729 0.905849 0.103791
O O3 0.771632 0.906471 0.755487
O O4 0.749467 0.000000 0.000000
O O5 0.703643 0.500000 0.500000
O O6 0.611863 0.436799 0.334131
O O7 0.500000 0.418448 0.500000
O O8 0.440474 0.348365 0.854348
O O9 0.500000 0.437832 0.000000
O O10 0.872154 0.223126 0.409953
O O11 0.000000 0.196617 0.500000
O O12 0.966713 0.270622 0.191010
O O13 0.750000 0.250000 0.385849
O O14 0.839542 0.320185 0.589458
O O15 0.834412 0.304198 0.087922
O O16 0.061602 0.649698 0.885476
#
# Coordination Sequence:
#
# PCOD9323439 Si02
#       7
#     8   8   8   8   8   8   4
#     4  10  22  41  64  90 119 156 206 258 319 374
#     4  10  22  42  63  86 120 160 202 263 322 367
#     4  11  23  37  59  88 115 161 208 251 298 364
#     4  10  20  37  56  80 126 163 198 239 302 376
#     4  11  24  38  57  93 122 159 205 259 302 367
#     4  11  23  39  64  87 122 164 203 251 315 371
#     4  10  20  40  57  86 122 167 196 240 308 376
#
# _framework density 20.899335000000001
#
# number of rings (size 3 to 8) (size 9 to 14) (size 15 to 20)
#    0.000    1.538    2.308    2.308    4.308    0.308 
#    0.000    1.154    0.000    0.000    0.000    5.385 
#    0.000    0.000    0.000    0.000    0.000    0.000 
#
# Total GULP energy -144851.013754 kJ/mol
# GULP energy per Si atom -5571.192837 kJ/mol
# Density = 2.085177 g / cm^3
# Si number density = 20.899335 Si / 1000 Ang^3
#
#
#
# Elastic Constant Matrix: (Units=GPa)
#
#
# Indices 1 2 3 4 5 6 
#
# 1 146.2167 13.2781 39.8890 0.0000 0.0000 0.0000
# 2 13.2781 30.2006 22.4850 0.0000 0.0000 0.0000
# 3 39.8890 22.4850 104.6115 0.0000 0.0000 0.0000
# 4 0.0000 0.0000 0.0000 1.6973 0.0000 0.0000
# 5 0.0000 0.0000 0.0000 0.0000 29.5238 0.0000
# 6 0.0000 0.0000 0.0000 0.0000 0.0000 27.5031
#
#
#
# Elastic Compliance Matrix: (Units=1/GPa)
#
#
# Indices 1 2 3 4 5 6 
#
# 1 0.007684 -0.001425 -0.002624 0.000000 0.000000 0.000000
# 2 -0.001425 0.039684 -0.007986 0.000000 0.000000 0.000000
# 3 -0.002624 -0.007986 0.012276 0.000000 0.000000 0.000000
# 4 0.000000 0.000000 0.000000 0.589166 0.000000 0.000000
# 5 0.000000 0.000000 0.000000 0.000000 0.033871 0.000000
# 6 0.000000 0.000000 0.000000 0.000000 0.000000 0.036360
#
#
# Mechanical properties :
#
#
# Convention : Reuss Voigt Hill
#
# Bulk Modulus (GPa) = 28.10987 48.03700 38.07344
# Shear Modulus (GPa) = 6.62278 25.43662 16.02970
#
# Velocity S-wave (km/s) = 1.78207 3.49248 2.77247
# Velocity P-wave (km/s) = 4.20876 6.26882 5.33909
#
# Compressibility (1/GPa) = 0.03557470
#
# Stress axis : x y z
#
# Youngs Moduli (GPa) = 130.13431 25.19876 81.45831
#
# Poissons Ratio (x) = 0.03591 0.21373
# Poissons Ratio (y) = 0.18545 0.65055
# Poissons Ratio (z) = 0.34145 0.20125
#
# Static dielectric constant tensor:
#      x y z
#    x 1.738250 0.000000 0.000000 
#    y 0.000000 1.818400 0.000000 
#    z 0.000000 0.000000 1.818610 
# 
# From -- ./inp_files/6005.got.cif
#   From: 2010.05.17/outbox.cif.g08.bks.cpg/sg21_4_cif.got.tgz:6005.got - 2010.06.03 23:14:55.
