data_PCOD9323501
_publ_section_title
;
Structure prediction by ZEFSAII (Michael W. Deem and Ramdas Pophale) SiO2 
 PCOD9323501
Probable space group: C 2 2 2
;
_chemical_formula_sum "Si O2"
_cell_formula_units_Z 30
_cell_length_a 5.043324
_cell_length_b 18.496404
_cell_length_c 14.102382
_cell_angle_alpha 90.000000
_cell_angle_beta 90.000000
_cell_angle_gamma 90.000000
_cell_volume 1315.517552
_symmetry_space_group_name_H-M "C 2 2 2"
_symmetry_group_IT_number 21
_symmetry_cell_setting 'orthorhombic'
loop_
_space_group_symop_operation_xyz
x,y,z
-x,-y,z
x,-y,-z
-x,y,-z
1/2+x,1/2+y,z
1/2-x,1/2-y,z
1/2+x,1/2-y,-z
1/2-x,1/2+y,-z
loop_
_atom_site_type_symbol
_atom_site_label
_atom_site_fract_x
_atom_site_fract_y
_atom_site_fract_z
Si Si1 0.893275 0.083795 0.599593
Si Si2 0.500000 0.500000 0.000000
Si Si3 0.638870 0.330065 0.791242
Si Si4 0.166869 0.592376 0.147534
Si Si5 0.000000 0.500000 0.314982
O O1 0.926170 0.138404 0.686618
O O2 0.000000 0.111297 0.500000
O O3 0.584978 0.064265 0.615334
O O4 0.000000 0.000000 0.607619
O O5 0.296368 0.547756 0.062376
O O6 0.750000 0.250000 0.786444
O O7 0.360604 0.339366 0.843536
O O8 0.863791 0.379956 0.843138
O O9 0.192200 0.538557 0.238270
#
# Coordination Sequence:
#
# PCOD9323501 Si02
#       5
#     8   2   8   8   4
#     4  10  20  37  65  99 135 176 244 300 332 390
#     4  12  24  46  76 118 130 166 242 310 352 414
#     4  11  24  46  67  99 146 197 226 274 361 440
#     4  11  24  41  72 101 138 178 229 294 354 421
#     4  10  20  40  64 102 140 174 232 297 359 396
#
# _framework density 22.804713
#
# number of rings (size 3 to 8) (size 9 to 14) (size 15 to 20)
#    0.000    1.333    2.667    4.000    0.000    6.933 
#    0.000    5.333    0.000    0.000    0.000    0.000 
#    0.000    0.000    0.000    0.000    0.000    0.000 
#
# Total GULP energy -83516.016865 kJ/mol
# GULP energy per Si atom -5567.734458 kJ/mol
# Density = 2.275281 g / cm^3
# Si number density = 22.804713 Si / 1000 Ang^3
#
#
#
# Elastic Constant Matrix: (Units=GPa)
#
#
# Indices 1 2 3 4 5 6 
#
# 1 89.5590 21.2196 47.8369 0.0000 0.0000 0.0000
# 2 21.2196 107.9692 38.1193 0.0000 0.0000 0.0000
# 3 47.8369 38.1193 133.1617 0.0000 0.0000 0.0000
# 4 0.0000 0.0000 0.0000 17.5056 0.0000 0.0000
# 5 0.0000 0.0000 0.0000 0.0000 37.8919 0.0000
# 6 0.0000 0.0000 0.0000 0.0000 0.0000 39.9992
#
#
#
# Elastic Compliance Matrix: (Units=1/GPa)
#
#
# Indices 1 2 3 4 5 6 
#
# 1 0.013929 -0.001080 -0.004695 0.000000 0.000000 0.000000
# 2 -0.001080 0.010387 -0.002585 0.000000 0.000000 0.000000
# 3 -0.004695 -0.002585 0.009936 0.000000 0.000000 0.000000
# 4 0.000000 0.000000 0.000000 0.057125 0.000000 0.000000
# 5 0.000000 0.000000 0.000000 0.000000 0.026391 0.000000
# 6 0.000000 0.000000 0.000000 0.000000 0.000000 0.025001
#
#
# Mechanical properties :
#
#
# Convention : Reuss Voigt Hill
#
# Bulk Modulus (GPa) = 57.03808 60.56018 58.79913
# Shear Modulus (GPa) = 30.24196 33.98028 32.11112
#
# Velocity S-wave (km/s) = 3.64555 3.86431 3.75653
# Velocity P-wave (km/s) = 6.54109 6.82086 6.68244
#
# Compressibility (1/GPa) = 0.01753215
#
# Stress axis : x y z
#
# Youngs Moduli (GPa) = 71.79054 96.27454 100.64072
#
# Poissons Ratio (x) = 0.10398 0.47249
# Poissons Ratio (y) = 0.07754 0.26020
# Poissons Ratio (z) = 0.33704 0.24891
#
# Static dielectric constant tensor:
#      x y z
#    x 2.323480 0.000000 0.000000 
#    y 0.000000 1.859920 0.000000 
#    z 0.000000 0.000000 1.869440 
# 
# From -- ./inp_files/28667.got.cif
#   From: 2010.05.17/outbox.cif.g08.bks.cpg/sg21_15_cif.got.tgz:28667.got - 2010.06.03 23:14:55.
