data_PCOD9323615
_publ_section_title
;
Structure prediction by ZEFSAII (Michael W. Deem and Ramdas Pophale) SiO2 
 PCOD9323615
Probable space group: C 2 2 2
;
_chemical_formula_sum "Si O2"
_cell_formula_units_Z 52
_cell_length_a 20.998200
_cell_length_b 7.917286
_cell_length_c 15.199843
_cell_angle_alpha 90.000000
_cell_angle_beta 90.000000
_cell_angle_gamma 90.000000
_cell_volume 2526.954973
_symmetry_space_group_name_H-M "C 2 2 2"
_symmetry_group_IT_number 21
_symmetry_cell_setting 'orthorhombic'
loop_
_space_group_symop_operation_xyz
x,y,z
-x,-y,z
x,-y,-z
-x,y,-z
1/2+x,1/2+y,z
1/2-x,1/2-y,z
1/2+x,1/2-y,-z
1/2-x,1/2+y,-z
loop_
_atom_site_type_symbol
_atom_site_label
_atom_site_fract_x
_atom_site_fract_y
_atom_site_fract_z
Si Si1 0.377130 0.775282 0.679281
Si Si2 0.879737 0.325677 0.303910
Si Si3 0.796895 0.898264 0.177852
Si Si4 0.250000 0.750000 0.223598
Si Si5 0.926622 0.797082 0.507274
Si Si6 0.496809 0.198926 0.209685
Si Si7 0.563350 0.585951 0.094876
O O1 0.321865 0.665741 0.725445
O O2 0.384798 0.763360 0.575123
O O3 0.445371 0.722365 0.722202
O O4 0.370651 0.972464 0.703223
O O5 0.812135 0.249946 0.282742
O O6 0.902322 0.271642 0.400066
O O7 0.930860 0.254215 0.233389
O O8 0.750000 0.750000 0.144994
O O9 0.864621 0.919457 0.128682
O O10 0.758130 0.073285 0.172844
O O11 0.000000 0.739522 0.500000
O O12 0.925925 0.000000 0.500000
O O13 0.463551 0.226407 0.114576
O O14 0.500000 0.000000 0.228442
O O15 0.500000 0.500000 0.140655
O O16 0.564756 0.500000 0.000000
#
# Coordination Sequence:
#
# PCOD9323615 Si02
#       7
#     8   8   8   4   8   8   8
#     4  10  20  39  62  89 126 172 228 283 324 391
#     4  11  21  37  60  94 126 175 229 272 333 399
#     4  11  23  45  70  95 133 183 230 275 343 430
#     4  12  24  40  64  92 130 174 230 272 332 414
#     4  11  22  35  55  90 132 172 223 290 341 386
#     4   9  19  36  67  94 123 166 221 272 328 400
#     4  10  22  43  70 102 135 166 215 288 352 405
#
# _framework density 20.578126000000001
#
# number of rings (size 3 to 8) (size 9 to 14) (size 15 to 20)
#    0.000    1.538    3.077    2.308    0.000    1.846 
#    2.769    1.538    0.000    0.000    0.000    0.000 
#    0.000    0.000    0.000    0.000    0.000    0.000 
#
# Total GULP energy -144783.262788 kJ/mol
# GULP energy per Si atom -5568.587030 kJ/mol
# Density = 2.053129 g / cm^3
# Si number density = 20.578126 Si / 1000 Ang^3
#
#
#
# Elastic Constant Matrix: (Units=GPa)
#
#
# Indices 1 2 3 4 5 6 
#
# 1 132.9461 35.8113 40.4035 0.0000 0.0000 0.0000
# 2 35.8113 84.8896 15.1312 0.0000 0.0000 0.0000
# 3 40.4035 15.1312 80.9890 0.0000 0.0000 0.0000
# 4 0.0000 0.0000 0.0000 28.9000 0.0000 0.0000
# 5 0.0000 0.0000 0.0000 0.0000 26.6987 0.0000
# 6 0.0000 0.0000 0.0000 0.0000 0.0000 44.6802
#
#
#
# Elastic Compliance Matrix: (Units=1/GPa)
#
#
# Indices 1 2 3 4 5 6 
#
# 1 0.009703 -0.003342 -0.004216 0.000000 0.000000 0.000000
# 2 -0.003342 0.013337 -0.000825 0.000000 0.000000 0.000000
# 3 -0.004216 -0.000825 0.014605 0.000000 0.000000 0.000000
# 4 0.000000 0.000000 0.000000 0.034602 0.000000 0.000000
# 5 0.000000 0.000000 0.000000 0.000000 0.037455 0.000000
# 6 0.000000 0.000000 0.000000 0.000000 0.000000 0.022381
#
#
# Mechanical properties :
#
#
# Convention : Reuss Voigt Hill
#
# Bulk Modulus (GPa) = 47.89416 53.50185 50.69800
# Shear Modulus (GPa) = 32.09058 33.88771 32.98914
#
# Velocity S-wave (km/s) = 3.95327 4.06246 4.00824
# Velocity P-wave (km/s) = 6.64550 6.93257 6.79055
#
# Compressibility (1/GPa) = 0.02087937
#
# Stress axis : x y z
#
# Youngs Moduli (GPa) = 103.05591 74.98059 68.47018
#
# Poissons Ratio (x) = 0.25058 0.28870
# Poissons Ratio (y) = 0.34440 0.05645
# Poissons Ratio (z) = 0.43453 0.06182
#
# Static dielectric constant tensor:
#      x y z
#    x 1.739000 0.000000 0.000000 
#    y 0.000000 2.105630 0.000000 
#    z 0.000000 0.000000 1.749810 
# 
# From -- ./inp_files/30689.got.cif
#   From: 2010.05.17/outbox.cif.g08.bks.cpg/sg21_16_cif.got.tgz:30689.got - 2010.06.03 23:14:55.
