data_PCOD9323986
_publ_section_title
;
Structure prediction by ZEFSAII (Michael W. Deem and Ramdas Pophale) SiO2 
 PCOD9323986
Probable space group: C 2 2 2
;
_chemical_formula_sum "Si O2"
_cell_formula_units_Z 32
_cell_length_a 8.711882
_cell_length_b 10.829194
_cell_length_c 16.925601
_cell_angle_alpha 90.000000
_cell_angle_beta 90.000000
_cell_angle_gamma 90.000000
_cell_volume 1596.806225
_symmetry_space_group_name_H-M "C 2 2 2"
_symmetry_group_IT_number 21
_symmetry_cell_setting 'orthorhombic'
loop_
_space_group_symop_operation_xyz
x,y,z
-x,-y,z
x,-y,-z
-x,y,-z
1/2+x,1/2+y,z
1/2-x,1/2-y,z
1/2+x,1/2-y,-z
1/2-x,1/2+y,-z
loop_
_atom_site_type_symbol
_atom_site_label
_atom_site_fract_x
_atom_site_fract_y
_atom_site_fract_z
Si Si1 0.000000 0.500000 0.313997
Si Si2 0.000000 0.000000 0.653492
Si Si3 0.711540 0.391147 0.777757
Si Si4 0.666206 0.617388 0.042156
Si Si5 0.785849 0.610460 0.561809
O O1 0.860941 0.541572 0.257800
O O2 0.922581 0.398097 0.372936
O O3 0.081245 0.906252 0.712652
O O4 0.871525 0.933733 0.602414
O O5 0.750000 0.250000 0.783339
O O6 0.659509 0.423740 0.866090
O O7 0.750000 0.750000 0.035612
O O8 0.745812 0.500000 0.000000
O O9 0.500000 0.630796 0.000000
O O10 0.819210 0.500000 0.500000
O O11 0.750000 0.750000 0.531895
#
# Coordination Sequence:
#
# PCOD9323986 Si02
#       5
#     4   4   8   8   8
#     4  10  23  40  61  86 118 156 202 248 293 352
#     4  10  21  38  61  86 118 154 198 246 297 352
#     4  10  21  39  61  86 118 157 199 244 294 351
#     4  10  22  39  60  89 123 158 197 244 297 355
#     4  11  24  40  61  89 120 157 198 246 301 356
#
# _framework density 20.039999999999999
#
# number of rings (size 3 to 8) (size 9 to 14) (size 15 to 20)
#    0.000    1.750    0.000    3.750    0.000   12.500 
#    0.000    6.250    0.000    0.000    0.000    0.000 
#    0.000    0.000    0.000    0.000    0.000    0.000 
#
# Total GULP energy -89172.530565 kJ/mol
# GULP energy per Si atom -5573.283160 kJ/mol
# Density = 1.999439 g / cm^3
# Si number density = 20.040000 Si / 1000 Ang^3
#
#
#
# Elastic Constant Matrix: (Units=GPa)
#
#
# Indices 1 2 3 4 5 6 
#
# 1 97.3301 10.5263 52.6227 0.0000 0.0000 0.0000
# 2 10.5263 110.0752 50.9923 0.0000 0.0000 0.0000
# 3 52.6227 50.9923 133.8730 0.0000 0.0000 0.0000
# 4 0.0000 0.0000 0.0000 34.0230 0.0000 0.0000
# 5 0.0000 0.0000 0.0000 0.0000 40.9854 0.0000
# 6 0.0000 0.0000 0.0000 0.0000 0.0000 14.7678
#
#
#
# Elastic Compliance Matrix: (Units=1/GPa)
#
#
# Indices 1 2 3 4 5 6 
#
# 1 0.013219 0.001388 -0.005725 0.000000 0.000000 0.000000
# 2 0.001388 0.011177 -0.004803 0.000000 0.000000 0.000000
# 3 -0.005725 -0.004803 0.011550 0.000000 0.000000 0.000000
# 4 0.000000 0.000000 0.000000 0.029392 0.000000 0.000000
# 5 0.000000 0.000000 0.000000 0.000000 0.024399 0.000000
# 6 0.000000 0.000000 0.000000 0.000000 0.000000 0.067715
#
#
# Mechanical properties :
#
#
# Convention : Reuss Voigt Hill
#
# Bulk Modulus (GPa) = 56.60547 63.28455 59.94501
# Shear Modulus (GPa) = 27.52999 33.09770 30.31384
#
# Velocity S-wave (km/s) = 3.71044 4.06837 3.89352
# Velocity P-wave (km/s) = 6.83111 7.32916 7.08451
#
# Compressibility (1/GPa) = 0.01766614
#
# Stress axis : x y z
#
# Youngs Moduli (GPa) = 75.64594 89.47025 86.58348
#
# Poissons Ratio (x) = -0.12418 0.49569
# Poissons Ratio (y) = -0.10499 0.41585
# Poissons Ratio (z) = 0.43307 0.42971
#
# Static dielectric constant tensor:
#      x y z
#    x 1.722370 0.000000 0.000000 
#    y 0.000000 1.705940 0.000000 
#    z 0.000000 0.000000 1.743110 
# 
# From -- ./inp_files/29873.got.cif
#   From: 2010.05.17/outbox.cif.g08.bks.cpg/sg21_15_cif.got.tgz:29873.got - 2010.06.03 23:14:55.
