data_PCOD9323176
_publ_section_title
;
Structure prediction by ZEFSAII (Michael W. Deem and Ramdas Pophale) SiO2 
 PCOD9323176
Probable space group: C 2 2 2
;
_chemical_formula_sum "Si O2"
_cell_formula_units_Z 48
_cell_length_a 16.823554
_cell_length_b 8.948967
_cell_length_c 14.173215
_cell_angle_alpha 90.000000
_cell_angle_beta 90.000000
_cell_angle_gamma 90.000000
_cell_volume 2133.826126
_symmetry_space_group_name_H-M "C 2 2 2"
_symmetry_group_IT_number 21
_symmetry_cell_setting 'orthorhombic'
loop_
_space_group_symop_operation_xyz
x,y,z
-x,-y,z
x,-y,-z
-x,y,-z
1/2+x,1/2+y,z
1/2-x,1/2-y,z
1/2+x,1/2-y,-z
1/2-x,1/2+y,-z
loop_
_atom_site_type_symbol
_atom_site_label
_atom_site_fract_x
_atom_site_fract_y
_atom_site_fract_z
Si Si1 0.410392 0.928771 0.095086
Si Si2 0.409779 0.562826 0.096257
Si Si3 0.091934 0.547464 0.298451
Si Si4 0.410583 0.436264 0.295420
Si Si5 0.583353 0.818434 0.438063
Si Si6 0.835733 0.809972 0.612792
O O1 0.411225 0.745759 0.094878
O O2 0.500000 0.000000 0.097352
O O3 0.373177 0.981201 0.194856
O O4 0.374298 0.000000 0.000000
O O5 0.500000 0.500000 0.094665
O O6 0.379316 0.480830 0.191307
O O7 0.371343 0.500000 0.000000
O O8 0.119236 0.471305 0.396109
O O9 0.104458 0.721552 0.317540
O O10 0.000000 0.500000 0.296726
O O11 0.500000 0.500000 0.303036
O O12 0.420531 0.272591 0.339113
O O13 0.351302 0.519848 0.365919
O O14 0.500000 0.828722 0.500000
O O15 0.640944 0.733438 0.508031
O O16 0.750000 0.750000 0.637289
#
# Coordination Sequence:
#
# PCOD9323176 Si02
#       6
#     8   8   8   8   8   8
#     4  10  20  33  56  91 132 160 204 269 333 374
#     4  10  20  33  56  91 132 160 204 269 333 374
#     4  11  22  39  64  94 129 169 218 265 321 381
#     4  11  22  39  64  94 129 169 218 265 321 381
#     4  12  24  38  63  95 128 169 223 270 308 378
#     4  12  26  44  63  95 135 171 209 274 333 375
#
# _framework density 22.494803999999998
#
# number of rings (size 3 to 8) (size 9 to 14) (size 15 to 20)
#    0.000    1.000    5.000    3.000    9.333    2.667 
#    0.000    0.000    0.000    1.000    0.000    0.000 
#    0.000    0.000    0.000    0.000    0.000    0.000 
#
# Total GULP energy -133640.590928 kJ/mol
# GULP energy per Si atom -5568.357955 kJ/mol
# Density = 2.244361 g / cm^3
# Si number density = 22.494804 Si / 1000 Ang^3
#
#
#
# Elastic Constant Matrix: (Units=GPa)
#
#
# Indices 1 2 3 4 5 6 
#
# 1 39.4175 16.5700 -1.9798 0.0000 0.0000 0.0000
# 2 16.5700 120.7072 63.4996 0.0000 0.0000 0.0000
# 3 -1.9798 63.4996 195.7007 0.0000 0.0000 0.0000
# 4 0.0000 0.0000 0.0000 36.2551 0.0000 0.0000
# 5 0.0000 0.0000 0.0000 0.0000 1.7264 0.0000
# 6 0.0000 0.0000 0.0000 0.0000 0.0000 13.2603
#
#
#
# Elastic Compliance Matrix: (Units=1/GPa)
#
#
# Indices 1 2 3 4 5 6 
#
# 1 0.027444 -0.004719 0.001809 0.000000 0.000000 0.000000
# 2 -0.004719 0.010801 -0.003552 0.000000 0.000000 0.000000
# 3 0.001809 -0.003552 0.006281 0.000000 0.000000 0.000000
# 4 0.000000 0.000000 0.000000 0.027582 0.000000 0.000000
# 5 0.000000 0.000000 0.000000 0.000000 0.579254 0.000000
# 6 0.000000 0.000000 0.000000 0.000000 0.000000 0.075413
#
#
# Mechanical properties :
#
#
# Convention : Reuss Voigt Hill
#
# Bulk Modulus (GPa) = 31.64473 56.88944 44.26709
# Shear Modulus (GPa) = 6.66459 28.76407 17.71433
#
# Velocity S-wave (km/s) = 1.72312 3.57977 2.80926
# Velocity P-wave (km/s) = 4.24935 6.51393 5.49947
#
# Compressibility (1/GPa) = 0.03160084
#
# Stress axis : x y z
#
# Youngs Moduli (GPa) = 36.43792 92.58348 159.21551
#
# Poissons Ratio (x) = 0.43689 -0.28799
# Poissons Ratio (y) = 0.17195 0.56560
# Poissons Ratio (z) = -0.06591 0.32889
#
# Static dielectric constant tensor:
#      x y z
#    x 1.879160 0.000000 0.000000 
#    y 0.000000 1.892930 0.000000 
#    z 0.000000 0.000000 1.979790 
# 
# From -- ./inp_files/32824.got.cif
#   From: 2010.05.17/outbox.cif.g08.bks.cpg/sg21_17_cif.got.tgz:32824.got - 2010.06.03 23:14:55.
