data_PCOD9323422
_publ_section_title
;
Structure prediction by ZEFSAII (Michael W. Deem and Ramdas Pophale) SiO2 
 PCOD9323422
Probable space group: C 2 2 2
;
_chemical_formula_sum "Si O2"
_cell_formula_units_Z 64
_cell_length_a 24.893131
_cell_length_b 8.923492
_cell_length_c 13.840120
_cell_angle_alpha 90.000000
_cell_angle_beta 90.000000
_cell_angle_gamma 90.000000
_cell_volume 3074.356446
_symmetry_space_group_name_H-M "C 2 2 2"
_symmetry_group_IT_number 21
_symmetry_cell_setting 'orthorhombic'
loop_
_space_group_symop_operation_xyz
x,y,z
-x,-y,z
x,-y,-z
-x,y,-z
1/2+x,1/2+y,z
1/2-x,1/2-y,z
1/2+x,1/2-y,-z
1/2-x,1/2+y,-z
loop_
_atom_site_type_symbol
_atom_site_label
_atom_site_fract_x
_atom_site_fract_y
_atom_site_fract_z
Si Si1 0.116853 0.498186 0.735012
Si Si2 0.582003 0.801913 0.430530
Si Si3 0.339559 0.628616 0.067377
Si Si4 0.940331 0.063504 0.858968
Si Si5 0.691478 0.710944 0.723216
Si Si6 0.959620 0.303808 0.364365
Si Si7 0.599273 0.499315 0.654036
Si Si8 0.898581 0.641920 0.059431
O O1 0.119316 0.610974 0.644519
O O2 0.159356 0.366159 0.724958
O O3 0.060743 0.405140 0.723392
O O4 0.120892 0.579925 0.837131
O O5 0.521501 0.819718 0.389345
O O6 0.575840 0.849536 0.541715
O O7 0.597222 0.626633 0.427384
O O8 0.397280 0.556729 0.099822
O O9 0.307257 0.657614 0.164987
O O10 0.314460 0.500000 0.000000
O O11 0.352658 0.776932 0.005601
O O12 0.917585 0.089039 0.751408
O O13 0.937792 0.220060 0.915597
O O14 0.000000 0.000000 0.859294
O O15 0.750000 0.750000 0.684665
O O16 0.655461 0.586871 0.667942
O O17 0.945133 0.130279 0.350988
O O18 0.920145 0.500000 0.000000
#
# Coordination Sequence:
#
# PCOD9323422 Si02
#       8
#     8   8   8   8   8   8   8   8
#     4  11  22  38  60  86 127 161 195 257 311 360
#     4  11  20  38  62  94 128 161 209 245 294 367
#     4   9  20  38  59  81 119 156 206 260 307 364
#     4  10  20  37  58  82 120 168 203 241 298 365
#     4  10  22  43  63  85 119 162 206 264 326 369
#     4  10  22  36  61  95 130 167 197 243 299 364
#     4  10  20  36  64  88 120 162 202 253 303 362
#     4  11  21  38  59  83 123 158 207 254 296 364
#
# _framework density 20.817364000000001
#
# number of rings (size 3 to 8) (size 9 to 14) (size 15 to 20)
#    0.000    1.750    2.500    2.250    0.000    4.250 
#    4.500    4.375    0.000   12.000    0.000    0.000 
#    0.000    0.000    0.000    0.000    0.000    0.000 
#
# Total GULP energy -178673.264297 kJ/mol
# GULP energy per Si atom -5583.539509 kJ/mol
# Density = 2.076998 g / cm^3
# Si number density = 20.817364 Si / 1000 Ang^3
#
#
#
# Elastic Constant Matrix: (Units=GPa)
#
#
# Indices 1 2 3 4 5 6 
#
# 1 38.7218 3.0604 -10.6375 0.0000 0.0000 0.0000
# 2 3.0604 104.8994 14.2979 0.0000 0.0000 0.0000
# 3 -10.6375 14.2979 54.7601 0.0000 0.0000 0.0000
# 4 0.0000 0.0000 0.0000 52.0535 0.0000 0.0000
# 5 0.0000 0.0000 0.0000 0.0000 11.6836 0.0000
# 6 0.0000 0.0000 0.0000 0.0000 0.0000 6.8142
#
#
#
# Elastic Compliance Matrix: (Units=1/GPa)
#
#
# Indices 1 2 3 4 5 6 
#
# 1 0.027534 -0.001589 0.005764 0.000000 0.000000 0.000000
# 2 -0.001589 0.009976 -0.002913 0.000000 0.000000 0.000000
# 3 0.005764 -0.002913 0.020142 0.000000 0.000000 0.000000
# 4 0.000000 0.000000 0.000000 0.019211 0.000000 0.000000
# 5 0.000000 0.000000 0.000000 0.000000 0.085590 0.000000
# 6 0.000000 0.000000 0.000000 0.000000 0.000000 0.146752
#
#
# Mechanical properties :
#
#
# Convention : Reuss Voigt Hill
#
# Bulk Modulus (GPa) = 16.61826 23.53586 20.07706
# Shear Modulus (GPa) = 15.30265 26.88765 21.09515
#
# Velocity S-wave (km/s) = 2.71420 3.59778 3.18676
# Velocity P-wave (km/s) = 4.22169 5.34688 4.81725
#
# Compressibility (1/GPa) = 0.06017476
#
# Stress axis : x y z
#
# Youngs Moduli (GPa) = 36.31847 100.23646 49.64805
#
# Poissons Ratio (x) = 0.15926 -0.28615
# Poissons Ratio (y) = 0.05771 0.14465
# Poissons Ratio (z) = -0.20932 0.29204
#
# Static dielectric constant tensor:
#      x y z
#    x 1.706340 0.000000 0.000000 
#    y 0.000000 1.794870 0.000000 
#    z 0.000000 0.000000 1.827680 
# 
# From -- ./inp_files/33624.got.cif
#   From: 2010.05.17/outbox.cif.g08.bks.cpg/sg21_17_cif.got.tgz:33624.got - 2010.06.03 23:14:55.
