data_PCOD9323130
_publ_section_title
;
Structure prediction by ZEFSAII (Michael W. Deem and Ramdas Pophale) SiO2 
 PCOD9323130
Probable space group: C 2 2 2
;
_chemical_formula_sum "Si O2"
_cell_formula_units_Z 64
_cell_length_a 9.597600
_cell_length_b 24.517548
_cell_length_c 16.840108
_cell_angle_alpha 90.000000
_cell_angle_beta 90.000000
_cell_angle_gamma 90.000000
_cell_volume 3962.639392
_symmetry_space_group_name_H-M "C 2 2 2"
_symmetry_group_IT_number 21
_symmetry_cell_setting 'orthorhombic'
loop_
_space_group_symop_operation_xyz
x,y,z
-x,-y,z
x,-y,-z
-x,y,-z
1/2+x,1/2+y,z
1/2-x,1/2-y,z
1/2+x,1/2-y,-z
1/2-x,1/2+y,-z
loop_
_atom_site_type_symbol
_atom_site_label
_atom_site_fract_x
_atom_site_fract_y
_atom_site_fract_z
Si Si1 0.583284 0.192506 0.578465
Si Si2 0.501848 0.657702 0.255190
Si Si3 0.401081 0.324672 0.427870
Si Si4 0.496460 0.210708 0.756069
Si Si5 0.161091 0.196506 0.988249
Si Si6 0.261899 0.862314 0.165613
Si Si7 0.999647 0.564990 0.905651
Si Si8 0.270082 0.146174 0.151641
O O1 0.500000 0.174725 0.500000
O O2 0.594931 0.258423 0.572810
O O3 0.735388 0.165065 0.572946
O O4 0.514033 0.187334 0.665979
O O5 0.534739 0.652435 0.347431
O O6 0.487552 0.723655 0.242093
O O7 0.360571 0.628406 0.228525
O O8 0.633928 0.637436 0.204845
O O9 0.500000 0.342426 0.500000
O O10 0.363324 0.184118 0.798364
O O11 0.632203 0.190611 0.804295
O O12 0.250000 0.250000 0.972824
O O13 0.183095 0.158147 0.912947
O O14 0.219577 0.169002 0.067498
O O15 0.000000 0.210330 0.000000
O O16 0.364079 0.910358 0.137807
O O17 0.132840 0.593969 0.865385
O O18 0.000000 0.500000 0.899336
O O19 0.000000 0.579577 0.000000
#
# Coordination Sequence:
#
# PCOD9323130 Si02
#       8
#     8   8   8   8   8   8   8   8
#     4   9  17  29  44  65  99 146 192 215 237 292
#     4  11  19  33  49  74 112 142 172 217 256 302
#     4   9  18  29  44  67 102 146 182 213 251 290
#     4  10  20  32  47  73 109 150 177 207 256 306
#     4  12  24  33  48  75 113 147 176 209 244 302
#     4  11  23  34  50  77 102 137 182 216 259 312
#     4  10  22  42  60  73  96 131 176 229 281 319
#     4  11  21  34  52  73 101 140 177 211 262 313
#
# _framework density 16.150852
#
# number of rings (size 3 to 8) (size 9 to 14) (size 15 to 20)
#    0.000    1.625    3.750    2.250    5.250    0.000 
#    0.000    0.625    0.000    2.250    0.000    0.000 
#    0.000   19.000    0.000    0.000    0.000    0.000 
#
# Total GULP energy -178473.953764 kJ/mol
# GULP energy per Si atom -5577.311055 kJ/mol
# Density = 1.611409 g / cm^3
# Si number density = 16.150852 Si / 1000 Ang^3
#
#
#
# Elastic Constant Matrix: (Units=GPa)
#
#
# Indices 1 2 3 4 5 6 
#
# 1 117.5484 22.9588 46.2495 0.0000 0.0000 0.0000
# 2 22.9588 42.2216 16.1421 0.0000 0.0000 0.0000
# 3 46.2495 16.1421 117.2036 0.0000 0.0000 0.0000
# 4 0.0000 0.0000 0.0000 8.6212 0.0000 0.0000
# 5 0.0000 0.0000 0.0000 0.0000 31.4768 0.0000
# 6 0.0000 0.0000 0.0000 0.0000 0.0000 8.3587
#
#
#
# Elastic Compliance Matrix: (Units=1/GPa)
#
#
# Indices 1 2 3 4 5 6 
#
# 1 0.010820 -0.004488 -0.003652 0.000000 0.000000 0.000000
# 2 -0.004488 0.026862 -0.001929 0.000000 0.000000 0.000000
# 3 -0.003652 -0.001929 0.010239 0.000000 0.000000 0.000000
# 4 0.000000 0.000000 0.000000 0.115993 0.000000 0.000000
# 5 0.000000 0.000000 0.000000 0.000000 0.031769 0.000000
# 6 0.000000 0.000000 0.000000 0.000000 0.000000 0.119636
#
#
# Mechanical properties :
#
#
# Convention : Reuss Voigt Hill
#
# Bulk Modulus (GPa) = 35.99061 49.74161 42.86611
# Shear Modulus (GPa) = 14.50462 22.46622 18.48542
#
# Velocity S-wave (km/s) = 3.00004 3.73369 3.38679
# Velocity P-wave (km/s) = 5.85941 7.03223 6.47244
#
# Compressibility (1/GPa) = 0.02778502
#
# Stress axis : x y z
#
# Youngs Moduli (GPa) = 92.41783 37.22702 97.66759
#
# Poissons Ratio (x) = 0.16706 0.35666
# Poissons Ratio (y) = 0.41474 0.18838
# Poissons Ratio (z) = 0.33749 0.07180
#
# Static dielectric constant tensor:
#      x y z
#    x 1.550870 0.000000 0.000000 
#    y 0.000000 1.500920 0.000000 
#    z 0.000000 0.000000 1.558960 
# 
# From -- ./inp_files/35927.got.cif
#   From: 2010.05.17/outbox.cif.g08.bks.cpg/sg21_18_cif.got.tgz:35927.got - 2010.06.03 23:14:55.
