data_PCOD9323659
_publ_section_title
;
Structure prediction by ZEFSAII (Michael W. Deem and Ramdas Pophale) SiO2 
 PCOD9323659
Probable space group: C 2 2 2
;
_chemical_formula_sum "Si O2"
_cell_formula_units_Z 48
_cell_length_a 9.672239
_cell_length_b 24.601918
_cell_length_c 10.304041
_cell_angle_alpha 90.000000
_cell_angle_beta 90.000000
_cell_angle_gamma 90.000000
_cell_volume 2451.904575
_symmetry_space_group_name_H-M "C 2 2 2"
_symmetry_group_IT_number 21
_symmetry_cell_setting 'orthorhombic'
loop_
_space_group_symop_operation_xyz
x,y,z
-x,-y,z
x,-y,-z
-x,y,-z
1/2+x,1/2+y,z
1/2-x,1/2-y,z
1/2+x,1/2-y,-z
1/2-x,1/2+y,-z
loop_
_atom_site_type_symbol
_atom_site_label
_atom_site_fract_x
_atom_site_fract_y
_atom_site_fract_z
Si Si1 0.243707 0.813157 0.682983
Si Si2 0.218263 0.957704 0.811869
Si Si3 0.459958 0.876202 0.855231
Si Si4 0.512151 0.365744 0.858258
Si Si5 0.165253 0.911640 0.526216
Si Si6 0.253559 0.078644 0.755691
O O1 0.250000 0.750000 0.654149
O O2 0.375052 0.833088 0.768277
O O3 0.223887 0.851660 0.558213
O O4 0.109282 0.829035 0.768617
O O5 0.355297 0.927519 0.862090
O O6 0.198611 0.944879 0.657316
O O7 0.092154 0.923654 0.871976
O O8 0.227042 0.021753 0.829197
O O9 0.598670 0.896684 0.787558
O O10 0.500000 0.857394 0.000000
O O11 0.365604 0.379146 0.795834
O O12 0.500000 0.341010 0.000000
O O13 0.236954 0.932621 0.396982
O O14 0.000000 0.911562 0.500000
#
# Coordination Sequence:
#
# PCOD9323659 Si02
#       6
#     8   8   8   8   8   8
#     4  10  23  45  63  83 118 157 200 262 319 346
#     4  10  22  34  57  88 126 165 190 234 293 355
#     4  10  23  41  58  88 126 158 195 251 295 353
#     4  10  21  36  57  88 118 153 204 245 285 353
#     4  10  20  40  59  88 120 152 201 258 292 347
#     4  12  20  35  61  87 119 164 199 231 296 358
#
# _framework density 19.576618
#
# number of rings (size 3 to 8) (size 9 to 14) (size 15 to 20)
#    0.000    2.000    3.333    3.500    0.000    8.000 
#    3.000    4.167    0.000    0.000    0.000    0.000 
#    0.000    0.000    0.000    0.000    0.000    0.000 
#
# Total GULP energy -134003.159606 kJ/mol
# GULP energy per Si atom -5583.464984 kJ/mol
# Density = 1.953206 g / cm^3
# Si number density = 19.576618 Si / 1000 Ang^3
#
#
#
# Elastic Constant Matrix: (Units=GPa)
#
#
# Indices 1 2 3 4 5 6 
#
# 1 109.9270 12.2889 6.5165 0.0000 0.0000 0.0000
# 2 12.2889 93.8873 -11.9118 0.0000 0.0000 0.0000
# 3 6.5165 -11.9118 36.4273 0.0000 0.0000 0.0000
# 4 0.0000 0.0000 0.0000 10.4599 0.0000 0.0000
# 5 0.0000 0.0000 0.0000 0.0000 136.3629 0.0000
# 6 0.0000 0.0000 0.0000 0.0000 0.0000 8.7995
#
#
#
# Elastic Compliance Matrix: (Units=1/GPa)
#
#
# Indices 1 2 3 4 5 6 
#
# 1 0.009394 -0.001505 -0.002173 0.000000 0.000000 0.000000
# 2 -0.001505 0.011353 0.003982 0.000000 0.000000 0.000000
# 3 -0.002173 0.003982 0.029143 0.000000 0.000000 0.000000
# 4 0.000000 0.000000 0.000000 0.095603 0.000000 0.000000
# 5 0.000000 0.000000 0.000000 0.000000 0.007333 0.000000
# 6 0.000000 0.000000 0.000000 0.000000 0.000000 0.113643
#
#
# Mechanical properties :
#
#
# Convention : Reuss Voigt Hill
#
# Bulk Modulus (GPa) = 19.80291 28.22543 24.01417
# Shear Modulus (GPa) = 17.68696 46.68100 32.18398
#
# Velocity S-wave (km/s) = 3.00904 4.88846 4.05903
# Velocity P-wave (km/s) = 4.71275 6.80529 5.85329
#
# Compressibility (1/GPa) = 0.05049762
#
# Stress axis : x y z
#
# Youngs Moduli (GPa) = 106.45069 88.08029 34.31398
#
# Poissons Ratio (x) = 0.13258 0.07455
# Poissons Ratio (y) = 0.16023 -0.13663
# Poissons Ratio (z) = 0.23129 -0.35072
#
# Static dielectric constant tensor:
#      x y z
#    x 1.664690 0.000000 0.000000 
#    y 0.000000 1.433700 0.000000 
#    z 0.000000 0.000000 1.536650 
# 
# From -- ./inp_files/22902.got.cif
#   From: 2010.05.17/outbox.cif.g08.bks.cpg/sg21_12_cif.got.tgz:22902.got - 2010.06.03 23:14:55.
