data_PCOD9323682
_publ_section_title
;
Structure prediction by ZEFSAII (Michael W. Deem and Ramdas Pophale) SiO2 
 PCOD9323682
Probable space group: C 2 2 2
;
_chemical_formula_sum "Si O2"
_cell_formula_units_Z 32
_cell_length_a 15.621930
_cell_length_b 8.361050
_cell_length_c 12.534220
_cell_angle_alpha 90.000000
_cell_angle_beta 90.000000
_cell_angle_gamma 90.000000
_cell_volume 1637.166393
_symmetry_space_group_name_H-M "C 2 2 2"
_symmetry_group_IT_number 21
_symmetry_cell_setting 'orthorhombic'
loop_
_space_group_symop_operation_xyz
x,y,z
-x,-y,z
x,-y,-z
-x,y,-z
1/2+x,1/2+y,z
1/2-x,1/2-y,z
1/2+x,1/2-y,-z
1/2-x,1/2+y,-z
loop_
_atom_site_type_symbol
_atom_site_label
_atom_site_fract_x
_atom_site_fract_y
_atom_site_fract_z
Si Si1 0.670202 0.368936 0.593268
Si Si2 0.977699 0.811834 0.880959
Si Si3 0.162153 0.160240 0.729297
Si Si4 0.493399 0.814050 0.660992
O O1 0.674963 0.500000 0.500000
O O2 0.750000 0.250000 0.585699
O O3 0.673601 0.475372 0.701049
O O4 0.581124 0.273190 0.597046
O O5 0.878117 0.805118 0.845610
O O6 0.025006 0.711919 0.788168
O O7 0.000000 0.000000 0.868960
O O8 0.000000 0.761415 0.000000
O O9 0.250000 0.250000 0.711357
O O10 0.085790 0.228422 0.653871
O O11 0.500000 0.000000 0.635518
#
# Coordination Sequence:
#
# PCOD9323682 Si02
#       4
#     8   8   8   8
#     4  12  25  43  64  95 128 170 219 277 335 395
#     4   9  18  38  67  91 133 176 215 262 324 378
#     4  10  20  40  65  95 130 171 215 275 322 385
#     4  10  21  40  66  96 130 175 209 272 322 389
#
# _framework density 19.545967999999998
#
# number of rings (size 3 to 8) (size 9 to 14) (size 15 to 20)
#    1.500    0.250    2.500    3.000    0.000    2.500 
#    0.000    2.500    5.500    0.000    0.000    0.000 
#    0.000    0.000    0.000    0.000    0.000    0.000 
#
# Total GULP energy -89171.472171 kJ/mol
# GULP energy per Si atom -5573.217011 kJ/mol
# Density = 1.950148 g / cm^3
# Si number density = 19.545968 Si / 1000 Ang^3
#
#
#
# Elastic Constant Matrix: (Units=GPa)
#
#
# Indices 1 2 3 4 5 6 
#
# 1 186.8884 76.9773 40.5707 0.0000 0.0000 0.0000
# 2 76.9773 125.5793 26.8101 0.0000 0.0000 0.0000
# 3 40.5707 26.8101 114.6647 0.0000 0.0000 0.0000
# 4 0.0000 0.0000 0.0000 23.1762 0.0000 0.0000
# 5 0.0000 0.0000 0.0000 0.0000 6.0855 0.0000
# 6 0.0000 0.0000 0.0000 0.0000 0.0000 41.8762
#
#
#
# Elastic Compliance Matrix: (Units=1/GPa)
#
#
# Indices 1 2 3 4 5 6 
#
# 1 0.007443 -0.004210 -0.001649 0.000000 0.000000 0.000000
# 2 -0.004210 0.010763 -0.001027 0.000000 0.000000 0.000000
# 3 -0.001649 -0.001027 0.009545 0.000000 0.000000 0.000000
# 4 0.000000 0.000000 0.000000 0.043148 0.000000 0.000000
# 5 0.000000 0.000000 0.000000 0.000000 0.164326 0.000000
# 6 0.000000 0.000000 0.000000 0.000000 0.000000 0.023880
#
#
# Mechanical properties :
#
#
# Convention : Reuss Voigt Hill
#
# Bulk Modulus (GPa) = 71.53948 79.53874 75.53911
# Shear Modulus (GPa) = 18.01569 33.07922 25.54745
#
# Velocity S-wave (km/s) = 3.03926 4.11832 3.61923
# Velocity P-wave (km/s) = 6.99973 7.96213 7.49639
#
# Compressibility (1/GPa) = 0.01397830
#
# Stress axis : x y z
#
# Youngs Moduli (GPa) = 134.35544 92.90970 104.77084
#
# Poissons Ratio (x) = 0.39118 0.17277
# Poissons Ratio (y) = 0.56568 0.10759
# Poissons Ratio (z) = 0.22156 0.09541
#
# Static dielectric constant tensor:
#      x y z
#    x 1.669370 0.000000 0.000000 
#    y 0.000000 1.662750 0.000000 
#    z 0.000000 0.000000 1.758320 
# 
# From -- ./inp_files/31955.got.cif
#   From: 2010.05.17/outbox.cif.g08.bks.cpg/sg21_16_cif.got.tgz:31955.got - 2010.06.03 23:14:55.
