data_PCOD9323791
_publ_section_title
;
Structure prediction by ZEFSAII (Michael W. Deem and Ramdas Pophale) SiO2 
 PCOD9323791
Probable space group: C 2 2 2
;
_chemical_formula_sum "Si O2"
_cell_formula_units_Z 40
_cell_length_a 15.156107
_cell_length_b 25.156056
_cell_length_c 5.147842
_cell_angle_alpha 90.000000
_cell_angle_beta 90.000000
_cell_angle_gamma 90.000000
_cell_volume 1962.706788
_symmetry_space_group_name_H-M "C 2 2 2"
_symmetry_group_IT_number 21
_symmetry_cell_setting 'orthorhombic'
loop_
_space_group_symop_operation_xyz
x,y,z
-x,-y,z
x,-y,-z
-x,y,-z
1/2+x,1/2+y,z
1/2-x,1/2-y,z
1/2+x,1/2-y,-z
1/2-x,1/2+y,-z
loop_
_atom_site_type_symbol
_atom_site_label
_atom_site_fract_x
_atom_site_fract_y
_atom_site_fract_z
Si Si1 0.092596 0.329163 0.883199
Si Si2 0.848710 0.443403 0.067760
Si Si3 0.299092 0.805551 0.605835
Si Si4 0.459066 0.440113 0.257411
Si Si5 0.236340 0.080171 0.436839
O O1 0.091914 0.393533 0.852117
O O2 0.122024 0.307109 0.605194
O O3 0.164774 0.314661 0.102904
O O4 0.000000 0.311268 0.000000
O O5 0.773289 0.445820 0.295967
O O6 0.890947 0.500000 0.000000
O O7 0.805095 0.429079 0.793302
O O8 0.250000 0.750000 0.589651
O O9 0.237245 0.855911 0.527673
O O10 0.500000 0.500000 0.254373
O O11 0.500000 0.410242 0.500000
O O12 0.355825 0.440863 0.319907
O O13 0.500000 0.415336 0.000000
#
# Coordination Sequence:
#
# PCOD9323791 Si02
#       5
#     8   8   8   8   8
#     4  10  21  39  61  91 119 148 194 241 294 352
#     4  10  21  33  57  84 113 155 188 228 289 347
#     4  10  21  40  63  85 114 156 196 245 295 350
#     4  10  21  32  48  74 106 151 186 232 282 328
#     4  10  21  36  53  80 114 148 202 236 278 362
#
# _framework density 20.380019000000001
#
# number of rings (size 3 to 8) (size 9 to 14) (size 15 to 20)
#    0.000    2.000    0.000    3.000    8.400    0.400 
#    0.000    3.000    0.000    7.200    0.000    0.000 
#    0.000    0.000    0.000    0.000    0.000    0.000 
#
# Total GULP energy -111427.826458 kJ/mol
# GULP energy per Si atom -5571.391323 kJ/mol
# Density = 2.033363 g / cm^3
# Si number density = 20.380019 Si / 1000 Ang^3
#
#
#
# Elastic Constant Matrix: (Units=GPa)
#
#
# Indices 1 2 3 4 5 6 
#
# 1 38.5072 22.6940 -18.7645 0.0000 0.0000 0.0000
# 2 22.6940 79.7475 13.1920 0.0000 0.0000 0.0000
# 3 -18.7645 13.1920 120.9161 0.0000 0.0000 0.0000
# 4 0.0000 0.0000 0.0000 11.4428 0.0000 0.0000
# 5 0.0000 0.0000 0.0000 0.0000 28.5262 0.0000
# 6 0.0000 0.0000 0.0000 0.0000 0.0000 7.9629
#
#
#
# Elastic Compliance Matrix: (Units=1/GPa)
#
#
# Indices 1 2 3 4 5 6 
#
# 1 0.035999 -0.011374 0.006827 0.000000 0.000000 0.000000
# 2 -0.011374 0.016364 -0.003550 0.000000 0.000000 0.000000
# 3 0.006827 -0.003550 0.009717 0.000000 0.000000 0.000000
# 4 0.000000 0.000000 0.000000 0.087391 0.000000 0.000000
# 5 0.000000 0.000000 0.000000 0.000000 0.035055 0.000000
# 6 0.000000 0.000000 0.000000 0.000000 0.000000 0.125583
#
#
# Mechanical properties :
#
#
# Convention : Reuss Voigt Hill
#
# Bulk Modulus (GPa) = 21.79288 30.37929 26.08609
# Shear Modulus (GPa) = 14.63709 24.38967 19.51338
#
# Velocity S-wave (km/s) = 2.68285 3.46315 3.09767
# Velocity P-wave (km/s) = 4.50703 5.56147 5.06179
#
# Compressibility (1/GPa) = 0.04588655
#
# Stress axis : x y z
#
# Youngs Moduli (GPa) = 27.77833 61.11136 102.91163
#
# Poissons Ratio (x) = 0.69507 -0.70263
# Poissons Ratio (y) = 0.31595 0.36537
# Poissons Ratio (z) = -0.18966 0.21697
#
# Static dielectric constant tensor:
#      x y z
#    x 1.794640 0.000000 0.000000 
#    y 0.000000 1.748400 0.000000 
#    z 0.000000 0.000000 1.721380 
# 
# From -- ./inp_files/3847.got.cif
#   From: 2010.05.17/outbox.cif.g08.bks.cpg/sg21_2_cif.got.tgz:3847.got - 2010.06.03 23:14:55.
