data_PCOD9323883
_publ_section_title
;
Structure prediction by ZEFSAII (Michael W. Deem and Ramdas Pophale) SiO2 
 PCOD9323883
Probable space group: C 2 2 2
;
_chemical_formula_sum "Si O2"
_cell_formula_units_Z 56
_cell_length_a 12.016365
_cell_length_b 21.548260
_cell_length_c 9.588174
_cell_angle_alpha 90.000000
_cell_angle_beta 90.000000
_cell_angle_gamma 90.000000
_cell_volume 2482.682743
_symmetry_space_group_name_H-M "C 2 2 2"
_symmetry_group_IT_number 21
_symmetry_cell_setting 'orthorhombic'
loop_
_space_group_symop_operation_xyz
x,y,z
-x,-y,z
x,-y,-z
-x,y,-z
1/2+x,1/2+y,z
1/2-x,1/2-y,z
1/2+x,1/2-y,-z
1/2-x,1/2+y,-z
loop_
_atom_site_type_symbol
_atom_site_label
_atom_site_fract_x
_atom_site_fract_y
_atom_site_fract_z
Si Si1 0.904322 0.845239 0.892987
Si Si2 0.537217 0.821628 0.337034
Si Si3 0.410579 0.681111 0.677248
Si Si4 0.270520 0.910863 0.741353
Si Si5 0.816381 0.905681 0.549588
Si Si6 0.875546 0.978048 0.808705
Si Si7 0.204659 0.689916 0.257020
O O1 0.868496 0.916800 0.902977
O O2 0.786914 0.811368 0.875867
O O3 0.971521 0.835225 0.747536
O O4 0.000000 0.826515 0.000000
O O5 0.500000 0.833219 0.500000
O O6 0.599936 0.754968 0.337081
O O7 0.610500 0.876411 0.267840
O O8 0.426678 0.809664 0.245355
O O9 0.317242 0.645382 0.769867
O O10 0.611749 0.646149 0.468106
O O11 0.251697 0.931830 0.580598
O O12 0.222400 0.970969 0.822598
O O13 0.877075 0.954471 0.647452
O O14 0.733840 0.870557 0.654076
O O15 0.000000 0.000000 0.835888
O O16 0.250000 0.750000 0.338873
#
# Coordination Sequence:
#
# PCOD9323883 Si02
#       7
#     8   8   8   8   8   8   8
#     4  11  25  43  64  90 119 172 238 295 334 379
#     4  12  21  36  62 100 146 181 211 261 350 461
#     4  10  21  36  62  93 131 167 219 285 336 406
#     4  10  22  34  56  98 132 174 212 264 347 412
#     4   9  21  33  56  95 129 168 211 259 340 417
#     4  11  21  39  61  92 127 167 221 290 346 399
#     4  11  21  38  64  94 134 179 218 266 338 425
#
# _framework density 22.556244
#
# number of rings (size 3 to 8) (size 9 to 14) (size 15 to 20)
#    0.857    0.571    4.286    1.714    2.000    4.857 
#    0.000    4.286    0.000    0.000    0.000    0.000 
#    8.571    0.000    0.000    0.000    0.000    0.000 
#
# Total GULP energy -155917.622631 kJ/mol
# GULP energy per Si atom -5568.486523 kJ/mol
# Density = 2.250491 g / cm^3
# Si number density = 22.556244 Si / 1000 Ang^3
#
#
#
# Elastic Constant Matrix: (Units=GPa)
#
#
# Indices 1 2 3 4 5 6 
#
# 1 132.2132 54.6780 17.5239 0.0000 0.0000 0.0000
# 2 54.6780 104.7132 13.4431 0.0000 0.0000 0.0000
# 3 17.5239 13.4431 66.0805 0.0000 0.0000 0.0000
# 4 0.0000 0.0000 0.0000 10.1100 0.0000 0.0000
# 5 0.0000 0.0000 0.0000 0.0000 25.2003 0.0000
# 6 0.0000 0.0000 0.0000 0.0000 0.0000 44.2923
#
#
#
# Elastic Compliance Matrix: (Units=1/GPa)
#
#
# Indices 1 2 3 4 5 6 
#
# 1 0.009809 -0.004916 -0.001601 0.000000 0.000000 0.000000
# 2 -0.004916 0.012270 -0.001192 0.000000 0.000000 0.000000
# 3 -0.001601 -0.001192 0.015800 0.000000 0.000000 0.000000
# 4 0.000000 0.000000 0.000000 0.098912 0.000000 0.000000
# 5 0.000000 0.000000 0.000000 0.000000 0.039682 0.000000
# 6 0.000000 0.000000 0.000000 0.000000 0.000000 0.022577
#
#
# Mechanical properties :
#
#
# Convention : Reuss Voigt Hill
#
# Bulk Modulus (GPa) = 44.52437 52.69967 48.61202
# Shear Modulus (GPa) = 22.52685 30.41130 26.46907
#
# Velocity S-wave (km/s) = 3.16364 3.67583 3.42931
# Velocity P-wave (km/s) = 5.75560 6.43661 6.10561
#
# Compressibility (1/GPa) = 0.02245961
#
# Stress axis : x y z
#
# Youngs Moduli (GPa) = 101.94738 81.49841 63.29022
#
# Poissons Ratio (x) = 0.40068 0.10133
# Poissons Ratio (y) = 0.50121 0.07547
# Poissons Ratio (z) = 0.16323 0.09718
#
# Static dielectric constant tensor:
#      x y z
#    x 1.872810 0.000000 0.000000 
#    y 0.000000 1.947640 0.000000 
#    z 0.000000 0.000000 1.975850 
# 
# From -- ./inp_files/24246.got.cif
#   From: 2010.05.17/outbox.cif.g08.bks.cpg/sg21_13_cif.got.tgz:24246.got - 2010.06.03 23:14:55.
