data_PCOD9323938
_publ_section_title
;
Structure prediction by ZEFSAII (Michael W. Deem and Ramdas Pophale) SiO2 
 PCOD9323938
Probable space group: C 2 2 2
;
_chemical_formula_sum "Si O2"
_cell_formula_units_Z 48
_cell_length_a 12.348889
_cell_length_b 23.363206
_cell_length_c 7.707684
_cell_angle_alpha 90.000000
_cell_angle_beta 90.000000
_cell_angle_gamma 90.000000
_cell_volume 2223.741117
_symmetry_space_group_name_H-M "C 2 2 2"
_symmetry_group_IT_number 21
_symmetry_cell_setting 'orthorhombic'
loop_
_space_group_symop_operation_xyz
x,y,z
-x,-y,z
x,-y,-z
-x,y,-z
1/2+x,1/2+y,z
1/2-x,1/2-y,z
1/2+x,1/2-y,-z
1/2-x,1/2+y,-z
loop_
_atom_site_type_symbol
_atom_site_label
_atom_site_fract_x
_atom_site_fract_y
_atom_site_fract_z
Si Si1 0.762092 0.614367 0.163880
Si Si2 0.540736 0.178591 0.818471
Si Si3 0.677932 0.869440 0.769539
Si Si4 0.839543 0.204645 0.366967
Si Si5 0.578860 0.300271 0.747864
Si Si6 0.371567 0.000633 0.709141
O O1 0.860767 0.645259 0.265628
O O2 0.646662 0.642823 0.210087
O O3 0.795562 0.548212 0.200794
O O4 0.780190 0.637867 0.967268
O O5 0.428088 0.168719 0.718560
O O6 0.586285 0.241855 0.857941
O O7 0.500000 0.151447 0.000000
O O8 0.772572 0.853528 0.638106
O O9 0.658806 0.936135 0.763655
O O10 0.750000 0.250000 0.298981
O O11 0.877251 0.219515 0.559706
O O12 0.949495 0.193168 0.262450
O O13 0.500000 0.000000 0.753502
O O14 0.361338 0.000000 0.500000
#
# Coordination Sequence:
#
# PCOD9323938 Si02
#       6
#     8   8   8   8   8   8
#     4  11  23  39  64  96 130 171 218 271 330 389
#     4  10  21  37  63  94 129 173 211 269 323 390
#     4  11  23  40  66  95 131 171 222 273 327 397
#     4  11  23  41  62  92 131 176 216 268 330 398
#     4  11  24  40  62  93 134 174 218 270 327 399
#     4  11  23  41  66  96 131 172 222 278 334 393
#
# _framework density 21.585245
#
# number of rings (size 3 to 8) (size 9 to 14) (size 15 to 20)
#    0.000    1.167    3.333    3.000    2.333    0.667 
#    0.000    0.833    0.000    5.000    0.000    0.000 
#    0.000    0.000    0.000    0.000    0.000    0.000 
#
# Total GULP energy -133624.975348 kJ/mol
# GULP energy per Si atom -5567.707306 kJ/mol
# Density = 2.153612 g / cm^3
# Si number density = 21.585245 Si / 1000 Ang^3
#
#
#
# Elastic Constant Matrix: (Units=GPa)
#
#
# Indices 1 2 3 4 5 6 
#
# 1 163.1715 67.4572 19.7149 0.0000 0.0000 0.0000
# 2 67.4572 114.9109 0.7456 0.0000 0.0000 0.0000
# 3 19.7149 0.7456 41.9670 0.0000 0.0000 0.0000
# 4 0.0000 0.0000 0.0000 26.0002 0.0000 0.0000
# 5 0.0000 0.0000 0.0000 0.0000 16.4588 0.0000
# 6 0.0000 0.0000 0.0000 0.0000 0.0000 39.3174
#
#
#
# Elastic Compliance Matrix: (Units=1/GPa)
#
#
# Indices 1 2 3 4 5 6 
#
# 1 0.008717 -0.005091 -0.004005 0.000000 0.000000 0.000000
# 2 -0.005091 0.011677 0.002184 0.000000 0.000000 0.000000
# 3 -0.004005 0.002184 0.025671 0.000000 0.000000 0.000000
# 4 0.000000 0.000000 0.000000 0.038461 0.000000 0.000000
# 5 0.000000 0.000000 0.000000 0.000000 0.060758 0.000000
# 6 0.000000 0.000000 0.000000 0.000000 0.000000 0.025434
#
#
# Mechanical properties :
#
#
# Convention : Reuss Voigt Hill
#
# Bulk Modulus (GPa) = 31.01579 55.09829 43.05704
# Shear Modulus (GPa) = 25.60312 31.83072 28.71692
#
# Velocity S-wave (km/s) = 3.44777 3.84429 3.65142
# Velocity P-wave (km/s) = 5.49997 6.72949 6.14556
#
# Compressibility (1/GPa) = 0.03224164
#
# Stress axis : x y z
#
# Youngs Moduli (GPa) = 114.71560 85.63808 38.95486
#
# Poissons Ratio (x) = 0.43601 0.15600
# Poissons Ratio (y) = 0.58406 -0.08509
# Poissons Ratio (z) = 0.45940 -0.18706
#
# Static dielectric constant tensor:
#      x y z
#    x 1.856980 0.000000 0.000000 
#    y 0.000000 1.826750 0.000000 
#    z 0.000000 0.000000 1.908800 
# 
# From -- ./inp_files/13307.got.cif
#   From: 2010.05.17/outbox.cif.g08.bks.cpg/sg21_7_cif.got.tgz:13307.got - 2010.06.03 23:14:55.
