data_PCOD9323670
_publ_section_title
;
Structure prediction by ZEFSAII (Michael W. Deem and Ramdas Pophale) SiO2 
 PCOD9323670
Probable space group: C 2 2 2
;
_chemical_formula_sum "Si O2"
_cell_formula_units_Z 48
_cell_length_a 9.585667
_cell_length_b 17.373840
_cell_length_c 15.265116
_cell_angle_alpha 90.000000
_cell_angle_beta 90.000000
_cell_angle_gamma 90.000000
_cell_volume 2542.250049
_symmetry_space_group_name_H-M "C 2 2 2"
_symmetry_group_IT_number 21
_symmetry_cell_setting 'orthorhombic'
loop_
_space_group_symop_operation_xyz
x,y,z
-x,-y,z
x,-y,-z
-x,y,-z
1/2+x,1/2+y,z
1/2-x,1/2-y,z
1/2+x,1/2-y,-z
1/2-x,1/2+y,-z
loop_
_atom_site_type_symbol
_atom_site_label
_atom_site_fract_x
_atom_site_fract_y
_atom_site_fract_z
Si Si1 0.495783 0.084534 0.345106
Si Si2 0.730032 0.892261 0.202963
Si Si3 0.288449 0.930775 0.182658
Si Si4 0.085369 0.254014 0.582830
Si Si5 0.482117 0.815863 0.099258
Si Si6 0.964790 0.177389 0.228953
O O1 0.348956 0.102176 0.297029
O O2 0.605656 0.077183 0.264792
O O3 0.540318 0.157455 0.401224
O O4 0.500000 0.000000 0.388093
O O5 0.628250 0.844996 0.139391
O O6 0.879454 0.853319 0.213171
O O7 0.737192 0.979455 0.167507
O O8 0.370275 0.885258 0.106626
O O9 0.146719 0.888474 0.208304
O O10 0.250000 0.250000 0.566625
O O11 0.052606 0.208640 0.672475
O O12 0.000000 0.223254 0.500000
O O13 0.434250 0.747822 0.163291
O O14 0.500000 0.790189 0.000000
#
# Coordination Sequence:
#
# PCOD9323670 Si02
#       6
#     8   8   8   8   8   8
#     4   9  19  39  62  86 116 158 204 244 299 366
#     4  10  22  36  64  90 118 160 208 247 305 364
#     4  10  20  40  62  85 120 167 198 249 309 368
#     4  12  25  40  65  93 125 167 208 258 315 367
#     4  11  23  39  63  91 123 163 210 254 305 372
#     4  12  22  40  62  92 127 156 203 263 314 363
#
# _framework density 18.880911999999999
#
# number of rings (size 3 to 8) (size 9 to 14) (size 15 to 20)
#    0.000    1.333    5.000    3.000    2.333    4.333 
#    0.000    0.000    0.000    5.000    0.000    0.000 
#    0.000    0.000    0.000    0.000    0.000    0.000 
#
# Total GULP energy -134086.251813 kJ/mol
# GULP energy per Si atom -5586.927159 kJ/mol
# Density = 1.883794 g / cm^3
# Si number density = 18.880912 Si / 1000 Ang^3
#
#
#
# Elastic Constant Matrix: (Units=GPa)
#
#
# Indices 1 2 3 4 5 6 
#
# 1 117.8952 23.4701 12.6377 0.0000 0.0000 0.0000
# 2 23.4701 61.2768 -4.1178 0.0000 0.0000 0.0000
# 3 12.6377 -4.1178 79.2430 0.0000 0.0000 0.0000
# 4 0.0000 0.0000 0.0000 -4.5943 0.0000 0.0000
# 5 0.0000 0.0000 0.0000 0.0000 2.8688 0.0000
# 6 0.0000 0.0000 0.0000 0.0000 0.0000 30.8430
#
#
#
# Elastic Compliance Matrix: (Units=1/GPa)
#
#
# Indices 1 2 3 4 5 6 
#
# 1 0.009403 -0.003715 -0.001693 0.000000 0.000000 0.000000
# 2 -0.003715 0.017845 0.001520 0.000000 0.000000 0.000000
# 3 -0.001693 0.001520 0.012968 0.000000 0.000000 0.000000
# 4 0.000000 0.000000 0.000000 -0.217661 0.000000 0.000000
# 5 0.000000 0.000000 0.000000 0.000000 0.348575 0.000000
# 6 0.000000 0.000000 0.000000 0.000000 0.000000 0.032422
#
#
# Mechanical properties :
#
#
# Convention : Reuss Voigt Hill
#
# Bulk Modulus (GPa) = 30.82650 35.82168 33.32409
# Shear Modulus (GPa) = 22.50812 20.91850 21.71331
#
# Velocity S-wave (km/s) = 3.45644 3.33215 3.39486
# Velocity P-wave (km/s) = 5.68257 5.81532 5.74933
#
# Compressibility (1/GPa) = 0.03243962
#
# Stress axis : x y z
#
# Youngs Moduli (GPa) = 106.34690 56.03953 77.11089
#
# Poissons Ratio (x) = 0.20821 0.13052
# Poissons Ratio (y) = 0.39511 -0.11719
# Poissons Ratio (z) = 0.18001 -0.08517
#
# Static dielectric constant tensor:
#      x y z
#    x 1.640200 0.000000 0.000000 
#    y 0.000000 1.779230 0.000000 
#    z 0.000000 0.000000 1.648310 
# 
# From -- ./inp_files/30495.got.cif
#   From: 2010.05.17/outbox.cif.g08.bks.cpg/sg21_16_cif.got.tgz:30495.got - 2010.06.03 23:14:55.
