data_PCOD9323628
_publ_section_title
;
Structure prediction by ZEFSAII (Michael W. Deem and Ramdas Pophale) SiO2 
 PCOD9323628
Probable space group: C 2 2 2
;
_chemical_formula_sum "Si O2"
_cell_formula_units_Z 58
_cell_length_a 9.566146
_cell_length_b 10.726223
_cell_length_c 26.386798
_cell_angle_alpha 90.000000
_cell_angle_beta 90.000000
_cell_angle_gamma 90.000000
_cell_volume 2707.512804
_symmetry_space_group_name_H-M "C 2 2 2"
_symmetry_group_IT_number 21
_symmetry_cell_setting 'orthorhombic'
loop_
_space_group_symop_operation_xyz
x,y,z
-x,-y,z
x,-y,-z
-x,y,-z
1/2+x,1/2+y,z
1/2-x,1/2-y,z
1/2+x,1/2-y,-z
1/2-x,1/2+y,-z
loop_
_atom_site_type_symbol
_atom_site_label
_atom_site_fract_x
_atom_site_fract_y
_atom_site_fract_z
Si Si1 0.838489 0.865059 0.482491
Si Si2 0.188313 0.367709 0.375517
Si Si3 0.954725 0.276670 0.835595
Si Si4 0.379782 0.104900 0.751108
Si Si5 0.000000 0.000000 0.000000
Si Si6 0.794124 0.963924 0.180691
Si Si7 0.872711 0.848401 0.910735
Si Si8 0.867381 0.344504 0.359144
O O1 0.750000 0.750000 0.503797
O O2 0.795911 0.867214 0.423166
O O3 0.000000 0.853173 0.500000
O O4 0.788000 0.000000 0.500000
O O5 0.250000 0.250000 0.343574
O O6 0.185377 0.511489 0.358067
O O7 0.021493 0.341410 0.384824
O O8 0.894966 0.152116 0.810101
O O9 0.847518 0.390991 0.835663
O O10 0.083465 0.319388 0.801630
O O11 0.995996 0.232291 0.891141
O O12 0.386161 0.184576 0.700486
O O13 0.500000 0.000000 0.743856
O O14 0.238368 0.036128 0.767426
O O15 0.906634 0.918086 0.962245
O O16 0.840748 0.052962 0.134691
O O17 0.750000 0.750000 0.915906
O O18 0.750000 0.250000 0.379551
#
# Coordination Sequence:
#
# PCOD9323628 Si02
#       8
#     8   8   8   8   2   8   8   8
#     4  10  24  44  73 109 138 180 243 297 352 421
#     4  10  24  47  68  97 149 188 227 296 353 413
#     4  10  21  38  65  95 126 161 212 272 328 382
#     4  10  20  39  64  99 135 171 221 276 322 407
#     4  12  28  44  60  96 128 172 224 268 356 424
#     4  10  21  38  65  95 126 162 211 273 328 384
#     4  12  24  42  66  92 128 169 212 279 336 409
#     4  11  25  43  67  98 142 193 235 278 355 426
#
# _framework density 21.421875
#
# number of rings (size 3 to 8) (size 9 to 14) (size 15 to 20)
#    0.000    1.517    4.138    0.000    1.931   12.414 
#    0.000    0.000    0.000    0.000    0.000    0.000 
#    0.000    0.000    0.000    0.000    0.000    0.000 
#
# Total GULP energy -161691.898807 kJ/mol
# GULP energy per Si atom -5575.582717 kJ/mol
# Density = 2.137312 g / cm^3
# Si number density = 21.421875 Si / 1000 Ang^3
#
#
#
# Elastic Constant Matrix: (Units=GPa)
#
#
# Indices 1 2 3 4 5 6 
#
# 1 84.8398 43.4266 13.5119 0.0000 0.0000 0.0000
# 2 43.4266 122.7339 1.7166 0.0000 0.0000 0.0000
# 3 13.5119 1.7166 76.6983 0.0000 0.0000 0.0000
# 4 0.0000 0.0000 0.0000 28.0545 0.0000 0.0000
# 5 0.0000 0.0000 0.0000 0.0000 24.9391 0.0000
# 6 0.0000 0.0000 0.0000 0.0000 0.0000 39.1632
#
#
#
# Elastic Compliance Matrix: (Units=1/GPa)
#
#
# Indices 1 2 3 4 5 6 
#
# 1 0.014858 -0.005222 -0.002501 0.000000 0.000000 0.000000
# 2 -0.005222 0.009986 0.000697 0.000000 0.000000 0.000000
# 3 -0.002501 0.000697 0.013463 0.000000 0.000000 0.000000
# 4 0.000000 0.000000 0.000000 0.035645 0.000000 0.000000
# 5 0.000000 0.000000 0.000000 0.000000 0.040098 0.000000
# 6 0.000000 0.000000 0.000000 0.000000 0.000000 0.025534
#
#
# Mechanical properties :
#
#
# Convention : Reuss Voigt Hill
#
# Bulk Modulus (GPa) = 41.23002 44.62023 42.92513
# Shear Modulus (GPa) = 30.91734 33.47248 32.19491
#
# Velocity S-wave (km/s) = 3.80315 3.95718 3.88093
# Velocity P-wave (km/s) = 6.21077 6.46170 6.33748
#
# Compressibility (1/GPa) = 0.02425417
#
# Stress axis : x y z
#
# Youngs Moduli (GPa) = 67.30245 100.14262 74.27732
#
# Poissons Ratio (x) = 0.52297 0.18574
# Poissons Ratio (y) = 0.35147 -0.05173
# Poissons Ratio (z) = 0.16830 -0.06975
#
# Static dielectric constant tensor:
#      x y z
#    x 1.824610 0.000000 0.000000 
#    y 0.000000 1.838060 0.000000 
#    z 0.000000 0.000000 1.767200 
# 
# From -- ./inp_files/39217.got.cif
#   From: 2010.05.17/outbox.cif.g08.bks.cpg/sg21_20_cif.got.tgz:39217.got - 2010.06.03 23:14:55.
