data_PCOD9323874
_publ_section_title
;
Structure prediction by ZEFSAII (Michael W. Deem and Ramdas Pophale) SiO2 
 PCOD9323874
Probable space group: C 2 2 2
;
_chemical_formula_sum "Si O2"
_cell_formula_units_Z 48
_cell_length_a 8.864562
_cell_length_b 28.468557
_cell_length_c 9.708662
_cell_angle_alpha 90.000000
_cell_angle_beta 90.000000
_cell_angle_gamma 90.000000
_cell_volume 2450.090453
_symmetry_space_group_name_H-M "C 2 2 2"
_symmetry_group_IT_number 21
_symmetry_cell_setting 'orthorhombic'
loop_
_space_group_symop_operation_xyz
x,y,z
-x,-y,z
x,-y,-z
-x,y,-z
1/2+x,1/2+y,z
1/2-x,1/2-y,z
1/2+x,1/2-y,-z
1/2-x,1/2+y,-z
loop_
_atom_site_type_symbol
_atom_site_label
_atom_site_fract_x
_atom_site_fract_y
_atom_site_fract_z
Si Si1 0.731147 0.195127 0.895233
Si Si2 0.171025 0.946491 0.950276
Si Si3 0.042551 0.873927 0.773978
Si Si4 0.695233 0.125710 0.132352
Si Si5 0.250000 0.750000 0.384594
Si Si6 0.012409 0.325173 0.666607
Si Si7 0.000000 0.180530 0.500000
O O1 0.750000 0.250000 0.917709
O O2 0.884941 0.166444 0.869406
O O3 0.634405 0.187615 0.755322
O O4 0.667235 0.169662 0.030847
O O5 0.144194 0.921063 0.801361
O O6 0.300688 0.918186 0.029140
O O7 0.000000 0.935347 0.000000
O O8 0.190947 0.000000 0.000000
O O9 0.864417 0.875977 0.806012
O O10 0.050094 0.853288 0.622199
O O11 0.580871 0.128998 0.258804
O O12 0.135159 0.715990 0.306359
O O13 0.360181 0.714896 0.466411
O O14 0.000000 0.328517 0.500000
#
# Coordination Sequence:
#
# PCOD9323874 Si02
#       7
#     8   8   8   8   4   8   4
#     4  11  24  37  55  83 120 162 202 248 291 350
#     4   8  16  36  65  92 115 148 194 257 320 370
#     4  10  21  36  60  90 120 156 201 254 299 359
#     4  10  22  39  59  88 117 153 202 251 303 356
#     4  12  24  36  54  80 118 178 204 240 290 356
#     4  12  25  38  55  83 120 161 206 243 294 358
#     4  12  22  36  56  85 130 162 217 242 296 362
#
# _framework density 19.591111999999999
#
# number of rings (size 3 to 8) (size 9 to 14) (size 15 to 20)
#    0.000    1.500    2.500    4.000    3.500    1.333 
#    0.000    0.000    0.000   16.000    0.000    9.333 
#    0.000    0.000    0.000    0.000    0.000    0.000 
#
# Total GULP energy -133603.494249 kJ/mol
# GULP energy per Si atom -5566.812260 kJ/mol
# Density = 1.954652 g / cm^3
# Si number density = 19.591112 Si / 1000 Ang^3
#
#
#
# Elastic Constant Matrix: (Units=GPa)
#
#
# Indices 1 2 3 4 5 6 
#
# 1 53.1614 20.3201 10.9268 0.0000 0.0000 0.0000
# 2 20.3201 92.3679 38.7234 0.0000 0.0000 0.0000
# 3 10.9268 38.7234 116.8219 0.0000 0.0000 0.0000
# 4 0.0000 0.0000 0.0000 3.8041 0.0000 0.0000
# 5 0.0000 0.0000 0.0000 0.0000 20.4037 0.0000
# 6 0.0000 0.0000 0.0000 0.0000 0.0000 12.3503
#
#
#
# Elastic Compliance Matrix: (Units=1/GPa)
#
#
# Indices 1 2 3 4 5 6 
#
# 1 0.020562 -0.004317 -0.000492 0.000000 0.000000 0.000000
# 2 -0.004317 0.013480 -0.004064 0.000000 0.000000 0.000000
# 3 -0.000492 -0.004064 0.009953 0.000000 0.000000 0.000000
# 4 0.000000 0.000000 0.000000 0.262874 0.000000 0.000000
# 5 0.000000 0.000000 0.000000 0.000000 0.049011 0.000000
# 6 0.000000 0.000000 0.000000 0.000000 0.000000 0.080970
#
#
# Mechanical properties :
#
#
# Convention : Reuss Voigt Hill
#
# Bulk Modulus (GPa) = 38.09861 44.69908 41.39885
# Shear Modulus (GPa) = 10.79107 20.13703 15.46405
#
# Velocity S-wave (km/s) = 2.34949 3.20951 2.81257
# Velocity P-wave (km/s) = 5.18163 6.04981 5.63247
#
# Compressibility (1/GPa) = 0.02624768
#
# Stress axis : x y z
#
# Youngs Moduli (GPa) = 48.63353 74.18441 100.46882
#
# Poissons Ratio (x) = 0.32026 0.04945
# Poissons Ratio (y) = 0.20995 0.40835
# Poissons Ratio (z) = 0.02394 0.30152
#
# Static dielectric constant tensor:
#      x y z
#    x 1.780150 0.000000 0.000000 
#    y 0.000000 1.730460 0.000000 
#    z 0.000000 0.000000 1.763700 
# 
# From -- ./inp_files/11598.got.cif
#   From: 2010.05.17/outbox.cif.g08.bks.cpg/sg21_6_cif.got.tgz:11598.got - 2010.06.03 23:14:55.
