data_PCOD9323732
_publ_section_title
;
Structure prediction by ZEFSAII (Michael W. Deem and Ramdas Pophale) SiO2 
 PCOD9323732
Probable space group: C 2 2 2
;
_chemical_formula_sum "Si O2"
_cell_formula_units_Z 64
_cell_length_a 10.871363
_cell_length_b 10.701027
_cell_length_c 26.689633
_cell_angle_alpha 90.000000
_cell_angle_beta 90.000000
_cell_angle_gamma 90.000000
_cell_volume 3104.931756
_symmetry_space_group_name_H-M "C 2 2 2"
_symmetry_group_IT_number 21
_symmetry_cell_setting 'orthorhombic'
loop_
_space_group_symop_operation_xyz
x,y,z
-x,-y,z
x,-y,-z
-x,y,-z
1/2+x,1/2+y,z
1/2-x,1/2-y,z
1/2+x,1/2-y,-z
1/2-x,1/2+y,-z
loop_
_atom_site_type_symbol
_atom_site_label
_atom_site_fract_x
_atom_site_fract_y
_atom_site_fract_z
Si Si1 0.426743 0.627657 0.777486
Si Si2 0.615523 0.291779 0.304709
Si Si3 0.667025 0.641226 0.113855
Si Si4 0.203261 0.065489 0.319308
Si Si5 0.197702 0.557653 0.054519
Si Si6 0.058215 0.213984 0.947208
Si Si7 0.083638 0.313895 0.365305
Si Si8 0.860198 0.645645 0.481424
O O1 0.500000 0.500000 0.789401
O O2 0.522821 0.704877 0.742791
O O3 0.369259 0.671154 0.829200
O O4 0.318473 0.597848 0.738561
O O5 0.750000 0.250000 0.288632
O O6 0.637804 0.432324 0.325925
O O7 0.556399 0.204854 0.347765
O O8 0.750000 0.750000 0.091205
O O9 0.752932 0.525476 0.100292
O O10 0.538273 0.638842 0.085377
O O11 0.138072 0.175751 0.351426
O O12 0.345142 0.083166 0.332445
O O13 0.094896 0.651979 0.074752
O O14 0.319920 0.636484 0.042461
O O15 0.162737 0.500000 0.000000
O O16 0.000000 0.241345 0.000000
O O17 0.117922 0.349204 0.421627
O O18 0.833509 0.500000 0.500000
O O19 0.750000 0.750000 0.493162
O O20 0.000000 0.678185 0.500000
#
# Coordination Sequence:
#
# PCOD9323732 Si02
#       8
#     8   8   8   8   8   8   8   8
#     4   9  20  41  62  89 127 164 214 272 324 402
#     4  10  22  38  65 103 129 167 219 282 340 413
#     4  12  25  39  64  93 128 174 214 267 342 393
#     4   9  19  39  70  92 121 170 229 265 328 408
#     4  11  23  41  65  90 123 168 221 266 326 395
#     4  11  23  41  64  91 122 166 220 271 318 397
#     4  10  20  41  70  89 130 177 230 275 333 399
#     4  11  26  47  67 105 149 195 243 304 358 426
#
# _framework density 20.612368
#
# number of rings (size 3 to 8) (size 9 to 14) (size 15 to 20)
#    0.000    1.625    2.500    3.000    3.500    6.000 
#    9.000    0.000    0.000    0.000    0.000    0.000 
#    0.000    0.000    0.000    0.000    0.000    0.000 
#
# Total GULP energy -178215.784037 kJ/mol
# GULP energy per Si atom -5569.243251 kJ/mol
# Density = 2.056545 g / cm^3
# Si number density = 20.612368 Si / 1000 Ang^3
#
#
#
# Elastic Constant Matrix: (Units=GPa)
#
#
# Indices 1 2 3 4 5 6 
#
# 1 74.7214 29.0384 31.1475 0.0000 0.0000 0.0000
# 2 29.0384 83.5679 24.5092 0.0000 0.0000 0.0000
# 3 31.1475 24.5092 76.3828 0.0000 0.0000 0.0000
# 4 0.0000 0.0000 0.0000 14.9552 0.0000 0.0000
# 5 0.0000 0.0000 0.0000 0.0000 54.6681 0.0000
# 6 0.0000 0.0000 0.0000 0.0000 0.0000 35.9819
#
#
#
# Elastic Compliance Matrix: (Units=1/GPa)
#
#
# Indices 1 2 3 4 5 6 
#
# 1 0.017474 -0.004396 -0.005715 0.000000 0.000000 0.000000
# 2 -0.004396 0.014315 -0.002801 0.000000 0.000000 0.000000
# 3 -0.005715 -0.002801 0.016321 0.000000 0.000000 0.000000
# 4 0.000000 0.000000 0.000000 0.066866 0.000000 0.000000
# 5 0.000000 0.000000 0.000000 0.000000 0.018292 0.000000
# 6 0.000000 0.000000 0.000000 0.000000 0.000000 0.027792
#
#
# Mechanical properties :
#
#
# Convention : Reuss Voigt Hill
#
# Bulk Modulus (GPa) = 44.86941 44.89580 44.88261
# Shear Modulus (GPa) = 25.73180 31.11950 28.42565
#
# Velocity S-wave (km/s) = 3.53706 3.88976 3.71760
# Velocity P-wave (km/s) = 6.20455 6.48089 6.34423
#
# Compressibility (1/GPa) = 0.02228690
#
# Stress axis : x y z
#
# Youngs Moduli (GPa) = 57.22935 69.85582 61.27020
#
# Poissons Ratio (x) = 0.30706 0.35016
# Poissons Ratio (y) = 0.25156 0.17161
# Poissons Ratio (z) = 0.32706 0.19566
#
# Static dielectric constant tensor:
#      x y z
#    x 1.866960 0.000000 0.000000 
#    y 0.000000 1.573030 0.000000 
#    z 0.000000 0.000000 1.713060 
# 
# From -- ./inp_files/38652.got.cif
#   From: 2010.05.17/outbox.cif.g08.bks.cpg/sg21_20_cif.got.tgz:38652.got - 2010.06.03 23:14:55.
