data_PCOD9323583
_publ_section_title
;
Structure prediction by ZEFSAII (Michael W. Deem and Ramdas Pophale) SiO2 
 PCOD9323583
Probable space group: C 2 2 2
;
_chemical_formula_sum "Si O2"
_cell_formula_units_Z 28
_cell_length_a 21.473006
_cell_length_b 5.512556
_cell_length_c 8.869950
_cell_angle_alpha 90.000000
_cell_angle_beta 90.000000
_cell_angle_gamma 90.000000
_cell_volume 1049.946165
_symmetry_space_group_name_H-M "C 2 2 2"
_symmetry_group_IT_number 21
_symmetry_cell_setting 'orthorhombic'
loop_
_space_group_symop_operation_xyz
x,y,z
-x,-y,z
x,-y,-z
-x,y,-z
1/2+x,1/2+y,z
1/2-x,1/2-y,z
1/2+x,1/2-y,-z
1/2-x,1/2+y,-z
loop_
_atom_site_type_symbol
_atom_site_label
_atom_site_fract_x
_atom_site_fract_y
_atom_site_fract_z
Si Si1 0.892039 0.248219 0.835633
Si Si2 0.500000 0.000000 0.000000
Si Si3 0.615340 0.242132 0.341856
Si Si4 0.500000 0.000000 0.500000
Si Si5 0.206878 0.000000 0.000000
Si Si6 0.750000 0.750000 0.708619
O O1 0.876587 0.483648 0.740394
O O2 0.841459 0.216146 0.967314
O O3 0.894855 0.994559 0.746786
O O4 0.957908 0.321776 0.903247
O O5 0.687925 0.264489 0.393323
O O6 0.550956 0.185507 0.427719
O O7 0.240337 0.041126 0.839609
#
# Coordination Sequence:
#
# PCOD9323583 Si02
#       6
#     8   2   8   2   4   4
#     4  11  25  41  67 107 145 191 237 289 368 460
#     4  12  22  40  68 108 160 192 222 288 376 470
#     4  11  27  47  71 101 140 193 256 309 364 426
#     4  12  30  54  76 100 144 204 266 334 368 392
#     4  10  20  38  68 107 148 183 218 288 374 459
#     4  10  20  42  72 108 146 186 234 294 370 462
#
# _framework density 26.668033000000001
#
# number of rings (size 3 to 8) (size 9 to 14) (size 15 to 20)
#    0.000    1.143    0.000    6.000    0.000   16.571 
#    0.000    5.714    0.000    0.000    0.000    0.000 
#    0.000    0.000    0.000    0.000    0.000    0.000 
#
# Total GULP energy -78019.647434 kJ/mol
# GULP energy per Si atom -5572.831960 kJ/mol
# Density = 2.660734 g / cm^3
# Si number density = 26.668033 Si / 1000 Ang^3
#
#
#
# Elastic Constant Matrix: (Units=GPa)
#
#
# Indices 1 2 3 4 5 6 
#
# 1 259.5376 65.5203 58.1240 0.0000 0.0000 0.0000
# 2 65.5203 218.1983 50.3525 0.0000 0.0000 0.0000
# 3 58.1240 50.3525 38.0225 0.0000 0.0000 0.0000
# 4 0.0000 0.0000 0.0000 50.8225 0.0000 0.0000
# 5 0.0000 0.0000 0.0000 0.0000 43.6016 0.0000
# 6 0.0000 0.0000 0.0000 0.0000 0.0000 50.4782
#
#
#
# Elastic Compliance Matrix: (Units=1/GPa)
#
#
# Indices 1 2 3 4 5 6 
#
# 1 0.005889 0.000445 -0.009591 0.000000 0.000000 0.000000
# 2 0.000445 0.006634 -0.009465 0.000000 0.000000 0.000000
# 3 -0.009591 -0.009465 0.053496 0.000000 0.000000 0.000000
# 4 0.000000 0.000000 0.000000 0.019676 0.000000 0.000000
# 5 0.000000 0.000000 0.000000 0.000000 0.022935 0.000000
# 6 0.000000 0.000000 0.000000 0.000000 0.000000 0.019811
#
#
# Mechanical properties :
#
#
# Convention : Reuss Voigt Hill
#
# Bulk Modulus (GPa) = 34.72677 95.97248 65.34962
# Shear Modulus (GPa) = 28.52881 51.76457 40.14669
#
# Velocity S-wave (km/s) = 3.27429 4.41054 3.88419
# Velocity P-wave (km/s) = 5.22922 7.87421 6.68386
#
# Compressibility (1/GPa) = 0.02879623
#
# Stress axis : x y z
#
# Youngs Moduli (GPa) = 169.81929 150.74894 18.69284
#
# Poissons Ratio (x) = -0.06710 0.17929
# Poissons Ratio (y) = -0.07558 0.17693
# Poissons Ratio (z) = 1.62877 1.42685
#
# Static dielectric constant tensor:
#      x y z
#    x 2.188740 0.000000 0.000000 
#    y 0.000000 2.011930 0.000000 
#    z 0.000000 0.000000 2.277590 
# 
# From -- ./inp_files/26453.got.cif
#   From: 2010.05.17/outbox.cif.g08.bks.cpg/sg21_14_cif.got.tgz:26453.got - 2010.06.03 23:14:55.
