data_PCOD9323189
_publ_section_title
;
Structure prediction by ZEFSAII (Michael W. Deem and Ramdas Pophale) SiO2 
 PCOD9323189
Probable space group: C 2 2 2
;
_chemical_formula_sum "Si O2"
_cell_formula_units_Z 44
_cell_length_a 15.519152
_cell_length_b 20.870896
_cell_length_c 8.052105
_cell_angle_alpha 90.000000
_cell_angle_beta 90.000000
_cell_angle_gamma 90.000000
_cell_volume 2608.065596
_symmetry_space_group_name_H-M "C 2 2 2"
_symmetry_group_IT_number 21
_symmetry_cell_setting 'orthorhombic'
loop_
_space_group_symop_operation_xyz
x,y,z
-x,-y,z
x,-y,-z
-x,y,-z
1/2+x,1/2+y,z
1/2-x,1/2-y,z
1/2+x,1/2-y,-z
1/2-x,1/2+y,-z
loop_
_atom_site_type_symbol
_atom_site_label
_atom_site_fract_x
_atom_site_fract_y
_atom_site_fract_z
Si Si1 0.959901 0.707254 0.316259
Si Si2 0.871282 0.653201 0.828446
Si Si3 0.750000 0.750000 0.632781
Si Si4 0.318420 0.885907 0.802632
Si Si5 0.680077 0.698898 0.305666
Si Si6 0.900920 0.512446 0.696549
O O1 0.883764 0.653825 0.318084
O O2 0.913308 0.773438 0.264155
O O3 0.000000 0.711739 0.500000
O O4 0.034234 0.683920 0.193652
O O5 0.805996 0.702067 0.741353
O O6 0.875536 0.584715 0.737153
O O7 0.842953 0.639065 0.015452
O O8 0.691368 0.709072 0.503914
O O9 0.220740 0.867389 0.753711
O O10 0.341140 0.960056 0.784688
O O11 0.750000 0.750000 0.232713
O O12 0.896613 0.500000 0.500000
O O13 0.000000 0.500000 0.750196
#
# Coordination Sequence:
#
# PCOD9323189 Si02
#       6
#     8   8   4   8   8   8
#     4  11  18  34  53  76 106 147 182 216 263 325
#     4  12  23  33  53  83 110 143 178 228 271 315
#     4  10  20  34  52  72 108 142 182 212 266 328
#     4  11  22  35  51  79 115 140 180 226 272 315
#     4   8  18  34  52  69 105 148 178 217 261 316
#     4  11  22  35  54  74 107 150 183 212 264 336
#
# _framework density 16.870740999999999
#
# number of rings (size 3 to 8) (size 9 to 14) (size 15 to 20)
#    0.545    0.909    3.636    3.273    3.818    0.727 
#    0.000    0.000    0.000    0.000    0.000    1.273 
#    0.000    2.909    0.000    0.000    0.000    0.000 
#
# Total GULP energy -122673.272310 kJ/mol
# GULP energy per Si atom -5576.057832 kJ/mol
# Density = 1.683234 g / cm^3
# Si number density = 16.870741 Si / 1000 Ang^3
#
#
#
# Elastic Constant Matrix: (Units=GPa)
#
#
# Indices 1 2 3 4 5 6 
#
# 1 76.3049 73.8351 37.9478 0.0000 0.0000 0.0000
# 2 73.8351 112.9751 43.9883 0.0000 0.0000 0.0000
# 3 37.9478 43.9883 83.5524 0.0000 0.0000 0.0000
# 4 0.0000 0.0000 0.0000 21.5530 0.0000 0.0000
# 5 0.0000 0.0000 0.0000 0.0000 20.1164 0.0000
# 6 0.0000 0.0000 0.0000 0.0000 0.0000 35.2742
#
#
#
# Elastic Compliance Matrix: (Units=1/GPa)
#
#
# Indices 1 2 3 4 5 6 
#
# 1 0.037347 -0.022394 -0.005172 0.000000 0.000000 0.000000
# 2 -0.022394 0.024562 -0.002760 0.000000 0.000000 0.000000
# 3 -0.005172 -0.002760 0.015771 0.000000 0.000000 0.000000
# 4 0.000000 0.000000 0.000000 0.046397 0.000000 0.000000
# 5 0.000000 0.000000 0.000000 0.000000 0.049711 0.000000
# 6 0.000000 0.000000 0.000000 0.000000 0.000000 0.028349
#
#
# Mechanical properties :
#
#
# Convention : Reuss Voigt Hill
#
# Bulk Modulus (GPa) = 58.73247 64.93054 61.83151
# Shear Modulus (GPa) = 18.62426 23.19279 20.90853
#
# Velocity S-wave (km/s) = 3.32616 3.71176 3.52424
# Velocity P-wave (km/s) = 7.04556 7.54587 7.30000
#
# Compressibility (1/GPa) = 0.01702636
#
# Stress axis : x y z
#
# Youngs Moduli (GPa) = 26.77579 40.71294 63.40802
#
# Poissons Ratio (x) = 0.91174 0.32796
# Poissons Ratio (y) = 0.59963 0.17502
# Poissons Ratio (z) = 0.13849 0.11238
#
# Static dielectric constant tensor:
#      x y z
#    x 1.592130 0.000000 0.000000 
#    y 0.000000 1.595220 0.000000 
#    z 0.000000 0.000000 1.603240 
# 
# From -- ./inp_files/14842.got.cif
#   From: 2010.05.17/outbox.cif.g08.bks.cpg/sg21_8_cif.got.tgz:14842.got - 2010.06.03 23:14:55.
