data_PCOD9323413
_publ_section_title
;
Structure prediction by ZEFSAII (Michael W. Deem and Ramdas Pophale) SiO2 
 PCOD9323413
Probable space group: C 2 2 2
;
_chemical_formula_sum "Si O2"
_cell_formula_units_Z 24
_cell_length_a 11.702391
_cell_length_b 8.704971
_cell_length_c 9.856401
_cell_angle_alpha 90.000000
_cell_angle_beta 90.000000
_cell_angle_gamma 90.000000
_cell_volume 1004.061460
_symmetry_space_group_name_H-M "C 2 2 2"
_symmetry_group_IT_number 21
_symmetry_cell_setting 'orthorhombic'
loop_
_space_group_symop_operation_xyz
x,y,z
-x,-y,z
x,-y,-z
-x,y,-z
1/2+x,1/2+y,z
1/2-x,1/2-y,z
1/2+x,1/2-y,-z
1/2-x,1/2+y,-z
loop_
_atom_site_type_symbol
_atom_site_label
_atom_site_fract_x
_atom_site_fract_y
_atom_site_fract_z
Si Si1 0.689052 0.023072 0.144274
Si Si2 0.840285 0.890279 0.374356
Si Si3 0.003574 0.754206 0.849319
O O1 0.771844 0.989649 0.265218
O O2 0.594023 0.887047 0.136970
O O3 0.620564 0.179131 0.167014
O O4 0.749651 0.000000 0.000000
O O5 0.750000 0.750000 0.408296
O O6 0.949804 0.833640 0.286917
O O7 0.864957 0.000000 0.500000
O O8 0.000000 0.827993 0.000000
#
# Coordination Sequence:
#
# PCOD9323413 Si02
#       3
#     8   8   8
#     4   8  15  32  61  91 121 164 216 269 322 373
#     4  10  20  36  62  96 131 171 213 257 325 396
#     4   8  15  32  61  94 124 163 218 270 316 374
#
# _framework density 23.902920999999999
#
# number of rings (size 3 to 8) (size 9 to 14) (size 15 to 20)
#    0.000    3.333    0.000    2.000    0.000    0.000 
#    0.000   21.667    0.000   25.000    0.000    2.333 
#    0.000    0.000    0.000    0.000    0.000    0.000 
#
# Total GULP energy -67043.234037 kJ/mol
# GULP energy per Si atom -5586.936170 kJ/mol
# Density = 2.384852 g / cm^3
# Si number density = 23.902921 Si / 1000 Ang^3
#
#
#
# Elastic Constant Matrix: (Units=GPa)
#
#
# Indices 1 2 3 4 5 6 
#
# 1 106.1436 49.5319 76.3636 0.0000 0.0000 0.0000
# 2 49.5319 122.4387 91.9766 0.0000 0.0000 0.0000
# 3 76.3636 91.9766 235.7525 0.0000 0.0000 0.0000
# 4 0.0000 0.0000 0.0000 92.7826 0.0000 0.0000
# 5 0.0000 0.0000 0.0000 0.0000 37.3990 0.0000
# 6 0.0000 0.0000 0.0000 0.0000 0.0000 33.2633
#
#
#
# Elastic Compliance Matrix: (Units=1/GPa)
#
#
# Indices 1 2 3 4 5 6 
#
# 1 0.013003 -0.002965 -0.003055 0.000000 0.000000 0.000000
# 2 -0.002965 0.012230 -0.003811 0.000000 0.000000 0.000000
# 3 -0.003055 -0.003811 0.006718 0.000000 0.000000 0.000000
# 4 0.000000 0.000000 0.000000 0.010778 0.000000 0.000000
# 5 0.000000 0.000000 0.000000 0.000000 0.026739 0.000000
# 6 0.000000 0.000000 0.000000 0.000000 0.000000 0.030063
#
#
# Mechanical properties :
#
#
# Convention : Reuss Voigt Hill
#
# Bulk Modulus (GPa) = 81.37751 100.00877 90.69314
# Shear Modulus (GPa) = 40.55538 49.11984 44.83761
#
# Velocity S-wave (km/s) = 4.12353 4.53810 4.33577
# Velocity P-wave (km/s) = 7.53593 8.33004 7.94292
#
# Compressibility (1/GPa) = 0.01228841
#
# Stress axis : x y z
#
# Youngs Moduli (GPa) = 76.90670 81.76861 148.85427
#
# Poissons Ratio (x) = 0.24247 0.45473
# Poissons Ratio (y) = 0.22806 0.56725
# Poissons Ratio (z) = 0.23494 0.31160
#
# Static dielectric constant tensor:
#      x y z
#    x 1.832410 0.000000 0.000000 
#    y 0.000000 1.984200 0.000000 
#    z 0.000000 0.000000 1.889350 
# 
# From -- ./inp_files/9974.got.cif
#   From: 2010.05.17/outbox.cif.g08.bks.cpg/sg21_5_cif.got.tgz:9974.got - 2010.06.03 23:14:55.
