data_PCOD9323532
_publ_section_title
;
Structure prediction by ZEFSAII (Michael W. Deem and Ramdas Pophale) SiO2 
 PCOD9323532
Probable space group: C 2 2 2
;
_chemical_formula_sum "Si O2"
_cell_formula_units_Z 34
_cell_length_a 15.208441
_cell_length_b 5.462850
_cell_length_c 19.762494
_cell_angle_alpha 90.000000
_cell_angle_beta 90.000000
_cell_angle_gamma 90.000000
_cell_volume 1641.896300
_symmetry_space_group_name_H-M "C 2 2 2"
_symmetry_group_IT_number 21
_symmetry_cell_setting 'orthorhombic'
loop_
_space_group_symop_operation_xyz
x,y,z
-x,-y,z
x,-y,-z
-x,y,-z
1/2+x,1/2+y,z
1/2-x,1/2-y,z
1/2+x,1/2-y,-z
1/2-x,1/2+y,-z
loop_
_atom_site_type_symbol
_atom_site_label
_atom_site_fract_x
_atom_site_fract_y
_atom_site_fract_z
Si Si1 0.000000 0.000000 0.000000
Si Si2 0.105122 0.496402 0.349544
Si Si3 0.607702 0.502200 0.578424
Si Si4 0.401652 0.107876 0.930356
Si Si5 0.804349 0.502943 0.791400
O O1 0.070607 0.118374 0.948261
O O2 0.137680 0.247657 0.385374
O O3 0.128500 0.483889 0.270779
O O4 0.000000 0.500000 0.357279
O O5 0.137060 0.749159 0.384018
O O6 0.500000 0.500000 0.580035
O O7 0.634114 0.500000 0.500000
O O8 0.348308 0.049424 0.864168
O O9 0.500000 0.000000 0.923946
O O10 0.361982 0.000000 0.000000
O O11 0.750000 0.750000 0.777340
O O12 0.750000 0.250000 0.793392
#
# Coordination Sequence:
#
# PCOD9323532 Si02
#       5
#     2   8   8   8   8
#     4   8  18  40  72  94 116 152 210 272 298 380
#     4  10  20  38  60  88 119 160 203 247 303 364
#     4   9  17  32  60  93 118 145 197 262 309 350
#     4   9  21  41  67  92 119 156 206 253 309 365
#     4  12  27  41  60  89 129 168 202 251 302 359
#
# _framework density 20.707764000000001
#
# number of rings (size 3 to 8) (size 9 to 14) (size 15 to 20)
#    0.000    2.353    0.000    2.824    6.588    3.765 
#    6.353    0.000    0.000   14.118    0.000    0.000 
#    0.000    0.000    0.000    0.000    0.000    0.000 
#
# Total GULP energy -94768.406207 kJ/mol
# GULP energy per Si atom -5574.612130 kJ/mol
# Density = 2.066063 g / cm^3
# Si number density = 20.707764 Si / 1000 Ang^3
#
#
#
# Elastic Constant Matrix: (Units=GPa)
#
#
# Indices 1 2 3 4 5 6 
#
# 1 24.5025 24.2544 15.5050 0.0000 0.0000 0.0000
# 2 24.2544 164.3907 76.1311 0.0000 0.0000 0.0000
# 3 15.5050 76.1311 162.0360 0.0000 0.0000 0.0000
# 4 0.0000 0.0000 0.0000 86.0239 0.0000 0.0000
# 5 0.0000 0.0000 0.0000 0.0000 -26.6901 0.0000
# 6 0.0000 0.0000 0.0000 0.0000 0.0000 39.1258
#
#
#
# Elastic Compliance Matrix: (Units=1/GPa)
#
#
# Indices 1 2 3 4 5 6 
#
# 1 0.048123 -0.006349 -0.001622 0.000000 0.000000 0.000000
# 2 -0.006349 0.008612 -0.003439 0.000000 0.000000 0.000000
# 3 -0.001622 -0.003439 0.007942 0.000000 0.000000 0.000000
# 4 0.000000 0.000000 0.000000 0.011625 0.000000 0.000000
# 5 0.000000 0.000000 0.000000 0.000000 -0.037467 0.000000
# 6 0.000000 0.000000 0.000000 0.000000 0.000000 0.025559
#
#
# Mechanical properties :
#
#
# Convention : Reuss Voigt Hill
#
# Bulk Modulus (GPa) = 23.89004 64.74558 44.31781
# Shear Modulus (GPa) = 49.42335 35.36115 42.39225
#
# Velocity S-wave (km/s) = 4.89069 4.13683 4.52947
# Velocity P-wave (km/s) = 6.59194 7.35880 6.98590
#
# Compressibility (1/GPa) = 0.04185845
#
# Stress axis : x y z
#
# Youngs Moduli (GPa) = 20.77997 116.11117 125.90649
#
# Poissons Ratio (x) = 0.73720 0.20419
# Poissons Ratio (y) = 0.13193 0.43298
# Poissons Ratio (z) = 0.03370 0.39930
#
# Static dielectric constant tensor:
#      x y z
#    x 1.725040 0.000000 0.000000 
#    y 0.000000 1.619400 0.000000 
#    z 0.000000 0.000000 1.648060 
# 
# From -- ./inp_files/36464.got.cif
#   From: 2010.05.17/outbox.cif.g08.bks.cpg/sg21_19_cif.got.tgz:36464.got - 2010.06.03 23:14:55.
