data_PCOD9323069
_publ_section_title
;
Structure prediction by ZEFSAII (Michael W. Deem and Ramdas Pophale) SiO2 
 PCOD9323069
Probable space group: C 2 2 2
;
_chemical_formula_sum "Si O2"
_cell_formula_units_Z 40
_cell_length_a 8.260701
_cell_length_b 16.392365
_cell_length_c 13.833367
_cell_angle_alpha 90.000000
_cell_angle_beta 90.000000
_cell_angle_gamma 90.000000
_cell_volume 1873.209784
_symmetry_space_group_name_H-M "C 2 2 2"
_symmetry_group_IT_number 21
_symmetry_cell_setting 'orthorhombic'
loop_
_space_group_symop_operation_xyz
x,y,z
-x,-y,z
x,-y,-z
-x,y,-z
1/2+x,1/2+y,z
1/2-x,1/2-y,z
1/2+x,1/2-y,-z
1/2-x,1/2+y,-z
loop_
_atom_site_type_symbol
_atom_site_label
_atom_site_fract_x
_atom_site_fract_y
_atom_site_fract_z
Si Si1 0.489039 0.364470 0.106905
Si Si2 0.978651 0.317264 0.329867
Si Si3 0.250000 0.250000 0.812650
Si Si4 0.250000 0.250000 0.187001
Si Si5 0.500000 0.500000 0.732727
Si Si6 0.235168 0.435040 0.416480
Si Si7 0.500000 0.691859 0.500000
O O1 0.616115 0.291009 0.120145
O O2 0.313724 0.324772 0.124311
O O3 0.523453 0.425118 0.194512
O O4 0.500000 0.400003 0.000000
O O5 0.110396 0.278156 0.258651
O O6 0.070732 0.395195 0.374573
O O7 0.823547 0.318888 0.260055
O O8 0.947977 0.252000 0.414173
O O9 0.346923 0.521924 0.664986
O O10 0.203619 0.500000 0.500000
O O11 0.352125 0.364318 0.461925
#
# Coordination Sequence:
#
# PCOD9323069 Si02
#       7
#     8   8   4   4   4   8   4
#     4  11  23  42  71 101 125 174 229 286 349 413
#     4  11  23  40  65  97 133 185 223 280 333 400
#     4  10  25  43  70  96 138 168 231 292 347 398
#     4  10  19  39  68  88 128 168 227 280 333 394
#     4  12  22  42  68  98 144 176 218 276 346 416
#     4  12  23  40  66 103 142 183 229 275 339 410
#     4  12  21  38  67  96 132 184 238 272 323 406
#
# _framework density 21.353721
#
# number of rings (size 3 to 8) (size 9 to 14) (size 15 to 20)
#    0.000    0.800    6.000    2.100    2.800    0.000 
#    0.000    3.500    0.000    0.000   10.400    0.000 
#    0.000    0.000    0.000    0.000    0.000    0.000 
#
# Total GULP energy -111803.690931 kJ/mol
# GULP energy per Si atom -5590.184547 kJ/mol
# Density = 2.130512 g / cm^3
# Si number density = 21.353721 Si / 1000 Ang^3
#
#
#
# Elastic Constant Matrix: (Units=GPa)
#
#
# Indices 1 2 3 4 5 6 
#
# 1 68.6306 18.3383 35.1240 0.0000 0.0000 0.0000
# 2 18.3383 77.8551 40.4587 0.0000 0.0000 0.0000
# 3 35.1240 40.4587 139.0623 0.0000 0.0000 0.0000
# 4 0.0000 0.0000 0.0000 46.6156 0.0000 0.0000
# 5 0.0000 0.0000 0.0000 0.0000 15.0933 0.0000
# 6 0.0000 0.0000 0.0000 0.0000 0.0000 20.0926
#
#
#
# Elastic Compliance Matrix: (Units=1/GPa)
#
#
# Indices 1 2 3 4 5 6 
#
# 1 0.017018 -0.002091 -0.003690 0.000000 0.000000 0.000000
# 2 -0.002091 0.015389 -0.003949 0.000000 0.000000 0.000000
# 3 -0.003690 -0.003949 0.009272 0.000000 0.000000 0.000000
# 4 0.000000 0.000000 0.000000 0.021452 0.000000 0.000000
# 5 0.000000 0.000000 0.000000 0.000000 0.066255 0.000000
# 6 0.000000 0.000000 0.000000 0.000000 0.000000 0.049770
#
#
# Mechanical properties :
#
#
# Convention : Reuss Voigt Hill
#
# Bulk Modulus (GPa) = 45.00680 52.59890 48.80285
# Shear Modulus (GPa) = 24.26926 29.13543 26.70234
#
# Velocity S-wave (km/s) = 3.37491 3.69781 3.54005
# Velocity P-wave (km/s) = 6.02572 6.55114 6.29391
#
# Compressibility (1/GPa) = 0.02221887
#
# Stress axis : x y z
#
# Youngs Moduli (GPa) = 58.76147 64.98089 107.85145
#
# Poissons Ratio (x) = 0.13587 0.39797
# Poissons Ratio (y) = 0.12286 0.42593
# Poissons Ratio (z) = 0.21683 0.25662
#
# Static dielectric constant tensor:
#      x y z
#    x 1.813530 0.000000 0.000000 
#    y 0.000000 1.803450 0.000000 
#    z 0.000000 0.000000 1.764430 
# 
# From -- ./inp_files/22374.got.cif
#   From: 2010.05.17/outbox.cif.g08.bks.cpg/sg21_12_cif.got.tgz:22374.got - 2010.06.03 23:14:55.
