data_PCOD9323063
_publ_section_title
;
Structure prediction by ZEFSAII (Michael W. Deem and Ramdas Pophale) SiO2 
 PCOD9323063
Probable space group: C 2 2 2
;
_chemical_formula_sum "Si O2"
_cell_formula_units_Z 40
_cell_length_a 22.946680
_cell_length_b 10.114269
_cell_length_c 8.613652
_cell_angle_alpha 90.000000
_cell_angle_beta 90.000000
_cell_angle_gamma 90.000000
_cell_volume 1999.132968
_symmetry_space_group_name_H-M "C 2 2 2"
_symmetry_group_IT_number 21
_symmetry_cell_setting 'orthorhombic'
loop_
_space_group_symop_operation_xyz
x,y,z
-x,-y,z
x,-y,-z
-x,y,-z
1/2+x,1/2+y,z
1/2-x,1/2-y,z
1/2+x,1/2-y,-z
1/2-x,1/2+y,-z
loop_
_atom_site_type_symbol
_atom_site_label
_atom_site_fract_x
_atom_site_fract_y
_atom_site_fract_z
Si Si1 0.741455 0.403198 0.146960
Si Si2 0.555510 0.770017 0.796604
Si Si3 0.579724 0.728157 0.158590
Si Si4 0.136743 0.492861 0.188326
Si Si5 0.623403 0.536184 0.676864
O O1 0.750000 0.250000 0.099524
O O2 0.800074 0.452353 0.233819
O O3 0.683763 0.416978 0.247664
O O4 0.734554 0.500000 0.000000
O O5 0.486001 0.770767 0.798850
O O6 0.585675 0.909132 0.757776
O O7 0.578102 0.656087 0.685387
O O8 0.578455 0.729849 0.970183
O O9 0.597630 0.587202 0.226188
O O10 0.623057 0.840883 0.222421
O O11 0.135679 0.500000 0.000000
O O12 0.633219 0.500000 0.500000
#
# Coordination Sequence:
#
# PCOD9323063 Si02
#       5
#     8   8   8   8   8
#     4  11  23  42  69  94 120 157 205 258 308 362
#     4  10  19  39  65  92 123 153 206 258 307 362
#     4  10  21  37  65  95 118 158 205 258 307 361
#     4   9  19  36  63  95 121 150 195 261 316 359
#     4  12  26  41  58  87 129 168 203 248 303 369
#
# _framework density 20.008673000000002
#
# number of rings (size 3 to 8) (size 9 to 14) (size 15 to 20)
#    0.000    1.600    2.000    3.000    5.600    5.600 
#    3.600    1.000    0.000    2.400    0.000    0.000 
#    0.000    0.000    0.000    0.000    0.000    0.000 
#
# Total GULP energy -111743.412182 kJ/mol
# GULP energy per Si atom -5587.170609 kJ/mol
# Density = 1.996313 g / cm^3
# Si number density = 20.008673 Si / 1000 Ang^3
#
#
#
# Elastic Constant Matrix: (Units=GPa)
#
#
# Indices 1 2 3 4 5 6 
#
# 1 60.7258 -6.6495 2.2573 0.0000 0.0000 0.0000
# 2 -6.6495 63.3877 -2.5423 0.0000 0.0000 0.0000
# 3 2.2573 -2.5423 30.6080 0.0000 0.0000 0.0000
# 4 0.0000 0.0000 0.0000 3.0751 0.0000 0.0000
# 5 0.0000 0.0000 0.0000 0.0000 -4.9005 0.0000
# 6 0.0000 0.0000 0.0000 0.0000 0.0000 35.6080
#
#
#
# Elastic Compliance Matrix: (Units=1/GPa)
#
#
# Indices 1 2 3 4 5 6 
#
# 1 0.016695 0.001708 -0.001089 0.000000 0.000000 0.000000
# 2 0.001708 0.016003 0.001203 0.000000 0.000000 0.000000
# 3 -0.001089 0.001203 0.032851 0.000000 0.000000 0.000000
# 4 0.000000 0.000000 0.000000 0.325197 0.000000 0.000000
# 5 0.000000 0.000000 0.000000 0.000000 -0.204059 0.000000
# 6 0.000000 0.000000 0.000000 0.000000 0.000000 0.028084
#
#
# Mechanical properties :
#
#
# Convention : Reuss Voigt Hill
#
# Bulk Modulus (GPa) = 14.45233 15.65025 15.05129
# Shear Modulus (GPa) = 21.34995 17.53357 19.44176
#
# Velocity S-wave (km/s) = 3.27009 2.96345 3.12054
# Velocity P-wave (km/s) = 4.63646 4.42132 4.53017
#
# Compressibility (1/GPa) = 0.06919298
#
# Stress axis : x y z
#
# Youngs Moduli (GPa) = 59.89833 62.48697 30.44003
#
# Poissons Ratio (x) = -0.10671 0.03316
# Poissons Ratio (y) = -0.10229 -0.03663
# Poissons Ratio (z) = 0.06525 -0.07519
#
# Static dielectric constant tensor:
#      x y z
#    x 1.712860 0.000000 0.000000 
#    y 0.000000 1.693000 0.000000 
#    z 0.000000 0.000000 1.697810 
# 
# From -- ./inp_files/10897.got.cif
#   From: 2010.05.17/outbox.cif.g08.bks.cpg/sg21_6_cif.got.tgz:10897.got - 2010.06.03 23:14:55.
