data_PCOD9323348
_publ_section_title
;
Structure prediction by ZEFSAII (Michael W. Deem and Ramdas Pophale) SiO2 
 PCOD9323348
Probable space group: C 2 2 2
;
_chemical_formula_sum "Si O2"
_cell_formula_units_Z 56
_cell_length_a 21.979071
_cell_length_b 13.044003
_cell_length_c 9.236690
_cell_angle_alpha 90.000000
_cell_angle_beta 90.000000
_cell_angle_gamma 90.000000
_cell_volume 2648.113468
_symmetry_space_group_name_H-M "C 2 2 2"
_symmetry_group_IT_number 21
_symmetry_cell_setting 'orthorhombic'
loop_
_space_group_symop_operation_xyz
x,y,z
-x,-y,z
x,-y,-z
-x,y,-z
1/2+x,1/2+y,z
1/2-x,1/2-y,z
1/2+x,1/2-y,-z
1/2-x,1/2+y,-z
loop_
_atom_site_type_symbol
_atom_site_label
_atom_site_fract_x
_atom_site_fract_y
_atom_site_fract_z
Si Si1 0.335887 0.611460 0.283559
Si Si2 0.708124 0.948947 0.715396
Si Si3 0.616522 0.862949 0.231898
Si Si4 0.144576 0.703279 0.090159
Si Si5 0.472535 0.598783 0.339199
Si Si6 0.812091 0.283256 0.523701
Si Si7 0.987581 0.308361 0.169032
O O1 0.280651 0.531116 0.280459
O O2 0.346438 0.679049 0.138113
O O3 0.400976 0.575526 0.337156
O O4 0.318229 0.698162 0.400588
O O5 0.697613 0.865801 0.843232
O O6 0.693868 0.889560 0.565273
O O7 0.661464 0.040857 0.743336
O O8 0.632354 0.790068 0.366760
O O9 0.543526 0.879256 0.222117
O O10 0.635673 0.813037 0.079344
O O11 0.083131 0.659006 0.169251
O O12 0.500000 0.500000 0.261853
O O13 0.500000 0.606127 0.500000
O O14 0.487743 0.703697 0.258582
O O15 0.750000 0.250000 0.603788
O O16 0.000000 0.287657 0.000000
#
# Coordination Sequence:
#
# PCOD9323348 Si02
#       7
#     8   8   8   8   8   8   8
#     4   9  19  39  60  77 115 161 188 232 298 358
#     4  10  20  36  56  81 118 156 190 233 295 355
#     4  11  20  34  56  89 117 143 198 254 288 349
#     4   9  19  36  60  80 112 157 198 236 292 355
#     4  10  20  37  61  88 109 144 200 245 285 348
#     4   9  19  35  54  81 114 158 189 230 294 348
#     4   9  20  37  58  83 115 153 188 243 305 344
#
# _framework density 21.147131000000002
#
# number of rings (size 3 to 8) (size 9 to 14) (size 15 to 20)
#    0.000    2.429    0.000    3.000    0.000    2.000 
#   12.857    2.143    6.286    5.143    0.000    0.000 
#    0.000    0.000    0.000    0.000    0.000    0.000 
#
# Total GULP energy -156097.242244 kJ/mol
# GULP energy per Si atom -5574.901509 kJ/mol
# Density = 2.109900 g / cm^3
# Si number density = 21.147131 Si / 1000 Ang^3
#
#
#
# Elastic Constant Matrix: (Units=GPa)
#
#
# Indices 1 2 3 4 5 6 
#
# 1 162.7925 33.9315 26.9194 0.0000 0.0000 0.0000
# 2 33.9315 51.0075 11.8152 0.0000 0.0000 0.0000
# 3 26.9194 11.8152 62.5591 0.0000 0.0000 0.0000
# 4 0.0000 0.0000 0.0000 -29.2369 0.0000 0.0000
# 5 0.0000 0.0000 0.0000 0.0000 26.4992 0.0000
# 6 0.0000 0.0000 0.0000 0.0000 0.0000 28.3892
#
#
#
# Elastic Compliance Matrix: (Units=1/GPa)
#
#
# Indices 1 2 3 4 5 6 
#
# 1 0.007454 -0.004409 -0.002375 0.000000 0.000000 0.000000
# 2 -0.004409 0.023109 -0.002467 0.000000 0.000000 0.000000
# 3 -0.002375 -0.002467 0.017473 0.000000 0.000000 0.000000
# 4 0.000000 0.000000 0.000000 -0.034203 0.000000 0.000000
# 5 0.000000 0.000000 0.000000 0.000000 0.037737 0.000000
# 6 0.000000 0.000000 0.000000 0.000000 0.000000 0.035225
#
#
# Mechanical properties :
#
#
# Convention : Reuss Voigt Hill
#
# Bulk Modulus (GPa) = 33.85901 46.85461 40.35681
# Shear Modulus (GPa) = 43.42457 18.70983 31.06720
#
# Velocity S-wave (km/s) = 4.53642 2.97769 3.83704
# Velocity P-wave (km/s) = 6.59429 5.83325 6.22541
#
# Compressibility (1/GPa) = 0.02953423
#
# Stress axis : x y z
#
# Youngs Moduli (GPa) = 134.14786 43.27253 57.23155
#
# Poissons Ratio (x) = 0.19078 0.13593
# Poissons Ratio (y) = 0.59143 0.14122
# Poissons Ratio (z) = 0.31860 0.10677
#
# Static dielectric constant tensor:
#      x y z
#    x 2.088610 0.000000 0.000000 
#    y 0.000000 1.786650 0.000000 
#    z 0.000000 0.000000 1.740230 
# 
# From -- ./inp_files/17717.got.cif
#   From: 2010.05.17/outbox.cif.g08.bks.cpg/sg21_9_cif.got.tgz:17717.got - 2010.06.03 23:14:55.
