data_PCOD9323035
_publ_section_title
;
Structure prediction by ZEFSAII (Michael W. Deem and Ramdas Pophale) SiO2 
 PCOD9323035
Probable space group: C 2 2 2
;
_chemical_formula_sum "Si O2"
_cell_formula_units_Z 32
_cell_length_a 17.299787
_cell_length_b 7.528851
_cell_length_c 13.550070
_cell_angle_alpha 90.000000
_cell_angle_beta 90.000000
_cell_angle_gamma 90.000000
_cell_volume 1764.862995
_symmetry_space_group_name_H-M "C 2 2 2"
_symmetry_group_IT_number 21
_symmetry_cell_setting 'orthorhombic'
loop_
_space_group_symop_operation_xyz
x,y,z
-x,-y,z
x,-y,-z
-x,y,-z
1/2+x,1/2+y,z
1/2-x,1/2-y,z
1/2+x,1/2-y,-z
1/2-x,1/2+y,-z
loop_
_atom_site_type_symbol
_atom_site_label
_atom_site_fract_x
_atom_site_fract_y
_atom_site_fract_z
Si Si1 0.160526 0.263336 0.736494
Si Si2 0.925580 0.604153 0.206921
Si Si3 0.985786 0.210935 0.387640
Si Si4 0.092731 0.972636 0.886263
O O1 0.250000 0.250000 0.712140
O O2 0.139374 0.457041 0.778270
O O3 0.102276 0.242091 0.644890
O O4 0.135099 0.112635 0.815267
O O5 0.895243 0.769940 0.145640
O O6 0.000000 0.500000 0.161742
O O7 0.959838 0.685805 0.309499
O O8 0.000000 0.265502 0.500000
O O9 0.000000 0.000000 0.378802
O O10 0.000000 0.000000 0.875521
O O11 0.113729 0.000000 0.000000
#
# Coordination Sequence:
#
# PCOD9323035 Si02
#       4
#     8   8   8   8
#     4  11  23  40  60  93 127 155 199 254 308 357
#     4  10  19  38  63  85 117 162 202 244 301 357
#     4  10  19  39  66  87 117 161 205 247 295 367
#     4  11  21  40  63  88 119 161 215 252 288 362
#
# _framework density 18.131720000000001
#
# number of rings (size 3 to 8) (size 9 to 14) (size 15 to 20)
#    0.000    1.500    7.500    0.000    0.000    6.500 
#    4.500    5.000    0.000    0.000    0.000    0.000 
#    0.000    0.000    0.000    0.000    0.000    0.000 
#
# Total GULP energy -89315.019913 kJ/mol
# GULP energy per Si atom -5582.188745 kJ/mol
# Density = 1.809045 g / cm^3
# Si number density = 18.131720 Si / 1000 Ang^3
#
#
#
# Elastic Constant Matrix: (Units=GPa)
#
#
# Indices 1 2 3 4 5 6 
#
# 1 109.6259 46.3318 50.8842 0.0000 0.0000 0.0000
# 2 46.3318 159.0262 53.4619 0.0000 0.0000 0.0000
# 3 50.8842 53.4619 124.5579 0.0000 0.0000 0.0000
# 4 0.0000 0.0000 0.0000 8.9681 0.0000 0.0000
# 5 0.0000 0.0000 0.0000 0.0000 10.8385 0.0000
# 6 0.0000 0.0000 0.0000 0.0000 0.0000 16.3925
#
#
#
# Elastic Compliance Matrix: (Units=1/GPa)
#
#
# Indices 1 2 3 4 5 6 
#
# 1 0.011844 -0.002132 -0.003924 0.000000 0.000000 0.000000
# 2 -0.002132 0.007732 -0.002448 0.000000 0.000000 0.000000
# 3 -0.003924 -0.002448 0.010682 0.000000 0.000000 0.000000
# 4 0.000000 0.000000 0.000000 0.111507 0.000000 0.000000
# 5 0.000000 0.000000 0.000000 0.000000 0.092263 0.000000
# 6 0.000000 0.000000 0.000000 0.000000 0.000000 0.061004
#
#
# Mechanical properties :
#
#
# Convention : Reuss Voigt Hill
#
# Bulk Modulus (GPa) = 75.46121 77.17396 76.31759
# Shear Modulus (GPa) = 15.80000 23.40863 19.60432
#
# Velocity S-wave (km/s) = 2.95515 3.59699 3.29175
# Velocity P-wave (km/s) = 7.30429 7.73993 7.52526
#
# Compressibility (1/GPa) = 0.01325184
#
# Stress axis : x y z
#
# Youngs Moduli (GPa) = 84.43080 129.32766 93.61596
#
# Poissons Ratio (x) = 0.27569 0.36731
# Poissons Ratio (y) = 0.17998 0.22917
# Poissons Ratio (z) = 0.33127 0.31659
#
# Static dielectric constant tensor:
#      x y z
#    x 1.601720 0.000000 0.000000 
#    y 0.000000 1.661830 0.000000 
#    z 0.000000 0.000000 1.636750 
# 
# From -- ./inp_files/25736.got.cif
#   From: 2010.05.17/outbox.cif.g08.bks.cpg/sg21_13_cif.got.tgz:25736.got - 2010.06.03 23:14:55.
