data_PCOD9323785
_publ_section_title
;
Structure prediction by ZEFSAII (Michael W. Deem and Ramdas Pophale) SiO2 
 PCOD9323785
Probable space group: C 2 2 2
;
_chemical_formula_sum "Si O2"
_cell_formula_units_Z 32
_cell_length_a 27.980147
_cell_length_b 5.014369
_cell_length_c 8.863396
_cell_angle_alpha 90.000000
_cell_angle_beta 90.000000
_cell_angle_gamma 90.000000
_cell_volume 1243.559114
_symmetry_space_group_name_H-M "C 2 2 2"
_symmetry_group_IT_number 21
_symmetry_cell_setting 'orthorhombic'
loop_
_space_group_symop_operation_xyz
x,y,z
-x,-y,z
x,-y,-z
-x,y,-z
1/2+x,1/2+y,z
1/2-x,1/2-y,z
1/2+x,1/2-y,-z
1/2-x,1/2+y,-z
loop_
_atom_site_type_symbol
_atom_site_label
_atom_site_fract_x
_atom_site_fract_y
_atom_site_fract_z
Si Si1 0.214070 0.500000 0.500000
Si Si2 0.933179 0.098557 0.244681
Si Si3 0.500000 0.500000 0.000000
Si Si4 0.000000 0.000000 0.500000
Si Si5 0.100862 0.500000 0.000000
Si Si6 0.840320 0.202023 0.754746
Si Si7 0.750000 0.750000 0.090141
O O1 0.250000 0.250000 0.526316
O O2 0.177984 0.578655 0.635934
O O3 0.965553 0.160586 0.388269
O O4 0.926425 0.342989 0.131776
O O5 0.881984 0.992683 0.301394
O O6 0.962307 0.896964 0.129871
O O7 0.134877 0.303963 0.093160
O O8 0.789517 0.095672 0.810722
O O9 0.771385 0.500000 0.000000
#
# Coordination Sequence:
#
# PCOD9323785 Si02
#       7
#     4   8   2   2   4   8   4
#     4  12  32  51  78 123 178 231 283 364 446 530
#     4  11  25  50  75 120 154 228 272 365 429 518
#     4  10  20  48  70 106 166 196 272 336 424 500
#     4  10  28  52  82 110 188 212 298 356 448 526
#     4  12  24  45  85 108 160 215 296 351 428 520
#     4  12  27  47  77 115 159 222 280 358 428 525
#     4  12  26  44  76 116 160 208 284 352 424 510
#
# _framework density 25.732590999999999
#
# number of rings (size 3 to 8) (size 9 to 14) (size 15 to 20)
#    0.000    0.500    5.000    1.500    8.750    0.500 
#    0.000    1.250    0.000    0.000    0.000    0.000 
#    0.000    0.000    0.000    0.000    0.000    0.000 
#
# Total GULP energy -89184.770989 kJ/mol
# GULP energy per Si atom -5574.048187 kJ/mol
# Density = 2.567402 g / cm^3
# Si number density = 25.732591 Si / 1000 Ang^3
#
#
#
# Elastic Constant Matrix: (Units=GPa)
#
#
# Indices 1 2 3 4 5 6 
#
# 1 208.4829 59.1149 80.7892 0.0000 0.0000 0.0000
# 2 59.1149 107.8227 43.3659 0.0000 0.0000 0.0000
# 3 80.7892 43.3659 159.3411 0.0000 0.0000 0.0000
# 4 0.0000 0.0000 0.0000 33.8575 0.0000 0.0000
# 5 0.0000 0.0000 0.0000 0.0000 155.4008 0.0000
# 6 0.0000 0.0000 0.0000 0.0000 0.0000 -0.8439
#
#
#
# Elastic Compliance Matrix: (Units=1/GPa)
#
#
# Indices 1 2 3 4 5 6 
#
# 1 0.006529 -0.002524 -0.002623 0.000000 0.000000 0.000000
# 2 -0.002524 0.011391 -0.001820 0.000000 0.000000 0.000000
# 3 -0.002623 -0.001820 0.008101 0.000000 0.000000 0.000000
# 4 0.000000 0.000000 0.000000 0.029536 0.000000 0.000000
# 5 0.000000 0.000000 0.000000 0.000000 0.006435 0.000000
# 6 0.000000 0.000000 0.000000 0.000000 0.000000 -1.185017
#
#
# Mechanical properties :
#
#
# Convention : Reuss Voigt Hill
#
# Bulk Modulus (GPa) = 82.74622 93.57630 88.16126
# Shear Modulus (GPa) = -4.52463 57.17467 26.32502
#
# Velocity S-wave (km/s) = -1.32746 4.71879 3.20194
# Velocity P-wave (km/s) = 5.46594 8.13223 6.92855
#
# Compressibility (1/GPa) = 0.01208514
#
# Stress axis : x y z
#
# Youngs Moduli (GPa) = 153.16524 87.79179 123.43820
#
# Poissons Ratio (x) = 0.22163 0.32381
# Poissons Ratio (y) = 0.38666 0.22467
# Poissons Ratio (z) = 0.40179 0.15979
#
# Static dielectric constant tensor:
#      x y z
#    x 2.116300 0.000000 0.000000 
#    y 0.000000 -2.565450 0.000000 
#    z 0.000000 0.000000 2.096790 
# 
# From -- ./inp_files/19464.got.cif
#   From: 2010.05.17/outbox.cif.g08.bks.cpg/sg21_10_cif.got.tgz:19464.got - 2010.06.03 23:14:55.
