data_PCOD9323322
_publ_section_title
;
Structure prediction by ZEFSAII (Michael W. Deem and Ramdas Pophale) SiO2 
 PCOD9323322
Probable space group: C 2 2 2
;
_chemical_formula_sum "Si O2"
_cell_formula_units_Z 34
_cell_length_a 15.237783
_cell_length_b 9.411651
_cell_length_c 11.210809
_cell_angle_alpha 90.000000
_cell_angle_beta 90.000000
_cell_angle_gamma 90.000000
_cell_volume 1607.772339
_symmetry_space_group_name_H-M "C 2 2 2"
_symmetry_group_IT_number 21
_symmetry_cell_setting 'orthorhombic'
loop_
_space_group_symop_operation_xyz
x,y,z
-x,-y,z
x,-y,-z
-x,y,-z
1/2+x,1/2+y,z
1/2-x,1/2-y,z
1/2+x,1/2-y,-z
1/2-x,1/2+y,-z
loop_
_atom_site_type_symbol
_atom_site_label
_atom_site_fract_x
_atom_site_fract_y
_atom_site_fract_z
Si Si1 0.000000 0.000000 0.000000
Si Si2 0.644018 0.090452 0.381574
Si Si3 0.859653 0.885140 0.165862
Si Si4 0.641652 0.416380 0.384954
Si Si5 0.840197 0.447341 0.866873
O O1 0.064164 0.902619 0.927147
O O2 0.612625 0.253173 0.386469
O O3 0.751063 0.088382 0.385897
O O4 0.615992 0.000000 0.500000
O O5 0.623862 0.034315 0.247511
O O6 0.852310 0.715962 0.175392
O O7 0.766178 0.951960 0.127738
O O8 0.885172 0.982859 0.276930
O O9 0.611908 0.500000 0.500000
O O10 0.870778 0.500000 0.000000
#
# Coordination Sequence:
#
# PCOD9323322 Si02
#       5
#     2   8   8   8   8
#     4  12  24  40  56  84 120 158 198 238 300 348
#     4   9  17  29  53  86 120 147 188 248 295 337
#     4  10  22  36  57  82 120 155 195 242 291 351
#     4   9  17  31  54  84 115 152 195 237 290 349
#     4  10  20  35  59  88 116 153 200 242 291 343
#
# _framework density 21.147272999999998
#
# number of rings (size 3 to 8) (size 9 to 14) (size 15 to 20)
#    0.000    2.353    1.176    1.412    3.294    7.529 
#    0.000    1.176    0.000    0.000    0.000    0.000 
#    0.000    0.000    0.000    0.000    0.000    0.000 
#
# Total GULP energy -94667.425829 kJ/mol
# GULP energy per Si atom -5568.672108 kJ/mol
# Density = 2.109914 g / cm^3
# Si number density = 21.147273 Si / 1000 Ang^3
#
#
#
# Elastic Constant Matrix: (Units=GPa)
#
#
# Indices 1 2 3 4 5 6 
#
# 1 31.9011 10.1143 11.5011 0.0000 0.0000 0.0000
# 2 10.1143 156.3106 129.8302 0.0000 0.0000 0.0000
# 3 11.5011 129.8302 182.1648 0.0000 0.0000 0.0000
# 4 0.0000 0.0000 0.0000 3.8835 0.0000 0.0000
# 5 0.0000 0.0000 0.0000 0.0000 8.8468 0.0000
# 6 0.0000 0.0000 0.0000 0.0000 0.0000 3.2679
#
#
#
# Elastic Compliance Matrix: (Units=1/GPa)
#
#
# Indices 1 2 3 4 5 6 
#
# 1 0.032136 -0.000966 -0.001340 0.000000 0.000000 0.000000
# 2 -0.000966 0.015708 -0.011134 0.000000 0.000000 0.000000
# 3 -0.001340 -0.011134 0.013510 0.000000 0.000000 0.000000
# 4 0.000000 0.000000 0.000000 0.257497 0.000000 0.000000
# 5 0.000000 0.000000 0.000000 0.000000 0.113035 0.000000
# 6 0.000000 0.000000 0.000000 0.000000 0.000000 0.306006
#
#
# Mechanical properties :
#
#
# Convention : Reuss Voigt Hill
#
# Bulk Modulus (GPa) = 29.00856 74.80753 51.90804
# Shear Modulus (GPa) = 6.44110 17.79504 12.11807
#
# Velocity S-wave (km/s) = 1.74712 2.90398 2.39641
# Velocity P-wave (km/s) = 4.22103 6.83341 5.67946
#
# Compressibility (1/GPa) = 0.03447259
#
# Stress axis : x y z
#
# Youngs Moduli (GPa) = 31.11732 63.66166 74.02131
#
# Poissons Ratio (x) = 0.06151 0.09922
# Poissons Ratio (y) = 0.03006 0.82417
# Poissons Ratio (z) = 0.04171 0.70882
#
# Static dielectric constant tensor:
#      x y z
#    x 1.804430 0.000000 0.000000 
#    y 0.000000 1.509260 0.000000 
#    z 0.000000 0.000000 1.784250 
# 
# From -- ./inp_files/22174.got.cif
#   From: 2010.05.17/outbox.cif.g08.bks.cpg/sg21_12_cif.got.tgz:22174.got - 2010.06.03 23:14:55.
