data_PCOD9323603
_publ_section_title
;
Structure prediction by ZEFSAII (Michael W. Deem and Ramdas Pophale) SiO2 
 PCOD9323603
Probable space group: C 2 2 2
;
_chemical_formula_sum "Si O2"
_cell_formula_units_Z 48
_cell_length_a 28.288778
_cell_length_b 13.944722
_cell_length_c 5.891200
_cell_angle_alpha 90.000000
_cell_angle_beta 90.000000
_cell_angle_gamma 90.000000
_cell_volume 2323.955539
_symmetry_space_group_name_H-M "C 2 2 2"
_symmetry_group_IT_number 21
_symmetry_cell_setting 'orthorhombic'
loop_
_space_group_symop_operation_xyz
x,y,z
-x,-y,z
x,-y,-z
-x,y,-z
1/2+x,1/2+y,z
1/2-x,1/2-y,z
1/2+x,1/2-y,-z
1/2-x,1/2+y,-z
loop_
_atom_site_type_symbol
_atom_site_label
_atom_site_fract_x
_atom_site_fract_y
_atom_site_fract_z
Si Si1 0.670355 0.736435 0.189482
Si Si2 0.129439 0.901835 0.427555
Si Si3 0.690556 0.887438 0.542851
Si Si4 0.721536 0.405753 0.136870
Si Si5 0.445948 0.033756 0.752214
Si Si6 0.396067 0.216022 0.804756
O O1 0.652547 0.657180 0.366641
O O2 0.694394 0.825662 0.314258
O O3 0.704834 0.681982 0.018279
O O4 0.624102 0.774266 0.057544
O O5 0.173789 0.932563 0.271824
O O6 0.099416 0.822534 0.294032
O O7 0.104802 0.000000 0.500000
O O8 0.737599 0.876674 0.690845
O O9 0.646509 0.839538 0.673491
O O10 0.683729 0.000000 0.500000
O O11 0.737146 0.500000 0.000000
O O12 0.440419 0.148124 0.767605
O O13 0.500000 0.000000 0.755522
O O14 0.427538 0.000000 0.500000
O O15 0.424427 0.000000 0.000000
#
# Coordination Sequence:
#
# PCOD9323603 Si02
#       6
#     8   8   8   8   8   8
#     4  10  24  41  56  79 118 160 219 278 326 398
#     4  10  20  39  60  84 118 164 218 278 325 381
#     4  11  26  39  54  84 116 166 211 280 335 387
#     4  11  23  39  56  76 112 170 226 278 337 392
#     4  10  23  43  71 103 139 172 208 255 322 415
#     4  10  24  37  63  90 124 165 210 268 333 398
#
# _framework density 20.654440000000001
#
# number of rings (size 3 to 8) (size 9 to 14) (size 15 to 20)
#    0.000    1.667    1.667    1.000    9.333    7.333 
#    0.000    0.000    0.000    0.000    0.000    2.333 
#    0.000    0.000    0.000    0.000    0.000    0.000 
#
# Total GULP energy -134078.590716 kJ/mol
# GULP energy per Si atom -5586.607946 kJ/mol
# Density = 2.060743 g / cm^3
# Si number density = 20.654440 Si / 1000 Ang^3
#
#
#
# Elastic Constant Matrix: (Units=GPa)
#
#
# Indices 1 2 3 4 5 6 
#
# 1 47.2130 30.0930 7.1659 0.0000 0.0000 0.0000
# 2 30.0930 170.9416 55.3678 0.0000 0.0000 0.0000
# 3 7.1659 55.3678 114.7488 0.0000 0.0000 0.0000
# 4 0.0000 0.0000 0.0000 76.3314 0.0000 0.0000
# 5 0.0000 0.0000 0.0000 0.0000 -0.5877 0.0000
# 6 0.0000 0.0000 0.0000 0.0000 0.0000 23.0278
#
#
#
# Elastic Compliance Matrix: (Units=1/GPa)
#
#
# Indices 1 2 3 4 5 6 
#
# 1 0.023897 -0.004413 0.000637 0.000000 0.000000 0.000000
# 2 -0.004413 0.007749 -0.003463 0.000000 0.000000 0.000000
# 3 0.000637 -0.003463 0.010346 0.000000 0.000000 0.000000
# 4 0.000000 0.000000 0.000000 0.013101 0.000000 0.000000
# 5 0.000000 0.000000 0.000000 0.000000 -1.701599 0.000000
# 6 0.000000 0.000000 0.000000 0.000000 0.000000 0.043426
#
#
# Mechanical properties :
#
#
# Convention : Reuss Voigt Hill
#
# Bulk Modulus (GPa) = 36.34679 57.57298 46.95988
# Shear Modulus (GPa) = -3.16570 35.77274 16.30352
#
# Velocity S-wave (km/s) = -1.23936 4.16620 2.81258
# Velocity P-wave (km/s) = 3.94813 7.14688 5.77346
#
# Compressibility (1/GPa) = 0.02751275
#
# Stress axis : x y z
#
# Youngs Moduli (GPa) = 41.84653 129.05567 96.65630
#
# Poissons Ratio (x) = 0.56955 -0.06158
# Poissons Ratio (y) = 0.18468 0.33474
# Poissons Ratio (z) = -0.02666 0.44695
#
# Static dielectric constant tensor:
#      x y z
#    x 1.713170 0.000000 0.000000 
#    y 0.000000 1.739300 0.000000 
#    z 0.000000 0.000000 1.834850 
# 
# From -- ./inp_files/4244.got.cif
#   From: 2010.05.17/outbox.cif.g08.bks.cpg/sg21_3_cif.got.tgz:4244.got - 2010.06.03 23:14:55.
