data_PCOD9323002
_publ_section_title
;
Structure prediction by ZEFSAII (Michael W. Deem and Ramdas Pophale) SiO2 
 PCOD9323002
Probable space group: C 2 2 2
;
_chemical_formula_sum "Si O2"
_cell_formula_units_Z 64
_cell_length_a 14.714855
_cell_length_b 16.846199
_cell_length_c 12.112249
_cell_angle_alpha 90.000000
_cell_angle_beta 90.000000
_cell_angle_gamma 90.000000
_cell_volume 3002.497842
_symmetry_space_group_name_H-M "C 2 2 2"
_symmetry_group_IT_number 21
_symmetry_cell_setting 'orthorhombic'
loop_
_space_group_symop_operation_xyz
x,y,z
-x,-y,z
x,-y,-z
-x,y,-z
1/2+x,1/2+y,z
1/2-x,1/2-y,z
1/2+x,1/2-y,-z
1/2-x,1/2+y,-z
loop_
_atom_site_type_symbol
_atom_site_label
_atom_site_fract_x
_atom_site_fract_y
_atom_site_fract_z
Si Si1 0.855259 0.602013 0.162470
Si Si2 0.964943 0.313539 0.106677
Si Si3 0.345319 0.609111 0.913789
Si Si4 0.873919 0.072871 0.164630
Si Si5 0.830461 0.581922 0.788627
Si Si6 0.977880 0.181404 0.744426
Si Si7 0.650985 0.214139 0.623490
Si Si8 0.396299 0.914889 0.457457
O O1 0.762362 0.623753 0.098842
O O2 0.847729 0.508489 0.177557
O O3 0.858152 0.650154 0.277481
O O4 0.952109 0.623931 0.112143
O O5 0.872216 0.360930 0.118758
O O6 0.963964 0.254009 0.208807
O O7 0.000000 0.266362 0.000000
O O8 0.369896 0.521158 0.864707
O O9 0.396891 0.668106 0.832484
O O10 0.375564 0.611263 0.041424
O O11 0.777441 0.093524 0.220052
O O12 0.955928 0.105385 0.240853
O O13 0.882828 0.591232 0.673021
O O14 0.925553 0.216946 0.638130
O O15 0.750000 0.250000 0.633639
O O16 0.645425 0.162512 0.513450
O O17 0.500000 0.914619 0.500000
O O18 0.357342 0.000000 0.500000
#
# Coordination Sequence:
#
# PCOD9323002 Si02
#       8
#     8   8   8   8   8   8   8   8
#     4  10  20  36  62  88 122 164 210 256 312 373
#     4  11  23  35  56  90 130 168 201 252 318 378
#     4  10  19  37  62  92 129 174 220 256 305 392
#     4  10  22  37  61  93 130 173 215 261 316 381
#     4  11  23  41  61  90 125 162 212 268 321 388
#     4  11  22  38  61  89 129 170 216 260 315 385
#     4  11  22  42  65  93 120 158 211 272 321 378
#     4  11  23  42  70  90 118 163 216 270 327 387
#
# _framework density 21.315584999999999
#
# number of rings (size 3 to 8) (size 9 to 14) (size 15 to 20)
#    0.000    1.375    2.500    4.125    1.750    3.500 
#    4.500    2.500    0.000    0.000    0.000    0.000 
#    0.000    0.000    0.000    0.000    0.000    0.000 
#
# Total GULP energy -178553.550022 kJ/mol
# GULP energy per Si atom -5579.798438 kJ/mol
# Density = 2.126707 g / cm^3
# Si number density = 21.315585 Si / 1000 Ang^3
#
#
#
# Elastic Constant Matrix: (Units=GPa)
#
#
# Indices 1 2 3 4 5 6 
#
# 1 83.7867 19.9471 -1.7437 0.0000 0.0000 0.0000
# 2 19.9471 46.2748 1.4197 0.0000 0.0000 0.0000
# 3 -1.7437 1.4197 29.4247 0.0000 0.0000 0.0000
# 4 0.0000 0.0000 0.0000 42.6178 0.0000 0.0000
# 5 0.0000 0.0000 0.0000 0.0000 20.7471 0.0000
# 6 0.0000 0.0000 0.0000 0.0000 0.0000 18.3995
#
#
#
# Elastic Compliance Matrix: (Units=1/GPa)
#
#
# Indices 1 2 3 4 5 6 
#
# 1 0.013333 -0.005780 0.001069 0.000000 0.000000 0.000000
# 2 -0.005780 0.024148 -0.001508 0.000000 0.000000 0.000000
# 3 0.001069 -0.001508 0.034121 0.000000 0.000000 0.000000
# 4 0.000000 0.000000 0.000000 0.023464 0.000000 0.000000
# 5 0.000000 0.000000 0.000000 0.000000 0.048200 0.000000
# 6 0.000000 0.000000 0.000000 0.000000 0.000000 0.054349
#
#
# Mechanical properties :
#
#
# Convention : Reuss Voigt Hill
#
# Bulk Modulus (GPa) = 16.90195 22.08137 19.49166
# Shear Modulus (GPa) = 21.76041 25.67707 23.71874
#
# Velocity S-wave (km/s) = 3.19857 3.47452 3.33940
# Velocity P-wave (km/s) = 4.64626 5.14569 4.90234
#
# Compressibility (1/GPa) = 0.05916476
#
# Stress axis : x y z
#
# Youngs Moduli (GPa) = 74.99955 41.41141 29.30730
#
# Poissons Ratio (x) = 0.23937 -0.03133
# Poissons Ratio (y) = 0.43352 0.04418
# Poissons Ratio (z) = -0.08018 0.06243
#
# Static dielectric constant tensor:
#      x y z
#    x 1.555330 0.000000 0.000000 
#    y 0.000000 1.805600 0.000000 
#    z 0.000000 0.000000 1.852560 
# 
# From -- ./inp_files/25485.got.cif
#   From: 2010.05.17/outbox.cif.g08.bks.cpg/sg21_13_cif.got.tgz:25485.got - 2010.06.03 23:14:55.
