data_PCOD9323822
_publ_section_title
;
Structure prediction by ZEFSAII (Michael W. Deem and Ramdas Pophale) SiO2 
 PCOD9323822
Probable space group: C 2 2 2
;
_chemical_formula_sum "Si O2"
_cell_formula_units_Z 40
_cell_length_a 20.588138
_cell_length_b 12.540825
_cell_length_c 5.558422
_cell_angle_alpha 90.000000
_cell_angle_beta 90.000000
_cell_angle_gamma 90.000000
_cell_volume 1435.141403
_symmetry_space_group_name_H-M "C 2 2 2"
_symmetry_group_IT_number 21
_symmetry_cell_setting 'orthorhombic'
loop_
_space_group_symop_operation_xyz
x,y,z
-x,-y,z
x,-y,-z
-x,y,-z
1/2+x,1/2+y,z
1/2-x,1/2-y,z
1/2+x,1/2-y,-z
1/2-x,1/2+y,-z
loop_
_atom_site_type_symbol
_atom_site_label
_atom_site_fract_x
_atom_site_fract_y
_atom_site_fract_z
Si Si1 0.308874 0.170943 0.615425
Si Si2 0.923774 0.154169 0.422184
Si Si3 0.826946 0.355508 0.881958
Si Si4 0.139096 0.108417 0.076180
Si Si5 0.524836 0.880230 0.239837
O O1 0.250000 0.250000 0.658143
O O2 0.376955 0.237587 0.591987
O O3 0.290179 0.118329 0.362347
O O4 0.314875 0.101014 0.853379
O O5 0.890246 0.099506 0.656147
O O6 0.000000 0.146881 0.500000
O O7 0.912403 0.115318 0.147336
O O8 0.825863 0.224582 0.915678
O O9 0.899752 0.383711 0.806143
O O10 0.176380 0.000000 0.000000
O O11 0.500000 0.843189 0.500000
O O12 0.500000 0.000000 0.233686
O O13 0.500000 0.820035 0.000000
#
# Coordination Sequence:
#
# PCOD9323822 Si02
#       5
#     8   8   8   8   8
#     4  10  21  38  60  90 124 163 220 273 325 393
#     4  10  21  35  53  83 123 153 206 250 312 375
#     4  10  21  36  60  93 122 166 220 260 326 404
#     4  10  21  35  53  85 128 160 194 245 311 386
#     4  10  21  38  61  94 130 170 210 280 351 397
#
# _framework density 27.871818999999999
#
# number of rings (size 3 to 8) (size 9 to 14) (size 15 to 20)
#    0.000    2.000    0.000    3.000    0.000   12.000 
#    0.000    0.000    0.000    0.000  208.000    0.000 
#    0.000    0.000    0.000    0.000    0.000    0.000 
#
# Total GULP energy -111587.164419 kJ/mol
# GULP energy per Si atom -5579.358221 kJ/mol
# Density = 2.780838 g / cm^3
# Si number density = 27.871819 Si / 1000 Ang^3
#
#
#
# Elastic Constant Matrix: (Units=GPa)
#
#
# Indices 1 2 3 4 5 6 
#
# 1 139.4159 11.6076 48.7212 0.0000 0.0000 0.0000
# 2 11.6076 96.5002 34.1669 0.0000 0.0000 0.0000
# 3 48.7212 34.1669 349.1671 0.0000 0.0000 0.0000
# 4 0.0000 0.0000 0.0000 13.4183 0.0000 0.0000
# 5 0.0000 0.0000 0.0000 0.0000 44.9565 0.0000
# 6 0.0000 0.0000 0.0000 0.0000 0.0000 -7.1513
#
#
#
# Elastic Compliance Matrix: (Units=1/GPa)
#
#
# Indices 1 2 3 4 5 6 
#
# 1 0.007569 -0.000556 -0.001002 0.000000 0.000000 0.000000
# 2 -0.000556 0.010775 -0.000977 0.000000 0.000000 0.000000
# 3 -0.001002 -0.000977 0.003099 0.000000 0.000000 0.000000
# 4 0.000000 0.000000 0.000000 0.074525 0.000000 0.000000
# 5 0.000000 0.000000 0.000000 0.000000 0.022244 0.000000
# 6 0.000000 0.000000 0.000000 0.000000 0.000000 -0.139834
#
#
# Mechanical properties :
#
#
# Convention : Reuss Voigt Hill
#
# Bulk Modulus (GPa) = 61.06847 86.00828 73.53838
# Shear Modulus (GPa) = -450.69997 42.95053 -203.87472
#
# Velocity S-wave (km/s) = -12.73011 3.92982 -8.56190
# Velocity P-wave (km/s) = 13.93255 7.17752 8.44391
#
# Compressibility (1/GPa) = 0.01637506
#
# Stress axis : x y z
#
# Youngs Moduli (GPa) = 132.11532 92.80407 322.65048
#
# Poissons Ratio (x) = 0.05158 0.32322
# Poissons Ratio (y) = 0.07343 0.31518
# Poissons Ratio (z) = 0.13235 0.09066
#
# Static dielectric constant tensor:
#      x y z
#    x 2.205280 0.000000 0.000000 
#    y 0.000000 2.224590 0.000000 
#    z 0.000000 0.000000 2.452090 
# 
# From -- ./inp_files/5820.got.cif
#   From: 2010.05.17/outbox.cif.g08.bks.cpg/sg21_3_cif.got.tgz:5820.got - 2010.06.03 23:14:55.
