data_PCOD9323258
_publ_section_title
;
Structure prediction by ZEFSAII (Michael W. Deem and Ramdas Pophale) SiO2 
 PCOD9323258
Probable space group: C 2 2 2
;
_chemical_formula_sum "Si O2"
_cell_formula_units_Z 44
_cell_length_a 8.556542
_cell_length_b 17.356893
_cell_length_c 15.784969
_cell_angle_alpha 90.000000
_cell_angle_beta 90.000000
_cell_angle_gamma 90.000000
_cell_volume 2344.304418
_symmetry_space_group_name_H-M "C 2 2 2"
_symmetry_group_IT_number 21
_symmetry_cell_setting 'orthorhombic'
loop_
_space_group_symop_operation_xyz
x,y,z
-x,-y,z
x,-y,-z
-x,y,-z
1/2+x,1/2+y,z
1/2-x,1/2-y,z
1/2+x,1/2-y,-z
1/2-x,1/2+y,-z
loop_
_atom_site_type_symbol
_atom_site_label
_atom_site_fract_x
_atom_site_fract_y
_atom_site_fract_z
Si Si1 0.521106 0.701231 0.276743
Si Si2 0.750000 0.750000 0.615639
Si Si3 0.000000 0.338512 0.500000
Si Si4 0.521031 0.367932 0.905511
Si Si5 0.500000 0.000000 0.226647
Si Si6 0.661293 0.866780 0.331913
Si Si7 0.250032 0.995958 0.093776
O O1 0.354035 0.695131 0.323690
O O2 0.506645 0.685896 0.176439
O O3 0.584784 0.787114 0.297008
O O4 0.653534 0.644743 0.316305
O O5 0.876016 0.710021 0.554893
O O6 0.107535 0.378579 0.429064
O O7 0.679258 0.418263 0.892487
O O8 0.389162 0.434204 0.906265
O O9 0.500000 0.331974 0.000000
O O10 0.414002 0.063773 0.281211
O O11 0.630998 0.031953 0.163851
O O12 0.318812 0.000000 0.000000
#
# Coordination Sequence:
#
# PCOD9323258 Si02
#       7
#     8   4   4   8   4   8   8
#     4  10  20  39  58  91 113 157 199 250 290 373
#     4  10  20  34  66  84 122 148 200 242 312 362
#     4  10  20  39  56  90 108 153 190 250 298 369
#     4   9  18  36  58  83 119 156 196 246 292 351
#     4  12  21  37  58  88 114 166 188 257 293 374
#     4  10  23  37  61  81 123 150 201 245 314 355
#     4   9  19  34  57  83 117 158 200 239 293 361
#
# _framework density 18.768894
#
# number of rings (size 3 to 8) (size 9 to 14) (size 15 to 20)
#    0.000    2.182    1.818    3.545    5.091    0.364 
#    0.000    3.636    0.000    0.000    0.000    0.000 
#    0.000    0.000    0.000    0.000    0.000    0.000 
#
# Total GULP energy -122513.272211 kJ/mol
# GULP energy per Si atom -5568.785101 kJ/mol
# Density = 1.872618 g / cm^3
# Si number density = 18.768894 Si / 1000 Ang^3
#
#
#
# Elastic Constant Matrix: (Units=GPa)
#
#
# Indices 1 2 3 4 5 6 
#
# 1 113.9154 20.6135 59.1786 0.0000 0.0000 0.0000
# 2 20.6135 37.2298 27.4608 0.0000 0.0000 0.0000
# 3 59.1786 27.4608 164.7763 0.0000 0.0000 0.0000
# 4 0.0000 0.0000 0.0000 30.7879 0.0000 0.0000
# 5 0.0000 0.0000 0.0000 0.0000 45.9089 0.0000
# 6 0.0000 0.0000 0.0000 0.0000 0.0000 16.9163
#
#
#
# Elastic Compliance Matrix: (Units=1/GPa)
#
#
# Indices 1 2 3 4 5 6 
#
# 1 0.011221 -0.003694 -0.003414 0.000000 0.000000 0.000000
# 2 -0.003694 0.031841 -0.003980 0.000000 0.000000 0.000000
# 3 -0.003414 -0.003980 0.007958 0.000000 0.000000 0.000000
# 4 0.000000 0.000000 0.000000 0.032480 0.000000 0.000000
# 5 0.000000 0.000000 0.000000 0.000000 0.021782 0.000000
# 6 0.000000 0.000000 0.000000 0.000000 0.000000 0.059115
#
#
# Mechanical properties :
#
#
# Convention : Reuss Voigt Hill
#
# Bulk Modulus (GPa) = 34.66970 58.93636 46.80303
# Shear Modulus (GPa) = 25.48576 32.63386 29.05981
#
# Velocity S-wave (km/s) = 3.68893 4.17432 3.93911
# Velocity P-wave (km/s) = 6.05444 7.39612 6.75865
#
# Compressibility (1/GPa) = 0.02884363
#
# Stress axis : x y z
#
# Youngs Moduli (GPa) = 89.12190 31.40589 125.65598
#
# Poissons Ratio (x) = 0.11603 0.42901
# Poissons Ratio (y) = 0.32925 0.50007
# Poissons Ratio (z) = 0.30427 0.12498
#
# Static dielectric constant tensor:
#      x y z
#    x 1.687060 0.000000 0.000000 
#    y 0.000000 1.628270 0.000000 
#    z 0.000000 0.000000 1.682550 
# 
# From -- ./inp_files/30423.got.cif
#   From: 2010.05.17/outbox.cif.g08.bks.cpg/sg21_16_cif.got.tgz:30423.got - 2010.06.03 23:14:55.
