data_PCOD9323112
_publ_section_title
;
Structure prediction by ZEFSAII (Michael W. Deem and Ramdas Pophale) SiO2 
 PCOD9323112
Probable space group: C 2 2 2
;
_chemical_formula_sum "Si O2"
_cell_formula_units_Z 52
_cell_length_a 9.584435
_cell_length_b 26.868386
_cell_length_c 11.447947
_cell_angle_alpha 90.000000
_cell_angle_beta 90.000000
_cell_angle_gamma 90.000000
_cell_volume 2948.055840
_symmetry_space_group_name_H-M "C 2 2 2"
_symmetry_group_IT_number 21
_symmetry_cell_setting 'orthorhombic'
loop_
_space_group_symop_operation_xyz
x,y,z
-x,-y,z
x,-y,-z
-x,y,-z
1/2+x,1/2+y,z
1/2-x,1/2-y,z
1/2+x,1/2-y,-z
1/2-x,1/2+y,-z
loop_
_atom_site_type_symbol
_atom_site_label
_atom_site_fract_x
_atom_site_fract_y
_atom_site_fract_z
Si Si1 0.265829 0.000000 0.500000
Si Si2 0.685287 0.074764 0.307531
Si Si3 0.667737 0.499953 0.137939
Si Si4 0.459990 0.144426 0.361577
Si Si5 0.918581 0.749678 0.622703
Si Si6 0.304861 0.581058 0.684870
Si Si7 0.442917 0.640796 0.366778
O O1 0.346053 0.033651 0.593028
O O2 0.184379 0.040144 0.420097
O O3 0.759050 0.046621 0.201542
O O4 0.545513 0.104567 0.286200
O O5 0.792125 0.115700 0.359642
O O6 0.500000 0.500000 0.160176
O O7 0.730519 0.548543 0.201917
O O8 0.689897 0.500000 0.000000
O O9 0.500000 0.139992 0.500000
O O10 0.513944 0.199400 0.324738
O O11 0.301840 0.125442 0.347787
O O12 0.750000 0.750000 0.605462
O O13 0.945614 0.803079 0.680741
O O14 0.000000 0.752290 0.500000
O O15 0.453246 0.605947 0.703211
O O16 0.500000 0.640686 0.500000
#
# Coordination Sequence:
#
# PCOD9323112 Si02
#       7
#     4   8   8   8   8   8   8
#     4  10  20  30  46  74 112 136 174 218 262 320
#     4  11  20  33  54  77 108 145 182 219 274 325
#     4  10  22  39  57  81 109 144 191 231 274 330
#     4  11  21  36  50  81 117 149 181 220 276 331
#     4  10  22  33  50  74 116 156 183 222 272 333
#     4  11  22  33  55  81 109 145 185 227 274 322
#     4  11  19  32  51  80 109 145 185 221 268 329
#
# _framework density 17.638742000000001
#
# number of rings (size 3 to 8) (size 9 to 14) (size 15 to 20)
#    0.000    1.385    6.154    0.000    6.462    3.692 
#    0.000    1.538    0.000    0.000    0.000    6.462 
#    0.000    0.000    0.000    0.000    0.000    0.000 
#
# Total GULP energy -144832.145463 kJ/mol
# GULP energy per Si atom -5570.467133 kJ/mol
# Density = 1.759860 g / cm^3
# Si number density = 17.638742 Si / 1000 Ang^3
#
#
#
# Elastic Constant Matrix: (Units=GPa)
#
#
# Indices 1 2 3 4 5 6 
#
# 1 56.0836 20.7044 1.9939 0.0000 0.0000 0.0000
# 2 20.7044 129.3455 24.2190 0.0000 0.0000 0.0000
# 3 1.9939 24.2190 63.1166 0.0000 0.0000 0.0000
# 4 0.0000 0.0000 0.0000 9.5587 0.0000 0.0000
# 5 0.0000 0.0000 0.0000 0.0000 15.2847 0.0000
# 6 0.0000 0.0000 0.0000 0.0000 0.0000 25.1034
#
#
#
# Elastic Compliance Matrix: (Units=1/GPa)
#
#
# Indices 1 2 3 4 5 6 
#
# 1 0.018972 -0.003151 0.000610 0.000000 0.000000 0.000000
# 2 -0.003151 0.008853 -0.003298 0.000000 0.000000 0.000000
# 3 0.000610 -0.003298 0.017090 0.000000 0.000000 0.000000
# 4 0.000000 0.000000 0.000000 0.104616 0.000000 0.000000
# 5 0.000000 0.000000 0.000000 0.000000 0.065425 0.000000
# 6 0.000000 0.000000 0.000000 0.000000 0.000000 0.039835
#
#
# Mechanical properties :
#
#
# Convention : Reuss Voigt Hill
#
# Bulk Modulus (GPa) = 30.08671 38.04226 34.06448
# Shear Modulus (GPa) = 18.01490 23.43127 20.72308
#
# Velocity S-wave (km/s) = 3.19929 3.64867 3.43134
# Velocity P-wave (km/s) = 5.54450 6.27413 5.92056
#
# Compressibility (1/GPa) = 0.03323727
#
# Stress axis : x y z
#
# Youngs Moduli (GPa) = 52.70898 112.95535 58.51463
#
# Poissons Ratio (x) = 0.35593 -0.03568
# Poissons Ratio (y) = 0.16609 0.19295
# Poissons Ratio (z) = -0.03214 0.37247
#
# Static dielectric constant tensor:
#      x y z
#    x 1.759730 0.000000 0.000000 
#    y 0.000000 1.661670 0.000000 
#    z 0.000000 0.000000 1.581720 
# 
# From -- ./inp_files/22958.got.cif
#   From: 2010.05.17/outbox.cif.g08.bks.cpg/sg21_12_cif.got.tgz:22958.got - 2010.06.03 23:14:55.
