data_PCOD9323030
_publ_section_title
;
Structure prediction by ZEFSAII (Michael W. Deem and Ramdas Pophale) SiO2 
 PCOD9323030
Probable space group: C 2 2 2
;
_chemical_formula_sum "Si O2"
_cell_formula_units_Z 26
_cell_length_a 13.995389
_cell_length_b 12.285915
_cell_length_c 6.776520
_cell_angle_alpha 90.000000
_cell_angle_beta 90.000000
_cell_angle_gamma 90.000000
_cell_volume 1165.196590
_symmetry_space_group_name_H-M "C 2 2 2"
_symmetry_group_IT_number 21
_symmetry_cell_setting 'orthorhombic'
loop_
_space_group_symop_operation_xyz
x,y,z
-x,-y,z
x,-y,-z
-x,y,-z
1/2+x,1/2+y,z
1/2-x,1/2-y,z
1/2+x,1/2-y,-z
1/2-x,1/2+y,-z
loop_
_atom_site_type_symbol
_atom_site_label
_atom_site_fract_x
_atom_site_fract_y
_atom_site_fract_z
Si Si1 0.500000 0.500000 0.500000
Si Si2 0.325796 0.629804 0.337233
Si Si3 0.887970 0.262812 0.996839
Si Si4 0.233038 0.095899 0.219670
O O1 0.429934 0.575952 0.374713
O O2 0.347368 0.739148 0.216426
O O3 0.277146 0.632508 0.551618
O O4 0.270605 0.534267 0.219586
O O5 0.858916 0.150963 0.884642
O O6 0.826256 0.352223 0.880361
O O7 0.000000 0.283444 0.000000
#
# Coordination Sequence:
#
# PCOD9323030 Si02
#       4
#     2   8   8   8
#     4   8  16  32  62  96 116 158 208 256 326 368
#     4  10  19  38  61  87 131 165 204 261 311 381
#     4  11  21  36  64  96 121 156 213 265 308 366
#     4   9  22  37  57  92 127 166 203 251 323 370
#
# _framework density 22.313832999999999
#
# number of rings (size 3 to 8) (size 9 to 14) (size 15 to 20)
#    0.000    2.462    0.000    4.615    0.000    6.154 
#    0.000    0.000    0.000   22.154    0.000    8.615 
#    0.000    0.000    0.000    0.000    0.000    0.000 
#
# Total GULP energy -72633.914651 kJ/mol
# GULP energy per Si atom -5587.224204 kJ/mol
# Density = 2.226305 g / cm^3
# Si number density = 22.313833 Si / 1000 Ang^3
#
#
#
# Elastic Constant Matrix: (Units=GPa)
#
#
# Indices 1 2 3 4 5 6 
#
# 1 203.7685 57.5342 69.5708 0.0000 0.0000 0.0000
# 2 57.5342 98.0017 39.6741 0.0000 0.0000 0.0000
# 3 69.5708 39.6741 136.2845 0.0000 0.0000 0.0000
# 4 0.0000 0.0000 0.0000 48.2850 0.0000 0.0000
# 5 0.0000 0.0000 0.0000 0.0000 29.5789 0.0000
# 6 0.0000 0.0000 0.0000 0.0000 0.0000 35.7488
#
#
#
# Elastic Compliance Matrix: (Units=1/GPa)
#
#
# Indices 1 2 3 4 5 6 
#
# 1 0.006571 -0.002834 -0.002530 0.000000 0.000000 0.000000
# 2 -0.002834 0.012789 -0.002276 0.000000 0.000000 0.000000
# 3 -0.002530 -0.002276 0.009292 0.000000 0.000000 0.000000
# 4 0.000000 0.000000 0.000000 0.020710 0.000000 0.000000
# 5 0.000000 0.000000 0.000000 0.000000 0.033808 0.000000
# 6 0.000000 0.000000 0.000000 0.000000 0.000000 0.027973
#
#
# Mechanical properties :
#
#
# Convention : Reuss Voigt Hill
#
# Bulk Modulus (GPa) = 74.78118 85.73479 80.25798
# Shear Modulus (GPa) = 38.20282 40.80758 39.50520
#
# Velocity S-wave (km/s) = 4.14220 4.28109 4.21222
# Velocity P-wave (km/s) = 7.51420 7.93364 7.72677
#
# Compressibility (1/GPa) = 0.01337235
#
# Stress axis : x y z
#
# Youngs Moduli (GPa) = 152.17680 78.19141 107.62400
#
# Poissons Ratio (x) = 0.22158 0.27224
# Poissons Ratio (y) = 0.43124 0.24500
# Poissons Ratio (z) = 0.38494 0.17800
#
# Static dielectric constant tensor:
#      x y z
#    x 1.808130 0.000000 0.000000 
#    y 0.000000 1.887670 0.000000 
#    z 0.000000 0.000000 1.990820 
# 
# From -- ./inp_files/3339.got.cif
#   From: 2010.05.17/outbox.cif.g08.bks.cpg/sg21_2_cif.got.tgz:3339.got - 2010.06.03 23:14:55.
