data_PCOD9323932
_publ_section_title
;
Structure prediction by ZEFSAII (Michael W. Deem and Ramdas Pophale) SiO2 
 PCOD9323932
Probable space group: C 2 2 2
;
_chemical_formula_sum "Si O2"
_cell_formula_units_Z 40
_cell_length_a 14.741765
_cell_length_b 11.542955
_cell_length_c 10.855830
_cell_angle_alpha 90.000000
_cell_angle_beta 90.000000
_cell_angle_gamma 90.000000
_cell_volume 1847.266354
_symmetry_space_group_name_H-M "C 2 2 2"
_symmetry_group_IT_number 21
_symmetry_cell_setting 'orthorhombic'
loop_
_space_group_symop_operation_xyz
x,y,z
-x,-y,z
x,-y,-z
-x,y,-z
1/2+x,1/2+y,z
1/2-x,1/2-y,z
1/2+x,1/2-y,-z
1/2-x,1/2+y,-z
loop_
_atom_site_type_symbol
_atom_site_label
_atom_site_fract_x
_atom_site_fract_y
_atom_site_fract_z
Si Si1 0.408147 0.577035 0.749902
Si Si2 0.153165 0.734571 0.945697
Si Si3 0.796313 0.452593 0.731580
Si Si4 0.441389 0.887796 0.165445
Si Si5 0.935744 0.300847 0.614363
O O1 0.500000 0.500000 0.759013
O O2 0.388865 0.655444 0.873311
O O3 0.309796 0.518493 0.727959
O O4 0.413394 0.666475 0.634939
O O5 0.250000 0.750000 0.011091
O O6 0.183156 0.639413 0.842778
O O7 0.087856 0.685662 0.049067
O O8 0.853342 0.565032 0.764546
O O9 0.846749 0.382958 0.620895
O O10 0.503577 0.825475 0.264840
O O11 0.500000 0.000000 0.130352
O O12 0.000000 0.324888 0.500000
#
# Coordination Sequence:
#
# PCOD9323932 Si02
#       5
#     8   8   8   8   8
#     4  10  22  42  63  87 123 165 203 245 304 366
#     4   9  19  37  59  87 125 159 192 245 308 368
#     4   9  20  39  62  87 122 159 195 247 307 368
#     4  10  21  37  62  89 117 155 202 250 303 364
#     4  10  22  41  62  87 119 158 205 255 308 359
#
# _framework density 21.653618000000002
#
# number of rings (size 3 to 8) (size 9 to 14) (size 15 to 20)
#    0.000    2.400    0.000    2.400    0.000   16.800 
#    0.000   22.000    0.000    0.000    0.000    0.000 
#    0.000    0.000    0.000    0.000    0.000    0.000 
#
# Total GULP energy -111522.736351 kJ/mol
# GULP energy per Si atom -5576.136818 kJ/mol
# Density = 2.160433 g / cm^3
# Si number density = 21.653618 Si / 1000 Ang^3
#
#
#
# Elastic Constant Matrix: (Units=GPa)
#
#
# Indices 1 2 3 4 5 6 
#
# 1 222.0242 45.8664 29.6604 0.0000 0.0000 0.0000
# 2 45.8664 29.2037 -11.8239 0.0000 0.0000 0.0000
# 3 29.6604 -11.8239 52.2671 0.0000 0.0000 0.0000
# 4 0.0000 0.0000 0.0000 4.5216 0.0000 0.0000
# 5 0.0000 0.0000 0.0000 0.0000 32.6370 0.0000
# 6 0.0000 0.0000 0.0000 0.0000 0.0000 31.8827
#
#
#
# Elastic Compliance Matrix: (Units=1/GPa)
#
#
# Indices 1 2 3 4 5 6 
#
# 1 0.009902 -0.019623 -0.010058 0.000000 0.000000 0.000000
# 2 -0.019623 0.076585 0.028461 0.000000 0.000000 0.000000
# 3 -0.010058 0.028461 0.031279 0.000000 0.000000 0.000000
# 4 0.000000 0.000000 0.000000 0.221159 0.000000 0.000000
# 5 0.000000 0.000000 0.000000 0.000000 0.030640 0.000000
# 6 0.000000 0.000000 0.000000 0.000000 0.000000 0.031365
#
#
# Mechanical properties :
#
#
# Convention : Reuss Voigt Hill
#
# Bulk Modulus (GPa) = 8.67120 47.87787 28.27454
# Shear Modulus (GPa) = 11.31705 29.79440 20.55572
#
# Velocity S-wave (km/s) = 2.28861 3.71341 3.08441
# Velocity P-wave (km/s) = 3.31615 6.36747 5.07649
#
# Compressibility (1/GPa) = 0.11532423
#
# Stress axis : x y z
#
# Youngs Moduli (GPa) = 100.99468 13.05738 31.97069
#
# Poissons Ratio (x) = 0.25623 0.32156
# Poissons Ratio (y) = 1.98185 -0.90991
# Poissons Ratio (z) = 1.01581 -0.37162
#
# Static dielectric constant tensor:
#      x y z
#    x 1.945890 0.000000 0.000000 
#    y 0.000000 1.869650 0.000000 
#    z 0.000000 0.000000 1.810690 
# 
# From -- ./inp_files/24963.got.cif
#   From: 2010.05.17/outbox.cif.g08.bks.cpg/sg21_13_cif.got.tgz:24963.got - 2010.06.03 23:14:55.
