data_PCOD9323672
_publ_section_title
;
Structure prediction by ZEFSAII (Michael W. Deem and Ramdas Pophale) SiO2 
 PCOD9323672
Probable space group: C 2 2 2
;
_chemical_formula_sum "Si O2"
_cell_formula_units_Z 52
_cell_length_a 8.591220
_cell_length_b 19.803060
_cell_length_c 15.270515
_cell_angle_alpha 90.000000
_cell_angle_beta 90.000000
_cell_angle_gamma 90.000000
_cell_volume 2598.010055
_symmetry_space_group_name_H-M "C 2 2 2"
_symmetry_group_IT_number 21
_symmetry_cell_setting 'orthorhombic'
loop_
_space_group_symop_operation_xyz
x,y,z
-x,-y,z
x,-y,-z
-x,y,-z
1/2+x,1/2+y,z
1/2-x,1/2-y,z
1/2+x,1/2-y,-z
1/2-x,1/2+y,-z
loop_
_atom_site_type_symbol
_atom_site_label
_atom_site_fract_x
_atom_site_fract_y
_atom_site_fract_z
Si Si1 0.996481 0.078045 0.329161
Si Si2 0.669526 0.881980 0.402212
Si Si3 0.662544 0.312585 0.445231
Si Si4 0.088738 0.892660 0.861251
Si Si5 0.361137 0.815078 0.767102
Si Si6 0.500000 0.500000 0.000000
Si Si7 0.000000 0.500000 0.500000
Si Si8 0.566112 0.748562 0.909063
O O1 0.875217 0.125593 0.379865
O O2 0.163424 0.105693 0.358421
O O3 0.991204 0.083591 0.224244
O O4 0.000000 0.000000 0.356241
O O5 0.708230 0.835359 0.484284
O O6 0.578832 0.846060 0.323765
O O7 0.599238 0.950804 0.438273
O O8 0.500000 0.299506 0.500000
O O9 0.750000 0.250000 0.399928
O O10 0.254379 0.866803 0.823450
O O11 0.002571 0.826824 0.898905
O O12 0.094979 0.950518 0.934684
O O13 0.250000 0.750000 0.747325
O O14 0.498978 0.789582 0.827683
O O15 0.750000 0.750000 0.911688
O O16 0.500000 0.776958 0.000000
#
# Coordination Sequence:
#
# PCOD9323672 Si02
#       8
#     8   8   8   8   8   2   2   8
#     4  10  20  40  62  91 126 173 221 266 326 398
#     4  10  22  40  60  87 126 174 213 261 336 384
#     4  10  22  39  64  91 125 164 218 275 331 394
#     4  10  21  37  64  94 124 173 209 262 320 388
#     4   9  20  42  67  87 127 167 208 269 329 384
#     4  12  20  36  64  94 130 168 222 250 308 404
#     4  12  24  40  62  92 126 180 216 268 324 404
#     4  11  22  40  66  99 129 163 213 267 332 382
#
# _framework density 20.015319999999999
#
# number of rings (size 3 to 8) (size 9 to 14) (size 15 to 20)
#    0.000    1.846    1.538    2.769    1.077    4.000 
#    5.538    0.000    0.000    0.923    0.000    0.000 
#    0.000    0.000    0.000    0.000    0.000    0.000 
#
# Total GULP energy -145143.697704 kJ/mol
# GULP energy per Si atom -5582.449912 kJ/mol
# Density = 1.996976 g / cm^3
# Si number density = 20.015320 Si / 1000 Ang^3
#
#
#
# Elastic Constant Matrix: (Units=GPa)
#
#
# Indices 1 2 3 4 5 6 
#
# 1 72.5765 28.4366 46.3999 0.0000 0.0000 0.0000
# 2 28.4366 106.2363 63.2492 0.0000 0.0000 0.0000
# 3 46.3999 63.2492 146.4467 0.0000 0.0000 0.0000
# 4 0.0000 0.0000 0.0000 51.2042 0.0000 0.0000
# 5 0.0000 0.0000 0.0000 0.0000 14.1261 0.0000
# 6 0.0000 0.0000 0.0000 0.0000 0.0000 25.0670
#
#
#
# Elastic Compliance Matrix: (Units=1/GPa)
#
#
# Indices 1 2 3 4 5 6 
#
# 1 0.017549 -0.001867 -0.004754 0.000000 0.000000 0.000000
# 2 -0.001867 0.012870 -0.004967 0.000000 0.000000 0.000000
# 3 -0.004754 -0.004967 0.010480 0.000000 0.000000 0.000000
# 4 0.000000 0.000000 0.000000 0.019530 0.000000 0.000000
# 5 0.000000 0.000000 0.000000 0.000000 0.070791 0.000000
# 6 0.000000 0.000000 0.000000 0.000000 0.000000 0.039893
#
#
# Mechanical properties :
#
#
# Convention : Reuss Voigt Hill
#
# Bulk Modulus (GPa) = 56.42307 66.82566 61.62436
# Shear Modulus (GPa) = 24.97549 30.55772 27.76660
#
# Velocity S-wave (km/s) = 3.53628 3.91156 3.72864
# Velocity P-wave (km/s) = 6.70260 7.33895 7.02798
#
# Compressibility (1/GPa) = 0.01772325
#
# Stress axis : x y z
#
# Youngs Moduli (GPa) = 56.98183 77.70126 95.42215
#
# Poissons Ratio (x) = 0.14508 0.45363
# Poissons Ratio (y) = 0.10640 0.47394
# Poissons Ratio (z) = 0.27089 0.38592
#
# Static dielectric constant tensor:
#      x y z
#    x 1.720540 0.000000 0.000000 
#    y 0.000000 1.773190 0.000000 
#    z 0.000000 0.000000 1.761360 
# 
# From -- ./inp_files/30714.got.cif
#   From: 2010.05.17/outbox.cif.g08.bks.cpg/sg21_16_cif.got.tgz:30714.got - 2010.06.03 23:14:55.
