data_PCOD9323191
_publ_section_title
;
Structure prediction by ZEFSAII (Michael W. Deem and Ramdas Pophale) SiO2 
 PCOD9323191
Probable space group: C 2 2 2
;
_chemical_formula_sum "Si O2"
_cell_formula_units_Z 30
_cell_length_a 27.833583
_cell_length_b 5.198658
_cell_length_c 12.595850
_cell_angle_alpha 90.000000
_cell_angle_beta 90.000000
_cell_angle_gamma 90.000000
_cell_volume 1822.585221
_symmetry_space_group_name_H-M "C 2 2 2"
_symmetry_group_IT_number 21
_symmetry_cell_setting 'orthorhombic'
loop_
_space_group_symop_operation_xyz
x,y,z
-x,-y,z
x,-y,-z
-x,y,-z
1/2+x,1/2+y,z
1/2-x,1/2-y,z
1/2+x,1/2-y,-z
1/2-x,1/2+y,-z
loop_
_atom_site_type_symbol
_atom_site_label
_atom_site_fract_x
_atom_site_fract_y
_atom_site_fract_z
Si Si1 0.282471 0.001153 0.374978
Si Si2 0.000000 0.000000 0.000000
Si Si3 0.781264 0.500000 0.000000
Si Si4 0.854902 0.585908 0.190268
Si Si5 0.594422 0.422098 0.114439
O O1 0.250000 0.250000 0.354487
O O2 0.328457 0.030605 0.300592
O O3 0.294852 0.000000 0.500000
O O4 0.250000 0.750000 0.351580
O O5 0.961287 0.876597 0.919034
O O6 0.750000 0.250000 0.031777
O O7 0.813707 0.590876 0.099321
O O8 0.886161 0.340437 0.159112
O O9 0.888485 0.839088 0.186368
O O10 0.616827 0.500000 0.000000
#
# Coordination Sequence:
#
# PCOD9323191 Si02
#       5
#     8   2   4   8   8
#     4  10  21  37  54  73 102 142 185 218 246 290
#     4   8  20  36  52  78 106 138 164 200 260 332
#     4  12  20  27  42  65 100 131 156 189 246 302
#     4  12  20  34  49  76 102 135 166 217 250 299
#     4  10  20  34  52  73 107 127 167 205 253 319
#
# _framework density 16.460137
#
# number of rings (size 3 to 8) (size 9 to 14) (size 15 to 20)
#    0.800    0.533    2.667    4.800    0.000    2.133 
#    0.000    0.000    0.000    0.000    0.000    5.600 
#    0.000    0.000    0.000    0.000    0.000    0.000 
#
# Total GULP energy -83512.005470 kJ/mol
# GULP energy per Si atom -5567.467031 kJ/mol
# Density = 1.642267 g / cm^3
# Si number density = 16.460137 Si / 1000 Ang^3
#
#
#
# Elastic Constant Matrix: (Units=GPa)
#
#
# Indices 1 2 3 4 5 6 
#
# 1 98.1835 31.1898 34.6132 0.0000 0.0000 0.0000
# 2 31.1898 66.1924 -8.2538 0.0000 0.0000 0.0000
# 3 34.6132 -8.2538 39.4027 0.0000 0.0000 0.0000
# 4 0.0000 0.0000 0.0000 409.3501 0.0000 0.0000
# 5 0.0000 0.0000 0.0000 0.0000 32.1655 0.0000
# 6 0.0000 0.0000 0.0000 0.0000 0.0000 -25.9756
#
#
#
# Elastic Compliance Matrix: (Units=1/GPa)
#
#
# Indices 1 2 3 4 5 6 
#
# 1 0.022294 -0.013294 -0.022369 0.000000 0.000000 0.000000
# 2 -0.013294 0.023440 0.016588 0.000000 0.000000 0.000000
# 3 -0.022369 0.016588 0.048504 0.000000 0.000000 0.000000
# 4 0.000000 0.000000 0.000000 0.002443 0.000000 0.000000
# 5 0.000000 0.000000 0.000000 0.000000 0.031089 0.000000
# 6 0.000000 0.000000 0.000000 0.000000 0.000000 -0.038498
#
#
# Mechanical properties :
#
#
# Convention : Reuss Voigt Hill
#
# Bulk Modulus (GPa) = 17.82899 35.43077 26.62988
# Shear Modulus (GPa) = 34.21889 92.85662 63.53775
#
# Velocity S-wave (km/s) = 4.56444 7.51901 6.21971
# Velocity P-wave (km/s) = 6.21562 9.84645 8.23367
#
# Compressibility (1/GPa) = 0.05608843
#
# Stress axis : x y z
#
# Youngs Moduli (GPa) = 44.85505 42.66175 20.61697
#
# Poissons Ratio (x) = 0.56715 0.46118
# Poissons Ratio (y) = 0.59631 -0.34200
# Poissons Ratio (z) = 1.00336 -0.70769
#
# Static dielectric constant tensor:
#      x y z
#    x 0.822650 0.000000 0.000000 
#    y 0.000000 1.550160 0.000000 
#    z 0.000000 0.000000 1.582770 
# 
# From -- ./inp_files/27883.got.cif
#   From: 2010.05.17/outbox.cif.g08.bks.cpg/sg21_14_cif.got.tgz:27883.got - 2010.06.03 23:14:55.
