data_PCOD9323518
_publ_section_title
;
Structure prediction by ZEFSAII (Michael W. Deem and Ramdas Pophale) SiO2 
 PCOD9323518
Probable space group: C 2 2 2
;
_chemical_formula_sum "Si O2"
_cell_formula_units_Z 56
_cell_length_a 20.336141
_cell_length_b 15.076104
_cell_length_c 8.674732
_cell_angle_alpha 90.000000
_cell_angle_beta 90.000000
_cell_angle_gamma 90.000000
_cell_volume 2659.584147
_symmetry_space_group_name_H-M "C 2 2 2"
_symmetry_group_IT_number 21
_symmetry_cell_setting 'orthorhombic'
loop_
_space_group_symop_operation_xyz
x,y,z
-x,-y,z
x,-y,-z
-x,y,-z
1/2+x,1/2+y,z
1/2-x,1/2-y,z
1/2+x,1/2-y,-z
1/2-x,1/2+y,-z
loop_
_atom_site_type_symbol
_atom_site_label
_atom_site_fract_x
_atom_site_fract_y
_atom_site_fract_z
Si Si1 0.625679 0.909053 0.083139
Si Si2 0.264268 0.649758 0.006393
Si Si3 0.069266 0.896377 0.551187
Si Si4 0.888526 0.946769 0.139459
Si Si5 0.521500 0.900107 0.322430
Si Si6 0.845116 0.871739 0.717573
Si Si7 0.946001 0.741414 0.886140
O O1 0.596320 0.899024 0.255745
O O2 0.703729 0.905622 0.060180
O O3 0.598327 0.825067 0.988174
O O4 0.602355 0.000000 0.000000
O O5 0.250000 0.750000 0.961079
O O6 0.277084 0.648511 0.192540
O O7 0.330910 0.611556 0.933695
O O8 0.071678 0.892157 0.735144
O O9 0.133916 0.860642 0.461593
O O10 0.000000 0.854347 0.500000
O O11 0.065230 0.000000 0.500000
O O12 0.856275 0.025513 0.240309
O O13 0.922572 0.000000 0.000000
O O14 0.500000 0.889361 0.500000
O O15 0.483473 0.824118 0.229909
O O16 0.500000 0.000000 0.280355
O O17 0.900127 0.811614 0.801917
O O18 0.000000 0.783332 0.000000
#
# Coordination Sequence:
#
# PCOD9323518 Si02
#       7
#     8   8   8   8   8   8   8
#     4  11  20  38  66  87 120 172 217 265 335 400
#     4  11  22  40  62  91 124 168 229 275 321 398
#     4   9  19  38  62  89 128 173 213 267 344 399
#     4   9  20  39  64  90 128 169 217 271 323 397
#     4  10  21  39  61  92 130 160 213 282 339 407
#     4  10  20  38  58  90 126 162 210 277 326 397
#     4  10  21  35  59  93 124 170 220 270 339 395
#
# _framework density 21.055921999999999
#
# number of rings (size 3 to 8) (size 9 to 14) (size 15 to 20)
#    0.000    2.000    2.857    1.286    0.000    2.857 
#    2.571   12.857    6.286    0.000    0.000    0.000 
#    0.000    0.000    0.000    0.000    0.000    0.000 
#
# Total GULP energy -156012.367437 kJ/mol
# GULP energy per Si atom -5571.870266 kJ/mol
# Density = 2.100800 g / cm^3
# Si number density = 21.055922 Si / 1000 Ang^3
#
#
#
# Elastic Constant Matrix: (Units=GPa)
#
#
# Indices 1 2 3 4 5 6 
#
# 1 92.3521 10.2594 61.8675 0.0000 0.0000 0.0000
# 2 10.2594 79.9033 15.6767 0.0000 0.0000 0.0000
# 3 61.8675 15.6767 144.3212 0.0000 0.0000 0.0000
# 4 0.0000 0.0000 0.0000 23.2926 0.0000 0.0000
# 5 0.0000 0.0000 0.0000 0.0000 30.6567 0.0000
# 6 0.0000 0.0000 0.0000 0.0000 0.0000 24.2526
#
#
#
# Elastic Compliance Matrix: (Units=1/GPa)
#
#
# Indices 1 2 3 4 5 6 
#
# 1 0.015227 -0.000689 -0.006453 0.000000 0.000000 0.000000
# 2 -0.000689 0.012819 -0.001097 0.000000 0.000000 0.000000
# 3 -0.006453 -0.001097 0.009814 0.000000 0.000000 0.000000
# 4 0.000000 0.000000 0.000000 0.042932 0.000000 0.000000
# 5 0.000000 0.000000 0.000000 0.000000 0.032619 0.000000
# 6 0.000000 0.000000 0.000000 0.000000 0.000000 0.041233
#
#
# Mechanical properties :
#
#
# Convention : Reuss Voigt Hill
#
# Bulk Modulus (GPa) = 46.76683 54.68710 50.72696
# Shear Modulus (GPa) = 28.05046 30.89193 29.47119
#
# Velocity S-wave (km/s) = 3.65388 3.83448 3.74527
# Velocity P-wave (km/s) = 6.32930 6.75522 6.54573
#
# Compressibility (1/GPa) = 0.02138268
#
# Stress axis : x y z
#
# Youngs Moduli (GPa) = 65.67067 78.01014 101.89157
#
# Poissons Ratio (x) = 0.05376 0.65749
# Poissons Ratio (y) = 0.04526 0.11178
# Poissons Ratio (z) = 0.42376 0.08558
#
# Static dielectric constant tensor:
#      x y z
#    x 1.802340 0.000000 0.000000 
#    y 0.000000 1.771710 0.000000 
#    z 0.000000 0.000000 1.840410 
# 
# From -- ./inp_files/17728.got.cif
#   From: 2010.05.17/outbox.cif.g08.bks.cpg/sg21_9_cif.got.tgz:17728.got - 2010.06.03 23:14:55.
