data_PCOD9323936
_publ_section_title
;
Structure prediction by ZEFSAII (Michael W. Deem and Ramdas Pophale) SiO2 
 PCOD9323936
Probable space group: C 2 2 2
;
_chemical_formula_sum "Si O2"
_cell_formula_units_Z 40
_cell_length_a 25.191487
_cell_length_b 7.904340
_cell_length_c 8.274885
_cell_angle_alpha 90.000000
_cell_angle_beta 90.000000
_cell_angle_gamma 90.000000
_cell_volume 1647.712299
_symmetry_space_group_name_H-M "C 2 2 2"
_symmetry_group_IT_number 21
_symmetry_cell_setting 'orthorhombic'
loop_
_space_group_symop_operation_xyz
x,y,z
-x,-y,z
x,-y,-z
-x,y,-z
1/2+x,1/2+y,z
1/2-x,1/2-y,z
1/2+x,1/2-y,-z
1/2-x,1/2+y,-z
loop_
_atom_site_type_symbol
_atom_site_label
_atom_site_fract_x
_atom_site_fract_y
_atom_site_fract_z
Si Si1 0.126479 0.680101 0.825525
Si Si2 0.273705 0.056120 0.321753
Si Si3 0.338283 0.531143 0.307459
Si Si4 0.929691 0.829561 0.892646
Si Si5 0.482120 0.806760 0.670412
O O1 0.175339 0.555889 0.794002
O O2 0.080725 0.683175 0.690232
O O3 0.152184 0.864492 0.800423
O O4 0.093662 0.685192 0.990745
O O5 0.250000 0.250000 0.332690
O O6 0.291826 0.000000 0.500000
O O7 0.224039 0.935872 0.278113
O O8 0.343071 0.500000 0.500000
O O9 0.385001 0.651214 0.246524
O O10 0.985614 0.787412 0.810899
O O11 0.932953 0.000000 0.000000
O O12 0.500000 0.730813 0.500000
O O13 0.500000 0.000000 0.676917
#
# Coordination Sequence:
#
# PCOD9323936 Si02
#       5
#     8   8   8   8   8
#     4  10  21  37  63  90 132 168 207 270 332 388
#     4   9  19  37  66  94 128 170 219 274 316 384
#     4   9  18  37  66  94 125 166 222 272 310 383
#     4  10  22  41  68  96 134 171 218 274 333 393
#     4  11  25  42  65  94 130 173 222 272 328 401
#
# _framework density 24.276084000000001
#
# number of rings (size 3 to 8) (size 9 to 14) (size 15 to 20)
#    0.000    2.200    0.000    1.800    2.800    7.200 
#    0.000    5.000   35.200    0.000    0.000    0.000 
#    0.000    0.000    0.000    0.000    0.000    0.000 
#
# Total GULP energy -111742.867971 kJ/mol
# GULP energy per Si atom -5587.143399 kJ/mol
# Density = 2.422083 g / cm^3
# Si number density = 24.276084 Si / 1000 Ang^3
#
#
#
# Elastic Constant Matrix: (Units=GPa)
#
#
# Indices 1 2 3 4 5 6 
#
# 1 166.8422 16.5163 53.8215 0.0000 0.0000 0.0000
# 2 16.5163 60.5374 14.9754 0.0000 0.0000 0.0000
# 3 53.8215 14.9754 95.5609 0.0000 0.0000 0.0000
# 4 0.0000 0.0000 0.0000 23.1274 0.0000 0.0000
# 5 0.0000 0.0000 0.0000 0.0000 43.7201 0.0000
# 6 0.0000 0.0000 0.0000 0.0000 0.0000 6.0379
#
#
#
# Elastic Compliance Matrix: (Units=1/GPa)
#
#
# Indices 1 2 3 4 5 6 
#
# 1 0.007385 -0.001026 -0.003999 0.000000 0.000000 0.000000
# 2 -0.001026 0.017327 -0.002138 0.000000 0.000000 0.000000
# 3 -0.003999 -0.002138 0.013052 0.000000 0.000000 0.000000
# 4 0.000000 0.000000 0.000000 0.043239 0.000000 0.000000
# 5 0.000000 0.000000 0.000000 0.000000 0.022873 0.000000
# 6 0.000000 0.000000 0.000000 0.000000 0.000000 0.165621
#
#
# Mechanical properties :
#
#
# Convention : Reuss Voigt Hill
#
# Bulk Modulus (GPa) = 42.66213 54.84078 48.75145
# Shear Modulus (GPa) = 17.14477 30.41889 23.78183
#
# Velocity S-wave (km/s) = 2.66040 3.54367 3.13332
# Velocity P-wave (km/s) = 5.20085 6.27558 5.76332
#
# Compressibility (1/GPa) = 0.02343999
#
# Stress axis : x y z
#
# Youngs Moduli (GPa) = 135.40648 57.71215 76.61850
#
# Poissons Ratio (x) = 0.05920 0.30638
# Poissons Ratio (y) = 0.13889 0.16379
# Poissons Ratio (z) = 0.54145 0.12337
#
# Static dielectric constant tensor:
#      x y z
#    x 1.864960 0.000000 0.000000 
#    y 0.000000 2.079290 0.000000 
#    z 0.000000 0.000000 1.967000 
# 
# From -- ./inp_files/10920.got.cif
#   From: 2010.05.17/outbox.cif.g08.bks.cpg/sg21_6_cif.got.tgz:10920.got - 2010.06.03 23:14:55.
