data_PCOD9323516
_publ_section_title
;
Structure prediction by ZEFSAII (Michael W. Deem and Ramdas Pophale) SiO2 
 PCOD9323516
Probable space group: C 2 2 2
;
_chemical_formula_sum "Si O2"
_cell_formula_units_Z 54
_cell_length_a 15.242717
_cell_length_b 13.362197
_cell_length_c 12.607991
_cell_angle_alpha 90.000000
_cell_angle_beta 90.000000
_cell_angle_gamma 90.000000
_cell_volume 2567.947537
_symmetry_space_group_name_H-M "C 2 2 2"
_symmetry_group_IT_number 21
_symmetry_cell_setting 'orthorhombic'
loop_
_space_group_symop_operation_xyz
x,y,z
-x,-y,z
x,-y,-z
-x,y,-z
1/2+x,1/2+y,z
1/2-x,1/2-y,z
1/2+x,1/2-y,-z
1/2-x,1/2+y,-z
loop_
_atom_site_type_symbol
_atom_site_label
_atom_site_fract_x
_atom_site_fract_y
_atom_site_fract_z
Si Si1 0.924063 0.294251 0.582750
Si Si2 0.371947 0.396797 0.333959
Si Si3 0.906977 0.546691 0.244009
Si Si4 0.500000 0.500000 0.500000
Si Si5 0.750000 0.750000 0.900762
Si Si6 0.769051 0.613081 0.509289
Si Si7 0.774005 0.073275 0.258675
Si Si8 0.896789 0.619685 0.024947
O O1 0.912697 0.212660 0.676312
O O2 0.927870 0.397769 0.646332
O O3 0.842727 0.304719 0.501940
O O4 0.000000 0.272797 0.500000
O O5 0.436985 0.442837 0.420365
O O6 0.284301 0.377944 0.400867
O O7 0.342089 0.479729 0.249119
O O8 0.826407 0.468382 0.251281
O O9 0.881376 0.623319 0.150999
O O10 0.000000 0.500000 0.209398
O O11 0.787413 0.161815 0.175343
O O12 0.827678 0.693399 0.966512
O O13 0.805579 0.500000 0.500000
O O14 0.717833 0.613253 0.620277
O O15 0.881128 0.500000 0.000000
O O16 0.000000 0.641402 0.000000
#
# Coordination Sequence:
#
# PCOD9323516 Si02
#       8
#     8   8   8   2   4   8   8   8
#     4  12  25  36  64 103 139 185 234 279 349 425
#     4  11  23  42  59  87 140 189 228 278 342 419
#     4  12  23  43  72 103 139 181 233 307 372 420
#     4  12  20  44  56  72 132 202 224 272 332 408
#     4  12  26  44  82 110 130 192 250 302 380 450
#     4  10  20  38  58  89 141 176 216 285 334 398
#     4  11  23  40  68 100 137 183 235 291 360 427
#     4  11  23  50  75 104 142 178 239 317 375 430
#
# _framework density 21.028466000000002
#
# number of rings (size 3 to 8) (size 9 to 14) (size 15 to 20)
#    0.000    0.741    8.889    1.333    2.074    1.185 
#    5.333    0.000    0.000    0.444    0.000    0.000 
#    0.000    0.000    0.000    0.000    0.000    0.000 
#
# Total GULP energy -150401.221662 kJ/mol
# GULP energy per Si atom -5570.415617 kJ/mol
# Density = 2.098060 g / cm^3
# Si number density = 21.028466 Si / 1000 Ang^3
#
#
#
# Elastic Constant Matrix: (Units=GPa)
#
#
# Indices 1 2 3 4 5 6 
#
# 1 77.3114 41.7928 5.9824 0.0000 0.0000 0.0000
# 2 41.7928 120.3353 37.1656 0.0000 0.0000 0.0000
# 3 5.9824 37.1656 84.4301 0.0000 0.0000 0.0000
# 4 0.0000 0.0000 0.0000 42.3031 0.0000 0.0000
# 5 0.0000 0.0000 0.0000 0.0000 19.2733 0.0000
# 6 0.0000 0.0000 0.0000 0.0000 0.0000 48.0167
#
#
#
# Elastic Compliance Matrix: (Units=1/GPa)
#
#
# Indices 1 2 3 4 5 6 
#
# 1 0.016093 -0.006061 0.001528 0.000000 0.000000 0.000000
# 2 -0.006061 0.011900 -0.004809 0.000000 0.000000 0.000000
# 3 0.001528 -0.004809 0.013853 0.000000 0.000000 0.000000
# 4 0.000000 0.000000 0.000000 0.023639 0.000000 0.000000
# 5 0.000000 0.000000 0.000000 0.000000 0.051885 0.000000
# 6 0.000000 0.000000 0.000000 0.000000 0.000000 0.020826
#
#
# Mechanical properties :
#
#
# Convention : Reuss Voigt Hill
#
# Bulk Modulus (GPa) = 43.17506 50.21762 46.69634
# Shear Modulus (GPa) = 30.37642 35.06101 32.71871
#
# Velocity S-wave (km/s) = 3.80483 4.08770 3.94880
# Velocity P-wave (km/s) = 6.31495 6.79792 6.56088
#
# Compressibility (1/GPa) = 0.02316152
#
# Stress axis : x y z
#
# Youngs Moduli (GPa) = 62.13920 84.03097 72.18774
#
# Poissons Ratio (x) = 0.50931 -0.11028
# Poissons Ratio (y) = 0.37662 0.34715
# Poissons Ratio (z) = -0.09493 0.40411
#
# Static dielectric constant tensor:
#      x y z
#    x 1.702130 0.000000 0.000000 
#    y 0.000000 1.857640 0.000000 
#    z 0.000000 0.000000 1.754120 
# 
# From -- ./inp_files/32412.got.cif
#   From: 2010.05.17/outbox.cif.g08.bks.cpg/sg21_17_cif.got.tgz:32412.got - 2010.06.03 23:14:55.
