data_PCOD9323129
_publ_section_title
;
Structure prediction by ZEFSAII (Michael W. Deem and Ramdas Pophale) SiO2 
 PCOD9323129
Probable space group: C 2 2 2
;
_chemical_formula_sum "Si O2"
_cell_formula_units_Z 28
_cell_length_a 26.615515
_cell_length_b 4.891666
_cell_length_c 12.712658
_cell_angle_alpha 90.000000
_cell_angle_beta 90.000000
_cell_angle_gamma 90.000000
_cell_volume 1655.114463
_symmetry_space_group_name_H-M "C 2 2 2"
_symmetry_group_IT_number 21
_symmetry_cell_setting 'orthorhombic'
loop_
_space_group_symop_operation_xyz
x,y,z
-x,-y,z
x,-y,-z
-x,y,-z
1/2+x,1/2+y,z
1/2-x,1/2-y,z
1/2+x,1/2-y,-z
1/2-x,1/2+y,-z
loop_
_atom_site_type_symbol
_atom_site_label
_atom_site_fract_x
_atom_site_fract_y
_atom_site_fract_z
Si Si1 0.358440 0.628860 0.882366
Si Si2 0.500000 0.000000 0.000000
Si Si3 0.750000 0.750000 0.076862
Si Si4 0.000000 0.500000 0.350466
Si Si5 0.076139 0.346860 0.830086
Si Si6 0.000000 0.000000 0.500000
O O1 0.299546 0.667686 0.859616
O O2 0.389336 0.414714 0.814062
O O3 0.387631 0.911172 0.869610
O O4 0.360196 0.500000 0.000000
O O5 0.534792 0.819742 0.923094
O O6 0.764738 0.500000 0.000000
O O7 0.045447 0.586775 0.274497
O O8 0.981107 0.764542 0.417227
#
# Coordination Sequence:
#
# PCOD9323129 Si02
#       6
#     8   2   4   4   8   2
#     4  11  19  32  47  71 106 149 180 217 245 296
#     4  10  20  32  44  72 112 144 164 208 248 302
#     4  10  20  32  48  66  98 152 200 216 248 284
#     4  10  22  36  56  78 100 138 172 224 262 328
#     4  11  21  32  50  77 107 139 181 209 256 308
#     4  10  20  42  56  68 104 134 176 222 280 296
#
# _framework density 16.917261
#
# number of rings (size 3 to 8) (size 9 to 14) (size 15 to 20)
#    0.000    1.429    2.857    5.143    0.000    4.571 
#    0.000    0.000    0.000    0.000    0.000    0.000 
#    0.000   64.000    0.000    0.000    0.000    0.000 
#
# Total GULP energy -77971.331833 kJ/mol
# GULP energy per Si atom -5569.380845 kJ/mol
# Density = 1.687876 g / cm^3
# Si number density = 16.917261 Si / 1000 Ang^3
#
#
#
# Elastic Constant Matrix: (Units=GPa)
#
#
# Indices 1 2 3 4 5 6 
#
# 1 133.6372 37.1194 30.8073 0.0000 0.0000 0.0000
# 2 37.1194 94.9702 11.9444 0.0000 0.0000 0.0000
# 3 30.8073 11.9444 62.2786 0.0000 0.0000 0.0000
# 4 0.0000 0.0000 0.0000 25.0993 0.0000 0.0000
# 5 0.0000 0.0000 0.0000 0.0000 -8.2420 0.0000
# 6 0.0000 0.0000 0.0000 0.0000 0.0000 35.6790
#
#
#
# Elastic Compliance Matrix: (Units=1/GPa)
#
#
# Indices 1 2 3 4 5 6 
#
# 1 0.009269 -0.003121 -0.003986 0.000000 0.000000 0.000000
# 2 -0.003121 0.011841 -0.000727 0.000000 0.000000 0.000000
# 3 -0.003986 -0.000727 0.018168 0.000000 0.000000 0.000000
# 4 0.000000 0.000000 0.000000 0.039842 0.000000 0.000000
# 5 0.000000 0.000000 0.000000 0.000000 -0.121329 0.000000
# 6 0.000000 0.000000 0.000000 0.000000 0.000000 0.028028
#
#
# Mechanical properties :
#
#
# Convention : Reuss Voigt Hill
#
# Bulk Modulus (GPa) = 42.35720 50.06981 46.21351
# Shear Modulus (GPa) = 534.32461 24.57491 279.44976
#
# Velocity S-wave (km/s) = 17.79133 3.81550 12.86642
# Velocity P-wave (km/s) = 21.14555 7.00513 15.75129
#
# Compressibility (1/GPa) = 0.02360874
#
# Stress axis : x y z
#
# Youngs Moduli (GPa) = 107.88722 84.45188 55.04112
#
# Poissons Ratio (x) = 0.26361 0.21942
# Poissons Ratio (y) = 0.33676 0.04001
# Poissons Ratio (z) = 0.43008 0.06139
#
# Static dielectric constant tensor:
#      x y z
#    x 1.590260 0.000000 0.000000 
#    y 0.000000 1.619300 0.000000 
#    z 0.000000 0.000000 1.565960 
# 
# From -- ./inp_files/27072.got.cif
#   From: 2010.05.17/outbox.cif.g08.bks.cpg/sg21_14_cif.got.tgz:27072.got - 2010.06.03 23:14:55.
