data_PCOD9323957
_publ_section_title
;
Structure prediction by ZEFSAII (Michael W. Deem and Ramdas Pophale) SiO2 
 PCOD9323957
Probable space group: C 2 2 2
;
_chemical_formula_sum "Si O2"
_cell_formula_units_Z 40
_cell_length_a 14.725231
_cell_length_b 7.261041
_cell_length_c 15.730552
_cell_angle_alpha 90.000000
_cell_angle_beta 90.000000
_cell_angle_gamma 90.000000
_cell_volume 1681.918580
_symmetry_space_group_name_H-M "C 2 2 2"
_symmetry_group_IT_number 21
_symmetry_cell_setting 'orthorhombic'
loop_
_space_group_symop_operation_xyz
x,y,z
-x,-y,z
x,-y,-z
-x,y,-z
1/2+x,1/2+y,z
1/2-x,1/2-y,z
1/2+x,1/2-y,-z
1/2-x,1/2+y,-z
loop_
_atom_site_type_symbol
_atom_site_label
_atom_site_fract_x
_atom_site_fract_y
_atom_site_fract_z
Si Si1 0.849294 0.963053 0.595846
Si Si2 0.853142 0.286764 0.010603
Si Si3 0.855604 0.474029 0.366498
Si Si4 0.925531 0.642529 0.813297
Si Si5 0.500000 0.500000 0.000000
Si Si6 0.500000 0.500000 0.723908
Si Si7 0.000000 0.500000 0.500000
O O1 0.858266 0.742965 0.608375
O O2 0.747020 0.028899 0.613217
O O3 0.876143 0.000000 0.500000
O O4 0.915893 0.049410 0.663976
O O5 0.750000 0.250000 0.982712
O O6 0.862519 0.273440 0.113011
O O7 0.874210 0.500000 0.000000
O O8 0.925192 0.149195 0.966405
O O9 0.878592 0.464598 0.266190
O O10 0.927292 0.574361 0.429092
O O11 0.000000 0.500000 0.847572
O O12 0.974426 0.822021 0.776741
#
# Coordination Sequence:
#
# PCOD9323957 Si02
#       7
#     8   8   8   8   2   4   2
#     4  10  21  38  57  89 129 181 235 292 344 423
#     4  12  27  50  82 116 154 201 250 312 389 467
#     4  10  23  37  62  89 131 181 231 290 355 413
#     4  11  24  45  69 101 143 184 235 299 360 438
#     4  12  24  52  84 114 156 194 254 310 380 472
#     4  10  24  40  68  96 132 188 236 289 369 415
#     4  12  20  40  58  90 130 180 234 284 348 416
#
# _framework density 23.782364999999999
#
# number of rings (size 3 to 8) (size 9 to 14) (size 15 to 20)
#    0.000    1.200    3.000    2.400   11.200    0.000 
#    0.000    0.000    0.000    0.000    0.000    0.000 
#    0.000    0.000    0.000    0.000    0.000    0.000 
#
# Total GULP energy -111674.268207 kJ/mol
# GULP energy per Si atom -5583.713410 kJ/mol
# Density = 2.372823 g / cm^3
# Si number density = 23.782365 Si / 1000 Ang^3
#
#
#
# Elastic Constant Matrix: (Units=GPa)
#
#
# Indices 1 2 3 4 5 6 
#
# 1 155.1333 28.3425 29.6137 0.0000 0.0000 0.0000
# 2 28.3425 116.7188 8.5542 0.0000 0.0000 0.0000
# 3 29.6137 8.5542 94.0470 0.0000 0.0000 0.0000
# 4 0.0000 0.0000 0.0000 32.3165 0.0000 0.0000
# 5 0.0000 0.0000 0.0000 0.0000 25.4261 0.0000
# 6 0.0000 0.0000 0.0000 0.0000 0.0000 24.9057
#
#
#
# Elastic Compliance Matrix: (Units=1/GPa)
#
#
# Indices 1 2 3 4 5 6 
#
# 1 0.007136 -0.001579 -0.002103 0.000000 0.000000 0.000000
# 2 -0.001579 0.008974 -0.000319 0.000000 0.000000 0.000000
# 3 -0.002103 -0.000319 0.011324 0.000000 0.000000 0.000000
# 4 0.000000 0.000000 0.000000 0.030944 0.000000 0.000000
# 5 0.000000 0.000000 0.000000 0.000000 0.039330 0.000000
# 6 0.000000 0.000000 0.000000 0.000000 0.000000 0.040151
#
#
# Mechanical properties :
#
#
# Convention : Reuss Voigt Hill
#
# Bulk Modulus (GPa) = 51.46106 55.43556 53.44831
# Shear Modulus (GPa) = 32.82141 36.48891 34.65516
#
# Velocity S-wave (km/s) = 3.71896 3.92124 3.82144
# Velocity P-wave (km/s) = 6.33453 6.62281 6.48027
#
# Compressibility (1/GPa) = 0.01943217
#
# Stress axis : x y z
#
# Youngs Moduli (GPa) = 140.13428 111.42887 88.30535
#
# Poissons Ratio (x) = 0.17591 0.18574
# Poissons Ratio (y) = 0.22122 0.02819
# Poissons Ratio (z) = 0.29476 0.03557
#
# Static dielectric constant tensor:
#      x y z
#    x 2.030410 0.000000 0.000000 
#    y 0.000000 1.952590 0.000000 
#    z 0.000000 0.000000 1.968870 
# 
# From -- ./inp_files/32162.got.cif
#   From: 2010.05.17/outbox.cif.g08.bks.cpg/sg21_17_cif.got.tgz:32162.got - 2010.06.03 23:14:55.
