data_PCOD9323716
_publ_section_title
;
Structure prediction by ZEFSAII (Michael W. Deem and Ramdas Pophale) SiO2 
 PCOD9323716
Probable space group: C 2 2 2
;
_chemical_formula_sum "Si O2"
_cell_formula_units_Z 54
_cell_length_a 15.982645
_cell_length_b 14.560191
_cell_length_c 10.861599
_cell_angle_alpha 90.000000
_cell_angle_beta 90.000000
_cell_angle_gamma 90.000000
_cell_volume 2527.606656
_symmetry_space_group_name_H-M "C 2 2 2"
_symmetry_group_IT_number 21
_symmetry_cell_setting 'orthorhombic'
loop_
_space_group_symop_operation_xyz
x,y,z
-x,-y,z
x,-y,-z
-x,y,-z
1/2+x,1/2+y,z
1/2-x,1/2-y,z
1/2+x,1/2-y,-z
1/2-x,1/2+y,-z
loop_
_atom_site_type_symbol
_atom_site_label
_atom_site_fract_x
_atom_site_fract_y
_atom_site_fract_z
Si Si1 0.786580 0.056980 0.370446
Si Si2 0.400679 0.847158 0.848125
Si Si3 0.975753 0.118468 0.362772
Si Si4 0.060748 0.866305 0.888148
Si Si5 0.934340 0.304526 0.584342
Si Si6 0.257223 0.555147 0.878930
Si Si7 0.750000 0.250000 0.476230
Si Si8 0.500000 0.000000 0.000000
O O1 0.882307 0.085201 0.344201
O O2 0.746210 0.156234 0.398279
O O3 0.781097 0.000000 0.500000
O O4 0.754674 0.001960 0.250137
O O5 0.431185 0.744934 0.881738
O O6 0.412465 0.861458 0.703489
O O7 0.302555 0.857509 0.869797
O O8 0.445973 0.929557 0.918477
O O9 0.000000 0.088150 0.500000
O O10 0.028661 0.095690 0.242685
O O11 0.998110 0.226296 0.373836
O O12 0.150265 0.910478 0.904923
O O13 0.000000 0.889142 0.000000
O O14 0.843461 0.256730 0.544697
O O15 0.000000 0.360490 0.500000
O O16 0.230006 0.500000 0.000000
#
# Coordination Sequence:
#
# PCOD9323716 Si02
#       8
#     8   8   8   8   8   8   4   2
#     4  12  26  44  74 109 148 194 236 308 374 438
#     4  11  25  46  75  99 145 190 249 302 364 436
#     4  10  20  41  64 107 138 180 231 287 363 437
#     4  11  24  44  74 102 142 197 239 299 379 434
#     4  10  22  43  72 107 138 189 235 299 371 440
#     4  12  27  47  66 111 147 188 245 305 363 445
#     4  12  24  48  72 110 156 182 250 298 372 464
#     4  12  24  52  70 104 132 192 260 298 348 460
#
# _framework density 21.364083999999998
#
# number of rings (size 3 to 8) (size 9 to 14) (size 15 to 20)
#    0.000    0.889    4.444    3.111    6.222    4.741 
#    5.333    1.852    0.000    0.000    0.000    0.000 
#    0.000    0.000    0.000    0.000    0.000    0.000 
#
# Total GULP energy -150409.491822 kJ/mol
# GULP energy per Si atom -5570.721919 kJ/mol
# Density = 2.131546 g / cm^3
# Si number density = 21.364084 Si / 1000 Ang^3
#
#
#
# Elastic Constant Matrix: (Units=GPa)
#
#
# Indices 1 2 3 4 5 6 
#
# 1 89.6024 29.6317 61.9454 0.0000 0.0000 0.0000
# 2 29.6317 120.3469 34.1248 0.0000 0.0000 0.0000
# 3 61.9454 34.1248 127.4132 0.0000 0.0000 0.0000
# 4 0.0000 0.0000 0.0000 54.4622 0.0000 0.0000
# 5 0.0000 0.0000 0.0000 0.0000 18.7049 0.0000
# 6 0.0000 0.0000 0.0000 0.0000 0.0000 36.3880
#
#
#
# Elastic Compliance Matrix: (Units=1/GPa)
#
#
# Indices 1 2 3 4 5 6 
#
# 1 0.017254 -0.002023 -0.007847 0.000000 0.000000 0.000000
# 2 -0.002023 0.009229 -0.001488 0.000000 0.000000 0.000000
# 3 -0.007847 -0.001488 0.012062 0.000000 0.000000 0.000000
# 4 0.000000 0.000000 0.000000 0.018361 0.000000 0.000000
# 5 0.000000 0.000000 0.000000 0.000000 0.053462 0.000000
# 6 0.000000 0.000000 0.000000 0.000000 0.000000 0.027482
#
#
# Mechanical properties :
#
#
# Convention : Reuss Voigt Hill
#
# Bulk Modulus (GPa) = 63.17458 65.41847 64.29652
# Shear Modulus (GPa) = 30.14892 36.02174 33.08533
#
# Velocity S-wave (km/s) = 3.76066 4.11066 3.93955
# Velocity P-wave (km/s) = 6.96358 7.29501 7.13122
#
# Compressibility (1/GPa) = 0.01582915
#
# Stress axis : x y z
#
# Youngs Moduli (GPa) = 57.95667 108.34842 82.90531
#
# Poissons Ratio (x) = 0.21923 0.65053
# Poissons Ratio (y) = 0.11727 0.12338
# Poissons Ratio (z) = 0.45477 0.16124
#
# Static dielectric constant tensor:
#      x y z
#    x 1.839200 0.000000 0.000000 
#    y 0.000000 1.767870 0.000000 
#    z 0.000000 0.000000 1.861530 
# 
# From -- ./inp_files/25311.got.cif
#   From: 2010.05.17/outbox.cif.g08.bks.cpg/sg21_13_cif.got.tgz:25311.got - 2010.06.03 23:14:55.
