data_PCOD9323453
_publ_section_title
;
Structure prediction by ZEFSAII (Michael W. Deem and Ramdas Pophale) SiO2 
 PCOD9323453
Probable space group: C 2 2 2
;
_chemical_formula_sum "Si O2"
_cell_formula_units_Z 48
_cell_length_a 13.933833
_cell_length_b 5.311701
_cell_length_c 27.698510
_cell_angle_alpha 90.000000
_cell_angle_beta 90.000000
_cell_angle_gamma 90.000000
_cell_volume 2050.031946
_symmetry_space_group_name_H-M "C 2 2 2"
_symmetry_group_IT_number 21
_symmetry_cell_setting 'orthorhombic'
loop_
_space_group_symop_operation_xyz
x,y,z
-x,-y,z
x,-y,-z
-x,y,-z
1/2+x,1/2+y,z
1/2-x,1/2-y,z
1/2+x,1/2-y,-z
1/2-x,1/2+y,-z
loop_
_atom_site_type_symbol
_atom_site_label
_atom_site_fract_x
_atom_site_fract_y
_atom_site_fract_z
Si Si1 0.644477 0.117878 0.396478
Si Si2 0.188412 0.500000 0.000000
Si Si3 0.113523 0.497181 0.893926
Si Si4 0.500000 0.000000 0.324191
Si Si5 0.250000 0.250000 0.338189
Si Si6 0.607040 0.384208 0.731748
Si Si7 0.616392 0.504487 0.159017
Si Si8 0.184930 0.500000 0.500000
O O1 0.750000 0.250000 0.393437
O O2 0.555971 0.189786 0.361432
O O3 0.668495 0.846913 0.373924
O O4 0.625276 0.084373 0.452977
O O5 0.250000 0.750000 0.992238
O O6 0.132216 0.456918 0.950327
O O7 0.147496 0.768276 0.875496
O O8 0.000000 0.500000 0.886979
O O9 0.148381 0.263911 0.861597
O O10 0.419420 0.103164 0.286848
O O11 0.304681 0.447665 0.303498
O O12 0.500000 0.500000 0.727064
O O13 0.641136 0.430089 0.785955
O O14 0.500000 0.500000 0.158507
O O15 0.250000 0.250000 0.488242
#
# Coordination Sequence:
#
# PCOD9323453 Si02
#       8
#     8   4   8   4   4   8   8   4
#     4  10  20  37  59  86 123 161 221 265 335 392
#     4  12  25  42  65  94 132 164 202 260 327 366
#     4  10  21  42  66  92 118 167 210 255 299 383
#     4  10  22  35  60  90 122 169 210 278 324 398
#     4  10  20  38  56  88 116 162 218 258 320 402
#     4  10  21  36  60  85 124 165 211 260 329 380
#     4   9  20  36  64  89 123 155 211 255 313 367
#     4  10  20  37  66  87 124 174 210 272 339 389
#
# _framework density 23.414266999999999
#
# number of rings (size 3 to 8) (size 9 to 14) (size 15 to 20)
#    0.000    2.000    0.833    2.250    5.833    0.333 
#    4.500    3.333    0.000    1.000    0.000    0.000 
#    0.000    0.000    0.000    0.000    0.000    0.000 
#
# Total GULP energy -133724.374205 kJ/mol
# GULP energy per Si atom -5571.848925 kJ/mol
# Density = 2.336098 g / cm^3
# Si number density = 23.414267 Si / 1000 Ang^3
#
#
#
# Elastic Constant Matrix: (Units=GPa)
#
#
# Indices 1 2 3 4 5 6 
#
# 1 98.0768 5.1774 19.9698 0.0000 0.0000 0.0000
# 2 5.1774 79.7823 33.5900 0.0000 0.0000 0.0000
# 3 19.9698 33.5900 187.0424 0.0000 0.0000 0.0000
# 4 0.0000 0.0000 0.0000 27.8311 0.0000 0.0000
# 5 0.0000 0.0000 0.0000 0.0000 65.0510 0.0000
# 6 0.0000 0.0000 0.0000 0.0000 0.0000 10.4649
#
#
#
# Elastic Compliance Matrix: (Units=1/GPa)
#
#
# Indices 1 2 3 4 5 6 
#
# 1 0.010426 -0.000225 -0.001073 0.000000 0.000000 0.000000
# 2 -0.000225 0.013564 -0.002412 0.000000 0.000000 0.000000
# 3 -0.001073 -0.002412 0.005894 0.000000 0.000000 0.000000
# 4 0.000000 0.000000 0.000000 0.035931 0.000000 0.000000
# 5 0.000000 0.000000 0.000000 0.000000 0.015373 0.000000
# 6 0.000000 0.000000 0.000000 0.000000 0.000000 0.095558
#
#
# Mechanical properties :
#
#
# Convention : Reuss Voigt Hill
#
# Bulk Modulus (GPa) = 44.51301 53.59733 49.05517
# Shear Modulus (GPa) = 26.08872 41.08036 33.58454
#
# Velocity S-wave (km/s) = 3.34162 4.19322 3.79141
# Velocity P-wave (km/s) = 5.82588 6.81063 6.33741
#
# Compressibility (1/GPa) = 0.02246534
#
# Stress axis : x y z
#
# Youngs Moduli (GPa) = 95.91039 73.72370 169.66236
#
# Poissons Ratio (x) = 0.01658 0.18201
# Poissons Ratio (y) = 0.02158 0.40921
# Poissons Ratio (z) = 0.10289 0.17781
#
# Static dielectric constant tensor:
#      x y z
#    x 2.048850 0.000000 0.000000 
#    y 0.000000 1.974570 0.000000 
#    z 0.000000 0.000000 1.861250 
# 
# From -- ./inp_files/39352.got.cif
#   From: 2010.05.17/outbox.cif.g08.bks.cpg/sg21_20_cif.got.tgz:39352.got - 2010.06.03 23:14:55.
