data_PCOD9323178
_publ_section_title
;
Structure prediction by ZEFSAII (Michael W. Deem and Ramdas Pophale) SiO2 
 PCOD9323178
Probable space group: C 2 2 2
;
_chemical_formula_sum "Si O2"
_cell_formula_units_Z 58
_cell_length_a 19.438098
_cell_length_b 5.705982
_cell_length_c 26.810127
_cell_angle_alpha 90.000000
_cell_angle_beta 90.000000
_cell_angle_gamma 90.000000
_cell_volume 2973.603340
_symmetry_space_group_name_H-M "C 2 2 2"
_symmetry_group_IT_number 21
_symmetry_cell_setting 'orthorhombic'
loop_
_space_group_symop_operation_xyz
x,y,z
-x,-y,z
x,-y,-z
-x,y,-z
1/2+x,1/2+y,z
1/2-x,1/2-y,z
1/2+x,1/2-y,-z
1/2-x,1/2+y,-z
loop_
_atom_site_type_symbol
_atom_site_label
_atom_site_fract_x
_atom_site_fract_y
_atom_site_fract_z
Si Si1 0.429080 0.361534 0.685267
Si Si2 0.075426 0.440384 0.784160
Si Si3 0.000000 0.500000 0.500000
Si Si4 0.325568 0.335547 0.260051
Si Si5 0.932301 0.837394 0.577172
Si Si6 0.219216 0.000631 0.440594
Si Si7 0.176055 0.867131 0.158871
Si Si8 0.292247 0.501700 0.945186
O O1 0.500000 0.500000 0.681047
O O2 0.436225 0.223620 0.736420
O O3 0.363018 0.524825 0.695661
O O4 0.422568 0.229638 0.632687
O O5 0.121829 0.640112 0.759361
O O6 0.118098 0.319989 0.827946
O O7 0.000000 0.500000 0.802894
O O8 0.050293 0.350352 0.535206
O O9 0.250000 0.250000 0.274807
O O10 0.317327 0.484520 0.209413
O O11 0.863105 0.982455 0.566501
O O12 0.000000 0.000000 0.577053
O O13 0.250000 0.250000 0.421251
O O14 0.233831 0.000000 0.500000
O O15 0.250000 0.750000 0.420964
O O16 0.250000 0.750000 0.154226
O O17 0.164397 0.994041 0.106101
O O18 0.250000 0.250000 0.946006
O O19 0.250000 0.750000 0.942111
O O20 0.326921 0.500000 0.000000
#
# Coordination Sequence:
#
# PCOD9323178 Si02
#       8
#     8   8   2   8   8   8   8   8
#     4  10  23  41  61  89 123 162 204 256 324 390
#     4  11  22  38  60  86 123 170 208 255 321 392
#     4  12  26  40  76  98 128 156 232 272 334 406
#     4  11  21  37  61  88 123 164 206 267 314 385
#     4  11  26  44  67  97 123 165 213 267 326 394
#     4  10  23  43  68  94 128 163 203 255 313 374
#     4  10  20  33  57  91 125 162 216 270 322 376
#     4   9  18  32  54  88 131 168 214 277 340 387
#
# _framework density 19.504957000000001
#
# number of rings (size 3 to 8) (size 9 to 14) (size 15 to 20)
#    0.000    1.655    2.759    1.448    7.724    0.552 
#    2.483    0.000    0.000    0.000    0.000    2.897 
#    0.000    0.000    0.000    0.000    0.000    0.000 
#
# Total GULP energy -161535.813641 kJ/mol
# GULP energy per Si atom -5570.200470 kJ/mol
# Density = 1.946056 g / cm^3
# Si number density = 19.504957 Si / 1000 Ang^3
#
#
#
# Elastic Constant Matrix: (Units=GPa)
#
#
# Indices 1 2 3 4 5 6 
#
# 1 143.1043 48.5503 32.1883 0.0000 0.0000 0.0000
# 2 48.5503 72.9133 28.9165 0.0000 0.0000 0.0000
# 3 32.1883 28.9165 132.6438 0.0000 0.0000 0.0000
# 4 0.0000 0.0000 0.0000 -22.9063 0.0000 0.0000
# 5 0.0000 0.0000 0.0000 0.0000 26.3851 0.0000
# 6 0.0000 0.0000 0.0000 0.0000 0.0000 27.9582
#
#
#
# Elastic Compliance Matrix: (Units=1/GPa)
#
#
# Indices 1 2 3 4 5 6 
#
# 1 0.009141 -0.005700 -0.000976 0.000000 0.000000 0.000000
# 2 -0.005700 0.018567 -0.002664 0.000000 0.000000 0.000000
# 3 -0.000976 -0.002664 0.008357 0.000000 0.000000 0.000000
# 4 0.000000 0.000000 0.000000 -0.043656 0.000000 0.000000
# 5 0.000000 0.000000 0.000000 0.000000 0.037900 0.000000
# 6 0.000000 0.000000 0.000000 0.000000 0.000000 0.035768
#
#
# Mechanical properties :
#
#
# Convention : Reuss Voigt Hill
#
# Bulk Modulus (GPa) = 57.52162 63.10792 60.31477
# Shear Modulus (GPa) = 55.21739 22.22115 38.71927
#
# Velocity S-wave (km/s) = 5.32643 3.37895 4.46028
# Velocity P-wave (km/s) = 8.20869 6.90276 7.58389
#
# Compressibility (1/GPa) = 0.01738477
#
# Stress axis : x y z
#
# Youngs Moduli (GPa) = 109.39588 53.85930 119.66577
#
# Poissons Ratio (x) = 0.30699 0.11676
# Poissons Ratio (y) = 0.62353 0.31884
# Poissons Ratio (z) = 0.10674 0.14351
#
# Static dielectric constant tensor:
#      x y z
#    x 1.629420 0.000000 0.000000 
#    y 0.000000 1.767630 0.000000 
#    z 0.000000 0.000000 1.753210 
# 
# From -- ./inp_files/39652.got.cif
#   From: 2010.05.17/outbox.cif.g08.bks.cpg/sg21_20_cif.got.tgz:39652.got - 2010.06.03 23:14:55.
