data_PCOD9323467
_publ_section_title
;
Structure prediction by ZEFSAII (Michael W. Deem and Ramdas Pophale) SiO2 
 PCOD9323467
Probable space group: C 2 2 2
;
_chemical_formula_sum "Si O2"
_cell_formula_units_Z 48
_cell_length_a 18.041726
_cell_length_b 8.841170
_cell_length_c 15.880934
_cell_angle_alpha 90.000000
_cell_angle_beta 90.000000
_cell_angle_gamma 90.000000
_cell_volume 2533.167253
_symmetry_space_group_name_H-M "C 2 2 2"
_symmetry_group_IT_number 21
_symmetry_cell_setting 'orthorhombic'
loop_
_space_group_symop_operation_xyz
x,y,z
-x,-y,z
x,-y,-z
-x,y,-z
1/2+x,1/2+y,z
1/2-x,1/2-y,z
1/2+x,1/2-y,-z
1/2-x,1/2+y,-z
loop_
_atom_site_type_symbol
_atom_site_label
_atom_site_fract_x
_atom_site_fract_y
_atom_site_fract_z
Si Si1 0.812313 0.470382 0.238303
Si Si2 0.455250 0.852109 0.737127
Si Si3 0.091200 0.177921 0.794505
Si Si4 0.576514 0.444068 0.641017
Si Si5 0.791784 0.908512 0.914531
Si Si6 0.759718 0.930015 0.413540
O O1 0.879958 0.586053 0.222727
O O2 0.848682 0.303061 0.236608
O O3 0.751930 0.482687 0.164577
O O4 0.778304 0.504479 0.329514
O O5 0.512777 0.764238 0.797492
O O6 0.433877 0.730932 0.666297
O O7 0.500000 0.000000 0.705070
O O8 0.125049 0.118868 0.881148
O O9 0.084097 0.044808 0.726335
O O10 0.500000 0.500000 0.600232
O O11 0.652841 0.465057 0.592972
O O12 0.750000 0.750000 0.928546
O O13 0.789001 0.000000 0.000000
O O14 0.750000 0.750000 0.413690
O O15 0.729465 0.000000 0.500000
#
# Coordination Sequence:
#
# PCOD9323467 Si02
#       6
#     8   8   8   8   8   8
#     4  10  20  39  62  87 119 164 204 257 316 370
#     4   9  18  35  61  87 115 160 210 249 308 380
#     4   9  19  35  62  88 120 162 200 252 315 370
#     4  10  20  37  61  85 117 160 203 247 315 370
#     4  10  21  35  59  95 124 159 207 257 315 373
#     4  12  26  39  61  91 124 161 211 260 317 379
#
# _framework density 18.948611
#
# number of rings (size 3 to 8) (size 9 to 14) (size 15 to 20)
#    0.000    2.000    3.333    0.000    2.333    2.333 
#    0.000    0.000    0.000   35.500    0.000    0.000 
#    0.000    0.000    0.000    0.000    0.000    0.000 
#
# Total GULP energy -133887.521910 kJ/mol
# GULP energy per Si atom -5578.646746 kJ/mol
# Density = 1.890548 g / cm^3
# Si number density = 18.948611 Si / 1000 Ang^3
#
#
#
# Elastic Constant Matrix: (Units=GPa)
#
#
# Indices 1 2 3 4 5 6 
#
# 1 103.4865 20.0101 48.2324 0.0000 0.0000 0.0000
# 2 20.0101 83.3987 50.0116 0.0000 0.0000 0.0000
# 3 48.2324 50.0116 138.3688 0.0000 0.0000 0.0000
# 4 0.0000 0.0000 0.0000 11.2977 0.0000 0.0000
# 5 0.0000 0.0000 0.0000 0.0000 -2.7677 0.0000
# 6 0.0000 0.0000 0.0000 0.0000 0.0000 17.1198
#
#
#
# Elastic Compliance Matrix: (Units=1/GPa)
#
#
# Indices 1 2 3 4 5 6 
#
# 1 0.011551 -0.000456 -0.003862 0.000000 0.000000 0.000000
# 2 -0.000456 0.015327 -0.005381 0.000000 0.000000 0.000000
# 3 -0.003862 -0.005381 0.010518 0.000000 0.000000 0.000000
# 4 0.000000 0.000000 0.000000 0.088514 0.000000 0.000000
# 5 0.000000 0.000000 0.000000 0.000000 -0.361315 0.000000
# 6 0.000000 0.000000 0.000000 0.000000 0.000000 0.058412
#
#
# Mechanical properties :
#
#
# Convention : Reuss Voigt Hill
#
# Bulk Modulus (GPa) = 55.55787 62.41802 58.98795
# Shear Modulus (GPa) = -32.98208 18.92996 -7.02606
#
# Velocity S-wave (km/s) = -4.17658 3.16415 -1.92769
# Velocity P-wave (km/s) = 2.47497 6.80891 5.12283
#
# Compressibility (1/GPa) = 0.01799925
#
# Stress axis : x y z
#
# Youngs Moduli (GPa) = 86.57200 65.24608 95.07524
#
# Poissons Ratio (x) = 0.02973 0.36716
# Poissons Ratio (y) = 0.03945 0.51158
# Poissons Ratio (z) = 0.33432 0.35107
#
# Static dielectric constant tensor:
#      x y z
#    x 1.699430 0.000000 0.000000 
#    y 0.000000 1.678040 0.000000 
#    z 0.000000 0.000000 1.619780 
# 
# From -- ./inp_files/32811.got.cif
#   From: 2010.05.17/outbox.cif.g08.bks.cpg/sg21_17_cif.got.tgz:32811.got - 2010.06.03 23:14:55.
