data_PCOD9323266
_publ_section_title
;
Structure prediction by ZEFSAII (Michael W. Deem and Ramdas Pophale) SiO2 
 PCOD9323266
Probable space group: C 2 2 2
;
_chemical_formula_sum "Si O2"
_cell_formula_units_Z 58
_cell_length_a 14.687987
_cell_length_b 27.125772
_cell_length_c 7.157542
_cell_angle_alpha 90.000000
_cell_angle_beta 90.000000
_cell_angle_gamma 90.000000
_cell_volume 2851.729260
_symmetry_space_group_name_H-M "C 2 2 2"
_symmetry_group_IT_number 21
_symmetry_cell_setting 'orthorhombic'
loop_
_space_group_symop_operation_xyz
x,y,z
-x,-y,z
x,-y,-z
-x,y,-z
1/2+x,1/2+y,z
1/2-x,1/2-y,z
1/2+x,1/2-y,-z
1/2-x,1/2+y,-z
loop_
_atom_site_type_symbol
_atom_site_label
_atom_site_fract_x
_atom_site_fract_y
_atom_site_fract_z
Si Si1 0.992838 0.649541 0.716419
Si Si2 0.013032 0.237402 0.226243
Si Si3 0.788642 0.944851 0.008026
Si Si4 0.500000 0.000000 0.500000
Si Si5 0.706656 0.115239 0.335836
Si Si6 0.318037 0.295504 0.739470
Si Si7 0.870626 0.428148 0.717603
Si Si8 0.899395 0.149491 0.911791
O O1 0.027753 0.705698 0.726511
O O2 0.067115 0.614490 0.810266
O O3 0.000000 0.635081 0.500000
O O4 0.886634 0.638123 0.756454
O O5 0.081088 0.190923 0.247078
O O6 0.917191 0.223263 0.320412
O O7 0.000000 0.239721 0.000000
O O8 0.699125 0.948990 0.134252
O O9 0.851954 0.903366 0.107928
O O10 0.756389 0.922082 0.808019
O O11 0.829407 0.000000 0.000000
O O12 0.561983 0.031673 0.635984
O O13 0.771991 0.161435 0.377276
O O14 0.681962 0.091277 0.533457
O O15 0.250000 0.250000 0.754394
O O16 0.336638 0.321290 0.939534
O O17 0.000000 0.139672 0.000000
#
# Coordination Sequence:
#
# PCOD9323266 Si02
#       8
#     8   8   8   2   8   8   8   8
#     4  10  20  35  51  82 120 156 192 230 291 361
#     4   9  18  32  56  84 113 155 191 237 298 353
#     4  11  24  39  63  87 108 155 210 245 298 368
#     4  12  20  44  58  72 132 160 180 268 306 346
#     4  10  20  39  55  82 123 151 189 248 286 354
#     4   9  15  28  57  80 111 153 190 228 289 351
#     4  11  24  39  56  86 118 158 199 243 305 355
#     4   8  19  37  56  86 119 149 194 253 306 347
#
# _framework density 20.338536999999999
#
# number of rings (size 3 to 8) (size 9 to 14) (size 15 to 20)
#    0.000    2.483    3.448    0.828    1.931    1.379 
#    2.483    0.000    0.000    0.000    0.000    5.793 
#    0.000    0.000    0.000    0.000    0.000    0.000 
#
# Total GULP energy -161537.711858 kJ/mol
# GULP energy per Si atom -5570.265926 kJ/mol
# Density = 2.029225 g / cm^3
# Si number density = 20.338537 Si / 1000 Ang^3
#
#
#
# Elastic Constant Matrix: (Units=GPa)
#
#
# Indices 1 2 3 4 5 6 
#
# 1 44.3673 30.8977 -2.2366 0.0000 0.0000 0.0000
# 2 30.8977 145.7307 -0.8631 0.0000 0.0000 0.0000
# 3 -2.2366 -0.8631 32.0301 0.0000 0.0000 0.0000
# 4 0.0000 0.0000 0.0000 21.7650 0.0000 0.0000
# 5 0.0000 0.0000 0.0000 0.0000 7.1286 0.0000
# 6 0.0000 0.0000 0.0000 0.0000 0.0000 78.6963
#
#
#
# Elastic Compliance Matrix: (Units=1/GPa)
#
#
# Indices 1 2 3 4 5 6 
#
# 1 0.026536 -0.005616 0.001702 0.000000 0.000000 0.000000
# 2 -0.005616 0.008052 -0.000175 0.000000 0.000000 0.000000
# 3 0.001702 -0.000175 0.031335 0.000000 0.000000 0.000000
# 4 0.000000 0.000000 0.000000 0.045945 0.000000 0.000000
# 5 0.000000 0.000000 0.000000 0.000000 0.140280 0.000000
# 6 0.000000 0.000000 0.000000 0.000000 0.000000 0.012707
#
#
# Mechanical properties :
#
#
# Convention : Reuss Voigt Hill
#
# Bulk Modulus (GPa) = 17.31810 30.85823 24.08817
# Shear Modulus (GPa) = 17.10677 34.47332 25.79004
#
# Velocity S-wave (km/s) = 2.90332 4.12147 3.56482
# Velocity P-wave (km/s) = 4.44662 6.15256 5.36779
#
# Compressibility (1/GPa) = 0.05774306
#
# Stress axis : x y z
#
# Youngs Moduli (GPa) = 37.68476 124.19821 31.91343
#
# Poissons Ratio (x) = 0.69750 -0.05430
# Poissons Ratio (y) = 0.21164 0.00559
# Poissons Ratio (z) = -0.06412 0.02176
#
# Static dielectric constant tensor:
#      x y z
#    x 1.778130 0.000000 0.000000 
#    y 0.000000 1.787080 0.000000 
#    z 0.000000 0.000000 1.733950 
# 
# From -- ./inp_files/13559.got.cif
#   From: 2010.05.17/outbox.cif.g08.bks.cpg/sg21_7_cif.got.tgz:13559.got - 2010.06.03 23:14:55.
