data_PCOD9323468
_publ_section_title
;
Structure prediction by ZEFSAII (Michael W. Deem and Ramdas Pophale) SiO2 
 PCOD9323468
Probable space group: C 2 2 2
;
_chemical_formula_sum "Si O2"
_cell_formula_units_Z 34
_cell_length_a 9.174631
_cell_length_b 11.655044
_cell_length_c 17.810965
_cell_angle_alpha 90.000000
_cell_angle_beta 90.000000
_cell_angle_gamma 90.000000
_cell_volume 1904.539454
_symmetry_space_group_name_H-M "C 2 2 2"
_symmetry_group_IT_number 21
_symmetry_cell_setting 'orthorhombic'
loop_
_space_group_symop_operation_xyz
x,y,z
-x,-y,z
x,-y,-z
-x,y,-z
1/2+x,1/2+y,z
1/2-x,1/2-y,z
1/2+x,1/2-y,-z
1/2-x,1/2+y,-z
loop_
_atom_site_type_symbol
_atom_site_label
_atom_site_fract_x
_atom_site_fract_y
_atom_site_fract_z
Si Si1 0.419578 0.273461 0.426631
Si Si2 0.750000 0.750000 0.183294
Si Si3 0.500676 0.864000 0.718701
Si Si4 0.500000 0.500000 0.500000
Si Si5 0.999933 0.136526 0.085743
Si Si6 0.250000 0.250000 0.816412
O O1 0.500000 0.222599 0.500000
O O2 0.250000 0.250000 0.423329
O O3 0.494335 0.218384 0.354147
O O4 0.426498 0.409976 0.442853
O O5 0.644220 0.829532 0.233920
O O6 0.641257 0.678598 0.130819
O O7 0.644499 0.829535 0.765820
O O8 0.500000 0.000000 0.701421
O O9 0.858825 0.178769 0.130906
O O10 0.000000 0.000000 0.083570
O O11 0.000000 0.180647 0.000000
#
# Coordination Sequence:
#
# PCOD9323468 Si02
#       6
#     8   4   8   2   8   4
#     4  10  23  43  63  88 115 161 195 244 301 346
#     4  10  21  40  55  88 124 154 192 252 293 348
#     4  11  23  39  61  89 121 156 201 244 298 353
#     4   8  24  44  60  88 128 140 212 250 292 348
#     4  10  20  37  61  86 117 158 199 242 292 350
#     4  10  23  38  57  92 118 160 194 244 301 346
#
# _framework density 17.852086
#
# number of rings (size 3 to 8) (size 9 to 14) (size 15 to 20)
#    0.706    1.176    1.176    2.118    1.647    4.235 
#    8.471    0.000    0.000   11.294    0.000    0.000 
#    0.000    0.000    0.000    0.000    0.000    0.000 
#
# Total GULP energy -94675.298105 kJ/mol
# GULP energy per Si atom -5569.135183 kJ/mol
# Density = 1.781145 g / cm^3
# Si number density = 17.852086 Si / 1000 Ang^3
#
#
#
# Elastic Constant Matrix: (Units=GPa)
#
#
# Indices 1 2 3 4 5 6 
#
# 1 120.5271 44.8984 61.1996 0.0000 0.0000 0.0000
# 2 44.8984 124.1326 52.1231 0.0000 0.0000 0.0000
# 3 61.1996 52.1231 142.6735 0.0000 0.0000 0.0000
# 4 0.0000 0.0000 0.0000 47.0130 0.0000 0.0000
# 5 0.0000 0.0000 0.0000 0.0000 31.9674 0.0000
# 6 0.0000 0.0000 0.0000 0.0000 0.0000 9.8780
#
#
#
# Elastic Compliance Matrix: (Units=1/GPa)
#
#
# Indices 1 2 3 4 5 6 
#
# 1 0.011181 -0.002398 -0.003920 0.000000 0.000000 0.000000
# 2 -0.002398 0.010030 -0.002636 0.000000 0.000000 0.000000
# 3 -0.003920 -0.002636 0.009653 0.000000 0.000000 0.000000
# 4 0.000000 0.000000 0.000000 0.021271 0.000000 0.000000
# 5 0.000000 0.000000 0.000000 0.000000 0.031282 0.000000
# 6 0.000000 0.000000 0.000000 0.000000 0.000000 0.101235
#
#
# Mechanical properties :
#
#
# Convention : Reuss Voigt Hill
#
# Bulk Modulus (GPa) = 77.17927 78.19728 77.68827
# Shear Modulus (GPa) = 24.16891 33.04583 28.60737
#
# Velocity S-wave (km/s) = 3.68345 4.30710 4.00742
# Velocity P-wave (km/s) = 7.83689 8.28449 8.06380
#
# Compressibility (1/GPa) = 0.01295685
#
# Stress axis : x y z
#
# Youngs Moduli (GPa) = 89.44106 99.70134 103.59182
#
# Poissons Ratio (x) = 0.23909 0.40606
# Poissons Ratio (y) = 0.21448 0.27303
# Poissons Ratio (z) = 0.35059 0.26277
#
# Static dielectric constant tensor:
#      x y z
#    x 1.588300 0.000000 0.000000 
#    y 0.000000 1.549280 0.000000 
#    z 0.000000 0.000000 1.633360 
# 
# From -- ./inp_files/35436.got.cif
#   From: 2010.05.17/outbox.cif.g08.bks.cpg/sg21_18_cif.got.tgz:35436.got - 2010.06.03 23:14:55.
