data_PCOD9323047
_publ_section_title
;
Structure prediction by ZEFSAII (Michael W. Deem and Ramdas Pophale) SiO2 
 PCOD9323047
Probable space group: C 2 2 2
;
_chemical_formula_sum "Si O2"
_cell_formula_units_Z 38
_cell_length_a 9.362615
_cell_length_b 11.578491
_cell_length_c 16.930591
_cell_angle_alpha 90.000000
_cell_angle_beta 90.000000
_cell_angle_gamma 90.000000
_cell_volume 1835.359930
_symmetry_space_group_name_H-M "C 2 2 2"
_symmetry_group_IT_number 21
_symmetry_cell_setting 'orthorhombic'
loop_
_space_group_symop_operation_xyz
x,y,z
-x,-y,z
x,-y,-z
-x,y,-z
1/2+x,1/2+y,z
1/2-x,1/2-y,z
1/2+x,1/2-y,-z
1/2-x,1/2+y,-z
loop_
_atom_site_type_symbol
_atom_site_label
_atom_site_fract_x
_atom_site_fract_y
_atom_site_fract_z
Si Si1 0.033008 0.304810 0.245082
Si Si2 0.500000 0.000000 0.000000
Si Si3 0.500000 0.500000 0.360853
Si Si4 0.200384 0.626065 0.123165
Si Si5 0.321436 0.439318 0.218617
Si Si6 0.422991 0.253592 0.422426
O O1 0.162783 0.387723 0.220847
O O2 0.078295 0.174906 0.217700
O O3 0.030601 0.304752 0.339980
O O4 0.891135 0.345704 0.202172
O O5 0.401123 0.926003 0.057284
O O6 0.366222 0.502315 0.299974
O O7 0.476702 0.385351 0.410876
O O8 0.250000 0.750000 0.094107
O O9 0.319396 0.532501 0.148731
O O10 0.500000 0.205045 0.500000
O O11 0.250000 0.250000 0.427566
#
# Coordination Sequence:
#
# PCOD9323047 Si02
#       6
#     8   2   4   8   8   8
#     4  10  20  42  69  94 129 177 223 275 326 384
#     4  12  28  44  60 104 138 164 204 276 328 404
#     4  10  19  38  66  91 126 178 228 271 332 378
#     4  12  25  43  70 100 130 174 216 265 336 402
#     4  10  19  39  70  95 125 167 227 268 320 393
#     4  11  22  38  61  95 136 179 228 284 332 389
#
# _framework density 20.704386
#
# number of rings (size 3 to 8) (size 9 to 14) (size 15 to 20)
#    0.000    1.263    6.316    2.842    0.000    4.211 
#    0.000    0.000    0.000    0.000    0.000    0.000 
#    0.000    0.000    0.000    0.000    0.000    0.000 
#
# Total GULP energy -106080.820309 kJ/mol
# GULP energy per Si atom -5583.201069 kJ/mol
# Density = 2.065726 g / cm^3
# Si number density = 20.704386 Si / 1000 Ang^3
#
#
#
# Elastic Constant Matrix: (Units=GPa)
#
#
# Indices 1 2 3 4 5 6 
#
# 1 67.5486 31.4654 30.5854 0.0000 0.0000 0.0000
# 2 31.4654 118.5776 40.9298 0.0000 0.0000 0.0000
# 3 30.5854 40.9298 107.5762 0.0000 0.0000 0.0000
# 4 0.0000 0.0000 0.0000 31.0262 0.0000 0.0000
# 5 0.0000 0.0000 0.0000 0.0000 -8.1212 0.0000
# 6 0.0000 0.0000 0.0000 0.0000 0.0000 39.4773
#
#
#
# Elastic Compliance Matrix: (Units=1/GPa)
#
#
# Indices 1 2 3 4 5 6 
#
# 1 0.018170 -0.003498 -0.003835 0.000000 0.000000 0.000000
# 2 -0.003498 0.010382 -0.002955 0.000000 0.000000 0.000000
# 3 -0.003835 -0.002955 0.011511 0.000000 0.000000 0.000000
# 4 0.000000 0.000000 0.000000 0.032231 0.000000 0.000000
# 5 0.000000 0.000000 0.000000 0.000000 -0.123134 0.000000
# 6 0.000000 0.000000 0.000000 0.000000 0.000000 0.025331
#
#
# Mechanical properties :
#
#
# Convention : Reuss Voigt Hill
#
# Bulk Modulus (GPa) = 51.32038 55.51817 53.41928
# Shear Modulus (GPa) = 3202.27559 25.19127 1613.73343
#
# Velocity S-wave (km/s) = 39.37033 3.49192 27.94831
# Velocity P-wave (km/s) = 45.73334 6.56742 32.67009
#
# Compressibility (1/GPa) = 0.01948544
#
# Stress axis : x y z
#
# Youngs Moduli (GPa) = 55.03573 96.32439 86.87650
#
# Poissons Ratio (x) = 0.33692 0.33319
# Poissons Ratio (y) = 0.19250 0.25676
# Poissons Ratio (z) = 0.21107 0.28468
#
# Static dielectric constant tensor:
#      x y z
#    x 1.744410 0.000000 0.000000 
#    y 0.000000 1.795670 0.000000 
#    z 0.000000 0.000000 1.725620 
# 
# From -- ./inp_files/31393.got.cif
#   From: 2010.05.17/outbox.cif.g08.bks.cpg/sg21_16_cif.got.tgz:31393.got - 2010.06.03 23:14:55.
