data_PCOD9323304
_publ_section_title
;
Structure prediction by ZEFSAII (Michael W. Deem and Ramdas Pophale) SiO2 
 PCOD9323304
Probable space group: C 2 2 2
;
_chemical_formula_sum "Si O2"
_cell_formula_units_Z 48
_cell_length_a 5.187571
_cell_length_b 15.255285
_cell_length_c 29.313318
_cell_angle_alpha 90.000000
_cell_angle_beta 90.000000
_cell_angle_gamma 90.000000
_cell_volume 2319.793668
_symmetry_space_group_name_H-M "C 2 2 2"
_symmetry_group_IT_number 21
_symmetry_cell_setting 'orthorhombic'
loop_
_space_group_symop_operation_xyz
x,y,z
-x,-y,z
x,-y,-z
-x,y,-z
1/2+x,1/2+y,z
1/2-x,1/2-y,z
1/2+x,1/2-y,-z
1/2-x,1/2+y,-z
loop_
_atom_site_type_symbol
_atom_site_label
_atom_site_fract_x
_atom_site_fract_y
_atom_site_fract_z
Si Si1 0.748988 0.938240 0.275789
Si Si2 0.751085 0.354770 0.525936
Si Si3 0.992242 0.394539 0.107721
Si Si4 0.002350 0.892542 0.947516
Si Si5 0.246467 0.060317 0.378360
Si Si6 0.990754 0.306065 0.797630
O O1 0.790324 0.902300 0.327193
O O2 0.651619 0.862235 0.242007
O O3 0.500000 0.000000 0.277732
O O4 0.000000 0.000000 0.263635
O O5 0.500000 0.389414 0.500000
O O6 0.750000 0.250000 0.520698
O O7 0.760951 0.374748 0.579364
O O8 0.000000 0.390414 0.500000
O O9 0.254806 0.365175 0.083121
O O10 0.000000 0.500000 0.107296
O O11 0.755986 0.363417 0.077201
O O12 0.940475 0.366522 0.159529
O O13 0.000000 0.000000 0.948270
O O14 0.000000 0.863667 0.000000
O O15 0.500000 0.000000 0.378581
O O16 0.000000 0.000000 0.386605
O O17 0.250000 0.250000 0.784651
O O18 0.750000 0.250000 0.815470
#
# Coordination Sequence:
#
# PCOD9323304 Si02
#       6
#     8   8   8   8   8   8
#     4  10  22  42  64  86 116 153 196 244 298 357
#     4  10  21  36  54  80 116 155 190 228 280 342
#     4  10  20  35  58  83 112 151 189 234 291 344
#     4   9  17  31  55  86 112 140 189 243 283 331
#     4  10  21  37  59  86 112 144 190 243 290 338
#     4  12  25  40  60  88 120 153 195 244 293 351
#
# _framework density 20.691496000000001
#
# number of rings (size 3 to 8) (size 9 to 14) (size 15 to 20)
#    0.000    1.833    0.000    4.000    0.000    6.667 
#    0.000    2.500    0.000   10.000    0.000    0.000 
#    0.000    0.000    0.000    0.000    0.000    0.000 
#
# Total GULP energy -133910.814191 kJ/mol
# GULP energy per Si atom -5579.617258 kJ/mol
# Density = 2.064440 g / cm^3
# Si number density = 20.691496 Si / 1000 Ang^3
#
#
#
# Elastic Constant Matrix: (Units=GPa)
#
#
# Indices 1 2 3 4 5 6 
#
# 1 181.5792 34.2058 53.5544 0.0000 0.0000 0.0000
# 2 34.2058 38.4011 36.5212 0.0000 0.0000 0.0000
# 3 53.5544 36.5212 140.5109 0.0000 0.0000 0.0000
# 4 0.0000 0.0000 0.0000 61.4253 0.0000 0.0000
# 5 0.0000 0.0000 0.0000 0.0000 35.4981 0.0000
# 6 0.0000 0.0000 0.0000 0.0000 0.0000 4.5085
#
#
#
# Elastic Compliance Matrix: (Units=1/GPa)
#
#
# Indices 1 2 3 4 5 6 
#
# 1 0.006806 -0.004776 -0.001353 0.000000 0.000000 0.000000
# 2 -0.004776 0.037943 -0.008042 0.000000 0.000000 0.000000
# 3 -0.001353 -0.008042 0.009723 0.000000 0.000000 0.000000
# 4 0.000000 0.000000 0.000000 0.016280 0.000000 0.000000
# 5 0.000000 0.000000 0.000000 0.000000 0.028171 0.000000
# 6 0.000000 0.000000 0.000000 0.000000 0.000000 0.221805
#
#
# Mechanical properties :
#
#
# Convention : Reuss Voigt Hill
#
# Bulk Modulus (GPa) = 38.26877 67.67266 52.97072
# Shear Modulus (GPa) = 13.97515 36.03368 25.00441
#
# Velocity S-wave (km/s) = 2.60168 4.17762 3.48003
# Velocity P-wave (km/s) = 5.24976 7.48643 6.46555
#
# Compressibility (1/GPa) = 0.02613097
#
# Stress axis : x y z
#
# Youngs Moduli (GPa) = 146.93202 26.35524 102.85276
#
# Poissons Ratio (x) = 0.12587 0.13912
# Poissons Ratio (y) = 0.70173 0.82712
# Poissons Ratio (z) = 0.19875 0.21194
#
# Static dielectric constant tensor:
#      x y z
#    x 1.568810 0.000000 0.000000 
#    y 0.000000 1.776360 0.000000 
#    z 0.000000 0.000000 1.731700 
# 
# From -- ./inp_files/39060.got.cif
#   From: 2010.05.17/outbox.cif.g08.bks.cpg/sg21_20_cif.got.tgz:39060.got - 2010.06.03 23:14:55.
