data_PCOD9323431
_publ_section_title
;
Structure prediction by ZEFSAII (Michael W. Deem and Ramdas Pophale) SiO2 
 PCOD9323431
Probable space group: C 2 2 2
;
_chemical_formula_sum "Si O2"
_cell_formula_units_Z 48
_cell_length_a 5.891791
_cell_length_b 30.710911
_cell_length_c 13.316702
_cell_angle_alpha 90.000000
_cell_angle_beta 90.000000
_cell_angle_gamma 90.000000
_cell_volume 2409.554276
_symmetry_space_group_name_H-M "C 2 2 2"
_symmetry_group_IT_number 21
_symmetry_cell_setting 'orthorhombic'
loop_
_space_group_symop_operation_xyz
x,y,z
-x,-y,z
x,-y,-z
-x,y,-z
1/2+x,1/2+y,z
1/2-x,1/2-y,z
1/2+x,1/2-y,-z
1/2-x,1/2+y,-z
loop_
_atom_site_type_symbol
_atom_site_label
_atom_site_fract_x
_atom_site_fract_y
_atom_site_fract_z
Si Si1 0.500000 0.633646 0.500000
Si Si2 0.474343 0.356743 0.722285
Si Si3 0.000000 0.584427 0.500000
Si Si4 0.142071 0.561140 0.288364
Si Si5 0.000000 0.000000 0.205518
Si Si6 0.664819 0.700831 0.902244
Si Si7 0.757928 0.579691 0.147534
Si Si8 0.000000 0.637584 0.000000
O O1 0.497219 0.657688 0.607314
O O2 0.747812 0.608391 0.497767
O O3 0.268592 0.391975 0.720630
O O4 0.445629 0.317870 0.801120
O O5 0.675582 0.386628 0.766635
O O6 0.986333 0.559660 0.605889
O O7 0.315604 0.521739 0.278036
O O8 0.984332 0.558833 0.191440
O O9 0.084397 0.040303 0.139279
O O10 0.750000 0.750000 0.892699
O O11 0.877400 0.669060 0.921828
O O12 0.500000 0.698019 0.000000
O O13 0.811093 0.607147 0.049644
#
# Coordination Sequence:
#
# PCOD9323431 Si02
#       8
#     4   8   4   8   4   8   8   4
#     4  10  20  38  68 104 130 181 238 277 336 418
#     4  10  21  38  68  95 131 173 222 272 336 410
#     4  10  20  36  67  95 128 177 234 289 342 399
#     4  10  20  39  62  88 127 172 225 278 340 398
#     4  10  24  40  60  86 128 174 226 291 329 398
#     4  12  24  41  67 104 136 165 218 276 340 408
#     4  11  21  41  63  87 125 173 224 277 335 403
#     4  12  24  40  71  92 126 180 218 277 342 412
#
# _framework density 19.920694999999998
#
# number of rings (size 3 to 8) (size 9 to 14) (size 15 to 20)
#    0.000    1.333    5.833    0.500    0.000    0.000 
#    0.000    5.000    0.000    7.000    0.000    0.000 
#    0.000    0.000    0.000    0.000    0.000    0.000 
#
# Total GULP energy -133782.693069 kJ/mol
# GULP energy per Si atom -5574.278878 kJ/mol
# Density = 1.987535 g / cm^3
# Si number density = 19.920695 Si / 1000 Ang^3
#
#
#
# Elastic Constant Matrix: (Units=GPa)
#
#
# Indices 1 2 3 4 5 6 
#
# 1 74.2348 29.9588 23.2240 0.0000 0.0000 0.0000
# 2 29.9588 106.2399 73.0865 0.0000 0.0000 0.0000
# 3 23.2240 73.0865 107.2110 0.0000 0.0000 0.0000
# 4 0.0000 0.0000 0.0000 14.9895 0.0000 0.0000
# 5 0.0000 0.0000 0.0000 0.0000 32.6222 0.0000
# 6 0.0000 0.0000 0.0000 0.0000 0.0000 21.2121
#
#
#
# Elastic Compliance Matrix: (Units=1/GPa)
#
#
# Indices 1 2 3 4 5 6 
#
# 1 0.015228 -0.003813 -0.000699 0.000000 0.000000 0.000000
# 2 -0.003813 0.018680 -0.011908 0.000000 0.000000 0.000000
# 3 -0.000699 -0.011908 0.017597 0.000000 0.000000 0.000000
# 4 0.000000 0.000000 0.000000 0.066714 0.000000 0.000000
# 5 0.000000 0.000000 0.000000 0.000000 0.030654 0.000000
# 6 0.000000 0.000000 0.000000 0.000000 0.000000 0.047143
#
#
# Mechanical properties :
#
#
# Convention : Reuss Voigt Hill
#
# Bulk Modulus (GPa) = 53.57982 60.02493 56.80238
# Shear Modulus (GPa) = 21.26943 24.52584 22.89763
#
# Velocity S-wave (km/s) = 3.27112 3.51262 3.39402
# Velocity P-wave (km/s) = 6.42043 6.82998 6.62837
#
# Compressibility (1/GPa) = 0.01866374
#
# Stress axis : x y z
#
# Youngs Moduli (GPa) = 65.66656 53.53255 56.82809
#
# Poissons Ratio (x) = 0.20413 0.03974
# Poissons Ratio (y) = 0.25040 0.67673
# Poissons Ratio (z) = 0.04592 0.63749
#
# Static dielectric constant tensor:
#      x y z
#    x 1.810530 0.000000 0.000000 
#    y 0.000000 1.670210 0.000000 
#    z 0.000000 0.000000 1.696500 
# 
# From -- ./inp_files/29447.got.cif
#   From: 2010.05.17/outbox.cif.g08.bks.cpg/sg21_15_cif.got.tgz:29447.got - 2010.06.03 23:14:55.
