data_PCOD9323065
_publ_section_title
;
Structure prediction by ZEFSAII (Michael W. Deem and Ramdas Pophale) SiO2 
 PCOD9323065
Probable space group: C 2 2 2
;
_chemical_formula_sum "Si O2"
_cell_formula_units_Z 48
_cell_length_a 9.562480
_cell_length_b 14.242161
_cell_length_c 15.045478
_cell_angle_alpha 90.000000
_cell_angle_beta 90.000000
_cell_angle_gamma 90.000000
_cell_volume 2049.049362
_symmetry_space_group_name_H-M "C 2 2 2"
_symmetry_group_IT_number 21
_symmetry_cell_setting 'orthorhombic'
loop_
_space_group_symop_operation_xyz
x,y,z
-x,-y,z
x,-y,-z
-x,y,-z
1/2+x,1/2+y,z
1/2-x,1/2-y,z
1/2+x,1/2-y,-z
1/2-x,1/2+y,-z
loop_
_atom_site_type_symbol
_atom_site_label
_atom_site_fract_x
_atom_site_fract_y
_atom_site_fract_z
Si Si1 0.981917 0.105931 0.273815
Si Si2 0.537435 0.233749 0.599618
Si Si3 0.838167 0.391816 0.278737
Si Si4 0.403490 0.865478 0.084925
Si Si5 0.841423 0.541462 0.412024
Si Si6 0.580347 0.638417 0.913971
O O1 0.820506 0.142713 0.266731
O O2 0.014005 0.108092 0.169778
O O3 0.060781 0.179076 0.335944
O O4 0.000000 0.000000 0.307464
O O5 0.500000 0.265104 0.500000
O O6 0.414253 0.173038 0.648189
O O7 0.653531 0.152957 0.587331
O O8 0.929150 0.394200 0.188563
O O9 0.805110 0.494792 0.318808
O O10 0.411939 0.752202 0.087415
O O11 0.240928 0.894912 0.077013
O O12 0.500000 0.894238 0.000000
O O13 0.767480 0.500000 0.500000
O O14 0.000000 0.500000 0.418008
O O15 0.500000 0.608065 0.000000
#
# Coordination Sequence:
#
# PCOD9323065 Si02
#       6
#     8   8   8   8   8   8
#     4  11  24  41  61  91 130 170 214 260 326 396
#     4  11  20  39  64  90 119 163 215 263 319 382
#     4  10  19  39  67  93 124 170 210 265 325 395
#     4   9  17  33  65 100 127 166 217 269 331 390
#     4   9  16  34  63  90 114 153 210 258 306 378
#     4   9  18  36  63  92 127 173 215 266 325 398
#
# _framework density 23.425498999999999
#
# number of rings (size 3 to 8) (size 9 to 14) (size 15 to 20)
#    0.000    2.167    5.000    0.500    0.000    0.667 
#    3.000    5.833    3.667   11.500    0.000    0.000 
#    0.000    0.000    0.000    0.000    0.000    0.000 
#
# Total GULP energy -133741.767563 kJ/mol
# GULP energy per Si atom -5572.573648 kJ/mol
# Density = 2.337218 g / cm^3
# Si number density = 23.425499 Si / 1000 Ang^3
#
#
#
# Elastic Constant Matrix: (Units=GPa)
#
#
# Indices 1 2 3 4 5 6 
#
# 1 52.7616 1.5667 33.1693 0.0000 0.0000 0.0000
# 2 1.5667 143.0383 57.3855 0.0000 0.0000 0.0000
# 3 33.1693 57.3855 196.2717 0.0000 0.0000 0.0000
# 4 0.0000 0.0000 0.0000 5.5015 0.0000 0.0000
# 5 0.0000 0.0000 0.0000 0.0000 13.3080 0.0000
# 6 0.0000 0.0000 0.0000 0.0000 0.0000 10.1617
#
#
#
# Elastic Compliance Matrix: (Units=1/GPa)
#
#
# Indices 1 2 3 4 5 6 
#
# 1 0.021444 0.001381 -0.004028 0.000000 0.000000 0.000000
# 2 0.001381 0.008009 -0.002575 0.000000 0.000000 0.000000
# 3 -0.004028 -0.002575 0.006529 0.000000 0.000000 0.000000
# 4 0.000000 0.000000 0.000000 0.181770 0.000000 0.000000
# 5 0.000000 0.000000 0.000000 0.000000 0.075143 0.000000
# 6 0.000000 0.000000 0.000000 0.000000 0.000000 0.098409
#
#
# Mechanical properties :
#
#
# Convention : Reuss Voigt Hill
#
# Bulk Modulus (GPa) = 39.15691 64.03496 51.59594
# Shear Modulus (GPa) = 12.18741 25.79091 18.98916
#
# Velocity S-wave (km/s) = 2.28340 3.32170 2.85023
# Velocity P-wave (km/s) = 4.86864 6.48895 5.73629
#
# Compressibility (1/GPa) = 0.02553828
#
# Stress axis : x y z
#
# Youngs Moduli (GPa) = 46.63240 124.85793 153.17312
#
# Poissons Ratio (x) = -0.17243 0.61695
# Poissons Ratio (y) = -0.06440 0.39443
# Poissons Ratio (z) = 0.18783 0.32152
#
# Static dielectric constant tensor:
#      x y z
#    x 1.933710 0.000000 0.000000 
#    y 0.000000 1.921620 0.000000 
#    z 0.000000 0.000000 2.090750 
# 
# From -- ./inp_files/31504.got.cif
#   From: 2010.05.17/outbox.cif.g08.bks.cpg/sg21_16_cif.got.tgz:31504.got - 2010.06.03 23:14:55.
