data_PCOD9323539
_publ_section_title
;
Structure prediction by ZEFSAII (Michael W. Deem and Ramdas Pophale) SiO2 
 PCOD9323539
Probable space group: C 2 2 2
;
_chemical_formula_sum "Si O2"
_cell_formula_units_Z 60
_cell_length_a 19.849045
_cell_length_b 14.680339
_cell_length_c 10.950620
_cell_angle_alpha 90.000000
_cell_angle_beta 90.000000
_cell_angle_gamma 90.000000
_cell_volume 3190.908930
_symmetry_space_group_name_H-M "C 2 2 2"
_symmetry_group_IT_number 21
_symmetry_cell_setting 'orthorhombic'
loop_
_space_group_symop_operation_xyz
x,y,z
-x,-y,z
x,-y,-z
-x,y,-z
1/2+x,1/2+y,z
1/2-x,1/2-y,z
1/2+x,1/2-y,-z
1/2-x,1/2+y,-z
loop_
_atom_site_type_symbol
_atom_site_label
_atom_site_fract_x
_atom_site_fract_y
_atom_site_fract_z
Si Si1 0.308940 0.008309 0.853061
Si Si2 0.250000 0.250000 0.362199
Si Si3 0.634195 0.830540 0.187654
Si Si4 0.174682 0.709938 0.092779
Si Si5 0.848431 0.890097 0.485725
Si Si6 0.436522 0.667428 0.743065
Si Si7 0.157996 0.031595 0.138943
Si Si8 0.905509 0.144379 0.252627
O O1 0.363746 0.939396 0.800116
O O2 0.318649 0.115071 0.832489
O O3 0.235244 0.969537 0.815969
O O4 0.310809 0.000000 0.000000
O O5 0.306904 0.209850 0.272986
O O6 0.216173 0.168846 0.441517
O O7 0.570164 0.775392 0.235201
O O8 0.648628 0.809766 0.044617
O O9 0.250000 0.750000 0.081445
O O10 0.127431 0.780377 0.164165
O O11 0.904952 0.869817 0.382716
O O12 0.876433 0.848080 0.611130
O O13 0.837540 0.000000 0.500000
O O14 0.385345 0.622155 0.841935
O O15 0.514070 0.643358 0.753151
O O16 0.119137 0.953748 0.209466
O O17 0.160583 0.000000 0.000000
#
# Coordination Sequence:
#
# PCOD9323539 Si02
#       8
#     8   4   8   8   8   8   8   8
#     4   9  19  34  57  87 118 156 197 245 311 364
#     4  10  22  38  64  92 118 164 206 254 306 374
#     4  10  20  38  62  86 122 163 203 246 310 388
#     4  11  21  36  60  92 126 156 197 262 319 367
#     4  11  24  42  63  89 124 166 214 260 304 365
#     4  11  24  40  59  83 123 173 205 243 309 376
#     4  11  21  33  57  90 122 155 197 255 316 380
#     4  12  25  38  58  89 126 163 203 257 307 370
#
# _framework density 18.803419000000002
#
# number of rings (size 3 to 8) (size 9 to 14) (size 15 to 20)
#    0.000    1.333    3.333    3.200    2.800    3.200 
#    0.000    0.667    0.000    2.400    0.000    1.867 
#    0.000    0.000    0.000    0.000    0.000    0.000 
#
# Total GULP energy -167393.872558 kJ/mol
# GULP energy per Si atom -5579.795752 kJ/mol
# Density = 1.876062 g / cm^3
# Si number density = 18.803419 Si / 1000 Ang^3
#
#
#
# Elastic Constant Matrix: (Units=GPa)
#
#
# Indices 1 2 3 4 5 6 
#
# 1 45.8647 29.3139 17.3316 0.0000 0.0000 0.0000
# 2 29.3139 103.0469 25.2657 0.0000 0.0000 0.0000
# 3 17.3316 25.2657 54.0632 0.0000 0.0000 0.0000
# 4 0.0000 0.0000 0.0000 29.2557 0.0000 0.0000
# 5 0.0000 0.0000 0.0000 0.0000 72.3145 0.0000
# 6 0.0000 0.0000 0.0000 0.0000 0.0000 15.4962
#
#
#
# Elastic Compliance Matrix: (Units=1/GPa)
#
#
# Indices 1 2 3 4 5 6 
#
# 1 0.028268 -0.006573 -0.005990 0.000000 0.000000 0.000000
# 2 -0.006573 0.012488 -0.003729 0.000000 0.000000 0.000000
# 3 -0.005990 -0.003729 0.022160 0.000000 0.000000 0.000000
# 4 0.000000 0.000000 0.000000 0.034181 0.000000 0.000000
# 5 0.000000 0.000000 0.000000 0.000000 0.013828 0.000000
# 6 0.000000 0.000000 0.000000 0.000000 0.000000 0.064532
#
#
# Mechanical properties :
#
#
# Convention : Reuss Voigt Hill
#
# Bulk Modulus (GPa) = 32.96888 38.53303 35.75095
# Shear Modulus (GPa) = 22.91965 32.15085 27.53525
#
# Velocity S-wave (km/s) = 3.49508 4.13951 3.83087
# Velocity P-wave (km/s) = 5.81884 6.58669 6.21463
#
# Compressibility (1/GPa) = 0.03033164
#
# Stress axis : x y z
#
# Youngs Moduli (GPa) = 35.37597 80.07432 45.12614
#
# Poissons Ratio (x) = 0.52630 0.27033
# Poissons Ratio (y) = 0.23251 0.16829
# Poissons Ratio (z) = 0.21192 0.29862
#
# Static dielectric constant tensor:
#      x y z
#    x 1.630820 0.000000 0.000000 
#    y 0.000000 1.690580 0.000000 
#    z 0.000000 0.000000 1.701990 
# 
# From -- ./inp_files/26202.got.cif
#   From: 2010.05.17/outbox.cif.g08.bks.cpg/sg21_14_cif.got.tgz:26202.got - 2010.06.03 23:14:55.
