data_PCOD9323476
_publ_section_title
;
Structure prediction by ZEFSAII (Michael W. Deem and Ramdas Pophale) SiO2 
 PCOD9323476
Probable space group: C 2 2 2
;
_chemical_formula_sum "Si O2"
_cell_formula_units_Z 64
_cell_length_a 27.605034
_cell_length_b 9.774736
_cell_length_c 12.003044
_cell_angle_alpha 90.000000
_cell_angle_beta 90.000000
_cell_angle_gamma 90.000000
_cell_volume 3238.804404
_symmetry_space_group_name_H-M "C 2 2 2"
_symmetry_group_IT_number 21
_symmetry_cell_setting 'orthorhombic'
loop_
_space_group_symop_operation_xyz
x,y,z
-x,-y,z
x,-y,-z
-x,y,-z
1/2+x,1/2+y,z
1/2-x,1/2-y,z
1/2+x,1/2-y,-z
1/2-x,1/2+y,-z
loop_
_atom_site_type_symbol
_atom_site_label
_atom_site_fract_x
_atom_site_fract_y
_atom_site_fract_z
Si Si1 0.624835 0.841203 0.492887
Si Si2 0.474329 0.148703 0.844758
Si Si3 0.428872 0.769327 0.920041
Si Si4 0.193238 0.264800 0.295877
Si Si5 0.154395 0.478667 0.127621
Si Si6 0.948426 0.121954 0.568220
Si Si7 0.111761 0.948950 0.779408
Si Si8 0.118004 0.265686 0.740090
O O1 0.668307 0.819873 0.407494
O O2 0.578231 0.764361 0.444872
O O3 0.635140 0.777880 0.613576
O O4 0.614643 0.000000 0.500000
O O5 0.520884 0.243624 0.854414
O O6 0.438109 0.182071 0.745326
O O7 0.500000 0.000000 0.847332
O O8 0.443170 0.184978 0.955514
O O9 0.396459 0.894311 0.874042
O O10 0.401040 0.629172 0.894637
O O11 0.250000 0.250000 0.312911
O O12 0.187407 0.378130 0.198992
O O13 0.159724 0.132423 0.264607
O O14 0.146904 0.623964 0.186455
O O15 0.169298 0.500000 0.000000
O O16 0.933911 0.075470 0.693851
O O17 0.000000 0.133158 0.500000
O O18 0.922459 0.000000 0.500000
O O19 0.120028 0.110927 0.784061
#
# Coordination Sequence:
#
# PCOD9323476 Si02
#       8
#     8   8   8   8   8   8   8   8
#     4  11  23  43  63  97 127 169 227 279 332 406
#     4  11  21  35  63  92 133 184 236 266 319 386
#     4  10  20  37  61  90 129 185 228 262 320 397
#     4  10  24  49  74  95 128 171 225 282 356 428
#     4  11  20  42  70  96 135 176 211 277 345 398
#     4  10  21  38  59  83 133 175 210 260 336 388
#     4  10  24  41  63  94 129 176 218 282 349 395
#     4  12  23  39  63  95 138 174 226 280 337 396
#
# _framework density 19.760377999999999
#
# number of rings (size 3 to 8) (size 9 to 14) (size 15 to 20)
#    0.000    1.375    5.000    0.750    1.750    1.250 
#    2.250    3.125    0.000    0.000    0.000    0.000 
#    0.000    0.000    0.000    0.000    0.000    0.000 
#
# Total GULP energy -178325.571130 kJ/mol
# GULP energy per Si atom -5572.674098 kJ/mol
# Density = 1.971540 g / cm^3
# Si number density = 19.760378 Si / 1000 Ang^3
#
#
#
# Elastic Constant Matrix: (Units=GPa)
#
#
# Indices 1 2 3 4 5 6 
#
# 1 61.5176 17.3773 2.0217 0.0000 0.0000 0.0000
# 2 17.3773 153.5696 18.6559 0.0000 0.0000 0.0000
# 3 2.0217 18.6559 61.0774 0.0000 0.0000 0.0000
# 4 0.0000 0.0000 0.0000 26.6217 0.0000 0.0000
# 5 0.0000 0.0000 0.0000 0.0000 8.3464 0.0000
# 6 0.0000 0.0000 0.0000 0.0000 0.0000 4.5206
#
#
#
# Elastic Compliance Matrix: (Units=1/GPa)
#
#
# Indices 1 2 3 4 5 6 
#
# 1 0.016792 -0.001903 0.000025 0.000000 0.000000 0.000000
# 2 -0.001903 0.006978 -0.002069 0.000000 0.000000 0.000000
# 3 0.000025 -0.002069 0.017004 0.000000 0.000000 0.000000
# 4 0.000000 0.000000 0.000000 0.037563 0.000000 0.000000
# 5 0.000000 0.000000 0.000000 0.000000 0.119813 0.000000
# 6 0.000000 0.000000 0.000000 0.000000 0.000000 0.221211
#
#
# Mechanical properties :
#
#
# Convention : Reuss Voigt Hill
#
# Bulk Modulus (GPa) = 30.41201 39.14161 34.77681
# Shear Modulus (GPa) = 11.40994 23.77170 17.59082
#
# Velocity S-wave (km/s) = 2.40555 3.47219 2.98687
# Velocity P-wave (km/s) = 4.81034 5.99382 5.43440
#
# Compressibility (1/GPa) = 0.03288175
#
# Stress axis : x y z
#
# Youngs Moduli (GPa) = 59.55113 143.30021 58.81096
#
# Poissons Ratio (x) = 0.27274 -0.00150
# Poissons Ratio (y) = 0.11334 0.12165
# Poissons Ratio (z) = -0.00152 0.29642
#
# Static dielectric constant tensor:
#      x y z
#    x 1.703890 0.000000 0.000000 
#    y 0.000000 1.719590 0.000000 
#    z 0.000000 0.000000 1.759880 
# 
# From -- ./inp_files/28098.got.cif
#   From: 2010.05.17/outbox.cif.g08.bks.cpg/sg21_15_cif.got.tgz:28098.got - 2010.06.03 23:14:55.
