data_PCOD9323420
_publ_section_title
;
Structure prediction by ZEFSAII (Michael W. Deem and Ramdas Pophale) SiO2 
 PCOD9323420
Probable space group: C 2 2 2
;
_chemical_formula_sum "Si O2"
_cell_formula_units_Z 24
_cell_length_a 4.809074
_cell_length_b 25.336639
_cell_length_c 8.402731
_cell_angle_alpha 90.000000
_cell_angle_beta 90.000000
_cell_angle_gamma 90.000000
_cell_volume 1023.837244
_symmetry_space_group_name_H-M "C 2 2 2"
_symmetry_group_IT_number 21
_symmetry_cell_setting 'orthorhombic'
loop_
_space_group_symop_operation_xyz
x,y,z
-x,-y,z
x,-y,-z
-x,y,-z
1/2+x,1/2+y,z
1/2-x,1/2-y,z
1/2+x,1/2-y,-z
1/2-x,1/2+y,-z
loop_
_atom_site_type_symbol
_atom_site_label
_atom_site_fract_x
_atom_site_fract_y
_atom_site_fract_z
Si Si1 0.373135 0.427310 0.773564
Si Si2 0.500000 0.500000 0.500000
Si Si3 0.411653 0.137442 0.311699
Si Si4 0.000000 0.500000 0.000000
Si Si5 0.750000 0.750000 0.380027
O O1 0.326573 0.462382 0.615401
O O2 0.689542 0.406610 0.749181
O O3 0.196360 0.374306 0.776843
O O4 0.220806 0.463601 0.903856
O O5 0.500000 0.133856 0.500000
O O6 0.308331 0.196557 0.285957
O O7 0.500000 0.737468 0.500000
#
# Coordination Sequence:
#
# PCOD9323420 Si02
#       5
#     8   2   8   2   4
#     4  12  26  43  69  98 146 189 244 290 355 425
#     4  12  24  44  72 102 128 196 252 302 332 422
#     4  11  21  41  69 104 136 184 230 301 360 420
#     4  12  32  48  64 110 152 208 232 294 364 430
#     4  10  20  36  64 104 142 164 220 302 376 410
#
# _framework density 23.441224999999999
#
# number of rings (size 3 to 8) (size 9 to 14) (size 15 to 20)
#    0.000    0.667    3.333    6.000    0.000    7.333 
#    0.000    0.000    0.000    4.000    0.000    0.000 
#    0.000    0.000    0.000    0.000    0.000    0.000 
#
# Total GULP energy -66941.809376 kJ/mol
# GULP energy per Si atom -5578.484115 kJ/mol
# Density = 2.338787 g / cm^3
# Si number density = 23.441225 Si / 1000 Ang^3
#
#
#
# Elastic Constant Matrix: (Units=GPa)
#
#
# Indices 1 2 3 4 5 6 
#
# 1 130.9335 29.7319 26.3627 0.0000 0.0000 0.0000
# 2 29.7319 143.9649 42.6890 0.0000 0.0000 0.0000
# 3 26.3627 42.6890 81.5966 0.0000 0.0000 0.0000
# 4 0.0000 0.0000 0.0000 22.9061 0.0000 0.0000
# 5 0.0000 0.0000 0.0000 0.0000 27.8569 0.0000
# 6 0.0000 0.0000 0.0000 0.0000 0.0000 38.6493
#
#
#
# Elastic Compliance Matrix: (Units=1/GPa)
#
#
# Indices 1 2 3 4 5 6 
#
# 1 0.008311 -0.001089 -0.002115 0.000000 0.000000 0.000000
# 2 -0.001089 0.008364 -0.004024 0.000000 0.000000 0.000000
# 3 -0.002115 -0.004024 0.015044 0.000000 0.000000 0.000000
# 4 0.000000 0.000000 0.000000 0.043657 0.000000 0.000000
# 5 0.000000 0.000000 0.000000 0.000000 0.035898 0.000000
# 6 0.000000 0.000000 0.000000 0.000000 0.000000 0.025874
#
#
# Mechanical properties :
#
#
# Convention : Reuss Voigt Hill
#
# Bulk Modulus (GPa) = 57.93021 61.56248 59.74634
# Shear Modulus (GPa) = 31.77467 35.06322 33.41895
#
# Velocity S-wave (km/s) = 3.68571 3.87174 3.77987
# Velocity P-wave (km/s) = 6.54822 6.80490 6.67780
#
# Compressibility (1/GPa) = 0.01726215
#
# Stress axis : x y z
#
# Youngs Moduli (GPa) = 120.32723 119.55571 66.47121
#
# Poissons Ratio (x) = 0.13021 0.14060
# Poissons Ratio (y) = 0.13105 0.26749
# Poissons Ratio (z) = 0.25452 0.48110
#
# Static dielectric constant tensor:
#      x y z
#    x 1.931700 0.000000 0.000000 
#    y 0.000000 1.896160 0.000000 
#    z 0.000000 0.000000 1.951990 
# 
# From -- ./inp_files/8702.got.cif
#   From: 2010.05.17/outbox.cif.g08.bks.cpg/sg21_5_cif.got.tgz:8702.got - 2010.06.03 23:14:55.
