data_PCOD9323859
_publ_section_title
;
Structure prediction by ZEFSAII (Michael W. Deem and Ramdas Pophale) SiO2 
 PCOD9323859
Probable space group: C 2 2 2
;
_chemical_formula_sum "Si O2"
_cell_formula_units_Z 48
_cell_length_a 24.028094
_cell_length_b 20.370682
_cell_length_c 4.974239
_cell_angle_alpha 90.000000
_cell_angle_beta 90.000000
_cell_angle_gamma 90.000000
_cell_volume 2434.734108
_symmetry_space_group_name_H-M "C 2 2 2"
_symmetry_group_IT_number 21
_symmetry_cell_setting 'orthorhombic'
loop_
_space_group_symop_operation_xyz
x,y,z
-x,-y,z
x,-y,-z
-x,y,-z
1/2+x,1/2+y,z
1/2-x,1/2-y,z
1/2+x,1/2-y,-z
1/2-x,1/2+y,-z
loop_
_atom_site_type_symbol
_atom_site_label
_atom_site_fract_x
_atom_site_fract_y
_atom_site_fract_z
Si Si1 0.616055 0.131210 0.383355
Si Si2 0.776581 0.450795 0.256696
Si Si3 0.063926 0.429306 0.095693
Si Si4 0.559301 0.348126 0.083022
Si Si5 0.847700 0.047719 0.246520
Si Si6 0.559033 0.253209 0.577151
O O1 0.676990 0.104085 0.313388
O O2 0.582271 0.084793 0.598255
O O3 0.608067 0.202798 0.509497
O O4 0.587762 0.127790 0.091904
O O5 0.783045 0.500000 0.500000
O O6 0.713979 0.421986 0.283431
O O7 0.783070 0.500000 0.000000
O O8 0.087311 0.500000 0.000000
O O9 0.000000 0.430941 0.000000
O O10 0.607106 0.400749 0.139219
O O11 0.556014 0.311496 0.364575
O O12 0.500000 0.379680 0.000000
O O13 0.566038 0.289706 0.861859
O O14 0.862490 0.000000 0.500000
O O15 0.839205 0.000000 0.000000
O O16 0.500000 0.216905 0.500000
#
# Coordination Sequence:
#
# PCOD9323859 Si02
#       6
#     8   8   8   8   8   8
#     4  12  21  35  56  79 110 157 203 236 283 352
#     4  10  21  37  58  85 116 152 196 248 298 342
#     4  11  22  33  49  77 111 146 193 256 304 333
#     4  10  21  39  60  87 121 151 185 236 295 355
#     4  10  21  39  64  90 118 150 186 238 302 362
#     4  10  21  36  56  82 116 156 193 234 285 343
#
# _framework density 19.714677999999999
#
# number of rings (size 3 to 8) (size 9 to 14) (size 15 to 20)
#    0.000    1.500    0.000    6.500    0.000    3.000 
#    0.000    1.667    0.000    2.000    0.000    0.000 
#    0.000    0.000    0.000    0.000    0.000    0.000 
#
# Total GULP energy -133615.693320 kJ/mol
# GULP energy per Si atom -5567.320555 kJ/mol
# Density = 1.966981 g / cm^3
# Si number density = 19.714678 Si / 1000 Ang^3
#
#
#
# Elastic Constant Matrix: (Units=GPa)
#
#
# Indices 1 2 3 4 5 6 
#
# 1 132.0952 68.8573 9.1667 0.0000 0.0000 0.0000
# 2 68.8573 55.2106 9.1220 0.0000 0.0000 0.0000
# 3 9.1667 9.1220 104.3202 0.0000 0.0000 0.0000
# 4 0.0000 0.0000 0.0000 14.5496 0.0000 0.0000
# 5 0.0000 0.0000 0.0000 0.0000 24.9022 0.0000
# 6 0.0000 0.0000 0.0000 0.0000 0.0000 28.0745
#
#
#
# Elastic Compliance Matrix: (Units=1/GPa)
#
#
# Indices 1 2 3 4 5 6 
#
# 1 0.021659 -0.027089 0.000466 0.000000 0.000000 0.000000
# 2 -0.027089 0.052259 -0.002189 0.000000 0.000000 0.000000
# 3 0.000466 -0.002189 0.009736 0.000000 0.000000 0.000000
# 4 0.000000 0.000000 0.000000 0.068731 0.000000 0.000000
# 5 0.000000 0.000000 0.000000 0.000000 0.040157 0.000000
# 6 0.000000 0.000000 0.000000 0.000000 0.000000 0.035619
#
#
# Mechanical properties :
#
#
# Convention : Reuss Voigt Hill
#
# Bulk Modulus (GPa) = 38.41951 51.76868 45.09410
# Shear Modulus (GPa) = 16.98002 27.13726 22.05864
#
# Velocity S-wave (km/s) = 2.93796 3.71415 3.34862
# Velocity P-wave (km/s) = 5.57125 6.68649 6.15419
#
# Compressibility (1/GPa) = 0.02602844
#
# Stress axis : x y z
#
# Youngs Moduli (GPa) = 46.17061 19.13539 102.70739
#
# Poissons Ratio (x) = 0.51836 -0.04782
# Poissons Ratio (y) = 1.25073 0.22486
# Poissons Ratio (z) = -0.02150 0.04189
#
# Static dielectric constant tensor:
#      x y z
#    x 1.971250 0.000000 0.000000 
#    y 0.000000 1.700760 0.000000 
#    z 0.000000 0.000000 1.675070 
# 
# From -- ./inp_files/6721.got.cif
#   From: 2010.05.17/outbox.cif.g08.bks.cpg/sg21_4_cif.got.tgz:6721.got - 2010.06.03 23:14:55.
