data_PCOD9323602
_publ_section_title
;
Structure prediction by ZEFSAII (Michael W. Deem and Ramdas Pophale) SiO2 
 PCOD9323602
Probable space group: C 2 2 2
;
_chemical_formula_sum "Si O2"
_cell_formula_units_Z 48
_cell_length_a 30.914411
_cell_length_b 9.674455
_cell_length_c 9.046742
_cell_angle_alpha 90.000000
_cell_angle_beta 90.000000
_cell_angle_gamma 90.000000
_cell_volume 2705.700304
_symmetry_space_group_name_H-M "C 2 2 2"
_symmetry_group_IT_number 21
_symmetry_cell_setting 'orthorhombic'
loop_
_space_group_symop_operation_xyz
x,y,z
-x,-y,z
x,-y,-z
-x,y,-z
1/2+x,1/2+y,z
1/2-x,1/2-y,z
1/2+x,1/2-y,-z
1/2-x,1/2+y,-z
loop_
_atom_site_type_symbol
_atom_site_label
_atom_site_fract_x
_atom_site_fract_y
_atom_site_fract_z
Si Si1 0.735619 0.589329 0.148350
Si Si2 0.391516 0.786988 0.671163
Si Si3 0.863848 0.020618 0.824450
Si Si4 0.448480 0.013328 0.826430
Si Si5 0.114023 0.727187 0.315677
Si Si6 0.683083 0.003820 0.675396
O O1 0.750000 0.750000 0.128846
O O2 0.686194 0.566720 0.199254
O O3 0.770022 0.521585 0.258355
O O4 0.739673 0.500000 0.000000
O O5 0.392426 0.642070 0.754360
O O6 0.427983 0.889848 0.730585
O O7 0.392313 0.773547 0.493361
O O8 0.346922 0.865214 0.713619
O O9 0.875600 0.878255 0.744085
O O10 0.870029 0.000000 0.000000
O O11 0.500000 0.000000 0.815423
O O12 0.426996 0.152937 0.761334
O O13 0.436497 0.000000 0.000000
O O14 0.155435 0.630003 0.278323
O O15 0.686322 0.000000 0.500000
#
# Coordination Sequence:
#
# PCOD9323602 Si02
#       6
#     8   8   8   8   8   8
#     4  11  24  38  55  82 116 154 203 248 294 344
#     4  10  20  39  59  85 118 151 195 240 290 353
#     4  11  23  37  56  84 117 157 197 246 299 340
#     4  10  21  39  65  93 119 149 187 233 288 357
#     4  10  22  37  60  87 115 154 195 238 293 348
#     4   9  20  37  56  78 109 153 196 239 287 342
#
# _framework density 17.740324999999999
#
# number of rings (size 3 to 8) (size 9 to 14) (size 15 to 20)
#    0.000    1.833    1.667    3.000    4.667    5.333 
#    0.000    0.833    0.000    5.000    0.000    0.000 
#    0.000    0.000    0.000    0.000    0.000    0.000 
#
# Total GULP energy -133904.827727 kJ/mol
# GULP energy per Si atom -5579.367822 kJ/mol
# Density = 1.769995 g / cm^3
# Si number density = 17.740325 Si / 1000 Ang^3
#
#
#
# Elastic Constant Matrix: (Units=GPa)
#
#
# Indices 1 2 3 4 5 6 
#
# 1 69.6456 42.8753 39.9586 0.0000 0.0000 0.0000
# 2 42.8753 154.2409 50.8054 0.0000 0.0000 0.0000
# 3 39.9586 50.8054 70.5056 0.0000 0.0000 0.0000
# 4 0.0000 0.0000 0.0000 31.9198 0.0000 0.0000
# 5 0.0000 0.0000 0.0000 0.0000 38.4581 0.0000
# 6 0.0000 0.0000 0.0000 0.0000 0.0000 8.1668
#
#
#
# Elastic Compliance Matrix: (Units=1/GPa)
#
#
# Indices 1 2 3 4 5 6 
#
# 1 0.022068 -0.002642 -0.010603 0.000000 0.000000 0.000000
# 2 -0.002642 0.008817 -0.004856 0.000000 0.000000 0.000000
# 3 -0.010603 -0.004856 0.023692 0.000000 0.000000 0.000000
# 4 0.000000 0.000000 0.000000 0.031329 0.000000 0.000000
# 5 0.000000 0.000000 0.000000 0.000000 0.026002 0.000000
# 6 0.000000 0.000000 0.000000 0.000000 0.000000 0.122446
#
#
# Mechanical properties :
#
#
# Convention : Reuss Voigt Hill
#
# Bulk Modulus (GPa) = 54.42316 62.40785 58.41550
# Shear Modulus (GPa) = 18.07118 26.42579 22.24849
#
# Velocity S-wave (km/s) = 3.19509 3.86371 3.54520
# Velocity P-wave (km/s) = 6.66001 7.42692 7.05390
#
# Compressibility (1/GPa) = 0.01837453
#
# Stress axis : x y z
#
# Youngs Moduli (GPa) = 45.31358 113.41206 42.20794
#
# Poissons Ratio (x) = 0.29961 0.44755
# Poissons Ratio (y) = 0.11971 0.20498
# Poissons Ratio (z) = 0.48048 0.55078
#
# Static dielectric constant tensor:
#      x y z
#    x 1.615840 0.000000 0.000000 
#    y 0.000000 1.600690 0.000000 
#    z 0.000000 0.000000 1.602500 
# 
# From -- ./inp_files/11489.got.cif
#   From: 2010.05.17/outbox.cif.g08.bks.cpg/sg21_6_cif.got.tgz:11489.got - 2010.06.03 23:14:55.
