data_PCOD9323965
_publ_section_title
;
Structure prediction by ZEFSAII (Michael W. Deem and Ramdas Pophale) SiO2 
 PCOD9323965
Probable space group: C 2 2 2
;
_chemical_formula_sum "Si O2"
_cell_formula_units_Z 56
_cell_length_a 15.864420
_cell_length_b 8.499281
_cell_length_c 21.796068
_cell_angle_alpha 90.000000
_cell_angle_beta 90.000000
_cell_angle_gamma 90.000000
_cell_volume 2938.898188
_symmetry_space_group_name_H-M "C 2 2 2"
_symmetry_group_IT_number 21
_symmetry_cell_setting 'orthorhombic'
loop_
_space_group_symop_operation_xyz
x,y,z
-x,-y,z
x,-y,-z
-x,y,-z
1/2+x,1/2+y,z
1/2-x,1/2-y,z
1/2+x,1/2-y,-z
1/2-x,1/2+y,-z
loop_
_atom_site_type_symbol
_atom_site_label
_atom_site_fract_x
_atom_site_fract_y
_atom_site_fract_z
Si Si1 0.901954 0.191450 1.000000
Si Si2 0.159146 0.188793 0.867096
Si Si3 0.159146 0.188793 0.132904
Si Si4 1.000000 0.808951 0.652833
Si Si5 0.157968 0.189796 0.570642
Si Si6 0.500000 0.187235 0.208838
Si Si7 0.842032 0.189795 0.570643
O O1 0.858201 0.243806 0.937195
O O2 0.858201 0.243806 0.062804
O O3 0.000000 0.239924 0.000000
O O4 0.901137 0.000000 0.000000
O O5 0.250000 0.250000 0.846568
O O6 0.082680 0.248132 0.825516
O O7 0.158800 0.000000 0.866566
O O8 0.250000 0.250000 0.153433
O O9 0.082680 0.248131 0.174485
O O10 0.917054 0.758949 0.615076
O O11 0.999999 0.743173 0.721056
O O12 0.082946 0.758949 0.615077
O O13 0.000000 0.000000 0.655551
O O14 0.250000 0.250000 0.589434
O O15 0.142903 0.240839 0.500000
O O16 0.159084 0.000000 0.570767
O O17 0.500000 0.000000 0.205691
O O18 0.750000 0.250000 0.589435
#
# Coordination Sequence:
#
# PCOD9323965 Si02
#       7
#     8   8   8   8   8   8   8
#     4   9  17  34  62  91 118 150 186 235 294 351
#     4  11  22  40  64  89 119 153 193 240 295 352
#     4  11  22  40  64  89 119 153 193 240 295 352
#     4  10  21  38  59  81 112 155 195 233 286 344
#     4   9  18  34  58  87 116 146 184 231 284 342
#     4  12  26  42  58  83 117 157 204 247 290 343
#     4   9  18  34  58  87 116 146 184 231 284 342
#
# _framework density 19.054760000000002
#
# number of rings (size 3 to 8) (size 9 to 14) (size 15 to 20)
#    0.000    1.857    1.429    3.000    0.000    4.000 
#    0.000    5.714    0.000    4.286    0.000    0.000 
#    0.000    0.000    0.000    0.000    0.000    0.000 
#
# Total GULP energy -156438.817706 kJ/mol
# GULP energy per Si atom -5587.100632 kJ/mol
# Density = 1.901139 g / cm^3
# Si number density = 19.054760 Si / 1000 Ang^3
#
#
#
# Elastic Constant Matrix: (Units=GPa)
#
#
# Indices 1 2 3 4 5 6 
#
# 1 207.6036 45.1890 115.9291 0.0000 0.0000 0.0000
# 2 45.1890 47.6220 37.4774 0.0000 0.0000 0.0000
# 3 115.9291 37.4774 145.5116 0.0000 0.0000 0.0000
# 4 0.0000 0.0000 0.0000 16.2296 0.0000 0.0000
# 5 0.0000 0.0000 0.0000 0.0000 -2.5954 0.0000
# 6 0.0000 0.0000 0.0000 0.0000 0.0000 30.3832
#
#
#
# Elastic Compliance Matrix: (Units=1/GPa)
#
#
# Indices 1 2 3 4 5 6 
#
# 1 0.009170 -0.003702 -0.006352 0.000000 0.000000 0.000000
# 2 -0.003702 0.027832 -0.004219 0.000000 0.000000 0.000000
# 3 -0.006352 -0.004219 0.013019 0.000000 0.000000 0.000000
# 4 0.000000 0.000000 0.000000 0.061616 0.000000 0.000000
# 5 0.000000 0.000000 0.000000 0.000000 -0.385294 0.000000
# 6 0.000000 0.000000 0.000000 0.000000 0.000000 0.032913
#
#
# Mechanical properties :
#
#
# Convention : Reuss Voigt Hill
#
# Bulk Modulus (GPa) = 46.56535 88.65870 67.61203
# Shear Modulus (GPa) = -24.38559 22.27958 -1.05301
#
# Velocity S-wave (km/s) = -3.58126 3.42312 -0.74419
# Velocity P-wave (km/s) = 2.71848 7.89006 5.90098
#
# Compressibility (1/GPa) = 0.02147519
#
# Stress axis : x y z
#
# Youngs Moduli (GPa) = 109.05278 35.92997 76.80791
#
# Poissons Ratio (x) = 0.13303 0.48789
# Poissons Ratio (y) = 0.40376 0.32402
# Poissons Ratio (z) = 0.69271 0.15157
#
# Static dielectric constant tensor:
#      x y z
#    x 1.631710 0.000000 0.000000 
#    y 0.000000 1.645740 0.000000 
#    z 0.000000 0.000000 1.646430 
# 
# From -- ./inp_files/37594.got.cif
#   From: 2010.05.17/outbox.cif.g08.bks.cpg/sg21_19_cif.got.tgz:37594.got - 2010.06.03 23:14:55.
