data_PCOD9323215
_publ_section_title
;
Structure prediction by ZEFSAII (Michael W. Deem and Ramdas Pophale) SiO2 
 PCOD9323215
Probable space group: C 2 2 2
;
_chemical_formula_sum "Si O2"
_cell_formula_units_Z 64
_cell_length_a 20.378348
_cell_length_b 17.868141
_cell_length_c 9.500446
_cell_angle_alpha 90.000000
_cell_angle_beta 90.000000
_cell_angle_gamma 90.000000
_cell_volume 3459.332755
_symmetry_space_group_name_H-M "C 2 2 2"
_symmetry_group_IT_number 21
_symmetry_cell_setting 'orthorhombic'
loop_
_space_group_symop_operation_xyz
x,y,z
-x,-y,z
x,-y,-z
-x,y,-z
1/2+x,1/2+y,z
1/2-x,1/2-y,z
1/2+x,1/2-y,-z
1/2-x,1/2+y,-z
loop_
_atom_site_type_symbol
_atom_site_label
_atom_site_fract_x
_atom_site_fract_y
_atom_site_fract_z
Si Si1 0.785104 0.574280 0.088208
Si Si2 0.435268 0.662921 0.064661
Si Si3 0.866957 0.074868 0.843109
Si Si4 0.636693 0.367073 0.552457
Si Si5 0.787408 0.423293 0.580242
Si Si6 0.322908 0.784655 0.092188
Si Si7 0.936159 0.947176 0.688130
Si Si8 0.175742 0.282635 0.584363
O O1 0.705465 0.581563 0.092290
O O2 0.800741 0.569286 0.253892
O O3 0.800925 0.500000 0.000000
O O4 0.818718 0.644879 0.012073
O O5 0.375330 0.720563 0.056200
O O6 0.445826 0.626945 0.217489
O O7 0.500000 0.698939 0.000000
O O8 0.418084 0.592544 0.964462
O O9 0.878626 0.134403 0.717693
O O10 0.879337 0.996051 0.765417
O O11 0.710569 0.401620 0.552479
O O12 0.588856 0.419918 0.463246
O O13 0.635529 0.286673 0.478416
O O14 0.800723 0.500000 0.500000
O O15 0.826974 0.354436 0.514509
O O16 0.250000 0.750000 0.089113
O O17 0.338049 0.804801 0.254802
O O18 0.000000 0.000000 0.687508
O O19 0.250000 0.250000 0.582901
#
# Coordination Sequence:
#
# PCOD9323215 Si02
#       8
#     8   8   8   8   8   8   8   8
#     4  11  22  36  60  91 120 151 202 258 314 374
#     4  12  24  41  56  84 123 167 203 250 309 362
#     4  11  23  34  57  82 123 158 207 257 298 359
#     4  10  21  37  53  80 115 164 209 254 296 355
#     4  10  20  34  56  84 122 155 192 253 320 366
#     4  11  22  37  61  86 118 159 208 256 309 369
#     4  12  23  39  57  81 120 171 212 242 294 365
#     4   9  19  34  54  79 115 157 200 250 306 357
#
# _framework density 18.500677
#
# number of rings (size 3 to 8) (size 9 to 14) (size 15 to 20)
#    0.000    1.250    3.750    3.750    1.750    1.500 
#    0.000    0.000    0.000    0.375    0.000    0.000 
#    0.000    0.000    0.000    0.000    0.000    0.000 
#
# Total GULP energy -178686.406139 kJ/mol
# GULP energy per Si atom -5583.950192 kJ/mol
# Density = 1.845857 g / cm^3
# Si number density = 18.500677 Si / 1000 Ang^3
#
#
#
# Elastic Constant Matrix: (Units=GPa)
#
#
# Indices 1 2 3 4 5 6 
#
# 1 58.6280 33.9887 18.5647 0.0000 0.0000 0.0000
# 2 33.9887 126.0217 72.0341 0.0000 0.0000 0.0000
# 3 18.5647 72.0341 134.2767 0.0000 0.0000 0.0000
# 4 0.0000 0.0000 0.0000 37.6345 0.0000 0.0000
# 5 0.0000 0.0000 0.0000 0.0000 17.6405 0.0000
# 6 0.0000 0.0000 0.0000 0.0000 0.0000 26.4986
#
#
#
# Elastic Compliance Matrix: (Units=1/GPa)
#
#
# Indices 1 2 3 4 5 6 
#
# 1 0.020221 -0.005561 0.000188 0.000000 0.000000 0.000000
# 2 -0.005561 0.012974 -0.006191 0.000000 0.000000 0.000000
# 3 0.000188 -0.006191 0.010743 0.000000 0.000000 0.000000
# 4 0.000000 0.000000 0.000000 0.026571 0.000000 0.000000
# 5 0.000000 0.000000 0.000000 0.000000 0.056688 0.000000
# 6 0.000000 0.000000 0.000000 0.000000 0.000000 0.037738
#
#
# Mechanical properties :
#
#
# Convention : Reuss Voigt Hill
#
# Bulk Modulus (GPa) = 48.05705 63.12237 55.58971
# Shear Modulus (GPa) = 25.64106 29.31065 27.47586
#
# Velocity S-wave (km/s) = 3.72688 3.98465 3.85792
# Velocity P-wave (km/s) = 6.67471 7.44062 7.06805
#
# Compressibility (1/GPa) = 0.02080860
#
# Stress axis : x y z
#
# Youngs Moduli (GPa) = 49.45307 77.07849 93.08680
#
# Poissons Ratio (x) = 0.42863 -0.01745
# Poissons Ratio (y) = 0.27501 0.57631
# Poissons Ratio (z) = -0.00927 0.47720
#
# Static dielectric constant tensor:
#      x y z
#    x 1.645440 0.000000 0.000000 
#    y 0.000000 1.640720 0.000000 
#    z 0.000000 0.000000 1.667290 
# 
# From -- ./inp_files/17874.got.cif
#   From: 2010.05.17/outbox.cif.g08.bks.cpg/sg21_9_cif.got.tgz:17874.got - 2010.06.03 23:14:55.
