data_PCOD9323693
_publ_section_title
;
Structure prediction by ZEFSAII (Michael W. Deem and Ramdas Pophale) SiO2 
 PCOD9323693
Probable space group: C 2 2 2
;
_chemical_formula_sum "Si O2"
_cell_formula_units_Z 40
_cell_length_a 24.174717
_cell_length_b 9.726354
_cell_length_c 7.793481
_cell_angle_alpha 90.000000
_cell_angle_beta 90.000000
_cell_angle_gamma 90.000000
_cell_volume 1832.495647
_symmetry_space_group_name_H-M "C 2 2 2"
_symmetry_group_IT_number 21
_symmetry_cell_setting 'orthorhombic'
loop_
_space_group_symop_operation_xyz
x,y,z
-x,-y,z
x,-y,-z
-x,y,-z
1/2+x,1/2+y,z
1/2-x,1/2-y,z
1/2+x,1/2-y,-z
1/2-x,1/2+y,-z
loop_
_atom_site_type_symbol
_atom_site_label
_atom_site_fract_x
_atom_site_fract_y
_atom_site_fract_z
Si Si1 0.371649 0.500000 0.000000
Si Si2 0.799922 0.657700 0.472466
Si Si3 0.923532 0.606633 0.347891
Si Si4 0.312385 0.245915 0.864566
Si Si5 0.113025 0.500000 0.000000
Si Si6 0.470488 0.640477 0.817979
O O1 0.336699 0.604280 0.110145
O O2 0.410290 0.408765 0.121914
O O3 0.781257 0.500000 0.500000
O O4 0.750000 0.750000 0.397610
O O5 0.640761 0.846246 0.377729
O O6 0.688190 0.788104 0.663581
O O7 0.936285 0.500000 0.500000
O O8 0.922925 0.527422 0.167633
O O9 0.963049 0.737306 0.316571
O O10 0.250000 0.250000 0.930481
O O11 0.348499 0.130890 0.959283
O O12 0.500000 0.500000 0.756218
O O13 0.500000 0.681294 0.000000
#
# Coordination Sequence:
#
# PCOD9323693 Si02
#       6
#     4   8   8   8   4   8
#     4  10  20  40  68  97 139 188 239 293 348 408
#     4  10  22  40  61 100 153 192 236 279 334 417
#     4  11  22  42  74 107 142 188 230 291 363 424
#     4  11  22  37  62 104 146 194 243 276 336 415
#     4  12  21  40  69  97 149 188 237 287 334 420
#     4   9  21  43  75 101 132 178 241 302 363 423
#
# _framework density 21.828157000000001
#
# number of rings (size 3 to 8) (size 9 to 14) (size 15 to 20)
#    0.000    1.800    6.000    0.600    0.000    4.000 
#    0.000    0.500    0.000   32.400    0.000    0.000 
#    0.000    0.000    0.000    0.000    0.000    0.000 
#
# Total GULP energy -111795.862933 kJ/mol
# GULP energy per Si atom -5589.793147 kJ/mol
# Density = 2.177847 g / cm^3
# Si number density = 21.828157 Si / 1000 Ang^3
#
#
#
# Elastic Constant Matrix: (Units=GPa)
#
#
# Indices 1 2 3 4 5 6 
#
# 1 85.1472 63.2137 32.6227 0.0000 0.0000 0.0000
# 2 63.2137 153.3399 71.8427 0.0000 0.0000 0.0000
# 3 32.6227 71.8427 128.9113 0.0000 0.0000 0.0000
# 4 0.0000 0.0000 0.0000 47.1963 0.0000 0.0000
# 5 0.0000 0.0000 0.0000 0.0000 7.3649 0.0000
# 6 0.0000 0.0000 0.0000 0.0000 0.0000 34.0364
#
#
#
# Elastic Compliance Matrix: (Units=1/GPa)
#
#
# Indices 1 2 3 4 5 6 
#
# 1 0.016951 -0.006737 -0.000535 0.000000 0.000000 0.000000
# 2 -0.006737 0.011504 -0.004706 0.000000 0.000000 0.000000
# 3 -0.000535 -0.004706 0.010515 0.000000 0.000000 0.000000
# 4 0.000000 0.000000 0.000000 0.021188 0.000000 0.000000
# 5 0.000000 0.000000 0.000000 0.000000 0.135780 0.000000
# 6 0.000000 0.000000 0.000000 0.000000 0.000000 0.029380
#
#
# Mechanical properties :
#
#
# Convention : Reuss Voigt Hill
#
# Bulk Modulus (GPa) = 66.60693 78.08404 72.34548
# Shear Modulus (GPa) = 19.66335 31.03414 25.34874
#
# Velocity S-wave (km/s) = 3.00463 3.77470 3.41146
# Velocity P-wave (km/s) = 6.52821 7.40592 6.98087
#
# Compressibility (1/GPa) = 0.01501345
#
# Stress axis : x y z
#
# Youngs Moduli (GPa) = 58.99275 86.92739 95.09877
#
# Poissons Ratio (x) = 0.58567 0.05087
# Poissons Ratio (y) = 0.39746 0.44755
# Poissons Ratio (z) = 0.03156 0.40909
#
# Static dielectric constant tensor:
#      x y z
#    x 1.815040 0.000000 0.000000 
#    y 0.000000 1.857140 0.000000 
#    z 0.000000 0.000000 1.783660 
# 
# From -- ./inp_files/18244.got.cif
#   From: 2010.05.17/outbox.cif.g08.bks.cpg/sg21_10_cif.got.tgz:18244.got - 2010.06.03 23:14:55.
