data_PCOD9323703
_publ_section_title
;
Structure prediction by ZEFSAII (Michael W. Deem and Ramdas Pophale) SiO2 
 PCOD9323703
Probable space group: C 2 2 2
;
_chemical_formula_sum "Si O2"
_cell_formula_units_Z 30
_cell_length_a 5.406664
_cell_length_b 13.403965
_cell_length_c 17.653571
_cell_angle_alpha 90.000000
_cell_angle_beta 90.000000
_cell_angle_gamma 90.000000
_cell_volume 1279.367266
_symmetry_space_group_name_H-M "C 2 2 2"
_symmetry_group_IT_number 21
_symmetry_cell_setting 'orthorhombic'
loop_
_space_group_symop_operation_xyz
x,y,z
-x,-y,z
x,-y,-z
-x,y,-z
1/2+x,1/2+y,z
1/2-x,1/2-y,z
1/2+x,1/2-y,-z
1/2-x,1/2+y,-z
loop_
_atom_site_type_symbol
_atom_site_label
_atom_site_fract_x
_atom_site_fract_y
_atom_site_fract_z
Si Si1 0.000000 0.500000 0.500000
Si Si2 0.600221 0.145344 0.755595
Si Si3 0.250000 0.750000 0.353307
Si Si4 0.000796 0.317460 0.082828
Si Si5 0.851439 0.904052 0.387908
O O1 0.121393 0.419138 0.442560
O O2 0.750000 0.250000 0.761615
O O3 0.363701 0.168363 0.703904
O O4 0.528811 0.118256 0.840759
O O5 0.769702 0.082179 0.699595
O O6 0.476455 0.693934 0.394576
O O7 0.250000 0.250000 0.079506
O O8 0.750000 0.250000 0.091169
O O9 0.000000 0.368075 0.000000
O O10 0.000000 0.000000 0.412081
#
# Coordination Sequence:
#
# PCOD9323703 Si02
#       5
#     2   8   4   8   8
#     4  12  26  48  72  98 138 180 228 300 378 432
#     4   9  18  34  61  94 133 171 225 278 329 409
#     4  10  20  40  72 100 126 174 232 274 338 424
#     4   9  16  28  52  92 141 180 224 283 340 400
#     4  11  24  43  74  95 136 179 226 291 353 429
#
# _framework density 23.449090000000002
#
# number of rings (size 3 to 8) (size 9 to 14) (size 15 to 20)
#    0.000    2.133    1.333    2.000    0.000    0.000 
#    0.000    0.000  132.000    0.000    0.000   14.000 
#    0.000    0.000    0.000    0.000    0.000    0.000 
#
# Total GULP energy -83571.460802 kJ/mol
# GULP energy per Si atom -5571.430720 kJ/mol
# Density = 2.339572 g / cm^3
# Si number density = 23.449090 Si / 1000 Ang^3
#
#
#
# Elastic Constant Matrix: (Units=GPa)
#
#
# Indices 1 2 3 4 5 6 
#
# 1 108.1648 26.6259 42.2885 0.0000 0.0000 0.0000
# 2 26.6259 76.7816 49.6615 0.0000 0.0000 0.0000
# 3 42.2885 49.6615 213.6026 0.0000 0.0000 0.0000
# 4 0.0000 0.0000 0.0000 22.3776 0.0000 0.0000
# 5 0.0000 0.0000 0.0000 0.0000 46.7536 0.0000
# 6 0.0000 0.0000 0.0000 0.0000 0.0000 19.9686
#
#
#
# Elastic Compliance Matrix: (Units=1/GPa)
#
#
# Indices 1 2 3 4 5 6 
#
# 1 0.010475 -0.002697 -0.001447 0.000000 0.000000 0.000000
# 2 -0.002697 0.016023 -0.003191 0.000000 0.000000 0.000000
# 3 -0.001447 -0.003191 0.005710 0.000000 0.000000 0.000000
# 4 0.000000 0.000000 0.000000 0.044688 0.000000 0.000000
# 5 0.000000 0.000000 0.000000 0.000000 0.021389 0.000000
# 6 0.000000 0.000000 0.000000 0.000000 0.000000 0.050079
#
#
# Mechanical properties :
#
#
# Convention : Reuss Voigt Hill
#
# Bulk Modulus (GPa) = 57.01829 70.63344 63.82587
# Shear Modulus (GPa) = 29.60708 36.48483 33.04596
#
# Velocity S-wave (km/s) = 3.55718 3.94879 3.75809
# Velocity P-wave (km/s) = 6.42183 7.13989 6.79036
#
# Compressibility (1/GPa) = 0.01753823
#
# Stress axis : x y z
#
# Youngs Moduli (GPa) = 95.46919 62.40928 175.13064
#
# Poissons Ratio (x) = 0.16829 0.25338
# Poissons Ratio (y) = 0.25744 0.55892
# Poissons Ratio (z) = 0.13812 0.19918
#
# Static dielectric constant tensor:
#      x y z
#    x 2.058910 0.000000 0.000000 
#    y 0.000000 1.687990 0.000000 
#    z 0.000000 0.000000 1.915670 
# 
# From -- ./inp_files/34340.got.cif
#   From: 2010.05.17/outbox.cif.g08.bks.cpg/sg21_18_cif.got.tgz:34340.got - 2010.06.03 23:14:55.
