data_PCOD9323194
_publ_section_title
;
Structure prediction by ZEFSAII (Michael W. Deem and Ramdas Pophale) SiO2 
 PCOD9323194
Probable space group: C 2 2 2
;
_chemical_formula_sum "Si O2"
_cell_formula_units_Z 60
_cell_length_a 5.325026
_cell_length_b 28.113525
_cell_length_c 21.378841
_cell_angle_alpha 90.000000
_cell_angle_beta 90.000000
_cell_angle_gamma 90.000000
_cell_volume 3200.524770
_symmetry_space_group_name_H-M "C 2 2 2"
_symmetry_group_IT_number 21
_symmetry_cell_setting 'orthorhombic'
loop_
_space_group_symop_operation_xyz
x,y,z
-x,-y,z
x,-y,-z
-x,y,-z
1/2+x,1/2+y,z
1/2-x,1/2-y,z
1/2+x,1/2-y,-z
1/2-x,1/2+y,-z
loop_
_atom_site_type_symbol
_atom_site_label
_atom_site_fract_x
_atom_site_fract_y
_atom_site_fract_z
Si Si1 0.748628 0.805045 0.027843
Si Si2 0.250062 0.362284 0.539953
Si Si3 0.249325 0.529523 0.259729
Si Si4 0.750000 0.750000 0.272428
Si Si5 0.855789 0.196306 0.335333
Si Si6 0.340624 0.634231 0.213763
Si Si7 0.363357 0.821035 0.829642
Si Si8 0.252617 0.030197 0.590106
O O1 0.750000 0.750000 0.005507
O O2 0.726982 0.804864 0.102397
O O3 0.500000 0.828270 0.000000
O O4 0.000000 0.827300 0.000000
O O5 0.500000 0.354392 0.500000
O O6 0.281585 0.329328 0.601022
O O7 0.244796 0.417976 0.559170
O O8 0.000000 0.351562 0.500000
O O9 0.500000 0.500000 0.247615
O O10 0.285352 0.579344 0.225616
O O11 0.238020 0.537765 0.334816
O O12 0.000000 0.500000 0.242508
O O13 0.643991 0.709294 0.318197
O O14 0.587913 0.778517 0.220436
O O15 0.750000 0.250000 0.332550
O O16 0.783885 0.161415 0.279034
O O17 0.627522 0.647612 0.195965
O O18 0.130754 0.653058 0.165872
O O19 0.500000 0.000000 0.573059
O O20 0.000000 0.000000 0.576026
#
# Coordination Sequence:
#
# PCOD9323194 Si02
#       8
#     8   8   8   4   8   8   8   8
#     4  10  20  34  52  79 125 173 206 246 286 332
#     4  12  28  43  63  87 113 149 201 252 293 369
#     4  10  20  37  61  90 119 150 181 236 318 376
#     4  10  22  38  62  86 114 160 198 254 276 356
#     4  11  24  43  62  83 116 157 198 247 309 335
#     4  11  22  37  62  91 119 154 197 254 289 360
#     4  11  21  35  58  90 121 157 217 232 288 337
#     4  10  21  40  64  87 115 146 182 234 307 379
#
# _framework density 18.746925000000001
#
# number of rings (size 3 to 8) (size 9 to 14) (size 15 to 20)
#    0.000    1.333    3.333    2.400    1.867    2.133 
#    0.000    0.000    0.000    0.000    0.000    0.000 
#    0.000   37.333    0.000    0.000    0.000    0.000 
#
# Total GULP energy -167251.294396 kJ/mol
# GULP energy per Si atom -5575.043147 kJ/mol
# Density = 1.870426 g / cm^3
# Si number density = 18.746925 Si / 1000 Ang^3
#
#
#
# Elastic Constant Matrix: (Units=GPa)
#
#
# Indices 1 2 3 4 5 6 
#
# 1 119.9892 18.4801 28.6325 0.0000 0.0000 0.0000
# 2 18.4801 60.9974 13.2813 0.0000 0.0000 0.0000
# 3 28.6325 13.2813 55.5856 0.0000 0.0000 0.0000
# 4 0.0000 0.0000 0.0000 9.6986 0.0000 0.0000
# 5 0.0000 0.0000 0.0000 0.0000 18.6500 0.0000
# 6 0.0000 0.0000 0.0000 0.0000 0.0000 10.8183
#
#
#
# Elastic Compliance Matrix: (Units=1/GPa)
#
#
# Indices 1 2 3 4 5 6 
#
# 1 0.009718 -0.001956 -0.004539 0.000000 0.000000 0.000000
# 2 -0.001956 0.017688 -0.003219 0.000000 0.000000 0.000000
# 3 -0.004539 -0.003219 0.021097 0.000000 0.000000 0.000000
# 4 0.000000 0.000000 0.000000 0.103108 0.000000 0.000000
# 5 0.000000 0.000000 0.000000 0.000000 0.053619 0.000000
# 6 0.000000 0.000000 0.000000 0.000000 0.000000 0.092436
#
#
# Mechanical properties :
#
#
# Convention : Reuss Voigt Hill
#
# Bulk Modulus (GPa) = 34.39200 39.70667 37.04934
# Shear Modulus (GPa) = 15.30060 19.57861 17.43961
#
# Velocity S-wave (km/s) = 2.85996 3.23517 3.05333
# Velocity P-wave (km/s) = 5.41212 5.93139 5.67770
#
# Compressibility (1/GPa) = 0.02907653
#
# Stress axis : x y z
#
# Youngs Moduli (GPa) = 102.89773 56.53689 47.39972
#
# Poissons Ratio (x) = 0.11059 0.21513
# Poissons Ratio (y) = 0.20128 0.15256
# Poissons Ratio (z) = 0.46701 0.18197
#
# Static dielectric constant tensor:
#      x y z
#    x 1.787220 0.000000 0.000000 
#    y 0.000000 1.629240 0.000000 
#    z 0.000000 0.000000 1.634860 
# 
# From -- ./inp_files/35173.got.cif
#   From: 2010.05.17/outbox.cif.g08.bks.cpg/sg21_18_cif.got.tgz:35173.got - 2010.06.03 23:14:55.
