data_PCOD9323293
_publ_section_title
;
Structure prediction by ZEFSAII (Michael W. Deem and Ramdas Pophale) SiO2 
 PCOD9323293
Probable space group: C 2 2 2
;
_chemical_formula_sum "Si O2"
_cell_formula_units_Z 64
_cell_length_a 15.949784
_cell_length_b 8.445568
_cell_length_c 24.464779
_cell_angle_alpha 90.000000
_cell_angle_beta 90.000000
_cell_angle_gamma 90.000000
_cell_volume 3295.527697
_symmetry_space_group_name_H-M "C 2 2 2"
_symmetry_group_IT_number 21
_symmetry_cell_setting 'orthorhombic'
loop_
_space_group_symop_operation_xyz
x,y,z
-x,-y,z
x,-y,-z
-x,y,-z
1/2+x,1/2+y,z
1/2-x,1/2-y,z
1/2+x,1/2-y,-z
1/2-x,1/2+y,-z
loop_
_atom_site_type_symbol
_atom_site_label
_atom_site_fract_x
_atom_site_fract_y
_atom_site_fract_z
Si Si1 0.402055 0.810268 0.000000
Si Si2 0.340574 0.191198 0.381901
Si Si3 0.159360 0.189473 0.883864
Si Si4 0.097771 0.307039 0.500000
Si Si5 0.159360 0.189473 0.116136
Si Si6 0.500000 0.191481 0.689384
Si Si7 0.840574 0.691198 0.618100
Si Si8 0.500000 0.691397 0.812922
O O1 0.358979 0.747388 0.054733
O O2 0.500000 0.760767 0.000000
O O3 0.358979 0.747388 0.945267
O O4 0.398479 0.000000 0.000000
O O5 0.250000 0.250000 0.363620
O O6 0.358812 0.246263 0.444054
O O7 0.416981 0.243623 0.343369
O O8 0.340718 0.000000 0.382320
O O9 0.250000 0.250000 0.865627
O O10 0.082999 0.245104 0.845466
O O11 0.159776 0.000000 0.883826
O O12 0.099110 0.500000 0.500000
O O13 0.141188 0.253737 0.555946
O O14 0.000000 0.260758 0.500000
O O15 0.250000 0.250000 0.134373
O O16 0.082999 0.245104 0.154534
O O17 0.416981 0.243623 0.656631
O O18 0.500000 0.250419 0.751097
O O19 0.500000 0.000000 0.689238
O O20 0.750000 0.750000 0.636380
O O21 0.500000 0.500000 0.813247
#
# Coordination Sequence:
#
# PCOD9323293 Si02
#       8
#     8   8   8   8   8   8   8   8
#     4  11  22  37  62  94 124 156 192 233 287 347
#     4  10  20  35  57  85 113 148 188 232 284 340
#     4  11  23  41  63  89 120 155 194 238 289 344
#     4   9  15  30  57  82 111 148 187 227 276 342
#     4  11  23  41  63  89 120 155 194 238 289 344
#     4  10  22  39  59  81 110 150 196 236 281 342
#     4  10  20  35  57  85 113 148 188 232 284 340
#     4  10  24  43  62  83 114 154 195 242 293 336
#
# _framework density 19.420259000000001
#
# number of rings (size 3 to 8) (size 9 to 14) (size 15 to 20)
#    0.000    1.750    2.500    1.875    0.000    4.500 
#    0.000    5.000    0.000    0.750    0.000    0.000 
#    0.000    0.000    0.000    0.000    0.000    0.000 
#
# Total GULP energy -178820.998206 kJ/mol
# GULP energy per Si atom -5588.156194 kJ/mol
# Density = 1.937606 g / cm^3
# Si number density = 19.420259 Si / 1000 Ang^3
#
#
#
# Elastic Constant Matrix: (Units=GPa)
#
#
# Indices 1 2 3 4 5 6 
#
# 1 207.2891 28.2606 95.1840 0.0000 0.0000 0.0000
# 2 28.2606 18.3300 19.6587 0.0000 0.0000 0.0000
# 3 95.1840 19.6587 160.5685 0.0000 0.0000 0.0000
# 4 0.0000 0.0000 0.0000 35.9368 0.0000 0.0000
# 5 0.0000 0.0000 0.0000 0.0000 5.0393 0.0000
# 6 0.0000 0.0000 0.0000 0.0000 0.0000 28.4376
#
#
#
# Elastic Compliance Matrix: (Units=1/GPa)
#
#
# Indices 1 2 3 4 5 6 
#
# 1 0.007488 -0.007810 -0.003483 0.000000 0.000000 0.000000
# 2 -0.007810 0.070947 -0.004057 0.000000 0.000000 0.000000
# 3 -0.003483 -0.004057 0.008789 0.000000 0.000000 0.000000
# 4 0.000000 0.000000 0.000000 0.027827 0.000000 0.000000
# 5 0.000000 0.000000 0.000000 0.000000 0.198440 0.000000
# 6 0.000000 0.000000 0.000000 0.000000 0.000000 0.035165
#
#
# Mechanical properties :
#
#
# Convention : Reuss Voigt Hill
#
# Bulk Modulus (GPa) = 17.69097 74.71046 46.20071
# Shear Modulus (GPa) = 12.55662 30.08834 21.32248
#
# Velocity S-wave (km/s) = 2.54554 3.94042 3.31713
# Velocity P-wave (km/s) = 4.21533 7.69782 6.20586
#
# Compressibility (1/GPa) = 0.05652602
#
# Stress axis : x y z
#
# Youngs Moduli (GPa) = 133.54414 14.09502 113.77746
#
# Poissons Ratio (x) = 0.11008 0.39626
# Poissons Ratio (y) = 1.04296 0.46155
# Poissons Ratio (z) = 0.46510 0.05718
#
# Static dielectric constant tensor:
#      x y z
#    x 1.679980 0.000000 0.000000 
#    y 0.000000 1.669310 0.000000 
#    z 0.000000 0.000000 1.645040 
# 
# From -- ./inp_files/38742.got.cif
#   From: 2010.05.17/outbox.cif.g08.bks.cpg/sg21_20_cif.got.tgz:38742.got - 2010.06.03 23:14:55.
