data_PCOD9323026
_publ_section_title
;
Structure prediction by ZEFSAII (Michael W. Deem and Ramdas Pophale) SiO2 
 PCOD9323026
Probable space group: C 2 2 2
;
_chemical_formula_sum "Si O2"
_cell_formula_units_Z 48
_cell_length_a 11.004325
_cell_length_b 12.402439
_cell_length_c 17.065385
_cell_angle_alpha 90.000000
_cell_angle_beta 90.000000
_cell_angle_gamma 90.000000
_cell_volume 2329.091758
_symmetry_space_group_name_H-M "C 2 2 2"
_symmetry_group_IT_number 21
_symmetry_cell_setting 'orthorhombic'
loop_
_space_group_symop_operation_xyz
x,y,z
-x,-y,z
x,-y,-z
-x,y,-z
1/2+x,1/2+y,z
1/2-x,1/2-y,z
1/2+x,1/2-y,-z
1/2-x,1/2+y,-z
loop_
_atom_site_type_symbol
_atom_site_label
_atom_site_fract_x
_atom_site_fract_y
_atom_site_fract_z
Si Si1 0.145418 0.838497 0.821935
Si Si2 0.625189 0.559904 0.343433
Si Si3 0.487784 0.178179 0.907283
Si Si4 0.364306 0.029507 0.406868
Si Si5 0.198757 0.498679 0.907591
Si Si6 0.624794 0.744797 0.460617
O O1 0.250000 0.750000 0.838257
O O2 0.141157 0.862298 0.730286
O O3 0.025060 0.782315 0.857007
O O4 0.187922 0.951013 0.861433
O O5 0.500000 0.500000 0.329909
O O6 0.746999 0.489458 0.359164
O O7 0.608499 0.629627 0.422248
O O8 0.359590 0.118665 0.889734
O O9 0.589241 0.084704 0.894244
O O10 0.500000 0.204364 0.000000
O O11 0.354618 0.159138 0.398992
O O12 0.500000 0.000000 0.380655
O O13 0.354187 0.000000 0.500000
O O14 0.225959 0.500000 0.000000
O O15 0.500000 0.775840 0.500000
O O16 0.750000 0.750000 0.509810
#
# Coordination Sequence:
#
# PCOD9323026 Si02
#       6
#     8   8   8   8   8   8
#     4  10  19  38  59  85 121 168 205 252 319 379
#     4  11  26  40  57  88 131 162 195 246 317 378
#     4   8  15  31  58  88 115 154 206 263 307 363
#     4  10  20  40  65  93 114 149 207 256 293 366
#     4   8  15  31  57  88 116 151 210 259 308 369
#     4  10  21  37  62  88 115 151 194 246 297 363
#
# _framework density 20.608892000000001
#
# number of rings (size 3 to 8) (size 9 to 14) (size 15 to 20)
#    0.000    2.500    1.667    2.500    4.667    0.000 
#   12.000    0.000    0.000    0.000    0.000    0.000 
#    0.000    0.000    0.000    0.000    0.000    0.000 
#
# Total GULP energy -133601.222890 kJ/mol
# GULP energy per Si atom -5566.717620 kJ/mol
# Density = 2.056198 g / cm^3
# Si number density = 20.608892 Si / 1000 Ang^3
#
#
#
# Elastic Constant Matrix: (Units=GPa)
#
#
# Indices 1 2 3 4 5 6 
#
# 1 116.1168 36.7642 34.1074 0.0000 0.0000 0.0000
# 2 36.7642 53.3604 24.8774 0.0000 0.0000 0.0000
# 3 34.1074 24.8774 48.4857 0.0000 0.0000 0.0000
# 4 0.0000 0.0000 0.0000 26.3617 0.0000 0.0000
# 5 0.0000 0.0000 0.0000 0.0000 14.1022 0.0000
# 6 0.0000 0.0000 0.0000 0.0000 0.0000 20.6534
#
#
#
# Elastic Compliance Matrix: (Units=1/GPa)
#
#
# Indices 1 2 3 4 5 6 
#
# 1 0.012051 -0.005718 -0.005543 0.000000 0.000000 0.000000
# 2 -0.005718 0.027346 -0.010008 0.000000 0.000000 0.000000
# 3 -0.005543 -0.010008 0.029659 0.000000 0.000000 0.000000
# 4 0.000000 0.000000 0.000000 0.037934 0.000000 0.000000
# 5 0.000000 0.000000 0.000000 0.000000 0.070911 0.000000
# 6 0.000000 0.000000 0.000000 0.000000 0.000000 0.048418
#
#
# Mechanical properties :
#
#
# Convention : Reuss Voigt Hill
#
# Bulk Modulus (GPa) = 37.71254 45.49567 41.60410
# Shear Modulus (GPa) = 18.00517 20.37106 19.18811
#
# Velocity S-wave (km/s) = 2.95898 3.14739 3.05464
# Velocity P-wave (km/s) = 5.47841 5.94405 5.71597
#
# Compressibility (1/GPa) = 0.02651638
#
# Stress axis : x y z
#
# Youngs Moduli (GPa) = 82.98243 36.56782 33.71642
#
# Poissons Ratio (x) = 0.20911 0.18689
# Poissons Ratio (y) = 0.47453 0.33745
# Poissons Ratio (z) = 0.45998 0.36599
#
# Static dielectric constant tensor:
#      x y z
#    x 1.832550 0.000000 0.000000 
#    y 0.000000 1.781620 0.000000 
#    z 0.000000 0.000000 1.710250 
# 
# From -- ./inp_files/36181.got.cif
#   From: 2010.05.17/outbox.cif.g08.bks.cpg/sg21_19_cif.got.tgz:36181.got - 2010.06.03 23:14:55.
