data_PCOD9323108
_publ_section_title
;
Structure prediction by ZEFSAII (Michael W. Deem and Ramdas Pophale) SiO2 
 PCOD9323108
Probable space group: C 2 2 2
;
_chemical_formula_sum "Si O2"
_cell_formula_units_Z 60
_cell_length_a 27.142862
_cell_length_b 19.503246
_cell_length_c 5.610752
_cell_angle_alpha 90.000000
_cell_angle_beta 90.000000
_cell_angle_gamma 90.000000
_cell_volume 2970.185751
_symmetry_space_group_name_H-M "C 2 2 2"
_symmetry_group_IT_number 21
_symmetry_cell_setting 'orthorhombic'
loop_
_space_group_symop_operation_xyz
x,y,z
-x,-y,z
x,-y,-z
-x,y,-z
1/2+x,1/2+y,z
1/2-x,1/2-y,z
1/2+x,1/2-y,-z
1/2-x,1/2+y,-z
loop_
_atom_site_type_symbol
_atom_site_label
_atom_site_fract_x
_atom_site_fract_y
_atom_site_fract_z
Si Si1 0.926485 0.413362 0.129712
Si Si2 0.098443 0.250743 0.913280
Si Si3 0.835964 0.500000 0.000000
Si Si4 0.552637 0.733837 0.410304
Si Si5 0.296390 0.301408 0.053576
Si Si6 0.264884 0.329788 0.559035
Si Si7 0.321731 0.076746 0.401813
Si Si8 0.061358 0.395313 0.374188
O O1 0.915327 0.331569 0.109033
O O2 0.875570 0.455052 0.149341
O O3 0.954458 0.425284 0.373845
O O4 0.950190 0.429554 0.876264
O O5 0.088103 0.223547 0.642899
O O6 0.154526 0.241793 0.997137
O O7 0.069049 0.215957 0.138245
O O8 0.806089 0.559117 0.130265
O O9 0.500000 0.706304 0.500000
O O10 0.547051 0.816061 0.377572
O O11 0.250000 0.250000 0.069278
O O12 0.289075 0.346578 0.814288
O O13 0.296748 0.336801 0.314901
O O14 0.250000 0.250000 0.573895
O O15 0.214688 0.371713 0.524620
O O16 0.378085 0.102036 0.384160
O O17 0.316837 0.000000 0.500000
#
# Coordination Sequence:
#
# PCOD9323108 Si02
#       8
#     8   8   4   8   8   8   8   8
#     4   9  18  28  45  68  87 122 162 215 264 309
#     4  10  20  34  54  72 105 137 176 225 283 334
#     4  10  20  28  48  68  97 124 186 222 279 306
#     4  10  20  33  54  77 101 134 185 232 289 337
#     4  10  22  33  51  75 106 139 177 224 280 334
#     4  10  24  33  51  75 110 137 186 235 281 322
#     4  11  22  34  53  74 106 144 196 234 281 320
#     4   9  19  30  47  67  95 124 171 220 273 314
#
# _framework density 20.200755000000001
#
# number of rings (size 3 to 8) (size 9 to 14) (size 15 to 20)
#    0.000    2.133    1.333    1.200   20.533    0.000 
#    0.000    0.000    0.000    0.400    0.000    3.733 
#    0.000    0.000    0.000    0.000    0.000   46.667 
#
# Total GULP energy -167093.811265 kJ/mol
# GULP energy per Si atom -5569.793709 kJ/mol
# Density = 2.015478 g / cm^3
# Si number density = 20.200755 Si / 1000 Ang^3
#
#
#
# Elastic Constant Matrix: (Units=GPa)
#
#
# Indices 1 2 3 4 5 6 
#
# 1 64.8898 15.7344 19.6154 0.0000 0.0000 0.0000
# 2 15.7344 27.0025 4.0740 0.0000 0.0000 0.0000
# 3 19.6154 4.0740 184.1894 0.0000 0.0000 0.0000
# 4 0.0000 0.0000 0.0000 18.5276 0.0000 0.0000
# 5 0.0000 0.0000 0.0000 0.0000 27.3217 0.0000
# 6 0.0000 0.0000 0.0000 0.0000 0.0000 7.6881
#
#
#
# Elastic Compliance Matrix: (Units=1/GPa)
#
#
# Indices 1 2 3 4 5 6 
#
# 1 0.018484 -0.010508 -0.001736 0.000000 0.000000 0.000000
# 2 -0.010508 0.043132 0.000165 0.000000 0.000000 0.000000
# 3 -0.001736 0.000165 0.005610 0.000000 0.000000 0.000000
# 4 0.000000 0.000000 0.000000 0.053974 0.000000 0.000000
# 5 0.000000 0.000000 0.000000 0.000000 0.036601 0.000000
# 6 0.000000 0.000000 0.000000 0.000000 0.000000 0.130072
#
#
# Mechanical properties :
#
#
# Convention : Reuss Voigt Hill
#
# Bulk Modulus (GPa) = 23.21950 39.43658 31.32804
# Shear Modulus (GPa) = 15.31925 26.48466 20.90195
#
# Velocity S-wave (km/s) = 2.75680 3.62480 3.22018
# Velocity P-wave (km/s) = 4.65324 6.08963 5.41924
#
# Compressibility (1/GPa) = 0.04306726
#
# Stress axis : x y z
#
# Youngs Moduli (GPa) = 54.10199 23.18464 178.23976
#
# Poissons Ratio (x) = 0.24364 0.30942
# Poissons Ratio (y) = 0.56853 -0.02943
# Poissons Ratio (z) = 0.09392 -0.00383
#
# Static dielectric constant tensor:
#      x y z
#    x 1.762140 0.000000 0.000000 
#    y 0.000000 1.678310 0.000000 
#    z 0.000000 0.000000 2.077710 
# 
# From -- ./inp_files/6827.got.cif
#   From: 2010.05.17/outbox.cif.g08.bks.cpg/sg21_4_cif.got.tgz:6827.got - 2010.06.03 23:14:55.
