data_PCOD9323284
_publ_section_title
;
Structure prediction by ZEFSAII (Michael W. Deem and Ramdas Pophale) SiO2 
 PCOD9323284
Probable space group: C 2 2 2
;
_chemical_formula_sum "Si O2"
_cell_formula_units_Z 36
_cell_length_a 20.730465
_cell_length_b 16.290371
_cell_length_c 5.298375
_cell_angle_alpha 90.000000
_cell_angle_beta 90.000000
_cell_angle_gamma 90.000000
_cell_volume 1789.298145
_symmetry_space_group_name_H-M "C 2 2 2"
_symmetry_group_IT_number 21
_symmetry_cell_setting 'orthorhombic'
loop_
_space_group_symop_operation_xyz
x,y,z
-x,-y,z
x,-y,-z
-x,y,-z
1/2+x,1/2+y,z
1/2-x,1/2-y,z
1/2+x,1/2-y,-z
1/2-x,1/2+y,-z
loop_
_atom_site_type_symbol
_atom_site_label
_atom_site_fract_x
_atom_site_fract_y
_atom_site_fract_z
Si Si1 0.598539 0.724962 0.285047
Si Si2 0.572749 0.535830 0.251418
Si Si3 0.500000 0.147852 0.500000
Si Si4 0.324494 0.227298 0.784175
Si Si5 0.384018 0.947034 0.255014
O O1 0.570546 0.633528 0.263948
O O2 0.543086 0.792852 0.324695
O O3 0.642545 0.734361 0.534527
O O4 0.638706 0.742130 0.033498
O O5 0.500000 0.500000 0.250780
O O6 0.605660 0.500000 0.500000
O O7 0.604457 0.500000 0.000000
O O8 0.547077 0.092875 0.330422
O O9 0.250000 0.250000 0.794297
O O10 0.336110 0.129582 0.774789
O O11 0.365107 0.000000 0.500000
O O12 0.387388 0.000000 0.000000
#
# Coordination Sequence:
#
# PCOD9323284 Si02
#       5
#     8   8   4   8   8
#     4  11  23  40  65  94 124 167 210 252 313 378
#     4  10  20  35  56  87 128 162 194 250 310 366
#     4  10  23  38  65  98 130 162 198 250 323 390
#     4  11  25  46  66  87 122 171 217 255 297 363
#     4  11  24  41  63  95 127 159 200 258 316 369
#
# _framework density 20.119617999999999
#
# number of rings (size 3 to 8) (size 9 to 14) (size 15 to 20)
#    0.000    1.333    0.000    6.333    0.000   16.000 
#    0.000    6.667    0.000    0.000    0.000    0.000 
#    0.000    0.000    0.000    0.000    0.000    0.000 
#
# Total GULP energy -100666.363999 kJ/mol
# GULP energy per Si atom -5592.575778 kJ/mol
# Density = 2.007383 g / cm^3
# Si number density = 20.119618 Si / 1000 Ang^3
#
#
#
# Elastic Constant Matrix: (Units=GPa)
#
#
# Indices 1 2 3 4 5 6 
#
# 1 106.4373 76.3486 45.0248 0.0000 0.0000 0.0000
# 2 76.3486 192.2174 89.7938 0.0000 0.0000 0.0000
# 3 45.0248 89.7938 198.7098 0.0000 0.0000 0.0000
# 4 0.0000 0.0000 0.0000 -26.5100 0.0000 0.0000
# 5 0.0000 0.0000 0.0000 0.0000 14.8817 0.0000
# 6 0.0000 0.0000 0.0000 0.0000 0.0000 10.4472
#
#
#
# Elastic Compliance Matrix: (Units=1/GPa)
#
#
# Indices 1 2 3 4 5 6 
#
# 1 0.013236 -0.004888 -0.000790 0.000000 0.000000 0.000000
# 2 -0.004888 0.008400 -0.002688 0.000000 0.000000 0.000000
# 3 -0.000790 -0.002688 0.006426 0.000000 0.000000 0.000000
# 4 0.000000 0.000000 0.000000 -0.037722 0.000000 0.000000
# 5 0.000000 0.000000 0.000000 0.000000 0.067197 0.000000
# 6 0.000000 0.000000 0.000000 0.000000 0.000000 0.095719
#
#
# Mechanical properties :
#
#
# Convention : Reuss Voigt Hill
#
# Bulk Modulus (GPa) = 88.26980 102.18874 95.22927
# Shear Modulus (GPa) = 28.77442 18.84359 23.80901
#
# Velocity S-wave (km/s) = 3.78586 3.06368 3.44375
# Velocity P-wave (km/s) = 7.94217 7.96340 7.95279
#
# Compressibility (1/GPa) = 0.01132890
#
# Stress axis : x y z
#
# Youngs Moduli (GPa) = 75.55294 119.05114 155.61210
#
# Poissons Ratio (x) = 0.58193 0.12296
# Poissons Ratio (y) = 0.36931 0.41831
# Poissons Ratio (z) = 0.05970 0.32003
#
# Static dielectric constant tensor:
#      x y z
#    x 1.667180 0.000000 0.000000 
#    y 0.000000 1.709280 0.000000 
#    z 0.000000 0.000000 1.706830 
# 
# From -- ./inp_files/5703.got.cif
#   From: 2010.05.17/outbox.cif.g08.bks.cpg/sg21_3_cif.got.tgz:5703.got - 2010.06.03 23:14:55.
