data_PCOD9323463
_publ_section_title
;
Structure prediction by ZEFSAII (Michael W. Deem and Ramdas Pophale) SiO2 
 PCOD9323463
Probable space group: C 2 2 2
;
_chemical_formula_sum "Si O2"
_cell_formula_units_Z 58
_cell_length_a 9.099948
_cell_length_b 17.490043
_cell_length_c 17.821142
_cell_angle_alpha 90.000000
_cell_angle_beta 90.000000
_cell_angle_gamma 90.000000
_cell_volume 2836.385905
_symmetry_space_group_name_H-M "C 2 2 2"
_symmetry_group_IT_number 21
_symmetry_cell_setting 'orthorhombic'
loop_
_space_group_symop_operation_xyz
x,y,z
-x,-y,z
x,-y,-z
-x,y,-z
1/2+x,1/2+y,z
1/2-x,1/2-y,z
1/2+x,1/2-y,-z
1/2-x,1/2+y,-z
loop_
_atom_site_type_symbol
_atom_site_label
_atom_site_fract_x
_atom_site_fract_y
_atom_site_fract_z
Si Si1 0.679199 0.442096 0.857853
Si Si2 0.634498 0.607039 0.807275
Si Si3 0.449915 0.915511 0.413742
Si Si4 0.000000 0.000000 0.000000
Si Si5 0.421054 0.232897 0.332252
Si Si6 0.321426 0.333164 0.643579
Si Si7 0.389792 0.805285 0.839043
Si Si8 0.392917 0.280623 0.940334
O O1 0.705361 0.525351 0.823526
O O2 0.542978 0.405268 0.810817
O O3 0.820067 0.388656 0.850519
O O4 0.609941 0.457583 0.940671
O O5 0.688655 0.640052 0.729483
O O6 0.662036 0.663115 0.876146
O O7 0.500000 0.912868 0.500000
O O8 0.531523 0.845195 0.372934
O O9 0.275870 0.894226 0.403004
O O10 0.500000 0.000000 0.385524
O O11 0.250000 0.250000 0.339755
O O12 0.508488 0.307180 0.364195
O O13 0.450941 0.215579 0.243836
O O14 0.250000 0.250000 0.632700
O O15 0.250000 0.750000 0.848515
O O16 0.512219 0.784320 0.899525
O O17 0.250000 0.250000 0.980836
O O18 0.500000 0.317853 0.000000
#
# Coordination Sequence:
#
# PCOD9323463 Si02
#       8
#     8   8   8   2   8   8   8   8
#     4  10  22  34  61  90 123 170 218 280 331 395
#     4  10  20  37  60  93 123 164 222 265 336 394
#     4  10  24  44  66  97 138 177 216 271 345 411
#     4   8  20  36  56  88 130 176 228 278 352 396
#     4  10  21  38  68  99 133 172 219 280 326 405
#     4  10  20  40  67  94 128 172 217 277 328 405
#     4  11  21  40  61  91 127 161 227 278 330 390
#     4  12  26  39  62  86 126 173 221 279 340 395
#
# _framework density 20.448557999999998
#
# number of rings (size 3 to 8) (size 9 to 14) (size 15 to 20)
#    0.000    1.793    2.759    1.655    7.724    1.655 
#    0.000    0.690    0.000    2.483    0.000    0.000 
#    0.000    0.000    0.000    0.000    0.000    0.000 
#
# Total GULP energy -161734.439386 kJ/mol
# GULP energy per Si atom -5577.049634 kJ/mol
# Density = 2.040202 g / cm^3
# Si number density = 20.448558 Si / 1000 Ang^3
#
#
#
# Elastic Constant Matrix: (Units=GPa)
#
#
# Indices 1 2 3 4 5 6 
#
# 1 93.0891 35.1227 23.9214 0.0000 0.0000 0.0000
# 2 35.1227 107.2785 13.1651 0.0000 0.0000 0.0000
# 3 23.9214 13.1651 68.8760 0.0000 0.0000 0.0000
# 4 0.0000 0.0000 0.0000 28.7307 0.0000 0.0000
# 5 0.0000 0.0000 0.0000 0.0000 23.3013 0.0000
# 6 0.0000 0.0000 0.0000 0.0000 0.0000 17.5222
#
#
#
# Elastic Compliance Matrix: (Units=1/GPa)
#
#
# Indices 1 2 3 4 5 6 
#
# 1 0.013180 -0.003844 -0.003843 0.000000 0.000000 0.000000
# 2 -0.003844 0.010666 -0.000704 0.000000 0.000000 0.000000
# 3 -0.003843 -0.000704 0.015988 0.000000 0.000000 0.000000
# 4 0.000000 0.000000 0.000000 0.034806 0.000000 0.000000
# 5 0.000000 0.000000 0.000000 0.000000 0.042916 0.000000
# 6 0.000000 0.000000 0.000000 0.000000 0.000000 0.057070
#
#
# Mechanical properties :
#
#
# Convention : Reuss Voigt Hill
#
# Bulk Modulus (GPa) = 43.37683 45.96244 44.66964
# Shear Modulus (GPa) = 25.11399 27.04647 26.08023
#
# Velocity S-wave (km/s) = 3.50831 3.64078 3.57516
# Velocity P-wave (km/s) = 6.13756 6.34032 6.23976
#
# Compressibility (1/GPa) = 0.02305378
#
# Stress axis : x y z
#
# Youngs Moduli (GPa) = 75.87200 93.75343 62.54658
#
# Poissons Ratio (x) = 0.36034 0.24036
# Poissons Ratio (y) = 0.29162 0.04402
# Poissons Ratio (z) = 0.29157 0.06599
#
# Static dielectric constant tensor:
#      x y z
#    x 1.845950 0.000000 0.000000 
#    y 0.000000 1.807550 0.000000 
#    z 0.000000 0.000000 1.745150 
# 
# From -- ./inp_files/35835.got.cif
#   From: 2010.05.17/outbox.cif.g08.bks.cpg/sg21_18_cif.got.tgz:35835.got - 2010.06.03 23:14:55.
