data_PCOD9323733
_publ_section_title
;
Structure prediction by ZEFSAII (Michael W. Deem and Ramdas Pophale) SiO2 
 PCOD9323733
Probable space group: C 2 2 2
;
_chemical_formula_sum "Si O2"
_cell_formula_units_Z 48
_cell_length_a 25.677791
_cell_length_b 16.332644
_cell_length_c 5.366831
_cell_angle_alpha 90.000000
_cell_angle_beta 90.000000
_cell_angle_gamma 90.000000
_cell_volume 2250.774962
_symmetry_space_group_name_H-M "C 2 2 2"
_symmetry_group_IT_number 21
_symmetry_cell_setting 'orthorhombic'
loop_
_space_group_symop_operation_xyz
x,y,z
-x,-y,z
x,-y,-z
-x,y,-z
1/2+x,1/2+y,z
1/2-x,1/2-y,z
1/2+x,1/2-y,-z
1/2-x,1/2+y,-z
loop_
_atom_site_type_symbol
_atom_site_label
_atom_site_fract_x
_atom_site_fract_y
_atom_site_fract_z
Si Si1 0.662010 0.500000 0.500000
Si Si2 0.000000 0.215965 0.500000
Si Si3 0.000000 0.676542 0.000000
Si Si4 0.700209 0.916631 0.654570
Si Si5 0.386085 0.165257 0.912454
Si Si6 0.197378 0.278799 0.286274
Si Si7 0.225121 0.000000 0.000000
Si Si8 0.115167 0.827771 0.420735
O O1 0.693536 0.525893 0.248447
O O2 0.631217 0.421822 0.391195
O O3 0.944752 0.170224 0.511078
O O4 0.000509 0.270450 0.251747
O O5 0.056825 0.635961 0.010516
O O6 0.640699 0.895439 0.718216
O O7 0.718885 0.837706 0.503267
O O8 0.703069 0.000000 0.500000
O O9 0.736949 0.930184 0.892509
O O10 0.386331 0.258672 0.799895
O O11 0.344265 0.169250 0.131353
O O12 0.250000 0.250000 0.150004
O O13 0.159680 0.209051 0.398540
#
# Coordination Sequence:
#
# PCOD9323733 Si02
#       8
#     4   4   4   8   8   8   4   8
#     4  12  28  41  70 100 144 187 230 282 350 402
#     4  10  20  41  70  94 139 180 234 282 339 394
#     4  10  20  42  70 100 130 178 232 284 342 402
#     4  11  24  43  66 100 136 185 225 280 356 411
#     4  10  23  40  71  99 136 182 235 285 343 416
#     4  11  23  40  66 103 135 175 234 284 337 418
#     4  12  26  46  66  92 142 192 218 278 354 428
#     4  10  24  42  63 104 135 186 232 287 334 408
#
# _framework density 21.325987000000001
#
# number of rings (size 3 to 8) (size 9 to 14) (size 15 to 20)
#    0.000    1.333    2.500    2.000    4.667    3.000 
#    0.000    0.000    0.000    9.500    0.000    0.000 
#    0.000    0.000    0.000    0.000    0.000    0.000 
#
# Total GULP energy -133737.135295 kJ/mol
# GULP energy per Si atom -5572.380637 kJ/mol
# Density = 2.127745 g / cm^3
# Si number density = 21.325987 Si / 1000 Ang^3
#
#
#
# Elastic Constant Matrix: (Units=GPa)
#
#
# Indices 1 2 3 4 5 6 
#
# 1 155.5745 16.8544 32.9371 0.0000 0.0000 0.0000
# 2 16.8544 69.6889 14.6919 0.0000 0.0000 0.0000
# 3 32.9371 14.6919 88.4333 0.0000 0.0000 0.0000
# 4 0.0000 0.0000 0.0000 15.6671 0.0000 0.0000
# 5 0.0000 0.0000 0.0000 0.0000 31.6020 0.0000
# 6 0.0000 0.0000 0.0000 0.0000 0.0000 23.0444
#
#
#
# Elastic Compliance Matrix: (Units=1/GPa)
#
#
# Indices 1 2 3 4 5 6 
#
# 1 0.007073 -0.001197 -0.002435 0.000000 0.000000 0.000000
# 2 -0.001197 0.015073 -0.002058 0.000000 0.000000 0.000000
# 3 -0.002435 -0.002058 0.012557 0.000000 0.000000 0.000000
# 4 0.000000 0.000000 0.000000 0.063828 0.000000 0.000000
# 5 0.000000 0.000000 0.000000 0.000000 0.031644 0.000000
# 6 0.000000 0.000000 0.000000 0.000000 0.000000 0.043394
#
#
# Mechanical properties :
#
#
# Convention : Reuss Voigt Hill
#
# Bulk Modulus (GPa) = 42.87946 49.18483 46.03215
# Shear Modulus (GPa) = 25.94373 30.67692 28.31033
#
# Velocity S-wave (km/s) = 3.49167 3.79684 3.64745
# Velocity P-wave (km/s) = 6.03373 6.50651 6.27458
#
# Compressibility (1/GPa) = 0.02332119
#
# Stress axis : x y z
#
# Youngs Moduli (GPa) = 141.38041 66.34404 79.63679
#
# Poissons Ratio (x) = 0.07943 0.19396
# Poissons Ratio (y) = 0.16926 0.16391
# Poissons Ratio (z) = 0.34433 0.13655
#
# Static dielectric constant tensor:
#      x y z
#    x 1.822390 0.000000 0.000000 
#    y 0.000000 1.761320 0.000000 
#    z 0.000000 0.000000 1.851940 
# 
# From -- ./inp_files/7403.got.cif
#   From: 2010.05.17/outbox.cif.g08.bks.cpg/sg21_4_cif.got.tgz:7403.got - 2010.06.03 23:14:55.
