data_PCOD9323738
_publ_section_title
;
Structure prediction by ZEFSAII (Michael W. Deem and Ramdas Pophale) SiO2 
 PCOD9323738
Probable space group: C 2 2 2
;
_chemical_formula_sum "Si O2"
_cell_formula_units_Z 40
_cell_length_a 15.848272
_cell_length_b 17.642906
_cell_length_c 5.369984
_cell_angle_alpha 90.000000
_cell_angle_beta 90.000000
_cell_angle_gamma 90.000000
_cell_volume 1501.498934
_symmetry_space_group_name_H-M "C 2 2 2"
_symmetry_group_IT_number 21
_symmetry_cell_setting 'orthorhombic'
loop_
_space_group_symop_operation_xyz
x,y,z
-x,-y,z
x,-y,-z
-x,y,-z
1/2+x,1/2+y,z
1/2-x,1/2-y,z
1/2+x,1/2-y,-z
1/2-x,1/2+y,-z
loop_
_atom_site_type_symbol
_atom_site_label
_atom_site_fract_x
_atom_site_fract_y
_atom_site_fract_z
Si Si1 0.366081 0.359001 0.679234
Si Si2 0.000000 0.188210 0.000000
Si Si3 0.713505 0.164102 0.993719
Si Si4 0.907279 0.710776 0.388180
Si Si5 0.209430 0.000000 0.500000
Si Si6 0.371229 0.965182 0.247845
O O1 0.458292 0.362275 0.791125
O O2 0.300794 0.370783 0.905185
O O3 0.363847 0.274945 0.559920
O O4 0.344401 0.424506 0.489367
O O5 0.934819 0.243268 0.861876
O O6 0.750000 0.250000 0.989891
O O7 0.836075 0.344351 0.729590
O O8 0.645894 0.124608 0.191347
O O9 0.000000 0.686041 0.500000
O O10 0.276489 0.001914 0.723944
O O11 0.410572 0.000000 0.500000
O O12 0.409639 0.000000 0.000000
#
# Coordination Sequence:
#
# PCOD9323738 Si02
#       6
#     8   4   8   8   4   8
#     4  10  21  40  61  93 139 194 255 322 370 462
#     4  10  20  42  55  90 139 182 242 316 384 438
#     4  11  22  38  68 101 134 198 263 301 375 465
#     4  10  23  41  61  94 147 183 247 328 386 450
#     4   8  20  36  57  86 132 192 245 300 373 432
#     4   9  21  38  58  95 145 176 232 320 371 426
#
# _framework density 26.640044
#
# number of rings (size 3 to 8) (size 9 to 14) (size 15 to 20)
#    0.600    1.600    2.000    0.000    2.800    2.400 
#    0.000    5.500    0.000    0.000    0.000    0.700 
#    6.000    0.000    0.000    0.000    0.800    0.000 
#
# Total GULP energy -111398.035252 kJ/mol
# GULP energy per Si atom -5569.901763 kJ/mol
# Density = 2.657941 g / cm^3
# Si number density = 26.640044 Si / 1000 Ang^3
#
#
#
# Elastic Constant Matrix: (Units=GPa)
#
#
# Indices 1 2 3 4 5 6 
#
# 1 73.5654 61.2064 32.3786 0.0000 0.0000 0.0000
# 2 61.2064 151.5293 41.6750 0.0000 0.0000 0.0000
# 3 32.3786 41.6750 169.0176 0.0000 0.0000 0.0000
# 4 0.0000 0.0000 0.0000 27.2085 0.0000 0.0000
# 5 0.0000 0.0000 0.0000 0.0000 38.6724 0.0000
# 6 0.0000 0.0000 0.0000 0.0000 0.0000 9.9257
#
#
#
# Elastic Compliance Matrix: (Units=1/GPa)
#
#
# Indices 1 2 3 4 5 6 
#
# 1 0.021138 -0.007964 -0.002086 0.000000 0.000000 0.000000
# 2 -0.007964 0.010080 -0.000960 0.000000 0.000000 0.000000
# 3 -0.002086 -0.000960 0.006553 0.000000 0.000000 0.000000
# 4 0.000000 0.000000 0.000000 0.036753 0.000000 0.000000
# 5 0.000000 0.000000 0.000000 0.000000 0.025858 0.000000
# 6 0.000000 0.000000 0.000000 0.000000 0.000000 0.100749
#
#
# Mechanical properties :
#
#
# Convention : Reuss Voigt Hill
#
# Bulk Modulus (GPa) = 63.48699 73.84804 68.66751
# Shear Modulus (GPa) = 21.89132 32.41813 27.15472
#
# Velocity S-wave (km/s) = 2.86972 3.49219 3.19614
# Velocity P-wave (km/s) = 5.90454 6.63637 6.28112
#
# Compressibility (1/GPa) = 0.01575126
#
# Stress axis : x y z
#
# Youngs Moduli (GPa) = 47.30884 99.20245 152.60820
#
# Poissons Ratio (x) = 0.79009 0.31827
# Poissons Ratio (y) = 0.37679 0.14647
# Poissons Ratio (z) = 0.09866 0.09521
#
# Static dielectric constant tensor:
#      x y z
#    x 2.049450 0.000000 0.000000 
#    y 0.000000 2.200540 0.000000 
#    z 0.000000 0.000000 2.149980 
# 
# From -- ./inp_files/5033.got.cif
#   From: 2010.05.17/outbox.cif.g08.bks.cpg/sg21_3_cif.got.tgz:5033.got - 2010.06.03 23:14:55.
