data_PCOD9323264
_publ_section_title
;
Structure prediction by ZEFSAII (Michael W. Deem and Ramdas Pophale) SiO2 
 PCOD9323264
Probable space group: C 2 2 2
;
_chemical_formula_sum "Si O2"
_cell_formula_units_Z 54
_cell_length_a 6.551608
_cell_length_b 28.232850
_cell_length_c 15.257197
_cell_angle_alpha 90.000000
_cell_angle_beta 90.000000
_cell_angle_gamma 90.000000
_cell_volume 2822.132363
_symmetry_space_group_name_H-M "C 2 2 2"
_symmetry_group_IT_number 21
_symmetry_cell_setting 'orthorhombic'
loop_
_space_group_symop_operation_xyz
x,y,z
-x,-y,z
x,-y,-z
-x,y,-z
1/2+x,1/2+y,z
1/2-x,1/2-y,z
1/2+x,1/2-y,-z
1/2-x,1/2+y,-z
loop_
_atom_site_type_symbol
_atom_site_label
_atom_site_fract_x
_atom_site_fract_y
_atom_site_fract_z
Si Si1 0.378418 0.547424 0.412317
Si Si2 0.844518 0.118810 0.253222
Si Si3 0.901479 0.950295 0.908334
Si Si4 0.168147 0.796255 0.058779
Si Si5 0.881460 0.794274 0.215276
Si Si6 0.500000 0.000000 0.500000
Si Si7 0.023707 0.642320 0.859637
Si Si8 0.000000 0.433438 0.000000
O O1 0.500000 0.500000 0.382650
O O2 0.500000 0.563291 0.500000
O O3 0.369128 0.586059 0.337305
O O4 0.152574 0.531416 0.441569
O O5 0.916243 0.088807 0.167357
O O6 0.607493 0.128218 0.226932
O O7 0.978305 0.166718 0.265709
O O8 0.669362 0.959046 0.940890
O O9 0.000000 0.000000 0.880048
O O10 0.000000 0.935317 0.000000
O O11 0.250000 0.750000 0.009530
O O12 0.351863 0.829329 0.085722
O O13 0.046524 0.776893 0.143606
O O14 0.000000 0.821401 0.000000
O O15 0.750000 0.750000 0.254042
O O16 0.710496 0.825458 0.167155
O O17 0.093713 0.600262 0.923528
#
# Coordination Sequence:
#
# PCOD9323264 Si02
#       8
#     8   8   8   8   8   2   8   4
#     4   9  19  38  64  95 126 148 181 234 301 362
#     4  10  22  36  58  88 115 153 197 236 289 352
#     4  10  21  37  54  74 111 154 198 239 279 330
#     4  11  21  30  47  73 103 145 196 249 301 342
#     4  11  21  36  53  76 113 148 193 240 292 341
#     4   8  18  36  64  90 128 150 170 240 304 366
#     4  10  21  34  51  74 110 149 194 245 286 341
#     4  10  20  35  50  72 100 144 196 236 281 330
#
# _framework density 19.134468999999999
#
# number of rings (size 3 to 8) (size 9 to 14) (size 15 to 20)
#    0.000    2.074    1.481    2.667    1.037    7.704 
#    0.000    5.926    0.000    0.000    3.852    0.000 
#    0.000    0.000    0.000    0.000    0.000    0.000 
#
# Total GULP energy -150515.166733 kJ/mol
# GULP energy per Si atom -5574.635805 kJ/mol
# Density = 1.909092 g / cm^3
# Si number density = 19.134469 Si / 1000 Ang^3
#
#
#
# Elastic Constant Matrix: (Units=GPa)
#
#
# Indices 1 2 3 4 5 6 
#
# 1 104.7569 31.0413 24.8891 0.0000 0.0000 0.0000
# 2 31.0413 87.0628 34.9305 0.0000 0.0000 0.0000
# 3 24.8891 34.9305 75.1599 0.0000 0.0000 0.0000
# 4 0.0000 0.0000 0.0000 31.9904 0.0000 0.0000
# 5 0.0000 0.0000 0.0000 0.0000 7.6050 0.0000
# 6 0.0000 0.0000 0.0000 0.0000 0.0000 29.8223
#
#
#
# Elastic Compliance Matrix: (Units=1/GPa)
#
#
# Indices 1 2 3 4 5 6 
#
# 1 0.010970 -0.003016 -0.002231 0.000000 0.000000 0.000000
# 2 -0.003016 0.014948 -0.005948 0.000000 0.000000 0.000000
# 3 -0.002231 -0.005948 0.016808 0.000000 0.000000 0.000000
# 4 0.000000 0.000000 0.000000 0.031259 0.000000 0.000000
# 5 0.000000 0.000000 0.000000 0.000000 0.131493 0.000000
# 6 0.000000 0.000000 0.000000 0.000000 0.000000 0.033532
#
#
# Mechanical properties :
#
#
# Convention : Reuss Voigt Hill
#
# Bulk Modulus (GPa) = 49.17558 49.85571 49.51565
# Shear Modulus (GPa) = 18.64430 25.62477 22.13453
#
# Velocity S-wave (km/s) = 3.12490 3.66347 3.40485
# Velocity P-wave (km/s) = 6.22702 6.63375 6.43360
#
# Compressibility (1/GPa) = 0.02033530
#
# Stress axis : x y z
#
# Youngs Moduli (GPa) = 91.16064 66.89951 59.49500
#
# Poissons Ratio (x) = 0.20177 0.13273
# Poissons Ratio (y) = 0.27495 0.35389
# Poissons Ratio (z) = 0.20337 0.39793
#
# Static dielectric constant tensor:
#      x y z
#    x 1.736120 0.000000 0.000000 
#    y 0.000000 1.735430 0.000000 
#    z 0.000000 0.000000 1.652960 
# 
# From -- ./inp_files/29627.got.cif
#   From: 2010.05.17/outbox.cif.g08.bks.cpg/sg21_15_cif.got.tgz:29627.got - 2010.06.03 23:14:55.
