data_PCOD9323912
_publ_section_title
;
Structure prediction by ZEFSAII (Michael W. Deem and Ramdas Pophale) SiO2 
 PCOD9323912
Probable space group: C 2 2 2
;
_chemical_formula_sum "Si O2"
_cell_formula_units_Z 48
_cell_length_a 4.885998
_cell_length_b 27.879462
_cell_length_c 15.578665
_cell_angle_alpha 90.000000
_cell_angle_beta 90.000000
_cell_angle_gamma 90.000000
_cell_volume 2122.110099
_symmetry_space_group_name_H-M "C 2 2 2"
_symmetry_group_IT_number 21
_symmetry_cell_setting 'orthorhombic'
loop_
_space_group_symop_operation_xyz
x,y,z
-x,-y,z
x,-y,-z
-x,y,-z
1/2+x,1/2+y,z
1/2-x,1/2-y,z
1/2+x,1/2-y,-z
1/2-x,1/2+y,-z
loop_
_atom_site_type_symbol
_atom_site_label
_atom_site_fract_x
_atom_site_fract_y
_atom_site_fract_z
Si Si1 0.015942 0.092711 0.905674
Si Si2 0.421666 0.111378 0.679353
Si Si3 0.489063 0.845964 0.862548
Si Si4 0.273065 0.822969 0.555315
Si Si5 0.415052 0.552625 0.722954
Si Si6 0.750000 0.250000 0.163183
Si Si7 0.250000 0.250000 0.292317
O O1 0.813669 0.139003 0.891926
O O2 0.321297 0.112095 0.897874
O O3 0.953807 0.059040 0.825186
O O4 0.000000 0.071362 0.000000
O O5 0.474714 0.148001 0.759050
O O6 0.543538 0.133196 0.592727
O O7 0.109441 0.093763 0.680986
O O8 0.604862 0.065322 0.701897
O O9 0.625572 0.795439 0.887723
O O10 0.500000 0.794268 0.500000
O O11 0.213347 0.793258 0.640465
O O12 0.000000 0.832523 0.500000
O O13 0.500000 0.500000 0.695095
O O14 0.499100 0.260187 0.227339
#
# Coordination Sequence:
#
# PCOD9323912 Si02
#       7
#     8   8   8   8   8   4   4
#     4  10  21  38  60  89 125 157 193 251 316 367
#     4  10  21  39  60  87 122 158 203 244 302 366
#     4  10  21  37  59  85 116 166 208 245 291 359
#     4  12  24  39  59  90 129 162 198 248 312 367
#     4  10  21  38  65  93 118 153 202 252 304 372
#     4  12  22  37  62  85 120 160 220 256 286 347
#     4  12  24  37  60  89 128 158 202 264 300 351
#
# _framework density 22.618998999999999
#
# number of rings (size 3 to 8) (size 9 to 14) (size 15 to 20)
#    0.000    1.333    1.667    4.500    4.667    0.333 
#    0.000    1.667    0.000   13.500    0.000    0.000 
#    0.000    0.000    0.000    0.000    0.000    0.000 
#
# Total GULP energy -133953.237797 kJ/mol
# GULP energy per Si atom -5581.384908 kJ/mol
# Density = 2.256752 g / cm^3
# Si number density = 22.618999 Si / 1000 Ang^3
#
#
#
# Elastic Constant Matrix: (Units=GPa)
#
#
# Indices 1 2 3 4 5 6 
#
# 1 103.1212 -12.0432 12.3213 0.0000 0.0000 0.0000
# 2 -12.0432 50.9922 -11.5550 0.0000 0.0000 0.0000
# 3 12.3213 -11.5550 65.4745 0.0000 0.0000 0.0000
# 4 0.0000 0.0000 0.0000 7.0303 0.0000 0.0000
# 5 0.0000 0.0000 0.0000 0.0000 29.8888 0.0000
# 6 0.0000 0.0000 0.0000 0.0000 0.0000 22.5782
#
#
#
# Elastic Compliance Matrix: (Units=1/GPa)
#
#
# Indices 1 2 3 4 5 6 
#
# 1 0.010120 0.002040 -0.001544 0.000000 0.000000 0.000000
# 2 0.002040 0.020839 0.003294 0.000000 0.000000 0.000000
# 3 -0.001544 0.003294 0.016145 0.000000 0.000000 0.000000
# 4 0.000000 0.000000 0.000000 0.142242 0.000000 0.000000
# 5 0.000000 0.000000 0.000000 0.000000 0.033457 0.000000
# 6 0.000000 0.000000 0.000000 0.000000 0.000000 0.044291
#
#
# Mechanical properties :
#
#
# Convention : Reuss Voigt Hill
#
# Bulk Modulus (GPa) = 18.28711 21.89268 20.08990
# Shear Modulus (GPa) = 18.00224 27.29042 22.64633
#
# Velocity S-wave (km/s) = 2.82421 3.47728 3.16762
# Velocity P-wave (km/s) = 4.32866 5.08152 4.72012
#
# Compressibility (1/GPa) = 0.05468331
#
# Stress axis : x y z
#
# Youngs Moduli (GPa) = 98.81296 47.98677 61.93848
#
# Poissons Ratio (x) = -0.09790 0.09566
# Poissons Ratio (y) = -0.20160 -0.20401
# Poissons Ratio (z) = 0.15261 -0.15806
#
# Static dielectric constant tensor:
#      x y z
#    x 1.805520 0.000000 0.000000 
#    y 0.000000 1.848510 0.000000 
#    z 0.000000 0.000000 1.871830 
# 
# From -- ./inp_files/29392.got.cif
#   From: 2010.05.17/outbox.cif.g08.bks.cpg/sg21_15_cif.got.tgz:29392.got - 2010.06.03 23:14:55.
