data_PCOD9323147
_publ_section_title
;
Structure prediction by ZEFSAII (Michael W. Deem and Ramdas Pophale) SiO2 
 PCOD9323147
Probable space group: C 2 2 2
;
_chemical_formula_sum "Si O2"
_cell_formula_units_Z 48
_cell_length_a 16.790693
_cell_length_b 15.515673
_cell_length_c 9.115829
_cell_angle_alpha 90.000000
_cell_angle_beta 90.000000
_cell_angle_gamma 90.000000
_cell_volume 2374.845762
_symmetry_space_group_name_H-M "C 2 2 2"
_symmetry_group_IT_number 21
_symmetry_cell_setting 'orthorhombic'
loop_
_space_group_symop_operation_xyz
x,y,z
-x,-y,z
x,-y,-z
-x,y,-z
1/2+x,1/2+y,z
1/2-x,1/2-y,z
1/2+x,1/2-y,-z
1/2-x,1/2+y,-z
loop_
_atom_site_type_symbol
_atom_site_label
_atom_site_fract_x
_atom_site_fract_y
_atom_site_fract_z
Si Si1 0.650037 0.831866 0.316646
Si Si2 0.380495 0.999566 0.829374
Si Si3 0.831883 0.804824 0.677368
Si Si4 0.188386 0.979321 0.168514
Si Si5 0.425153 0.146757 0.609864
Si Si6 0.333147 0.354882 0.338491
O O1 0.644687 0.859379 0.487413
O O2 0.621988 0.733749 0.294492
O O3 0.743086 0.839356 0.281455
O O4 0.604175 0.903203 0.226653
O O5 0.285084 0.017058 0.813727
O O6 0.421700 0.069037 0.723799
O O7 0.401223 0.000000 0.000000
O O8 0.750000 0.750000 0.696281
O O9 0.836242 0.883156 0.789281
O O10 0.904369 0.736966 0.686955
O O11 0.833019 0.847493 0.514731
O O12 0.147773 0.052202 0.271784
O O13 0.170935 0.000000 0.000000
O O14 0.500000 0.148712 0.500000
#
# Coordination Sequence:
#
# PCOD9323147 Si02
#       6
#     8   8   8   8   8   8
#     4   9  17  32  52  76 107 145 195 238 287 347
#     4  10  20  33  52  83 119 154 191 237 301 371
#     4  11  18  35  57  83 112 154 198 249 298 352
#     4  10  20  32  54  89 120 148 188 246 319 371
#     4  11  22  36  55  81 113 158 204 244 290 357
#     4   9  16  32  54  78 104 147 195 243 297 344
#
# _framework density 20.211839999999999
#
# number of rings (size 3 to 8) (size 9 to 14) (size 15 to 20)
#    0.000    2.000    5.000    1.000    0.000    5.333 
#    3.000    1.667    0.000    8.000    0.000    4.667 
#    0.000    0.000    0.000    0.000    0.000    0.000 
#
# Total GULP energy -133781.195783 kJ/mol
# GULP energy per Si atom -5574.216491 kJ/mol
# Density = 2.016584 g / cm^3
# Si number density = 20.211840 Si / 1000 Ang^3
#
#
#
# Elastic Constant Matrix: (Units=GPa)
#
#
# Indices 1 2 3 4 5 6 
#
# 1 42.4552 42.3289 25.1798 0.0000 0.0000 0.0000
# 2 42.3289 194.6446 110.2817 0.0000 0.0000 0.0000
# 3 25.1798 110.2817 98.8795 0.0000 0.0000 0.0000
# 4 0.0000 0.0000 0.0000 25.7955 0.0000 0.0000
# 5 0.0000 0.0000 0.0000 0.0000 14.9024 0.0000
# 6 0.0000 0.0000 0.0000 0.0000 0.0000 8.2650
#
#
#
# Elastic Compliance Matrix: (Units=1/GPa)
#
#
# Indices 1 2 3 4 5 6 
#
# 1 0.030111 -0.005987 -0.000990 0.000000 0.000000 0.000000
# 2 -0.005987 0.015148 -0.015370 0.000000 0.000000 0.000000
# 3 -0.000990 -0.015370 0.027508 0.000000 0.000000 0.000000
# 4 0.000000 0.000000 0.000000 0.038766 0.000000 0.000000
# 5 0.000000 0.000000 0.000000 0.000000 0.067103 0.000000
# 6 0.000000 0.000000 0.000000 0.000000 0.000000 0.120992
#
#
# Mechanical properties :
#
#
# Convention : Reuss Voigt Hill
#
# Bulk Modulus (GPa) = 35.62293 76.84004 56.23149
# Shear Modulus (GPa) = 14.13703 20.33849 17.23776
#
# Velocity S-wave (km/s) = 2.64757 3.17561 2.92354
# Velocity P-wave (km/s) = 5.19704 7.17955 6.26718
#
# Compressibility (1/GPa) = 0.02807180
#
# Stress axis : x y z
#
# Youngs Moduli (GPa) = 33.21061 66.01554 36.35302
#
# Poissons Ratio (x) = 0.39523 0.03600
# Poissons Ratio (y) = 0.19883 0.55875
# Poissons Ratio (z) = 0.03289 1.01467
#
# Static dielectric constant tensor:
#      x y z
#    x 1.799020 0.000000 0.000000 
#    y 0.000000 1.758160 0.000000 
#    z 0.000000 0.000000 1.704070 
# 
# From -- ./inp_files/14946.got.cif
#   From: 2010.05.17/outbox.cif.g08.bks.cpg/sg21_8_cif.got.tgz:14946.got - 2010.06.03 23:14:55.
