data_PCOD9323369
_publ_section_title
;
Structure prediction by ZEFSAII (Michael W. Deem and Ramdas Pophale) SiO2 
 PCOD9323369
Probable space group: C 2 2 2
;
_chemical_formula_sum "Si O2"
_cell_formula_units_Z 42
_cell_length_a 12.652170
_cell_length_b 10.142866
_cell_length_c 16.715524
_cell_angle_alpha 90.000000
_cell_angle_beta 90.000000
_cell_angle_gamma 90.000000
_cell_volume 2145.090908
_symmetry_space_group_name_H-M "C 2 2 2"
_symmetry_group_IT_number 21
_symmetry_cell_setting 'orthorhombic'
loop_
_space_group_symop_operation_xyz
x,y,z
-x,-y,z
x,-y,-z
-x,y,-z
1/2+x,1/2+y,z
1/2-x,1/2-y,z
1/2+x,1/2-y,-z
1/2-x,1/2+y,-z
loop_
_atom_site_type_symbol
_atom_site_label
_atom_site_fract_x
_atom_site_fract_y
_atom_site_fract_z
Si Si1 0.500000 0.000000 0.000000
Si Si2 0.750000 0.750000 0.658062
Si Si3 0.572511 0.376731 0.744743
Si Si4 0.304175 0.988991 0.735328
Si Si5 0.357646 0.827979 0.881183
Si Si6 0.955849 0.214094 0.416576
Si Si7 0.000000 0.500000 0.372607
O O1 0.571444 0.897578 0.051860
O O2 0.700026 0.857482 0.715908
O O3 0.835105 0.820972 0.602155
O O4 0.500000 0.500000 0.772062
O O5 0.690956 0.421786 0.720339
O O6 0.584516 0.271795 0.817547
O O7 0.518568 0.328561 0.662614
O O8 0.402893 0.945778 0.680991
O O9 0.325656 0.951469 0.825837
O O10 0.250000 0.750000 0.907167
O O11 0.000000 0.162305 0.500000
O O12 0.957874 0.373823 0.419616
#
# Coordination Sequence:
#
# PCOD9323369 Si02
#       7
#     2   4   8   8   8   8   4
#     4  12  26  48  76 106 138 176 212 292 360 416
#     4  10  22  38  60  96 118 174 236 276 340 392
#     4  11  22  41  65  95 128 179 218 267 331 404
#     4  10  20  39  67  87 125 167 225 265 323 413
#     4  10  24  46  69 102 134 174 223 268 346 424
#     4  11  23  38  58  91 131 168 229 284 332 379
#     4  10  20  36  59  87 116 172 224 272 326 393
#
# _framework density 19.57959
#
# number of rings (size 3 to 8) (size 9 to 14) (size 15 to 20)
#    0.000    1.524    3.810    0.857    2.667    1.905 
#    8.571    1.905    0.000    0.000    0.000    0.000 
#    0.000    0.000    0.000    0.000    0.000    0.000 
#
# Total GULP energy -116987.338280 kJ/mol
# GULP energy per Si atom -5570.825632 kJ/mol
# Density = 1.953503 g / cm^3
# Si number density = 19.579590 Si / 1000 Ang^3
#
#
#
# Elastic Constant Matrix: (Units=GPa)
#
#
# Indices 1 2 3 4 5 6 
#
# 1 126.8170 21.4365 72.5198 0.0000 0.0000 0.0000
# 2 21.4365 77.7494 49.3025 0.0000 0.0000 0.0000
# 3 72.5198 49.3025 117.1421 0.0000 0.0000 0.0000
# 4 0.0000 0.0000 0.0000 19.8110 0.0000 0.0000
# 5 0.0000 0.0000 0.0000 0.0000 59.2627 0.0000
# 6 0.0000 0.0000 0.0000 0.0000 0.0000 25.2939
#
#
#
# Elastic Compliance Matrix: (Units=1/GPa)
#
#
# Indices 1 2 3 4 5 6 
#
# 1 0.012426 0.001981 -0.008527 0.000000 0.000000 0.000000
# 2 0.001981 0.017860 -0.008743 0.000000 0.000000 0.000000
# 3 -0.008527 -0.008743 0.017495 0.000000 0.000000 0.000000
# 4 0.000000 0.000000 0.000000 0.050477 0.000000 0.000000
# 5 0.000000 0.000000 0.000000 0.000000 0.016874 0.000000
# 6 0.000000 0.000000 0.000000 0.000000 0.000000 0.039535
#
#
# Mechanical properties :
#
#
# Convention : Reuss Voigt Hill
#
# Bulk Modulus (GPa) = 58.12749 67.58066 62.85408
# Shear Modulus (GPa) = 26.18080 32.77017 29.47548
#
# Velocity S-wave (km/s) = 3.66067 4.09551 3.88418
# Velocity P-wave (km/s) = 6.90069 7.54686 7.23100
#
# Compressibility (1/GPa) = 0.01720356
#
# Stress axis : x y z
#
# Youngs Moduli (GPa) = 80.47359 55.99145 57.15934
#
# Poissons Ratio (x) = -0.11090 0.48737
# Poissons Ratio (y) = -0.15940 0.49975
# Poissons Ratio (z) = 0.68616 0.48954
#
# Static dielectric constant tensor:
#      x y z
#    x 1.699690 0.000000 0.000000 
#    y 0.000000 1.732970 0.000000 
#    z 0.000000 0.000000 1.675230 
# 
# From -- ./inp_files/36131.got.cif
#   From: 2010.05.17/outbox.cif.g08.bks.cpg/sg21_19_cif.got.tgz:36131.got - 2010.06.03 23:14:55.
