data_PCOD9323195
_publ_section_title
;
Structure prediction by ZEFSAII (Michael W. Deem and Ramdas Pophale) SiO2 
 PCOD9323195
Probable space group: C 2 2 2
;
_chemical_formula_sum "Si O2"
_cell_formula_units_Z 42
_cell_length_a 18.279374
_cell_length_b 24.636185
_cell_length_c 5.316142
_cell_angle_alpha 90.000000
_cell_angle_beta 90.000000
_cell_angle_gamma 90.000000
_cell_volume 2394.039702
_symmetry_space_group_name_H-M "C 2 2 2"
_symmetry_group_IT_number 21
_symmetry_cell_setting 'orthorhombic'
loop_
_space_group_symop_operation_xyz
x,y,z
-x,-y,z
x,-y,-z
-x,y,-z
1/2+x,1/2+y,z
1/2-x,1/2-y,z
1/2+x,1/2-y,-z
1/2-x,1/2+y,-z
loop_
_atom_site_type_symbol
_atom_site_label
_atom_site_fract_x
_atom_site_fract_y
_atom_site_fract_z
Si Si1 0.724009 0.375685 0.989236
Si Si2 0.500000 0.500000 0.500000
Si Si3 0.418098 0.872753 0.466753
Si Si4 0.577223 0.560780 0.108843
Si Si5 0.267977 0.186914 0.511839
Si Si6 0.874187 0.436160 0.968186
O O1 0.645511 0.402394 0.946552
O O2 0.740646 0.335806 0.756033
O O3 0.788013 0.421065 0.981895
O O4 0.731402 0.345266 0.255403
O O5 0.557515 0.543906 0.389661
O O6 0.500000 0.851145 0.500000
O O7 0.354349 0.827666 0.473123
O O8 0.402319 0.913380 0.700862
O O9 0.410592 0.904426 0.202287
O O10 0.587948 0.500000 0.000000
O O11 0.500000 0.581903 0.000000
O O12 0.250000 0.250000 0.533698
O O13 0.886195 0.500000 0.000000
#
# Coordination Sequence:
#
# PCOD9323195 Si02
#       6
#     8   2   8   8   8   8
#     4  10  21  36  58  80 108 145 186 227 273 329
#     4   8  18  32  52  78 120 152 180 212 286 328
#     4  10  21  36  55  79 108 143 176 218 270 324
#     4   9  19  33  52  82 117 153 182 219 274 339
#     4  10  22  40  59  78 105 141 187 238 283 319
#     4  10  20  34  52  83 112 143 177 212 260 324
#
# _framework density 17.543568
#
# number of rings (size 3 to 8) (size 9 to 14) (size 15 to 20)
#    0.000    2.476    0.000    2.286    5.333    2.286 
#    3.429    1.905    0.000    0.000    0.000    0.000 
#    0.000    0.000    0.000    0.000    0.000    0.000 
#
# Total GULP energy -116951.752960 kJ/mol
# GULP energy per Si atom -5569.131093 kJ/mol
# Density = 1.750364 g / cm^3
# Si number density = 17.543568 Si / 1000 Ang^3
#
#
#
# Elastic Constant Matrix: (Units=GPa)
#
#
# Indices 1 2 3 4 5 6 
#
# 1 144.3136 44.3158 16.7745 0.0000 0.0000 0.0000
# 2 44.3158 69.6687 4.0716 0.0000 0.0000 0.0000
# 3 16.7745 4.0716 75.7098 0.0000 0.0000 0.0000
# 4 0.0000 0.0000 0.0000 25.3039 0.0000 0.0000
# 5 0.0000 0.0000 0.0000 0.0000 24.6886 0.0000
# 6 0.0000 0.0000 0.0000 0.0000 0.0000 6.9477
#
#
#
# Elastic Compliance Matrix: (Units=1/GPa)
#
#
# Indices 1 2 3 4 5 6 
#
# 1 0.008814 -0.005510 -0.001657 0.000000 0.000000 0.000000
# 2 -0.005510 0.017843 0.000261 0.000000 0.000000 0.000000
# 3 -0.001657 0.000261 0.013561 0.000000 0.000000 0.000000
# 4 0.000000 0.000000 0.000000 0.039520 0.000000 0.000000
# 5 0.000000 0.000000 0.000000 0.000000 0.040504 0.000000
# 6 0.000000 0.000000 0.000000 0.000000 0.000000 0.143932
#
#
# Mechanical properties :
#
#
# Convention : Reuss Voigt Hill
#
# Bulk Modulus (GPa) = 37.86707 46.66845 42.26776
# Shear Modulus (GPa) = 17.43456 26.35672 21.89564
#
# Velocity S-wave (km/s) = 3.15586 3.88023 3.53664
# Velocity P-wave (km/s) = 5.90853 6.83624 6.38924
#
# Compressibility (1/GPa) = 0.02640817
#
# Stress axis : x y z
#
# Youngs Moduli (GPa) = 113.45873 56.04446 73.73919
#
# Poissons Ratio (x) = 0.30878 0.12215
# Poissons Ratio (y) = 0.62511 -0.01926
# Poissons Ratio (z) = 0.18795 -0.01463
#
# Static dielectric constant tensor:
#      x y z
#    x 1.587750 0.000000 0.000000 
#    y 0.000000 1.544230 0.000000 
#    z 0.000000 0.000000 1.478950 
# 
# From -- ./inp_files/5138.got.cif
#   From: 2010.05.17/outbox.cif.g08.bks.cpg/sg21_3_cif.got.tgz:5138.got - 2010.06.03 23:14:55.
