data_PCOD9323168
_publ_section_title
;
Structure prediction by ZEFSAII (Michael W. Deem and Ramdas Pophale) SiO2 
 PCOD9323168
Probable space group: C 2 2 2
;
_chemical_formula_sum "Si O2"
_cell_formula_units_Z 34
_cell_length_a 13.637601
_cell_length_b 30.695136
_cell_length_c 5.097567
_cell_angle_alpha 90.000000
_cell_angle_beta 90.000000
_cell_angle_gamma 90.000000
_cell_volume 2133.882415
_symmetry_space_group_name_H-M "C 2 2 2"
_symmetry_group_IT_number 21
_symmetry_cell_setting 'orthorhombic'
loop_
_space_group_symop_operation_xyz
x,y,z
-x,-y,z
x,-y,-z
-x,y,-z
1/2+x,1/2+y,z
1/2-x,1/2-y,z
1/2+x,1/2-y,-z
1/2-x,1/2+y,-z
loop_
_atom_site_type_symbol
_atom_site_label
_atom_site_fract_x
_atom_site_fract_y
_atom_site_fract_z
Si Si1 0.787306 0.299314 0.349042
Si Si2 0.694446 0.660612 0.135067
Si Si3 0.500000 0.500000 0.000000
Si Si4 0.065241 0.083685 0.242106
Si Si5 0.500000 0.288828 0.000000
Si Si6 0.500000 0.773015 0.500000
O O1 0.750000 0.250000 0.283172
O O2 0.723983 0.315519 0.596463
O O3 0.899497 0.298621 0.447293
O O4 0.773035 0.329816 0.093750
O O5 0.664184 0.611460 0.218687
O O6 0.597820 0.682717 0.010351
O O7 0.566348 0.468102 0.820378
O O8 0.000000 0.091572 0.500000
O O9 0.000000 0.099547 0.000000
O O10 0.508435 0.258138 0.749590
#
# Coordination Sequence:
#
# PCOD9323168 Si02
#       6
#     8   8   2   8   4   4
#     4  12  23  37  50  74 102 147 194 238 276 313
#     4  12  22  34  53  79 108 140 190 227 269 335
#     4   8  20  36  58  80 118 146 158 216 282 358
#     4  10  20  33  54  82 111 145 168 212 273 336
#     4  12  19  32  52  73  96 142 182 237 268 311
#     4  12  24  34  52  66 102 140 196 234 272 308
#
# _framework density 15.933399
#
# number of rings (size 3 to 8) (size 9 to 14) (size 15 to 20)
#    0.706    0.000    5.882    3.882    1.647    0.000 
#    0.000    0.000    0.000    0.000    0.000    0.000 
#    0.000    5.647    0.000    0.000    0.000    0.000 
#
# Total GULP energy -94673.634200 kJ/mol
# GULP energy per Si atom -5569.037306 kJ/mol
# Density = 1.589713 g / cm^3
# Si number density = 15.933399 Si / 1000 Ang^3
#
#
#
# Elastic Constant Matrix: (Units=GPa)
#
#
# Indices 1 2 3 4 5 6 
#
# 1 57.0387 36.9088 9.0280 0.0000 0.0000 0.0000
# 2 36.9088 94.9103 37.1720 0.0000 0.0000 0.0000
# 3 9.0280 37.1720 118.3617 0.0000 0.0000 0.0000
# 4 0.0000 0.0000 0.0000 64.9407 0.0000 0.0000
# 5 0.0000 0.0000 0.0000 0.0000 28.3182 0.0000
# 6 0.0000 0.0000 0.0000 0.0000 0.0000 22.5549
#
#
#
# Elastic Compliance Matrix: (Units=1/GPa)
#
#
# Indices 1 2 3 4 5 6 
#
# 1 0.023584 -0.009654 0.001233 0.000000 0.000000 0.000000
# 2 -0.009654 0.015966 -0.004278 0.000000 0.000000 0.000000
# 3 0.001233 -0.004278 0.009698 0.000000 0.000000 0.000000
# 4 0.000000 0.000000 0.000000 0.015399 0.000000 0.000000
# 5 0.000000 0.000000 0.000000 0.000000 0.035313 0.000000
# 6 0.000000 0.000000 0.000000 0.000000 0.000000 0.044336
#
#
# Mechanical properties :
#
#
# Convention : Reuss Voigt Hill
#
# Bulk Modulus (GPa) = 41.92862 48.50315 45.21588
# Shear Modulus (GPa) = 28.14618 35.64289 31.89454
#
# Velocity S-wave (km/s) = 4.20752 4.73482 4.47894
# Velocity P-wave (km/s) = 7.06940 7.77165 7.42883
#
# Compressibility (1/GPa) = 0.02385006
#
# Stress axis : x y z
#
# Youngs Moduli (GPa) = 42.40182 62.63284 103.11299
#
# Poissons Ratio (x) = 0.60468 -0.12715
# Poissons Ratio (y) = 0.40936 0.44110
# Poissons Ratio (z) = -0.05229 0.26793
#
# Static dielectric constant tensor:
#      x y z
#    x 1.555780 0.000000 0.000000 
#    y 0.000000 1.574370 0.000000 
#    z 0.000000 0.000000 1.544820 
# 
# From -- ./inp_files/2975.got.cif
#   From: 2010.05.17/outbox.cif.g08.bks.cpg/sg21_2_cif.got.tgz:2975.got - 2010.06.03 23:14:55.
