data_PCOD9323494
_publ_section_title
;
Structure prediction by ZEFSAII (Michael W. Deem and Ramdas Pophale) SiO2 
 PCOD9323494
Probable space group: C 2 2 2
;
_chemical_formula_sum "Si O2"
_cell_formula_units_Z 56
_cell_length_a 9.492087
_cell_length_b 21.827169
_cell_length_c 13.122880
_cell_angle_alpha 90.000000
_cell_angle_beta 90.000000
_cell_angle_gamma 90.000000
_cell_volume 2718.868973
_symmetry_space_group_name_H-M "C 2 2 2"
_symmetry_group_IT_number 21
_symmetry_cell_setting 'orthorhombic'
loop_
_space_group_symop_operation_xyz
x,y,z
-x,-y,z
x,-y,-z
-x,y,-z
1/2+x,1/2+y,z
1/2-x,1/2-y,z
1/2+x,1/2-y,-z
1/2-x,1/2+y,-z
loop_
_atom_site_type_symbol
_atom_site_label
_atom_site_fract_x
_atom_site_fract_y
_atom_site_fract_z
Si Si1 0.175252 0.439515 0.704296
Si Si2 0.502166 0.115349 0.883347
Si Si3 0.020887 0.096400 0.618998
Si Si4 0.591718 0.743588 0.912436
Si Si5 0.406339 0.726063 0.313032
Si Si6 0.468583 0.157412 0.389706
Si Si7 0.729112 0.920645 0.282512
O O1 0.120569 0.416173 0.814965
O O2 0.333448 0.426381 0.668430
O O3 0.077905 0.397518 0.632182
O O4 0.162787 0.512492 0.699183
O O5 0.468412 0.187952 0.891725
O O6 0.648753 0.102860 0.820732
O O7 0.500000 0.092224 0.000000
O O8 0.037894 0.169944 0.622622
O O9 0.000000 0.077013 0.500000
O O10 0.895080 0.076539 0.695713
O O11 0.750000 0.750000 0.951292
O O12 0.599613 0.707992 0.805945
O O13 0.500000 0.713353 0.000000
O O14 0.250000 0.750000 0.342037
O O15 0.505657 0.784819 0.319113
O O16 0.500000 0.181516 0.500000
O O17 0.319962 0.127216 0.369071
#
# Coordination Sequence:
#
# PCOD9323494 Si02
#       7
#     8   8   8   8   8   8   8
#     4  11  22  43  64  88 132 168 210 270 319 382
#     4  10  21  43  70  96 129 169 216 269 325 385
#     4  12  26  43  64  92 133 179 216 264 330 387
#     4  10  20  37  63  92 126 170 212 263 329 386
#     4  11  21  41  63  86 128 169 210 266 323 385
#     4  11  21  38  62  89 118 162 217 264 316 374
#     4  11  25  39  62  98 124 164 221 269 311 381
#
# _framework density 20.596800000000002
#
# number of rings (size 3 to 8) (size 9 to 14) (size 15 to 20)
#    0.000    1.143    4.286    4.286    0.000    7.429 
#    0.000    0.714    0.000    1.714    0.000    0.000 
#    0.000    0.000    0.000    0.000    0.000    0.000 
#
# Total GULP energy -156117.222391 kJ/mol
# GULP energy per Si atom -5575.615085 kJ/mol
# Density = 2.054992 g / cm^3
# Si number density = 20.596800 Si / 1000 Ang^3
#
#
#
# Elastic Constant Matrix: (Units=GPa)
#
#
# Indices 1 2 3 4 5 6 
#
# 1 100.2910 -3.9100 38.9215 0.0000 0.0000 0.0000
# 2 -3.9100 71.5736 -12.2667 0.0000 0.0000 0.0000
# 3 38.9215 -12.2667 112.5734 0.0000 0.0000 0.0000
# 4 0.0000 0.0000 0.0000 1.1490 0.0000 0.0000
# 5 0.0000 0.0000 0.0000 0.0000 8.4221 0.0000
# 6 0.0000 0.0000 0.0000 0.0000 0.0000 22.9894
#
#
#
# Elastic Compliance Matrix: (Units=1/GPa)
#
#
# Indices 1 2 3 4 5 6 
#
# 1 0.011516 -0.000054 -0.003988 0.000000 0.000000 0.000000
# 2 -0.000054 0.014238 0.001570 0.000000 0.000000 0.000000
# 3 -0.003988 0.001570 0.010433 0.000000 0.000000 0.000000
# 4 0.000000 0.000000 0.000000 0.870287 0.000000 0.000000
# 5 0.000000 0.000000 0.000000 0.000000 0.118735 0.000000
# 6 0.000000 0.000000 0.000000 0.000000 0.000000 0.043498
#
#
# Mechanical properties :
#
#
# Convention : Reuss Voigt Hill
#
# Bulk Modulus (GPa) = 32.00651 36.65861 34.33256
# Shear Modulus (GPa) = 4.61226 23.95832 14.28529
#
# Velocity S-wave (km/s) = 1.49806 3.41428 2.63643
# Velocity P-wave (km/s) = 4.30877 5.77754 5.09634
#
# Compressibility (1/GPa) = 0.03124364
#
# Stress axis : x y z
#
# Youngs Moduli (GPa) = 86.83257 70.23566 95.85069
#
# Poissons Ratio (x) = 0.00381 0.38222
# Poissons Ratio (y) = 0.00471 -0.15051
# Poissons Ratio (z) = 0.34626 -0.11028
#
# Static dielectric constant tensor:
#      x y z
#    x 1.785080 0.000000 0.000000 
#    y 0.000000 1.727090 0.000000 
#    z 0.000000 0.000000 1.769800 
# 
# From -- ./inp_files/30746.got.cif
#   From: 2010.05.17/outbox.cif.g08.bks.cpg/sg21_16_cif.got.tgz:30746.got - 2010.06.03 23:14:55.
