data_PCOD9323621
_publ_section_title
;
Structure prediction by ZEFSAII (Michael W. Deem and Ramdas Pophale) SiO2 
 PCOD9323621
Probable space group: C 2 2 2
;
_chemical_formula_sum "Si O2"
_cell_formula_units_Z 48
_cell_length_a 7.902063
_cell_length_b 34.305497
_cell_length_c 8.102276
_cell_angle_alpha 90.000000
_cell_angle_beta 90.000000
_cell_angle_gamma 90.000000
_cell_volume 2196.398996
_symmetry_space_group_name_H-M "C 2 2 2"
_symmetry_group_IT_number 21
_symmetry_cell_setting 'orthorhombic'
loop_
_space_group_symop_operation_xyz
x,y,z
-x,-y,z
x,-y,-z
-x,y,-z
1/2+x,1/2+y,z
1/2-x,1/2-y,z
1/2+x,1/2-y,-z
1/2-x,1/2+y,-z
loop_
_atom_site_type_symbol
_atom_site_label
_atom_site_fract_x
_atom_site_fract_y
_atom_site_fract_z
Si Si1 0.500000 0.500000 0.500000
Si Si2 0.845632 0.653920 0.225174
Si Si3 0.264351 0.046525 0.735257
Si Si4 0.026842 0.182968 0.687479
Si Si5 0.447004 0.238284 0.189135
Si Si6 0.680976 0.375486 0.084789
Si Si7 0.000000 0.402661 0.500000
Si Si8 0.000000 0.500000 0.000000
O O1 0.624884 0.523504 0.625863
O O2 0.655687 0.670877 0.240958
O O3 0.960374 0.692726 0.230109
O O4 0.899518 0.624666 0.369867
O O5 0.826357 0.632192 0.049373
O O6 0.185891 0.082286 0.835871
O O7 0.383107 0.068644 0.604928
O O8 0.375586 0.022771 0.870823
O O9 0.049876 0.229261 0.709743
O O10 0.000000 0.172360 0.500000
O O11 0.171710 0.158133 0.776428
O O12 0.250000 0.250000 0.207789
O O13 0.500000 0.243775 0.000000
O O14 0.500000 0.372889 0.000000
#
# Coordination Sequence:
#
# PCOD9323621 Si02
#       8
#     2   8   8   8   8   8   4   2
#     4  12  32  48  80 118 148 184 236 302 380 444
#     4  10  23  40  63  99 139 187 241 288 356 424
#     4  12  28  48  79 107 149 186 234 300 367 458
#     4  10  20  39  63  95 136 184 245 301 353 405
#     4  10  21  39  60  90 137 183 237 296 344 415
#     4  10  23  41  73  99 134 182 245 293 348 431
#     4  12  26  45  70 103 152 184 232 297 370 431
#     4  12  28  52  80 112 152 196 236 296 392 468
#
# _framework density 21.853954000000002
#
# number of rings (size 3 to 8) (size 9 to 14) (size 15 to 20)
#    0.000    1.333    0.000    5.500   11.667    0.000 
#    3.000    0.000    0.000    0.000    0.000    0.000 
#    0.000    0.000    0.000    0.000    0.000    0.000 
#
# Total GULP energy -133979.805172 kJ/mol
# GULP energy per Si atom -5582.491882 kJ/mol
# Density = 2.180421 g / cm^3
# Si number density = 21.853954 Si / 1000 Ang^3
#
#
#
# Elastic Constant Matrix: (Units=GPa)
#
#
# Indices 1 2 3 4 5 6 
#
# 1 86.8654 67.2952 47.4849 0.0000 0.0000 0.0000
# 2 67.2952 159.7605 89.6263 0.0000 0.0000 0.0000
# 3 47.4849 89.6263 149.6519 0.0000 0.0000 0.0000
# 4 0.0000 0.0000 0.0000 60.8808 0.0000 0.0000
# 5 0.0000 0.0000 0.0000 0.0000 26.4551 0.0000
# 6 0.0000 0.0000 0.0000 0.0000 0.0000 100.0655
#
#
#
# Elastic Compliance Matrix: (Units=1/GPa)
#
#
# Indices 1 2 3 4 5 6 
#
# 1 0.017371 -0.006363 -0.001701 0.000000 0.000000 0.000000
# 2 -0.006363 0.011757 -0.005022 0.000000 0.000000 0.000000
# 3 -0.001701 -0.005022 0.010230 0.000000 0.000000 0.000000
# 4 0.000000 0.000000 0.000000 0.016426 0.000000 0.000000
# 5 0.000000 0.000000 0.000000 0.000000 0.037800 0.000000
# 6 0.000000 0.000000 0.000000 0.000000 0.000000 0.009993
#
#
# Mechanical properties :
#
#
# Convention : Reuss Voigt Hill
#
# Bulk Modulus (GPa) = 75.84149 89.45453 82.64801
# Shear Modulus (GPa) = 37.27295 50.27171 43.77233
#
# Velocity S-wave (km/s) = 4.13431 4.80140 4.48029
# Velocity P-wave (km/s) = 7.58743 8.47111 8.04142
#
# Compressibility (1/GPa) = 0.01318539
#
# Stress axis : x y z
#
# Youngs Moduli (GPa) = 57.56585 85.05460 97.75265
#
# Poissons Ratio (x) = 0.54119 0.16631
# Poissons Ratio (y) = 0.36628 0.49095
# Poissons Ratio (z) = 0.09794 0.42718
#
# Static dielectric constant tensor:
#      x y z
#    x 1.767970 0.000000 0.000000 
#    y 0.000000 1.815270 0.000000 
#    z 0.000000 0.000000 1.857100 
# 
# From -- ./inp_files/11609.got.cif
#   From: 2010.05.17/outbox.cif.g08.bks.cpg/sg21_6_cif.got.tgz:11609.got - 2010.06.03 23:14:55.
