data_PCOD9323443
_publ_section_title
;
Structure prediction by ZEFSAII (Michael W. Deem and Ramdas Pophale) SiO2 
 PCOD9323443
Probable space group: C 2 2 2
;
_chemical_formula_sum "Si O2"
_cell_formula_units_Z 64
_cell_length_a 17.476993
_cell_length_b 12.152890
_cell_length_c 15.022025
_cell_angle_alpha 90.000000
_cell_angle_beta 90.000000
_cell_angle_gamma 90.000000
_cell_volume 3190.617623
_symmetry_space_group_name_H-M "C 2 2 2"
_symmetry_group_IT_number 21
_symmetry_cell_setting 'orthorhombic'
loop_
_space_group_symop_operation_xyz
x,y,z
-x,-y,z
x,-y,-z
-x,y,-z
1/2+x,1/2+y,z
1/2-x,1/2-y,z
1/2+x,1/2-y,-z
1/2-x,1/2+y,-z
loop_
_atom_site_type_symbol
_atom_site_label
_atom_site_fract_x
_atom_site_fract_y
_atom_site_fract_z
Si Si1 0.165180 0.928442 0.303512
Si Si2 0.325201 0.373542 0.024857
Si Si3 0.163139 0.562373 0.918801
Si Si4 0.296497 0.142961 0.801605
Si Si5 0.912692 0.131460 0.480909
Si Si6 0.910937 0.196914 0.149267
Si Si7 0.586260 0.259710 0.825688
Si Si8 0.330211 0.312835 0.346617
O O1 0.250648 0.882365 0.288069
O O2 0.119091 0.865004 0.380694
O O3 0.121514 0.901851 0.210905
O O4 0.172822 0.057038 0.323856
O O5 0.232901 0.368840 0.036172
O O6 0.357378 0.340030 0.120285
O O7 0.340378 0.500000 0.000000
O O8 0.373751 0.309753 0.948991
O O9 0.202291 0.468789 0.857609
O O10 0.107919 0.640070 0.863801
O O11 0.122773 0.500000 0.000000
O O12 0.250000 0.250000 0.839330
O O13 0.380759 0.192140 0.802244
O O14 0.858685 0.191839 0.551795
O O15 0.000000 0.166538 0.500000
O O16 0.910935 0.000000 0.500000
O O17 0.001512 0.201907 0.150737
O O18 0.607497 0.265297 0.722191
O O19 0.250000 0.250000 0.333292
#
# Coordination Sequence:
#
# PCOD9323443 Si02
#       8
#     8   8   8   8   8   8   8   8
#     4  10  20  38  61  86 117 155 196 248 302 359
#     4  11  22  37  57  82 111 152 201 246 297 360
#     4  11  22  38  60  81 114 159 202 254 306 364
#     4  10  20  37  58  80 107 147 199 242 291 358
#     4   9  19  36  59  87 118 151 189 240 303 360
#     4  11  24  38  57  84 115 153 198 246 301 368
#     4  12  24  38  57  86 121 156 196 249 311 363
#     4  11  22  37  60  90 121 156 200 246 300 369
#
# _framework density 20.058813000000001
#
# number of rings (size 3 to 8) (size 9 to 14) (size 15 to 20)
#    0.000    1.375    0.000    8.250    0.000    7.500 
#    0.000    0.625    0.000    0.000    0.000    0.000 
#    0.000    9.000    0.000    0.000    0.000    0.000 
#
# Total GULP energy -178533.977938 kJ/mol
# GULP energy per Si atom -5579.186811 kJ/mol
# Density = 2.001316 g / cm^3
# Si number density = 20.058813 Si / 1000 Ang^3
#
#
#
# Elastic Constant Matrix: (Units=GPa)
#
#
# Indices 1 2 3 4 5 6 
#
# 1 65.7772 11.7526 14.0291 0.0000 0.0000 0.0000
# 2 11.7526 79.7146 16.1877 0.0000 0.0000 0.0000
# 3 14.0291 16.1877 88.2948 0.0000 0.0000 0.0000
# 4 0.0000 0.0000 0.0000 26.0720 0.0000 0.0000
# 5 0.0000 0.0000 0.0000 0.0000 24.0794 0.0000
# 6 0.0000 0.0000 0.0000 0.0000 0.0000 15.0193
#
#
#
# Elastic Compliance Matrix: (Units=1/GPa)
#
#
# Indices 1 2 3 4 5 6 
#
# 1 0.016013 -0.001915 -0.002193 0.000000 0.000000 0.000000
# 2 -0.001915 0.013259 -0.002127 0.000000 0.000000 0.000000
# 3 -0.002193 -0.002127 0.012064 0.000000 0.000000 0.000000
# 4 0.000000 0.000000 0.000000 0.038355 0.000000 0.000000
# 5 0.000000 0.000000 0.000000 0.000000 0.041529 0.000000
# 6 0.000000 0.000000 0.000000 0.000000 0.000000 0.066581
#
#
# Mechanical properties :
#
#
# Convention : Reuss Voigt Hill
#
# Bulk Modulus (GPa) = 34.64319 35.30280 34.97300
# Shear Modulus (GPa) = 23.82159 25.82195 24.82177
#
# Velocity S-wave (km/s) = 3.44988 3.59181 3.52156
# Velocity P-wave (km/s) = 5.75996 5.90248 5.83166
#
# Compressibility (1/GPa) = 0.02886570
#
# Stress axis : x y z
#
# Youngs Moduli (GPa) = 62.44996 75.42053 82.89113
#
# Poissons Ratio (x) = 0.14447 0.18179
# Poissons Ratio (y) = 0.11962 0.17627
# Poissons Ratio (z) = 0.13696 0.16038
#
# Static dielectric constant tensor:
#      x y z
#    x 1.727060 0.000000 0.000000 
#    y 0.000000 1.759930 0.000000 
#    z 0.000000 0.000000 1.718030 
# 
# From -- ./inp_files/32973.got.cif
#   From: 2010.05.17/outbox.cif.g08.bks.cpg/sg21_17_cif.got.tgz:32973.got - 2010.06.03 23:14:55.
