data_PCOD9323677
_publ_section_title
;
Structure prediction by ZEFSAII (Michael W. Deem and Ramdas Pophale) SiO2 
 PCOD9323677
Probable space group: C 2 2 2
;
_chemical_formula_sum "Si O2"
_cell_formula_units_Z 32
_cell_length_a 9.502310
_cell_length_b 11.684842
_cell_length_c 11.609083
_cell_angle_alpha 90.000000
_cell_angle_beta 90.000000
_cell_angle_gamma 90.000000
_cell_volume 1288.991208
_symmetry_space_group_name_H-M "C 2 2 2"
_symmetry_group_IT_number 21
_symmetry_cell_setting 'orthorhombic'
loop_
_space_group_symop_operation_xyz
x,y,z
-x,-y,z
x,-y,-z
-x,y,-z
1/2+x,1/2+y,z
1/2-x,1/2-y,z
1/2+x,1/2-y,-z
1/2-x,1/2+y,-z
loop_
_atom_site_type_symbol
_atom_site_label
_atom_site_fract_x
_atom_site_fract_y
_atom_site_fract_z
Si Si1 0.565194 0.892584 0.227436
Si Si2 0.808808 0.132943 0.955011
Si Si3 0.530223 0.340327 0.240383
Si Si4 0.200355 0.973564 0.632555
O O1 0.692746 0.857735 0.146225
O O2 0.453689 0.794204 0.248897
O O3 0.500000 0.000000 0.165481
O O4 0.641944 0.935622 0.342061
O O5 0.750000 0.250000 0.024147
O O6 0.960670 0.140176 0.886473
O O7 0.798730 0.000000 0.000000
O O8 0.654387 0.423397 0.280404
O O9 0.406995 0.374107 0.330035
O O10 0.178769 0.000000 0.500000
#
# Coordination Sequence:
#
# PCOD9323677 Si02
#       4
#     8   8   8   8
#     4  10  22  41  59  88 132 162 201 263 314 367
#     4   9  19  40  67  90 124 163 209 260 315 379
#     4   9  19  40  64  84 124 163 200 264 308 360
#     4  10  20  40  63  89 121 164 213 250 310 376
#
# _framework density 24.825614999999999
#
# number of rings (size 3 to 8) (size 9 to 14) (size 15 to 20)
#    0.000    2.500    0.000    3.750    0.000    2.000 
#   27.000   10.000   16.500    0.000    0.000    0.000 
#    0.000    0.000    0.000    0.000    0.000    0.000 
#
# Total GULP energy -89183.274016 kJ/mol
# GULP energy per Si atom -5573.954626 kJ/mol
# Density = 2.476911 g / cm^3
# Si number density = 24.825615 Si / 1000 Ang^3
#
#
#
# Elastic Constant Matrix: (Units=GPa)
#
#
# Indices 1 2 3 4 5 6 
#
# 1 40.9974 34.0164 10.1161 0.0000 0.0000 0.0000
# 2 34.0164 210.0584 26.2938 0.0000 0.0000 0.0000
# 3 10.1161 26.2938 122.4929 0.0000 0.0000 0.0000
# 4 0.0000 0.0000 0.0000 12.6817 0.0000 0.0000
# 5 0.0000 0.0000 0.0000 0.0000 -3.8232 0.0000
# 6 0.0000 0.0000 0.0000 0.0000 0.0000 19.9869
#
#
#
# Elastic Compliance Matrix: (Units=1/GPa)
#
#
# Indices 1 2 3 4 5 6 
#
# 1 0.028408 -0.004426 -0.001396 0.000000 0.000000 0.000000
# 2 -0.004426 0.005581 -0.000833 0.000000 0.000000 0.000000
# 3 -0.001396 -0.000833 0.008458 0.000000 0.000000 0.000000
# 4 0.000000 0.000000 0.000000 0.078854 0.000000 0.000000
# 5 0.000000 0.000000 0.000000 0.000000 -0.261558 0.000000
# 6 0.000000 0.000000 0.000000 0.000000 0.000000 0.050033
#
#
# Mechanical properties :
#
#
# Convention : Reuss Voigt Hill
#
# Bulk Modulus (GPa) = 34.31844 57.15571 45.73708
# Shear Modulus (GPa) = -74.40207 25.97723 -24.21242
#
# Velocity S-wave (km/s) = -5.48041 3.23830 -3.12637
# Velocity P-wave (km/s) = 5.11789 6.08728 2.33047
#
# Compressibility (1/GPa) = 0.02913885
#
# Stress axis : x y z
#
# Youngs Moduli (GPa) = 35.20095 179.16399 118.23454
#
# Poissons Ratio (x) = 0.79291 0.16507
# Poissons Ratio (y) = 0.15579 0.09844
# Poissons Ratio (z) = 0.04914 0.14917
#
# Static dielectric constant tensor:
#      x y z
#    x 2.058460 0.000000 0.000000 
#    y 0.000000 2.110830 0.000000 
#    z 0.000000 0.000000 1.992590 
# 
# From -- ./inp_files/23448.got.cif
#   From: 2010.05.17/outbox.cif.g08.bks.cpg/sg21_12_cif.got.tgz:23448.got - 2010.06.03 23:14:55.
