data_PCOD9323527
_publ_section_title
;
Structure prediction by ZEFSAII (Michael W. Deem and Ramdas Pophale) SiO2 
 PCOD9323527
Probable space group: C 2 2 2
;
_chemical_formula_sum "Si O2"
_cell_formula_units_Z 24
_cell_length_a 14.780543
_cell_length_b 15.319372
_cell_length_c 4.872091
_cell_angle_alpha 90.000000
_cell_angle_beta 90.000000
_cell_angle_gamma 90.000000
_cell_volume 1103.180922
_symmetry_space_group_name_H-M "C 2 2 2"
_symmetry_group_IT_number 21
_symmetry_cell_setting 'orthorhombic'
loop_
_space_group_symop_operation_xyz
x,y,z
-x,-y,z
x,-y,-z
-x,y,-z
1/2+x,1/2+y,z
1/2-x,1/2-y,z
1/2+x,1/2-y,-z
1/2-x,1/2+y,-z
loop_
_atom_site_type_symbol
_atom_site_label
_atom_site_fract_x
_atom_site_fract_y
_atom_site_fract_z
Si Si1 0.441258 0.276410 0.764243
Si Si2 0.720133 0.593342 0.611305
Si Si3 0.688602 0.163323 0.896742
O O1 0.500000 0.249792 0.500000
O O2 0.361990 0.337477 0.638534
O O3 0.400047 0.197430 0.947055
O O4 0.500000 0.325809 0.000000
O O5 0.689402 0.500000 0.500000
O O6 0.763560 0.593212 0.909909
O O7 0.799849 0.628496 0.409822
O O8 0.750000 0.250000 0.899845
#
# Coordination Sequence:
#
# PCOD9323527 Si02
#       3
#     8   8   8
#     4  11  22  38  62  91 121 154 195 247 299 349
#     4  11  22  38  61  89 120 155 196 243 295 352
#     4  10  20  38  60  83 115 160 206 234 275 355
#
# _framework density 21.755272000000001
#
# number of rings (size 3 to 8) (size 9 to 14) (size 15 to 20)
#    0.000    1.333    0.000   10.000    0.000    0.667 
#    0.000    5.000    0.000   15.000    0.000    0.000 
#    0.000    0.000    0.000    0.000    0.000    0.000 
#
# Total GULP energy -66897.074158 kJ/mol
# GULP energy per Si atom -5574.756180 kJ/mol
# Density = 2.170576 g / cm^3
# Si number density = 21.755272 Si / 1000 Ang^3
#
#
#
# Elastic Constant Matrix: (Units=GPa)
#
#
# Indices 1 2 3 4 5 6 
#
# 1 78.9784 16.4776 27.2532 0.0000 0.0000 0.0000
# 2 16.4776 52.0290 27.3539 0.0000 0.0000 0.0000
# 3 27.2532 27.3539 140.7431 0.0000 0.0000 0.0000
# 4 0.0000 0.0000 0.0000 34.2540 0.0000 0.0000
# 5 0.0000 0.0000 0.0000 0.0000 49.7937 0.0000
# 6 0.0000 0.0000 0.0000 0.0000 0.0000 6.4841
#
#
#
# Elastic Compliance Matrix: (Units=1/GPa)
#
#
# Indices 1 2 3 4 5 6 
#
# 1 0.014080 -0.003370 -0.002071 0.000000 0.000000 0.000000
# 2 -0.003370 0.022214 -0.003665 0.000000 0.000000 0.000000
# 3 -0.002071 -0.003665 0.008219 0.000000 0.000000 0.000000
# 4 0.000000 0.000000 0.000000 0.029194 0.000000 0.000000
# 5 0.000000 0.000000 0.000000 0.000000 0.020083 0.000000
# 6 0.000000 0.000000 0.000000 0.000000 0.000000 0.154224
#
#
# Mechanical properties :
#
#
# Convention : Reuss Voigt Hill
#
# Bulk Modulus (GPa) = 38.02312 45.99110 42.00711
# Shear Modulus (GPa) = 18.18237 31.48407 24.83322
#
# Velocity S-wave (km/s) = 2.89410 3.80833 3.38225
# Velocity P-wave (km/s) = 5.35569 6.36584 5.88249
#
# Compressibility (1/GPa) = 0.02629979
#
# Stress axis : x y z
#
# Youngs Moduli (GPa) = 71.02493 45.01644 121.67655
#
# Poissons Ratio (x) = 0.15171 0.25204
# Poissons Ratio (y) = 0.23935 0.44592
# Poissons Ratio (z) = 0.14712 0.16498
#
# Static dielectric constant tensor:
#      x y z
#    x 1.906360 0.000000 0.000000 
#    y 0.000000 1.805620 0.000000 
#    z 0.000000 0.000000 1.792210 
# 
# From -- ./inp_files/2060.got.cif
#   From: 2010.05.17/outbox.cif.g08.bks.cpg/sg21_2_cif.got.tgz:2060.got - 2010.06.03 23:14:55.
