data_PCOD9323935
_publ_section_title
;
Structure prediction by ZEFSAII (Michael W. Deem and Ramdas Pophale) SiO2 
 PCOD9323935
Probable space group: C 2 2 2
;
_chemical_formula_sum "Si O2"
_cell_formula_units_Z 64
_cell_length_a 17.368063
_cell_length_b 8.850503
_cell_length_c 21.078417
_cell_angle_alpha 90.000000
_cell_angle_beta 90.000000
_cell_angle_gamma 90.000000
_cell_volume 3240.091922
_symmetry_space_group_name_H-M "C 2 2 2"
_symmetry_group_IT_number 21
_symmetry_cell_setting 'orthorhombic'
loop_
_space_group_symop_operation_xyz
x,y,z
-x,-y,z
x,-y,-z
-x,y,-z
1/2+x,1/2+y,z
1/2-x,1/2-y,z
1/2+x,1/2-y,-z
1/2-x,1/2+y,-z
loop_
_atom_site_type_symbol
_atom_site_label
_atom_site_fract_x
_atom_site_fract_y
_atom_site_fract_z
Si Si1 0.460703 0.656662 0.632743
Si Si2 0.577230 0.937909 0.792157
Si Si3 0.658153 0.503106 0.724019
Si Si4 0.874882 0.701634 0.669225
Si Si5 0.707958 0.403343 0.063078
Si Si6 0.779036 0.589775 0.176110
Si Si7 0.067506 0.121100 0.849059
Si Si8 0.409833 0.044626 0.429809
O O1 0.500000 0.500000 0.605837
O O2 0.399643 0.608565 0.686844
O O3 0.536368 0.740090 0.660493
O O4 0.415552 0.776936 0.587943
O O5 0.631216 0.870591 0.738125
O O6 0.552125 0.799143 0.836868
O O7 0.500000 0.000000 0.761635
O O8 0.629342 0.071287 0.819847
O O9 0.673075 0.642461 0.675181
O O10 0.733394 0.434021 0.757237
O O11 0.611061 0.566488 0.784772
O O12 0.865797 0.567041 0.618768
O O13 0.750000 0.250000 0.046878
O O14 0.753200 0.469245 0.123950
O O15 0.622731 0.385335 0.090592
O O16 0.708724 0.500000 0.000000
O O17 0.750000 0.750000 0.152096
O O18 0.000000 0.000000 0.856993
O O19 0.500000 0.000000 0.427517
O O20 0.382244 0.000000 0.500000
#
# Coordination Sequence:
#
# PCOD9323935 Si02
#       8
#     8   8   8   8   8   8   8   8
#     4   9  16  30  50  80 115 158 199 250 312 368
#     4  11  22  36  60  90 125 157 194 248 318 369
#     4   9  19  34  54  81 120 151 198 249 315 368
#     4   9  18  30  53  78 114 159 196 246 307 360
#     4  11  23  45  67  86 122 167 208 251 304 363
#     4  11  25  38  60  95 123 156 206 249 306 377
#     4  10  21  37  63  89 122 158 204 255 310 369
#     4   9  17  29  46  75 118 162 212 254 297 357
#
# _framework density 19.752526
#
# number of rings (size 3 to 8) (size 9 to 14) (size 15 to 20)
#    0.000    2.125    1.250    3.375    7.000    0.250 
#    0.000   10.625    0.000    0.375    0.000    3.500 
#    0.000    0.000    0.000    0.000    0.000    0.125 
#
# Total GULP energy -178167.607961 kJ/mol
# GULP energy per Si atom -5567.737749 kJ/mol
# Density = 1.970757 g / cm^3
# Si number density = 19.752526 Si / 1000 Ang^3
#
#
#
# Elastic Constant Matrix: (Units=GPa)
#
#
# Indices 1 2 3 4 5 6 
#
# 1 42.6745 23.5220 7.9264 0.0000 0.0000 0.0000
# 2 23.5220 115.1990 45.4432 0.0000 0.0000 0.0000
# 3 7.9264 45.4432 85.8584 0.0000 0.0000 0.0000
# 4 0.0000 0.0000 0.0000 32.4619 0.0000 0.0000
# 5 0.0000 0.0000 0.0000 0.0000 63.8269 0.0000
# 6 0.0000 0.0000 0.0000 0.0000 0.0000 27.5218
#
#
#
# Elastic Compliance Matrix: (Units=1/GPa)
#
#
# Indices 1 2 3 4 5 6 
#
# 1 0.026424 -0.005603 0.000526 0.000000 0.000000 0.000000
# 2 -0.005603 0.012159 -0.005918 0.000000 0.000000 0.000000
# 3 0.000526 -0.005918 0.014731 0.000000 0.000000 0.000000
# 4 0.000000 0.000000 0.000000 0.030805 0.000000 0.000000
# 5 0.000000 0.000000 0.000000 0.000000 0.015667 0.000000
# 6 0.000000 0.000000 0.000000 0.000000 0.000000 0.036335
#
#
# Mechanical properties :
#
#
# Convention : Reuss Voigt Hill
#
# Bulk Modulus (GPa) = 31.92479 44.16834 38.04656
# Shear Modulus (GPa) = 29.66418 35.88480 32.77449
#
# Velocity S-wave (km/s) = 3.87950 4.26692 4.07782
# Velocity P-wave (km/s) = 6.02203 6.83264 6.44010
#
# Compressibility (1/GPa) = 0.03132362
#
# Stress axis : x y z
#
# Youngs Moduli (GPa) = 37.84470 82.24129 67.88392
#
# Poissons Ratio (x) = 0.46079 -0.03571
# Poissons Ratio (y) = 0.21204 0.40177
# Poissons Ratio (z) = -0.01991 0.48674
#
# Static dielectric constant tensor:
#      x y z
#    x 1.694900 0.000000 0.000000 
#    y 0.000000 1.584730 0.000000 
#    z 0.000000 0.000000 1.667110 
# 
# From -- ./inp_files/37711.got.cif
#   From: 2010.05.17/outbox.cif.g08.bks.cpg/sg21_19_cif.got.tgz:37711.got - 2010.06.03 23:14:55.
