data_PCOD9323124
_publ_section_title
;
Structure prediction by ZEFSAII (Michael W. Deem and Ramdas Pophale) SiO2 
 PCOD9323124
Probable space group: C 2 2 2
;
_chemical_formula_sum "Si O2"
_cell_formula_units_Z 56
_cell_length_a 7.313193
_cell_length_b 22.005645
_cell_length_c 14.801795
_cell_angle_alpha 90.000000
_cell_angle_beta 90.000000
_cell_angle_gamma 90.000000
_cell_volume 2382.075501
_symmetry_space_group_name_H-M "C 2 2 2"
_symmetry_group_IT_number 21
_symmetry_cell_setting 'orthorhombic'
loop_
_space_group_symop_operation_xyz
x,y,z
-x,-y,z
x,-y,-z
-x,y,-z
1/2+x,1/2+y,z
1/2-x,1/2-y,z
1/2+x,1/2-y,-z
1/2-x,1/2+y,-z
loop_
_atom_site_type_symbol
_atom_site_label
_atom_site_fract_x
_atom_site_fract_y
_atom_site_fract_z
Si Si1 0.777462 0.433375 0.105396
Si Si2 0.723724 0.865705 0.397852
Si Si3 0.222538 0.433375 0.105396
Si Si4 0.293894 0.000000 0.609761
Si Si5 0.217549 0.683217 0.214618
Si Si6 0.223724 0.634295 0.397852
Si Si7 0.217549 0.683217 0.785382
O O1 0.720550 0.500000 0.140947
O O2 0.712170 0.374284 0.158591
O O3 1.000000 0.432962 0.108095
O O4 0.726166 0.429635 1.000000
O O5 0.500000 0.867647 0.400798
O O6 0.783396 0.851759 0.500000
O O7 0.783512 0.821576 0.318179
O O8 0.784921 0.933987 0.370014
O O9 0.287830 0.374284 0.158591
O O10 0.215079 0.066013 0.629986
O O11 0.500000 0.000000 0.648261
O O12 0.305569 0.000000 0.500000
O O13 0.250000 0.750000 0.176015
O O14 0.283512 0.678424 0.318179
O O15 0.000000 0.675790 0.218065
O O16 0.250000 0.750000 0.823985
#
# Coordination Sequence:
#
# PCOD9323124 Si02
#       7
#     8   8   8   8   8   8   8
#     4   8  15  29  49  72  94 116 149 194 236 271
#     4   8  14  24  39  62  91 119 149 188 230 268
#     4   8  15  29  49  72  94 116 149 194 236 271
#     4   7  10  18  34  58  84 106 136 185 233 259
#     4  10  20  31  46  69  96 125 155 186 227 275
#     4   8  14  24  39  62  91 119 149 188 230 268
#     4  10  20  31  46  69  96 125 155 186 227 275
#
# _framework density 23.508911000000001
#
# number of rings (size 3 to 8) (size 9 to 14) (size 15 to 20)
#    0.000    3.571    0.000    2.571    2.000    1.143 
#    0.000    0.000    0.000    0.857    0.000    2.000 
#    0.000    3.429    0.000    0.000    0.000    0.000 
#
# Total GULP energy -156211.660102 kJ/mol
# GULP energy per Si atom -5578.987861 kJ/mol
# Density = 2.345540 g / cm^3
# Si number density = 23.508911 Si / 1000 Ang^3
#
#
#
# Elastic Constant Matrix: (Units=GPa)
#
#
# Indices 1 2 3 4 5 6 
#
# 1 92.6310 -1.5627 3.5317 0.0000 0.0000 0.0000
# 2 -1.5627 197.2754 87.9717 0.0000 0.0000 0.0000
# 3 3.5317 87.9717 87.9931 0.0000 0.0000 0.0000
# 4 0.0000 0.0000 0.0000 21.2959 0.0000 0.0000
# 5 0.0000 0.0000 0.0000 0.0000 -18.0201 0.0000
# 6 0.0000 0.0000 0.0000 0.0000 0.0000 0.2120
#
#
#
# Elastic Compliance Matrix: (Units=1/GPa)
#
#
# Indices 1 2 3 4 5 6 
#
# 1 0.010840 0.000505 -0.000940 0.000000 0.000000 0.000000
# 2 0.000505 0.009171 -0.009189 0.000000 0.000000 0.000000
# 3 -0.000940 -0.009189 0.020589 0.000000 0.000000 0.000000
# 4 0.000000 0.000000 0.000000 0.046957 0.000000 0.000000
# 5 0.000000 0.000000 0.000000 0.000000 -0.055493 0.000000
# 6 0.000000 0.000000 0.000000 0.000000 0.000000 4.717286
#
#
# Mechanical properties :
#
#
# Convention : Reuss Voigt Hill
#
# Bulk Modulus (GPa) = 46.83407 61.97562 54.40485
# Shear Modulus (GPa) = 1.04696 19.89480 10.47088
#
# Velocity S-wave (km/s) = 0.66807 2.91222 2.11274
# Velocity P-wave (km/s) = 4.53433 6.14230 5.39852
#
# Compressibility (1/GPa) = 0.02135198
#
# Stress axis : x y z
#
# Youngs Moduli (GPa) = 92.25195 109.04461 48.57051
#
# Poissons Ratio (x) = -0.05507 0.04566
# Poissons Ratio (y) = -0.04659 0.44629
# Poissons Ratio (z) = 0.08672 1.00197
#
# Static dielectric constant tensor:
#      x y z
#    x 1.981690 0.000000 0.000000 
#    y 0.000000 1.894630 0.000000 
#    z 0.000000 0.000000 1.866000 
# 
# From -- ./inp_files/30743.got.cif
#   From: 2010.05.17/outbox.cif.g08.bks.cpg/sg21_16_cif.got.tgz:30743.got - 2010.06.03 23:14:55.
