data_PCOD9323160
_publ_section_title
;
Structure prediction by ZEFSAII (Michael W. Deem and Ramdas Pophale) SiO2 
 PCOD9323160
Probable space group: C 2 2 2
;
_chemical_formula_sum "Si O2"
_cell_formula_units_Z 40
_cell_length_a 4.955216
_cell_length_b 22.219738
_cell_length_c 18.487514
_cell_angle_alpha 90.000000
_cell_angle_beta 90.000000
_cell_angle_gamma 90.000000
_cell_volume 2035.541870
_symmetry_space_group_name_H-M "C 2 2 2"
_symmetry_group_IT_number 21
_symmetry_cell_setting 'orthorhombic'
loop_
_space_group_symop_operation_xyz
x,y,z
-x,-y,z
x,-y,-z
-x,y,-z
1/2+x,1/2+y,z
1/2-x,1/2-y,z
1/2+x,1/2-y,-z
1/2-x,1/2+y,-z
loop_
_atom_site_type_symbol
_atom_site_label
_atom_site_fract_x
_atom_site_fract_y
_atom_site_fract_z
Si Si1 0.056195 0.380166 0.418566
Si Si2 0.998724 0.794814 0.920035
Si Si3 0.940648 0.807467 0.627700
Si Si4 0.392607 0.635718 0.224962
Si Si5 0.121740 0.435563 0.270952
O O1 0.274531 0.324330 0.410993
O O2 0.148326 0.426972 0.357769
O O3 0.000000 0.400013 0.500000
O O4 0.760339 0.360583 0.393352
O O5 0.250000 0.750000 0.909548
O O6 0.750000 0.750000 0.920757
O O7 0.953688 0.839551 0.853997
O O8 0.000000 0.824110 0.000000
O O9 0.750000 0.750000 0.610554
O O10 0.976368 0.814275 0.714247
O O11 0.586537 0.579220 0.239673
O O12 0.086181 0.615008 0.240072
O O13 0.000000 0.500000 0.253928
#
# Coordination Sequence:
#
# PCOD9323160 Si02
#       5
#     8   8   8   8   8
#     4  10  21  35  51  75 103 133 176 222 267 317
#     4  10  20  34  56  86 116 144 172 208 259 314
#     4  10  20  33  51  74 103 140 173 208 259 320
#     4  10  20  35  56  80 108 139 178 221 259 315
#     4  10  21  37  57  78 102 139 183 228 273 309
#
# _framework density 19.650787999999999
#
# number of rings (size 3 to 8) (size 9 to 14) (size 15 to 20)
#    0.000    2.000    0.000    3.600    0.000    5.200 
#    0.000    0.000    0.000   12.000    0.000    0.000 
#    0.000    0.000    0.000    0.000    0.000    0.000 
#
# Total GULP energy -111449.645874 kJ/mol
# GULP energy per Si atom -5572.482294 kJ/mol
# Density = 1.960606 g / cm^3
# Si number density = 19.650788 Si / 1000 Ang^3
#
#
#
# Elastic Constant Matrix: (Units=GPa)
#
#
# Indices 1 2 3 4 5 6 
#
# 1 111.2879 -5.3306 5.5372 0.0000 0.0000 0.0000
# 2 -5.3306 19.1942 8.6180 0.0000 0.0000 0.0000
# 3 5.5372 8.6180 133.3336 0.0000 0.0000 0.0000
# 4 0.0000 0.0000 0.0000 2.6477 0.0000 0.0000
# 5 0.0000 0.0000 0.0000 0.0000 21.6529 0.0000
# 6 0.0000 0.0000 0.0000 0.0000 0.0000 20.5618
#
#
#
# Elastic Compliance Matrix: (Units=1/GPa)
#
#
# Indices 1 2 3 4 5 6 
#
# 1 0.009147 0.002792 -0.000560 0.000000 0.000000 0.000000
# 2 0.002792 0.054508 -0.003639 0.000000 0.000000 0.000000
# 3 -0.000560 -0.003639 0.007758 0.000000 0.000000 0.000000
# 4 0.000000 0.000000 0.000000 0.377693 0.000000 0.000000
# 5 0.000000 0.000000 0.000000 0.000000 0.046183 0.000000
# 6 0.000000 0.000000 0.000000 0.000000 0.000000 0.048634
#
#
# Mechanical properties :
#
#
# Convention : Reuss Voigt Hill
#
# Bulk Modulus (GPa) = 14.57741 31.27388 22.92565
# Shear Modulus (GPa) = 8.77800 25.97186 17.37493
#
# Velocity S-wave (km/s) = 2.11582 3.63942 2.97675
# Velocity P-wave (km/s) = 3.66105 5.79740 4.84836
#
# Compressibility (1/GPa) = 0.06859931
#
# Stress axis : x y z
#
# Youngs Moduli (GPa) = 109.32170 18.34578 128.89145
#
# Poissons Ratio (x) = -0.05122 0.07222
# Poissons Ratio (y) = -0.30522 0.46905
# Poissons Ratio (z) = 0.06126 0.06676
#
# Static dielectric constant tensor:
#      x y z
#    x 1.679000 0.000000 0.000000 
#    y 0.000000 1.712890 0.000000 
#    z 0.000000 0.000000 1.761910 
# 
# From -- ./inp_files/34871.got.cif
#   From: 2010.05.17/outbox.cif.g08.bks.cpg/sg21_18_cif.got.tgz:34871.got - 2010.06.03 23:14:55.
