data_PCOD9323313
_publ_section_title
;
Structure prediction by ZEFSAII (Michael W. Deem and Ramdas Pophale) SiO2 
 PCOD9323313
Probable space group: C 2 2 2
;
_chemical_formula_sum "Si O2"
_cell_formula_units_Z 56
_cell_length_a 21.477596
_cell_length_b 21.631218
_cell_length_c 5.704666
_cell_angle_alpha 90.000000
_cell_angle_beta 90.000000
_cell_angle_gamma 90.000000
_cell_volume 2650.311160
_symmetry_space_group_name_H-M "C 2 2 2"
_symmetry_group_IT_number 21
_symmetry_cell_setting 'orthorhombic'
loop_
_space_group_symop_operation_xyz
x,y,z
-x,-y,z
x,-y,-z
-x,y,-z
1/2+x,1/2+y,z
1/2-x,1/2-y,z
1/2+x,1/2-y,-z
1/2-x,1/2+y,-z
loop_
_atom_site_type_symbol
_atom_site_label
_atom_site_fract_x
_atom_site_fract_y
_atom_site_fract_z
Si Si1 0.406919 0.663221 0.401252
Si Si2 0.908352 0.966409 0.748345
Si Si3 0.684869 0.849584 0.610591
Si Si4 0.139077 0.741038 0.018115
Si Si5 0.296281 0.660752 0.731900
Si Si6 0.734805 0.439877 0.129178
Si Si7 0.062842 0.293379 0.380692
O O1 0.437587 0.602713 0.285176
O O2 0.354108 0.636926 0.575499
O O3 0.436270 0.720110 0.547323
O O4 0.378999 0.703161 0.188889
O O5 0.832843 0.957866 0.766038
O O6 0.922633 0.000000 0.500000
O O7 0.924911 0.000000 0.000000
O O8 0.738688 0.829398 0.436620
O O9 0.712331 0.915120 0.694999
O O10 0.619032 0.834553 0.488250
O O11 0.679357 0.807636 0.840812
O O12 0.179861 0.774151 0.824755
O O13 0.078967 0.709869 0.895671
O O14 0.280328 0.613041 0.937198
O O15 0.759480 0.500000 0.000000
O O16 0.000000 0.317262 0.500000
#
# Coordination Sequence:
#
# PCOD9323313 Si02
#       7
#     8   8   8   8   8   8   8
#     4  10  20  35  58  87 117 159 196 250 307 375
#     4  11  22  36  58  89 131 171 208 247 303 378
#     4  11  23  35  56  84 118 155 196 245 309 385
#     4  10  22  37  56  86 120 152 191 251 315 378
#     4  11  20  36  54  88 129 155 194 236 309 380
#     4  11  23  34  54  84 128 164 196 242 299 381
#     4  10  24  41  60  82 110 152 207 268 322 367
#
# _framework density 21.129594000000001
#
# number of rings (size 3 to 8) (size 9 to 14) (size 15 to 20)
#    0.000    1.429    2.857    2.571    2.000   16.000 
#    0.000    0.000    0.000    0.429    0.000   14.000 
#    0.000    0.000    0.000    0.000    0.000    0.000 
#
# Total GULP energy -156127.672146 kJ/mol
# GULP energy per Si atom -5575.988291 kJ/mol
# Density = 2.108150 g / cm^3
# Si number density = 21.129594 Si / 1000 Ang^3
#
#
#
# Elastic Constant Matrix: (Units=GPa)
#
#
# Indices 1 2 3 4 5 6 
#
# 1 62.8185 -12.2273 1.2525 0.0000 0.0000 0.0000
# 2 -12.2273 36.9694 -1.6991 0.0000 0.0000 0.0000
# 3 1.2525 -1.6991 71.5465 0.0000 0.0000 0.0000
# 4 0.0000 0.0000 0.0000 30.8814 0.0000 0.0000
# 5 0.0000 0.0000 0.0000 0.0000 -20.7099 0.0000
# 6 0.0000 0.0000 0.0000 0.0000 0.0000 4.1976
#
#
#
# Elastic Compliance Matrix: (Units=1/GPa)
#
#
# Indices 1 2 3 4 5 6 
#
# 1 0.017016 0.005620 -0.000164 0.000000 0.000000 0.000000
# 2 0.005620 0.028935 0.000589 0.000000 0.000000 0.000000
# 3 -0.000164 0.000589 0.013994 0.000000 0.000000 0.000000
# 4 0.000000 0.000000 0.000000 0.032382 0.000000 0.000000
# 5 0.000000 0.000000 0.000000 0.000000 -0.048286 0.000000
# 6 0.000000 0.000000 0.000000 0.000000 0.000000 0.238234
#
#
# Mechanical properties :
#
#
# Convention : Reuss Voigt Hill
#
# Bulk Modulus (GPa) = 13.88217 16.22073 15.05145
# Shear Modulus (GPa) = 16.99540 15.14105 16.06823
#
# Velocity S-wave (km/s) = 2.83917 2.67981 2.76064
# Velocity P-wave (km/s) = 4.16318 4.15555 4.15937
#
# Compressibility (1/GPa) = 0.07203483
#
# Stress axis : x y z
#
# Youngs Moduli (GPa) = 58.76777 34.55975 71.46033
#
# Poissons Ratio (x) = -0.19424 0.01175
# Poissons Ratio (y) = -0.33030 -0.04208
# Poissons Ratio (z) = 0.00966 -0.02035
#
# Static dielectric constant tensor:
#      x y z
#    x 1.811960 0.000000 0.000000 
#    y 0.000000 1.768060 0.000000 
#    z 0.000000 0.000000 1.853140 
# 
# From -- ./inp_files/6087.got.cif
#   From: 2010.05.17/outbox.cif.g08.bks.cpg/sg21_4_cif.got.tgz:6087.got - 2010.06.03 23:14:55.
