data_PCOD9323731
_publ_section_title
;
Structure prediction by ZEFSAII (Michael W. Deem and Ramdas Pophale) SiO2 
 PCOD9323731
Probable space group: C 2 2 2
;
_chemical_formula_sum "Si O2"
_cell_formula_units_Z 48
_cell_length_a 8.540785
_cell_length_b 18.323581
_cell_length_c 13.338406
_cell_angle_alpha 90.000000
_cell_angle_beta 90.000000
_cell_angle_gamma 90.000000
_cell_volume 2087.430738
_symmetry_space_group_name_H-M "C 2 2 2"
_symmetry_group_IT_number 21
_symmetry_cell_setting 'orthorhombic'
loop_
_space_group_symop_operation_xyz
x,y,z
-x,-y,z
x,-y,-z
-x,y,-z
1/2+x,1/2+y,z
1/2-x,1/2-y,z
1/2+x,1/2-y,-z
1/2-x,1/2+y,-z
loop_
_atom_site_type_symbol
_atom_site_label
_atom_site_fract_x
_atom_site_fract_y
_atom_site_fract_z
Si Si1 0.986971 0.858183 0.672821
Si Si2 0.000000 0.000000 0.756516
Si Si3 0.925090 0.259402 0.831914
Si Si4 0.000000 0.247959 0.500000
Si Si5 0.258709 0.037073 0.101390
Si Si6 0.848452 0.638399 0.355467
Si Si7 0.000000 0.500000 0.263251
Si Si8 0.500000 0.150264 0.000000
O O1 0.002184 0.808855 0.772884
O O2 0.926260 0.805126 0.584852
O O3 0.164936 0.877438 0.639224
O O4 0.912910 0.937612 0.691670
O O5 0.891001 0.048767 0.829182
O O6 0.750000 0.250000 0.880181
O O7 0.882481 0.316169 0.744879
O O8 0.043773 0.295282 0.909972
O O9 0.889544 0.304878 0.557887
O O10 0.362057 0.989797 0.180186
O O11 0.370755 0.099594 0.054767
O O12 0.203140 0.000000 0.000000
O O13 0.949344 0.566157 0.335282
#
# Coordination Sequence:
#
# PCOD9323731 Si02
#       8
#     8   4   8   4   8   8   4   4
#     4  10  22  45  65  97 139 177 229 298 355 424
#     4  12  25  45  68 102 144 192 230 302 358 428
#     4   9  18  37  63  92 134 180 230 284 348 408
#     4  10  22  42  72  96 128 180 226 296 370 422
#     4  12  22  40  67 101 143 186 239 284 345 408
#     4  10  20  41  69  96 133 180 233 289 350 426
#     4  12  19  41  68 100 138 190 232 290 348 412
#     4  12  19  38  72  97 136 196 238 288 340 423
#
# _framework density 22.994775000000001
#
# number of rings (size 3 to 8) (size 9 to 14) (size 15 to 20)
#    0.000    1.333    5.000    2.750    0.000    0.667 
#   12.000    1.667    0.000    0.000    0.000    0.000 
#    0.000    0.000    0.000    0.000    0.000    0.000 
#
# Total GULP energy -133669.544514 kJ/mol
# GULP energy per Si atom -5569.564355 kJ/mol
# Density = 2.294244 g / cm^3
# Si number density = 22.994775 Si / 1000 Ang^3
#
#
#
# Elastic Constant Matrix: (Units=GPa)
#
#
# Indices 1 2 3 4 5 6 
#
# 1 41.0899 30.1719 38.5350 0.0000 0.0000 0.0000
# 2 30.1719 133.2757 57.9847 0.0000 0.0000 0.0000
# 3 38.5350 57.9847 118.9665 0.0000 0.0000 0.0000
# 4 0.0000 0.0000 0.0000 35.1774 0.0000 0.0000
# 5 0.0000 0.0000 0.0000 0.0000 33.2326 0.0000
# 6 0.0000 0.0000 0.0000 0.0000 0.0000 24.4187
#
#
#
# Elastic Compliance Matrix: (Units=1/GPa)
#
#
# Indices 1 2 3 4 5 6 
#
# 1 0.036533 -0.003962 -0.009902 0.000000 0.000000 0.000000
# 2 -0.003962 0.009952 -0.003567 0.000000 0.000000 0.000000
# 3 -0.009902 -0.003567 0.013352 0.000000 0.000000 0.000000
# 4 0.000000 0.000000 0.000000 0.028427 0.000000 0.000000
# 5 0.000000 0.000000 0.000000 0.000000 0.030091 0.000000
# 6 0.000000 0.000000 0.000000 0.000000 0.000000 0.040952
#
#
# Mechanical properties :
#
#
# Convention : Reuss Voigt Hill
#
# Bulk Modulus (GPa) = 40.04279 60.74615 50.39447
# Shear Modulus (GPa) = 24.69181 29.67510 27.18345
#
# Velocity S-wave (km/s) = 3.28045 3.59627 3.44198
# Velocity P-wave (km/s) = 5.63916 6.61203 6.14488
#
# Compressibility (1/GPa) = 0.02497328
#
# Stress axis : x y z
#
# Youngs Moduli (GPa) = 27.37249 100.47899 74.89535
#
# Poissons Ratio (x) = 0.39814 0.74164
# Poissons Ratio (y) = 0.10846 0.26718
# Poissons Ratio (z) = 0.27105 0.35844
#
# Static dielectric constant tensor:
#      x y z
#    x 1.882120 0.000000 0.000000 
#    y 0.000000 1.941280 0.000000 
#    z 0.000000 0.000000 1.855590 
# 
# From -- ./inp_files/30576.got.cif
#   From: 2010.05.17/outbox.cif.g08.bks.cpg/sg21_16_cif.got.tgz:30576.got - 2010.06.03 23:14:55.
