data_PCOD9323157
_publ_section_title
;
Structure prediction by ZEFSAII (Michael W. Deem and Ramdas Pophale) SiO2 
 PCOD9323157
Probable space group: C 2 2 2
;
_chemical_formula_sum "Si O2"
_cell_formula_units_Z 48
_cell_length_a 18.690903
_cell_length_b 15.448089
_cell_length_c 7.614679
_cell_angle_alpha 90.000000
_cell_angle_beta 90.000000
_cell_angle_gamma 90.000000
_cell_volume 2198.652767
_symmetry_space_group_name_H-M "C 2 2 2"
_symmetry_group_IT_number 21
_symmetry_cell_setting 'orthorhombic'
loop_
_space_group_symop_operation_xyz
x,y,z
-x,-y,z
x,-y,-z
-x,y,-z
1/2+x,1/2+y,z
1/2-x,1/2-y,z
1/2+x,1/2-y,-z
1/2-x,1/2+y,-z
loop_
_atom_site_type_symbol
_atom_site_label
_atom_site_fract_x
_atom_site_fract_y
_atom_site_fract_z
Si Si1 0.634210 0.096559 0.455399
Si Si2 0.797888 0.096319 0.453703
Si Si3 0.420987 0.276049 0.543984
Si Si4 0.370941 0.904893 0.034062
Si Si5 0.421306 0.720670 0.034341
Si Si6 0.722141 0.651385 0.944010
O O1 0.716265 0.108129 0.518391
O O2 0.588540 0.177504 0.521543
O O3 0.634898 0.102188 0.244387
O O4 0.609277 0.000000 0.500000
O O5 0.854972 0.165979 0.520251
O O6 0.792197 0.106536 0.242679
O O7 0.821255 0.000000 0.500000
O O8 0.500000 0.308461 0.500000
O O9 0.413785 0.276226 0.754990
O O10 0.413083 0.820208 0.969611
O O11 0.288863 0.896161 0.965255
O O12 0.400780 0.000000 0.000000
O O13 0.354457 0.664713 0.964972
O O14 0.500000 0.686504 0.000000
O O15 0.750000 0.750000 0.909145
#
# Coordination Sequence:
#
# PCOD9323157 Si02
#       6
#     8   8   8   8   8   8
#     4   9  18  33  52  73  99 130 163 202 249 294
#     4   9  16  30  53  74  93 125 166 204 241 287
#     4  10  20  33  50  73 102 133 164 201 244 295
#     4   9  17  30  51  74  94 121 162 206 241 285
#     4   9  18  33  50  69  96 131 164 195 241 294
#     4   8  15  31  52  70  94 129 164 199 245 296
#
# _framework density 21.831553
#
# number of rings (size 3 to 8) (size 9 to 14) (size 15 to 20)
#    0.000    3.000    0.000    3.500    0.000    2.333 
#    0.000    8.333    0.000   10.500    0.000    0.000 
#    0.000    0.000    0.000    0.000    0.000    0.000 
#
# Total GULP energy -133859.534514 kJ/mol
# GULP energy per Si atom -5577.480605 kJ/mol
# Density = 2.178186 g / cm^3
# Si number density = 21.831553 Si / 1000 Ang^3
#
#
#
# Elastic Constant Matrix: (Units=GPa)
#
#
# Indices 1 2 3 4 5 6 
#
# 1 73.0225 1.3954 -0.6309 0.0000 0.0000 0.0000
# 2 1.3954 57.4022 1.4838 0.0000 0.0000 0.0000
# 3 -0.6309 1.4838 42.1835 0.0000 0.0000 0.0000
# 4 0.0000 0.0000 0.0000 156.0624 0.0000 0.0000
# 5 0.0000 0.0000 0.0000 0.0000 20.3156 0.0000
# 6 0.0000 0.0000 0.0000 0.0000 0.0000 8.5740
#
#
#
# Elastic Compliance Matrix: (Units=1/GPa)
#
#
# Indices 1 2 3 4 5 6 
#
# 1 0.013703 -0.000339 0.000217 0.000000 0.000000 0.000000
# 2 -0.000339 0.017445 -0.000619 0.000000 0.000000 0.000000
# 3 0.000217 -0.000619 0.023731 0.000000 0.000000 0.000000
# 4 0.000000 0.000000 0.000000 0.006408 0.000000 0.000000
# 5 0.000000 0.000000 0.000000 0.000000 0.049223 0.000000
# 6 0.000000 0.000000 0.000000 0.000000 0.000000 0.116632
#
#
# Mechanical properties :
#
#
# Convention : Reuss Voigt Hill
#
# Bulk Modulus (GPa) = 18.72736 19.67830 19.20283
# Shear Modulus (GPa) = 20.29036 48.34772 34.31904
#
# Velocity S-wave (km/s) = 3.05192 4.71104 3.96914
# Velocity P-wave (km/s) = 4.58429 6.21491 5.46081
#
# Compressibility (1/GPa) = 0.05339781
#
# Stress axis : x y z
#
# Youngs Moduli (GPa) = 72.97799 57.32250 42.13901
#
# Poissons Ratio (x) = 0.01942 -0.00914
# Poissons Ratio (y) = 0.02472 0.02607
# Poissons Ratio (z) = -0.01583 0.03547
#
# Static dielectric constant tensor:
#      x y z
#    x 1.816620 0.000000 0.000000 
#    y 0.000000 1.792170 0.000000 
#    z 0.000000 0.000000 1.830970 
# 
# From -- ./inp_files/16408.got.cif
#   From: 2010.05.17/outbox.cif.g08.bks.cpg/sg21_9_cif.got.tgz:16408.got - 2010.06.03 23:14:55.
