data_PCOD9323405
_publ_section_title
;
Structure prediction by ZEFSAII (Michael W. Deem and Ramdas Pophale) SiO2 
 PCOD9323405
Probable space group: C 2 2 2
;
_chemical_formula_sum "Si O2"
_cell_formula_units_Z 32
_cell_length_a 17.040665
_cell_length_b 11.853022
_cell_length_c 8.694939
_cell_angle_alpha 90.000000
_cell_angle_beta 90.000000
_cell_angle_gamma 90.000000
_cell_volume 1756.233143
_symmetry_space_group_name_H-M "C 2 2 2"
_symmetry_group_IT_number 21
_symmetry_cell_setting 'orthorhombic'
loop_
_space_group_symop_operation_xyz
x,y,z
-x,-y,z
x,-y,-z
-x,y,-z
1/2+x,1/2+y,z
1/2-x,1/2-y,z
1/2+x,1/2-y,-z
1/2-x,1/2+y,-z
loop_
_atom_site_type_symbol
_atom_site_label
_atom_site_fract_x
_atom_site_fract_y
_atom_site_fract_z
Si Si1 0.517303 0.868828 0.321802
Si Si2 0.905231 0.005395 0.676656
Si Si3 0.074055 0.805211 0.105216
Si Si4 0.157987 0.758241 0.804959
O O1 0.500000 0.843195 0.500000
O O2 0.463677 0.789291 0.215091
O O3 0.606512 0.836235 0.281034
O O4 0.500000 0.000000 0.293768
O O5 0.874151 0.121716 0.745118
O O6 0.877444 0.000000 0.500000
O O7 0.887078 0.901886 0.790677
O O8 0.000000 0.000000 0.671569
O O9 0.135125 0.754045 0.984589
O O10 0.000000 0.848373 0.000000
O O11 0.250000 0.750000 0.779641
#
# Coordination Sequence:
#
# PCOD9323405 Si02
#       4
#     8   8   8   8
#     4  10  21  41  66  87 119 168 211 240 297 378
#     4  11  20  37  67  92 116 159 207 247 296 369
#     4  10  20  36  62  89 118 163 201 244 292 373
#     4  11  24  40  60  95 128 152 201 262 308 346
#
# _framework density 18.220815999999999
#
# number of rings (size 3 to 8) (size 9 to 14) (size 15 to 20)
#    0.000    1.500    5.000    2.250    0.000    4.500 
#   13.500    2.500    0.000    0.000    0.000    0.000 
#    0.000    0.000    0.000    0.000    0.000    0.000 
#
# Total GULP energy -89301.686743 kJ/mol
# GULP energy per Si atom -5581.355421 kJ/mol
# Density = 1.817934 g / cm^3
# Si number density = 18.220816 Si / 1000 Ang^3
#
#
#
# Elastic Constant Matrix: (Units=GPa)
#
#
# Indices 1 2 3 4 5 6 
#
# 1 128.4988 60.7742 46.3198 0.0000 0.0000 0.0000
# 2 60.7742 105.0919 72.1704 0.0000 0.0000 0.0000
# 3 46.3198 72.1704 135.3242 0.0000 0.0000 0.0000
# 4 0.0000 0.0000 0.0000 -12.4444 0.0000 0.0000
# 5 0.0000 0.0000 0.0000 0.0000 6.4176 0.0000
# 6 0.0000 0.0000 0.0000 0.0000 0.0000 16.5451
#
#
#
# Elastic Compliance Matrix: (Units=1/GPa)
#
#
# Indices 1 2 3 4 5 6 
#
# 1 0.010740 -0.005817 -0.000574 0.000000 0.000000 0.000000
# 2 -0.005817 0.018165 -0.007697 0.000000 0.000000 0.000000
# 3 -0.000574 -0.007697 0.011691 0.000000 0.000000 0.000000
# 4 0.000000 0.000000 0.000000 -0.080358 0.000000 0.000000
# 5 0.000000 0.000000 0.000000 0.000000 0.155822 0.000000
# 6 0.000000 0.000000 0.000000 0.000000 0.000000 0.060441
#
#
# Mechanical properties :
#
#
# Convention : Reuss Voigt Hill
#
# Bulk Modulus (GPa) = 80.50846 80.82708 80.66777
# Shear Modulus (GPa) = 23.94448 14.74702 19.34575
#
# Velocity S-wave (km/s) = 3.62902 2.84799 3.26197
# Velocity P-wave (km/s) = 7.86388 7.43443 7.65217
#
# Compressibility (1/GPa) = 0.01242105
#
# Stress axis : x y z
#
# Youngs Moduli (GPa) = 93.10831 55.05150 85.53707
#
# Poissons Ratio (x) = 0.32022 0.04910
# Poissons Ratio (y) = 0.54159 0.65834
# Poissons Ratio (z) = 0.05345 0.42371
#
# Static dielectric constant tensor:
#      x y z
#    x 1.619330 0.000000 0.000000 
#    y 0.000000 1.621180 0.000000 
#    z 0.000000 0.000000 1.662550 
# 
# From -- ./inp_files/12302.got.cif
#   From: 2010.05.17/outbox.cif.g08.bks.cpg/sg21_7_cif.got.tgz:12302.got - 2010.06.03 23:14:55.
