data_PCOD9323611
_publ_section_title
;
Structure prediction by ZEFSAII (Michael W. Deem and Ramdas Pophale) SiO2 
 PCOD9323611
Probable space group: C 2 2 2
;
_chemical_formula_sum "Si O2"
_cell_formula_units_Z 32
_cell_length_a 13.567671
_cell_length_b 5.430471
_cell_length_c 18.312181
_cell_angle_alpha 90.000000
_cell_angle_beta 90.000000
_cell_angle_gamma 90.000000
_cell_volume 1349.220325
_symmetry_space_group_name_H-M "C 2 2 2"
_symmetry_group_IT_number 21
_symmetry_cell_setting 'orthorhombic'
loop_
_space_group_symop_operation_xyz
x,y,z
-x,-y,z
x,-y,-z
-x,y,-z
1/2+x,1/2+y,z
1/2-x,1/2-y,z
1/2+x,1/2-y,-z
1/2-x,1/2+y,-z
loop_
_atom_site_type_symbol
_atom_site_label
_atom_site_fract_x
_atom_site_fract_y
_atom_site_fract_z
Si Si1 0.639290 0.751630 0.047740
Si Si2 0.140583 0.479027 0.338944
Si Si3 0.500000 0.500000 0.151608
Si Si4 0.634950 0.475008 0.280837
Si Si5 0.692101 0.000000 0.500000
O O1 0.750000 0.750000 0.082157
O O2 0.549550 0.713011 0.103190
O O3 0.636478 0.500000 0.000000
O O4 0.630645 0.000000 0.000000
O O5 0.249359 0.501928 0.301116
O O6 0.100297 0.752607 0.331635
O O7 0.141115 0.420234 0.424764
O O8 0.096210 0.248203 0.296973
O O9 0.592085 0.411141 0.201419
O O10 0.750000 0.750000 0.521780
#
# Coordination Sequence:
#
# PCOD9323611 Si02
#       5
#     8   8   4   8   4
#     4  10  25  50  75 105 139 178 236 291 344 434
#     4  10  20  39  61  94 137 180 239 290 337 418
#     4  12  27  44  78 105 140 190 224 286 376 427
#     4  10  22  37  59  98 136 171 223 285 341 420
#     4  12  16  32  68  94 120 196 250 284 348 409
#
# _framework density 23.717403000000001
#
# number of rings (size 3 to 8) (size 9 to 14) (size 15 to 20)
#    0.000    1.500    5.000    0.375    3.500    7.000 
#    9.000    0.000    0.000    8.250    0.000    0.000 
#    0.000    0.000    0.000    0.000    0.000    0.000 
#
# Total GULP energy -89141.001392 kJ/mol
# GULP energy per Si atom -5571.312587 kJ/mol
# Density = 2.366342 g / cm^3
# Si number density = 23.717403 Si / 1000 Ang^3
#
#
#
# Elastic Constant Matrix: (Units=GPa)
#
#
# Indices 1 2 3 4 5 6 
#
# 1 149.9578 3.2740 49.6248 0.0000 0.0000 0.0000
# 2 3.2740 161.4060 22.6038 0.0000 0.0000 0.0000
# 3 49.6248 22.6038 99.9090 0.0000 0.0000 0.0000
# 4 0.0000 0.0000 0.0000 34.3008 0.0000 0.0000
# 5 0.0000 0.0000 0.0000 0.0000 -5.8885 0.0000
# 6 0.0000 0.0000 0.0000 0.0000 0.0000 -8.4499
#
#
#
# Elastic Compliance Matrix: (Units=1/GPa)
#
#
# Indices 1 2 3 4 5 6 
#
# 1 0.008006 0.000407 -0.004069 0.000000 0.000000 0.000000
# 2 0.000407 0.006419 -0.001655 0.000000 0.000000 0.000000
# 3 -0.004069 -0.001655 0.012404 0.000000 0.000000 0.000000
# 4 0.000000 0.000000 0.000000 0.029154 0.000000 0.000000
# 5 0.000000 0.000000 0.000000 0.000000 -0.169823 0.000000
# 6 0.000000 0.000000 0.000000 0.000000 0.000000 -0.118345
#
#
# Mechanical properties :
#
#
# Convention : Reuss Voigt Hill
#
# Bulk Modulus (GPa) = 61.73785 62.47533 62.10659
# Shear Modulus (GPa) = -23.13176 26.37717 1.62270
#
# Velocity S-wave (km/s) = -3.12638 3.33850 0.82805
# Velocity P-wave (km/s) = 3.61314 6.42336 5.21125
#
# Compressibility (1/GPa) = 0.01619752
#
# Stress axis : x y z
#
# Youngs Moduli (GPa) = 124.90444 155.78725 80.61630
#
# Poissons Ratio (x) = -0.06347 0.32801
# Poissons Ratio (y) = -0.05089 0.13339
# Poissons Ratio (z) = 0.50821 0.25777
#
# Static dielectric constant tensor:
#      x y z
#    x 1.987940 0.000000 0.000000 
#    y 0.000000 1.888380 0.000000 
#    z 0.000000 0.000000 1.899590 
# 
# From -- ./inp_files/36455.got.cif
#   From: 2010.05.17/outbox.cif.g08.bks.cpg/sg21_19_cif.got.tgz:36455.got - 2010.06.03 23:14:55.
