data_PCOD9323017
_publ_section_title
;
Structure prediction by ZEFSAII (Michael W. Deem and Ramdas Pophale) SiO2 
 PCOD9323017
Probable space group: C 2 2 2
;
_chemical_formula_sum "Si O2"
_cell_formula_units_Z 34
_cell_length_a 9.546722
_cell_length_b 16.835889
_cell_length_c 7.817816
_cell_angle_alpha 90.000000
_cell_angle_beta 90.000000
_cell_angle_gamma 90.000000
_cell_volume 1256.538427
_symmetry_space_group_name_H-M "C 2 2 2"
_symmetry_group_IT_number 21
_symmetry_cell_setting 'orthorhombic'
loop_
_space_group_symop_operation_xyz
x,y,z
-x,-y,z
x,-y,-z
-x,y,-z
1/2+x,1/2+y,z
1/2-x,1/2-y,z
1/2+x,1/2-y,-z
1/2-x,1/2+y,-z
loop_
_atom_site_type_symbol
_atom_site_label
_atom_site_fract_x
_atom_site_fract_y
_atom_site_fract_z
Si Si1 0.218168 0.082512 0.739966
Si Si2 0.707924 0.343185 0.621732
Si Si3 0.946200 0.778619 0.810200
Si Si4 0.487881 0.107703 0.204482
Si Si5 0.000000 0.000000 0.000000
O O1 0.185905 0.101469 0.542605
O O2 0.379821 0.053460 0.740991
O O3 0.194696 0.171279 0.819693
O O4 0.112610 0.035654 0.862421
O O5 0.750000 0.250000 0.582474
O O6 0.563320 0.333770 0.721920
O O7 0.828254 0.384693 0.734870
O O8 0.958010 0.693551 0.722342
O O9 0.000000 0.765086 0.000000
O O10 0.500000 0.102021 0.000000
#
# Coordination Sequence:
#
# PCOD9323017 Si02
#       5
#     8   8   8   8   2
#     4  12  23  44  65  93 149 191 254 297 348 427
#     4  10  21  38  72 121 150 174 222 301 388 457
#     4  10  19  37  68 109 152 180 215 283 382 463
#     4  10  21  37  72 113 145 176 220 299 391 449
#     4  12  32  48  68  96 138 228 274 302 342 416
#
# _framework density 27.058465000000002
#
# number of rings (size 3 to 8) (size 9 to 14) (size 15 to 20)
#    0.000    1.412    1.176    4.941    0.000    7.529 
#    0.000    2.941    0.000    0.000   18.353    0.000 
#    0.000    0.000    0.000    0.000    0.000    0.000 
#
# Total GULP energy -94892.681269 kJ/mol
# GULP energy per Si atom -5581.922428 kJ/mol
# Density = 2.699688 g / cm^3
# Si number density = 27.058465 Si / 1000 Ang^3
#
#
#
# Elastic Constant Matrix: (Units=GPa)
#
#
# Indices 1 2 3 4 5 6 
#
# 1 174.5629 26.6867 42.9207 0.0000 0.0000 0.0000
# 2 26.6867 69.7559 18.9114 0.0000 0.0000 0.0000
# 3 42.9207 18.9114 150.0230 0.0000 0.0000 0.0000
# 4 0.0000 0.0000 0.0000 56.1701 0.0000 0.0000
# 5 0.0000 0.0000 0.0000 0.0000 56.6085 0.0000
# 6 0.0000 0.0000 0.0000 0.0000 0.0000 31.5012
#
#
#
# Elastic Compliance Matrix: (Units=1/GPa)
#
#
# Indices 1 2 3 4 5 6 
#
# 1 0.006428 -0.002030 -0.001583 0.000000 0.000000 0.000000
# 2 -0.002030 0.015484 -0.001371 0.000000 0.000000 0.000000
# 3 -0.001583 -0.001371 0.007291 0.000000 0.000000 0.000000
# 4 0.000000 0.000000 0.000000 0.017803 0.000000 0.000000
# 5 0.000000 0.000000 0.000000 0.000000 0.017665 0.000000
# 6 0.000000 0.000000 0.000000 0.000000 0.000000 0.031745
#
#
# Mechanical properties :
#
#
# Convention : Reuss Voigt Hill
#
# Bulk Modulus (GPa) = 51.98838 63.48661 57.73749
# Shear Modulus (GPa) = 44.32742 49.24416 46.78579
#
# Velocity S-wave (km/s) = 4.05187 4.27068 4.16271
# Velocity P-wave (km/s) = 6.41446 6.91606 6.66998
#
# Compressibility (1/GPa) = 0.01923507
#
# Stress axis : x y z
#
# Youngs Moduli (GPa) = 155.56444 64.58259 137.14757
#
# Poissons Ratio (x) = 0.13111 0.21713
# Poissons Ratio (y) = 0.31580 0.18804
# Poissons Ratio (z) = 0.24629 0.08855
#
# Static dielectric constant tensor:
#      x y z
#    x -0.216070 0.000000 0.000000 
#    y 0.000000 2.304590 0.000000 
#    z 0.000000 0.000000 2.055030 
# 
# From -- ./inp_files/10806.got.cif
#   From: 2010.05.17/outbox.cif.g08.bks.cpg/sg21_6_cif.got.tgz:10806.got - 2010.06.03 23:14:55.
