data_PCOD9323881
_publ_section_title
;
Structure prediction by ZEFSAII (Michael W. Deem and Ramdas Pophale) SiO2 
 PCOD9323881
Probable space group: C 2 2 2
;
_chemical_formula_sum "Si O2"
_cell_formula_units_Z 48
_cell_length_a 8.823841
_cell_length_b 22.200813
_cell_length_c 10.759192
_cell_angle_alpha 90.000000
_cell_angle_beta 90.000000
_cell_angle_gamma 90.000000
_cell_volume 2107.687453
_symmetry_space_group_name_H-M "C 2 2 2"
_symmetry_group_IT_number 21
_symmetry_cell_setting 'orthorhombic'
loop_
_space_group_symop_operation_xyz
x,y,z
-x,-y,z
x,-y,-z
-x,y,-z
1/2+x,1/2+y,z
1/2-x,1/2-y,z
1/2+x,1/2-y,-z
1/2-x,1/2+y,-z
loop_
_atom_site_type_symbol
_atom_site_label
_atom_site_fract_x
_atom_site_fract_y
_atom_site_fract_z
Si Si1 0.901477 0.850310 0.876038
Si Si2 0.676495 0.811316 0.383606
Si Si3 0.164066 0.478080 0.642263
Si Si4 0.339783 0.834112 0.327107
Si Si5 0.336609 0.582488 0.732455
Si Si6 0.166318 0.571219 0.976965
O O1 0.790149 0.815953 0.774817
O O2 0.785426 0.896257 0.937305
O O3 0.014306 0.890205 0.792786
O O4 0.000000 0.825463 0.000000
O O5 0.750000 0.750000 0.334710
O O6 0.518940 0.820367 0.308624
O O7 0.669907 0.807057 0.533415
O O8 0.781135 0.870096 0.368543
O O9 0.157719 0.500000 0.500000
O O10 0.173019 0.406856 0.658621
O O11 0.311611 0.513618 0.692378
O O12 0.000000 0.500000 0.697265
O O13 0.212602 0.586636 0.839672
O O14 0.172429 0.500000 0.000000
O O15 0.000000 0.594162 0.000000
#
# Coordination Sequence:
#
# PCOD9323881 Si02
#       6
#     8   8   8   8   8   8
#     4  10  24  41  61  95 141 184 231 292 353 426
#     4  11  24  43  69 104 136 183 240 297 368 453
#     4  11  19  36  64  98 142 184 235 286 358 444
#     4  11  22  42  69  97 143 191 237 296 367 446
#     4  11  22  38  64  99 141 178 231 292 356 437
#     4  10  21  36  62  93 127 179 232 282 351 431
#
# _framework density 22.773775000000001
#
# number of rings (size 3 to 8) (size 9 to 14) (size 15 to 20)
#    0.000    1.333    3.333    3.000    2.333    9.667 
#    0.000    0.833    0.000   19.000    0.000    0.000 
#    0.000    0.000    0.000    0.000    0.000    0.000 
#
# Total GULP energy -133712.821660 kJ/mol
# GULP energy per Si atom -5571.367569 kJ/mol
# Density = 2.272194 g / cm^3
# Si number density = 22.773775 Si / 1000 Ang^3
#
#
#
# Elastic Constant Matrix: (Units=GPa)
#
#
# Indices 1 2 3 4 5 6 
#
# 1 131.6946 39.6766 51.9478 0.0000 0.0000 0.0000
# 2 39.6766 95.3564 0.7259 0.0000 0.0000 0.0000
# 3 51.9478 0.7259 86.2169 0.0000 0.0000 0.0000
# 4 0.0000 0.0000 0.0000 54.4892 0.0000 0.0000
# 5 0.0000 0.0000 0.0000 0.0000 48.7724 0.0000
# 6 0.0000 0.0000 0.0000 0.0000 0.0000 165.5341
#
#
#
# Elastic Compliance Matrix: (Units=1/GPa)
#
#
# Indices 1 2 3 4 5 6 
#
# 1 0.011870 -0.004885 -0.007111 0.000000 0.000000 0.000000
# 2 -0.004885 0.012498 0.002838 0.000000 0.000000 0.000000
# 3 -0.007111 0.002838 0.015859 0.000000 0.000000 0.000000
# 4 0.000000 0.000000 0.000000 0.018352 0.000000 0.000000
# 5 0.000000 0.000000 0.000000 0.000000 0.020503 0.000000
# 6 0.000000 0.000000 0.000000 0.000000 0.000000 0.006041
#
#
# Mechanical properties :
#
#
# Convention : Reuss Voigt Hill
#
# Bulk Modulus (GPa) = 45.63758 55.32985 50.48372
# Shear Modulus (GPa) = 45.14967 68.48697 56.81832
#
# Velocity S-wave (km/s) = 4.45739 5.48981 5.00032
# Velocity P-wave (km/s) = 6.82453 8.03319 7.45340
#
# Compressibility (1/GPa) = 0.02191177
#
# Stress axis : x y z
#
# Youngs Moduli (GPa) = 84.24674 80.01366 63.05497
#
# Poissons Ratio (x) = 0.39085 0.44837
# Poissons Ratio (y) = 0.41153 -0.17895
# Poissons Ratio (z) = 0.59906 -0.22708
#
# Static dielectric constant tensor:
#      x y z
#    x 1.899240 0.000000 0.000000 
#    y 0.000000 1.814380 0.000000 
#    z 0.000000 0.000000 1.822040 
# 
# From -- ./inp_files/22743.got.cif
#   From: 2010.05.17/outbox.cif.g08.bks.cpg/sg21_12_cif.got.tgz:22743.got - 2010.06.03 23:14:55.
