data_PCOD9323887
_publ_section_title
;
Structure prediction by ZEFSAII (Michael W. Deem and Ramdas Pophale) SiO2 
 PCOD9323887
Probable space group: C 2 2 2
;
_chemical_formula_sum "Si O2"
_cell_formula_units_Z 30
_cell_length_a 19.903186
_cell_length_b 5.882561
_cell_length_c 11.542084
_cell_angle_alpha 90.000000
_cell_angle_beta 90.000000
_cell_angle_gamma 90.000000
_cell_volume 1351.366883
_symmetry_space_group_name_H-M "C 2 2 2"
_symmetry_group_IT_number 21
_symmetry_cell_setting 'orthorhombic'
loop_
_space_group_symop_operation_xyz
x,y,z
-x,-y,z
x,-y,-z
-x,y,-z
1/2+x,1/2+y,z
1/2-x,1/2-y,z
1/2+x,1/2-y,-z
1/2-x,1/2+y,-z
loop_
_atom_site_type_symbol
_atom_site_label
_atom_site_fract_x
_atom_site_fract_y
_atom_site_fract_z
Si Si1 0.882498 0.463668 0.880711
Si Si2 0.064738 0.156498 0.324798
Si Si3 0.315276 0.352738 0.717065
Si Si4 0.500000 0.000000 0.500000
Si Si5 0.750000 0.750000 0.131800
O O1 0.919365 0.298076 0.791027
O O2 0.855422 0.674221 0.801030
O O3 0.817319 0.325695 0.929292
O O4 0.921877 0.500000 0.000000
O O5 0.046704 0.338540 0.422586
O O6 0.128043 0.993183 0.350560
O O7 0.000000 0.000000 0.308795
O O8 0.250000 0.250000 0.650824
O O9 0.276181 0.538341 0.794173
#
# Coordination Sequence:
#
# PCOD9323887 Si02
#       5
#     8   8   8   2   4
#     4  10  21  36  63 105 145 183 223 271 339 416
#     4  11  24  44  69 104 130 182 242 296 348 423
#     4   9  19  39  63 102 139 179 223 273 345 413
#     4  12  26  48  74  98 120 184 250 308 372 418
#     4   8  18  30  58  98 138 184 222 260 318 410
#
# _framework density 22.199746000000001
#
# number of rings (size 3 to 8) (size 9 to 14) (size 15 to 20)
#    0.000    2.133    0.000    2.000    5.600    3.200 
#    0.000   10.000    0.000    0.000  558.133    0.000 
#    0.000    0.000    0.000    0.000    0.000    0.000 
#
# Total GULP energy -83599.193041 kJ/mol
# GULP energy per Si atom -5573.279536 kJ/mol
# Density = 2.214922 g / cm^3
# Si number density = 22.199746 Si / 1000 Ang^3
#
#
#
# Elastic Constant Matrix: (Units=GPa)
#
#
# Indices 1 2 3 4 5 6 
#
# 1 154.0678 72.9365 64.0260 0.0000 0.0000 0.0000
# 2 72.9365 130.1381 51.4269 0.0000 0.0000 0.0000
# 3 64.0260 51.4269 104.4385 0.0000 0.0000 0.0000
# 4 0.0000 0.0000 0.0000 17.0108 0.0000 0.0000
# 5 0.0000 0.0000 0.0000 0.0000 -1.2850 0.0000
# 6 0.0000 0.0000 0.0000 0.0000 0.0000 35.3864
#
#
#
# Elastic Compliance Matrix: (Units=1/GPa)
#
#
# Indices 1 2 3 4 5 6 
#
# 1 0.010157 -0.004013 -0.004251 0.000000 0.000000 0.000000
# 2 -0.004013 0.011126 -0.003019 0.000000 0.000000 0.000000
# 3 -0.004251 -0.003019 0.013667 0.000000 0.000000 0.000000
# 4 0.000000 0.000000 0.000000 0.058786 0.000000 0.000000
# 5 0.000000 0.000000 0.000000 0.000000 -0.778183 0.000000
# 6 0.000000 0.000000 0.000000 0.000000 0.000000 0.028259
#
#
# Mechanical properties :
#
#
# Convention : Reuss Voigt Hill
#
# Bulk Modulus (GPa) = 80.73587 85.04701 82.89144
# Shear Modulus (GPa) = -7.94288 23.57277 7.81495
#
# Velocity S-wave (km/s) = -1.89359 3.26214 1.87828
# Velocity P-wave (km/s) = 5.62725 7.25133 6.49029
#
# Compressibility (1/GPa) = 0.01238607
#
# Stress axis : x y z
#
# Youngs Moduli (GPa) = 98.45710 89.88030 73.16727
#
# Poissons Ratio (x) = 0.36066 0.31101
# Poissons Ratio (y) = 0.39507 0.22086
# Poissons Ratio (z) = 0.41851 0.27131
#
# Static dielectric constant tensor:
#      x y z
#    x 1.875340 0.000000 0.000000 
#    y 0.000000 1.898560 0.000000 
#    z 0.000000 0.000000 1.792920 
# 
# From -- ./inp_files/20573.got.cif
#   From: 2010.05.17/outbox.cif.g08.bks.cpg/sg21_11_cif.got.tgz:20573.got - 2010.06.03 23:14:55.
