data_PCOD9323358
_publ_section_title
;
Structure prediction by ZEFSAII (Michael W. Deem and Ramdas Pophale) SiO2 
 PCOD9323358
Probable space group: C 2 2 2
;
_chemical_formula_sum "Si O2"
_cell_formula_units_Z 28
_cell_length_a 15.177578
_cell_length_b 11.014423
_cell_length_c 8.345044
_cell_angle_alpha 90.000000
_cell_angle_beta 90.000000
_cell_angle_gamma 90.000000
_cell_volume 1395.059900
_symmetry_space_group_name_H-M "C 2 2 2"
_symmetry_group_IT_number 21
_symmetry_cell_setting 'orthorhombic'
loop_
_space_group_symop_operation_xyz
x,y,z
-x,-y,z
x,-y,-z
-x,y,-z
1/2+x,1/2+y,z
1/2-x,1/2-y,z
1/2+x,1/2-y,-z
1/2-x,1/2+y,-z
loop_
_atom_site_type_symbol
_atom_site_label
_atom_site_fract_x
_atom_site_fract_y
_atom_site_fract_z
Si Si1 0.831706 0.374690 0.546570
Si Si2 0.861920 0.873536 0.579663
Si Si3 0.250000 0.750000 0.841612
Si Si4 0.405409 0.359637 0.949707
O O1 0.878670 0.500000 0.500000
O O2 0.884073 0.250073 0.515563
O O3 0.745098 0.378458 0.430998
O O4 0.788251 0.354333 0.722000
O O5 0.892551 0.857585 0.759876
O O6 0.892893 0.000000 0.500000
O O7 0.328105 0.704376 0.953079
O O8 0.403667 0.500000 0.000000
O O9 0.500000 0.307760 0.000000
#
# Coordination Sequence:
#
# PCOD9323358 Si02
#       4
#     8   8   4   8
#     4   9  17  32  56  83 111 156 201 238 299 365
#     4   9  17  33  54  80 114 150 192 243 296 355
#     4  10  20  36  58  84 120 156 198 254 304 354
#     4  11  22  36  58  91 120 152 202 256 305 356
#
# _framework density 20.070822
#
# number of rings (size 3 to 8) (size 9 to 14) (size 15 to 20)
#    0.000    2.571    0.000    6.857    0.000    0.000 
#    0.000   21.429    0.000    9.429    0.000    0.000 
#    0.000    0.000    0.000    0.000    0.000    0.000 
#
# Total GULP energy -78049.934214 kJ/mol
# GULP energy per Si atom -5574.995301 kJ/mol
# Density = 2.002514 g / cm^3
# Si number density = 20.070822 Si / 1000 Ang^3
#
#
#
# Elastic Constant Matrix: (Units=GPa)
#
#
# Indices 1 2 3 4 5 6 
#
# 1 105.7431 34.1461 65.5800 0.0000 0.0000 0.0000
# 2 34.1461 156.8897 44.0703 0.0000 0.0000 0.0000
# 3 65.5800 44.0703 162.6309 0.0000 0.0000 0.0000
# 4 0.0000 0.0000 0.0000 27.7857 0.0000 0.0000
# 5 0.0000 0.0000 0.0000 0.0000 55.4240 0.0000
# 6 0.0000 0.0000 0.0000 0.0000 0.0000 8.1578
#
#
#
# Elastic Compliance Matrix: (Units=1/GPa)
#
#
# Indices 1 2 3 4 5 6 
#
# 1 0.012912 -0.001459 -0.004811 0.000000 0.000000 0.000000
# 2 -0.001459 0.007064 -0.001326 0.000000 0.000000 0.000000
# 3 -0.004811 -0.001326 0.008448 0.000000 0.000000 0.000000
# 4 0.000000 0.000000 0.000000 0.035990 0.000000 0.000000
# 5 0.000000 0.000000 0.000000 0.000000 0.018043 0.000000
# 6 0.000000 0.000000 0.000000 0.000000 0.000000 0.122582
#
#
# Mechanical properties :
#
#
# Convention : Reuss Voigt Hill
#
# Bulk Modulus (GPa) = 75.57423 79.20628 77.39025
# Shear Modulus (GPa) = 22.25774 37.03800 29.64787
#
# Velocity S-wave (km/s) = 3.33372 4.30043 3.84756
# Velocity P-wave (km/s) = 7.24940 8.01295 7.64072
#
# Compressibility (1/GPa) = 0.01323202
#
# Stress axis : x y z
#
# Youngs Moduli (GPa) = 77.44848 141.56595 118.36625
#
# Poissons Ratio (x) = 0.20650 0.56950
# Poissons Ratio (y) = 0.11297 0.15695
# Poissons Ratio (z) = 0.37263 0.18771
#
# Static dielectric constant tensor:
#      x y z
#    x 1.767990 0.000000 0.000000 
#    y 0.000000 1.809570 0.000000 
#    z 0.000000 0.000000 1.700970 
# 
# From -- ./inp_files/13925.got.cif
#   From: 2010.05.17/outbox.cif.g08.bks.cpg/sg21_7_cif.got.tgz:13925.got - 2010.06.03 23:14:55.
