data_PCOD9323808
_publ_section_title
;
Structure prediction by ZEFSAII (Michael W. Deem and Ramdas Pophale) SiO2 
 PCOD9323808
Probable space group: C 2 2 2
;
_chemical_formula_sum "Si O2"
_cell_formula_units_Z 54
_cell_length_a 19.835124
_cell_length_b 24.984815
_cell_length_c 5.562064
_cell_angle_alpha 90.000000
_cell_angle_beta 90.000000
_cell_angle_gamma 90.000000
_cell_volume 2756.430455
_symmetry_space_group_name_H-M "C 2 2 2"
_symmetry_group_IT_number 21
_symmetry_cell_setting 'orthorhombic'
loop_
_space_group_symop_operation_xyz
x,y,z
-x,-y,z
x,-y,-z
-x,y,-z
1/2+x,1/2+y,z
1/2-x,1/2-y,z
1/2+x,1/2-y,-z
1/2-x,1/2+y,-z
loop_
_atom_site_type_symbol
_atom_site_label
_atom_site_fract_x
_atom_site_fract_y
_atom_site_fract_z
Si Si1 0.000000 0.500000 0.500000
Si Si2 0.579529 0.170264 0.002025
Si Si3 0.573921 0.339931 0.376945
Si Si4 0.393509 0.946453 0.839528
Si Si5 0.752567 0.967932 0.248051
Si Si6 0.417173 0.777810 0.498651
Si Si7 0.398074 0.444017 0.359154
Si Si8 0.000000 0.107209 0.000000
O O1 0.950580 0.460809 0.646688
O O2 0.588155 0.106738 0.982014
O O3 0.605750 0.198099 0.755113
O O4 0.500000 0.182719 0.000000
O O5 0.605659 0.190409 0.259932
O O6 0.500000 0.339969 0.500000
O O7 0.604344 0.283647 0.451880
O O8 0.608890 0.393838 0.462945
O O9 0.556538 0.352148 0.101294
O O10 0.318518 0.937055 0.734157
O O11 0.393263 0.000000 0.000000
O O12 0.827012 0.943560 0.221635
O O13 0.756148 0.000000 0.500000
O O14 0.745124 0.000000 0.000000
O O15 0.500000 0.779107 0.500000
O O16 0.407118 0.500000 0.500000
O O17 0.461932 0.430533 0.190616
#
# Coordination Sequence:
#
# PCOD9323808 Si02
#       8
#     2   8   8   8   8   8   8   4
#     4  12  22  36  60  94 128 156 196 256 312 364
#     4  10  21  34  57  88 121 155 196 247 302 357
#     4   9  20  35  55  84 120 157 198 249 307 354
#     4  11  24  39  61  91 128 160 201 252 311 368
#     4  10  23  43  60  84 120 172 206 237 298 381
#     4   9  20  34  55  84 120 159 197 243 299 362
#     4  10  23  38  57  89 122 159 207 251 311 369
#     4  10  22  35  58  90 118 160 197 262 310 358
#
# _framework density 19.590553
#
# number of rings (size 3 to 8) (size 9 to 14) (size 15 to 20)
#    0.000    2.074    0.741    1.111   16.593    3.259 
#    0.000    0.000    0.000    0.889    0.000    0.000 
#    0.000    0.000    0.000    0.000    0.000    0.000 
#
# Total GULP energy -150343.758444 kJ/mol
# GULP energy per Si atom -5568.287350 kJ/mol
# Density = 1.954596 g / cm^3
# Si number density = 19.590553 Si / 1000 Ang^3
#
#
#
# Elastic Constant Matrix: (Units=GPa)
#
#
# Indices 1 2 3 4 5 6 
#
# 1 58.9584 11.1269 20.4382 0.0000 0.0000 0.0000
# 2 11.1269 144.6341 68.1094 0.0000 0.0000 0.0000
# 3 20.4382 68.1094 111.0779 0.0000 0.0000 0.0000
# 4 0.0000 0.0000 0.0000 24.0477 0.0000 0.0000
# 5 0.0000 0.0000 0.0000 0.0000 16.5802 0.0000
# 6 0.0000 0.0000 0.0000 0.0000 0.0000 650.8778
#
#
#
# Elastic Compliance Matrix: (Units=1/GPa)
#
#
# Indices 1 2 3 4 5 6 
#
# 1 0.018123 0.000248 -0.003486 0.000000 0.000000 0.000000
# 2 0.000248 0.009724 -0.006008 0.000000 0.000000 0.000000
# 3 -0.003486 -0.006008 0.013328 0.000000 0.000000 0.000000
# 4 0.000000 0.000000 0.000000 0.041584 0.000000 0.000000
# 5 0.000000 0.000000 0.000000 0.000000 0.060313 0.000000
# 6 0.000000 0.000000 0.000000 0.000000 0.000000 0.001536
#
#
# Mechanical properties :
#
#
# Convention : Reuss Voigt Hill
#
# Bulk Modulus (GPa) = 44.08897 57.11327 50.60112
# Shear Modulus (GPa) = 29.29746 152.63418 90.96582
#
# Velocity S-wave (km/s) = 3.87135 8.83636 6.82161
# Velocity P-wave (km/s) = 6.52206 11.54665 9.37716
#
# Compressibility (1/GPa) = 0.02268141
#
# Stress axis : x y z
#
# Youngs Moduli (GPa) = 55.17859 102.83590 75.02905
#
# Poissons Ratio (x) = -0.02546 0.26158
# Poissons Ratio (y) = -0.01366 0.45078
# Poissons Ratio (z) = 0.19237 0.61785
#
# Static dielectric constant tensor:
#      x y z
#    x 1.744080 0.000000 0.000000 
#    y 0.000000 1.706720 0.000000 
#    z 0.000000 0.000000 -0.919230 
# 
# From -- ./inp_files/6109.got.cif
#   From: 2010.05.17/outbox.cif.g08.bks.cpg/sg21_4_cif.got.tgz:6109.got - 2010.06.03 23:14:55.
