data_PCOD9323866
_publ_section_title
;
Structure prediction by ZEFSAII (Michael W. Deem and Ramdas Pophale) SiO2 
 PCOD9323866
Probable space group: C 2 2 2
;
_chemical_formula_sum "Si O2"
_cell_formula_units_Z 56
_cell_length_a 15.750919
_cell_length_b 19.382358
_cell_length_c 9.135523
_cell_angle_alpha 90.000000
_cell_angle_beta 90.000000
_cell_angle_gamma 90.000000
_cell_volume 2788.983368
_symmetry_space_group_name_H-M "C 2 2 2"
_symmetry_group_IT_number 21
_symmetry_cell_setting 'orthorhombic'
loop_
_space_group_symop_operation_xyz
x,y,z
-x,-y,z
x,-y,-z
-x,y,-z
1/2+x,1/2+y,z
1/2-x,1/2-y,z
1/2+x,1/2-y,-z
1/2-x,1/2+y,-z
loop_
_atom_site_type_symbol
_atom_site_label
_atom_site_fract_x
_atom_site_fract_y
_atom_site_fract_z
Si Si1 0.315154 0.356325 0.487784
Si Si2 0.538471 0.296051 0.652419
Si Si3 0.361990 0.279702 0.783534
Si Si4 0.348005 0.000000 0.000000
Si Si5 0.785525 0.350287 0.059432
Si Si6 0.417819 0.958676 0.703005
Si Si7 0.766076 0.500000 0.500000
Si Si8 0.839792 0.678196 0.273460
O O1 0.406062 0.360631 0.404861
O O2 0.325715 0.304107 0.624591
O O3 0.288317 0.432725 0.535549
O O4 0.238673 0.331895 0.382945
O O5 0.500000 0.266375 0.500000
O O6 0.461134 0.297657 0.765710
O O7 0.613121 0.249592 0.714535
O O8 0.308988 0.325720 0.898491
O O9 0.342892 0.200160 0.833863
O O10 0.406607 0.029998 0.125954
O O11 0.298513 0.933124 0.065718
O O12 0.808051 0.332668 0.891666
O O13 0.331237 0.985828 0.631460
O O14 0.412212 0.877257 0.680155
O O15 0.500000 0.000000 0.653769
#
# Coordination Sequence:
#
# PCOD9323866 Si02
#       8
#     8   8   8   4   8   8   4   8
#     4  10  22  41  66  91 127 171 215 271 328 395
#     4  10  23  38  61  93 123 164 215 270 317 376
#     4  10  23  40  62  96 127 165 223 265 326 385
#     4  10  21  40  62  84 129 170 212 250 323 402
#     4  10  23  40  63  93 124 174 210 262 328 392
#     4  10  21  36  57  91 128 164 205 261 318 390
#     4  10  21  40  65  92 122 168 218 266 331 393
#     4  10  23  39  61  91 130 170 208 259 327 392
#
# _framework density 20.079001000000002
#
# number of rings (size 3 to 8) (size 9 to 14) (size 15 to 20)
#    0.000    2.000    0.000    1.714   14.000    2.857 
#    0.000    3.214    0.000    0.000    0.000    0.000 
#    0.000    0.000    0.000    0.000    0.000    0.000 
#
# Total GULP energy -155984.082928 kJ/mol
# GULP energy per Si atom -5570.860105 kJ/mol
# Density = 2.003330 g / cm^3
# Si number density = 20.079001 Si / 1000 Ang^3
#
#
#
# Elastic Constant Matrix: (Units=GPa)
#
#
# Indices 1 2 3 4 5 6 
#
# 1 86.2228 42.6611 11.5904 0.0000 0.0000 0.0000
# 2 42.6611 111.0019 12.5317 0.0000 0.0000 0.0000
# 3 11.5904 12.5317 64.5173 0.0000 0.0000 0.0000
# 4 0.0000 0.0000 0.0000 27.3438 0.0000 0.0000
# 5 0.0000 0.0000 0.0000 0.0000 28.1231 0.0000
# 6 0.0000 0.0000 0.0000 0.0000 0.0000 20.3840
#
#
#
# Elastic Compliance Matrix: (Units=1/GPa)
#
#
# Indices 1 2 3 4 5 6 
#
# 1 0.014472 -0.005387 -0.001554 0.000000 0.000000 0.000000
# 2 -0.005387 0.011216 -0.001211 0.000000 0.000000 0.000000
# 3 -0.001554 -0.001211 0.016014 0.000000 0.000000 0.000000
# 4 0.000000 0.000000 0.000000 0.036571 0.000000 0.000000
# 5 0.000000 0.000000 0.000000 0.000000 0.035558 0.000000
# 6 0.000000 0.000000 0.000000 0.000000 0.000000 0.049058
#
#
# Mechanical properties :
#
#
# Convention : Reuss Voigt Hill
#
# Bulk Modulus (GPa) = 39.37055 43.92316 41.64685
# Shear Modulus (GPa) = 26.64430 28.16745 27.40587
#
# Velocity S-wave (km/s) = 3.64672 3.74950 3.69847
# Velocity P-wave (km/s) = 6.11406 6.37712 6.24698
#
# Compressibility (1/GPa) = 0.02539970
#
# Stress axis : x y z
#
# Youngs Moduli (GPa) = 69.09975 89.16038 62.44536
#
# Poissons Ratio (x) = 0.48027 0.09701
# Poissons Ratio (y) = 0.37221 0.07561
# Poissons Ratio (z) = 0.10735 0.10796
#
# Static dielectric constant tensor:
#      x y z
#    x 1.720210 0.000000 0.000000 
#    y 0.000000 1.769610 0.000000 
#    z 0.000000 0.000000 1.779950 
# 
# From -- ./inp_files/15326.got.cif
#   From: 2010.05.17/outbox.cif.g08.bks.cpg/sg21_8_cif.got.tgz:15326.got - 2010.06.03 23:14:55.
