data_PCOD9323963
_publ_section_title
;
Structure prediction by ZEFSAII (Michael W. Deem and Ramdas Pophale) SiO2 
 PCOD9323963
Probable space group: C 2 2 2
;
_chemical_formula_sum "Si O2"
_cell_formula_units_Z 32
_cell_length_a 13.446752
_cell_length_b 24.503435
_cell_length_c 5.251550
_cell_angle_alpha 90.000000
_cell_angle_beta 90.000000
_cell_angle_gamma 90.000000
_cell_volume 1730.341683
_symmetry_space_group_name_H-M "C 2 2 2"
_symmetry_group_IT_number 21
_symmetry_cell_setting 'orthorhombic'
loop_
_space_group_symop_operation_xyz
x,y,z
-x,-y,z
x,-y,-z
-x,y,-z
1/2+x,1/2+y,z
1/2-x,1/2-y,z
1/2+x,1/2-y,-z
1/2-x,1/2+y,-z
loop_
_atom_site_type_symbol
_atom_site_label
_atom_site_fract_x
_atom_site_fract_y
_atom_site_fract_z
Si Si1 0.220200 0.185907 0.143796
Si Si2 0.500000 0.220244 0.500000
Si Si3 0.821730 0.645358 0.625477
Si Si4 0.000000 0.207437 0.000000
Si Si5 0.386323 0.975617 0.254434
O O1 0.250000 0.250000 0.197825
O O2 0.240701 0.149341 0.396832
O O3 0.282082 0.169541 0.891502
O O4 0.104979 0.179113 0.061096
O O5 0.405535 0.181736 0.492601
O O6 0.485683 0.255942 0.749866
O O7 0.874098 0.588565 0.707117
O O8 0.500000 0.000000 0.253710
O O9 0.334505 0.000000 0.500000
O O10 0.340748 0.000000 0.000000
#
# Coordination Sequence:
#
# PCOD9323963 Si02
#       5
#     8   4   8   4   8
#     4  12  23  41  56  90 126 173 220 257 301 382
#     4  12  20  34  57  88 118 170 211 246 312 356
#     4  12  23  37  63  88 126 173 206 251 331 383
#     4  12  24  36  58  80 128 168 210 268 284 360
#     4  10  21  38  58  88 128 156 202 262 317 387
#
# _framework density 18.493458
#
# number of rings (size 3 to 8) (size 9 to 14) (size 15 to 20)
#    0.000    0.500    5.000    5.250    0.000    4.000 
#    0.000    0.000    0.000    0.000    0.000   13.125 
#    0.000    0.000    0.000    0.000    0.000    0.000 
#
# Total GULP energy -89113.479180 kJ/mol
# GULP energy per Si atom -5569.592449 kJ/mol
# Density = 1.845137 g / cm^3
# Si number density = 18.493458 Si / 1000 Ang^3
#
#
#
# Elastic Constant Matrix: (Units=GPa)
#
#
# Indices 1 2 3 4 5 6 
#
# 1 73.6986 39.5954 12.9649 0.0000 0.0000 0.0000
# 2 39.5954 83.0381 46.5962 0.0000 0.0000 0.0000
# 3 12.9649 46.5962 159.6045 0.0000 0.0000 0.0000
# 4 0.0000 0.0000 0.0000 22.3407 0.0000 0.0000
# 5 0.0000 0.0000 0.0000 0.0000 16.0525 0.0000
# 6 0.0000 0.0000 0.0000 0.0000 0.0000 26.1127
#
#
#
# Elastic Compliance Matrix: (Units=1/GPa)
#
#
# Indices 1 2 3 4 5 6 
#
# 1 0.018458 -0.009520 0.001280 0.000000 0.000000 0.000000
# 2 -0.009520 0.019312 -0.004865 0.000000 0.000000 0.000000
# 3 0.001280 -0.004865 0.007582 0.000000 0.000000 0.000000
# 4 0.000000 0.000000 0.000000 0.044761 0.000000 0.000000
# 5 0.000000 0.000000 0.000000 0.000000 0.062296 0.000000
# 6 0.000000 0.000000 0.000000 0.000000 0.000000 0.038296
#
#
# Mechanical properties :
#
#
# Convention : Reuss Voigt Hill
#
# Bulk Modulus (GPa) = 52.23939 57.18378 54.71158
# Shear Modulus (GPa) = 22.39198 27.38016 24.88607
#
# Velocity S-wave (km/s) = 3.48344 3.85194 3.67232
# Velocity P-wave (km/s) = 6.66993 7.12541 6.90143
#
# Compressibility (1/GPa) = 0.01914264
#
# Stress axis : x y z
#
# Youngs Moduli (GPa) = 54.17650 51.78187 131.89530
#
# Poissons Ratio (x) = 0.49295 -0.16881
# Poissons Ratio (y) = 0.51574 0.64164
# Poissons Ratio (z) = -0.06934 0.25191
#
# Static dielectric constant tensor:
#      x y z
#    x 1.696790 0.000000 0.000000 
#    y 0.000000 1.710810 0.000000 
#    z 0.000000 0.000000 1.678490 
# 
# From -- ./inp_files/2440.got.cif
#   From: 2010.05.17/outbox.cif.g08.bks.cpg/sg21_2_cif.got.tgz:2440.got - 2010.06.03 23:14:55.
