data_PCOD9323922
_publ_section_title
;
Structure prediction by ZEFSAII (Michael W. Deem and Ramdas Pophale) SiO2 
 PCOD9323922
Probable space group: C 2 2 2
;
_chemical_formula_sum "Si O2"
_cell_formula_units_Z 52
_cell_length_a 23.411176
_cell_length_b 9.605105
_cell_length_c 11.811909
_cell_angle_alpha 90.000000
_cell_angle_beta 90.000000
_cell_angle_gamma 90.000000
_cell_volume 2656.106222
_symmetry_space_group_name_H-M "C 2 2 2"
_symmetry_group_IT_number 21
_symmetry_cell_setting 'orthorhombic'
loop_
_space_group_symop_operation_xyz
x,y,z
-x,-y,z
x,-y,-z
-x,y,-z
1/2+x,1/2+y,z
1/2-x,1/2-y,z
1/2+x,1/2-y,-z
1/2-x,1/2+y,-z
loop_
_atom_site_type_symbol
_atom_site_label
_atom_site_fract_x
_atom_site_fract_y
_atom_site_fract_z
Si Si1 0.500000 0.000000 0.711689
Si Si2 0.435348 0.659895 0.533616
Si Si3 0.872381 0.784806 0.799393
Si Si4 0.692546 0.335762 0.971353
Si Si5 0.496431 0.255414 0.131683
Si Si6 0.383108 0.899788 0.400704
Si Si7 0.893473 0.899774 0.220335
O O1 0.478196 0.877421 0.794143
O O2 0.555104 0.961339 0.636505
O O3 0.432750 0.500000 0.500000
O O4 0.500000 0.704510 0.500000
O O5 0.394478 0.754490 0.461617
O O6 0.413993 0.666293 0.661981
O O7 0.854793 0.657772 0.715949
O O8 0.940215 0.778849 0.821463
O O9 0.868514 0.945524 0.757510
O O10 0.840494 0.776555 0.918986
O O11 0.750000 0.250000 0.955435
O O12 0.653189 0.326913 0.859508
O O13 0.701987 0.500000 0.000000
O O14 0.452402 0.382897 0.148861
O O15 0.500000 0.222148 0.000000
O O16 0.358452 0.000000 0.500000
#
# Coordination Sequence:
#
# PCOD9323922 Si02
#       7
#     4   8   8   8   8   8   8
#     4  10  22  34  48  76 134 177 201 248 296 376
#     4  11  21  33  55  92 130 165 208 244 305 395
#     4  10  21  37  60  92 130 163 207 267 321 390
#     4  10  23  46  67  92 122 166 221 282 336 381
#     4  11  20  33  53  90 129 165 204 246 331 401
#     4  11  20  36  54  82 127 175 207 248 306 375
#     4  11  21  37  62  93 130 164 210 265 324 395
#
# _framework density 19.577528999999998
#
# number of rings (size 3 to 8) (size 9 to 14) (size 15 to 20)
#    0.000    1.385    3.077    4.615    2.154    0.615 
#    8.308    0.000    0.000    0.923    0.000    0.000 
#    0.000    0.000    0.000    0.000    0.000    0.000 
#
# Total GULP energy -144864.106104 kJ/mol
# GULP energy per Si atom -5571.696389 kJ/mol
# Density = 1.953297 g / cm^3
# Si number density = 19.577529 Si / 1000 Ang^3
#
#
#
# Elastic Constant Matrix: (Units=GPa)
#
#
# Indices 1 2 3 4 5 6 
#
# 1 69.8796 13.6894 33.6840 0.0000 0.0000 0.0000
# 2 13.6894 55.6619 28.8020 0.0000 0.0000 0.0000
# 3 33.6840 28.8020 136.1827 0.0000 0.0000 0.0000
# 4 0.0000 0.0000 0.0000 -4.1322 0.0000 0.0000
# 5 0.0000 0.0000 0.0000 0.0000 -1.5029 0.0000
# 6 0.0000 0.0000 0.0000 0.0000 0.0000 13.8806
#
#
#
# Elastic Compliance Matrix: (Units=1/GPa)
#
#
# Indices 1 2 3 4 5 6 
#
# 1 0.016480 -0.002183 -0.003615 0.000000 0.000000 0.000000
# 2 -0.002183 0.020462 -0.003788 0.000000 0.000000 0.000000
# 3 -0.003615 -0.003788 0.009038 0.000000 0.000000 0.000000
# 4 0.000000 0.000000 0.000000 -0.242003 0.000000 0.000000
# 5 0.000000 0.000000 0.000000 0.000000 -0.665392 0.000000
# 6 0.000000 0.000000 0.000000 0.000000 0.000000 0.072043
#
#
# Mechanical properties :
#
#
# Convention : Reuss Voigt Hill
#
# Bulk Modulus (GPa) = 37.29881 46.00835 41.65358
# Shear Modulus (GPa) = -6.56802 14.01904 3.72551
#
# Velocity S-wave (km/s) = -1.83362 2.67887 1.38097
# Velocity P-wave (km/s) = 3.82235 5.75500 4.88520
#
# Compressibility (1/GPa) = 0.02681050
#
# Stress axis : x y z
#
# Youngs Moduli (GPa) = 60.67848 48.87007 110.64094
#
# Poissons Ratio (x) = 0.10667 0.39993
# Poissons Ratio (y) = 0.13245 0.41909
# Poissons Ratio (z) = 0.21933 0.18511
#
# Static dielectric constant tensor:
#      x y z
#    x 1.653940 0.000000 0.000000 
#    y 0.000000 1.756100 0.000000 
#    z 0.000000 0.000000 1.853770 
# 
# From -- ./inp_files/27769.got.cif
#   From: 2010.05.17/outbox.cif.g08.bks.cpg/sg21_14_cif.got.tgz:27769.got - 2010.06.03 23:14:55.
