data_PCOD9323702
_publ_section_title
;
Structure prediction by ZEFSAII (Michael W. Deem and Ramdas Pophale) SiO2 
 PCOD9323702
Probable space group: C 2 2 2
;
_chemical_formula_sum "Si O2"
_cell_formula_units_Z 30
_cell_length_a 13.695806
_cell_length_b 11.019638
_cell_length_c 9.353752
_cell_angle_alpha 90.000000
_cell_angle_beta 90.000000
_cell_angle_gamma 90.000000
_cell_volume 1411.694669
_symmetry_space_group_name_H-M "C 2 2 2"
_symmetry_group_IT_number 21
_symmetry_cell_setting 'orthorhombic'
loop_
_space_group_symop_operation_xyz
x,y,z
-x,-y,z
x,-y,-z
-x,y,-z
1/2+x,1/2+y,z
1/2-x,1/2-y,z
1/2+x,1/2-y,-z
1/2-x,1/2+y,-z
loop_
_atom_site_type_symbol
_atom_site_label
_atom_site_fract_x
_atom_site_fract_y
_atom_site_fract_z
Si Si1 0.250000 0.750000 0.788481
Si Si2 0.384423 0.637297 0.020012
Si Si3 0.500000 0.500000 0.500000
Si Si4 0.076858 0.776993 0.327856
Si Si5 0.619942 0.129213 0.578150
O O1 0.292337 0.858141 0.690278
O O2 0.336121 0.710454 0.892584
O O3 0.376597 0.703603 0.173117
O O4 0.345779 0.500000 0.000000
O O5 0.500000 0.631068 0.000000
O O6 0.554489 0.409322 0.392446
O O7 0.143791 0.714761 0.444791
O O8 0.977021 0.691960 0.345258
O O9 0.605847 0.000000 0.500000
#
# Coordination Sequence:
#
# PCOD9323702 Si02
#       5
#     4   8   2   8   8
#     4  12  26  42  66 108 140 188 242 296 360 432
#     4  11  24  43  70 101 145 183 232 294 366 429
#     4   8  16  32  68 104 116 164 240 270 336 408
#     4  10  20  40  71  97 129 189 226 287 354 420
#     4  10  23  43  67  97 140 182 240 296 346 421
#
# _framework density 21.251054
#
# number of rings (size 3 to 8) (size 9 to 14) (size 15 to 20)
#    0.000    1.867    2.667    3.200    3.733    5.333 
#    2.400    0.000    0.000    0.000    0.000    0.000 
#    0.000    0.000    0.000    0.000    0.000    0.000 
#
# Total GULP energy -83530.359947 kJ/mol
# GULP energy per Si atom -5568.690663 kJ/mol
# Density = 2.120269 g / cm^3
# Si number density = 21.251054 Si / 1000 Ang^3
#
#
#
# Elastic Constant Matrix: (Units=GPa)
#
#
# Indices 1 2 3 4 5 6 
#
# 1 73.1295 30.2315 48.1260 0.0000 0.0000 0.0000
# 2 30.2315 144.3330 66.3012 0.0000 0.0000 0.0000
# 3 48.1260 66.3012 182.2829 0.0000 0.0000 0.0000
# 4 0.0000 0.0000 0.0000 21.7145 0.0000 0.0000
# 5 0.0000 0.0000 0.0000 0.0000 35.5677 0.0000
# 6 0.0000 0.0000 0.0000 0.0000 0.0000 -1.1910
#
#
#
# Elastic Compliance Matrix: (Units=1/GPa)
#
#
# Indices 1 2 3 4 5 6 
#
# 1 0.016927 -0.001792 -0.003817 0.000000 0.000000 0.000000
# 2 -0.001792 0.008508 -0.002621 0.000000 0.000000 0.000000
# 3 -0.003817 -0.002621 0.007447 0.000000 0.000000 0.000000
# 4 0.000000 0.000000 0.000000 0.046052 0.000000 0.000000
# 5 0.000000 0.000000 0.000000 0.000000 0.028115 0.000000
# 6 0.000000 0.000000 0.000000 0.000000 0.000000 -0.839639
#
#
# Mechanical properties :
#
#
# Convention : Reuss Voigt Hill
#
# Bulk Modulus (GPa) = 60.89743 76.56253 68.72998
# Shear Modulus (GPa) = -7.03578 28.22401 10.59412
#
# Velocity S-wave (km/s) = -1.82153 3.64830 2.23518
# Velocity P-wave (km/s) = 4.92894 7.33843 6.25088
#
# Compressibility (1/GPa) = 0.01642105
#
# Stress axis : x y z
#
# Youngs Moduli (GPa) = 59.07602 117.53681 134.27654
#
# Poissons Ratio (x) = 0.21063 0.51258
# Poissons Ratio (y) = 0.10586 0.35200
# Poissons Ratio (z) = 0.22551 0.30812
#
# Static dielectric constant tensor:
#      x y z
#    x 1.843270 0.000000 0.000000 
#    y 0.000000 1.957840 0.000000 
#    z 0.000000 0.000000 1.788390 
# 
# From -- ./inp_files/14045.got.cif
#   From: 2010.05.17/outbox.cif.g08.bks.cpg/sg21_8_cif.got.tgz:14045.got - 2010.06.03 23:14:55.
