data_PCOD9323625
_publ_section_title
;
Structure prediction by ZEFSAII (Michael W. Deem and Ramdas Pophale) SiO2 
 PCOD9323625
Probable space group: C 2 2 2
;
_chemical_formula_sum "Si O2"
_cell_formula_units_Z 18
_cell_length_a 8.050359
_cell_length_b 23.306946
_cell_length_c 5.219730
_cell_angle_alpha 90.000000
_cell_angle_beta 90.000000
_cell_angle_gamma 90.000000
_cell_volume 979.374195
_symmetry_space_group_name_H-M "C 2 2 2"
_symmetry_group_IT_number 21
_symmetry_cell_setting 'orthorhombic'
loop_
_space_group_symop_operation_xyz
x,y,z
-x,-y,z
x,-y,-z
-x,y,-z
1/2+x,1/2+y,z
1/2-x,1/2-y,z
1/2+x,1/2-y,-z
1/2-x,1/2+y,-z
loop_
_atom_site_type_symbol
_atom_site_label
_atom_site_fract_x
_atom_site_fract_y
_atom_site_fract_z
Si Si1 0.613649 0.800215 0.250550
Si Si2 0.896200 0.111414 0.758492
Si Si3 0.000000 0.000000 0.000000
O O1 0.500000 0.794100 0.500000
O O2 0.750000 0.750000 0.244531
O O3 0.719360 0.858878 0.259846
O O4 0.500000 0.798324 0.000000
O O5 0.000000 0.120256 0.500000
O O6 0.000000 0.136921 0.000000
O O7 0.893314 0.043706 0.827346
#
# Coordination Sequence:
#
# PCOD9323625 Si02
#       3
#     8   8   2
#     4  12  24  40  63  94 125 159 200 253 308 362
#     4  10  20  39  64  88 119 163 205 241 299 362
#     4   8  22  36  72  80 122 168 204 238 302 364
#
# _framework density 18.379083999999999
#
# number of rings (size 3 to 8) (size 9 to 14) (size 15 to 20)
#    1.333    0.000    0.000    7.333    0.000    0.000 
#    0.000    1.111    0.000    0.000    0.000    0.000 
#    0.000    0.000    0.000    0.000    0.000    0.000 
#
# Total GULP energy -50210.012485 kJ/mol
# GULP energy per Si atom -5578.890276 kJ/mol
# Density = 1.833725 g / cm^3
# Si number density = 18.379084 Si / 1000 Ang^3
#
#
#
# Elastic Constant Matrix: (Units=GPa)
#
#
# Indices 1 2 3 4 5 6 
#
# 1 150.3725 79.4914 100.8644 0.0000 0.0000 0.0000
# 2 79.4914 125.1572 45.5232 0.0000 0.0000 0.0000
# 3 100.8644 45.5232 205.7110 0.0000 0.0000 0.0000
# 4 0.0000 0.0000 0.0000 6.0238 0.0000 0.0000
# 5 0.0000 0.0000 0.0000 0.0000 49.8423 0.0000
# 6 0.0000 0.0000 0.0000 0.0000 0.0000 40.9932
#
#
#
# Elastic Compliance Matrix: (Units=1/GPa)
#
#
# Indices 1 2 3 4 5 6 
#
# 1 0.013790 -0.006851 -0.005246 0.000000 0.000000 0.000000
# 2 -0.006851 0.012093 0.000683 0.000000 0.000000 0.000000
# 3 -0.005246 0.000683 0.007282 0.000000 0.000000 0.000000
# 4 0.000000 0.000000 0.000000 0.166007 0.000000 0.000000
# 5 0.000000 0.000000 0.000000 0.000000 0.020063 0.000000
# 6 0.000000 0.000000 0.000000 0.000000 0.000000 0.024394
#
#
# Mechanical properties :
#
#
# Convention : Reuss Voigt Hill
#
# Bulk Modulus (GPa) = 96.72750 103.66654 100.19702
# Shear Modulus (GPa) = 18.52524 36.39598 27.46061
#
# Velocity S-wave (km/s) = 3.17827 4.45488 3.86958
# Velocity P-wave (km/s) = 8.13707 9.10979 8.63714
#
# Compressibility (1/GPa) = 0.01033832
#
# Stress axis : x y z
#
# Youngs Moduli (GPa) = 72.51578 82.69539 137.32368
#
# Poissons Ratio (x) = 0.56651 0.72034
# Poissons Ratio (y) = 0.49678 -0.09378
# Poissons Ratio (z) = 0.38039 -0.05648
#
# Static dielectric constant tensor:
#      x y z
#    x 1.579910 0.000000 0.000000 
#    y 0.000000 1.670610 0.000000 
#    z 0.000000 0.000000 1.624720 
# 
# From -- ./inp_files/13.got.cif
#   From: 2010.05.17/outbox.cif.g08.bks.cpg/sg21_1_cif.got.tgz:13.got - 2010.06.03 23:14:55.
