data_PCOD9323997
_publ_section_title
;
Structure prediction by ZEFSAII (Michael W. Deem and Ramdas Pophale) SiO2 
 PCOD9323997
Probable space group: C 2 2 2
;
_chemical_formula_sum "Si O2"
_cell_formula_units_Z 48
_cell_length_a 28.098263
_cell_length_b 5.166635
_cell_length_c 15.159230
_cell_angle_alpha 90.000000
_cell_angle_beta 90.000000
_cell_angle_gamma 90.000000
_cell_volume 2200.718007
_symmetry_space_group_name_H-M "C 2 2 2"
_symmetry_group_IT_number 21
_symmetry_cell_setting 'orthorhombic'
loop_
_space_group_symop_operation_xyz
x,y,z
-x,-y,z
x,-y,-z
-x,y,-z
1/2+x,1/2+y,z
1/2-x,1/2-y,z
1/2+x,1/2-y,-z
1/2-x,1/2+y,-z
loop_
_atom_site_type_symbol
_atom_site_label
_atom_site_fract_x
_atom_site_fract_y
_atom_site_fract_z
Si Si1 0.283617 0.499172 0.100504
Si Si2 0.596615 0.315865 0.625022
Si Si3 0.858964 0.803823 0.766127
Si Si4 0.500000 0.500000 0.373772
Si Si5 0.665313 0.000000 0.500000
Si Si6 0.781716 0.489655 0.322630
Si Si7 0.047885 0.411023 0.759210
O O1 0.250000 0.250000 0.115470
O O2 0.171635 0.549707 0.262060
O O3 0.250000 0.750000 0.105268
O O4 0.302292 0.500000 0.000000
O O5 0.625658 0.540467 0.676954
O O6 0.545957 0.381853 0.580566
O O7 0.630814 0.200018 0.550516
O O8 0.576493 0.125486 0.702099
O O9 0.800057 0.576320 0.579412
O O10 0.825942 0.971416 0.829821
O O11 0.909342 0.728957 0.809653
O O12 0.524839 0.285541 0.311686
O O13 0.750000 0.250000 0.294474
O O14 0.750000 0.750000 0.320901
O O15 0.000000 0.500000 0.808834
#
# Coordination Sequence:
#
# PCOD9323997 Si02
#       7
#     8   8   8   4   4   8   8
#     4  10  24  44  67 102 144 173 213 274 334 398
#     4  10  21  38  62  90 126 170 223 274 342 389
#     4  11  23  39  70  97 126 178 223 269 339 421
#     4   8  18  38  59  86 123 162 218 278 337 388
#     4  12  24  42  59  82 128 172 225 282 328 386
#     4  12  27  44  61  89 127 175 229 277 327 387
#     4   9  18  38  62  95 125 163 219 276 332 395
#
# _framework density 21.811063000000001
#
# number of rings (size 3 to 8) (size 9 to 14) (size 15 to 20)
#    0.000    1.667    1.667    2.000    2.333    4.667 
#    0.000    4.583    0.000    0.000    0.000   26.833 
#    0.000    0.000    0.000    0.000    0.000    0.000 
#
# Total GULP energy -133847.839249 kJ/mol
# GULP energy per Si atom -5576.993302 kJ/mol
# Density = 2.176142 g / cm^3
# Si number density = 21.811063 Si / 1000 Ang^3
#
#
#
# Elastic Constant Matrix: (Units=GPa)
#
#
# Indices 1 2 3 4 5 6 
#
# 1 204.9980 61.4933 56.3276 0.0000 0.0000 0.0000
# 2 61.4933 107.3663 10.3962 0.0000 0.0000 0.0000
# 3 56.3276 10.3962 88.9805 0.0000 0.0000 0.0000
# 4 0.0000 0.0000 0.0000 26.8805 0.0000 0.0000
# 5 0.0000 0.0000 0.0000 0.0000 127.2360 0.0000
# 6 0.0000 0.0000 0.0000 0.0000 0.0000 53.5838
#
#
#
# Elastic Compliance Matrix: (Units=1/GPa)
#
#
# Indices 1 2 3 4 5 6 
#
# 1 0.007095 -0.003670 -0.004063 0.000000 0.000000 0.000000
# 2 -0.003670 0.011319 0.001001 0.000000 0.000000 0.000000
# 3 -0.004063 0.001001 0.013693 0.000000 0.000000 0.000000
# 4 0.000000 0.000000 0.000000 0.037202 0.000000 0.000000
# 5 0.000000 0.000000 0.000000 0.000000 0.007859 0.000000
# 6 0.000000 0.000000 0.000000 0.000000 0.000000 0.018662
#
#
# Mechanical properties :
#
#
# Convention : Reuss Voigt Hill
#
# Bulk Modulus (GPa) = 53.63793 73.08654 63.36224
# Shear Modulus (GPa) = 43.28608 59.74858 51.51733
#
# Velocity S-wave (km/s) = 4.45971 5.23958 4.86529
# Velocity P-wave (km/s) = 7.15291 8.37770 7.78942
#
# Compressibility (1/GPa) = 0.01864352
#
# Stress axis : x y z
#
# Youngs Moduli (GPa) = 140.93481 88.34523 73.02808
#
# Poissons Ratio (x) = 0.32427 0.29670
# Poissons Ratio (y) = 0.51730 -0.07310
# Poissons Ratio (z) = 0.57259 -0.08844
#
# Static dielectric constant tensor:
#      x y z
#    x 1.850200 0.000000 0.000000 
#    y 0.000000 1.908120 0.000000 
#    z 0.000000 0.000000 1.817910 
# 
# From -- ./inp_files/34000.got.cif
#   From: 2010.05.17/outbox.cif.g08.bks.cpg/sg21_17_cif.got.tgz:34000.got - 2010.06.03 23:14:55.
