data_PCOD9323361
_publ_section_title
;
Structure prediction by ZEFSAII (Michael W. Deem and Ramdas Pophale) SiO2 
 PCOD9323361
Probable space group: C 2 2 2
;
_chemical_formula_sum "Si O2"
_cell_formula_units_Z 44
_cell_length_a 7.958281
_cell_length_b 18.909853
_cell_length_c 15.157597
_cell_angle_alpha 90.000000
_cell_angle_beta 90.000000
_cell_angle_gamma 90.000000
_cell_volume 2281.065618
_symmetry_space_group_name_H-M "C 2 2 2"
_symmetry_group_IT_number 21
_symmetry_cell_setting 'orthorhombic'
loop_
_space_group_symop_operation_xyz
x,y,z
-x,-y,z
x,-y,-z
-x,y,-z
1/2+x,1/2+y,z
1/2-x,1/2-y,z
1/2+x,1/2-y,-z
1/2-x,1/2+y,-z
loop_
_atom_site_type_symbol
_atom_site_label
_atom_site_fract_x
_atom_site_fract_y
_atom_site_fract_z
Si Si1 0.919420 0.390667 0.910562
Si Si2 0.833275 0.613077 0.744824
Si Si3 0.538995 0.673925 0.268557
Si Si4 0.817154 0.031400 0.781696
Si Si5 0.064363 0.716107 0.403508
Si Si6 0.250000 0.250000 0.120814
O O1 0.783866 0.443121 0.867389
O O2 0.829878 0.315532 0.930322
O O3 0.056806 0.379470 0.833176
O O4 0.000000 0.417230 0.000000
O O5 0.653793 0.652776 0.750774
O O6 0.787781 0.530390 0.734888
O O7 0.925902 0.649772 0.662939
O O8 0.646090 0.601856 0.274914
O O9 0.543514 0.723345 0.354055
O O10 0.611277 0.716792 0.186026
O O11 0.000000 0.000000 0.804685
O O12 0.250000 0.750000 0.411417
O O13 0.000000 0.698302 0.500000
#
# Coordination Sequence:
#
# PCOD9323361 Si02
#       6
#     8   8   8   8   8   4
#     4  11  23  37  60  89 120 159 204 248 301 361
#     4  10  20  38  59  87 122 155 198 252 303 365
#     4   9  19  37  60  86 116 159 197 247 305 364
#     4   9  20  39  62  84 120 164 201 247 312 363
#     4  10  21  35  61  92 118 153 202 255 307 365
#     4  10  20  36  58  86 116 160 192 246 308 350
#
# _framework density 19.289231000000001
#
# number of rings (size 3 to 8) (size 9 to 14) (size 15 to 20)
#    0.000    2.182    1.818    0.545    1.273    2.909 
#    0.000   10.000    0.000   26.727    0.000    0.000 
#    0.000    0.000    0.000    0.000    0.000    0.000 
#
# Total GULP energy -122815.134297 kJ/mol
# GULP energy per Si atom -5582.506104 kJ/mol
# Density = 1.924533 g / cm^3
# Si number density = 19.289231 Si / 1000 Ang^3
#
#
#
# Elastic Constant Matrix: (Units=GPa)
#
#
# Indices 1 2 3 4 5 6 
#
# 1 68.4498 47.9424 53.0662 0.0000 0.0000 0.0000
# 2 47.9424 148.4370 62.6926 0.0000 0.0000 0.0000
# 3 53.0662 62.6926 129.5560 0.0000 0.0000 0.0000
# 4 0.0000 0.0000 0.0000 8.5167 0.0000 0.0000
# 5 0.0000 0.0000 0.0000 0.0000 28.2615 0.0000
# 6 0.0000 0.0000 0.0000 0.0000 0.0000 21.2951
#
#
#
# Elastic Compliance Matrix: (Units=1/GPa)
#
#
# Indices 1 2 3 4 5 6 
#
# 1 0.023520 -0.004434 -0.007488 0.000000 0.000000 0.000000
# 2 -0.004434 0.009303 -0.002686 0.000000 0.000000 0.000000
# 3 -0.007488 -0.002686 0.012086 0.000000 0.000000 0.000000
# 4 0.000000 0.000000 0.000000 0.117417 0.000000 0.000000
# 5 0.000000 0.000000 0.000000 0.000000 0.035384 0.000000
# 6 0.000000 0.000000 0.000000 0.000000 0.000000 0.046959
#
#
# Mechanical properties :
#
#
# Convention : Reuss Voigt Hill
#
# Bulk Modulus (GPa) = 63.72246 74.87169 69.29707
# Shear Modulus (GPa) = 17.91375 23.79743 20.85559
#
# Velocity S-wave (km/s) = 3.05075 3.51624 3.29173
# Velocity P-wave (km/s) = 6.74658 7.44210 7.10286
#
# Compressibility (1/GPa) = 0.01569305
#
# Stress axis : x y z
#
# Youngs Moduli (GPa) = 42.51684 107.48920 82.74369
#
# Poissons Ratio (x) = 0.47659 0.61961
# Poissons Ratio (y) = 0.18851 0.22223
# Poissons Ratio (z) = 0.31838 0.28869
#
# Static dielectric constant tensor:
#      x y z
#    x 1.731010 0.000000 0.000000 
#    y 0.000000 1.708130 0.000000 
#    z 0.000000 0.000000 1.606490 
# 
# From -- ./inp_files/30392.got.cif
#   From: 2010.05.17/outbox.cif.g08.bks.cpg/sg21_16_cif.got.tgz:30392.got - 2010.06.03 23:14:55.
