data_PCOD9323489
_publ_section_title
;
Structure prediction by ZEFSAII (Michael W. Deem and Ramdas Pophale) SiO2 
 PCOD9323489
Probable space group: C 2 2 2
;
_chemical_formula_sum "Si O2"
_cell_formula_units_Z 26
_cell_length_a 8.052966
_cell_length_b 12.176228
_cell_length_c 11.343462
_cell_angle_alpha 90.000000
_cell_angle_beta 90.000000
_cell_angle_gamma 90.000000
_cell_volume 1112.280332
_symmetry_space_group_name_H-M "C 2 2 2"
_symmetry_group_IT_number 21
_symmetry_cell_setting 'orthorhombic'
loop_
_space_group_symop_operation_xyz
x,y,z
-x,-y,z
x,-y,-z
-x,y,-z
1/2+x,1/2+y,z
1/2-x,1/2-y,z
1/2+x,1/2-y,-z
1/2-x,1/2+y,-z
loop_
_atom_site_type_symbol
_atom_site_label
_atom_site_fract_x
_atom_site_fract_y
_atom_site_fract_z
Si Si1 0.885058 0.671369 0.685347
Si Si2 0.500000 0.500000 0.000000
Si Si3 0.273138 0.946245 0.627321
Si Si4 0.593489 0.325461 0.813801
O O1 0.750000 0.750000 0.619709
O O2 0.804302 0.553142 0.709281
O O3 0.061522 0.631046 0.628000
O O4 0.938101 0.745197 0.796669
O O5 0.590658 0.582252 0.088526
O O6 0.123960 0.880135 0.685103
O O7 0.247760 0.000000 0.500000
O O8 0.750000 0.250000 0.837930
#
# Coordination Sequence:
#
# PCOD9323489 Si02
#       4
#     8   2   8   8
#     4  10  20  37  62  93 127 164 202 253 315 374
#     4  12  24  44  66  92 120 160 228 280 308 366
#     4  10  22  40  61  95 134 165 204 251 311 393
#     4  10  24  43  65  92 125 167 213 263 322 377
#
# _framework density 23.375399999999999
#
# number of rings (size 3 to 8) (size 9 to 14) (size 15 to 20)
#    0.000    1.846    0.000    3.692    0.000    9.846 
#    0.000    6.923    0.000    7.385    0.000    0.000 
#    0.000    0.000    0.000    0.000    0.000    0.000 
#
# Total GULP energy -72519.191642 kJ/mol
# GULP energy per Si atom -5578.399357 kJ/mol
# Density = 2.332220 g / cm^3
# Si number density = 23.375400 Si / 1000 Ang^3
#
#
#
# Elastic Constant Matrix: (Units=GPa)
#
#
# Indices 1 2 3 4 5 6 
#
# 1 83.8934 56.4738 28.6592 0.0000 0.0000 0.0000
# 2 56.4738 182.2347 62.9393 0.0000 0.0000 0.0000
# 3 28.6592 62.9393 91.0669 0.0000 0.0000 0.0000
# 4 0.0000 0.0000 0.0000 48.2324 0.0000 0.0000
# 5 0.0000 0.0000 0.0000 0.0000 6.4762 0.0000
# 6 0.0000 0.0000 0.0000 0.0000 0.0000 38.8062
#
#
#
# Elastic Compliance Matrix: (Units=1/GPa)
#
#
# Indices 1 2 3 4 5 6 
#
# 1 0.015341 -0.004055 -0.002026 0.000000 0.000000 0.000000
# 2 -0.004055 0.008280 -0.004446 0.000000 0.000000 0.000000
# 3 -0.002026 -0.004446 0.014691 0.000000 0.000000 0.000000
# 4 0.000000 0.000000 0.000000 0.020733 0.000000 0.000000
# 5 0.000000 0.000000 0.000000 0.000000 0.154413 0.000000
# 6 0.000000 0.000000 0.000000 0.000000 0.000000 0.025769
#
#
# Mechanical properties :
#
#
# Convention : Reuss Voigt Hill
#
# Bulk Modulus (GPa) = 57.94047 72.59329 65.26688
# Shear Modulus (GPa) = 18.79466 32.64447 25.71956
#
# Velocity S-wave (km/s) = 2.83863 3.74107 3.32065
# Velocity P-wave (km/s) = 5.96527 7.05575 6.53331
#
# Compressibility (1/GPa) = 0.01725909
#
# Stress axis : x y z
#
# Youngs Moduli (GPa) = 65.18360 120.77955 68.06699
#
# Poissons Ratio (x) = 0.48971 0.13789
# Poissons Ratio (y) = 0.26429 0.30264
# Poissons Ratio (z) = 0.13205 0.53702
#
# Static dielectric constant tensor:
#      x y z
#    x 1.932970 0.000000 0.000000 
#    y 0.000000 1.832410 0.000000 
#    z 0.000000 0.000000 1.927710 
# 
# From -- ./inp_files/21646.got.cif
#   From: 2010.05.17/outbox.cif.g08.bks.cpg/sg21_11_cif.got.tgz:21646.got - 2010.06.03 23:14:55.
