data_PCOD9323379
_publ_section_title
;
Structure prediction by ZEFSAII (Michael W. Deem and Ramdas Pophale) SiO2 
 PCOD9323379
Probable space group: C 2 2 2
;
_chemical_formula_sum "Si O2"
_cell_formula_units_Z 48
_cell_length_a 11.217890
_cell_length_b 13.357740
_cell_length_c 15.957410
_cell_angle_alpha 90.000000
_cell_angle_beta 90.000000
_cell_angle_gamma 90.000000
_cell_volume 2391.148601
_symmetry_space_group_name_H-M "C 2 2 2"
_symmetry_group_IT_number 21
_symmetry_cell_setting 'orthorhombic'
loop_
_space_group_symop_operation_xyz
x,y,z
-x,-y,z
x,-y,-z
-x,y,-z
1/2+x,1/2+y,z
1/2-x,1/2-y,z
1/2+x,1/2-y,-z
1/2-x,1/2+y,-z
loop_
_atom_site_type_symbol
_atom_site_label
_atom_site_fract_x
_atom_site_fract_y
_atom_site_fract_z
Si Si1 0.371725 0.293390 0.961360
Si Si2 0.963466 0.607153 0.850802
Si Si3 0.758179 0.634237 0.722097
Si Si4 0.133079 0.975692 0.158041
Si Si5 0.707089 0.862723 0.244868
Si Si6 0.643157 0.001935 0.401708
O O1 0.250000 0.250000 0.005739
O O2 0.416643 0.197613 0.907164
O O3 0.327848 0.391760 0.909903
O O4 0.500000 0.323723 0.000000
O O5 0.078310 0.641103 0.798799
O O6 0.000000 0.500000 0.891184
O O7 0.858990 0.588054 0.783459
O O8 0.750000 0.750000 0.736653
O O9 0.862555 0.916020 0.753592
O O10 0.800808 0.605186 0.631351
O O11 0.207087 0.075850 0.179912
O O12 0.000000 0.000000 0.135005
O O13 0.750000 0.750000 0.257688
O O14 0.695249 0.920499 0.334891
O O15 0.500000 0.000000 0.392115
O O16 0.670149 0.000000 0.500000
#
# Coordination Sequence:
#
# PCOD9323379 Si02
#       6
#     8   8   8   8   8   8
#     4  12  26  45  65  93 133 169 212 273 337 399
#     4  12  19  41  67  92 115 160 226 259 313 390
#     4  11  19  37  67  86 121 168 212 253 311 381
#     4  11  22  40  63  92 123 162 212 263 316 395
#     4  11  22  36  66  96 125 166 218 273 308 377
#     4  10  20  36  59  94 129 164 209 264 320 375
#
# _framework density 20.074034000000001
#
# number of rings (size 3 to 8) (size 9 to 14) (size 15 to 20)
#    0.000    0.833    8.333    1.000    0.000    3.333 
#    0.000    1.667    0.000    8.000    0.000    0.000 
#    0.000    0.000    0.000    0.000    0.000    0.000 
#
# Total GULP energy -133652.405172 kJ/mol
# GULP energy per Si atom -5568.850215 kJ/mol
# Density = 2.002834 g / cm^3
# Si number density = 20.074034 Si / 1000 Ang^3
#
#
#
# Elastic Constant Matrix: (Units=GPa)
#
#
# Indices 1 2 3 4 5 6 
#
# 1 88.9161 33.1603 31.1465 0.0000 0.0000 0.0000
# 2 33.1603 125.7046 23.1233 0.0000 0.0000 0.0000
# 3 31.1465 23.1233 51.8768 0.0000 0.0000 0.0000
# 4 0.0000 0.0000 0.0000 27.8591 0.0000 0.0000
# 5 0.0000 0.0000 0.0000 0.0000 26.7737 0.0000
# 6 0.0000 0.0000 0.0000 0.0000 0.0000 29.9745
#
#
#
# Elastic Compliance Matrix: (Units=1/GPa)
#
#
# Indices 1 2 3 4 5 6 
#
# 1 0.014926 -0.002493 -0.007850 0.000000 0.000000 0.000000
# 2 -0.002493 0.009082 -0.002551 0.000000 0.000000 0.000000
# 3 -0.007850 -0.002551 0.025127 0.000000 0.000000 0.000000
# 4 0.000000 0.000000 0.000000 0.035895 0.000000 0.000000
# 5 0.000000 0.000000 0.000000 0.000000 0.037350 0.000000
# 6 0.000000 0.000000 0.000000 0.000000 0.000000 0.033362
#
#
# Mechanical properties :
#
#
# Convention : Reuss Voigt Hill
#
# Bulk Modulus (GPa) = 42.83467 49.03973 45.93720
# Shear Modulus (GPa) = 26.41119 28.85930 27.63524
#
# Velocity S-wave (km/s) = 3.63118 3.79574 3.71437
# Velocity P-wave (km/s) = 6.24222 6.61004 6.42876
#
# Compressibility (1/GPa) = 0.02334558
#
# Stress axis : x y z
#
# Youngs Moduli (GPa) = 66.99568 110.10533 39.79804
#
# Poissons Ratio (x) = 0.27454 0.31243
# Poissons Ratio (y) = 0.16705 0.10153
# Poissons Ratio (z) = 0.52593 0.28090
#
# Static dielectric constant tensor:
#      x y z
#    x 1.772960 0.000000 0.000000 
#    y 0.000000 1.772490 0.000000 
#    z 0.000000 0.000000 1.729030 
# 
# From -- ./inp_files/36154.got.cif
#   From: 2010.05.17/outbox.cif.g08.bks.cpg/sg21_19_cif.got.tgz:36154.got - 2010.06.03 23:14:55.
