data_PCOD9323854
_publ_section_title
;
Structure prediction by ZEFSAII (Michael W. Deem and Ramdas Pophale) SiO2 
 PCOD9323854
Probable space group: C 2 2 2
;
_chemical_formula_sum "Si O2"
_cell_formula_units_Z 64
_cell_length_a 20.507759
_cell_length_b 8.820899
_cell_length_c 20.491849
_cell_angle_alpha 90.000000
_cell_angle_beta 90.000000
_cell_angle_gamma 90.000000
_cell_volume 3706.911362
_symmetry_space_group_name_H-M "C 2 2 2"
_symmetry_group_IT_number 21
_symmetry_cell_setting 'orthorhombic'
loop_
_space_group_symop_operation_xyz
x,y,z
-x,-y,z
x,-y,-z
-x,y,-z
1/2+x,1/2+y,z
1/2-x,1/2-y,z
1/2+x,1/2-y,-z
1/2-x,1/2+y,-z
loop_
_atom_site_type_symbol
_atom_site_label
_atom_site_fract_x
_atom_site_fract_y
_atom_site_fract_z
Si Si1 0.924636 0.317254 0.683333
Si Si2 0.075855 0.181397 0.824805
Si Si3 0.924145 0.818604 0.175195
Si Si4 0.575363 0.182746 0.316667
Si Si5 0.679303 0.817077 0.425168
Si Si6 0.320539 0.181313 0.923833
Si Si7 0.179303 0.317077 0.574832
Si Si8 0.679462 0.818687 0.076168
O O1 0.908052 0.242956 0.752653
O O2 0.920645 0.500000 0.689908
O O3 0.875586 0.269361 0.626268
O O4 1.000000 0.279290 0.667859
O O5 0.091948 0.242957 0.752654
O O6 0.123803 0.252522 0.877707
O O7 1.000000 0.222015 0.837713
O O8 0.081353 0.000000 0.825725
O O9 0.876197 0.747477 0.122294
O O10 0.624413 0.230639 0.373732
O O11 0.750000 0.750000 0.408683
O O12 0.663775 0.772527 0.500000
O O13 0.683111 0.000000 0.423457
O O14 0.250000 0.250000 0.906498
O O15 0.318081 0.000000 0.917782
O O16 0.333049 0.219328 0.000001
O O17 0.250000 0.250000 0.591318
O O18 0.750000 0.750000 0.093504
#
# Coordination Sequence:
#
# PCOD9323854 Si02
#       8
#     8   8   8   8   8   8   8   8
#     4   9  18  33  52  73  99 132 170 212 255 300
#     4  10  21  36  54  77 106 139 174 213 256 304
#     4  10  21  36  54  77 106 139 174 213 256 304
#     4   9  18  33  52  73  99 132 170 212 255 300
#     4   9  18  32  50  73 100 130 165 206 253 304
#     4  10  21  37  57  80 106 136 171 212 257 306
#     4   9  18  32  50  73 100 130 165 206 253 304
#     4  10  21  37  57  80 106 136 171 212 257 306
#
# _framework density 17.265046999999999
#
# number of rings (size 3 to 8) (size 9 to 14) (size 15 to 20)
#    0.000    2.500    0.000    1.500    0.000    6.000 
#    0.000    7.500    0.000    0.000    0.000    7.000 
#    0.000    0.000    0.000    0.000    0.000    0.000 
#
# Total GULP energy -178545.369339 kJ/mol
# GULP energy per Si atom -5579.542792 kJ/mol
# Density = 1.722575 g / cm^3
# Si number density = 17.265047 Si / 1000 Ang^3
#
#
#
# Elastic Constant Matrix: (Units=GPa)
#
#
# Indices 1 2 3 4 5 6 
#
# 1 139.6955 48.7556 126.3023 0.0000 0.0000 0.0000
# 2 48.7556 31.2779 48.9339 0.0000 0.0000 0.0000
# 3 126.3023 48.9339 137.3108 0.0000 0.0000 0.0000
# 4 0.0000 0.0000 0.0000 22.3488 0.0000 0.0000
# 5 0.0000 0.0000 0.0000 0.0000 45.3133 0.0000
# 6 0.0000 0.0000 0.0000 0.0000 0.0000 31.0759
#
#
#
# Elastic Compliance Matrix: (Units=1/GPa)
#
#
# Indices 1 2 3 4 5 6 
#
# 1 0.044433 -0.012023 -0.036586 0.000000 0.000000 0.000000
# 2 -0.012023 0.075512 -0.015851 0.000000 0.000000 0.000000
# 3 -0.036586 -0.015851 0.046584 0.000000 0.000000 0.000000
# 4 0.000000 0.000000 0.000000 0.044745 0.000000 0.000000
# 5 0.000000 0.000000 0.000000 0.000000 0.022069 0.000000
# 6 0.000000 0.000000 0.000000 0.000000 0.000000 0.032179
#
#
# Mechanical properties :
#
#
# Convention : Reuss Voigt Hill
#
# Bulk Modulus (GPa) = 26.58955 84.02977 55.30966
# Shear Modulus (GPa) = 12.28563 25.36709 18.82636
#
# Velocity S-wave (km/s) = 2.67046 3.83727 3.30575
# Velocity P-wave (km/s) = 4.99427 8.27097 6.83197
#
# Compressibility (1/GPa) = 0.03760876
#
# Stress axis : x y z
#
# Youngs Moduli (GPa) = 22.50573 13.24293 21.46639
#
# Poissons Ratio (x) = 0.15923 0.78537
# Poissons Ratio (y) = 0.27060 0.34026
# Poissons Ratio (z) = 0.82339 0.20991
#
# Static dielectric constant tensor:
#      x y z
#    x 1.562130 0.000000 0.000000 
#    y 0.000000 1.578890 0.000000 
#    z 0.000000 0.000000 1.565200 
# 
# From -- ./inp_files/37713.got.cif
#   From: 2010.05.17/outbox.cif.g08.bks.cpg/sg21_19_cif.got.tgz:37713.got - 2010.06.03 23:14:55.
