data_PCOD9323062
_publ_section_title
;
Structure prediction by ZEFSAII (Michael W. Deem and Ramdas Pophale) SiO2 
 PCOD9323062
Probable space group: C 2 2 2
;
_chemical_formula_sum "Si O2"
_cell_formula_units_Z 48
_cell_length_a 14.350300
_cell_length_b 12.879537
_cell_length_c 11.659344
_cell_angle_alpha 90.000000
_cell_angle_beta 90.000000
_cell_angle_gamma 90.000000
_cell_volume 2154.940818
_symmetry_space_group_name_H-M "C 2 2 2"
_symmetry_group_IT_number 21
_symmetry_cell_setting 'orthorhombic'
loop_
_space_group_symop_operation_xyz
x,y,z
-x,-y,z
x,-y,-z
-x,y,-z
1/2+x,1/2+y,z
1/2-x,1/2-y,z
1/2+x,1/2-y,-z
1/2-x,1/2+y,-z
loop_
_atom_site_type_symbol
_atom_site_label
_atom_site_fract_x
_atom_site_fract_y
_atom_site_fract_z
Si Si1 0.217337 0.406565 0.918317
Si Si2 0.858924 0.271205 0.735592
Si Si3 0.874038 0.382980 0.499892
Si Si4 0.224685 0.869000 0.315648
Si Si5 0.392455 0.269799 0.003814
Si Si6 0.029080 0.819422 0.381019
O O1 0.236885 0.438294 0.787416
O O2 0.192387 0.500000 0.000000
O O3 0.312311 0.354010 0.971348
O O4 0.133153 0.323843 0.918064
O O5 0.750000 0.250000 0.723917
O O6 0.873772 0.352991 0.633102
O O7 0.875172 0.280769 0.870947
O O8 0.938445 0.189246 0.697280
O O9 0.907658 0.500000 0.500000
O O10 0.772976 0.385109 0.438127
O O11 0.927738 0.294221 0.423913
O O12 0.250000 0.750000 0.282290
O O13 0.114430 0.876358 0.322552
O O14 0.500000 0.304525 0.000000
O O15 0.000000 0.870326 0.500000
#
# Coordination Sequence:
#
# PCOD9323062 Si02
#       6
#     8   8   8   8   8   8
#     4  11  24  43  66  98 132 173 229 273 327 393
#     4  11  21  38  63  88 121 164 219 265 319 387
#     4  10  22  35  60  97 131 163 205 271 331 384
#     4  10  19  39  64  89 126 175 212 260 328 400
#     4  11  24  44  67  93 132 180 218 272 336 394
#     4   9  19  36  60  91 120 164 214 253 321 397
#
# _framework density 22.274393
#
# number of rings (size 3 to 8) (size 9 to 14) (size 15 to 20)
#    0.000    1.667    3.333    3.500    4.667    3.667 
#    0.000    1.667    0.000    6.500    0.000    0.000 
#    0.000    0.000    0.000    0.000    0.000    0.000 
#
# Total GULP energy -133761.915987 kJ/mol
# GULP energy per Si atom -5573.413166 kJ/mol
# Density = 2.222370 g / cm^3
# Si number density = 22.274393 Si / 1000 Ang^3
#
#
#
# Elastic Constant Matrix: (Units=GPa)
#
#
# Indices 1 2 3 4 5 6 
#
# 1 117.6187 -25.4812 -4.5216 0.0000 0.0000 0.0000
# 2 -25.4812 21.2669 -11.8763 0.0000 0.0000 0.0000
# 3 -4.5216 -11.8763 102.2869 0.0000 0.0000 0.0000
# 4 0.0000 0.0000 0.0000 19.5866 0.0000 0.0000
# 5 0.0000 0.0000 0.0000 0.0000 36.2816 0.0000
# 6 0.0000 0.0000 0.0000 0.0000 0.0000 -0.5336
#
#
#
# Elastic Compliance Matrix: (Units=1/GPa)
#
#
# Indices 1 2 3 4 5 6 
#
# 1 0.011989 0.015677 0.002350 0.000000 0.000000 0.000000
# 2 0.015677 0.070781 0.008911 0.000000 0.000000 0.000000
# 3 0.002350 0.008911 0.010915 0.000000 0.000000 0.000000
# 4 0.000000 0.000000 0.000000 0.051055 0.000000 0.000000
# 5 0.000000 0.000000 0.000000 0.000000 0.027562 0.000000
# 6 0.000000 0.000000 0.000000 0.000000 0.000000 -1.874237
#
#
# Mechanical properties :
#
#
# Convention : Reuss Voigt Hill
#
# Bulk Modulus (GPa) = 6.77685 17.49048 12.13366
# Shear Modulus (GPa) = -2.92976 29.93702 13.50363
#
# Velocity S-wave (km/s) = -1.14811 3.67005 2.46487
# Velocity P-wave (km/s) = 1.13644 5.08216 3.68238
#
# Compressibility (1/GPa) = 0.14756126
#
# Stress axis : x y z
#
# Youngs Moduli (GPa) = 83.41218 14.12804 91.61723
#
# Poissons Ratio (x) = -0.22148 -0.21531
# Poissons Ratio (y) = -1.30764 -0.81642
# Poissons Ratio (z) = -0.19603 -0.12590
#
# Static dielectric constant tensor:
#      x y z
#    x 1.875090 0.000000 0.000000 
#    y 0.000000 1.847560 0.000000 
#    z 0.000000 0.000000 1.883530 
# 
# From -- ./inp_files/25208.got.cif
#   From: 2010.05.17/outbox.cif.g08.bks.cpg/sg21_13_cif.got.tgz:25208.got - 2010.06.03 23:14:55.
