data_PCOD9323267
_publ_section_title
;
Structure prediction by ZEFSAII (Michael W. Deem and Ramdas Pophale) SiO2 
 PCOD9323267
Probable space group: C 2 2 2
;
_chemical_formula_sum "Si O2"
_cell_formula_units_Z 36
_cell_length_a 14.238242
_cell_length_b 12.929057
_cell_length_c 8.912793
_cell_angle_alpha 90.000000
_cell_angle_beta 90.000000
_cell_angle_gamma 90.000000
_cell_volume 1640.729703
_symmetry_space_group_name_H-M "C 2 2 2"
_symmetry_group_IT_number 21
_symmetry_cell_setting 'orthorhombic'
loop_
_space_group_symop_operation_xyz
x,y,z
-x,-y,z
x,-y,-z
-x,y,-z
1/2+x,1/2+y,z
1/2-x,1/2-y,z
1/2+x,1/2-y,-z
1/2-x,1/2+y,-z
loop_
_atom_site_type_symbol
_atom_site_label
_atom_site_fract_x
_atom_site_fract_y
_atom_site_fract_z
Si Si1 0.704639 0.883691 0.179591
Si Si2 0.616008 0.315067 0.670618
Si Si3 0.250000 0.250000 0.905332
Si Si4 0.600568 0.291803 0.329265
Si Si5 0.395204 0.044349 0.655234
O O1 0.649147 0.801786 0.287395
O O2 0.812730 0.883429 0.233108
O O3 0.660178 0.993970 0.207652
O O4 0.700096 0.830337 0.017976
O O5 0.628699 0.333510 0.493080
O O6 0.505795 0.326153 0.704964
O O7 0.323961 0.309266 0.800043
O O8 0.599997 0.167062 0.346268
O O9 0.500000 0.000000 0.663495
O O10 0.352922 0.000000 0.500000
#
# Coordination Sequence:
#
# PCOD9323267 Si02
#       5
#     8   8   4   8   8
#     4  10  20  35  51  85 125 157 187 240 310 362
#     4   9  18  34  58  81 115 155 205 237 291 356
#     4  10  24  34  52  82 122 164 204 234 304 370
#     4  11  19  35  59  86 112 157 204 251 291 352
#     4  11  19  34  59  93 122 147 191 258 303 345
#
# _framework density 21.941455000000001
#
# number of rings (size 3 to 8) (size 9 to 14) (size 15 to 20)
#    0.000    2.000    4.444    2.667    0.000    4.444 
#    0.000    1.111    0.000    1.333    0.000    6.222 
#    0.000    0.000    0.000    0.000    0.000    0.000 
#
# Total GULP energy -100589.765222 kJ/mol
# GULP energy per Si atom -5588.320290 kJ/mol
# Density = 2.189152 g / cm^3
# Si number density = 21.941455 Si / 1000 Ang^3
#
#
#
# Elastic Constant Matrix: (Units=GPa)
#
#
# Indices 1 2 3 4 5 6 
#
# 1 95.0902 -9.0379 50.9635 0.0000 0.0000 0.0000
# 2 -9.0379 23.4877 -5.6952 0.0000 0.0000 0.0000
# 3 50.9635 -5.6952 104.6392 0.0000 0.0000 0.0000
# 4 0.0000 0.0000 0.0000 24.3854 0.0000 0.0000
# 5 0.0000 0.0000 0.0000 0.0000 -4.4670 0.0000
# 6 0.0000 0.0000 0.0000 0.0000 0.0000 17.1955
#
#
#
# Elastic Compliance Matrix: (Units=1/GPa)
#
#
# Indices 1 2 3 4 5 6 
#
# 1 0.014582 0.003941 -0.006888 0.000000 0.000000 0.000000
# 2 0.003941 0.044210 0.000487 0.000000 0.000000 0.000000
# 3 -0.006888 0.000487 0.012938 0.000000 0.000000 0.000000
# 4 0.000000 0.000000 0.000000 0.041008 0.000000 0.000000
# 5 0.000000 0.000000 0.000000 0.000000 -0.223865 0.000000
# 6 0.000000 0.000000 0.000000 0.000000 0.000000 0.058155
#
#
# Mechanical properties :
#
#
# Convention : Reuss Voigt Hill
#
# Bulk Modulus (GPa) = 14.96771 32.85309 23.91040
# Shear Modulus (GPa) = -193.93540 19.88855 -87.02342
#
# Velocity S-wave (km/s) = -9.41167 3.01398 -6.30458
# Velocity P-wave (km/s) = 10.54844 5.20746 6.48660
#
# Compressibility (1/GPa) = 0.06681048
#
# Stress axis : x y z
#
# Youngs Moduli (GPa) = 68.57605 22.61927 77.29337
#
# Poissons Ratio (x) = -0.08914 0.53237
# Poissons Ratio (y) = -0.27026 -0.03762
# Poissons Ratio (z) = 0.47233 -0.01101
#
# Static dielectric constant tensor:
#      x y z
#    x 1.801080 0.000000 0.000000 
#    y 0.000000 1.818190 0.000000 
#    z 0.000000 0.000000 1.843120 
# 
# From -- ./inp_files/14374.got.cif
#   From: 2010.05.17/outbox.cif.g08.bks.cpg/sg21_8_cif.got.tgz:14374.got - 2010.06.03 23:14:55.
