data_PCOD9323430
_publ_section_title
;
Structure prediction by ZEFSAII (Michael W. Deem and Ramdas Pophale) SiO2 
 PCOD9323430
Probable space group: C 2 2 2
;
_chemical_formula_sum "Si O2"
_cell_formula_units_Z 32
_cell_length_a 11.305467
_cell_length_b 16.282980
_cell_length_c 8.940926
_cell_angle_alpha 90.000000
_cell_angle_beta 90.000000
_cell_angle_gamma 90.000000
_cell_volume 1645.905500
_symmetry_space_group_name_H-M "C 2 2 2"
_symmetry_group_IT_number 21
_symmetry_cell_setting 'orthorhombic'
loop_
_space_group_symop_operation_xyz
x,y,z
-x,-y,z
x,-y,-z
-x,y,-z
1/2+x,1/2+y,z
1/2-x,1/2-y,z
1/2+x,1/2-y,-z
1/2-x,1/2+y,-z
loop_
_atom_site_type_symbol
_atom_site_label
_atom_site_fract_x
_atom_site_fract_y
_atom_site_fract_z
Si Si1 0.865558 0.471617 0.661400
Si Si2 0.977706 0.877248 0.321398
Si Si3 0.838814 0.976067 0.829973
Si Si4 0.621953 0.216268 0.599238
O O1 0.815351 0.500000 0.500000
O O2 0.797639 0.519604 0.790671
O O3 0.856302 0.373212 0.667513
O O4 0.000000 0.500000 0.663866
O O5 0.893233 0.950856 0.271151
O O6 0.917534 0.789914 0.291714
O O7 0.000000 0.882303 0.500000
O O8 0.096645 0.894456 0.227897
O O9 0.862760 0.000000 0.000000
O O10 0.500000 0.205996 0.500000
O O11 0.750000 0.250000 0.533711
#
# Coordination Sequence:
#
# PCOD9323430 Si02
#       4
#     8   8   8   8
#     4  11  22  40  65  90 127 163 210 262 322 374
#     4  10  20  36  67  92 117 152 215 265 303 356
#     4  11  22  38  62  91 128 165 209 254 313 381
#     4  11  22  38  64  98 128 158 208 274 322 365
#
# _framework density 19.442186
#
# number of rings (size 3 to 8) (size 9 to 14) (size 15 to 20)
#    0.000    1.250    5.000    4.500    3.500    0.500 
#    0.000    0.000   16.500    0.000    0.000    0.000 
#    0.000    0.000    0.000    0.000    0.000    0.000 
#
# Total GULP energy -89103.586299 kJ/mol
# GULP energy per Si atom -5568.974144 kJ/mol
# Density = 1.939794 g / cm^3
# Si number density = 19.442186 Si / 1000 Ang^3
#
#
#
# Elastic Constant Matrix: (Units=GPa)
#
#
# Indices 1 2 3 4 5 6 
#
# 1 118.8976 25.6833 28.9019 0.0000 0.0000 0.0000
# 2 25.6833 113.6038 16.9646 0.0000 0.0000 0.0000
# 3 28.9019 16.9646 89.7134 0.0000 0.0000 0.0000
# 4 0.0000 0.0000 0.0000 -0.4047 0.0000 0.0000
# 5 0.0000 0.0000 0.0000 0.0000 6.9500 0.0000
# 6 0.0000 0.0000 0.0000 0.0000 0.0000 26.6509
#
#
#
# Elastic Compliance Matrix: (Units=1/GPa)
#
#
# Indices 1 2 3 4 5 6 
#
# 1 0.009444 -0.001730 -0.002715 0.000000 0.000000 0.000000
# 2 -0.001730 0.009375 -0.001216 0.000000 0.000000 0.000000
# 3 -0.002715 -0.001216 0.012251 0.000000 0.000000 0.000000
# 4 0.000000 0.000000 0.000000 -2.470805 0.000000 0.000000
# 5 0.000000 0.000000 0.000000 0.000000 0.143884 0.000000
# 6 0.000000 0.000000 0.000000 0.000000 0.000000 0.037522
#
#
# Mechanical properties :
#
#
# Convention : Reuss Voigt Hill
#
# Bulk Modulus (GPa) = 50.63486 51.70160 51.16823
# Shear Modulus (GPa) = -2.23172 23.35024 10.55926
#
# Velocity S-wave (km/s) = -1.07255 3.46932 2.33300
# Velocity P-wave (km/s) = 4.95646 6.53440 5.79935
#
# Compressibility (1/GPa) = 0.01974924
#
# Stress axis : x y z
#
# Youngs Moduli (GPa) = 105.88387 106.66569 81.62405
#
# Poissons Ratio (x) = 0.18449 0.22165
# Poissons Ratio (y) = 0.18314 0.09922
# Poissons Ratio (z) = 0.28753 0.12966
#
# Static dielectric constant tensor:
#      x y z
#    x 1.832460 0.000000 0.000000 
#    y 0.000000 1.683380 0.000000 
#    z 0.000000 0.000000 1.688280 
# 
# From -- ./inp_files/12574.got.cif
#   From: 2010.05.17/outbox.cif.g08.bks.cpg/sg21_7_cif.got.tgz:12574.got - 2010.06.03 23:14:55.
