data_PCOD9323918
_publ_section_title
;
Structure prediction by ZEFSAII (Michael W. Deem and Ramdas Pophale) SiO2 
 PCOD9323918
Probable space group: C 2 2 2
;
_chemical_formula_sum "Si O2"
_cell_formula_units_Z 34
_cell_length_a 24.221214
_cell_length_b 8.312716
_cell_length_c 8.456140
_cell_angle_alpha 90.000000
_cell_angle_beta 90.000000
_cell_angle_gamma 90.000000
_cell_volume 1702.593671
_symmetry_space_group_name_H-M "C 2 2 2"
_symmetry_group_IT_number 21
_symmetry_cell_setting 'orthorhombic'
loop_
_space_group_symop_operation_xyz
x,y,z
-x,-y,z
x,-y,-z
-x,y,-z
1/2+x,1/2+y,z
1/2-x,1/2-y,z
1/2+x,1/2-y,-z
1/2-x,1/2+y,-z
loop_
_atom_site_type_symbol
_atom_site_label
_atom_site_fract_x
_atom_site_fract_y
_atom_site_fract_z
Si Si1 0.000000 0.500000 0.500000
Si Si2 0.436507 0.311371 0.970513
Si Si3 0.656587 0.110735 0.852730
Si Si4 0.308804 0.316754 0.435257
Si Si5 0.899253 0.331520 0.344338
O O1 0.958371 0.393507 0.399731
O O2 0.413466 0.290009 0.794616
O O3 0.432995 0.500000 0.000000
O O4 0.500000 0.260819 0.000000
O O5 0.396472 0.201549 0.075616
O O6 0.687248 0.249712 0.747829
O O7 0.635924 0.976882 0.729771
O O8 0.681313 0.000000 0.000000
O O9 0.309222 0.500000 0.500000
O O10 0.250000 0.250000 0.494335
O O11 0.362547 0.242007 0.518181
#
# Coordination Sequence:
#
# PCOD9323918 Si02
#       5
#     2   8   8   8   8
#     4  12  20  36  68 100 140 164 236 270 348 412
#     4  10  21  37  59  92 136 177 221 281 348 420
#     4  10  21  41  64  93 132 172 232 272 350 414
#     4  12  25  45  70  98 137 180 236 296 348 417
#     4  11  22  39  65  97 129 181 221 281 344 414
#
# _framework density 19.969532000000001
#
# number of rings (size 3 to 8) (size 9 to 14) (size 15 to 20)
#    0.000    1.176    2.353    4.235    0.000    3.294 
#    0.000   10.588    0.000    0.000    0.000    0.000 
#    0.000    0.000    0.000    0.000    0.000    0.000 
#
# Total GULP energy -94673.825591 kJ/mol
# GULP energy per Si atom -5569.048564 kJ/mol
# Density = 1.992408 g / cm^3
# Si number density = 19.969532 Si / 1000 Ang^3
#
#
#
# Elastic Constant Matrix: (Units=GPa)
#
#
# Indices 1 2 3 4 5 6 
#
# 1 87.2262 28.2362 34.5883 0.0000 0.0000 0.0000
# 2 28.2362 110.0489 55.4993 0.0000 0.0000 0.0000
# 3 34.5883 55.4993 92.5518 0.0000 0.0000 0.0000
# 4 0.0000 0.0000 0.0000 72.4131 0.0000 0.0000
# 5 0.0000 0.0000 0.0000 0.0000 115.2437 0.0000
# 6 0.0000 0.0000 0.0000 0.0000 0.0000 85.3823
#
#
#
# Elastic Compliance Matrix: (Units=1/GPa)
#
#
# Indices 1 2 3 4 5 6 
#
# 1 0.013593 -0.001327 -0.004284 0.000000 0.000000 0.000000
# 2 -0.001327 0.013156 -0.007393 0.000000 0.000000 0.000000
# 3 -0.004284 -0.007393 0.016839 0.000000 0.000000 0.000000
# 4 0.000000 0.000000 0.000000 0.013810 0.000000 0.000000
# 5 0.000000 0.000000 0.000000 0.000000 0.008677 0.000000
# 6 0.000000 0.000000 0.000000 0.000000 0.000000 0.011712
#
#
# Mechanical properties :
#
#
# Convention : Reuss Voigt Hill
#
# Bulk Modulus (GPa) = 56.88504 58.49717 57.69110
# Shear Modulus (GPa) = 45.59767 66.04137 55.81952
#
# Velocity S-wave (km/s) = 4.78364 5.75698 5.29273
# Velocity P-wave (km/s) = 7.68496 8.57597 8.14266
#
# Compressibility (1/GPa) = 0.01757932
#
# Stress axis : x y z
#
# Youngs Moduli (GPa) = 73.56812 76.01230 59.38577
#
# Poissons Ratio (x) = 0.10088 0.25441
# Poissons Ratio (y) = 0.09763 0.43904
# Poissons Ratio (z) = 0.31517 0.56196
#
# Static dielectric constant tensor:
#      x y z
#    x 1.619560 0.000000 0.000000 
#    y 0.000000 1.715970 0.000000 
#    z 0.000000 0.000000 1.697560 
# 
# From -- ./inp_files/10601.got.cif
#   From: 2010.05.17/outbox.cif.g08.bks.cpg/sg21_6_cif.got.tgz:10601.got - 2010.06.03 23:14:55.
