data_PCOD9323397
_publ_section_title
;
Structure prediction by ZEFSAII (Michael W. Deem and Ramdas Pophale) SiO2 
 PCOD9323397
Probable space group: C 2 2 2
;
_chemical_formula_sum "Si O2"
_cell_formula_units_Z 58
_cell_length_a 18.412087
_cell_length_b 17.382570
_cell_length_c 8.578344
_cell_angle_alpha 90.000000
_cell_angle_beta 90.000000
_cell_angle_gamma 90.000000
_cell_volume 2745.493774
_symmetry_space_group_name_H-M "C 2 2 2"
_symmetry_group_IT_number 21
_symmetry_cell_setting 'orthorhombic'
loop_
_space_group_symop_operation_xyz
x,y,z
-x,-y,z
x,-y,-z
-x,y,-z
1/2+x,1/2+y,z
1/2-x,1/2-y,z
1/2+x,1/2-y,-z
1/2-x,1/2+y,-z
loop_
_atom_site_type_symbol
_atom_site_label
_atom_site_fract_x
_atom_site_fract_y
_atom_site_fract_z
Si Si1 0.315605 0.087624 0.689608
Si Si2 0.366753 0.922663 0.657339
Si Si3 0.500000 0.000000 0.500000
Si Si4 0.080404 0.720519 0.181214
Si Si5 0.566736 0.386841 0.301188
Si Si6 0.591856 0.773817 0.180222
Si Si7 0.181159 0.978455 0.170186
Si Si8 0.103093 0.888334 0.656410
O O1 0.322452 0.091169 0.502452
O O2 0.368423 0.152101 0.759014
O O3 0.233895 0.083727 0.749111
O O4 0.341110 0.001416 0.735520
O O5 0.365174 0.848547 0.763521
O O6 0.447770 0.945060 0.599384
O O7 0.085682 0.797599 0.280844
O O8 0.993983 0.704173 0.193335
O O9 0.101217 0.740531 0.003267
O O10 0.604470 0.434977 0.166212
O O11 0.598384 0.405354 0.472045
O O12 0.480929 0.401939 0.293885
O O13 0.612578 0.700155 0.286079
O O14 0.162488 0.055580 0.267213
O O15 0.207889 0.000000 0.000000
#
# Coordination Sequence:
#
# PCOD9323397 Si02
#       8
#     8   8   2   8   8   8   8   8
#     4  10  24  39  58  85 128 168 209 248 304 377
#     4  10  20  36  61  88 119 169 205 262 292 370
#     4   8  16  32  56  90 120 152 212 246 316 344
#     4  10  21  38  61  97 129 161 199 261 320 364
#     4  10  22  41  69  93 123 154 208 266 312 375
#     4  10  20  37  66  94 127 159 207 261 312 364
#     4  12  26  41  62  87 127 170 202 260 314 381
#     4  10  22  41  67  97 118 158 208 262 316 371
#
# _framework density 21.125526000000001
#
# number of rings (size 3 to 8) (size 9 to 14) (size 15 to 20)
#    0.000    1.931    0.000    4.138    5.793    6.069 
#    0.000    2.069    0.000    0.000    0.000    0.000 
#    0.000    0.000    0.000    0.000    0.000    0.000 
#
# Total GULP energy -161840.433041 kJ/mol
# GULP energy per Si atom -5580.704588 kJ/mol
# Density = 2.107744 g / cm^3
# Si number density = 21.125526 Si / 1000 Ang^3
#
#
#
# Elastic Constant Matrix: (Units=GPa)
#
#
# Indices 1 2 3 4 5 6 
#
# 1 48.3581 8.4071 21.7060 0.0000 0.0000 0.0000
# 2 8.4071 71.9373 14.3385 0.0000 0.0000 0.0000
# 3 21.7060 14.3385 55.1009 0.0000 0.0000 0.0000
# 4 0.0000 0.0000 0.0000 29.0299 0.0000 0.0000
# 5 0.0000 0.0000 0.0000 0.0000 -2.5753 0.0000
# 6 0.0000 0.0000 0.0000 0.0000 0.0000 -4.5447
#
#
#
# Elastic Compliance Matrix: (Units=1/GPa)
#
#
# Indices 1 2 3 4 5 6 
#
# 1 0.025192 -0.001019 -0.009659 0.000000 0.000000 0.000000
# 2 -0.001019 0.014703 -0.003425 0.000000 0.000000 0.000000
# 3 -0.009659 -0.003425 0.022845 0.000000 0.000000 0.000000
# 4 0.000000 0.000000 0.000000 0.034447 0.000000 0.000000
# 5 0.000000 0.000000 0.000000 0.000000 -0.388302 0.000000
# 6 0.000000 0.000000 0.000000 0.000000 0.000000 -0.220037
#
#
# Mechanical properties :
#
#
# Convention : Reuss Voigt Hill
#
# Bulk Modulus (GPa) = 28.95652 29.36660 29.16156
# Shear Modulus (GPa) = -10.60588 13.11161 1.25287
#
# Velocity S-wave (km/s) = -2.24306 2.49399 0.77094
# Velocity P-wave (km/s) = 2.65108 4.71429 3.82444
#
# Compressibility (1/GPa) = 0.03453454
#
# Stress axis : x y z
#
# Youngs Moduli (GPa) = 39.69583 68.01484 43.77417
#
# Poissons Ratio (x) = 0.06930 0.42280
# Poissons Ratio (y) = 0.04045 0.14991
# Poissons Ratio (z) = 0.38341 0.23292
#
# Static dielectric constant tensor:
#      x y z
#    x 1.857110 0.000000 0.000000 
#    y 0.000000 1.758890 0.000000 
#    z 0.000000 0.000000 1.746750 
# 
# From -- ./inp_files/16682.got.cif
#   From: 2010.05.17/outbox.cif.g08.bks.cpg/sg21_9_cif.got.tgz:16682.got - 2010.06.03 23:14:55.
