data_PCOD9323902
_publ_section_title
;
Structure prediction by ZEFSAII (Michael W. Deem and Ramdas Pophale) SiO2 
 PCOD9323902
Probable space group: C 2 2 2
;
_chemical_formula_sum "Si O2"
_cell_formula_units_Z 44
_cell_length_a 14.232494
_cell_length_b 18.787514
_cell_length_c 8.672135
_cell_angle_alpha 90.000000
_cell_angle_beta 90.000000
_cell_angle_gamma 90.000000
_cell_volume 2318.869757
_symmetry_space_group_name_H-M "C 2 2 2"
_symmetry_group_IT_number 21
_symmetry_cell_setting 'orthorhombic'
loop_
_space_group_symop_operation_xyz
x,y,z
-x,-y,z
x,-y,-z
-x,y,-z
1/2+x,1/2+y,z
1/2-x,1/2-y,z
1/2+x,1/2-y,-z
1/2-x,1/2+y,-z
loop_
_atom_site_type_symbol
_atom_site_label
_atom_site_fract_x
_atom_site_fract_y
_atom_site_fract_z
Si Si1 0.221426 0.074074 0.061542
Si Si2 0.872880 0.168182 0.186785
Si Si3 0.000000 0.723192 0.000000
Si Si4 0.171295 0.304722 0.203374
Si Si5 0.108676 0.205723 0.478086
Si Si6 0.047907 0.927787 0.719556
O O1 0.281394 0.118488 0.185629
O O2 0.122632 0.057282 0.145774
O O3 0.201974 0.126453 0.916795
O O4 0.262099 0.000000 0.000000
O O5 0.924210 0.230344 0.093594
O O6 0.843573 0.195223 0.355952
O O7 0.959704 0.115158 0.215485
O O8 0.929581 0.687227 0.120564
O O9 0.250000 0.250000 0.132174
O O10 0.151557 0.264756 0.364970
O O11 0.098830 0.127521 0.397235
O O12 0.000000 0.227280 0.500000
O O13 0.000000 0.000000 0.661147
#
# Coordination Sequence:
#
# PCOD9323902 Si02
#       6
#     8   8   4   8   8   8
#     4  12  23  38  60  94 134 171 210 267 330 396
#     4  11  19  34  60  94 125 163 214 254 332 390
#     4  12  20  38  64  92 124 160 222 276 318 368
#     4  12  22  41  63  92 131 169 217 274 320 389
#     4  10  21  37  57  92 129 168 215 261 326 395
#     4  11  19  33  57  92 137 173 194 257 342 413
#
# _framework density 18.974762999999999
#
# number of rings (size 3 to 8) (size 9 to 14) (size 15 to 20)
#    0.000    0.727   10.909    0.000    0.000    3.273 
#    3.273    0.455    0.000    0.000    0.000    0.000 
#    0.000    0.000    0.000    0.000    0.000    0.000 
#
# Total GULP energy -122568.320541 kJ/mol
# GULP energy per Si atom -5571.287297 kJ/mol
# Density = 1.893158 g / cm^3
# Si number density = 18.974763 Si / 1000 Ang^3
#
#
#
# Elastic Constant Matrix: (Units=GPa)
#
#
# Indices 1 2 3 4 5 6 
#
# 1 67.1854 29.2664 29.9436 0.0000 0.0000 0.0000
# 2 29.2664 106.2754 53.9230 0.0000 0.0000 0.0000
# 3 29.9436 53.9230 120.5856 0.0000 0.0000 0.0000
# 4 0.0000 0.0000 0.0000 22.4425 0.0000 0.0000
# 5 0.0000 0.0000 0.0000 0.0000 20.4788 0.0000
# 6 0.0000 0.0000 0.0000 0.0000 0.0000 26.8128
#
#
#
# Elastic Compliance Matrix: (Units=1/GPa)
#
#
# Indices 1 2 3 4 5 6 
#
# 1 0.017642 -0.003409 -0.002856 0.000000 0.000000 0.000000
# 2 -0.003409 0.012830 -0.004891 0.000000 0.000000 0.000000
# 3 -0.002856 -0.004891 0.011189 0.000000 0.000000 0.000000
# 4 0.000000 0.000000 0.000000 0.044558 0.000000 0.000000
# 5 0.000000 0.000000 0.000000 0.000000 0.048831 0.000000
# 6 0.000000 0.000000 0.000000 0.000000 0.000000 0.037296
#
#
# Mechanical properties :
#
#
# Convention : Reuss Voigt Hill
#
# Bulk Modulus (GPa) = 51.68245 57.81246 54.74745
# Shear Modulus (GPa) = 24.86227 26.00772 25.43499
#
# Velocity S-wave (km/s) = 3.62371 3.70624 3.66521
# Velocity P-wave (km/s) = 6.69365 6.98922 6.84303
#
# Compressibility (1/GPa) = 0.01934893
#
# Stress axis : x y z
#
# Youngs Moduli (GPa) = 56.68202 77.94378 89.37236
#
# Poissons Ratio (x) = 0.26571 0.25529
# Poissons Ratio (y) = 0.19323 0.43709
# Poissons Ratio (z) = 0.16191 0.38119
#
# Static dielectric constant tensor:
#      x y z
#    x 1.646120 0.000000 0.000000 
#    y 0.000000 1.893990 0.000000 
#    z 0.000000 0.000000 1.752690 
# 
# From -- ./inp_files/14841.got.cif
#   From: 2010.05.17/outbox.cif.g08.bks.cpg/sg21_8_cif.got.tgz:14841.got - 2010.06.03 23:14:55.
