data_PCOD9323647
_publ_section_title
;
Structure prediction by ZEFSAII (Michael W. Deem and Ramdas Pophale) SiO2 
 PCOD9323647
Probable space group: C 2 2 2
;
_chemical_formula_sum "Si O2"
_cell_formula_units_Z 48
_cell_length_a 14.521929
_cell_length_b 5.902623
_cell_length_c 25.634059
_cell_angle_alpha 90.000000
_cell_angle_beta 90.000000
_cell_angle_gamma 90.000000
_cell_volume 2197.286738
_symmetry_space_group_name_H-M "C 2 2 2"
_symmetry_group_IT_number 21
_symmetry_cell_setting 'orthorhombic'
loop_
_space_group_symop_operation_xyz
x,y,z
-x,-y,z
x,-y,-z
-x,y,-z
1/2+x,1/2+y,z
1/2-x,1/2-y,z
1/2+x,1/2-y,-z
1/2-x,1/2+y,-z
loop_
_atom_site_type_symbol
_atom_site_label
_atom_site_fract_x
_atom_site_fract_y
_atom_site_fract_z
Si Si1 0.896327 0.405152 0.858203
Si Si2 0.898463 0.400254 0.647787
Si Si3 0.250000 0.250000 0.624163
Si Si4 0.659098 0.386832 0.550289
Si Si5 0.750000 0.750000 0.873853
Si Si6 0.392519 0.545602 0.938704
Si Si7 0.551304 0.257716 0.753300
O O1 0.817627 0.583355 0.843370
O O2 0.872266 0.291074 0.913699
O O3 0.899650 0.235133 0.809462
O O4 0.000000 0.500000 0.864251
O O5 0.820677 0.590507 0.654016
O O6 0.888163 0.280163 0.591609
O O7 0.891908 0.247640 0.699433
O O8 0.000000 0.500000 0.647446
O O9 0.309579 0.409738 0.587078
O O10 0.612270 0.500000 0.500000
O O11 0.750000 0.250000 0.531062
O O12 0.677477 0.617038 0.909485
O O13 0.500000 0.500000 0.925330
O O14 0.382897 0.500000 0.000000
O O15 0.500000 0.500000 0.750553
O O16 0.500000 0.000000 0.754573
#
# Coordination Sequence:
#
# PCOD9323647 Si02
#       7
#     8   8   4   8   4   8   8
#     4  11  24  47  73 104 146 190 249 306 376 447
#     4  10  24  42  70 103 142 184 243 300 369 443
#     4  10  22  41  66  98 136 181 240 294 362 440
#     4  10  20  39  68  94 136 186 231 295 361 434
#     4  12  26  43  74 108 144 189 246 310 364 450
#     4  11  25  46  71 103 150 194 244 304 373 440
#     4  10  24  45  78 104 147 199 239 311 376 439
#
# _framework density 21.845122
#
# number of rings (size 3 to 8) (size 9 to 14) (size 15 to 20)
#    0.000    1.500    2.500    1.000    9.333    0.667 
#    0.000    7.500    0.000    0.000    0.000    0.000 
#    0.000    0.000    0.000    0.000    0.000    0.000 
#
# Total GULP energy -133787.633619 kJ/mol
# GULP energy per Si atom -5574.484734 kJ/mol
# Density = 2.179540 g / cm^3
# Si number density = 21.845122 Si / 1000 Ang^3
#
#
#
# Elastic Constant Matrix: (Units=GPa)
#
#
# Indices 1 2 3 4 5 6 
#
# 1 94.1680 45.0464 46.3779 0.0000 0.0000 0.0000
# 2 45.0464 109.4917 43.7117 0.0000 0.0000 0.0000
# 3 46.3779 43.7117 121.6541 0.0000 0.0000 0.0000
# 4 0.0000 0.0000 0.0000 12.8792 0.0000 0.0000
# 5 0.0000 0.0000 0.0000 0.0000 11.2042 0.0000
# 6 0.0000 0.0000 0.0000 0.0000 0.0000 42.8735
#
#
#
# Elastic Compliance Matrix: (Units=1/GPa)
#
#
# Indices 1 2 3 4 5 6 
#
# 1 0.014728 -0.004457 -0.004013 0.000000 0.000000 0.000000
# 2 -0.004457 0.012011 -0.002617 0.000000 0.000000 0.000000
# 3 -0.004013 -0.002617 0.010690 0.000000 0.000000 0.000000
# 4 0.000000 0.000000 0.000000 0.077645 0.000000 0.000000
# 5 0.000000 0.000000 0.000000 0.000000 0.089252 0.000000
# 6 0.000000 0.000000 0.000000 0.000000 0.000000 0.023324
#
#
# Mechanical properties :
#
#
# Convention : Reuss Voigt Hill
#
# Bulk Modulus (GPa) = 65.54975 66.17619 65.86297
# Shear Modulus (GPa) = 19.61474 26.06990 22.84232
#
# Velocity S-wave (km/s) = 2.99975 3.45831 3.23716
# Velocity P-wave (km/s) = 6.48612 6.80482 6.64738
#
# Compressibility (1/GPa) = 0.01525559
#
# Stress axis : x y z
#
# Youngs Moduli (GPa) = 67.89816 83.25375 93.54381
#
# Poissons Ratio (x) = 0.37107 0.37541
# Poissons Ratio (y) = 0.30263 0.24477
# Poissons Ratio (z) = 0.27249 0.21785
#
# Static dielectric constant tensor:
#      x y z
#    x 1.809550 0.000000 0.000000 
#    y 0.000000 1.876810 0.000000 
#    z 0.000000 0.000000 1.786940 
# 
# From -- ./inp_files/39337.got.cif
#   From: 2010.05.17/outbox.cif.g08.bks.cpg/sg21_20_cif.got.tgz:39337.got - 2010.06.03 23:14:55.
