data_PCOD9323833
_publ_section_title
;
Structure prediction by ZEFSAII (Michael W. Deem and Ramdas Pophale) SiO2 
 PCOD9323833
Probable space group: C 2 2 2
;
_chemical_formula_sum "Si O2"
_cell_formula_units_Z 42
_cell_length_a 9.183402
_cell_length_b 26.815242
_cell_length_c 9.448853
_cell_angle_alpha 90.000000
_cell_angle_beta 90.000000
_cell_angle_gamma 90.000000
_cell_volume 2326.828685
_symmetry_space_group_name_H-M "C 2 2 2"
_symmetry_group_IT_number 21
_symmetry_cell_setting 'orthorhombic'
loop_
_space_group_symop_operation_xyz
x,y,z
-x,-y,z
x,-y,-z
-x,y,-z
1/2+x,1/2+y,z
1/2-x,1/2-y,z
1/2+x,1/2-y,-z
1/2-x,1/2+y,-z
loop_
_atom_site_type_symbol
_atom_site_label
_atom_site_fract_x
_atom_site_fract_y
_atom_site_fract_z
Si Si1 0.098961 0.544876 0.722411
Si Si2 0.423342 0.156611 0.352200
Si Si3 0.425157 0.752285 0.848989
Si Si4 0.072919 0.159356 0.346777
Si Si5 0.000000 0.500000 0.000000
Si Si6 0.565915 0.549401 0.341231
O O1 0.038966 0.599877 0.691124
O O2 0.260746 0.542608 0.661019
O O3 0.000000 0.500000 0.664128
O O4 0.094442 0.533503 0.891655
O O5 0.500000 0.168417 0.500000
O O6 0.464263 0.197302 0.235084
O O7 0.247939 0.159468 0.366992
O O8 0.250000 0.750000 0.864655
O O9 0.468402 0.704621 0.754545
O O10 0.500000 0.750919 0.000000
O O11 0.034009 0.104764 0.283632
O O12 0.000000 0.164967 0.500000
O O13 0.500000 0.500000 0.270135
O O14 0.500000 0.550916 0.500000
#
# Coordination Sequence:
#
# PCOD9323833 Si02
#       6
#     8   8   8   8   2   8
#     4   9  20  36  58  80 115 153 188 230 284 339
#     4  10  21  35  57  88 110 142 188 235 284 331
#     4  10  22  38  56  80 111 146 186 231 278 339
#     4   9  19  37  56  77 115 145 180 233 279 335
#     4   8  20  40  52  76 120 156 188 216 290 340
#     4   9  18  34  55  84 114 142 187 236 283 332
#
# _framework density 18.050318999999998
#
# number of rings (size 3 to 8) (size 9 to 14) (size 15 to 20)
#    0.571    2.095    0.000    0.571    1.333    9.524 
#    0.000    6.190    0.000    0.000    0.000    0.000 
#    0.000    0.000    0.000    0.000    0.000    0.000 
#
# Total GULP energy -116962.441760 kJ/mol
# GULP energy per Si atom -5569.640084 kJ/mol
# Density = 1.800924 g / cm^3
# Si number density = 18.050319 Si / 1000 Ang^3
#
#
#
# Elastic Constant Matrix: (Units=GPa)
#
#
# Indices 1 2 3 4 5 6 
#
# 1 38.4111 51.9762 39.0490 0.0000 0.0000 0.0000
# 2 51.9762 195.8041 69.7496 0.0000 0.0000 0.0000
# 3 39.0490 69.7496 113.5761 0.0000 0.0000 0.0000
# 4 0.0000 0.0000 0.0000 22.4029 0.0000 0.0000
# 5 0.0000 0.0000 0.0000 0.0000 28.4073 0.0000
# 6 0.0000 0.0000 0.0000 0.0000 0.0000 20.7866
#
#
#
# Elastic Compliance Matrix: (Units=1/GPa)
#
#
# Indices 1 2 3 4 5 6 
#
# 1 0.050347 -0.009214 -0.011651 0.000000 0.000000 0.000000
# 2 -0.009214 0.008224 -0.001882 0.000000 0.000000 0.000000
# 3 -0.011651 -0.001882 0.013967 0.000000 0.000000 0.000000
# 4 0.000000 0.000000 0.000000 0.044637 0.000000 0.000000
# 5 0.000000 0.000000 0.000000 0.000000 0.035202 0.000000
# 6 0.000000 0.000000 0.000000 0.000000 0.000000 0.048108
#
#
# Mechanical properties :
#
#
# Convention : Reuss Voigt Hill
#
# Bulk Modulus (GPa) = 36.98019 74.37121 55.67570
# Shear Modulus (GPa) = 19.60829 26.78715 23.19772
#
# Velocity S-wave (km/s) = 3.29950 3.85649 3.58882
# Velocity P-wave (km/s) = 5.92008 7.81803 6.93430
#
# Compressibility (1/GPa) = 0.02704150
#
# Stress axis : x y z
#
# Youngs Moduli (GPa) = 19.86207 121.60178 71.59959
#
# Poissons Ratio (x) = 1.12046 0.83424
# Poissons Ratio (y) = 0.18301 0.13477
# Poissons Ratio (z) = 0.23142 0.22889
#
# Static dielectric constant tensor:
#      x y z
#    x 1.606280 0.000000 0.000000 
#    y 0.000000 1.661660 0.000000 
#    z 0.000000 0.000000 1.588860 
# 
# From -- ./inp_files/11229.got.cif
#   From: 2010.05.17/outbox.cif.g08.bks.cpg/sg21_6_cif.got.tgz:11229.got - 2010.06.03 23:14:55.
