data_PCOD9323485
_publ_section_title
;
Structure prediction by ZEFSAII (Michael W. Deem and Ramdas Pophale) SiO2 
 PCOD9323485
Probable space group: C 2 2 2
;
_chemical_formula_sum "Si O2"
_cell_formula_units_Z 26
_cell_length_a 26.821891
_cell_length_b 5.139723
_cell_length_c 10.057968
_cell_angle_alpha 90.000000
_cell_angle_beta 90.000000
_cell_angle_gamma 90.000000
_cell_volume 1386.562201
_symmetry_space_group_name_H-M "C 2 2 2"
_symmetry_group_IT_number 21
_symmetry_cell_setting 'orthorhombic'
loop_
_space_group_symop_operation_xyz
x,y,z
-x,-y,z
x,-y,-z
-x,y,-z
1/2+x,1/2+y,z
1/2-x,1/2-y,z
1/2+x,1/2-y,-z
1/2-x,1/2+y,-z
loop_
_atom_site_type_symbol
_atom_site_label
_atom_site_fract_x
_atom_site_fract_y
_atom_site_fract_z
Si Si1 0.284592 0.000000 0.000000
Si Si2 0.147807 0.585326 0.255872
Si Si3 0.404001 0.427916 0.354742
Si Si4 0.000000 0.000000 0.500000
Si Si5 0.780966 0.500000 0.500000
O O1 0.250000 0.250000 0.032770
O O2 0.320156 0.077552 0.877548
O O3 0.107833 0.818307 0.267641
O O4 0.186476 0.603507 0.377686
O O5 0.119957 0.315458 0.283626
O O6 0.381076 0.500000 0.500000
O O7 0.460733 0.363006 0.400539
O O8 0.750000 0.750000 0.451819
#
# Coordination Sequence:
#
# PCOD9323485 Si02
#       5
#     4   8   8   2   4
#     4  12  26  44  60  83 124 173 210 242 294 360
#     4  12  22  39  58  86 119 155 204 244 301 353
#     4  10  20  37  62  91 117 149 192 248 302 361
#     4   8  20  36  64 100 120 150 188 254 312 374
#     4  12  20  31  52  79 106 139 190 249 290 332
#
# _framework density 18.751412999999999
#
# number of rings (size 3 to 8) (size 9 to 14) (size 15 to 20)
#    0.923    0.000    3.077    5.538    0.000    2.462 
#    0.000    0.000    0.000    5.538    0.000    0.000 
#    0.000    0.000    0.000    0.000    0.000    0.000 
#
# Total GULP energy -72424.011118 kJ/mol
# GULP energy per Si atom -5571.077778 kJ/mol
# Density = 1.870873 g / cm^3
# Si number density = 18.751413 Si / 1000 Ang^3
#
#
#
# Elastic Constant Matrix: (Units=GPa)
#
#
# Indices 1 2 3 4 5 6 
#
# 1 84.2831 31.1790 36.2809 0.0000 0.0000 0.0000
# 2 31.1790 122.6098 1.9791 0.0000 0.0000 0.0000
# 3 36.2809 1.9791 88.1144 0.0000 0.0000 0.0000
# 4 0.0000 0.0000 0.0000 16.2590 0.0000 0.0000
# 5 0.0000 0.0000 0.0000 0.0000 37.5801 0.0000
# 6 0.0000 0.0000 0.0000 0.0000 0.0000 -7.0379
#
#
#
# Elastic Compliance Matrix: (Units=1/GPa)
#
#
# Indices 1 2 3 4 5 6 
#
# 1 0.016175 -0.004007 -0.006570 0.000000 0.000000 0.000000
# 2 -0.004007 0.009152 0.001444 0.000000 0.000000 0.000000
# 3 -0.006570 0.001444 0.014022 0.000000 0.000000 0.000000
# 4 0.000000 0.000000 0.000000 0.061505 0.000000 0.000000
# 5 0.000000 0.000000 0.000000 0.000000 0.026610 0.000000
# 6 0.000000 0.000000 0.000000 0.000000 0.000000 -0.142088
#
#
# Mechanical properties :
#
#
# Convention : Reuss Voigt Hill
#
# Bulk Modulus (GPa) = 47.43215 48.20946 47.82081
# Shear Modulus (GPa) = 468.65119 24.39811 246.52465
#
# Velocity S-wave (km/s) = 15.82628 3.61104 11.47847
# Velocity P-wave (km/s) = 18.95551 6.56900 14.18561
#
# Compressibility (1/GPa) = 0.02108275
#
# Stress axis : x y z
#
# Youngs Moduli (GPa) = 61.82214 109.26963 71.31805
#
# Poissons Ratio (x) = 0.43787 0.46857
# Poissons Ratio (y) = 0.24774 -0.10301
# Poissons Ratio (z) = 0.40618 -0.15783
#
# Static dielectric constant tensor:
#      x y z
#    x 1.701400 0.000000 0.000000 
#    y 0.000000 1.701000 0.000000 
#    z 0.000000 0.000000 1.630670 
# 
# From -- ./inp_files/8996.got.cif
#   From: 2010.05.17/outbox.cif.g08.bks.cpg/sg21_5_cif.got.tgz:8996.got - 2010.06.03 23:14:55.
