data_PCOD9323591
_publ_section_title
;
Structure prediction by ZEFSAII (Michael W. Deem and Ramdas Pophale) SiO2 
 PCOD9323591
Probable space group: C 2 2 2
;
_chemical_formula_sum "Si O2"
_cell_formula_units_Z 48
_cell_length_a 17.033503
_cell_length_b 15.651118
_cell_length_c 8.298177
_cell_angle_alpha 90.000000
_cell_angle_beta 90.000000
_cell_angle_gamma 90.000000
_cell_volume 2212.238933
_symmetry_space_group_name_H-M "C 2 2 2"
_symmetry_group_IT_number 21
_symmetry_cell_setting 'orthorhombic'
loop_
_space_group_symop_operation_xyz
x,y,z
-x,-y,z
x,-y,-z
-x,y,-z
1/2+x,1/2+y,z
1/2-x,1/2-y,z
1/2+x,1/2-y,-z
1/2-x,1/2+y,-z
loop_
_atom_site_type_symbol
_atom_site_label
_atom_site_fract_x
_atom_site_fract_y
_atom_site_fract_z
Si Si1 0.000000 0.365671 0.500000
Si Si2 0.805161 0.667123 0.034663
Si Si3 0.664719 0.879382 0.387007
Si Si4 0.632627 0.386034 0.259660
Si Si5 0.799097 0.000000 0.500000
Si Si6 0.549823 0.223609 0.164292
Si Si7 0.750000 0.750000 0.622271
Si Si8 0.198482 0.000000 0.000000
O O1 0.081457 0.411159 0.453722
O O2 0.019345 0.314493 0.666592
O O3 0.750000 0.750000 0.047501
O O4 0.846590 0.656839 0.208294
O O5 0.753480 0.581945 0.023043
O O6 0.868726 0.678113 0.892517
O O7 0.691868 0.802561 0.505473
O O8 0.735406 0.949012 0.389234
O O9 0.642337 0.428202 0.433344
O O10 0.564649 0.323794 0.202666
O O11 0.706402 0.320448 0.270461
O O12 0.644575 0.466861 0.144732
O O13 0.500000 0.216003 0.000000
#
# Coordination Sequence:
#
# PCOD9323591 Si02
#       8
#     4   8   8   8   4   8   4   4
#     4  12  26  43  70 101 150 192 234 282 370 447
#     4  12  24  43  73 106 141 186 248 306 356 425
#     4  11  22  40  68 104 140 187 242 289 361 434
#     4  11  22  42  68  99 142 176 239 301 355 422
#     4  10  24  41  68 107 136 186 244 308 356 415
#     4  12  26  46  73 103 143 197 240 291 369 443
#     4  10  20  38  72 100 130 188 242 290 348 414
#     4  12  24  40  70 108 136 178 232 310 358 410
#
# _framework density 21.697475000000001
#
# number of rings (size 3 to 8) (size 9 to 14) (size 15 to 20)
#    0.000    0.667    7.500    1.000    2.333    0.333 
#    3.000    0.833    0.000    0.000    0.000    0.000 
#    0.000    0.000    0.000    0.000    0.000    0.000 
#
# Total GULP energy -133750.747457 kJ/mol
# GULP energy per Si atom -5572.947811 kJ/mol
# Density = 2.164809 g / cm^3
# Si number density = 21.697475 Si / 1000 Ang^3
#
#
#
# Elastic Constant Matrix: (Units=GPa)
#
#
# Indices 1 2 3 4 5 6 
#
# 1 39.7778 10.8823 29.7012 0.0000 0.0000 0.0000
# 2 10.8823 117.1585 33.8742 0.0000 0.0000 0.0000
# 3 29.7012 33.8742 131.3818 0.0000 0.0000 0.0000
# 4 0.0000 0.0000 0.0000 20.9742 0.0000 0.0000
# 5 0.0000 0.0000 0.0000 0.0000 38.3413 0.0000
# 6 0.0000 0.0000 0.0000 0.0000 0.0000 16.2732
#
#
#
# Elastic Compliance Matrix: (Units=1/GPa)
#
#
# Indices 1 2 3 4 5 6 
#
# 1 0.030333 -0.000902 -0.006625 0.000000 0.000000 0.000000
# 2 -0.000902 0.009250 -0.002181 0.000000 0.000000 0.000000
# 3 -0.006625 -0.002181 0.009671 0.000000 0.000000 0.000000
# 4 0.000000 0.000000 0.000000 0.047678 0.000000 0.000000
# 5 0.000000 0.000000 0.000000 0.000000 0.026082 0.000000
# 6 0.000000 0.000000 0.000000 0.000000 0.000000 0.061451
#
#
# Mechanical properties :
#
#
# Convention : Reuss Voigt Hill
#
# Bulk Modulus (GPa) = 33.51359 48.58147 41.04753
# Shear Modulus (GPa) = 23.38355 29.37511 26.37933
#
# Velocity S-wave (km/s) = 3.28641 3.68346 3.49058
# Velocity P-wave (km/s) = 5.46626 6.36628 5.93336
#
# Compressibility (1/GPa) = 0.02983864
#
# Stress axis : x y z
#
# Youngs Moduli (GPa) = 32.96747 108.11027 103.39811
#
# Poissons Ratio (x) = 0.09752 0.68498
# Poissons Ratio (y) = 0.02974 0.22551
# Poissons Ratio (z) = 0.21840 0.23578
#
# Static dielectric constant tensor:
#      x y z
#    x 1.834990 0.000000 0.000000 
#    y 0.000000 1.741360 0.000000 
#    z 0.000000 0.000000 1.884550 
# 
# From -- ./inp_files/16485.got.cif
#   From: 2010.05.17/outbox.cif.g08.bks.cpg/sg21_9_cif.got.tgz:16485.got - 2010.06.03 23:14:55.
