data_PCOD9323310
_publ_section_title
;
Structure prediction by ZEFSAII (Michael W. Deem and Ramdas Pophale) SiO2 
 PCOD9323310
Probable space group: C 2 2 2
;
_chemical_formula_sum "Si O2"
_cell_formula_units_Z 44
_cell_length_a 22.748137
_cell_length_b 11.608001
_cell_length_c 8.291934
_cell_angle_alpha 90.000000
_cell_angle_beta 90.000000
_cell_angle_gamma 90.000000
_cell_volume 2189.571384
_symmetry_space_group_name_H-M "C 2 2 2"
_symmetry_group_IT_number 21
_symmetry_cell_setting 'orthorhombic'
loop_
_space_group_symop_operation_xyz
x,y,z
-x,-y,z
x,-y,-z
-x,y,-z
1/2+x,1/2+y,z
1/2-x,1/2-y,z
1/2+x,1/2-y,-z
1/2-x,1/2+y,-z
loop_
_atom_site_type_symbol
_atom_site_label
_atom_site_fract_x
_atom_site_fract_y
_atom_site_fract_z
Si Si1 0.332908 0.394710 0.612778
Si Si2 0.894605 0.267005 0.646576
Si Si3 0.884093 0.500000 0.500000
Si Si4 0.788966 0.586119 0.758944
Si Si5 0.798869 0.655757 0.100743
Si Si6 0.433249 0.470645 0.191538
O O1 0.312998 0.500000 0.500000
O O2 0.359912 0.296184 0.499328
O O3 0.272835 0.361438 0.701521
O O4 0.384527 0.449127 0.721922
O O5 0.919061 0.389339 0.574328
O O6 0.851436 0.313079 0.783527
O O7 0.926331 0.160525 0.739845
O O8 0.838725 0.558273 0.628039
O O9 0.771736 0.462094 0.833220
O O10 0.816648 0.648410 0.914043
O O11 0.750000 0.750000 0.116667
O O12 0.500000 0.500000 0.236649
O O13 0.427039 0.500000 0.000000
#
# Coordination Sequence:
#
# PCOD9323310 Si02
#       6
#     8   8   4   8   8   8
#     4  10  20  35  58  86 119 163 209 270 317 377
#     4  10  23  37  58  88 125 166 210 261 320 389
#     4  10  22  38  54  87 133 170 210 248 318 400
#     4  10  21  34  51  83 125 166 211 246 306 384
#     4  10  21  33  50  78 121 171 205 247 303 383
#     4  10  23  42  66  93 120 154 214 287 338 379
#
# _framework density 20.095257
#
# number of rings (size 3 to 8) (size 9 to 14) (size 15 to 20)
#    0.000    2.000    0.909    2.182   10.182    3.273 
#    0.000    0.000    0.000    2.182    0.000    2.545 
#    0.000    0.000    0.000    0.000    0.000    0.000 
#
# Total GULP energy -122530.433716 kJ/mol
# GULP energy per Si atom -5569.565169 kJ/mol
# Density = 2.004952 g / cm^3
# Si number density = 20.095257 Si / 1000 Ang^3
#
#
#
# Elastic Constant Matrix: (Units=GPa)
#
#
# Indices 1 2 3 4 5 6 
#
# 1 63.4168 40.0346 38.1224 0.0000 0.0000 0.0000
# 2 40.0346 152.8650 45.5669 0.0000 0.0000 0.0000
# 3 38.1224 45.5669 89.2009 0.0000 0.0000 0.0000
# 4 0.0000 0.0000 0.0000 36.4454 0.0000 0.0000
# 5 0.0000 0.0000 0.0000 0.0000 32.6129 0.0000
# 6 0.0000 0.0000 0.0000 0.0000 0.0000 13.4981
#
#
#
# Elastic Compliance Matrix: (Units=1/GPa)
#
#
# Indices 1 2 3 4 5 6 
#
# 1 0.022799 -0.003617 -0.007896 0.000000 0.000000 0.000000
# 2 -0.003617 0.008291 -0.002689 0.000000 0.000000 0.000000
# 3 -0.007896 -0.002689 0.015959 0.000000 0.000000 0.000000
# 4 0.000000 0.000000 0.000000 0.027438 0.000000 0.000000
# 5 0.000000 0.000000 0.000000 0.000000 0.030663 0.000000
# 6 0.000000 0.000000 0.000000 0.000000 0.000000 0.074085
#
#
# Mechanical properties :
#
#
# Convention : Reuss Voigt Hill
#
# Bulk Modulus (GPa) = 53.63749 61.43672 57.53711
# Shear Modulus (GPa) = 23.38054 28.62853 26.00454
#
# Velocity S-wave (km/s) = 3.41469 3.77854 3.60121
# Velocity P-wave (km/s) = 6.50357 7.04809 6.78130
#
# Compressibility (1/GPa) = 0.01864368
#
# Stress axis : x y z
#
# Youngs Moduli (GPa) = 43.86212 120.61730 62.66098
#
# Poissons Ratio (x) = 0.43630 0.49476
# Poissons Ratio (y) = 0.15866 0.16851
# Poissons Ratio (z) = 0.34633 0.32437
#
# Static dielectric constant tensor:
#      x y z
#    x 1.642360 0.000000 0.000000 
#    y 0.000000 1.725280 0.000000 
#    z 0.000000 0.000000 1.876460 
# 
# From -- ./inp_files/18467.got.cif
#   From: 2010.05.17/outbox.cif.g08.bks.cpg/sg21_10_cif.got.tgz:18467.got - 2010.06.03 23:14:55.
