data_PCOD9323179
_publ_section_title
;
Structure prediction by ZEFSAII (Michael W. Deem and Ramdas Pophale) SiO2 
 PCOD9323179
Probable space group: C 2 2 2
;
_chemical_formula_sum "Si O2"
_cell_formula_units_Z 60
_cell_length_a 11.484888
_cell_length_b 17.625022
_cell_length_c 12.829522
_cell_angle_alpha 90.000000
_cell_angle_beta 90.000000
_cell_angle_gamma 90.000000
_cell_volume 2596.969852
_symmetry_space_group_name_H-M "C 2 2 2"
_symmetry_group_IT_number 21
_symmetry_cell_setting 'orthorhombic'
loop_
_space_group_symop_operation_xyz
x,y,z
-x,-y,z
x,-y,-z
-x,y,-z
1/2+x,1/2+y,z
1/2-x,1/2-y,z
1/2+x,1/2-y,-z
1/2-x,1/2+y,-z
loop_
_atom_site_type_symbol
_atom_site_label
_atom_site_fract_x
_atom_site_fract_y
_atom_site_fract_z
Si Si1 0.669137 0.500000 0.000000
Si Si2 0.452915 0.152954 0.741806
Si Si3 0.950822 0.825235 0.664821
Si Si4 0.810847 0.830908 0.453942
Si Si5 0.307805 0.361191 0.124861
Si Si6 0.277546 0.577289 0.218321
Si Si7 0.088112 0.713489 0.917910
Si Si8 0.827879 0.568654 0.321743
O O1 0.621852 0.427371 0.933873
O O2 0.726368 0.541569 0.898341
O O3 0.460760 0.236208 0.692118
O O4 0.318779 0.140581 0.764505
O O5 0.512006 0.154443 0.855056
O O6 0.534777 0.090123 0.685254
O O7 0.857802 0.830782 0.570824
O O8 0.901012 0.884427 0.750991
O O9 0.076179 0.846613 0.617844
O O10 0.750000 0.750000 0.430391
O O11 0.718849 0.896149 0.428400
O O12 0.205446 0.328969 0.048586
O O13 0.377679 0.285830 0.151049
O O14 0.236671 0.385600 0.226910
O O15 0.226008 0.513299 0.297214
O O16 0.000000 0.747038 0.000000
#
# Coordination Sequence:
#
# PCOD9323179 Si02
#       8
#     4   8   8   8   8   8   8   8
#     4  10  22  42  62  86 148 188 212 282 364 430
#     4  11  21  41  67  98 136 181 235 301 344 420
#     4  11  25  41  72 107 137 182 241 304 351 432
#     4  11  22  44  72  99 138 187 238 290 369 433
#     4   9  20  37  56  87 119 166 230 261 327 418
#     4  11  24  42  65 104 143 182 234 291 366 431
#     4  10  20  33  59  89 117 165 220 277 330 396
#     4  10  22  41  67  92 134 184 229 284 355 431
#
# _framework density 23.103847999999999
#
# number of rings (size 3 to 8) (size 9 to 14) (size 15 to 20)
#    0.000    1.600    1.333    3.200    3.733    1.067 
#    0.000    9.333    0.000    1.600    0.000    0.000 
#    0.000    0.000    0.000    0.000    0.000    0.000 
#
# Total GULP energy -167061.608670 kJ/mol
# GULP energy per Si atom -5568.720289 kJ/mol
# Density = 2.305126 g / cm^3
# Si number density = 23.103848 Si / 1000 Ang^3
#
#
#
# Elastic Constant Matrix: (Units=GPa)
#
#
# Indices 1 2 3 4 5 6 
#
# 1 71.7489 4.7252 27.9437 0.0000 0.0000 0.0000
# 2 4.7252 66.0153 13.0636 0.0000 0.0000 0.0000
# 3 27.9437 13.0636 57.0620 0.0000 0.0000 0.0000
# 4 0.0000 0.0000 0.0000 27.9632 0.0000 0.0000
# 5 0.0000 0.0000 0.0000 0.0000 28.8035 0.0000
# 6 0.0000 0.0000 0.0000 0.0000 0.0000 23.3140
#
#
#
# Elastic Compliance Matrix: (Units=1/GPa)
#
#
# Indices 1 2 3 4 5 6 
#
# 1 0.017235 0.000457 -0.008545 0.000000 0.000000 0.000000
# 2 0.000457 0.015879 -0.003859 0.000000 0.000000 0.000000
# 3 -0.008545 -0.003859 0.022593 0.000000 0.000000 0.000000
# 4 0.000000 0.000000 0.000000 0.035761 0.000000 0.000000
# 5 0.000000 0.000000 0.000000 0.000000 0.034718 0.000000
# 6 0.000000 0.000000 0.000000 0.000000 0.000000 0.042893
#
#
# Mechanical properties :
#
#
# Convention : Reuss Voigt Hill
#
# Bulk Modulus (GPa) = 31.43335 31.81014 31.62174
# Shear Modulus (GPa) = 24.56066 25.95570 25.25818
#
# Velocity S-wave (km/s) = 3.26399 3.35541 3.31001
# Velocity P-wave (km/s) = 5.27633 5.36748 5.32210
#
# Compressibility (1/GPa) = 0.03181335
#
# Stress axis : x y z
#
# Youngs Moduli (GPa) = 58.02022 62.97640 44.26172
#
# Poissons Ratio (x) = -0.02880 0.37822
# Poissons Ratio (y) = -0.02653 0.17082
# Poissons Ratio (z) = 0.49578 0.24304
#
# Static dielectric constant tensor:
#      x y z
#    x 1.925330 0.000000 0.000000 
#    y 0.000000 1.949990 0.000000 
#    z 0.000000 0.000000 1.926870 
# 
# From -- ./inp_files/31738.got.cif
#   From: 2010.05.17/outbox.cif.g08.bks.cpg/sg21_16_cif.got.tgz:31738.got - 2010.06.03 23:14:55.
