data_PCOD9323606
_publ_section_title
;
Structure prediction by ZEFSAII (Michael W. Deem and Ramdas Pophale) SiO2 
 PCOD9323606
Probable space group: C 2 2 2
;
_chemical_formula_sum "Si O2"
_cell_formula_units_Z 56
_cell_length_a 14.893598
_cell_length_b 22.469794
_cell_length_c 8.907201
_cell_angle_alpha 90.000000
_cell_angle_beta 90.000000
_cell_angle_gamma 90.000000
_cell_volume 2980.848961
_symmetry_space_group_name_H-M "C 2 2 2"
_symmetry_group_IT_number 21
_symmetry_cell_setting 'orthorhombic'
loop_
_space_group_symop_operation_xyz
x,y,z
-x,-y,z
x,-y,-z
-x,y,-z
1/2+x,1/2+y,z
1/2-x,1/2-y,z
1/2+x,1/2-y,-z
1/2-x,1/2+y,-z
loop_
_atom_site_type_symbol
_atom_site_label
_atom_site_fract_x
_atom_site_fract_y
_atom_site_fract_z
Si Si1 0.508401 0.733031 0.824624
Si Si2 0.241971 0.079113 0.249930
Si Si3 0.568670 0.360477 0.614866
Si Si4 0.411320 0.839946 0.683449
Si Si5 0.357086 0.246625 0.574162
Si Si6 0.939129 0.558011 0.732983
Si Si7 0.177698 0.500000 0.500000
Si Si8 0.678540 0.000000 0.000000
O O1 0.486962 0.671038 0.745639
O O2 0.434749 0.782100 0.780083
O O3 0.599181 0.754130 0.739835
O O4 0.500000 0.726976 0.000000
O O5 0.147128 0.104585 0.301650
O O6 0.319383 0.128916 0.266455
O O7 0.265357 0.029579 0.372099
O O8 0.260017 0.045571 0.093835
O O9 0.500000 0.392681 0.500000
O O10 0.609180 0.305542 0.515370
O O11 0.394407 0.810389 0.519025
O O12 0.492895 0.886464 0.717552
O O13 0.250000 0.250000 0.577922
O O14 0.878529 0.551694 0.583879
O O15 0.882168 0.541469 0.885241
O O16 0.000000 0.500000 0.720774
#
# Coordination Sequence:
#
# PCOD9323606 Si02
#       8
#     8   8   8   8   8   8   4   4
#     4  10  24  39  57  90 127 155 207 250 318 379
#     4  11  22  38  62  88 125 160 208 258 311 364
#     4   9  20  43  69  83 113 162 205 270 318 355
#     4  11  22  32  60  84 124 172 206 244 299 372
#     4  10  20  39  60  90 119 157 217 258 295 363
#     4  11  21  32  53  81 127 175 201 234 301 367
#     4  10  23  34  55  90 120 156 219 256 278 369
#     4  10  23  38  52  92 141 168 200 247 310 381
#
# _framework density 18.786594999999998
#
# number of rings (size 3 to 8) (size 9 to 14) (size 15 to 20)
#    0.000    1.714    4.286    1.714    6.000    0.000 
#    2.571    6.071    0.000    0.000    0.000    0.000 
#    0.000    0.000    0.000    0.000    0.000    0.000 
#
# Total GULP energy -155972.993512 kJ/mol
# GULP energy per Si atom -5570.464054 kJ/mol
# Density = 1.874384 g / cm^3
# Si number density = 18.786595 Si / 1000 Ang^3
#
#
#
# Elastic Constant Matrix: (Units=GPa)
#
#
# Indices 1 2 3 4 5 6 
#
# 1 110.7024 41.7694 60.1985 0.0000 0.0000 0.0000
# 2 41.7694 54.7286 34.8293 0.0000 0.0000 0.0000
# 3 60.1985 34.8293 149.1579 0.0000 0.0000 0.0000
# 4 0.0000 0.0000 0.0000 15.4605 0.0000 0.0000
# 5 0.0000 0.0000 0.0000 0.0000 -2.9829 0.0000
# 6 0.0000 0.0000 0.0000 0.0000 0.0000 24.2238
#
#
#
# Elastic Compliance Matrix: (Units=1/GPa)
#
#
# Indices 1 2 3 4 5 6 
#
# 1 0.014301 -0.008506 -0.003786 0.000000 0.000000 0.000000
# 2 -0.008506 0.026520 -0.002760 0.000000 0.000000 0.000000
# 3 -0.003786 -0.002760 0.008877 0.000000 0.000000 0.000000
# 4 0.000000 0.000000 0.000000 0.064681 0.000000 0.000000
# 5 0.000000 0.000000 0.000000 0.000000 -0.335240 0.000000
# 6 0.000000 0.000000 0.000000 0.000000 0.000000 0.041282
#
#
# Mechanical properties :
#
#
# Convention : Reuss Voigt Hill
#
# Bulk Modulus (GPa) = 51.03212 65.35369 58.19290
# Shear Modulus (GPa) = -34.97831 19.19304 -7.89263
#
# Velocity S-wave (km/s) = -4.31963 3.19977 -2.05191
# Velocity P-wave (km/s) = 1.53107 6.96522 5.04274
#
# Compressibility (1/GPa) = 0.01959550
#
# Stress axis : x y z
#
# Youngs Moduli (GPa) = 69.92486 37.70766 112.65584
#
# Poissons Ratio (x) = 0.32072 0.42648
# Poissons Ratio (y) = 0.59475 0.31091
# Poissons Ratio (z) = 0.26471 0.10407
#
# Static dielectric constant tensor:
#      x y z
#    x 1.716290 0.000000 0.000000 
#    y 0.000000 1.676580 0.000000 
#    z 0.000000 0.000000 1.712020 
# 
# From -- ./inp_files/15324.got.cif
#   From: 2010.05.17/outbox.cif.g08.bks.cpg/sg21_8_cif.got.tgz:15324.got - 2010.06.03 23:14:55.
