data_PCOD9323205
_publ_section_title
;
Structure prediction by ZEFSAII (Michael W. Deem and Ramdas Pophale) SiO2 
 PCOD9323205
Probable space group: C 2 2 2
;
_chemical_formula_sum "Si O2"
_cell_formula_units_Z 58
_cell_length_a 9.090064
_cell_length_b 18.171552
_cell_length_c 18.049070
_cell_angle_alpha 90.000000
_cell_angle_beta 90.000000
_cell_angle_gamma 90.000000
_cell_volume 2981.355682
_symmetry_space_group_name_H-M "C 2 2 2"
_symmetry_group_IT_number 21
_symmetry_cell_setting 'orthorhombic'
loop_
_space_group_symop_operation_xyz
x,y,z
-x,-y,z
x,-y,-z
-x,y,-z
1/2+x,1/2+y,z
1/2-x,1/2-y,z
1/2+x,1/2-y,-z
1/2-x,1/2+y,-z
loop_
_atom_site_type_symbol
_atom_site_label
_atom_site_fract_x
_atom_site_fract_y
_atom_site_fract_z
Si Si1 0.656940 0.138319 0.431209
Si Si2 0.326304 0.825886 0.994283
Si Si3 0.805494 0.925559 0.295449
Si Si4 0.809782 0.074275 0.873974
Si Si5 0.145740 0.899701 0.297789
Si Si6 0.664733 0.179614 0.593188
Si Si7 0.153895 0.899005 0.127751
Si Si8 0.500000 0.000000 0.500000
O O1 0.766295 0.139452 0.362827
O O2 0.721410 0.164499 0.509682
O O3 0.510877 0.185354 0.413369
O O4 0.597334 0.055661 0.450365
O O5 0.250000 0.750000 0.970941
O O6 0.248112 0.852233 0.070244
O O7 0.500000 0.815516 0.000000
O O8 0.292253 0.887846 0.933598
O O9 0.766246 0.907874 0.210474
O O10 0.699188 0.888947 0.354266
O O11 0.970594 0.895699 0.308656
O O12 0.814111 0.013522 0.301902
O O13 0.977616 0.102650 0.885951
O O14 0.809039 0.985819 0.880666
O O15 0.179855 0.876607 0.213323
O O16 0.750000 0.250000 0.623182
#
# Coordination Sequence:
#
# PCOD9323205 Si02
#       8
#     8   8   8   8   8   8   8   2
#     4  10  20  34  55  77 105 144 183 227 274 323
#     4  12  25  39  57  83 114 148 188 228 272 327
#     4   9  19  35  58  85 111 138 175 224 273 324
#     4   9  19  38  62  85 113 148 181 222 277 330
#     4   9  18  35  59  86 108 136 180 225 272 321
#     4  10  22  37  50  72 109 149 186 223 272 327
#     4   9  19  38  61  85 115 147 181 224 275 328
#     4   8  16  32  52  78 104 132 178 228 280 320
#
# _framework density 19.454236999999999
#
# number of rings (size 3 to 8) (size 9 to 14) (size 15 to 20)
#    0.000    2.483    0.000    4.966    0.000    6.621 
#    0.000    7.586    0.000    0.000    0.000    0.000 
#    0.000    0.000    0.000    0.000    0.000    0.000 
#
# Total GULP energy -161891.205185 kJ/mol
# GULP energy per Si atom -5582.455351 kJ/mol
# Density = 1.940996 g / cm^3
# Si number density = 19.454237 Si / 1000 Ang^3
#
#
#
# Elastic Constant Matrix: (Units=GPa)
#
#
# Indices 1 2 3 4 5 6 
#
# 1 34.7981 -2.2902 22.8395 0.0000 0.0000 0.0000
# 2 -2.2902 19.2235 -10.0998 0.0000 0.0000 0.0000
# 3 22.8395 -10.0998 60.1749 0.0000 0.0000 0.0000
# 4 0.0000 0.0000 0.0000 -13.8065 0.0000 0.0000
# 5 0.0000 0.0000 0.0000 0.0000 13.3015 0.0000
# 6 0.0000 0.0000 0.0000 0.0000 0.0000 27.2436
#
#
#
# Elastic Compliance Matrix: (Units=1/GPa)
#
#
# Indices 1 2 3 4 5 6 
#
# 1 0.038471 -0.003387 -0.015170 0.000000 0.000000 0.000000
# 2 -0.003387 0.057349 0.010911 0.000000 0.000000 0.000000
# 3 -0.015170 0.010911 0.024207 0.000000 0.000000 0.000000
# 4 0.000000 0.000000 0.000000 -0.072430 0.000000 0.000000
# 5 0.000000 0.000000 0.000000 0.000000 0.075180 0.000000
# 6 0.000000 0.000000 0.000000 0.000000 0.000000 0.036706
#
#
# Mechanical properties :
#
#
# Convention : Reuss Voigt Hill
#
# Bulk Modulus (GPa) = 9.54792 15.01060 12.27926
# Shear Modulus (GPa) = 23.84504 12.26420 18.05462
#
# Velocity S-wave (km/s) = 3.50480 2.51353 3.04971
# Velocity P-wave (km/s) = 4.61483 4.01950 4.32741
#
# Compressibility (1/GPa) = 0.10473490
#
# Stress axis : x y z
#
# Youngs Moduli (GPa) = 25.99354 17.43716 41.30964
#
# Poissons Ratio (x) = 0.05906 0.62668
# Poissons Ratio (y) = 0.08804 -0.45073
# Poissons Ratio (z) = 0.39433 -0.19026
#
# Static dielectric constant tensor:
#      x y z
#    x 1.666490 0.000000 0.000000 
#    y 0.000000 1.682360 0.000000 
#    z 0.000000 0.000000 1.670610 
# 
# From -- ./inp_files/35841.got.cif
#   From: 2010.05.17/outbox.cif.g08.bks.cpg/sg21_18_cif.got.tgz:35841.got - 2010.06.03 23:14:55.
