data_PCOD9323055
_publ_section_title
;
Structure prediction by ZEFSAII (Michael W. Deem and Ramdas Pophale) SiO2 
 PCOD9323055
Probable space group: C 2 2 2
;
_chemical_formula_sum "Si O2"
_cell_formula_units_Z 48
_cell_length_a 24.470804
_cell_length_b 14.920776
_cell_length_c 6.071963
_cell_angle_alpha 90.000000
_cell_angle_beta 90.000000
_cell_angle_gamma 90.000000
_cell_volume 2217.015684
_symmetry_space_group_name_H-M "C 2 2 2"
_symmetry_group_IT_number 21
_symmetry_cell_setting 'orthorhombic'
loop_
_space_group_symop_operation_xyz
x,y,z
-x,-y,z
x,-y,-z
-x,y,-z
1/2+x,1/2+y,z
1/2-x,1/2-y,z
1/2+x,1/2-y,-z
1/2-x,1/2+y,-z
loop_
_atom_site_type_symbol
_atom_site_label
_atom_site_fract_x
_atom_site_fract_y
_atom_site_fract_z
Si Si1 0.412082 0.500000 0.500000
Si Si2 0.907715 0.175523 0.289074
Si Si3 0.048974 0.355390 0.835279
Si Si4 0.340125 0.413674 0.109227
Si Si5 0.076072 0.500000 0.500000
Si Si6 0.691458 0.744021 0.395807
Si Si7 0.849462 0.413026 0.874411
O O1 0.437270 0.589550 0.397799
O O2 0.376156 0.459015 0.301419
O O3 0.950437 0.252940 0.238425
O O4 0.860073 0.219416 0.446061
O O5 0.877337 0.137629 0.071053
O O6 0.045662 0.423758 0.635661
O O7 0.107512 0.370476 0.953194
O O8 0.000000 0.374622 0.000000
O O9 0.304471 0.339139 0.227375
O O10 0.311596 0.500000 0.000000
O O11 0.113963 0.546742 0.679985
O O12 0.750000 0.750000 0.517220
O O13 0.681898 0.832767 0.248627
O O14 0.823464 0.500000 0.000000
#
# Coordination Sequence:
#
# PCOD9323055 Si02
#       7
#     4   8   8   8   4   8   8
#     4   8  18  34  65  89 117 165 198 261 329 378
#     4  10  19  39  61  92 127 165 214 269 325 389
#     4  11  23  39  68  97 124 172 221 265 336 403
#     4   9  18  36  62  87 122 160 207 268 313 379
#     4  10  22  43  61  86 141 165 206 281 329 400
#     4  11  22  37  60  93 128 173 221 262 329 394
#     4  10  22  40  62  91 132 173 211 274 330 381
#
# _framework density 21.650725999999999
#
# number of rings (size 3 to 8) (size 9 to 14) (size 15 to 20)
#    0.000    2.000    3.333    0.000    0.000    5.667 
#    0.000    5.000    0.000    5.500    0.000    0.000 
#    0.000    0.000    0.000    0.000    0.000    0.000 
#
# Total GULP energy -133839.542452 kJ/mol
# GULP energy per Si atom -5576.647602 kJ/mol
# Density = 2.160145 g / cm^3
# Si number density = 21.650726 Si / 1000 Ang^3
#
#
#
# Elastic Constant Matrix: (Units=GPa)
#
#
# Indices 1 2 3 4 5 6 
#
# 1 41.4515 18.7815 22.1604 0.0000 0.0000 0.0000
# 2 18.7815 170.8073 56.1683 0.0000 0.0000 0.0000
# 3 22.1604 56.1683 108.8214 0.0000 0.0000 0.0000
# 4 0.0000 0.0000 0.0000 49.0603 0.0000 0.0000
# 5 0.0000 0.0000 0.0000 0.0000 12.0436 0.0000
# 6 0.0000 0.0000 0.0000 0.0000 0.0000 6.3386
#
#
#
# Elastic Compliance Matrix: (Units=1/GPa)
#
#
# Indices 1 2 3 4 5 6 
#
# 1 0.027353 -0.001416 -0.004839 0.000000 0.000000 0.000000
# 2 -0.001416 0.007125 -0.003389 0.000000 0.000000 0.000000
# 3 -0.004839 -0.003389 0.011924 0.000000 0.000000 0.000000
# 4 0.000000 0.000000 0.000000 0.020383 0.000000 0.000000
# 5 0.000000 0.000000 0.000000 0.000000 0.083032 0.000000
# 6 0.000000 0.000000 0.000000 0.000000 0.000000 0.157764
#
#
# Mechanical properties :
#
#
# Convention : Reuss Voigt Hill
#
# Bulk Modulus (GPa) = 36.88259 57.25562 47.06911
# Shear Modulus (GPa) = 14.88505 28.41982 21.65244
#
# Velocity S-wave (km/s) = 2.62488 3.62698 3.16583
# Velocity P-wave (km/s) = 5.12435 6.63645 5.92881
#
# Compressibility (1/GPa) = 0.02711306
#
# Stress axis : x y z
#
# Youngs Moduli (GPa) = 36.55848 140.35612 83.86406
#
# Poissons Ratio (x) = 0.19880 0.40583
# Poissons Ratio (y) = 0.05178 0.28422
# Poissons Ratio (z) = 0.17691 0.47567
#
# Static dielectric constant tensor:
#      x y z
#    x 1.767440 0.000000 0.000000 
#    y 0.000000 1.805520 0.000000 
#    z 0.000000 0.000000 1.879030 
# 
# From -- ./inp_files/4138.got.cif
#   From: 2010.05.17/outbox.cif.g08.bks.cpg/sg21_3_cif.got.tgz:4138.got - 2010.06.03 23:14:55.
