data_PCOD9323237
_publ_section_title
;
Structure prediction by ZEFSAII (Michael W. Deem and Ramdas Pophale) SiO2 
 PCOD9323237
Probable space group: C 2 2 2
;
_chemical_formula_sum "Si O2"
_cell_formula_units_Z 48
_cell_length_a 16.146488
_cell_length_b 9.268609
_cell_length_c 14.344636
_cell_angle_alpha 90.000000
_cell_angle_beta 90.000000
_cell_angle_gamma 90.000000
_cell_volume 2146.753443
_symmetry_space_group_name_H-M "C 2 2 2"
_symmetry_group_IT_number 21
_symmetry_cell_setting 'orthorhombic'
loop_
_space_group_symop_operation_xyz
x,y,z
-x,-y,z
x,-y,-z
-x,y,-z
1/2+x,1/2+y,z
1/2-x,1/2-y,z
1/2+x,1/2-y,-z
1/2-x,1/2+y,-z
loop_
_atom_site_type_symbol
_atom_site_label
_atom_site_fract_x
_atom_site_fract_y
_atom_site_fract_z
Si Si1 0.408712 0.925389 0.090846
Si Si2 0.409308 0.577115 0.089423
Si Si3 0.096921 0.466462 0.288676
Si Si4 0.405987 0.553829 0.295488
Si Si5 0.654108 0.712955 0.386510
Si Si6 0.845213 0.699511 0.589562
O O1 0.415249 0.751653 0.079759
O O2 0.370926 0.970902 0.190435
O O3 0.500000 0.000000 0.095616
O O4 0.368558 0.000000 0.000000
O O5 0.500000 0.500000 0.094195
O O6 0.371039 0.546975 0.190772
O O7 0.368494 0.500000 0.000000
O O8 0.109893 0.296612 0.301880
O O9 0.144964 0.536842 0.375992
O O10 0.000000 0.500000 0.297415
O O11 0.500000 0.500000 0.295691
O O12 0.358025 0.454741 0.368466
O O13 0.397813 0.714096 0.333758
O O14 0.750000 0.750000 0.383097
O O15 0.621739 0.762196 0.487336
O O16 0.750000 0.750000 0.594094
#
# Coordination Sequence:
#
# PCOD9323237 Si02
#       6
#     8   8   8   8   8   8
#     4  10  20  34  59  91 125 160 196 248 306 365
#     4  10  20  34  59  91 125 160 196 248 306 365
#     4  11  23  38  63  95 123 155 205 258 304 350
#     4  11  23  38  63  95 123 155 205 258 304 350
#     4  11  25  41  62  87 122 168 207 245 306 375
#     4  11  23  43  62  85 122 168 207 245 306 375
#
# _framework density 22.359344
#
# number of rings (size 3 to 8) (size 9 to 14) (size 15 to 20)
#    0.000    1.333    1.667    5.000    9.333    6.667 
#    0.000    0.000    0.000    6.000    0.000    0.000 
#    0.000    0.000    0.000    0.000    0.000    0.000 
#
# Total GULP energy -134042.462539 kJ/mol
# GULP energy per Si atom -5585.102606 kJ/mol
# Density = 2.230845 g / cm^3
# Si number density = 22.359344 Si / 1000 Ang^3
#
#
#
# Elastic Constant Matrix: (Units=GPa)
#
#
# Indices 1 2 3 4 5 6 
#
# 1 33.7227 -3.2195 6.4298 0.0000 0.0000 0.0000
# 2 -3.2195 100.7547 37.2173 0.0000 0.0000 0.0000
# 3 6.4298 37.2173 159.2232 0.0000 0.0000 0.0000
# 4 0.0000 0.0000 0.0000 37.8210 0.0000 0.0000
# 5 0.0000 0.0000 0.0000 0.0000 40.5789 0.0000
# 6 0.0000 0.0000 0.0000 0.0000 0.0000 30.9222
#
#
#
# Elastic Compliance Matrix: (Units=1/GPa)
#
#
# Indices 1 2 3 4 5 6 
#
# 1 0.030102 0.001544 -0.001577 0.000000 0.000000 0.000000
# 2 0.001544 0.010942 -0.002620 0.000000 0.000000 0.000000
# 3 -0.001577 -0.002620 0.006957 0.000000 0.000000 0.000000
# 4 0.000000 0.000000 0.000000 0.026440 0.000000 0.000000
# 5 0.000000 0.000000 0.000000 0.000000 0.024643 0.000000
# 6 0.000000 0.000000 0.000000 0.000000 0.000000 0.032339
#
#
# Mechanical properties :
#
#
# Convention : Reuss Voigt Hill
#
# Bulk Modulus (GPa) = 23.42151 41.61730 32.51940
# Shear Modulus (GPa) = 33.12136 38.74929 35.93532
#
# Velocity S-wave (km/s) = 3.85297 4.16748 4.01330
# Velocity P-wave (km/s) = 5.50378 6.46610 6.00425
#
# Compressibility (1/GPa) = 0.04269580
#
# Stress axis : x y z
#
# Youngs Moduli (GPa) = 33.22077 91.38898 143.74900
#
# Poissons Ratio (x) = -0.14112 0.22662
# Poissons Ratio (y) = -0.05130 0.37663
# Poissons Ratio (z) = 0.05237 0.23944
#
# Static dielectric constant tensor:
#      x y z
#    x 1.826300 0.000000 0.000000 
#    y 0.000000 1.761800 0.000000 
#    z 0.000000 0.000000 1.886820 
# 
# From -- ./inp_files/32823.got.cif
#   From: 2010.05.17/outbox.cif.g08.bks.cpg/sg21_17_cif.got.tgz:32823.got - 2010.06.03 23:14:55.
