data_PCOD9323884
_publ_section_title
;
Structure prediction by ZEFSAII (Michael W. Deem and Ramdas Pophale) SiO2 
 PCOD9323884
Probable space group: C 2 2 2
;
_chemical_formula_sum "Si O2"
_cell_formula_units_Z 32
_cell_length_a 19.504437
_cell_length_b 5.683685
_cell_length_c 12.862575
_cell_angle_alpha 90.000000
_cell_angle_beta 90.000000
_cell_angle_gamma 90.000000
_cell_volume 1425.907454
_symmetry_space_group_name_H-M "C 2 2 2"
_symmetry_group_IT_number 21
_symmetry_cell_setting 'orthorhombic'
loop_
_space_group_symop_operation_xyz
x,y,z
-x,-y,z
x,-y,-z
-x,y,-z
1/2+x,1/2+y,z
1/2-x,1/2-y,z
1/2+x,1/2-y,-z
1/2-x,1/2+y,-z
loop_
_atom_site_type_symbol
_atom_site_label
_atom_site_fract_x
_atom_site_fract_y
_atom_site_fract_z
Si Si1 0.568140 0.365021 0.362539
Si Si2 0.675593 0.500000 0.500000
Si Si3 0.500000 0.000000 0.212703
Si Si4 0.750000 0.750000 0.318850
Si Si5 0.208273 0.000000 0.000000
Si Si6 0.873536 0.211433 0.811772
O O1 0.500000 0.500000 0.397107
O O2 0.621119 0.309749 0.454919
O O3 0.545439 0.151940 0.291572
O O4 0.601589 0.547067 0.281693
O O5 0.721249 0.562969 0.401517
O O6 0.441411 0.146955 0.152614
O O7 0.809711 0.652327 0.242923
O O8 0.250000 0.250000 0.984548
O O9 0.160107 0.057347 0.098041
#
# Coordination Sequence:
#
# PCOD9323884 Si02
#       6
#     8   4   4   4   4   8
#     4   9  20  40  62  96 141 187 242 302 372 458
#     4  10  21  36  62  97 144 188 246 296 368 449
#     4  10  22  42  74  96 144 202 244 319 387 452
#     4  10  22  40  62 104 146 194 250 312 372 450
#     4  12  28  50  83 113 148 204 260 324 406 470
#     4  10  23  45  70 105 146 191 253 317 385 459
#
# _framework density 22.441846999999999
#
# number of rings (size 3 to 8) (size 9 to 14) (size 15 to 20)
#    0.000    2.000    1.250    0.375    7.000    0.000 
#    4.500   18.125    0.000    0.000    0.000    0.000 
#    0.000    0.000    0.000    0.000    0.000    0.000 
#
# Total GULP energy -89104.742122 kJ/mol
# GULP energy per Si atom -5569.046383 kJ/mol
# Density = 2.239077 g / cm^3
# Si number density = 22.441847 Si / 1000 Ang^3
#
#
#
# Elastic Constant Matrix: (Units=GPa)
#
#
# Indices 1 2 3 4 5 6 
#
# 1 150.6882 44.8047 65.1738 0.0000 0.0000 0.0000
# 2 44.8047 61.0004 10.9473 0.0000 0.0000 0.0000
# 3 65.1738 10.9473 109.4574 0.0000 0.0000 0.0000
# 4 0.0000 0.0000 0.0000 60.6727 0.0000 0.0000
# 5 0.0000 0.0000 0.0000 0.0000 7.5309 0.0000
# 6 0.0000 0.0000 0.0000 0.0000 0.0000 17.3073
#
#
#
# Elastic Compliance Matrix: (Units=1/GPa)
#
#
# Indices 1 2 3 4 5 6 
#
# 1 0.011440 -0.007311 -0.006080 0.000000 0.000000 0.000000
# 2 -0.007311 0.021366 0.002217 0.000000 0.000000 0.000000
# 3 -0.006080 0.002217 0.012535 0.000000 0.000000 0.000000
# 4 0.000000 0.000000 0.000000 0.016482 0.000000 0.000000
# 5 0.000000 0.000000 0.000000 0.000000 0.132786 0.000000
# 6 0.000000 0.000000 0.000000 0.000000 0.000000 0.057779
#
#
# Mechanical properties :
#
#
# Convention : Reuss Voigt Hill
#
# Bulk Modulus (GPa) = 43.49740 62.55529 53.02634
# Shear Modulus (GPa) = 17.70527 30.45019 24.07773
#
# Velocity S-wave (km/s) = 2.81185 3.68754 3.27906
# Velocity P-wave (km/s) = 5.47416 6.78716 6.16571
#
# Compressibility (1/GPa) = 0.02298988
#
# Stress axis : x y z
#
# Youngs Moduli (GPa) = 87.41262 46.80373 79.77835
#
# Poissons Ratio (x) = 0.34220 0.48509
# Poissons Ratio (y) = 0.63911 -0.17683
# Poissons Ratio (z) = 0.53151 -0.10374
#
# Static dielectric constant tensor:
#      x y z
#    x 1.925750 0.000000 0.000000 
#    y 0.000000 1.903260 0.000000 
#    z 0.000000 0.000000 1.790330 
# 
# From -- ./inp_files/26516.got.cif
#   From: 2010.05.17/outbox.cif.g08.bks.cpg/sg21_14_cif.got.tgz:26516.got - 2010.06.03 23:14:55.
