data_PCOD9323066
_publ_section_title
;
Structure prediction by ZEFSAII (Michael W. Deem and Ramdas Pophale) SiO2 
 PCOD9323066
Probable space group: C 2 2 2
;
_chemical_formula_sum "Si O2"
_cell_formula_units_Z 38
_cell_length_a 13.177529
_cell_length_b 5.077284
_cell_length_c 26.564238
_cell_angle_alpha 90.000000
_cell_angle_beta 90.000000
_cell_angle_gamma 90.000000
_cell_volume 1777.308426
_symmetry_space_group_name_H-M "C 2 2 2"
_symmetry_group_IT_number 21
_symmetry_cell_setting 'orthorhombic'
loop_
_space_group_symop_operation_xyz
x,y,z
-x,-y,z
x,-y,-z
-x,y,-z
1/2+x,1/2+y,z
1/2-x,1/2-y,z
1/2+x,1/2-y,-z
1/2-x,1/2+y,-z
loop_
_atom_site_type_symbol
_atom_site_label
_atom_site_fract_x
_atom_site_fract_y
_atom_site_fract_z
Si Si1 0.573528 0.249868 0.382655
Si Si2 0.185746 0.488574 0.930734
Si Si3 0.926764 0.251044 0.163340
Si Si4 0.250000 0.750000 0.463887
Si Si5 0.000000 0.500000 0.000000
Si Si6 0.426135 0.748975 0.272642
O O1 0.500000 0.500000 0.385648
O O2 0.653430 0.251483 0.427233
O O3 0.626118 0.247712 0.327140
O O4 0.500000 0.000000 0.386178
O O5 0.250000 0.250000 0.958484
O O6 0.144961 0.325933 0.882677
O O7 0.085779 0.598692 0.960181
O O8 0.250000 0.750000 0.918268
O O9 0.873267 0.228878 0.218156
O O10 0.000000 0.500000 0.167520
O O11 0.000000 0.000000 0.154280
O O12 0.249365 0.500000 0.500000
O O13 0.500000 0.500000 0.273206
O O14 0.500000 0.000000 0.272516
#
# Coordination Sequence:
#
# PCOD9323066 Si02
#       6
#     8   8   8   4   2   8
#     4  10  21  40  63  88 124 166 209 260 315 374
#     4  12  27  45  69 101 130 170 226 267 321 400
#     4  10  19  39  67  95 132 172 205 262 330 380
#     4  12  26  40  60  90 124 160 216 266 312 382
#     4  12  28  50  72  88 140 178 212 278 338 364
#     4   8  16  32  61  90 120 165 207 247 312 383
#
# _framework density 21.380645000000001
#
# number of rings (size 3 to 8) (size 9 to 14) (size 15 to 20)
#    0.000    1.684    1.053    3.158    0.000    3.368 
#    1.895    0.000    2.316    0.000    0.000    0.000 
#    0.000    0.000    0.000    0.000    0.000    0.000 
#
# Total GULP energy -105825.897944 kJ/mol
# GULP energy per Si atom -5569.784102 kJ/mol
# Density = 2.133198 g / cm^3
# Si number density = 21.380645 Si / 1000 Ang^3
#
#
#
# Elastic Constant Matrix: (Units=GPa)
#
#
# Indices 1 2 3 4 5 6 
#
# 1 115.4263 48.2645 68.0080 0.0000 0.0000 0.0000
# 2 48.2645 181.8598 36.1155 0.0000 0.0000 0.0000
# 3 68.0080 36.1155 183.4711 0.0000 0.0000 0.0000
# 4 0.0000 0.0000 0.0000 19.2393 0.0000 0.0000
# 5 0.0000 0.0000 0.0000 0.0000 -54.3890 0.0000
# 6 0.0000 0.0000 0.0000 0.0000 0.0000 19.6118
#
#
#
# Elastic Compliance Matrix: (Units=1/GPa)
#
#
# Indices 1 2 3 4 5 6 
#
# 1 0.012011 -0.002397 -0.003980 0.000000 0.000000 0.000000
# 2 -0.002397 0.006201 -0.000332 0.000000 0.000000 0.000000
# 3 -0.003980 -0.000332 0.006991 0.000000 0.000000 0.000000
# 4 0.000000 0.000000 0.000000 0.051977 0.000000 0.000000
# 5 0.000000 0.000000 0.000000 0.000000 -0.018386 0.000000
# 6 0.000000 0.000000 0.000000 0.000000 0.000000 0.050990
#
#
# Mechanical properties :
#
#
# Convention : Reuss Voigt Hill
#
# Bulk Modulus (GPa) = 84.86051 87.28146 86.07098
# Shear Modulus (GPa) = 39.32957 18.78371 29.05664
#
# Velocity S-wave (km/s) = 4.29359 2.96723 3.69048
# Velocity P-wave (km/s) = 8.02224 7.25607 7.64875
#
# Compressibility (1/GPa) = 0.01178404
#
# Stress axis : x y z
#
# Youngs Moduli (GPa) = 83.25649 161.26723 143.03675
#
# Poissons Ratio (x) = 0.38659 0.56933
# Poissons Ratio (y) = 0.19958 0.04749
# Poissons Ratio (z) = 0.33139 0.05355
#
# Static dielectric constant tensor:
#      x y z
#    x 1.782060 0.000000 0.000000 
#    y 0.000000 1.718160 0.000000 
#    z 0.000000 0.000000 1.901470 
# 
# From -- ./inp_files/39250.got.cif
#   From: 2010.05.17/outbox.cif.g08.bks.cpg/sg21_20_cif.got.tgz:39250.got - 2010.06.03 23:14:55.
