data_PCOD9323577
_publ_section_title
;
Structure prediction by ZEFSAII (Michael W. Deem and Ramdas Pophale) SiO2 
 PCOD9323577
Probable space group: C 2 2 2
;
_chemical_formula_sum "Si O2"
_cell_formula_units_Z 32
_cell_length_a 34.466989
_cell_length_b 6.039191
_cell_length_c 7.374889
_cell_angle_alpha 90.000000
_cell_angle_beta 90.000000
_cell_angle_gamma 90.000000
_cell_volume 1535.103277
_symmetry_space_group_name_H-M "C 2 2 2"
_symmetry_group_IT_number 21
_symmetry_cell_setting 'orthorhombic'
loop_
_space_group_symop_operation_xyz
x,y,z
-x,-y,z
x,-y,-z
-x,y,-z
1/2+x,1/2+y,z
1/2-x,1/2-y,z
1/2+x,1/2-y,-z
1/2-x,1/2+y,-z
loop_
_atom_site_type_symbol
_atom_site_label
_atom_site_fract_x
_atom_site_fract_y
_atom_site_fract_z
Si Si1 0.160270 0.000000 0.000000
Si Si2 0.289959 0.347519 0.334403
Si Si3 0.013364 0.754243 0.210837
Si Si4 0.850631 0.500000 0.500000
Si Si5 0.599528 0.160758 0.159198
O O1 0.187252 0.038244 0.172413
O O2 0.131379 0.804831 0.054250
O O3 0.276785 0.500000 0.500000
O O4 0.250000 0.250000 0.258641
O O5 0.321483 0.185721 0.424834
O O6 0.059927 0.769940 0.226085
O O7 0.000000 0.500000 0.276613
O O8 0.000000 0.000000 0.283525
O O9 0.000000 0.755195 0.000000
O O10 0.878019 0.435245 0.332230
O O11 0.585346 0.000000 0.000000
#
# Coordination Sequence:
#
# PCOD9323577 Si02
#       5
#     4   8   8   4   8
#     4  12  26  42  73 106 132 188 244 286 361 438
#     4  12  26  45  70  99 143 184 231 301 360 427
#     4  10  20  38  67 100 139 191 235 289 367 422
#     4  12  26  44  69 104 138 186 236 286 371 424
#     4  12  24  42  72 102 143 184 235 298 355 434
#
# _framework density 20.845504999999999
#
# number of rings (size 3 to 8) (size 9 to 14) (size 15 to 20)
#    0.000    0.500    8.750    1.500    0.000    3.000 
#    0.000    0.625    0.000    3.000    0.000    0.000 
#    0.000    0.000    0.000    0.000    0.000    0.000 
#
# Total GULP energy -89175.625009 kJ/mol
# GULP energy per Si atom -5573.476563 kJ/mol
# Density = 2.079806 g / cm^3
# Si number density = 20.845505 Si / 1000 Ang^3
#
#
#
# Elastic Constant Matrix: (Units=GPa)
#
#
# Indices 1 2 3 4 5 6 
#
# 1 129.6247 15.1764 -10.5152 0.0000 0.0000 0.0000
# 2 15.1764 74.0829 1.1895 0.0000 0.0000 0.0000
# 3 -10.5152 1.1895 54.5997 0.0000 0.0000 0.0000
# 4 0.0000 0.0000 0.0000 23.8330 0.0000 0.0000
# 5 0.0000 0.0000 0.0000 0.0000 -2.0065 0.0000
# 6 0.0000 0.0000 0.0000 0.0000 0.0000 70.3046
#
#
#
# Elastic Compliance Matrix: (Units=1/GPa)
#
#
# Indices 1 2 3 4 5 6 
#
# 1 0.008039 -0.001672 0.001585 0.000000 0.000000 0.000000
# 2 -0.001672 0.013851 -0.000624 0.000000 0.000000 0.000000
# 3 0.001585 -0.000624 0.018634 0.000000 0.000000 0.000000
# 4 0.000000 0.000000 0.000000 0.041959 0.000000 0.000000
# 5 0.000000 0.000000 0.000000 0.000000 -0.498391 0.000000
# 6 0.000000 0.000000 0.000000 0.000000 0.000000 0.014224
#
#
# Mechanical properties :
#
#
# Convention : Reuss Voigt Hill
#
# Bulk Modulus (GPa) = 25.57489 30.00097 27.78793
# Shear Modulus (GPa) = -12.91226 35.25667 11.17220
#
# Velocity S-wave (km/s) = -2.49153 4.11704 2.31758
# Velocity P-wave (km/s) = 2.00461 6.08468 4.53000
#
# Compressibility (1/GPa) = 0.03910086
#
# Stress axis : x y z
#
# Youngs Moduli (GPa) = 124.39493 72.19702 53.66565
#
# Poissons Ratio (x) = 0.12073 -0.08504
# Poissons Ratio (y) = 0.20802 0.03348
# Poissons Ratio (z) = -0.19712 0.04504
#
# Static dielectric constant tensor:
#      x y z
#    x 1.695830 0.000000 0.000000 
#    y 0.000000 1.844980 0.000000 
#    z 0.000000 0.000000 1.682200 
# 
# From -- ./inp_files/19422.got.cif
#   From: 2010.05.17/outbox.cif.g08.bks.cpg/sg21_10_cif.got.tgz:19422.got - 2010.06.03 23:14:55.
