data_PCOD9323782
_publ_section_title
;
Structure prediction by ZEFSAII (Michael W. Deem and Ramdas Pophale) SiO2 
 PCOD9323782
Probable space group: C 2 2 2
;
_chemical_formula_sum "Si O2"
_cell_formula_units_Z 32
_cell_length_a 11.083312
_cell_length_b 11.095971
_cell_length_c 11.058052
_cell_angle_alpha 90.000000
_cell_angle_beta 90.000000
_cell_angle_gamma 90.000000
_cell_volume 1359.920435
_symmetry_space_group_name_H-M "C 2 2 2"
_symmetry_group_IT_number 21
_symmetry_cell_setting 'orthorhombic'
loop_
_space_group_symop_operation_xyz
x,y,z
-x,-y,z
x,-y,-z
-x,y,-z
1/2+x,1/2+y,z
1/2-x,1/2-y,z
1/2+x,1/2-y,-z
1/2-x,1/2+y,-z
loop_
_atom_site_type_symbol
_atom_site_label
_atom_site_fract_x
_atom_site_fract_y
_atom_site_fract_z
Si Si1 0.336435 0.094988 0.891023
Si Si2 0.119824 0.043170 0.209708
Si Si3 0.224452 0.380525 0.426085
Si Si4 0.000000 0.798657 0.000000
Si Si5 0.500000 0.000000 0.320629
O O1 0.413000 0.071269 0.770010
O O2 0.201440 0.064040 0.845462
O O3 0.393581 0.215054 0.945721
O O4 0.356847 0.000000 0.000000
O O5 0.203537 0.117189 0.299862
O O6 0.066130 0.122195 0.101248
O O7 0.000000 0.000000 0.277903
O O8 0.263498 0.500000 0.500000
O O9 0.250000 0.250000 0.484315
O O10 0.085047 0.408978 0.394498
#
# Coordination Sequence:
#
# PCOD9323782 Si02
#       5
#     8   8   8   4   4
#     4  11  21  39  68 105 146 193 235 286 371 458
#     4  11  27  45  67 109 151 192 248 309 381 459
#     4  11  26  52  78 106 146 197 265 328 382 447
#     4  12  22  44  70 106 154 198 236 304 372 462
#     4  10  20  44  74 106 142 192 254 312 378 444
#
# _framework density 23.530788000000001
#
# number of rings (size 3 to 8) (size 9 to 14) (size 15 to 20)
#    0.000    1.000    2.500    3.750    3.500    3.500 
#   18.000    0.000    0.000    0.000    0.000    0.000 
#    0.000    0.000    0.000    0.000    0.000    0.000 
#
# Total GULP energy -89427.752773 kJ/mol
# GULP energy per Si atom -5589.234548 kJ/mol
# Density = 2.347723 g / cm^3
# Si number density = 23.530788 Si / 1000 Ang^3
#
#
#
# Elastic Constant Matrix: (Units=GPa)
#
#
# Indices 1 2 3 4 5 6 
#
# 1 181.3565 62.2688 37.7216 0.0000 0.0000 0.0000
# 2 62.2688 156.1416 37.8210 0.0000 0.0000 0.0000
# 3 37.7216 37.8210 70.8144 0.0000 0.0000 0.0000
# 4 0.0000 0.0000 0.0000 4.7793 0.0000 0.0000
# 5 0.0000 0.0000 0.0000 0.0000 34.6745 0.0000
# 6 0.0000 0.0000 0.0000 0.0000 0.0000 34.7588
#
#
#
# Elastic Compliance Matrix: (Units=1/GPa)
#
#
# Indices 1 2 3 4 5 6 
#
# 1 0.006747 -0.002091 -0.002478 0.000000 0.000000 0.000000
# 2 -0.002091 0.008004 -0.003161 0.000000 0.000000 0.000000
# 3 -0.002478 -0.003161 0.017129 0.000000 0.000000 0.000000
# 4 0.000000 0.000000 0.000000 0.209238 0.000000 0.000000
# 5 0.000000 0.000000 0.000000 0.000000 0.028840 0.000000
# 6 0.000000 0.000000 0.000000 0.000000 0.000000 0.028770
#
#
# Mechanical properties :
#
#
# Convention : Reuss Voigt Hill
#
# Bulk Modulus (GPa) = 60.89406 75.99281 68.44343
# Shear Modulus (GPa) = 15.64162 32.87591 24.25876
#
# Velocity S-wave (km/s) = 2.58103 3.74189 3.21430
# Velocity P-wave (km/s) = 5.90059 7.14382 6.55176
#
# Compressibility (1/GPa) = 0.01642196
#
# Stress axis : x y z
#
# Youngs Moduli (GPa) = 148.21110 124.93951 58.37895
#
# Poissons Ratio (x) = 0.26120 0.14463
# Poissons Ratio (y) = 0.30985 0.18454
# Poissons Ratio (z) = 0.36719 0.39495
#
# Static dielectric constant tensor:
#      x y z
#    x 2.002830 0.000000 0.000000 
#    y 0.000000 1.910400 0.000000 
#    z 0.000000 0.000000 1.873270 
# 
# From -- ./inp_files/23476.got.cif
#   From: 2010.05.17/outbox.cif.g08.bks.cpg/sg21_12_cif.got.tgz:23476.got - 2010.06.03 23:14:55.
