data_PCOD9323088
_publ_section_title
;
Structure prediction by ZEFSAII (Michael W. Deem and Ramdas Pophale) SiO2 
 PCOD9323088
Probable space group: C 2 2 2
;
_chemical_formula_sum "Si O2"
_cell_formula_units_Z 64
_cell_length_a 18.335797
_cell_length_b 13.446161
_cell_length_c 12.349657
_cell_angle_alpha 90.000000
_cell_angle_beta 90.000000
_cell_angle_gamma 90.000000
_cell_volume 3044.759504
_symmetry_space_group_name_H-M "C 2 2 2"
_symmetry_group_IT_number 21
_symmetry_cell_setting 'orthorhombic'
loop_
_space_group_symop_operation_xyz
x,y,z
-x,-y,z
x,-y,-z
-x,y,-z
1/2+x,1/2+y,z
1/2-x,1/2-y,z
1/2+x,1/2-y,-z
1/2-x,1/2+y,-z
loop_
_atom_site_type_symbol
_atom_site_label
_atom_site_fract_x
_atom_site_fract_y
_atom_site_fract_z
Si Si1 0.187154 0.412638 0.592804
Si Si2 0.331978 0.734715 0.644935
Si Si3 0.081983 0.775759 0.457724
Si Si4 0.355177 0.069460 0.247227
Si Si5 0.838965 0.884098 0.721639
Si Si6 0.829282 0.206564 0.041445
Si Si7 0.918033 0.395782 0.963869
Si Si8 0.809610 0.910886 0.165112
O O1 0.197304 0.500000 0.500000
O O2 0.134642 0.320695 0.561769
O O3 0.146073 0.465914 0.692738
O O4 0.265971 0.381781 0.644693
O O5 0.250000 0.750000 0.603655
O O6 0.378877 0.673260 0.560986
O O7 0.360109 0.844917 0.664103
O O8 0.329155 0.683819 0.761369
O O9 0.094777 0.844363 0.352637
O O10 0.000000 0.754193 0.500000
O O11 0.417364 0.094216 0.164236
O O12 0.278028 0.078447 0.182114
O O13 0.833668 0.819311 0.831689
O O14 0.843344 0.994413 0.773254
O O15 0.750000 0.250000 0.019465
O O16 0.882080 0.296039 0.007969
O O17 0.834116 0.114007 0.956986
O O18 0.880974 0.500000 0.000000
O O19 0.000000 0.395677 0.000000
#
# Coordination Sequence:
#
# PCOD9323088 Si02
#       8
#     8   8   8   8   8   8   8   8
#     4  11  23  44  71 103 135 179 236 293 347 411
#     4  10  19  40  70  95 125 177 233 283 332 408
#     4  12  27  45  65 100 146 184 227 283 357 422
#     4  10  20  39  66 101 132 176 231 282 341 419
#     4  11  27  41  71 108 135 181 235 304 341 400
#     4  12  22  42  71 103 144 177 235 292 349 415
#     4  11  26  43  64 102 144 188 220 277 358 432
#     4  10  21  40  72 100 132 175 233 292 348 400
#
# _framework density 21.019722999999999
#
# number of rings (size 3 to 8) (size 9 to 14) (size 15 to 20)
#    0.000    1.125    3.750    2.625    8.750    1.250 
#    2.250    1.250    0.000    0.750    0.000    0.000 
#    0.000    0.000    0.000    0.000    0.000    0.000 
#
# Total GULP energy -178440.802643 kJ/mol
# GULP energy per Si atom -5576.275083 kJ/mol
# Density = 2.097188 g / cm^3
# Si number density = 21.019723 Si / 1000 Ang^3
#
#
#
# Elastic Constant Matrix: (Units=GPa)
#
#
# Indices 1 2 3 4 5 6 
#
# 1 61.7112 34.3756 61.2021 0.0000 0.0000 0.0000
# 2 34.3756 91.2975 40.5618 0.0000 0.0000 0.0000
# 3 61.2021 40.5618 136.8770 0.0000 0.0000 0.0000
# 4 0.0000 0.0000 0.0000 36.5427 0.0000 0.0000
# 5 0.0000 0.0000 0.0000 0.0000 190.9006 0.0000
# 6 0.0000 0.0000 0.0000 0.0000 0.0000 15.4227
#
#
#
# Elastic Compliance Matrix: (Units=1/GPa)
#
#
# Indices 1 2 3 4 5 6 
#
# 1 0.032238 -0.006604 -0.012458 0.000000 0.000000 0.000000
# 2 -0.006604 0.013967 -0.001186 0.000000 0.000000 0.000000
# 3 -0.012458 -0.001186 0.013228 0.000000 0.000000 0.000000
# 4 0.000000 0.000000 0.000000 0.027365 0.000000 0.000000
# 5 0.000000 0.000000 0.000000 0.000000 0.005238 0.000000
# 6 0.000000 0.000000 0.000000 0.000000 0.000000 0.064839
#
#
# Mechanical properties :
#
#
# Convention : Reuss Voigt Hill
#
# Bulk Modulus (GPa) = 52.80616 62.46275 57.63446
# Shear Modulus (GPa) = 24.54800 58.82294 41.68547
#
# Velocity S-wave (km/s) = 3.42110 5.29579 4.45810
# Velocity P-wave (km/s) = 6.38607 8.19601 7.34699
#
# Compressibility (1/GPa) = 0.01893718
#
# Stress axis : x y z
#
# Youngs Moduli (GPa) = 31.01933 71.59945 75.59959
#
# Poissons Ratio (x) = 0.47281 0.94180
# Poissons Ratio (y) = 0.20484 0.08967
# Poissons Ratio (z) = 0.38643 0.08493
#
# Static dielectric constant tensor:
#      x y z
#    x 1.744040 0.000000 0.000000 
#    y 0.000000 1.744630 0.000000 
#    z 0.000000 0.000000 1.866680 
# 
# From -- ./inp_files/26219.got.cif
#   From: 2010.05.17/outbox.cif.g08.bks.cpg/sg21_14_cif.got.tgz:26219.got - 2010.06.03 23:14:55.
