data_PCOD9323575
_publ_section_title
;
Structure prediction by ZEFSAII (Michael W. Deem and Ramdas Pophale) SiO2 
 PCOD9323575
Probable space group: C 2 2 2
;
_chemical_formula_sum "Si O2"
_cell_formula_units_Z 56
_cell_length_a 14.974115
_cell_length_b 8.291887
_cell_length_c 19.938974
_cell_angle_alpha 90.000000
_cell_angle_beta 90.000000
_cell_angle_gamma 90.000000
_cell_volume 2475.696178
_symmetry_space_group_name_H-M "C 2 2 2"
_symmetry_group_IT_number 21
_symmetry_cell_setting 'orthorhombic'
loop_
_space_group_symop_operation_xyz
x,y,z
-x,-y,z
x,-y,-z
-x,y,-z
1/2+x,1/2+y,z
1/2-x,1/2-y,z
1/2+x,1/2-y,-z
1/2-x,1/2+y,-z
loop_
_atom_site_type_symbol
_atom_site_label
_atom_site_fract_x
_atom_site_fract_y
_atom_site_fract_z
Si Si1 0.394419 0.317827 0.484864
Si Si2 0.496702 0.323780 0.078108
Si Si3 0.655544 0.819682 0.618056
Si Si4 0.023444 0.186183 0.718178
Si Si5 0.347626 0.189152 0.338705
Si Si6 0.177988 0.608617 0.930711
Si Si7 0.093382 0.601179 0.166088
O O1 0.363945 0.500000 0.500000
O O2 0.500000 0.309227 0.500000
O O3 0.350952 0.195278 0.537857
O O4 0.370447 0.277467 0.408796
O O5 0.500000 0.500000 0.110985
O O6 0.410988 0.211601 0.084490
O O7 0.578686 0.221485 0.103948
O O8 0.500000 0.346140 0.000000
O O9 0.750000 0.750000 0.640094
O O10 0.575814 0.711226 0.648353
O O11 0.648585 0.000541 0.644425
O O12 0.927141 0.272255 0.712680
O O13 0.087751 0.280317 0.770220
O O14 0.000000 0.000000 0.730762
O O15 0.250000 0.250000 0.316601
O O16 0.250000 0.750000 0.937772
O O17 0.177502 0.501469 0.861472
O O18 0.175826 0.500000 0.000000
O O19 0.000000 0.500000 0.172555
#
# Coordination Sequence:
#
# PCOD9323575 Si02
#       7
#     8   8   8   8   8   8   8
#     4  11  22  39  66 101 138 181 236 293 359 420
#     4  10  20  38  66  96 128 174 219 262 329 403
#     4  12  25  43  67  98 139 185 234 289 354 422
#     4  12  25  46  70  99 137 182 239 287 350 424
#     4  12  25  43  70 101 138 183 235 298 358 417
#     4  11  24  41  66 104 142 172 218 282 340 402
#     4  10  22  43  69  97 134 180 226 270 338 408
#
# _framework density 22.619900000000001
#
# number of rings (size 3 to 8) (size 9 to 14) (size 15 to 20)
#    0.000    0.857    2.857    5.143    2.000    0.571 
#    0.000   11.429    0.000    1.714    0.000    0.000 
#    0.000    0.000    0.000    0.000    0.000    0.000 
#
# Total GULP energy -156246.251512 kJ/mol
# GULP energy per Si atom -5580.223268 kJ/mol
# Density = 2.256842 g / cm^3
# Si number density = 22.619900 Si / 1000 Ang^3
#
#
#
# Elastic Constant Matrix: (Units=GPa)
#
#
# Indices 1 2 3 4 5 6 
#
# 1 91.4236 28.7911 16.9975 0.0000 0.0000 0.0000
# 2 28.7911 144.6613 29.1985 0.0000 0.0000 0.0000
# 3 16.9975 29.1985 84.7047 0.0000 0.0000 0.0000
# 4 0.0000 0.0000 0.0000 17.3838 0.0000 0.0000
# 5 0.0000 0.0000 0.0000 0.0000 139.4825 0.0000
# 6 0.0000 0.0000 0.0000 0.0000 0.0000 34.7668
#
#
#
# Elastic Compliance Matrix: (Units=1/GPa)
#
#
# Indices 1 2 3 4 5 6 
#
# 1 0.011890 -0.002026 -0.001688 0.000000 0.000000 0.000000
# 2 -0.002026 0.007775 -0.002274 0.000000 0.000000 0.000000
# 3 -0.001688 -0.002274 0.012928 0.000000 0.000000 0.000000
# 4 0.000000 0.000000 0.000000 0.057525 0.000000 0.000000
# 5 0.000000 0.000000 0.000000 0.000000 0.007169 0.000000
# 6 0.000000 0.000000 0.000000 0.000000 0.000000 0.028763
#
#
# Mechanical properties :
#
#
# Convention : Reuss Voigt Hill
#
# Bulk Modulus (GPa) = 48.49920 52.30706 50.40313
# Shear Modulus (GPa) = 34.50742 54.71347 44.61044
#
# Velocity S-wave (km/s) = 3.91005 4.92349 4.44574
# Velocity P-wave (km/s) = 6.47086 7.44953 6.97738
#
# Compressibility (1/GPa) = 0.02061890
#
# Stress axis : x y z
#
# Youngs Moduli (GPa) = 84.10575 128.62143 77.35103
#
# Poissons Ratio (x) = 0.26055 0.13054
# Poissons Ratio (y) = 0.17038 0.17586
# Poissons Ratio (z) = 0.14194 0.29242
#
# Static dielectric constant tensor:
#      x y z
#    x 1.762760 0.000000 0.000000 
#    y 0.000000 1.345260 0.000000 
#    z 0.000000 0.000000 1.870360 
# 
# From -- ./inp_files/37590.got.cif
#   From: 2010.05.17/outbox.cif.g08.bks.cpg/sg21_19_cif.got.tgz:37590.got - 2010.06.03 23:14:55.
