data_PCOD9323974
_publ_section_title
;
Structure prediction by ZEFSAII (Michael W. Deem and Ramdas Pophale) SiO2 
 PCOD9323974
Probable space group: C 2 2 2
;
_chemical_formula_sum "Si O2"
_cell_formula_units_Z 56
_cell_length_a 18.192031
_cell_length_b 18.036015
_cell_length_c 8.598756
_cell_angle_alpha 90.000000
_cell_angle_beta 90.000000
_cell_angle_gamma 90.000000
_cell_volume 2821.352827
_symmetry_space_group_name_H-M "C 2 2 2"
_symmetry_group_IT_number 21
_symmetry_cell_setting 'orthorhombic'
loop_
_space_group_symop_operation_xyz
x,y,z
-x,-y,z
x,-y,-z
-x,y,-z
1/2+x,1/2+y,z
1/2-x,1/2-y,z
1/2+x,1/2-y,-z
1/2-x,1/2+y,-z
loop_
_atom_site_type_symbol
_atom_site_label
_atom_site_fract_x
_atom_site_fract_y
_atom_site_fract_z
Si Si1 0.842911 0.423236 0.102312
Si Si2 0.292375 0.677115 0.160334
Si Si3 0.411890 0.421262 0.316441
Si Si4 0.177601 0.207957 0.199841
Si Si5 0.422417 0.409271 0.689906
Si Si6 0.027546 0.416683 0.668470
Si Si7 0.938471 0.312036 0.893572
O O1 0.762815 0.392428 0.144412
O O2 0.889553 0.423066 0.263867
O O3 0.844475 0.500000 0.000000
O O4 0.880852 0.359496 0.995914
O O5 0.250000 0.750000 0.226029
O O6 0.364746 0.650701 0.249785
O O7 0.314359 0.698859 0.985357
O O8 0.343634 0.371371 0.266145
O O9 0.417505 0.414726 0.502940
O O10 0.403571 0.506120 0.261366
O O11 0.493055 0.394980 0.261129
O O12 0.250000 0.250000 0.259223
O O13 0.106823 0.259612 0.219392
O O14 0.984727 0.370151 0.795879
O O15 0.000000 0.500000 0.673284
O O16 0.000000 0.387798 0.500000
O O17 0.000000 0.272482 0.000000
#
# Coordination Sequence:
#
# PCOD9323974 Si02
#       7
#     8   8   8   8   8   8   8
#     4  11  21  39  62  86 120 169 196 242 311 356
#     4  11  24  39  59  90 127 154 199 253 305 368
#     4   9  21  43  65  87 120 159 207 254 307 366
#     4  11  23  39  57  90 126 155 196 255 307 368
#     4   9  21  43  66  88 116 162 207 253 307 365
#     4  10  21  39  61  90 118 153 211 250 280 359
#     4  10  21  38  60  83 118 163 198 243 301 355
#
# _framework density 19.848634000000001
#
# number of rings (size 3 to 8) (size 9 to 14) (size 15 to 20)
#    0.000    1.857    4.286    0.857    4.000    0.571 
#    7.714    2.857    0.000    0.000    0.000    0.000 
#    0.000    0.000    0.000    0.000    0.000    0.000 
#
# Total GULP energy -156017.840205 kJ/mol
# GULP energy per Si atom -5572.065722 kJ/mol
# Density = 1.980346 g / cm^3
# Si number density = 19.848634 Si / 1000 Ang^3
#
#
#
# Elastic Constant Matrix: (Units=GPa)
#
#
# Indices 1 2 3 4 5 6 
#
# 1 98.2955 47.2833 11.3346 0.0000 0.0000 0.0000
# 2 47.2833 72.1250 9.4159 0.0000 0.0000 0.0000
# 3 11.3346 9.4159 31.4067 0.0000 0.0000 0.0000
# 4 0.0000 0.0000 0.0000 22.0208 0.0000 0.0000
# 5 0.0000 0.0000 0.0000 0.0000 18.8833 0.0000
# 6 0.0000 0.0000 0.0000 0.0000 0.0000 41.5703
#
#
#
# Elastic Compliance Matrix: (Units=1/GPa)
#
#
# Indices 1 2 3 4 5 6 
#
# 1 0.015057 -0.009535 -0.002575 0.000000 0.000000 0.000000
# 2 -0.009535 0.020467 -0.002695 0.000000 0.000000 0.000000
# 3 -0.002575 -0.002695 0.033578 0.000000 0.000000 0.000000
# 4 0.000000 0.000000 0.000000 0.045412 0.000000 0.000000
# 5 0.000000 0.000000 0.000000 0.000000 0.052957 0.000000
# 6 0.000000 0.000000 0.000000 0.000000 0.000000 0.024056
#
#
# Mechanical properties :
#
#
# Convention : Reuss Voigt Hill
#
# Bulk Modulus (GPa) = 25.32194 37.54386 31.43290
# Shear Modulus (GPa) = 21.34012 25.41445 23.37728
#
# Velocity S-wave (km/s) = 3.28249 3.58217 3.43560
# Velocity P-wave (km/s) = 5.21072 6.00545 5.62214
#
# Compressibility (1/GPa) = 0.03949144
#
# Stress axis : x y z
#
# Youngs Moduli (GPa) = 66.41489 48.85828 29.78158
#
# Poissons Ratio (x) = 0.46585 0.07670
# Poissons Ratio (y) = 0.63324 0.08027
# Poissons Ratio (z) = 0.17105 0.13168
#
# Static dielectric constant tensor:
#      x y z
#    x 1.721360 0.000000 0.000000 
#    y 0.000000 1.717050 0.000000 
#    z 0.000000 0.000000 1.731550 
# 
# From -- ./inp_files/15267.got.cif
#   From: 2010.05.17/outbox.cif.g08.bks.cpg/sg21_8_cif.got.tgz:15267.got - 2010.06.03 23:14:55.
