data_PCOD9323015
_publ_section_title
;
Structure prediction by ZEFSAII (Michael W. Deem and Ramdas Pophale) SiO2 
 PCOD9323015
Probable space group: C 2 2 2
;
_chemical_formula_sum "Si O2"
_cell_formula_units_Z 64
_cell_length_a 16.500362
_cell_length_b 14.539358
_cell_length_c 12.537433
_cell_angle_alpha 90.000000
_cell_angle_beta 90.000000
_cell_angle_gamma 90.000000
_cell_volume 3007.788730
_symmetry_space_group_name_H-M "C 2 2 2"
_symmetry_group_IT_number 21
_symmetry_cell_setting 'orthorhombic'
loop_
_space_group_symop_operation_xyz
x,y,z
-x,-y,z
x,-y,-z
-x,y,-z
1/2+x,1/2+y,z
1/2-x,1/2-y,z
1/2+x,1/2-y,-z
1/2-x,1/2+y,-z
loop_
_atom_site_type_symbol
_atom_site_label
_atom_site_fract_x
_atom_site_fract_y
_atom_site_fract_z
Si Si1 0.510914 0.768697 0.622722
Si Si2 0.861892 0.401474 0.673797
Si Si3 0.238522 0.356968 0.873990
Si Si4 0.871092 0.004762 0.881297
Si Si5 0.787495 0.892240 0.472820
Si Si6 0.167635 0.611021 0.346724
Si Si7 0.552719 0.417503 0.664973
Si Si8 0.778873 0.355383 0.888835
O O1 0.500000 0.742235 0.500000
O O2 0.441501 0.843232 0.648948
O O3 0.597564 0.815862 0.634559
O O4 0.499158 0.674195 0.686904
O O5 0.782947 0.364594 0.610218
O O6 0.865167 0.507071 0.632040
O O7 0.840587 0.387359 0.798092
O O8 0.250000 0.250000 0.856658
O O9 0.324838 0.408039 0.869912
O O10 0.188511 0.395261 0.776695
O O11 0.195103 0.367499 0.988281
O O12 0.917733 0.036609 0.775916
O O13 0.799097 0.079482 0.883756
O O14 0.909499 0.000000 0.000000
O O15 0.748008 0.860285 0.585725
O O16 0.872547 0.881769 0.409809
O O17 0.789935 0.000000 0.500000
O O18 0.500000 0.500000 0.614834
O O19 0.750000 0.250000 0.872592
#
# Coordination Sequence:
#
# PCOD9323015 Si02
#       8
#     8   8   8   8   8   8   8   8
#     4  12  28  44  65  99 139 190 226 296 352 427
#     4  11  21  42  73  98 133 172 238 286 352 413
#     4  10  22  38  67 100 136 178 236 287 347 424
#     4  10  20  42  70  99 132 184 239 289 359 429
#     4  10  22  41  69  96 129 179 225 279 339 421
#     4  11  23  44  67 101 135 182 233 291 353 421
#     4  12  28  45  65 100 143 183 229 291 362 425
#     4  10  19  37  67 103 133 172 234 295 339 427
#
# _framework density 21.278089999999999
#
# number of rings (size 3 to 8) (size 9 to 14) (size 15 to 20)
#    0.000    1.250    3.750    1.875    3.500    1.750 
#    0.000    0.625    2.750    1.500    0.000    0.000 
#    0.000    0.000    0.000    0.000    0.000    0.000 
#
# Total GULP energy -178497.967416 kJ/mol
# GULP energy per Si atom -5578.061482 kJ/mol
# Density = 2.122966 g / cm^3
# Si number density = 21.278090 Si / 1000 Ang^3
#
#
#
# Elastic Constant Matrix: (Units=GPa)
#
#
# Indices 1 2 3 4 5 6 
#
# 1 79.8878 29.3100 32.9478 0.0000 0.0000 0.0000
# 2 29.3100 123.9621 27.0896 0.0000 0.0000 0.0000
# 3 32.9478 27.0896 126.6159 0.0000 0.0000 0.0000
# 4 0.0000 0.0000 0.0000 -125.2639 0.0000 0.0000
# 5 0.0000 0.0000 0.0000 0.0000 9.5169 0.0000
# 6 0.0000 0.0000 0.0000 0.0000 0.0000 24.7229
#
#
#
# Elastic Compliance Matrix: (Units=1/GPa)
#
#
# Indices 1 2 3 4 5 6 
#
# 1 0.014899 -0.002807 -0.003276 0.000000 0.000000 0.000000
# 2 -0.002807 0.008991 -0.001193 0.000000 0.000000 0.000000
# 3 -0.003276 -0.001193 0.009006 0.000000 0.000000 0.000000
# 4 0.000000 0.000000 0.000000 -0.007983 0.000000 0.000000
# 5 0.000000 0.000000 0.000000 0.000000 0.105076 0.000000
# 6 0.000000 0.000000 0.000000 0.000000 0.000000 0.040448
#
#
# Mechanical properties :
#
#
# Convention : Reuss Voigt Hill
#
# Bulk Modulus (GPa) = 54.51703 56.57339 55.54521
# Shear Modulus (GPa) = 26.16370 -2.13026 12.01672
#
# Velocity S-wave (km/s) = 3.51038 -1.00166 2.37902
# Velocity P-wave (km/s) = 6.48901 5.03066 5.80581
#
# Compressibility (1/GPa) = 0.01834289
#
# Stress axis : x y z
#
# Youngs Moduli (GPa) = 67.12060 111.21756 111.03950
#
# Poissons Ratio (x) = 0.31215 0.36381
# Poissons Ratio (y) = 0.18839 0.13251
# Poissons Ratio (z) = 0.21991 0.13272
#
# Static dielectric constant tensor:
#      x y z
#    x 1.852330 0.000000 0.000000 
#    y 0.000000 1.821990 0.000000 
#    z 0.000000 0.000000 1.867640 
# 
# From -- ./inp_files/26224.got.cif
#   From: 2010.05.17/outbox.cif.g08.bks.cpg/sg21_14_cif.got.tgz:26224.got - 2010.06.03 23:14:55.
