data_PCOD9323999
_publ_section_title
;
Structure prediction by ZEFSAII (Michael W. Deem and Ramdas Pophale) SiO2 
 PCOD9323999
Probable space group: C 2 2 2
;
_chemical_formula_sum "Si O2"
_cell_formula_units_Z 56
_cell_length_a 19.361350
_cell_length_b 9.260192
_cell_length_c 15.263050
_cell_angle_alpha 90.000000
_cell_angle_beta 90.000000
_cell_angle_gamma 90.000000
_cell_volume 2736.509462
_symmetry_space_group_name_H-M "C 2 2 2"
_symmetry_group_IT_number 21
_symmetry_cell_setting 'orthorhombic'
loop_
_space_group_symop_operation_xyz
x,y,z
-x,-y,z
x,-y,-z
-x,y,-z
1/2+x,1/2+y,z
1/2-x,1/2-y,z
1/2+x,1/2-y,-z
1/2-x,1/2+y,-z
loop_
_atom_site_type_symbol
_atom_site_label
_atom_site_fract_x
_atom_site_fract_y
_atom_site_fract_z
Si Si1 0.750000 0.250000 0.993669
Si Si2 0.603868 0.169815 0.503342
Si Si3 0.562666 0.271206 0.315357
Si Si4 0.924037 0.505340 0.808052
Si Si5 0.692160 0.535454 0.706417
Si Si6 0.911879 0.776273 0.303281
Si Si7 0.782377 0.488618 0.121730
Si Si8 0.750000 0.750000 0.563406
O O1 0.788936 0.355080 0.924545
O O2 0.735727 0.378989 0.063768
O O3 0.571571 0.254301 0.420221
O O4 0.581463 0.217450 0.598630
O O5 0.684924 0.203470 0.493082
O O6 0.590248 0.000000 0.500000
O O7 0.565888 0.112041 0.274096
O O8 0.628402 0.355068 0.276953
O O9 0.489163 0.336882 0.287831
O O10 0.902445 0.351143 0.767254
O O11 0.861381 0.562831 0.867078
O O12 0.000000 0.500000 0.851216
O O13 0.651393 0.386370 0.693951
O O14 0.746373 0.512955 0.783995
O O15 0.730514 0.613058 0.625203
#
# Coordination Sequence:
#
# PCOD9323999 Si02
#       8
#     4   8   8   8   8   8   8   4
#     4  10  23  38  65  94 118 148 192 228 301 366
#     4  11  22  36  56  80 122 165 210 270 315 352
#     4  10  21  39  56  86 120 165 208 253 318 355
#     4  10  21  38  62  91 122 160 201 245 299 365
#     4  11  23  40  62  86 118 159 201 258 307 364
#     4  11  23  35  60  86 117 163 218 256 298 367
#     4  11  21  41  64  92 123 153 190 244 297 369
#     4  10  25  36  53  84 122 160 208 262 329 356
#
# _framework density 20.464026
#
# number of rings (size 3 to 8) (size 9 to 14) (size 15 to 20)
#    0.000    1.429    1.429    4.714    2.000    2.286 
#    0.000    4.286    0.000    3.429    0.000   10.000 
#    0.000    0.000    0.000    0.000    0.000    0.000 
#
# Total GULP energy -155987.486048 kJ/mol
# GULP energy per Si atom -5570.981645 kJ/mol
# Density = 2.041745 g / cm^3
# Si number density = 20.464026 Si / 1000 Ang^3
#
#
#
# Elastic Constant Matrix: (Units=GPa)
#
#
# Indices 1 2 3 4 5 6 
#
# 1 102.1446 15.5487 26.8404 0.0000 0.0000 0.0000
# 2 15.5487 82.5566 4.2445 0.0000 0.0000 0.0000
# 3 26.8404 4.2445 20.6394 0.0000 0.0000 0.0000
# 4 0.0000 0.0000 0.0000-1672.2787 0.0000 0.0000
# 5 0.0000 0.0000 0.0000 0.0000 -9.6241 0.0000
# 6 0.0000 0.0000 0.0000 0.0000 0.0000 28.1111
#
#
#
# Elastic Compliance Matrix: (Units=1/GPa)
#
#
# Indices 1 2 3 4 5 6 
#
# 1 0.015150 -0.001860 -0.019319 0.000000 0.000000 0.000000
# 2 -0.001860 0.012471 -0.000146 0.000000 0.000000 0.000000
# 3 -0.019319 -0.000146 0.073604 0.000000 0.000000 0.000000
# 4 0.000000 0.000000 0.000000 -0.000598 0.000000 0.000000
# 5 0.000000 0.000000 0.000000 0.000000 -0.103906 0.000000
# 6 0.000000 0.000000 0.000000 0.000000 0.000000 0.035573
#
#
# Mechanical properties :
#
#
# Convention : Reuss Voigt Hill
#
# Bulk Modulus (GPa) = 17.07207 33.17864 25.12535
# Shear Modulus (GPa) = 52.92844 -320.17788 -133.62472
#
# Velocity S-wave (km/s) = 5.09120 -12.52192 -8.08945
# Velocity P-wave (km/s) = 6.55141 13.88583 8.65723
#
# Compressibility (1/GPa) = 0.05857522
#
# Stress axis : x y z
#
# Youngs Moduli (GPa) = 66.00877 80.18788 13.58628
#
# Poissons Ratio (x) = 0.14915 0.26247
# Poissons Ratio (y) = 0.12278 0.00198
# Poissons Ratio (z) = 1.27519 0.01169
#
# Static dielectric constant tensor:
#      x y z
#    x 5.399780 0.000000 0.000000 
#    y 0.000000 1.761250 0.000000 
#    z 0.000000 0.000000 1.703340 
# 
# From -- ./inp_files/33341.got.cif
#   From: 2010.05.17/outbox.cif.g08.bks.cpg/sg21_17_cif.got.tgz:33341.got - 2010.06.03 23:14:55.
