data_PCOD9323175
_publ_section_title
;
Structure prediction by ZEFSAII (Michael W. Deem and Ramdas Pophale) SiO2 
 PCOD9323175
Probable space group: C 2 2 2
;
_chemical_formula_sum "Si O2"
_cell_formula_units_Z 48
_cell_length_a 19.340909
_cell_length_b 5.619324
_cell_length_c 22.889212
_cell_angle_alpha 90.000000
_cell_angle_beta 90.000000
_cell_angle_gamma 90.000000
_cell_volume 2487.664431
_symmetry_space_group_name_H-M "C 2 2 2"
_symmetry_group_IT_number 21
_symmetry_cell_setting 'orthorhombic'
loop_
_space_group_symop_operation_xyz
x,y,z
-x,-y,z
x,-y,-z
-x,y,-z
1/2+x,1/2+y,z
1/2-x,1/2-y,z
1/2+x,1/2-y,-z
1/2-x,1/2+y,-z
loop_
_atom_site_type_symbol
_atom_site_label
_atom_site_fract_x
_atom_site_fract_y
_atom_site_fract_z
Si Si1 0.672664 0.229467 0.805411
Si Si2 0.677984 0.101725 0.309239
Si Si3 0.070743 0.121013 0.757028
Si Si4 0.328606 0.747043 0.035266
Si Si5 0.070278 0.406066 0.872687
Si Si6 0.292866 0.997717 0.563382
O O1 0.750000 0.250000 0.829242
O O2 0.631318 0.459593 0.784678
O O3 0.680757 0.076076 0.745788
O O4 0.624335 0.106790 0.853124
O O5 0.750000 0.250000 0.307489
O O6 0.609721 0.252334 0.295622
O O7 0.670797 0.993042 0.373647
O O8 0.049368 0.285695 0.811471
O O9 0.000000 0.000000 0.737713
O O10 0.250000 0.750000 0.059363
O O11 0.386693 0.739773 0.084751
O O12 0.334072 0.500000 0.000000
O O13 0.337439 0.000000 0.000000
O O14 0.000000 0.500000 0.900813
O O15 0.250000 0.250000 0.564241
O O16 0.330299 0.000000 0.500000
O O17 0.250000 0.750000 0.562938
#
# Coordination Sequence:
#
# PCOD9323175 Si02
#       6
#     8   8   8   8   8   8
#     4  11  22  36  61  89 122 163 206 258 310 377
#     4  10  20  33  56  89 124 162 210 261 312 378
#     4  11  23  39  57  89 130 164 202 256 318 377
#     4  10  25  46  70  98 125 161 210 258 306 364
#     4  11  25  41  63  92 124 162 205 257 311 378
#     4   9  18  32  54  87 127 161 206 270 324 364
#
# _framework density 19.295207999999999
#
# number of rings (size 3 to 8) (size 9 to 14) (size 15 to 20)
#    0.000    1.667    3.333    0.500    7.000    1.000 
#    0.000    0.833    0.000    0.000    0.000    3.500 
#    0.000    0.000    0.000    0.000    0.000    0.000 
#
# Total GULP energy -133751.698174 kJ/mol
# GULP energy per Si atom -5572.987424 kJ/mol
# Density = 1.925129 g / cm^3
# Si number density = 19.295208 Si / 1000 Ang^3
#
#
#
# Elastic Constant Matrix: (Units=GPa)
#
#
# Indices 1 2 3 4 5 6 
#
# 1 125.5421 32.2912 48.9595 0.0000 0.0000 0.0000
# 2 32.2912 77.2250 15.3452 0.0000 0.0000 0.0000
# 3 48.9595 15.3452 76.0935 0.0000 0.0000 0.0000
# 4 0.0000 0.0000 0.0000 8.2573 0.0000 0.0000
# 5 0.0000 0.0000 0.0000 0.0000 19.4798 0.0000
# 6 0.0000 0.0000 0.0000 0.0000 0.0000 34.2556
#
#
#
# Elastic Compliance Matrix: (Units=1/GPa)
#
#
# Indices 1 2 3 4 5 6 
#
# 1 0.011460 -0.003466 -0.006675 0.000000 0.000000 0.000000
# 2 -0.003466 0.014538 -0.000702 0.000000 0.000000 0.000000
# 3 -0.006675 -0.000702 0.017578 0.000000 0.000000 0.000000
# 4 0.000000 0.000000 0.000000 0.121105 0.000000 0.000000
# 5 0.000000 0.000000 0.000000 0.000000 0.051335 0.000000
# 6 0.000000 0.000000 0.000000 0.000000 0.000000 0.029192
#
#
# Mechanical properties :
#
#
# Convention : Reuss Voigt Hill
#
# Bulk Modulus (GPa) = 45.68024 52.45025 49.06524
# Shear Modulus (GPa) = 18.23559 24.54951 21.39255
#
# Velocity S-wave (km/s) = 3.07756 3.57082 3.33332
# Velocity P-wave (km/s) = 6.02945 6.65154 6.34812
#
# Compressibility (1/GPa) = 0.02189130
#
# Stress axis : x y z
#
# Youngs Moduli (GPa) = 87.26149 68.78634 56.89008
#
# Poissons Ratio (x) = 0.23838 0.37971
# Poissons Ratio (y) = 0.30241 0.03993
# Poissons Ratio (z) = 0.58243 0.04828
#
# Static dielectric constant tensor:
#      x y z
#    x 1.575860 0.000000 0.000000 
#    y 0.000000 1.755830 0.000000 
#    z 0.000000 0.000000 1.683510 
# 
# From -- ./inp_files/38237.got.cif
#   From: 2010.05.17/outbox.cif.g08.bks.cpg/sg21_20_cif.got.tgz:38237.got - 2010.06.03 23:14:55.
