data_PCOD9323403
_publ_section_title
;
Structure prediction by ZEFSAII (Michael W. Deem and Ramdas Pophale) SiO2 
 PCOD9323403
Probable space group: C 2 2 2
;
_chemical_formula_sum "Si O2"
_cell_formula_units_Z 30
_cell_length_a 5.198527
_cell_length_b 18.577856
_cell_length_c 14.613718
_cell_angle_alpha 90.000000
_cell_angle_beta 90.000000
_cell_angle_gamma 90.000000
_cell_volume 1411.356146
_symmetry_space_group_name_H-M "C 2 2 2"
_symmetry_group_IT_number 21
_symmetry_cell_setting 'orthorhombic'
loop_
_space_group_symop_operation_xyz
x,y,z
-x,-y,z
x,-y,-z
-x,y,-z
1/2+x,1/2+y,z
1/2-x,1/2-y,z
1/2+x,1/2-y,-z
1/2-x,1/2+y,-z
loop_
_atom_site_type_symbol
_atom_site_label
_atom_site_fract_x
_atom_site_fract_y
_atom_site_fract_z
Si Si1 0.000000 0.000000 0.500000
Si Si2 0.000000 0.000000 0.817708
Si Si3 0.327628 0.407665 0.338269
Si Si4 0.148642 0.330851 0.723090
Si Si5 0.107621 0.417509 0.903788
O O1 0.165929 0.950289 0.567257
O O2 0.799332 0.034522 0.744875
O O3 0.093398 0.063231 0.884629
O O4 0.609610 0.375237 0.317256
O O5 0.105046 0.348480 0.335510
O O6 0.250000 0.250000 0.727672
O O7 0.065146 0.360850 0.822855
O O8 0.000000 0.500000 0.896771
O O9 0.000000 0.390732 0.000000
#
# Coordination Sequence:
#
# PCOD9323403 Si02
#       5
#     2   4   8   8   8
#     4  10  24  42  74 106 130 154 236 290 336 384
#     4   9  18  36  59  92 128 158 221 283 339 375
#     4  10  22  40  67  96 127 171 213 278 334 397
#     4  11  23  43  64  93 138 181 217 258 340 414
#     4  10  20  36  61  91 127 167 232 281 322 366
#
# _framework density 21.256150000000002
#
# number of rings (size 3 to 8) (size 9 to 14) (size 15 to 20)
#    0.000    1.867    2.667    0.800    0.000    4.267 
#    0.000    5.333    0.000    0.000    0.000    0.000 
#    0.000    0.000    0.000    0.000    0.000    0.000 
#
# Total GULP energy -83537.945863 kJ/mol
# GULP energy per Si atom -5569.196391 kJ/mol
# Density = 2.120777 g / cm^3
# Si number density = 21.256150 Si / 1000 Ang^3
#
#
#
# Elastic Constant Matrix: (Units=GPa)
#
#
# Indices 1 2 3 4 5 6 
#
# 1 92.1841 34.6792 55.0807 0.0000 0.0000 0.0000
# 2 34.6792 111.4138 56.9402 0.0000 0.0000 0.0000
# 3 55.0807 56.9402 162.8803 0.0000 0.0000 0.0000
# 4 0.0000 0.0000 0.0000 20.0192 0.0000 0.0000
# 5 0.0000 0.0000 0.0000 0.0000 13.2096 0.0000
# 6 0.0000 0.0000 0.0000 0.0000 0.0000 41.9787
#
#
#
# Elastic Compliance Matrix: (Units=1/GPa)
#
#
# Indices 1 2 3 4 5 6 
#
# 1 0.014093 -0.002375 -0.003935 0.000000 0.000000 0.000000
# 2 -0.002375 0.011328 -0.003157 0.000000 0.000000 0.000000
# 3 -0.003935 -0.003157 0.008574 0.000000 0.000000 0.000000
# 4 0.000000 0.000000 0.000000 0.049952 0.000000 0.000000
# 5 0.000000 0.000000 0.000000 0.000000 0.075702 0.000000
# 6 0.000000 0.000000 0.000000 0.000000 0.000000 0.023822
#
#
# Mechanical properties :
#
#
# Convention : Reuss Voigt Hill
#
# Bulk Modulus (GPa) = 66.40196 73.31980 69.86088
# Shear Modulus (GPa) = 24.10496 29.69338 26.89917
#
# Velocity S-wave (km/s) = 3.37118 3.74161 3.56121
# Velocity P-wave (km/s) = 6.81615 7.29620 7.06026
#
# Compressibility (1/GPa) = 0.01505980
#
# Stress axis : x y z
#
# Youngs Moduli (GPa) = 70.95789 88.27435 116.63321
#
# Poissons Ratio (x) = 0.20968 0.45899
# Poissons Ratio (y) = 0.16855 0.36820
# Poissons Ratio (z) = 0.27924 0.27867
#
# Static dielectric constant tensor:
#      x y z
#    x 2.009380 0.000000 0.000000 
#    y 0.000000 1.787260 0.000000 
#    z 0.000000 0.000000 1.787900 
# 
# From -- ./inp_files/28647.got.cif
#   From: 2010.05.17/outbox.cif.g08.bks.cpg/sg21_15_cif.got.tgz:28647.got - 2010.06.03 23:14:55.
