data_PCOD9323192
_publ_section_title
;
Structure prediction by ZEFSAII (Michael W. Deem and Ramdas Pophale) SiO2 
 PCOD9323192
Probable space group: C 2 2 2
;
_chemical_formula_sum "Si O2"
_cell_formula_units_Z 48
_cell_length_a 13.391631
_cell_length_b 18.022752
_cell_length_c 8.792702
_cell_angle_alpha 90.000000
_cell_angle_beta 90.000000
_cell_angle_gamma 90.000000
_cell_volume 2122.154189
_symmetry_space_group_name_H-M "C 2 2 2"
_symmetry_group_IT_number 21
_symmetry_cell_setting 'orthorhombic'
loop_
_space_group_symop_operation_xyz
x,y,z
-x,-y,z
x,-y,-z
-x,y,-z
1/2+x,1/2+y,z
1/2-x,1/2-y,z
1/2+x,1/2-y,-z
1/2-x,1/2+y,-z
loop_
_atom_site_type_symbol
_atom_site_label
_atom_site_fract_x
_atom_site_fract_y
_atom_site_fract_z
Si Si1 0.682432 0.923962 0.432091
Si Si2 0.868620 0.263621 0.577654
Si Si3 0.397594 0.387425 0.572546
Si Si4 0.602406 0.612575 0.927454
Si Si5 0.682432 0.923962 0.067909
Si Si6 0.131380 0.736379 0.922346
O O1 0.622758 0.848838 0.473092
O O2 0.796214 0.914981 0.492761
O O3 0.685571 0.927035 0.250000
O O4 0.641127 0.000000 0.500000
O O5 0.750000 0.250000 0.591524
O O6 0.900389 0.201239 0.459352
O O7 0.909113 0.252574 0.750000
O O8 0.500000 0.416620 0.500000
O O9 0.393048 0.403931 0.750000
O O10 0.500000 0.583380 0.000000
O O11 0.703786 0.585019 0.007240
O O12 0.599611 0.701239 0.959353
O O13 0.622758 0.848838 0.026908
O O14 0.641127 0.000000 0.000000
O O15 0.250000 0.750000 0.908476
#
# Coordination Sequence:
#
# PCOD9323192 Si02
#       6
#     8   8   8   8   8   8
#     4  10  20  34  52  75 103 132 164 202 245 293
#     4   8  16  32  51  71  97 128 163 203 243 287
#     4  11  21  33  51  74 101 132 167 204 246 294
#     4  11  21  33  51  74 101 132 167 204 246 294
#     4  10  20  34  52  75 103 132 164 202 245 293
#     4   8  16  32  51  71  97 128 163 203 243 287
#
# _framework density 22.618525999999999
#
# number of rings (size 3 to 8) (size 9 to 14) (size 15 to 20)
#    0.000    2.333    0.000    6.000    0.000    8.000 
#    0.000    3.333    0.000    1.000    0.000    7.000 
#    0.000    0.000    0.000    0.000    0.000    0.000 
#
# Total GULP energy -134070.740554 kJ/mol
# GULP energy per Si atom -5586.280856 kJ/mol
# Density = 2.256704 g / cm^3
# Si number density = 22.618526 Si / 1000 Ang^3
#
#
#
# Elastic Constant Matrix: (Units=GPa)
#
#
# Indices 1 2 3 4 5 6 
#
# 1 49.2615 -10.5112 8.3951 0.0000 0.0000 0.0000
# 2 -10.5112 162.8314 27.0311 0.0000 0.0000 0.0000
# 3 8.3951 27.0311 72.1805 0.0000 0.0000 0.0000
# 4 0.0000 0.0000 0.0000 33.2566 0.0000 0.0000
# 5 0.0000 0.0000 0.0000 0.0000 21.0049 0.0000
# 6 0.0000 0.0000 0.0000 0.0000 0.0000 -2.7943
#
#
#
# Elastic Compliance Matrix: (Units=1/GPa)
#
#
# Indices 1 2 3 4 5 6 
#
# 1 0.021248 0.001900 -0.003183 0.000000 0.000000 0.000000
# 2 0.001900 0.006718 -0.002737 0.000000 0.000000 0.000000
# 3 -0.003183 -0.002737 0.015249 0.000000 0.000000 0.000000
# 4 0.000000 0.000000 0.000000 0.030069 0.000000 0.000000
# 5 0.000000 0.000000 0.000000 0.000000 0.047608 0.000000
# 6 0.000000 0.000000 0.000000 0.000000 0.000000 -0.357873
#
#
# Mechanical properties :
#
#
# Convention : Reuss Voigt Hill
#
# Bulk Modulus (GPa) = 28.42868 37.12260 32.77564
# Shear Modulus (GPa) = -23.01861 27.58399 2.28269
#
# Velocity S-wave (km/s) = -3.19358 3.49597 1.00569
# Velocity P-wave (km/s) = 1.00129 5.72222 3.98379
#
# Compressibility (1/GPa) = 0.03517574
#
# Stress axis : x y z
#
# Youngs Moduli (GPa) = 47.06409 148.84678 65.57678
#
# Poissons Ratio (x) = -0.28280 0.20871
# Poissons Ratio (y) = -0.08942 0.17948
# Poissons Ratio (z) = 0.14979 0.40738
#
# Static dielectric constant tensor:
#      x y z
#    x 1.885660 0.000000 0.000000 
#    y 0.000000 1.914830 0.000000 
#    z 0.000000 0.000000 1.759470 
# 
# From -- ./inp_files/14937.got.cif
#   From: 2010.05.17/outbox.cif.g08.bks.cpg/sg21_8_cif.got.tgz:14937.got - 2010.06.03 23:14:55.
