data_PCOD9323799
_publ_section_title
;
Structure prediction by ZEFSAII (Michael W. Deem and Ramdas Pophale) SiO2 
 PCOD9323799
Probable space group: C 2 2 2
;
_chemical_formula_sum "Si O2"
_cell_formula_units_Z 32
_cell_length_a 7.995446
_cell_length_b 14.036259
_cell_length_c 11.560124
_cell_angle_alpha 90.000000
_cell_angle_beta 90.000000
_cell_angle_gamma 90.000000
_cell_volume 1297.348220
_symmetry_space_group_name_H-M "C 2 2 2"
_symmetry_group_IT_number 21
_symmetry_cell_setting 'orthorhombic'
loop_
_space_group_symop_operation_xyz
x,y,z
-x,-y,z
x,-y,-z
-x,y,-z
1/2+x,1/2+y,z
1/2-x,1/2-y,z
1/2+x,1/2-y,-z
1/2-x,1/2+y,-z
loop_
_atom_site_type_symbol
_atom_site_label
_atom_site_fract_x
_atom_site_fract_y
_atom_site_fract_z
Si Si1 0.761218 0.358653 0.272922
Si Si2 0.187597 0.886718 0.519440
Si Si3 0.112666 0.855730 0.774526
Si Si4 0.063942 0.639798 0.869984
O O1 0.750000 0.250000 0.231120
O O2 0.795880 0.353635 0.410752
O O3 0.573196 0.397925 0.249717
O O4 0.916643 0.404246 0.208066
O O5 0.214604 0.861256 0.652324
O O6 0.000000 0.848621 0.500000
O O7 0.185958 0.000000 0.500000
O O8 0.082536 0.748915 0.822370
O O9 0.247956 0.901150 0.860905
O O10 0.000000 0.640111 0.000000
#
# Coordination Sequence:
#
# PCOD9323799 Si02
#       4
#     8   8   8   8
#     4   9  19  33  55  83 111 142 183 233 289 334
#     4   9  18  36  59  85 115 147 185 235 292 353
#     4   9  20  33  53  81 110 146 180 230 286 331
#     4  10  21  33  53  84 113 147 191 231 273 331
#
# _framework density 24.665700999999999
#
# number of rings (size 3 to 8) (size 9 to 14) (size 15 to 20)
#    0.000    2.750    0.000    0.000   14.000    1.000 
#    0.000    2.500    0.000    3.000    6.500    0.000 
#    0.000    0.000    0.000    0.000    0.000    0.000 
#
# Total GULP energy -89186.208632 kJ/mol
# GULP energy per Si atom -5574.138039 kJ/mol
# Density = 2.460956 g / cm^3
# Si number density = 24.665701 Si / 1000 Ang^3
#
#
#
# Elastic Constant Matrix: (Units=GPa)
#
#
# Indices 1 2 3 4 5 6 
#
# 1 164.8966 20.3051 73.5265 0.0000 0.0000 0.0000
# 2 20.3051 69.8945 2.4002 0.0000 0.0000 0.0000
# 3 73.5265 2.4002 166.2929 0.0000 0.0000 0.0000
# 4 0.0000 0.0000 0.0000 -95.9146 0.0000 0.0000
# 5 0.0000 0.0000 0.0000 0.0000 47.0039 0.0000
# 6 0.0000 0.0000 0.0000 0.0000 0.0000 21.5027
#
#
#
# Elastic Compliance Matrix: (Units=1/GPa)
#
#
# Indices 1 2 3 4 5 6 
#
# 1 0.007869 -0.002168 -0.003448 0.000000 0.000000 0.000000
# 2 -0.002168 0.014911 0.000743 0.000000 0.000000 0.000000
# 3 -0.003448 0.000743 0.007527 0.000000 0.000000 0.000000
# 4 0.000000 0.000000 0.000000 -0.010426 0.000000 0.000000
# 5 0.000000 0.000000 0.000000 0.000000 0.021275 0.000000
# 6 0.000000 0.000000 0.000000 0.000000 0.000000 0.046506
#
#
# Mechanical properties :
#
#
# Convention : Reuss Voigt Hill
#
# Bulk Modulus (GPa) = 48.63130 65.94973 57.29052
# Shear Modulus (GPa) = 47.95665 14.84187 31.39926
#
# Velocity S-wave (km/s) = 4.41417 2.45566 3.57177
# Velocity P-wave (km/s) = 6.76304 5.90219 6.34723
#
# Compressibility (1/GPa) = 0.02056289
#
# Stress axis : x y z
#
# Youngs Moduli (GPa) = 127.08578 67.06251 132.85084
#
# Poissons Ratio (x) = 0.14536 0.45805
# Poissons Ratio (y) = 0.27546 -0.09873
# Poissons Ratio (z) = 0.43817 -0.04984
#
# Static dielectric constant tensor:
#      x y z
#    x 2.145770 0.000000 0.000000 
#    y 0.000000 2.142120 0.000000 
#    z 0.000000 0.000000 1.949040 
# 
# From -- ./inp_files/10439.got.cif
#   From: 2010.05.17/outbox.cif.g08.bks.cpg/sg21_6_cif.got.tgz:10439.got - 2010.06.03 23:14:55.
