data_PCOD9323006
_publ_section_title
;
Structure prediction by ZEFSAII (Michael W. Deem and Ramdas Pophale) SiO2 
 PCOD9323006
Probable space group: C 2 2 2
;
_chemical_formula_sum "Si O2"
_cell_formula_units_Z 48
_cell_length_a 7.738481
_cell_length_b 17.546976
_cell_length_c 19.052570
_cell_angle_alpha 90.000000
_cell_angle_beta 90.000000
_cell_angle_gamma 90.000000
_cell_volume 2587.090187
_symmetry_space_group_name_H-M "C 2 2 2"
_symmetry_group_IT_number 21
_symmetry_cell_setting 'orthorhombic'
loop_
_space_group_symop_operation_xyz
x,y,z
-x,-y,z
x,-y,-z
-x,y,-z
1/2+x,1/2+y,z
1/2-x,1/2-y,z
1/2+x,1/2-y,-z
1/2-x,1/2+y,-z
loop_
_atom_site_type_symbol
_atom_site_label
_atom_site_fract_x
_atom_site_fract_y
_atom_site_fract_z
Si Si1 0.952589 0.589579 0.578320
Si Si2 0.203537 0.161580 0.162733
Si Si3 0.592122 0.418817 0.354096
Si Si4 0.880745 0.924551 0.802785
Si Si5 0.236186 0.339824 0.320527
Si Si6 0.298107 0.013025 0.077330
O O1 0.748252 0.598407 0.593370
O O2 0.000000 0.500000 0.583367
O O3 0.000000 0.615563 0.500000
O O4 0.077323 0.630716 0.633753
O O5 0.250000 0.250000 0.148002
O O6 0.282741 0.137241 0.238527
O O7 0.258006 0.097961 0.106099
O O8 0.999075 0.147003 0.175520
O O9 0.500000 0.500000 0.367626
O O10 0.682528 0.415279 0.276748
O O11 0.422344 0.366841 0.349348
O O12 0.760672 0.950033 0.865988
O O13 0.000000 0.000000 0.796215
O O14 0.250000 0.250000 0.320218
O O15 0.500000 0.000000 0.071781
O O16 0.219285 0.000000 0.000000
#
# Coordination Sequence:
#
# PCOD9323006 Si02
#       6
#     8   8   8   8   8   8
#     4  11  24  39  60  92 115 160 208 241 308 361
#     4   9  19  37  60  84 116 151 193 245 297 341
#     4  10  19  37  63  86 116 152 203 251 291 352
#     4   8  17  32  56  85 104 148 194 230 295 345
#     4  10  22  41  61  91 122 155 199 253 302 357
#     4  10  21  35  54  86 118 151 195 238 285 351
#
# _framework density 18.553661999999999
#
# number of rings (size 3 to 8) (size 9 to 14) (size 15 to 20)
#    0.000    2.333    1.667    1.000    2.333    4.333 
#    3.000    4.167    0.000    0.000    0.000    0.000 
#    0.000    0.000    0.000    0.000    0.000    0.000 
#
# Total GULP energy -133647.239275 kJ/mol
# GULP energy per Si atom -5568.634970 kJ/mol
# Density = 1.851143 g / cm^3
# Si number density = 18.553662 Si / 1000 Ang^3
#
#
#
# Elastic Constant Matrix: (Units=GPa)
#
#
# Indices 1 2 3 4 5 6 
#
# 1 79.2621 24.3603 58.5650 0.0000 0.0000 0.0000
# 2 24.3603 76.3584 38.3559 0.0000 0.0000 0.0000
# 3 58.5650 38.3559 120.7643 0.0000 0.0000 0.0000
# 4 0.0000 0.0000 0.0000 63.2437 0.0000 0.0000
# 5 0.0000 0.0000 0.0000 0.0000 -0.1429 0.0000
# 6 0.0000 0.0000 0.0000 0.0000 0.0000 23.2008
#
#
#
# Elastic Compliance Matrix: (Units=1/GPa)
#
#
# Indices 1 2 3 4 5 6 
#
# 1 0.019863 -0.001783 -0.009067 0.000000 0.000000 0.000000
# 2 -0.001783 0.015742 -0.004135 0.000000 0.000000 0.000000
# 3 -0.009067 -0.004135 0.013991 0.000000 0.000000 0.000000
# 4 0.000000 0.000000 0.000000 0.015812 0.000000 0.000000
# 5 0.000000 0.000000 0.000000 0.000000 -6.995483 0.000000
# 6 0.000000 0.000000 0.000000 0.000000 0.000000 0.043102
#
#
# Mechanical properties :
#
#
# Convention : Reuss Voigt Hill
#
# Bulk Modulus (GPa) = 50.94980 57.66080 54.30530
# Shear Modulus (GPa) = -0.72988 27.60055 13.43534
#
# Velocity S-wave (km/s) = -0.62789 3.86113 2.69389
# Velocity P-wave (km/s) = 5.19565 7.14305 6.24571
#
# Compressibility (1/GPa) = 0.01962716
#
# Stress axis : x y z
#
# Youngs Moduli (GPa) = 50.34389 63.52399 71.47503
#
# Poissons Ratio (x) = 0.11324 0.64804
# Poissons Ratio (y) = 0.08975 0.29557
# Poissons Ratio (z) = 0.45645 0.26269
#
# Static dielectric constant tensor:
#      x y z
#    x 1.625600 0.000000 0.000000 
#    y 0.000000 1.627010 0.000000 
#    z 0.000000 0.000000 1.738740 
# 
# From -- ./inp_files/30492.got.cif
#   From: 2010.05.17/outbox.cif.g08.bks.cpg/sg21_16_cif.got.tgz:30492.got - 2010.06.03 23:14:55.
