data_PCOD9323353
_publ_section_title
;
Structure prediction by ZEFSAII (Michael W. Deem and Ramdas Pophale) SiO2 
 PCOD9323353
Probable space group: C 2 2 2
;
_chemical_formula_sum "Si O2"
_cell_formula_units_Z 44
_cell_length_a 30.902692
_cell_length_b 5.294883
_cell_length_c 15.870430
_cell_angle_alpha 90.000000
_cell_angle_beta 90.000000
_cell_angle_gamma 90.000000
_cell_volume 2596.817178
_symmetry_space_group_name_H-M "C 2 2 2"
_symmetry_group_IT_number 21
_symmetry_cell_setting 'orthorhombic'
loop_
_space_group_symop_operation_xyz
x,y,z
-x,-y,z
x,-y,-z
-x,y,-z
1/2+x,1/2+y,z
1/2-x,1/2-y,z
1/2+x,1/2-y,-z
1/2-x,1/2+y,-z
loop_
_atom_site_type_symbol
_atom_site_label
_atom_site_fract_x
_atom_site_fract_y
_atom_site_fract_z
Si Si1 0.480918 0.250560 0.902644
Si Si2 0.678378 0.888199 0.223293
Si Si3 0.750000 0.250000 0.886316
Si Si4 0.720806 0.500000 0.500000
Si Si5 0.118169 0.367913 0.909784
Si Si6 0.320461 0.500000 0.000000
Si Si7 0.799685 0.140438 0.318514
O O1 0.500000 0.500000 0.862900
O O2 0.429526 0.239540 0.894648
O O3 0.500000 0.000000 0.862995
O O4 0.500000 0.250546 0.000000
O O5 0.723602 0.941823 0.172906
O O6 0.687013 0.606342 0.261523
O O7 0.638932 0.941427 0.158319
O O8 0.673961 0.111207 0.291230
O O9 0.711677 0.329650 0.947038
O O10 0.750000 0.250000 0.516747
O O11 0.694571 0.444481 0.415058
O O12 0.114143 0.500000 0.000000
O O13 0.151301 0.144146 0.930808
O O14 0.750000 0.250000 0.316282
#
# Coordination Sequence:
#
# PCOD9323353 Si02
#       7
#     8   8   4   4   8   4   8
#     4  10  20  36  58  76  95 130 181 225 285 330
#     4  12  24  35  53  76 111 144 187 234 278 317
#     4  12  22  36  48  68  98 162 190 240 262 312
#     4  10  20  36  58  80  98 132 185 240 277 336
#     4  12  24  37  53  79 106 145 193 237 274 330
#     4  12  24  38  49  66 104 144 215 228 264 302
#     4  11  21  38  55  77 104 142 184 235 284 330
#
# _framework density 16.943819999999999
#
# number of rings (size 3 to 8) (size 9 to 14) (size 15 to 20)
#    0.000    0.727    5.455    5.455    0.000    0.000 
#    0.000    0.000    0.000    0.000    0.000    0.000 
#    0.000    0.000    0.000   12.273    0.000    0.545 
#
# Total GULP energy -122514.848687 kJ/mol
# GULP energy per Si atom -5568.856758 kJ/mol
# Density = 1.690525 g / cm^3
# Si number density = 16.943820 Si / 1000 Ang^3
#
#
#
# Elastic Constant Matrix: (Units=GPa)
#
#
# Indices 1 2 3 4 5 6 
#
# 1 117.8762 43.8847 29.6540 0.0000 0.0000 0.0000
# 2 43.8847 127.6527 34.7010 0.0000 0.0000 0.0000
# 3 29.6540 34.7010 84.3874 0.0000 0.0000 0.0000
# 4 0.0000 0.0000 0.0000 28.2253 0.0000 0.0000
# 5 0.0000 0.0000 0.0000 0.0000 -221.5301 0.0000
# 6 0.0000 0.0000 0.0000 0.0000 0.0000 35.9597
#
#
#
# Elastic Compliance Matrix: (Units=1/GPa)
#
#
# Indices 1 2 3 4 5 6 
#
# 1 0.010142 -0.002835 -0.002398 0.000000 0.000000 0.000000
# 2 -0.002835 0.009612 -0.002956 0.000000 0.000000 0.000000
# 3 -0.002398 -0.002956 0.013909 0.000000 0.000000 0.000000
# 4 0.000000 0.000000 0.000000 0.035429 0.000000 0.000000
# 5 0.000000 0.000000 0.000000 0.000000 -0.004514 0.000000
# 6 0.000000 0.000000 0.000000 0.000000 0.000000 0.027809
#
#
# Mechanical properties :
#
#
# Convention : Reuss Voigt Hill
#
# Bulk Modulus (GPa) = 57.85762 60.71061 59.28412
# Shear Modulus (GPa) = 43.65784 -16.69059 13.48363
#
# Velocity S-wave (km/s) = 5.08155 -3.14196 2.82403
# Velocity P-wave (km/s) = 8.28556 4.76925 6.76004
#
# Compressibility (1/GPa) = 0.01728381
#
# Stress axis : x y z
#
# Youngs Moduli (GPa) = 98.59812 104.03707 71.89800
#
# Poissons Ratio (x) = 0.29492 0.17243
# Poissons Ratio (y) = 0.27950 0.21256
# Poissons Ratio (z) = 0.23647 0.30758
#
# Static dielectric constant tensor:
#      x y z
#    x 1.387000 0.000000 0.000000 
#    y 0.000000 1.681390 0.000000 
#    z 0.000000 0.000000 1.623040 
# 
# From -- ./inp_files/33763.got.cif
#   From: 2010.05.17/outbox.cif.g08.bks.cpg/sg21_17_cif.got.tgz:33763.got - 2010.06.03 23:14:55.
