data_PCOD9323571
_publ_section_title
;
Structure prediction by ZEFSAII (Michael W. Deem and Ramdas Pophale) SiO2 
 PCOD9323571
Probable space group: C 2 2 2
;
_chemical_formula_sum "Si O2"
_cell_formula_units_Z 36
_cell_length_a 19.623428
_cell_length_b 8.764325
_cell_length_c 10.215231
_cell_angle_alpha 90.000000
_cell_angle_beta 90.000000
_cell_angle_gamma 90.000000
_cell_volume 1756.877746
_symmetry_space_group_name_H-M "C 2 2 2"
_symmetry_group_IT_number 21
_symmetry_cell_setting 'orthorhombic'
loop_
_space_group_symop_operation_xyz
x,y,z
-x,-y,z
x,-y,-z
-x,y,-z
1/2+x,1/2+y,z
1/2-x,1/2-y,z
1/2+x,1/2-y,-z
1/2-x,1/2+y,-z
loop_
_atom_site_type_symbol
_atom_site_label
_atom_site_fract_x
_atom_site_fract_y
_atom_site_fract_z
Si Si1 0.863741 0.597023 0.870273
Si Si2 0.564225 0.109259 0.665638
Si Si3 0.620426 0.666039 0.559032
Si Si4 0.250000 0.750000 0.261950
Si Si5 0.025994 0.163559 0.804563
O O1 0.886254 0.504508 0.741035
O O2 0.785703 0.633762 0.838026
O O3 0.914439 0.744296 0.879972
O O4 0.872131 0.500000 0.000000
O O5 0.598581 0.205942 0.548270
O O6 0.537133 0.225675 0.776471
O O7 0.500000 0.000000 0.631627
O O8 0.632137 0.500000 0.500000
O O9 0.687720 0.703874 0.643421
O O10 0.558354 0.645582 0.659894
O O11 0.000000 0.000000 0.852204
#
# Coordination Sequence:
#
# PCOD9323571 Si02
#       5
#     8   8   8   4   8
#     4  10  24  48  66  90 131 184 234 275 314 391
#     4  10  22  38  68 101 132 175 213 263 346 400
#     4  11  22  37  64  99 141 166 208 275 335 403
#     4  10  26  42  62  92 128 176 236 264 332 388
#     4  10  20  38  66 101 134 164 209 270 347 402
#
# _framework density 20.490895999999999
#
# number of rings (size 3 to 8) (size 9 to 14) (size 15 to 20)
#    0.000    1.778    2.222    0.667    3.111   15.556 
#    4.000    2.222    0.000    0.000    0.000    0.000 
#    0.000    0.000    0.000    0.000    0.000    0.000 
#
# Total GULP energy -100409.802090 kJ/mol
# GULP energy per Si atom -5578.322338 kJ/mol
# Density = 2.044426 g / cm^3
# Si number density = 20.490896 Si / 1000 Ang^3
#
#
#
# Elastic Constant Matrix: (Units=GPa)
#
#
# Indices 1 2 3 4 5 6 
#
# 1 94.2294 49.0592 31.1501 0.0000 0.0000 0.0000
# 2 49.0592 146.1910 53.6524 0.0000 0.0000 0.0000
# 3 31.1501 53.6524 104.7581 0.0000 0.0000 0.0000
# 4 0.0000 0.0000 0.0000 29.5892 0.0000 0.0000
# 5 0.0000 0.0000 0.0000 0.0000 4.9978 0.0000
# 6 0.0000 0.0000 0.0000 0.0000 0.0000 34.0857
#
#
#
# Elastic Compliance Matrix: (Units=1/GPa)
#
#
# Indices 1 2 3 4 5 6 
#
# 1 0.013204 -0.003682 -0.002040 0.000000 0.000000 0.000000
# 2 -0.003682 0.009451 -0.003745 0.000000 0.000000 0.000000
# 3 -0.002040 -0.003745 0.012071 0.000000 0.000000 0.000000
# 4 0.000000 0.000000 0.000000 0.033796 0.000000 0.000000
# 5 0.000000 0.000000 0.000000 0.000000 0.200087 0.000000
# 6 0.000000 0.000000 0.000000 0.000000 0.000000 0.029338
#
#
# Mechanical properties :
#
#
# Convention : Reuss Voigt Hill
#
# Bulk Modulus (GPa) = 63.33302 68.10023 65.71663
# Shear Modulus (GPa) = 15.52096 27.82231 21.67164
#
# Velocity S-wave (km/s) = 2.75518 3.68882 3.25564
# Velocity P-wave (km/s) = 6.41064 7.17284 6.80243
#
# Compressibility (1/GPa) = 0.01578955
#
# Stress axis : x y z
#
# Youngs Moduli (GPa) = 75.73460 105.81373 82.84551
#
# Poissons Ratio (x) = 0.38963 0.16904
# Poissons Ratio (y) = 0.27887 0.31028
# Poissons Ratio (z) = 0.15453 0.39630
#
# Static dielectric constant tensor:
#      x y z
#    x 1.753520 0.000000 0.000000 
#    y 0.000000 1.813960 0.000000 
#    z 0.000000 0.000000 1.749940 
# 
# From -- ./inp_files/10574.got.cif
#   From: 2010.05.17/outbox.cif.g08.bks.cpg/sg21_6_cif.got.tgz:10574.got - 2010.06.03 23:14:55.
