data_PCOD9323115
_publ_section_title
;
Structure prediction by ZEFSAII (Michael W. Deem and Ramdas Pophale) SiO2 
 PCOD9323115
Probable space group: C 2 2 2
;
_chemical_formula_sum "Si O2"
_cell_formula_units_Z 52
_cell_length_a 4.979199
_cell_length_b 29.411401
_cell_length_c 20.204817
_cell_angle_alpha 90.000000
_cell_angle_beta 90.000000
_cell_angle_gamma 90.000000
_cell_volume 2958.898839
_symmetry_space_group_name_H-M "C 2 2 2"
_symmetry_group_IT_number 21
_symmetry_cell_setting 'orthorhombic'
loop_
_space_group_symop_operation_xyz
x,y,z
-x,-y,z
x,-y,-z
-x,y,-z
1/2+x,1/2+y,z
1/2-x,1/2-y,z
1/2+x,1/2-y,-z
1/2-x,1/2+y,-z
loop_
_atom_site_type_symbol
_atom_site_label
_atom_site_fract_x
_atom_site_fract_y
_atom_site_fract_z
Si Si1 0.755116 0.940816 0.952800
Si Si2 0.467608 0.445579 0.426262
Si Si3 0.500000 0.500000 0.846515
Si Si4 0.523291 0.054388 0.341515
Si Si5 0.287047 0.867511 0.148757
Si Si6 0.995059 0.283459 0.072773
Si Si7 0.710605 0.590559 0.217132
O O1 0.810529 0.892456 0.917745
O O2 0.775949 0.977508 0.893802
O O3 0.500000 0.941287 0.000000
O O4 0.000000 0.950477 0.000000
O O5 0.500000 0.500000 0.430656
O O6 0.500000 0.426239 0.500000
O O7 0.164608 0.438040 0.404589
O O8 0.678037 0.433217 0.367200
O O9 0.603911 0.459153 0.801758
O O10 0.377867 0.084166 0.285125
O O11 0.500000 0.000000 0.324106
O O12 0.402747 0.818166 0.129964
O O13 0.553901 0.894911 0.167983
O O14 0.046327 0.875986 0.202402
O O15 0.750000 0.250000 0.064302
O O16 0.250000 0.250000 0.085766
O O17 0.000000 0.307392 0.000000
#
# Coordination Sequence:
#
# PCOD9323115 Si02
#       7
#     8   8   4   8   8   8   8
#     4  11  23  36  49  66  90 124 163 211 261 309
#     4   9  17  30  46  69  94 123 171 228 271 288
#     4  10  25  34  48  66  93 132 176 216 250 302
#     4  10  20  30  49  68  94 137 176 218 253 295
#     4  11  23  38  52  74  99 127 159 213 266 325
#     4  10  21  37  60  81  97 120 158 212 277 348
#     4  11  24  35  50  70 102 137 176 210 253 302
#
# _framework density 17.574104999999999
#
# number of rings (size 3 to 8) (size 9 to 14) (size 15 to 20)
#    0.000    1.692    0.000    4.846    7.538    8.615 
#    0.000    0.000    0.000    0.000    0.000    0.000 
#    0.000    0.000    0.000    0.000    0.000   92.308 
#
# Total GULP energy -144799.300916 kJ/mol
# GULP energy per Si atom -5569.203881 kJ/mol
# Density = 1.753411 g / cm^3
# Si number density = 17.574105 Si / 1000 Ang^3
#
#
#
# Elastic Constant Matrix: (Units=GPa)
#
#
# Indices 1 2 3 4 5 6 
#
# 1 93.2503 6.1600 8.8367 0.0000 0.0000 0.0000
# 2 6.1600 40.7237 18.3005 0.0000 0.0000 0.0000
# 3 8.8367 18.3005 53.1055 0.0000 0.0000 0.0000
# 4 0.0000 0.0000 0.0000 2.6120 0.0000 0.0000
# 5 0.0000 0.0000 0.0000 0.0000 16.5038 0.0000
# 6 0.0000 0.0000 0.0000 0.0000 0.0000 21.4360
#
#
#
# Elastic Compliance Matrix: (Units=1/GPa)
#
#
# Indices 1 2 3 4 5 6 
#
# 1 0.010929 -0.000989 -0.001478 0.000000 0.000000 0.000000
# 2 -0.000989 0.029145 -0.009879 0.000000 0.000000 0.000000
# 3 -0.001478 -0.009879 0.022481 0.000000 0.000000 0.000000
# 4 0.000000 0.000000 0.000000 0.382844 0.000000 0.000000
# 5 0.000000 0.000000 0.000000 0.000000 0.060592 0.000000
# 6 0.000000 0.000000 0.000000 0.000000 0.000000 0.046651
#
#
# Mechanical properties :
#
#
# Convention : Reuss Voigt Hill
#
# Bulk Modulus (GPa) = 26.41094 28.18601 27.29848
# Shear Modulus (GPa) = 8.47523 18.36251 13.41887
#
# Velocity S-wave (km/s) = 2.19842 3.23594 2.76626
# Velocity P-wave (km/s) = 4.63735 5.48041 5.07641
#
# Compressibility (1/GPa) = 0.03786309
#
# Stress axis : x y z
#
# Youngs Moduli (GPa) = 91.49795 34.31149 44.48265
#
# Poissons Ratio (x) = 0.03394 0.06573
# Poissons Ratio (y) = 0.09050 0.43944
# Poissons Ratio (z) = 0.13521 0.33896
#
# Static dielectric constant tensor:
#      x y z
#    x 1.641400 0.000000 0.000000 
#    y 0.000000 1.611750 0.000000 
#    z 0.000000 0.000000 1.638950 
# 
# From -- ./inp_files/35149.got.cif
#   From: 2010.05.17/outbox.cif.g08.bks.cpg/sg21_18_cif.got.tgz:35149.got - 2010.06.03 23:14:55.
