data_PCOD9323940
_publ_section_title
;
Structure prediction by ZEFSAII (Michael W. Deem and Ramdas Pophale) SiO2 
 PCOD9323940
Probable space group: C 2 2 2
;
_chemical_formula_sum "Si O2"
_cell_formula_units_Z 38
_cell_length_a 5.151171
_cell_length_b 25.159117
_cell_length_c 15.549645
_cell_angle_alpha 90.000000
_cell_angle_beta 90.000000
_cell_angle_gamma 90.000000
_cell_volume 2015.217103
_symmetry_space_group_name_H-M "C 2 2 2"
_symmetry_group_IT_number 21
_symmetry_cell_setting 'orthorhombic'
loop_
_space_group_symop_operation_xyz
x,y,z
-x,-y,z
x,-y,-z
-x,y,-z
1/2+x,1/2+y,z
1/2-x,1/2-y,z
1/2+x,1/2-y,-z
1/2-x,1/2+y,-z
loop_
_atom_site_type_symbol
_atom_site_label
_atom_site_fract_x
_atom_site_fract_y
_atom_site_fract_z
Si Si1 0.092204 0.344334 0.322794
Si Si2 0.750000 0.750000 0.443612
Si Si3 0.106474 0.865689 0.231076
Si Si4 0.160739 0.551372 0.351501
Si Si5 0.248665 0.189107 0.939534
Si Si6 0.500000 0.500000 0.500000
O O1 0.193571 0.300669 0.385922
O O2 0.307674 0.351929 0.248416
O O3 0.807830 0.329908 0.286754
O O4 0.042451 0.400936 0.368691
O O5 0.500000 0.738824 0.500000
O O6 0.166187 0.923304 0.274312
O O7 0.202059 0.853954 0.135184
O O8 0.324683 0.535253 0.435307
O O9 0.000000 0.500000 0.323735
O O10 0.250000 0.250000 0.903321
O O11 0.500000 0.181303 0.000000
O O12 0.000000 0.186872 0.000000
#
# Coordination Sequence:
#
# PCOD9323940 Si02
#       6
#     8   4   8   8   8   2
#     4  10  24  41  62  92 122 179 214 261 337 394
#     4  12  26  42  58  88 130 174 222 272 322 408
#     4  10  22  40  64  93 130 168 212 270 331 398
#     4  10  24  41  65  96 124 172 225 285 332 387
#     4  10  21  37  64 101 131 168 215 270 322 393
#     4  12  22  44  68  98 134 166 244 302 332 376
#
# _framework density 18.856531
#
# number of rings (size 3 to 8) (size 9 to 14) (size 15 to 20)
#    1.263    0.421    0.000    4.105    2.947    3.368 
#    1.895    0.000    0.000    0.632    0.000    0.000 
#    0.000    0.000    0.000    0.000    0.000    0.000 
#
# Total GULP energy -105866.689347 kJ/mol
# GULP energy per Si atom -5571.931018 kJ/mol
# Density = 1.881361 g / cm^3
# Si number density = 18.856531 Si / 1000 Ang^3
#
#
#
# Elastic Constant Matrix: (Units=GPa)
#
#
# Indices 1 2 3 4 5 6 
#
# 1 96.8197 16.0470 19.1592 0.0000 0.0000 0.0000
# 2 16.0470 90.4360 42.7406 0.0000 0.0000 0.0000
# 3 19.1592 42.7406 83.7339 0.0000 0.0000 0.0000
# 4 0.0000 0.0000 0.0000 55.0373 0.0000 0.0000
# 5 0.0000 0.0000 0.0000 0.0000 21.2824 0.0000
# 6 0.0000 0.0000 0.0000 0.0000 0.0000 29.0704
#
#
#
# Elastic Compliance Matrix: (Units=1/GPa)
#
#
# Indices 1 2 3 4 5 6 
#
# 1 0.010886 -0.000994 -0.001983 0.000000 0.000000 0.000000
# 2 -0.000994 0.014664 -0.007257 0.000000 0.000000 0.000000
# 3 -0.001983 -0.007257 0.016101 0.000000 0.000000 0.000000
# 4 0.000000 0.000000 0.000000 0.018169 0.000000 0.000000
# 5 0.000000 0.000000 0.000000 0.000000 0.046987 0.000000
# 6 0.000000 0.000000 0.000000 0.000000 0.000000 0.034399
#
#
# Mechanical properties :
#
#
# Convention : Reuss Voigt Hill
#
# Bulk Modulus (GPa) = 47.21323 47.43145 47.32234
# Shear Modulus (GPa) = 29.63202 33.94755 31.78979
#
# Velocity S-wave (km/s) = 3.96845 4.24761 4.11040
# Velocity P-wave (km/s) = 6.78900 7.01888 6.90490
#
# Compressibility (1/GPa) = 0.02118050
#
# Stress axis : x y z
#
# Youngs Moduli (GPa) = 91.86345 68.19482 62.10862
#
# Poissons Ratio (x) = 0.06780 0.12318
# Poissons Ratio (y) = 0.09134 0.45075
# Poissons Ratio (z) = 0.18219 0.49492
#
# Static dielectric constant tensor:
#      x y z
#    x 1.660800 0.000000 0.000000 
#    y 0.000000 1.659790 0.000000 
#    z 0.000000 0.000000 1.631590 
# 
# From -- ./inp_files/21222.got.cif
#   From: 2010.05.17/outbox.cif.g08.bks.cpg/sg21_11_cif.got.tgz:21222.got - 2010.06.03 23:14:55.
