data_PCOD9323825
_publ_section_title
;
Structure prediction by ZEFSAII (Michael W. Deem and Ramdas Pophale) SiO2 
 PCOD9323825
Probable space group: C 2 2 2
;
_chemical_formula_sum "Si O2"
_cell_formula_units_Z 28
_cell_length_a 5.200026
_cell_length_b 33.046761
_cell_length_c 7.220730
_cell_angle_alpha 90.000000
_cell_angle_beta 90.000000
_cell_angle_gamma 90.000000
_cell_volume 1240.839245
_symmetry_space_group_name_H-M "C 2 2 2"
_symmetry_group_IT_number 21
_symmetry_cell_setting 'orthorhombic'
loop_
_space_group_symop_operation_xyz
x,y,z
-x,-y,z
x,-y,-z
-x,y,-z
1/2+x,1/2+y,z
1/2-x,1/2-y,z
1/2+x,1/2-y,-z
1/2-x,1/2+y,-z
loop_
_atom_site_type_symbol
_atom_site_label
_atom_site_fract_x
_atom_site_fract_y
_atom_site_fract_z
Si Si1 0.242879 0.018718 0.706804
Si Si2 0.000000 0.723371 0.500000
Si Si3 0.982024 0.894912 0.777451
Si Si4 0.989615 0.652795 0.222751
O O1 0.165455 0.065579 0.699908
O O2 0.500000 0.000000 0.791299
O O3 0.247921 0.000000 0.500000
O O4 0.000000 0.000000 0.805723
O O5 0.250000 0.750000 0.455647
O O6 0.070112 0.693844 0.670862
O O7 0.779605 0.860069 0.727056
O O8 0.271616 0.881025 0.725893
O O9 0.000000 0.900324 0.000000
O O10 0.000000 0.656809 0.000000
#
# Coordination Sequence:
#
# PCOD9323825 Si02
#       4
#     8   4   8   8
#     4  10  21  35  54  84 118 155 203 258 317 363
#     4  12  26  42  66 102 133 162 201 252 320 392
#     4  10  21  40  62  86 119 165 216 262 308 370
#     4  10  23  43  67  92 123 165 210 256 309 371
#
# _framework density 22.565372
#
# number of rings (size 3 to 8) (size 9 to 14) (size 15 to 20)
#    0.000    1.714    0.000    3.429    0.000    8.571 
#    0.000    1.429    0.000    0.000    0.000    0.000 
#    0.000    0.000    0.000    0.000    0.000    0.000 
#
# Total GULP energy -78067.365001 kJ/mol
# GULP energy per Si atom -5576.240357 kJ/mol
# Density = 2.251401 g / cm^3
# Si number density = 22.565372 Si / 1000 Ang^3
#
#
#
# Elastic Constant Matrix: (Units=GPa)
#
#
# Indices 1 2 3 4 5 6 
#
# 1 196.5202 38.9880 20.3239 0.0000 0.0000 0.0000
# 2 38.9880 112.2644 26.1824 0.0000 0.0000 0.0000
# 3 20.3239 26.1824 103.2920 0.0000 0.0000 0.0000
# 4 0.0000 0.0000 0.0000 51.3742 0.0000 0.0000
# 5 0.0000 0.0000 0.0000 0.0000 -14.3269 0.0000
# 6 0.0000 0.0000 0.0000 0.0000 0.0000 48.6827
#
#
#
# Elastic Compliance Matrix: (Units=1/GPa)
#
#
# Indices 1 2 3 4 5 6 
#
# 1 0.005504 -0.001763 -0.000636 0.000000 0.000000 0.000000
# 2 -0.001763 0.010032 -0.002196 0.000000 0.000000 0.000000
# 3 -0.000636 -0.002196 0.010363 0.000000 0.000000 0.000000
# 4 0.000000 0.000000 0.000000 0.019465 0.000000 0.000000
# 5 0.000000 0.000000 0.000000 0.000000 -0.069799 0.000000
# 6 0.000000 0.000000 0.000000 0.000000 0.000000 0.020541
#
#
# Mechanical properties :
#
#
# Convention : Reuss Voigt Hill
#
# Bulk Modulus (GPa) = 59.84884 64.78504 62.31694
# Shear Modulus (GPa) = 460.12816 38.91815 249.52315
#
# Velocity S-wave (km/s) = 14.29516 4.15744 10.52701
# Velocity P-wave (km/s) = 17.29303 7.19847 13.24513
#
# Compressibility (1/GPa) = 0.01670876
#
# Stress axis : x y z
#
# Youngs Moduli (GPa) = 181.68225 99.68088 96.49639
#
# Poissons Ratio (x) = 0.17575 0.06138
# Poissons Ratio (y) = 0.32034 0.21190
# Poissons Ratio (z) = 0.11556 0.21890
#
# Static dielectric constant tensor:
#      x y z
#    x 1.821820 0.000000 0.000000 
#    y 0.000000 1.918280 0.000000 
#    z 0.000000 0.000000 1.819610 
# 
# From -- ./inp_files/8841.got.cif
#   From: 2010.05.17/outbox.cif.g08.bks.cpg/sg21_5_cif.got.tgz:8841.got - 2010.06.03 23:14:55.
