data_PCOD9323715
_publ_section_title
;
Structure prediction by ZEFSAII (Michael W. Deem and Ramdas Pophale) SiO2 
 PCOD9323715
Probable space group: C 2 2 2
;
_chemical_formula_sum "Si O2"
_cell_formula_units_Z 48
_cell_length_a 17.511264
_cell_length_b 14.990079
_cell_length_c 7.189642
_cell_angle_alpha 90.000000
_cell_angle_beta 90.000000
_cell_angle_gamma 90.000000
_cell_volume 1887.246736
_symmetry_space_group_name_H-M "C 2 2 2"
_symmetry_group_IT_number 21
_symmetry_cell_setting 'orthorhombic'
loop_
_space_group_symop_operation_xyz
x,y,z
-x,-y,z
x,-y,-z
-x,y,-z
1/2+x,1/2+y,z
1/2-x,1/2-y,z
1/2+x,1/2-y,-z
1/2-x,1/2+y,-z
loop_
_atom_site_type_symbol
_atom_site_label
_atom_site_fract_x
_atom_site_fract_y
_atom_site_fract_z
Si Si1 0.564671 0.148922 0.167320
Si Si2 0.804063 0.028416 0.283086
Si Si3 0.631808 0.983011 0.212195
Si Si4 0.923701 0.117475 0.757534
Si Si5 0.079344 0.838755 0.318829
Si Si6 0.334738 0.790391 0.861895
O O1 0.577421 0.060594 0.294263
O O2 0.555636 0.236917 0.291580
O O3 0.500000 0.145222 0.000000
O O4 0.645672 0.171708 0.065133
O O5 0.719160 0.013426 0.218078
O O6 0.838161 0.126805 0.253395
O O7 0.801539 0.000000 0.500000
O O8 0.864604 0.959728 0.196118
O O9 0.639321 0.877762 0.259776
O O10 0.604450 0.000000 0.000000
O O11 0.920745 0.133067 0.533924
O O12 0.891825 0.208408 0.840631
O O13 0.013503 0.106701 0.789172
O O14 0.250000 0.750000 0.829964
#
# Coordination Sequence:
#
# PCOD9323715 Si02
#       6
#     8   8   8   8   8   8
#     4  11  24  43  62  89 123 170 213 260 310 373
#     4  10  21  38  63  94 129 159 198 260 320 377
#     4  10  24  39  60  89 122 163 209 256 309 372
#     4  10  20  41  63  91 124 161 208 253 318 376
#     4  10  22  38  64  92 124 165 204 255 313 384
#     4  11  22  40  65  88 123 163 205 259 316 378
#
# _framework density 25.433878
#
# number of rings (size 3 to 8) (size 9 to 14) (size 15 to 20)
#    0.000    1.667    3.333    0.500    4.667    6.333 
#    0.000    0.000    0.000    2.000    0.000    0.000 
#    0.000    0.000    0.000    0.000    0.000    0.000 
#
# Total GULP energy -133831.389223 kJ/mol
# GULP energy per Si atom -5576.307884 kJ/mol
# Density = 2.537599 g / cm^3
# Si number density = 25.433878 Si / 1000 Ang^3
#
#
#
# Elastic Constant Matrix: (Units=GPa)
#
#
# Indices 1 2 3 4 5 6 
#
# 1 81.5201 56.4658 -1.8671 0.0000 0.0000 0.0000
# 2 56.4658 156.4256 11.6136 0.0000 0.0000 0.0000
# 3 -1.8671 11.6136 53.0043 0.0000 0.0000 0.0000
# 4 0.0000 0.0000 0.0000 19.6356 0.0000 0.0000
# 5 0.0000 0.0000 0.0000 0.0000 -17.7628 0.0000
# 6 0.0000 0.0000 0.0000 0.0000 0.0000 51.5053
#
#
#
# Elastic Compliance Matrix: (Units=1/GPa)
#
#
# Indices 1 2 3 4 5 6 
#
# 1 0.016547 -0.006116 0.001923 0.000000 0.000000 0.000000
# 2 -0.006116 0.008759 -0.002135 0.000000 0.000000 0.000000
# 3 0.001923 -0.002135 0.019402 0.000000 0.000000 0.000000
# 4 0.000000 0.000000 0.000000 0.050928 0.000000 0.000000
# 5 0.000000 0.000000 0.000000 0.000000 -0.056297 0.000000
# 6 0.000000 0.000000 0.000000 0.000000 0.000000 0.019415
#
#
# Mechanical properties :
#
#
# Convention : Reuss Voigt Hill
#
# Bulk Modulus (GPa) = 31.19847 47.04162 39.12005
# Shear Modulus (GPa) = 60.90622 25.65813 43.28218
#
# Velocity S-wave (km/s) = 4.89886 3.17963 4.12971
# Velocity P-wave (km/s) = 6.65520 5.65826 6.17687
#
# Compressibility (1/GPa) = 0.03205285
#
# Stress axis : x y z
#
# Youngs Moduli (GPa) = 60.43327 114.16858 51.54155
#
# Poissons Ratio (x) = 0.69824 -0.09911
# Poissons Ratio (y) = 0.36960 0.11002
# Poissons Ratio (z) = -0.11621 0.24370
#
# Static dielectric constant tensor:
#      x y z
#    x 1.993090 0.000000 0.000000 
#    y 0.000000 2.346980 0.000000 
#    z 0.000000 0.000000 2.177580 
# 
# From -- ./inp_files/16436.got.cif
#   From: 2010.05.17/outbox.cif.g08.bks.cpg/sg21_9_cif.got.tgz:16436.got - 2010.06.03 23:14:55.
