data_PCOD9323095
_publ_section_title
;
Structure prediction by ZEFSAII (Michael W. Deem and Ramdas Pophale) SiO2 
 PCOD9323095
Probable space group: C 2 2 2
;
_chemical_formula_sum "Si O2"
_cell_formula_units_Z 44
_cell_length_a 15.068324
_cell_length_b 14.492713
_cell_length_c 9.240871
_cell_angle_alpha 90.000000
_cell_angle_beta 90.000000
_cell_angle_gamma 90.000000
_cell_volume 2018.029681
_symmetry_space_group_name_H-M "C 2 2 2"
_symmetry_group_IT_number 21
_symmetry_cell_setting 'orthorhombic'
loop_
_space_group_symop_operation_xyz
x,y,z
-x,-y,z
x,-y,-z
-x,y,-z
1/2+x,1/2+y,z
1/2-x,1/2-y,z
1/2+x,1/2-y,-z
1/2-x,1/2+y,-z
loop_
_atom_site_type_symbol
_atom_site_label
_atom_site_fract_x
_atom_site_fract_y
_atom_site_fract_z
Si Si1 0.000000 0.000000 0.000000
Si Si2 0.099889 0.292952 0.957854
Si Si3 0.629908 0.847965 0.416105
Si Si4 0.750000 0.750000 0.191944
Si Si5 0.000000 0.184149 0.500000
Si Si6 0.097231 0.884314 0.234195
Si Si7 0.713645 0.856046 0.728568
Si Si8 0.000000 0.500000 0.500000
O O1 0.059930 0.942741 0.105810
O O2 0.087857 0.218330 0.831050
O O3 0.155714 0.370347 0.872428
O O4 0.164234 0.247220 0.081264
O O5 0.000000 0.319644 0.000000
O O6 0.710166 0.828429 0.302877
O O7 0.573305 0.752916 0.429464
O O8 0.666189 0.867303 0.576878
O O9 0.560475 0.932434 0.398998
O O10 0.957209 0.120105 0.379838
O O11 0.197081 0.913800 0.265261
O O12 0.750000 0.750000 0.729719
#
# Coordination Sequence:
#
# PCOD9323095 Si02
#       8
#     2   8   8   4   4   8   8   2
#     4  12  28  42  64  96 158 176 220 300 388 386
#     4  11  21  38  67 104 131 167 237 303 333 406
#     4  11  22  42  67 105 135 187 236 298 349 426
#     4  12  22  36  74 106 126 186 254 276 348 444
#     4  11  20  38  78  93 126 180 260 277 334 430
#     4  11  22  42  61  98 136 184 224 296 350 418
#     4  10  19  41  66  94 133 171 235 296 331 404
#     4  10  28  44  64 104 164 180 220 320 376 392
#
# _framework density 21.803446000000001
#
# number of rings (size 3 to 8) (size 9 to 14) (size 15 to 20)
#    0.000    1.091    8.182    1.091    2.545    0.364 
#    3.273    0.000    0.000    1.091    0.000    0.000 
#    0.000    0.000    0.000    0.000    0.000    0.000 
#
# Total GULP energy -122577.153381 kJ/mol
# GULP energy per Si atom -5571.688790 kJ/mol
# Density = 2.175382 g / cm^3
# Si number density = 21.803446 Si / 1000 Ang^3
#
#
#
# Elastic Constant Matrix: (Units=GPa)
#
#
# Indices 1 2 3 4 5 6 
#
# 1 178.3270 32.1950 96.5996 0.0000 0.0000 0.0000
# 2 32.1950 19.7574 28.0674 0.0000 0.0000 0.0000
# 3 96.5996 28.0674 139.5171 0.0000 0.0000 0.0000
# 4 0.0000 0.0000 0.0000-1519.3486 0.0000 0.0000
# 5 0.0000 0.0000 0.0000 0.0000 55.9904 0.0000
# 6 0.0000 0.0000 0.0000 0.0000 0.0000 -0.6516
#
#
#
# Elastic Compliance Matrix: (Units=1/GPa)
#
#
# Indices 1 2 3 4 5 6 
#
# 1 0.010010 -0.009053 -0.005110 0.000000 0.000000 0.000000
# 2 -0.009053 0.079054 -0.009636 0.000000 0.000000 0.000000
# 3 -0.005110 -0.009636 0.012644 0.000000 0.000000 0.000000
# 4 0.000000 0.000000 0.000000 -0.000658 0.000000 0.000000
# 5 0.000000 0.000000 0.000000 0.000000 0.017860 0.000000
# 6 0.000000 0.000000 0.000000 0.000000 0.000000 -1.534795
#
#
# Mechanical properties :
#
#
# Convention : Reuss Voigt Hill
#
# Bulk Modulus (GPa) = 18.48030 72.36951 45.42491
# Shear Modulus (GPa) = -3.70301 -280.75266 -142.22783
#
# Velocity S-wave (km/s) = -1.30463 -11.35979 -8.08538
# Velocity P-wave (km/s) = 2.49497 11.78117 8.14159
#
# Compressibility (1/GPa) = 0.05411167
#
# Stress axis : x y z
#
# Youngs Moduli (GPa) = 99.90161 12.64961 79.09011
#
# Poissons Ratio (x) = 0.11451 0.40411
# Poissons Ratio (y) = 0.90437 0.76209
# Poissons Ratio (z) = 0.51045 0.12189
#
# Static dielectric constant tensor:
#      x y z
#    x 2.206720 0.000000 0.000000 
#    y 0.000000 1.751920 0.000000 
#    z 0.000000 0.000000 1.783130 
# 
# From -- ./inp_files/14934.got.cif
#   From: 2010.05.17/outbox.cif.g08.bks.cpg/sg21_8_cif.got.tgz:14934.got - 2010.06.03 23:14:55.
