data_PCOD9323924
_publ_section_title
;
Structure prediction by ZEFSAII (Michael W. Deem and Ramdas Pophale) SiO2 
 PCOD9323924
Probable space group: C 2 2 2
;
_chemical_formula_sum "Si O2"
_cell_formula_units_Z 48
_cell_length_a 7.801189
_cell_length_b 19.312998
_cell_length_c 17.087396
_cell_angle_alpha 90.000000
_cell_angle_beta 90.000000
_cell_angle_gamma 90.000000
_cell_volume 2574.461370
_symmetry_space_group_name_H-M "C 2 2 2"
_symmetry_group_IT_number 21
_symmetry_cell_setting 'orthorhombic'
loop_
_space_group_symop_operation_xyz
x,y,z
-x,-y,z
x,-y,-z
-x,y,-z
1/2+x,1/2+y,z
1/2-x,1/2-y,z
1/2+x,1/2-y,-z
1/2-x,1/2+y,-z
loop_
_atom_site_type_symbol
_atom_site_label
_atom_site_fract_x
_atom_site_fract_y
_atom_site_fract_z
Si Si1 0.297595 0.923478 0.500000
Si Si2 1.000000 0.418767 0.093811
Si Si3 0.297938 0.327812 0.644064
Si Si4 0.707498 0.330453 0.823729
Si Si5 0.797939 0.172188 0.644063
Si Si6 0.292503 0.669547 0.176270
O O1 0.500000 0.930119 0.500000
O O2 0.253800 0.881391 0.422036
O O3 0.253799 0.881390 0.577962
O O4 0.218296 0.000000 0.500000
O O5 0.170258 0.380236 0.126163
O O6 0.000000 0.500000 0.116587
O O7 0.829740 0.380237 0.126163
O O8 0.000000 0.414628 0.000000
O O9 0.250000 0.250000 0.620078
O O10 0.500000 0.330026 0.650179
O O11 0.236171 0.340561 0.732647
O O12 0.750000 0.250000 0.842537
O O13 0.763829 0.340562 0.732646
O O14 0.500001 0.341301 0.831804
O O15 0.750000 0.250000 0.620079
O O16 0.250000 0.750000 0.157460
#
# Coordination Sequence:
#
# PCOD9323924 Si02
#       6
#     8   8   8   8   8   8
#     4  11  24  37  52  81 119 161 204 245 296 355
#     4  11  26  44  64  95 134 170 203 255 326 386
#     4  10  21  37  61  86 116 154 198 252 302 353
#     4  10  21  41  68  97 125 163 215 264 312 374
#     4  10  21  37  61  86 116 154 198 252 302 353
#     4  10  21  41  68  97 125 163 215 264 312 374
#
# _framework density 18.644677000000001
#
# number of rings (size 3 to 8) (size 9 to 14) (size 15 to 20)
#    0.000    1.667    1.667    2.000    4.667    4.667 
#    0.000    5.000    0.000    0.000    0.000    0.000 
#    0.000    0.000    0.000    0.000    0.000    0.000 
#
# Total GULP energy -133919.811729 kJ/mol
# GULP energy per Si atom -5579.992155 kJ/mol
# Density = 1.860224 g / cm^3
# Si number density = 18.644677 Si / 1000 Ang^3
#
#
#
# Elastic Constant Matrix: (Units=GPa)
#
#
# Indices 1 2 3 4 5 6 
#
# 1 95.3064 57.7723 42.6239 0.0000 0.0000 0.0000
# 2 57.7723 162.3808 98.0135 0.0000 0.0000 0.0000
# 3 42.6239 98.0135 91.4089 0.0000 0.0000 0.0000
# 4 0.0000 0.0000 0.0000 53.0170 0.0000 0.0000
# 5 0.0000 0.0000 0.0000 0.0000 37.9826 0.0000
# 6 0.0000 0.0000 0.0000 0.0000 0.0000 22.6640
#
#
#
# Elastic Compliance Matrix: (Units=1/GPa)
#
#
# Indices 1 2 3 4 5 6 
#
# 1 0.013720 -0.002890 -0.003298 0.000000 0.000000 0.000000
# 2 -0.002890 0.018065 -0.018023 0.000000 0.000000 0.000000
# 3 -0.003298 -0.018023 0.031803 0.000000 0.000000 0.000000
# 4 0.000000 0.000000 0.000000 0.018862 0.000000 0.000000
# 5 0.000000 0.000000 0.000000 0.000000 0.026328 0.000000
# 6 0.000000 0.000000 0.000000 0.000000 0.000000 0.044123
#
#
# Mechanical properties :
#
#
# Convention : Reuss Voigt Hill
#
# Bulk Modulus (GPa) = 65.94160 82.87949 74.41054
# Shear Modulus (GPa) = 24.22735 32.77847 28.50291
#
# Velocity S-wave (km/s) = 3.60866 4.19747 3.91416
# Velocity P-wave (km/s) = 7.26688 8.24865 7.77328
#
# Compressibility (1/GPa) = 0.01516493
#
# Stress axis : x y z
#
# Youngs Moduli (GPa) = 72.88831 55.35453 31.44369
#
# Poissons Ratio (x) = 0.16000 0.10371
# Poissons Ratio (y) = 0.21068 0.56671
# Poissons Ratio (z) = 0.24040 0.99765
#
# Static dielectric constant tensor:
#      x y z
#    x 1.641680 0.000000 0.000000 
#    y 0.000000 1.619200 0.000000 
#    z 0.000000 0.000000 0.751270 
# 
# From -- ./inp_files/30499.got.cif
#   From: 2010.05.17/outbox.cif.g08.bks.cpg/sg21_16_cif.got.tgz:30499.got - 2010.06.03 23:14:55.
