data_PCOD9323878
_publ_section_title
;
Structure prediction by ZEFSAII (Michael W. Deem and Ramdas Pophale) SiO2 
 PCOD9323878
Probable space group: C 2 2 2
;
_chemical_formula_sum "Si O2"
_cell_formula_units_Z 48
_cell_length_a 14.035572
_cell_length_b 29.542880
_cell_length_c 5.520344
_cell_angle_alpha 90.000000
_cell_angle_beta 90.000000
_cell_angle_gamma 90.000000
_cell_volume 2289.017371
_symmetry_space_group_name_H-M "C 2 2 2"
_symmetry_group_IT_number 21
_symmetry_cell_setting 'orthorhombic'
loop_
_space_group_symop_operation_xyz
x,y,z
-x,-y,z
x,-y,-z
-x,y,-z
1/2+x,1/2+y,z
1/2-x,1/2-y,z
1/2+x,1/2-y,-z
1/2-x,1/2+y,-z
loop_
_atom_site_type_symbol
_atom_site_label
_atom_site_fract_x
_atom_site_fract_y
_atom_site_fract_z
Si Si1 0.296091 0.553319 0.538328
Si Si2 0.606412 0.818127 0.889606
Si Si3 0.890878 0.759670 0.545656
Si Si4 0.092496 0.835890 0.119460
Si Si5 0.740742 0.101049 0.025660
Si Si6 0.500000 0.594424 0.500000
Si Si7 0.250000 0.750000 0.853845
O O1 0.284443 0.500000 0.500000
O O2 0.264169 0.576248 0.282182
O O3 0.408621 0.564940 0.578879
O O4 0.240648 0.571007 0.780100
O O5 0.610387 0.792895 0.627430
O O6 0.647443 0.868508 0.920066
O O7 0.500000 0.813926 0.000000
O O8 0.681526 0.786831 0.029302
O O9 0.856542 0.793801 0.753712
O O10 0.825930 0.773298 0.324353
O O11 0.000000 0.770908 0.500000
O O12 0.170745 0.864586 0.979592
O O13 0.043166 0.872421 0.297324
O O14 0.000000 0.814437 0.000000
#
# Coordination Sequence:
#
# PCOD9323878 Si02
#       7
#     8   8   8   8   8   4   4
#     4  11  24  45  70 104 140 180 232 299 370 443
#     4  12  27  47  66  99 139 187 244 298 353 419
#     4  12  25  40  66  96 139 195 241 297 335 421
#     4  11  21  37  59  97 144 184 240 271 342 419
#     4  11  26  42  71  98 136 184 232 293 360 431
#     4  10  21  36  62 100 142 188 222 280 347 448
#     4  12  26  44  66  94 144 186 242 290 352 400
#
# _framework density 20.969695999999999
#
# number of rings (size 3 to 8) (size 9 to 14) (size 15 to 20)
#    0.000    0.667    4.167    3.750    9.333    0.000 
#    0.000    1.667    0.000    3.000    0.000    0.000 
#    0.000    0.000    0.000    0.000    0.000    0.000 
#
# Total GULP energy -133910.477468 kJ/mol
# GULP energy per Si atom -5579.603228 kJ/mol
# Density = 2.092197 g / cm^3
# Si number density = 20.969696 Si / 1000 Ang^3
#
#
#
# Elastic Constant Matrix: (Units=GPa)
#
#
# Indices 1 2 3 4 5 6 
#
# 1 139.2417 41.1220 33.4540 0.0000 0.0000 0.0000
# 2 41.1220 129.1423 47.2458 0.0000 0.0000 0.0000
# 3 33.4540 47.2458 89.9191 0.0000 0.0000 0.0000
# 4 0.0000 0.0000 0.0000 37.1922 0.0000 0.0000
# 5 0.0000 0.0000 0.0000 0.0000 31.1999 0.0000
# 6 0.0000 0.0000 0.0000 0.0000 0.0000 20.8444
#
#
#
# Elastic Compliance Matrix: (Units=1/GPa)
#
#
# Indices 1 2 3 4 5 6 
#
# 1 0.008232 -0.001858 -0.002086 0.000000 0.000000 0.000000
# 2 -0.001858 0.010005 -0.004566 0.000000 0.000000 0.000000
# 3 -0.002086 -0.004566 0.014296 0.000000 0.000000 0.000000
# 4 0.000000 0.000000 0.000000 0.026887 0.000000 0.000000
# 5 0.000000 0.000000 0.000000 0.000000 0.032051 0.000000
# 6 0.000000 0.000000 0.000000 0.000000 0.000000 0.047975
#
#
# Mechanical properties :
#
#
# Convention : Reuss Voigt Hill
#
# Bulk Modulus (GPa) = 64.46133 66.88297 65.67215
# Shear Modulus (GPa) = 30.93331 33.61274 32.27302
#
# Velocity S-wave (km/s) = 3.84493 4.00799 3.92731
# Velocity P-wave (km/s) = 7.10762 7.30636 7.20768
#
# Compressibility (1/GPa) = 0.01551318
#
# Stress axis : x y z
#
# Youngs Moduli (GPa) = 121.48144 99.94620 69.94779
#
# Poissons Ratio (x) = 0.18569 0.14594
# Poissons Ratio (y) = 0.22570 0.31937
# Poissons Ratio (z) = 0.25346 0.45634
#
# Static dielectric constant tensor:
#      x y z
#    x 1.761170 0.000000 0.000000 
#    y 0.000000 1.744330 0.000000 
#    z 0.000000 0.000000 1.926240 
# 
# From -- ./inp_files/4266.got.cif
#   From: 2010.05.17/outbox.cif.g08.bks.cpg/sg21_3_cif.got.tgz:4266.got - 2010.06.03 23:14:55.
