data_PCOD9323762
_publ_section_title
;
Structure prediction by ZEFSAII (Michael W. Deem and Ramdas Pophale) SiO2 
 PCOD9323762
Probable space group: C 2 2 2
;
_chemical_formula_sum "Si O2"
_cell_formula_units_Z 34
_cell_length_a 16.271866
_cell_length_b 14.564647
_cell_length_c 4.782976
_cell_angle_alpha 90.000000
_cell_angle_beta 90.000000
_cell_angle_gamma 90.000000
_cell_volume 1133.536539
_symmetry_space_group_name_H-M "C 2 2 2"
_symmetry_group_IT_number 21
_symmetry_cell_setting 'orthorhombic'
loop_
_space_group_symop_operation_xyz
x,y,z
-x,-y,z
x,-y,-z
-x,y,-z
1/2+x,1/2+y,z
1/2-x,1/2-y,z
1/2+x,1/2-y,-z
1/2-x,1/2+y,-z
loop_
_atom_site_type_symbol
_atom_site_label
_atom_site_fract_x
_atom_site_fract_y
_atom_site_fract_z
Si Si1 0.253107 0.409211 0.313012
Si Si2 0.622797 0.500000 0.000000
Si Si3 0.416343 0.846156 0.579845
Si Si4 0.500000 0.500000 0.500000
Si Si5 0.331865 0.703398 0.201950
Si Si6 0.000000 0.204552 0.000000
O O1 0.264752 0.500000 0.500000
O O2 0.156607 0.400138 0.273340
O O3 0.296382 0.334895 0.505475
O O4 0.305216 0.416659 0.023219
O O5 0.567923 0.469990 0.735330
O O6 0.500000 0.897002 0.500000
O O7 0.374984 0.801434 0.307909
O O8 0.448919 0.764085 0.777204
O O9 0.250000 0.750000 0.046194
O O10 0.425314 0.654213 0.159075
#
# Coordination Sequence:
#
# PCOD9323762 Si02
#       6
#     8   4   8   2   8   4
#     4  11  24  44  69 110 153 201 244 309 382 455
#     4  11  24  48  74 103 146 206 247 306 368 451
#     4   9  21  43  69 103 146 191 256 310 375 443
#     4  10  24  54  68  94 150 202 248 294 362 458
#     4   9  21  42  69 103 144 192 253 311 372 447
#     4  10  20  42  74 106 136 198 256 320 366 446
#
# _framework density 29.994617999999999
#
# number of rings (size 3 to 8) (size 9 to 14) (size 15 to 20)
#    0.000    2.118    1.176    0.000    0.000   10.824 
#   10.588    0.000    0.000    1.412    0.000    0.000 
#    0.000    0.000    0.000    0.000    0.000    0.000 
#
# Total GULP energy -94862.059951 kJ/mol
# GULP energy per Si atom -5580.121174 kJ/mol
# Density = 2.992635 g / cm^3
# Si number density = 29.994618 Si / 1000 Ang^3
#
#
#
# Elastic Constant Matrix: (Units=GPa)
#
#
# Indices 1 2 3 4 5 6 
#
# 1 380.9481 61.6006 82.3698 0.0000 0.0000 0.0000
# 2 61.6006 59.3636 -1.6462 0.0000 0.0000 0.0000
# 3 82.3698 -1.6462 181.3751 0.0000 0.0000 0.0000
# 4 0.0000 0.0000 0.0000 35.2430 0.0000 0.0000
# 5 0.0000 0.0000 0.0000 0.0000 53.1382 0.0000
# 6 0.0000 0.0000 0.0000 0.0000 0.0000 10.1201
#
#
#
# Elastic Compliance Matrix: (Units=1/GPa)
#
#
# Indices 1 2 3 4 5 6 
#
# 1 0.003597 -0.003778 -0.001668 0.000000 0.000000 0.000000
# 2 -0.003778 0.020819 0.001905 0.000000 0.000000 0.000000
# 3 -0.001668 0.001905 0.006288 0.000000 0.000000 0.000000
# 4 0.000000 0.000000 0.000000 0.028374 0.000000 0.000000
# 5 0.000000 0.000000 0.000000 0.000000 0.018819 0.000000
# 6 0.000000 0.000000 0.000000 0.000000 0.000000 0.098814
#
#
# Mechanical properties :
#
#
# Convention : Reuss Voigt Hill
#
# Bulk Modulus (GPa) = 42.33473 100.70391 71.51932
# Shear Modulus (GPa) = 26.08699 51.65778 38.87238
#
# Velocity S-wave (km/s) = 2.95231 4.15448 3.60388
# Velocity P-wave (km/s) = 5.07604 7.52727 6.41974
#
# Compressibility (1/GPa) = 0.02362127
#
# Stress axis : x y z
#
# Youngs Moduli (GPa) = 278.04131 48.03329 159.03117
#
# Poissons Ratio (x) = 0.18149 0.26521
# Poissons Ratio (y) = 1.05054 -0.30293
# Poissons Ratio (z) = 0.46368 -0.09150
#
# Static dielectric constant tensor:
#      x y z
#    x 2.427580 0.000000 0.000000 
#    y 0.000000 2.959050 0.000000 
#    z 0.000000 0.000000 2.403970 
# 
# From -- ./inp_files/3740.got.cif
#   From: 2010.05.17/outbox.cif.g08.bks.cpg/sg21_2_cif.got.tgz:3740.got - 2010.06.03 23:14:55.
