data_PCOD9323271
_publ_section_title
;
Structure prediction by ZEFSAII (Michael W. Deem and Ramdas Pophale) SiO2 
 PCOD9323271
Probable space group: C 2 2 2
;
_chemical_formula_sum "Si O2"
_cell_formula_units_Z 52
_cell_length_a 17.411341
_cell_length_b 25.060383
_cell_length_c 5.535583
_cell_angle_alpha 90.000000
_cell_angle_beta 90.000000
_cell_angle_gamma 90.000000
_cell_volume 2415.367911
_symmetry_space_group_name_H-M "C 2 2 2"
_symmetry_group_IT_number 21
_symmetry_cell_setting 'orthorhombic'
loop_
_space_group_symop_operation_xyz
x,y,z
-x,-y,z
x,-y,-z
-x,y,-z
1/2+x,1/2+y,z
1/2-x,1/2-y,z
1/2+x,1/2-y,-z
1/2-x,1/2+y,-z
loop_
_atom_site_type_symbol
_atom_site_label
_atom_site_fract_x
_atom_site_fract_y
_atom_site_fract_z
Si Si1 0.080171 0.091313 0.936977
Si Si2 0.643882 0.858536 0.273003
Si Si3 0.078998 0.158010 0.436201
Si Si4 0.000000 0.613143 0.000000
Si Si5 0.749899 0.084985 0.091320
Si Si6 0.606483 0.052544 0.354068
Si Si7 0.240752 0.193520 0.592562
O O1 0.080911 0.134151 0.162845
O O2 0.076738 0.114742 0.661308
O O3 0.163993 0.064744 0.947358
O O4 0.000000 0.062190 0.000000
O O5 0.610598 0.895630 0.479679
O O6 0.691610 0.811205 0.393785
O O7 0.570651 0.850835 0.099573
O O8 0.707965 0.896135 0.149777
O O9 0.157254 0.189571 0.473143
O O10 0.000000 0.188761 0.500000
O O11 0.957969 0.571078 0.827702
O O12 0.689952 0.047085 0.227191
O O13 0.753986 0.140923 0.241369
O O14 0.589648 0.000000 0.500000
O O15 0.250000 0.250000 0.724309
#
# Coordination Sequence:
#
# PCOD9323271 Si02
#       7
#     8   8   8   4   8   8   8
#     4   9  16  30  55  82 114 145 192 246 302 356
#     4  10  20  37  57  80 116 155 202 251 310 370
#     4   9  17  31  51  79 110 145 196 253 300 357
#     4  10  22  37  58  86 120 158 208 256 312 377
#     4   9  19  35  54  84 118 151 203 253 305 370
#     4  10  22  38  60  88 120 160 203 258 312 373
#     4  10  20  35  55  79 114 160 202 254 314 378
#
# _framework density 21.528811999999999
#
# number of rings (size 3 to 8) (size 9 to 14) (size 15 to 20)
#    0.000    2.462    1.538    0.462    0.000    4.923 
#    0.000    4.615    1.692    0.000    0.000    3.231 
#    0.000    0.000    0.000    0.000    0.000    0.000 
#
# Total GULP energy -144762.567501 kJ/mol
# GULP energy per Si atom -5567.791058 kJ/mol
# Density = 2.147981 g / cm^3
# Si number density = 21.528812 Si / 1000 Ang^3
#
#
#
# Elastic Constant Matrix: (Units=GPa)
#
#
# Indices 1 2 3 4 5 6 
#
# 1 176.6523 29.3522 31.2001 0.0000 0.0000 0.0000
# 2 29.3522 55.0159 17.1495 0.0000 0.0000 0.0000
# 3 31.2001 17.1495 88.4365 0.0000 0.0000 0.0000
# 4 0.0000 0.0000 0.0000 10.2531 0.0000 0.0000
# 5 0.0000 0.0000 0.0000 0.0000 30.9885 0.0000
# 6 0.0000 0.0000 0.0000 0.0000 0.0000 -36.2196
#
#
#
# Elastic Compliance Matrix: (Units=1/GPa)
#
#
# Indices 1 2 3 4 5 6 
#
# 1 0.006446 -0.002906 -0.001711 0.000000 0.000000 0.000000
# 2 -0.002906 0.020656 -0.002980 0.000000 0.000000 0.000000
# 3 -0.001711 -0.002980 0.012489 0.000000 0.000000 0.000000
# 4 0.000000 0.000000 0.000000 0.097531 0.000000 0.000000
# 5 0.000000 0.000000 0.000000 0.000000 0.032270 0.000000
# 6 0.000000 0.000000 0.000000 0.000000 0.000000 -0.027609
#
#
# Mechanical properties :
#
#
# Convention : Reuss Voigt Hill
#
# Bulk Modulus (GPa) = 40.98834 52.83425 46.91130
# Shear Modulus (GPa) = 30.28315 17.16460 23.72388
#
# Velocity S-wave (km/s) = 3.75458 2.82669 3.32318
# Velocity P-wave (km/s) = 6.15435 5.93700 6.04665
#
# Compressibility (1/GPa) = 0.02439718
#
# Stress axis : x y z
#
# Youngs Moduli (GPa) = 155.14049 48.41230 80.07053
#
# Poissons Ratio (x) = 0.14067 0.13697
# Poissons Ratio (y) = 0.45080 0.23864
# Poissons Ratio (z) = 0.26538 0.14429
#
# Static dielectric constant tensor:
#      x y z
#    x 1.902300 0.000000 0.000000 
#    y 0.000000 1.737460 0.000000 
#    z 0.000000 0.000000 2.116820 
# 
# From -- ./inp_files/5375.got.cif
#   From: 2010.05.17/outbox.cif.g08.bks.cpg/sg21_3_cif.got.tgz:5375.got - 2010.06.03 23:14:55.
