data_PCOD9323277
_publ_section_title
;
Structure prediction by ZEFSAII (Michael W. Deem and Ramdas Pophale) SiO2 
 PCOD9323277
Probable space group: C 2 2 2
;
_chemical_formula_sum "Si O2"
_cell_formula_units_Z 30
_cell_length_a 5.552410
_cell_length_b 31.731823
_cell_length_c 8.986930
_cell_angle_alpha 90.000000
_cell_angle_beta 90.000000
_cell_angle_gamma 90.000000
_cell_volume 1583.390044
_symmetry_space_group_name_H-M "C 2 2 2"
_symmetry_group_IT_number 21
_symmetry_cell_setting 'orthorhombic'
loop_
_space_group_symop_operation_xyz
x,y,z
-x,-y,z
x,-y,-z
-x,y,-z
1/2+x,1/2+y,z
1/2-x,1/2-y,z
1/2+x,1/2-y,-z
1/2-x,1/2+y,-z
loop_
_atom_site_type_symbol
_atom_site_label
_atom_site_fract_x
_atom_site_fract_y
_atom_site_fract_z
Si Si1 0.132851 0.385521 0.838999
Si Si2 0.000000 0.000000 0.500000
Si Si3 0.748248 0.796569 0.903132
Si Si4 0.500000 0.440612 0.000000
Si Si5 0.672811 0.039821 0.740792
O O1 0.208966 0.337879 0.801280
O O2 0.965768 0.415426 0.738550
O O3 0.369845 0.411822 0.877343
O O4 0.000000 0.382805 0.000000
O O5 0.849939 0.030951 0.605714
O O6 0.750000 0.750000 0.831280
O O7 0.500000 0.794894 0.000000
O O8 0.000000 0.802039 0.000000
O O9 0.305443 0.463655 0.100347
O O10 0.500000 0.000000 0.733622
#
# Coordination Sequence:
#
# PCOD9323277 Si02
#       5
#     8   2   8   4   8
#     4   9  18  31  50  78 110 150 192 228 280 351
#     4  12  26  42  52  70 108 162 198 256 292 348
#     4   9  16  28  48  78 119 161 189 227 289 357
#     4  10  20  35  56  80 108 146 182 236 283 344
#     4  11  24  38  55  77 108 153 198 242 296 346
#
# _framework density 18.946688999999999
#
# number of rings (size 3 to 8) (size 9 to 14) (size 15 to 20)
#    0.000    2.133    1.333    2.000    0.000   12.800 
#    0.000    0.000    0.000    0.000    0.000    0.000 
#    0.000    0.000  126.933    4.533    0.000    0.000 
#
# Total GULP energy -83504.985980 kJ/mol
# GULP energy per Si atom -5566.999065 kJ/mol
# Density = 1.890357 g / cm^3
# Si number density = 18.946689 Si / 1000 Ang^3
#
#
#
# Elastic Constant Matrix: (Units=GPa)
#
#
# Indices 1 2 3 4 5 6 
#
# 1 99.8696 55.0512 27.3199 0.0000 0.0000 0.0000
# 2 55.0512 180.1349 60.7759 0.0000 0.0000 0.0000
# 3 27.3199 60.7759 46.9833 0.0000 0.0000 0.0000
# 4 0.0000 0.0000 0.0000 -6.4613 0.0000 0.0000
# 5 0.0000 0.0000 0.0000 0.0000 21.4696 0.0000
# 6 0.0000 0.0000 0.0000 0.0000 0.0000 12.0313
#
#
#
# Elastic Compliance Matrix: (Units=1/GPa)
#
#
# Indices 1 2 3 4 5 6 
#
# 1 0.012476 -0.002422 -0.004121 0.000000 0.000000 0.000000
# 2 -0.002422 0.010321 -0.011942 0.000000 0.000000 0.000000
# 3 -0.004121 -0.011942 0.039128 0.000000 0.000000 0.000000
# 4 0.000000 0.000000 0.000000 -0.154767 0.000000 0.000000
# 5 0.000000 0.000000 0.000000 0.000000 0.046578 0.000000
# 6 0.000000 0.000000 0.000000 0.000000 0.000000 0.083117
#
#
# Mechanical properties :
#
#
# Convention : Reuss Voigt Hill
#
# Bulk Modulus (GPa) = 40.07363 68.14242 54.10802
# Shear Modulus (GPa) = 60.87094 17.66395 39.26745
#
# Velocity S-wave (km/s) = 5.67426 3.05667 4.55744
# Velocity P-wave (km/s) = 8.00789 6.96427 7.50424
#
# Compressibility (1/GPa) = 0.02495406
#
# Stress axis : x y z
#
# Youngs Moduli (GPa) = 80.15637 96.89110 25.55692
#
# Poissons Ratio (x) = 0.23470 0.10532
# Poissons Ratio (y) = 0.19417 0.30520
# Poissons Ratio (z) = 0.33032 1.15709
#
# Static dielectric constant tensor:
#      x y z
#    x 1.623550 0.000000 0.000000 
#    y 0.000000 1.736480 0.000000 
#    z 0.000000 0.000000 1.626500 
# 
# From -- ./inp_files/9103.got.cif
#   From: 2010.05.17/outbox.cif.g08.bks.cpg/sg21_5_cif.got.tgz:9103.got - 2010.06.03 23:14:55.
