data_PCOD9323329
_publ_section_title
;
Structure prediction by ZEFSAII (Michael W. Deem and Ramdas Pophale) SiO2 
 PCOD9323329
Probable space group: C 2 2 2
;
_chemical_formula_sum "Si O2"
_cell_formula_units_Z 64
_cell_length_a 31.548294
_cell_length_b 8.881986
_cell_length_c 11.796272
_cell_angle_alpha 90.000000
_cell_angle_beta 90.000000
_cell_angle_gamma 90.000000
_cell_volume 3305.451138
_symmetry_space_group_name_H-M "C 2 2 2"
_symmetry_group_IT_number 21
_symmetry_cell_setting 'orthorhombic'
loop_
_space_group_symop_operation_xyz
x,y,z
-x,-y,z
x,-y,-z
-x,y,-z
1/2+x,1/2+y,z
1/2-x,1/2-y,z
1/2+x,1/2-y,-z
1/2-x,1/2+y,-z
loop_
_atom_site_type_symbol
_atom_site_label
_atom_site_fract_x
_atom_site_fract_y
_atom_site_fract_z
Si Si1 0.705612 0.826688 0.961603
Si Si2 0.917349 0.170266 0.756186
Si Si3 0.834058 0.915253 0.378893
Si Si4 0.424618 0.672254 0.192634
Si Si5 0.171487 0.216387 0.729977
Si Si6 0.707853 0.826985 0.514971
Si Si7 0.501314 0.316593 0.369040
Si Si8 0.888864 0.321914 0.978432
O O1 0.750000 0.750000 0.995789
O O2 0.698385 0.797356 0.827311
O O3 0.660211 0.765368 0.008849
O O4 0.708006 0.000000 0.000000
O O5 0.879089 0.135187 0.669994
O O6 0.902768 0.282795 0.852705
O O7 0.957977 0.230372 0.690846
O O8 0.928620 0.008894 0.813418
O O9 0.805933 0.769037 0.405475
O O10 0.160998 0.000000 0.500000
O O11 0.815160 0.042831 0.295572
O O12 0.377569 0.707208 0.237485
O O13 0.459451 0.723523 0.285671
O O14 0.421372 0.746321 0.068294
O O15 0.173739 0.305679 0.612798
O O16 0.750000 0.750000 0.561138
O O17 0.716450 0.000000 0.500000
O O18 0.500000 0.500000 0.373609
O O19 0.500000 0.264488 0.500000
O O20 0.888156 0.500000 0.000000
#
# Coordination Sequence:
#
# PCOD9323329 Si02
#       8
#     8   8   8   8   8   8   8   8
#     4  10  22  38  59  85 116 155 203 253 301 353
#     4  10  20  35  61  88 116 152 194 244 293 355
#     4   9  20  35  58  85 116 155 197 239 299 359
#     4   9  19  36  60  86 115 153 196 243 294 345
#     4   9  19  37  58  80 117 158 195 243 296 355
#     4  11  22  36  56  83 115 152 197 243 294 359
#     4   9  19  32  59  93 120 146 191 251 301 345
#     4  10  22  40  58  81 118 160 199 239 294 355
#
# _framework density 19.361958000000001
#
# number of rings (size 3 to 8) (size 9 to 14) (size 15 to 20)
#    0.000    2.375    0.000    1.875    7.000    6.500 
#    0.000    4.375    0.000    0.750    0.000    0.000 
#    0.000    0.000    0.000    0.000    0.000    0.000 
#
# Total GULP energy -178320.497018 kJ/mol
# GULP energy per Si atom -5572.515532 kJ/mol
# Density = 1.931789 g / cm^3
# Si number density = 19.361958 Si / 1000 Ang^3
#
#
#
# Elastic Constant Matrix: (Units=GPa)
#
#
# Indices 1 2 3 4 5 6 
#
# 1 86.4742 30.2597 48.3855 0.0000 0.0000 0.0000
# 2 30.2597 74.3418 35.9855 0.0000 0.0000 0.0000
# 3 48.3855 35.9855 79.9857 0.0000 0.0000 0.0000
# 4 0.0000 0.0000 0.0000 27.7663 0.0000 0.0000
# 5 0.0000 0.0000 0.0000 0.0000 15.4167 0.0000
# 6 0.0000 0.0000 0.0000 0.0000 0.0000 18.0769
#
#
#
# Elastic Compliance Matrix: (Units=1/GPa)
#
#
# Indices 1 2 3 4 5 6 
#
# 1 0.017868 -0.002609 -0.009635 0.000000 0.000000 0.000000
# 2 -0.002609 0.017577 -0.006330 0.000000 0.000000 0.000000
# 3 -0.009635 -0.006330 0.021179 0.000000 0.000000 0.000000
# 4 0.000000 0.000000 0.000000 0.036015 0.000000 0.000000
# 5 0.000000 0.000000 0.000000 0.000000 0.064865 0.000000
# 6 0.000000 0.000000 0.000000 0.000000 0.000000 0.055319
#
#
# Mechanical properties :
#
#
# Convention : Reuss Voigt Hill
#
# Bulk Modulus (GPa) = 51.34470 52.22923 51.78696
# Shear Modulus (GPa) = 19.49599 20.66340 20.07970
#
# Velocity S-wave (km/s) = 3.17665 3.27037 3.22385
# Velocity P-wave (km/s) = 6.32698 6.42606 6.37671
#
# Compressibility (1/GPa) = 0.01947621
#
# Stress axis : x y z
#
# Youngs Moduli (GPa) = 55.96467 56.89162 47.21749
#
# Poissons Ratio (x) = 0.14843 0.45495
# Poissons Ratio (y) = 0.14602 0.29887
# Poissons Ratio (z) = 0.53923 0.36011
#
# Static dielectric constant tensor:
#      x y z
#    x 1.686160 0.000000 0.000000 
#    y 0.000000 1.692510 0.000000 
#    z 0.000000 0.000000 1.720330 
# 
# From -- ./inp_files/28103.got.cif
#   From: 2010.05.17/outbox.cif.g08.bks.cpg/sg21_15_cif.got.tgz:28103.got - 2010.06.03 23:14:55.
