data_PCOD9323873
_publ_section_title
;
Structure prediction by ZEFSAII (Michael W. Deem and Ramdas Pophale) SiO2 
 PCOD9323873
Probable space group: C 2 2 2
;
_chemical_formula_sum "Si O2"
_cell_formula_units_Z 34
_cell_length_a 8.890941
_cell_length_b 20.432247
_cell_length_c 9.470233
_cell_angle_alpha 90.000000
_cell_angle_beta 90.000000
_cell_angle_gamma 90.000000
_cell_volume 1720.380545
_symmetry_space_group_name_H-M "C 2 2 2"
_symmetry_group_IT_number 21
_symmetry_cell_setting 'orthorhombic'
loop_
_space_group_symop_operation_xyz
x,y,z
-x,-y,z
x,-y,-z
-x,y,-z
1/2+x,1/2+y,z
1/2-x,1/2-y,z
1/2+x,1/2-y,-z
1/2-x,1/2+y,-z
loop_
_atom_site_type_symbol
_atom_site_label
_atom_site_fract_x
_atom_site_fract_y
_atom_site_fract_z
Si Si1 0.734522 0.409163 0.418623
Si Si2 0.000000 0.000000 0.253515
Si Si3 0.500000 0.592136 0.000000
Si Si4 0.000000 0.500000 0.500000
Si Si5 0.617282 0.302069 0.621972
Si Si6 0.840313 0.814099 0.818911
O O1 0.612812 0.459408 0.352405
O O2 0.680232 0.372594 0.563141
O O3 0.746018 0.349659 0.308813
O O4 0.885925 0.450420 0.424326
O O5 0.941223 0.948329 0.135943
O O6 0.636904 0.635677 0.944841
O O7 0.500000 0.280515 0.500000
O O8 0.750000 0.250000 0.635471
O O9 0.509836 0.304010 0.758366
O O10 0.750000 0.750000 0.858023
#
# Coordination Sequence:
#
# PCOD9323873 Si02
#       6
#     8   4   4   2   8   8
#     4  10  23  37  56  89 121 161 191 243 304 365
#     4   9  20  41  66  80 117 157 214 236 292 361
#     4   9  20  40  62  88 106 161 208 254 272 345
#     4  12  28  30  56  90 132 150 196 238 306 362
#     4  10  21  36  60  87 123 157 195 247 307 362
#     4  10  22  40  63  88 120 157 206 250 298 353
#
# _framework density 19.763069999999999
#
# number of rings (size 3 to 8) (size 9 to 14) (size 15 to 20)
#    0.000    2.118    0.000    2.824   18.118    0.941 
#    0.000    2.353    0.000    9.882    0.000    0.000 
#    0.000    0.000    0.000    0.000    0.000    0.000 
#
# Total GULP energy -94727.479464 kJ/mol
# GULP energy per Si atom -5572.204674 kJ/mol
# Density = 1.971809 g / cm^3
# Si number density = 19.763070 Si / 1000 Ang^3
#
#
#
# Elastic Constant Matrix: (Units=GPa)
#
#
# Indices 1 2 3 4 5 6 
#
# 1 96.2046 54.1870 30.2542 0.0000 0.0000 0.0000
# 2 54.1870 123.5854 35.8083 0.0000 0.0000 0.0000
# 3 30.2542 35.8083 67.8146 0.0000 0.0000 0.0000
# 4 0.0000 0.0000 0.0000 9.5495 0.0000 0.0000
# 5 0.0000 0.0000 0.0000 0.0000 10.0788 0.0000
# 6 0.0000 0.0000 0.0000 0.0000 0.0000 51.7245
#
#
#
# Elastic Compliance Matrix: (Units=1/GPa)
#
#
# Indices 1 2 3 4 5 6 
#
# 1 0.014544 -0.005309 -0.003685 0.000000 0.000000 0.000000
# 2 -0.005309 0.011491 -0.003699 0.000000 0.000000 0.000000
# 3 -0.003685 -0.003699 0.018343 0.000000 0.000000 0.000000
# 4 0.000000 0.000000 0.000000 0.104717 0.000000 0.000000
# 5 0.000000 0.000000 0.000000 0.000000 0.099218 0.000000
# 6 0.000000 0.000000 0.000000 0.000000 0.000000 0.019333
#
#
# Mechanical properties :
#
#
# Convention : Reuss Voigt Hill
#
# Bulk Modulus (GPa) = 52.65458 58.67817 55.66637
# Shear Modulus (GPa) = 16.70207 25.42756 21.06482
#
# Velocity S-wave (km/s) = 2.91024 3.59084 3.26830
# Velocity P-wave (km/s) = 6.16388 6.85182 6.51693
#
# Compressibility (1/GPa) = 0.01899170
#
# Stress axis : x y z
#
# Youngs Moduli (GPa) = 68.75831 87.02315 54.51553
#
# Poissons Ratio (x) = 0.46201 0.20089
# Poissons Ratio (y) = 0.36504 0.20166
# Poissons Ratio (z) = 0.25338 0.32191
#
# Static dielectric constant tensor:
#      x y z
#    x 1.690710 0.000000 0.000000 
#    y 0.000000 1.777910 0.000000 
#    z 0.000000 0.000000 1.753760 
# 
# From -- ./inp_files/10630.got.cif
#   From: 2010.05.17/outbox.cif.g08.bks.cpg/sg21_6_cif.got.tgz:10630.got - 2010.06.03 23:14:55.
