data_PCOD9323752
_publ_section_title
;
Structure prediction by ZEFSAII (Michael W. Deem and Ramdas Pophale) SiO2 
 PCOD9323752
Probable space group: C 2 2 2
;
_chemical_formula_sum "Si O2"
_cell_formula_units_Z 48
_cell_length_a 16.316089
_cell_length_b 15.023858
_cell_length_c 10.395437
_cell_angle_alpha 90.000000
_cell_angle_beta 90.000000
_cell_angle_gamma 90.000000
_cell_volume 2548.239753
_symmetry_space_group_name_H-M "C 2 2 2"
_symmetry_group_IT_number 21
_symmetry_cell_setting 'orthorhombic'
loop_
_space_group_symop_operation_xyz
x,y,z
-x,-y,z
x,-y,-z
-x,y,-z
1/2+x,1/2+y,z
1/2-x,1/2-y,z
1/2+x,1/2-y,-z
1/2-x,1/2+y,-z
loop_
_atom_site_type_symbol
_atom_site_label
_atom_site_fract_x
_atom_site_fract_y
_atom_site_fract_z
Si Si1 0.059570 0.724630 0.616017
Si Si2 0.548848 0.203659 0.132872
Si Si3 0.870141 0.098332 0.518015
Si Si4 0.185904 0.570550 0.610316
Si Si5 0.178977 0.544841 0.138532
Si Si6 0.815742 0.827084 0.756745
O O1 0.079503 0.828688 0.596664
O O2 0.139733 0.663994 0.601245
O O3 0.000000 0.698104 0.500000
O O4 0.014740 0.706132 0.749616
O O5 0.603928 0.114576 0.138680
O O6 0.613429 0.283724 0.156673
O O7 0.500000 0.209661 0.000000
O O8 0.782331 0.085065 0.587135
O O9 0.853002 0.137670 0.376206
O O10 0.906115 0.000000 0.500000
O O11 0.159108 0.500000 0.500000
O O12 0.168422 0.526340 0.747721
O O13 0.262334 0.598075 0.172417
O O14 0.183940 0.500000 0.000000
O O15 0.750000 0.750000 0.723851
#
# Coordination Sequence:
#
# PCOD9323752 Si02
#       6
#     8   8   8   8   8   8
#     4  12  24  38  63  94 129 169 210 261 329 382
#     4  11  25  43  62  93 136 173 207 261 326 388
#     4  11  22  41  67  93 125 164 223 271 313 372
#     4  11  22  38  64  96 125 164 216 269 314 375
#     4  11  23  41  68  95 126 171 215 263 322 381
#     4  10  20  42  67  90 127 169 211 263 319 378
#
# _framework density 18.836532999999999
#
# number of rings (size 3 to 8) (size 9 to 14) (size 15 to 20)
#    0.000    1.000    5.000    3.500    0.000    5.667 
#    0.000    3.333    0.000    0.000    0.000    0.000 
#    0.000    0.000    0.000    0.000    0.000    0.000 
#
# Total GULP energy -134170.102580 kJ/mol
# GULP energy per Si atom -5590.420941 kJ/mol
# Density = 1.879366 g / cm^3
# Si number density = 18.836533 Si / 1000 Ang^3
#
#
#
# Elastic Constant Matrix: (Units=GPa)
#
#
# Indices 1 2 3 4 5 6 
#
# 1 75.2044 19.6739 31.9305 0.0000 0.0000 0.0000
# 2 19.6739 79.7880 29.7772 0.0000 0.0000 0.0000
# 3 31.9305 29.7772 150.2276 0.0000 0.0000 0.0000
# 4 0.0000 0.0000 0.0000 36.9030 0.0000 0.0000
# 5 0.0000 0.0000 0.0000 0.0000 16.5301 0.0000
# 6 0.0000 0.0000 0.0000 0.0000 0.0000 21.3333
#
#
#
# Elastic Compliance Matrix: (Units=1/GPa)
#
#
# Indices 1 2 3 4 5 6 
#
# 1 0.015150 -0.002736 -0.002678 0.000000 0.000000 0.000000
# 2 -0.002736 0.014029 -0.002199 0.000000 0.000000 0.000000
# 3 -0.002678 -0.002199 0.007662 0.000000 0.000000 0.000000
# 4 0.000000 0.000000 0.000000 0.027098 0.000000 0.000000
# 5 0.000000 0.000000 0.000000 0.000000 0.060496 0.000000
# 6 0.000000 0.000000 0.000000 0.000000 0.000000 0.046875
#
#
# Mechanical properties :
#
#
# Convention : Reuss Voigt Hill
#
# Bulk Modulus (GPa) = 46.26644 51.99814 49.13229
# Shear Modulus (GPa) = 25.80784 29.87584 27.84184
#
# Velocity S-wave (km/s) = 3.70549 3.98685 3.84875
# Velocity P-wave (km/s) = 6.55156 6.98987 6.77426
#
# Compressibility (1/GPa) = 0.02161394
#
# Stress axis : x y z
#
# Youngs Moduli (GPa) = 66.00733 71.28283 130.52119
#
# Poissons Ratio (x) = 0.19505 0.34950
# Poissons Ratio (y) = 0.18061 0.28703
# Poissons Ratio (z) = 0.17675 0.15676
#
# Static dielectric constant tensor:
#      x y z
#    x 1.657280 0.000000 0.000000 
#    y 0.000000 1.663430 0.000000 
#    z 0.000000 0.000000 1.601120 
# 
# From -- ./inp_files/14945.got.cif
#   From: 2010.05.17/outbox.cif.g08.bks.cpg/sg21_8_cif.got.tgz:14945.got - 2010.06.03 23:14:55.
