data_PCOD9323934
_publ_section_title
;
Structure prediction by ZEFSAII (Michael W. Deem and Ramdas Pophale) SiO2 
 PCOD9323934
Probable space group: C 2 2 2
;
_chemical_formula_sum "Si O2"
_cell_formula_units_Z 56
_cell_length_a 19.859795
_cell_length_b 15.474664
_cell_length_c 8.744572
_cell_angle_alpha 90.000000
_cell_angle_beta 90.000000
_cell_angle_gamma 90.000000
_cell_volume 2687.413826
_symmetry_space_group_name_H-M "C 2 2 2"
_symmetry_group_IT_number 21
_symmetry_cell_setting 'orthorhombic'
loop_
_space_group_symop_operation_xyz
x,y,z
-x,-y,z
x,-y,-z
-x,y,-z
1/2+x,1/2+y,z
1/2-x,1/2-y,z
1/2+x,1/2-y,-z
1/2-x,1/2+y,-z
loop_
_atom_site_type_symbol
_atom_site_label
_atom_site_fract_x
_atom_site_fract_y
_atom_site_fract_z
Si Si1 0.527671 0.413308 0.670665
Si Si2 0.984183 0.401664 0.321117
Si Si3 0.150499 0.717842 0.288084
Si Si4 0.714414 0.372282 0.407229
Si Si5 0.683472 0.302715 0.957417
Si Si6 0.541354 0.752471 0.154733
Si Si7 0.683993 0.556672 0.278133
O O1 0.500000 0.500000 0.749423
O O2 0.500000 0.410223 0.500000
O O3 0.507269 0.325996 0.754126
O O4 0.607273 0.425251 0.673583
O O5 0.913183 0.348558 0.290444
O O6 0.000000 0.500000 0.268500
O O7 0.000000 0.400715 0.500000
O O8 0.038237 0.341261 0.241885
O O9 0.216979 0.663464 0.332664
O O10 0.155978 0.798748 0.405213
O O11 0.163837 0.770365 0.129127
O O12 0.694396 0.454822 0.304402
O O13 0.726250 0.399341 0.583578
O O14 0.750000 0.250000 0.917954
O O15 0.617854 0.272703 0.868017
O O16 0.695005 0.399838 0.888738
O O17 0.500000 0.762103 0.000000
#
# Coordination Sequence:
#
# PCOD9323934 Si02
#       7
#     8   8   8   8   8   8   8
#     4  10  21  37  63 100 132 174 211 263 343 420
#     4  11  27  46  69 100 130 180 240 287 341 408
#     4  11  24  44  69  94 139 182 232 288 355 408
#     4  10  22  42  66 104 131 182 223 293 352 412
#     4  11  24  44  63 100 135 182 226 275 356 419
#     4  11  24  41  66  94 132 174 218 283 337 401
#     4  10  24  38  66 102 138 171 230 283 348 436
#
# _framework density 20.837878
#
# number of rings (size 3 to 8) (size 9 to 14) (size 15 to 20)
#    0.000    1.429    2.857    2.143   10.000    4.571 
#    0.000    4.286    0.000    0.000    0.000    0.000 
#    0.000    0.000    0.000    0.000    0.000    0.000 
#
# Total GULP energy -156003.088167 kJ/mol
# GULP energy per Si atom -5571.538863 kJ/mol
# Density = 2.079045 g / cm^3
# Si number density = 20.837878 Si / 1000 Ang^3
#
#
#
# Elastic Constant Matrix: (Units=GPa)
#
#
# Indices 1 2 3 4 5 6 
#
# 1 66.1256 14.8598 6.0168 0.0000 0.0000 0.0000
# 2 14.8598 162.0377 48.3628 0.0000 0.0000 0.0000
# 3 6.0168 48.3628 64.0368 0.0000 0.0000 0.0000
# 4 0.0000 0.0000 0.0000 53.7663 0.0000 0.0000
# 5 0.0000 0.0000 0.0000 0.0000 7.1279 0.0000
# 6 0.0000 0.0000 0.0000 0.0000 0.0000 42.6105
#
#
#
# Elastic Compliance Matrix: (Units=1/GPa)
#
#
# Indices 1 2 3 4 5 6 
#
# 1 0.015453 -0.001270 -0.000493 0.000000 0.000000 0.000000
# 2 -0.001270 0.008072 -0.005977 0.000000 0.000000 0.000000
# 3 -0.000493 -0.005977 0.020176 0.000000 0.000000 0.000000
# 4 0.000000 0.000000 0.000000 0.018599 0.000000 0.000000
# 5 0.000000 0.000000 0.000000 0.000000 0.140293 0.000000
# 6 0.000000 0.000000 0.000000 0.000000 0.000000 0.023468
#
#
# Mechanical properties :
#
#
# Convention : Reuss Voigt Hill
#
# Bulk Modulus (GPa) = 35.43361 47.85323 41.64342
# Shear Modulus (GPa) = 19.92449 35.56500 27.74474
#
# Velocity S-wave (km/s) = 3.09555 4.13576 3.65287
# Velocity P-wave (km/s) = 5.46058 6.76908 6.14973
#
# Compressibility (1/GPa) = 0.02822179
#
# Stress axis : x y z
#
# Youngs Moduli (GPa) = 64.71242 123.88930 49.56350
#
# Poissons Ratio (x) = 0.15735 0.02442
# Poissons Ratio (y) = 0.08219 0.29623
# Poissons Ratio (z) = 0.03189 0.74045
#
# Static dielectric constant tensor:
#      x y z
#    x 1.755280 0.000000 0.000000 
#    y 0.000000 1.812490 0.000000 
#    z 0.000000 0.000000 1.053690 
# 
# From -- ./inp_files/17680.got.cif
#   From: 2010.05.17/outbox.cif.g08.bks.cpg/sg21_9_cif.got.tgz:17680.got - 2010.06.03 23:14:55.
