data_PCOD9323239
_publ_section_title
;
Structure prediction by ZEFSAII (Michael W. Deem and Ramdas Pophale) SiO2 
 PCOD9323239
Probable space group: C 2 2 2
;
_chemical_formula_sum "Si O2"
_cell_formula_units_Z 64
_cell_length_a 8.237382
_cell_length_b 25.304633
_cell_length_c 14.226764
_cell_angle_alpha 90.000000
_cell_angle_beta 90.000000
_cell_angle_gamma 90.000000
_cell_volume 2965.482576
_symmetry_space_group_name_H-M "C 2 2 2"
_symmetry_group_IT_number 21
_symmetry_cell_setting 'orthorhombic'
loop_
_space_group_symop_operation_xyz
x,y,z
-x,-y,z
x,-y,-z
-x,y,-z
1/2+x,1/2+y,z
1/2-x,1/2-y,z
1/2+x,1/2-y,-z
1/2-x,1/2+y,-z
loop_
_atom_site_type_symbol
_atom_site_label
_atom_site_fract_x
_atom_site_fract_y
_atom_site_fract_z
Si Si1 0.932485 0.887406 0.604977
Si Si2 0.201917 0.846520 0.146510
Si Si3 0.423062 0.274548 0.701988
Si Si4 0.479979 0.560741 0.888340
Si Si5 0.319871 0.807793 0.957883
Si Si6 0.687902 0.019923 0.399103
Si Si7 0.729541 0.572745 0.271490
Si Si8 0.055705 0.332145 0.241274
O O1 0.936111 0.825941 0.636721
O O2 0.762277 0.920637 0.611269
O O3 0.000000 0.890997 0.500000
O O4 0.068090 0.912567 0.671807
O O5 0.094677 0.799505 0.192602
O O6 0.374942 0.843580 0.199897
O O7 0.113427 0.901727 0.158645
O O8 0.220093 0.840177 0.034946
O O9 0.250000 0.250000 0.677765
O O10 0.543092 0.224091 0.704080
O O11 0.500000 0.500000 0.863997
O O12 0.309449 0.574580 0.839358
O O13 0.500000 0.565235 0.000000
O O14 0.250000 0.750000 0.963487
O O15 0.331772 0.822901 0.849634
O O16 0.500000 0.808681 0.000000
O O17 0.500000 0.000000 0.405235
O O18 0.758798 0.000000 0.500000
O O19 0.737133 0.985701 0.308717
O O20 0.868118 0.616791 0.292628
#
# Coordination Sequence:
#
# PCOD9323239 Si02
#       8
#     8   8   8   8   8   8   8   8
#     4  12  25  47  73 103 138 186 227 292 363 413
#     4  10  20  41  64  88 134 190 225 284 350 411
#     4  10  23  43  68  94 139 188 226 281 350 433
#     4  11  24  41  64  99 135 182 238 290 361 435
#     4  10  20  34  59  93 132 178 229 284 327 397
#     4  11  26  47  76 107 136 177 242 301 350 426
#     4  12  25  41  72 102 136 183 227 302 348 415
#     4  10  24  39  62 101 138 179 233 278 351 429
#
# _framework density 21.581648000000001
#
# number of rings (size 3 to 8) (size 9 to 14) (size 15 to 20)
#    0.000    1.250    2.500    3.750    5.250    2.500 
#    2.250    0.000    0.000    1.500    0.000    0.000 
#    0.000    0.000    0.000    0.000    0.000    0.000 
#
# Total GULP energy -178389.845851 kJ/mol
# GULP energy per Si atom -5574.682683 kJ/mol
# Density = 2.153253 g / cm^3
# Si number density = 21.581648 Si / 1000 Ang^3
#
#
#
# Elastic Constant Matrix: (Units=GPa)
#
#
# Indices 1 2 3 4 5 6 
#
# 1 44.9601 43.4799 13.7029 0.0000 0.0000 0.0000
# 2 43.4799 142.4027 20.8091 0.0000 0.0000 0.0000
# 3 13.7029 20.8091 86.3203 0.0000 0.0000 0.0000
# 4 0.0000 0.0000 0.0000 27.3155 0.0000 0.0000
# 5 0.0000 0.0000 0.0000 0.0000 19.1984 0.0000
# 6 0.0000 0.0000 0.0000 0.0000 0.0000 43.3082
#
#
#
# Elastic Compliance Matrix: (Units=1/GPa)
#
#
# Indices 1 2 3 4 5 6 
#
# 1 0.032221 -0.009423 -0.002843 0.000000 0.000000 0.000000
# 2 -0.009423 0.010034 -0.000923 0.000000 0.000000 0.000000
# 3 -0.002843 -0.000923 0.012259 0.000000 0.000000 0.000000
# 4 0.000000 0.000000 0.000000 0.036609 0.000000 0.000000
# 5 0.000000 0.000000 0.000000 0.000000 0.052088 0.000000
# 6 0.000000 0.000000 0.000000 0.000000 0.000000 0.023090
#
#
# Mechanical properties :
#
#
# Convention : Reuss Voigt Hill
#
# Bulk Modulus (GPa) = 35.54223 47.74080 41.64152
# Shear Modulus (GPa) = 24.74541 31.01051 27.87796
#
# Velocity S-wave (km/s) = 3.38981 3.79475 3.59798
# Velocity P-wave (km/s) = 5.64142 6.43189 6.04958
#
# Compressibility (1/GPa) = 0.02813554
#
# Stress axis : x y z
#
# Youngs Moduli (GPa) = 31.03581 99.65895 81.57486
#
# Poissons Ratio (x) = 0.93904 0.23195
# Poissons Ratio (y) = 0.29244 0.07531
# Poissons Ratio (z) = 0.08825 0.09200
#
# Static dielectric constant tensor:
#      x y z
#    x 2.013280 0.000000 0.000000 
#    y 0.000000 1.799900 0.000000 
#    z 0.000000 0.000000 1.811530 
# 
# From -- ./inp_files/30915.got.cif
#   From: 2010.05.17/outbox.cif.g08.bks.cpg/sg21_16_cif.got.tgz:30915.got - 2010.06.03 23:14:55.
