data_PCOD9323371
_publ_section_title
;
Structure prediction by ZEFSAII (Michael W. Deem and Ramdas Pophale) SiO2 
 PCOD9323371
Probable space group: C 2 2 2
;
_chemical_formula_sum "Si O2"
_cell_formula_units_Z 46
_cell_length_a 18.590113
_cell_length_b 8.107501
_cell_length_c 12.970643
_cell_angle_alpha 90.000000
_cell_angle_beta 90.000000
_cell_angle_gamma 90.000000
_cell_volume 1954.927008
_symmetry_space_group_name_H-M "C 2 2 2"
_symmetry_group_IT_number 21
_symmetry_cell_setting 'orthorhombic'
loop_
_space_group_symop_operation_xyz
x,y,z
-x,-y,z
x,-y,-z
-x,y,-z
1/2+x,1/2+y,z
1/2-x,1/2-y,z
1/2+x,1/2-y,-z
1/2-x,1/2+y,-z
loop_
_atom_site_type_symbol
_atom_site_label
_atom_site_fract_x
_atom_site_fract_y
_atom_site_fract_z
Si Si1 0.146051 0.712211 0.762178
Si Si2 0.000000 0.500000 0.000000
Si Si3 0.137220 0.371150 0.897626
Si Si4 0.506058 0.200089 0.625621
Si Si5 0.856771 0.814658 0.700989
Si Si6 0.266034 0.002370 0.620330
Si Si7 0.750000 0.750000 0.066560
O O1 0.141257 0.538285 0.828497
O O2 0.071053 0.751968 0.704045
O O3 0.192586 0.651613 0.665411
O O4 0.190624 0.817723 0.848851
O O5 0.056204 0.383711 0.940270
O O6 0.147554 0.219601 0.821315
O O7 0.196988 0.342603 0.985680
O O8 0.500000 0.223830 0.500000
O O9 0.437530 0.299097 0.665814
O O10 0.500000 0.000000 0.639877
O O11 0.812455 0.973158 0.668425
O O12 0.814694 0.661260 0.648364
O O13 0.258597 0.000000 0.500000
#
# Coordination Sequence:
#
# PCOD9323371 Si02
#       7
#     8   2   8   8   8   8   4
#     4  11  22  38  59  91 124 164 210 263 318 390
#     4  12  20  36  68  92 124 146 216 272 324 368
#     4  11  21  37  59  94 126 164 207 272 328 374
#     4  11  20  35  63  96 127 150 201 272 331 372
#     4  10  21  35  59  90 129 166 203 264 330 376
#     4  10  20  36  59  88 125 168 207 252 316 390
#     4  12  24  36  58  94 130 166 214 264 318 390
#
# _framework density 23.530290999999998
#
# number of rings (size 3 to 8) (size 9 to 14) (size 15 to 20)
#    0.000    1.217    5.217    4.174    0.000    2.783 
#    0.000    0.000    0.000    3.652    4.522    0.000 
#    0.000    0.000    0.000    0.000    0.000    0.000 
#
# Total GULP energy -128147.003205 kJ/mol
# GULP energy per Si atom -5571.608835 kJ/mol
# Density = 2.347674 g / cm^3
# Si number density = 23.530291 Si / 1000 Ang^3
#
#
#
# Elastic Constant Matrix: (Units=GPa)
#
#
# Indices 1 2 3 4 5 6 
#
# 1 224.0719 43.9357 99.6376 0.0000 0.0000 0.0000
# 2 43.9357 47.1186 29.4463 0.0000 0.0000 0.0000
# 3 99.6376 29.4463 213.3423 0.0000 0.0000 0.0000
# 4 0.0000 0.0000 0.0000 29.6173 0.0000 0.0000
# 5 0.0000 0.0000 0.0000 0.0000 372.7642 0.0000
# 6 0.0000 0.0000 0.0000 0.0000 0.0000 -19.9612
#
#
#
# Elastic Compliance Matrix: (Units=1/GPa)
#
#
# Indices 1 2 3 4 5 6 
#
# 1 0.006395 -0.004483 -0.002368 0.000000 0.000000 0.000000
# 2 -0.004483 0.026369 -0.001546 0.000000 0.000000 0.000000
# 3 -0.002368 -0.001546 0.006007 0.000000 0.000000 0.000000
# 4 0.000000 0.000000 0.000000 0.033764 0.000000 0.000000
# 5 0.000000 0.000000 0.000000 0.000000 0.002683 0.000000
# 6 0.000000 0.000000 0.000000 0.000000 0.000000 -0.050097
#
#
# Mechanical properties :
#
#
# Convention : Reuss Voigt Hill
#
# Bulk Modulus (GPa) = 45.50171 92.28578 68.89374
# Shear Modulus (GPa) = 101.54455 97.25159 99.39807
#
# Velocity S-wave (km/s) = 6.57636 6.43585 6.50648
# Velocity P-wave (km/s) = 8.77748 9.72275 9.26218
#
# Compressibility (1/GPa) = 0.02197720
#
# Stress axis : x y z
#
# Youngs Moduli (GPa) = 156.37773 37.92276 166.48631
#
# Poissons Ratio (x) = 0.17001 0.39420
# Poissons Ratio (y) = 0.70105 0.25736
# Poissons Ratio (z) = 0.37027 0.05862
#
# Static dielectric constant tensor:
#      x y z
#    x 1.934800 0.000000 0.000000 
#    y 0.000000 1.747230 0.000000 
#    z 0.000000 0.000000 1.922000 
# 
# From -- ./inp_files/26093.got.cif
#   From: 2010.05.17/outbox.cif.g08.bks.cpg/sg21_14_cif.got.tgz:26093.got - 2010.06.03 23:14:55.
