data_PCOD9323452
_publ_section_title
;
Structure prediction by ZEFSAII (Michael W. Deem and Ramdas Pophale) SiO2 
 PCOD9323452
Probable space group: C 2 2 2
;
_chemical_formula_sum "Si O2"
_cell_formula_units_Z 64
_cell_length_a 23.181159
_cell_length_b 8.950872
_cell_length_c 14.757980
_cell_angle_alpha 90.000000
_cell_angle_beta 90.000000
_cell_angle_gamma 90.000000
_cell_volume 3062.156691
_symmetry_space_group_name_H-M "C 2 2 2"
_symmetry_group_IT_number 21
_symmetry_cell_setting 'orthorhombic'
loop_
_space_group_symop_operation_xyz
x,y,z
-x,-y,z
x,-y,-z
-x,y,-z
1/2+x,1/2+y,z
1/2-x,1/2-y,z
1/2+x,1/2-y,-z
1/2-x,1/2+y,-z
loop_
_atom_site_type_symbol
_atom_site_label
_atom_site_fract_x
_atom_site_fract_y
_atom_site_fract_z
Si Si1 0.919149 0.645273 0.152623
Si Si2 0.858647 0.830744 0.299421
Si Si3 0.934635 0.154772 0.536737
Si Si4 0.287710 0.383391 0.704701
Si Si5 0.069122 0.163963 0.981472
Si Si6 0.115643 0.315182 0.620862
Si Si7 0.052321 0.307496 0.801916
Si Si8 0.191104 0.432301 0.399022
O O1 0.872329 0.724546 0.215453
O O2 0.922451 0.468062 0.166690
O O3 0.983587 0.693300 0.184934
O O4 0.910690 0.706869 0.050571
O O5 0.917714 0.847210 0.358425
O O6 0.817340 0.740413 0.371162
O O7 0.832748 0.987496 0.263681
O O8 0.905999 0.286644 0.479737
O O9 0.000000 0.156639 0.500000
O O10 0.908376 0.000000 0.500000
O O11 0.250000 0.250000 0.754335
O O12 0.327700 0.285334 0.637539
O O13 0.240597 0.489108 0.658839
O O14 0.077968 0.196707 0.876151
O O15 0.000000 0.159676 0.000000
O O16 0.093195 0.000000 0.000000
O O17 0.070466 0.275135 0.699300
O O18 0.132041 0.486823 0.632269
O O19 0.200321 0.500000 0.500000
#
# Coordination Sequence:
#
# PCOD9323452 Si02
#       8
#     8   8   8   8   8   8   8   8
#     4  10  21  36  58  91 123 165 199 235 300 365
#     4  12  22  39  60  88 119 160 204 252 304 372
#     4  11  23  36  53  83 123 166 202 238 290 361
#     4  10  25  39  59  81 111 152 202 264 313 348
#     4   9  19  34  57  89 121 158 202 244 286 344
#     4  11  21  39  55  85 117 157 199 240 302 363
#     4  10  20  37  59  85 131 164 194 242 292 366
#     4  11  23  38  61  86 113 153 204 263 306 350
#
# _framework density 20.900302
#
# number of rings (size 3 to 8) (size 9 to 14) (size 15 to 20)
#    0.000    1.500    3.750    1.500    3.500    2.500 
#    0.000    0.625    0.000    0.000    0.000    8.750 
#    0.000    0.000    0.000    0.000    0.000    0.000 
#
# Total GULP energy -178184.198790 kJ/mol
# GULP energy per Si atom -5568.256212 kJ/mol
# Density = 2.085273 g / cm^3
# Si number density = 20.900302 Si / 1000 Ang^3
#
#
#
# Elastic Constant Matrix: (Units=GPa)
#
#
# Indices 1 2 3 4 5 6 
#
# 1 39.7217 17.6490 -0.2691 0.0000 0.0000 0.0000
# 2 17.6490 104.7581 8.7542 0.0000 0.0000 0.0000
# 3 -0.2691 8.7542 62.9538 0.0000 0.0000 0.0000
# 4 0.0000 0.0000 0.0000 26.0145 0.0000 0.0000
# 5 0.0000 0.0000 0.0000 0.0000 1.6510 0.0000
# 6 0.0000 0.0000 0.0000 0.0000 0.0000 28.1789
#
#
#
# Elastic Compliance Matrix: (Units=1/GPa)
#
#
# Indices 1 2 3 4 5 6 
#
# 1 0.027248 -0.004654 0.000764 0.000000 0.000000 0.000000
# 2 -0.004654 0.010453 -0.001473 0.000000 0.000000 0.000000
# 3 0.000764 -0.001473 0.016093 0.000000 0.000000 0.000000
# 4 0.000000 0.000000 0.000000 0.038440 0.000000 0.000000
# 5 0.000000 0.000000 0.000000 0.000000 0.605687 0.000000
# 6 0.000000 0.000000 0.000000 0.000000 0.000000 0.035488
#
#
# Mechanical properties :
#
#
# Convention : Reuss Voigt Hill
#
# Bulk Modulus (GPa) = 23.22023 28.85574 26.03799
# Shear Modulus (GPa) = 6.59202 23.25552 14.92377
#
# Velocity S-wave (km/s) = 1.77789 3.33932 2.67506
# Velocity P-wave (km/s) = 3.91773 5.35765 4.69324
#
# Compressibility (1/GPa) = 0.04306589
#
# Stress axis : x y z
#
# Youngs Moduli (GPa) = 36.69942 95.66553 62.13944
#
# Poissons Ratio (x) = 0.44527 -0.04746
# Poissons Ratio (y) = 0.17082 0.09156
# Poissons Ratio (z) = -0.02803 0.14096
#
# Static dielectric constant tensor:
#      x y z
#    x 1.819110 0.000000 0.000000 
#    y 0.000000 1.805350 0.000000 
#    z 0.000000 0.000000 1.747470 
# 
# From -- ./inp_files/33619.got.cif
#   From: 2010.05.17/outbox.cif.g08.bks.cpg/sg21_17_cif.got.tgz:33619.got - 2010.06.03 23:14:55.
