data_PCOD9323259
_publ_section_title
;
Structure prediction by ZEFSAII (Michael W. Deem and Ramdas Pophale) SiO2 
 PCOD9323259
Probable space group: C 2 2 2
;
_chemical_formula_sum "Si O2"
_cell_formula_units_Z 48
_cell_length_a 18.026640
_cell_length_b 8.682046
_cell_length_c 15.445173
_cell_angle_alpha 90.000000
_cell_angle_beta 90.000000
_cell_angle_gamma 90.000000
_cell_volume 2417.294954
_symmetry_space_group_name_H-M "C 2 2 2"
_symmetry_group_IT_number 21
_symmetry_cell_setting 'orthorhombic'
loop_
_space_group_symop_operation_xyz
x,y,z
-x,-y,z
x,-y,-z
-x,y,-z
1/2+x,1/2+y,z
1/2-x,1/2-y,z
1/2+x,1/2-y,-z
1/2-x,1/2+y,-z
loop_
_atom_site_type_symbol
_atom_site_label
_atom_site_fract_x
_atom_site_fract_y
_atom_site_fract_z
Si Si1 0.049568 0.859253 0.271063
Si Si2 0.201859 0.607394 0.919048
Si Si3 0.920501 0.452256 0.358512
Si Si4 0.787123 0.080729 0.230182
Si Si5 0.261883 0.932757 0.589675
Si Si6 0.553673 0.124012 0.823983
O O1 0.076617 0.730864 0.340766
O O2 0.124093 0.909974 0.222012
O O3 0.994875 0.767026 0.207038
O O4 0.000000 0.000000 0.306436
O O5 0.250000 0.750000 0.949704
O O6 0.247567 0.518167 0.844256
O O7 0.125236 0.663940 0.877892
O O8 0.186280 0.500000 0.000000
O O9 0.848104 0.515111 0.405048
O O10 0.919757 0.534772 0.263600
O O11 0.000000 0.500000 0.397119
O O12 0.750000 0.250000 0.229784
O O13 0.773207 0.004680 0.323970
O O14 0.250000 0.750000 0.591115
O O15 0.230547 0.000000 0.500000
O O16 0.500000 0.000000 0.869458
#
# Coordination Sequence:
#
# PCOD9323259 Si02
#       6
#     8   8   8   8   8   8
#     4  10  20  34  67  96 124 164 221 267 332 395
#     4  12  25  40  64  96 131 170 222 269 336 402
#     4   9  20  39  63  90 126 170 216 262 331 399
#     4  12  22  42  68  97 132 172 215 285 337 399
#     4  12  26  42  66  97 133 179 231 278 345 414
#     4   9  19  40  61  90 120 173 213 258 326 404
#
# _framework density 19.856907
#
# number of rings (size 3 to 8) (size 9 to 14) (size 15 to 20)
#    0.000    1.667    3.333    3.500    4.667    0.667 
#    0.000    0.000    0.000    4.000    0.000    0.000 
#    0.000    0.000    0.000    0.000    0.000    0.000 
#
# Total GULP energy -134028.005949 kJ/mol
# GULP energy per Si atom -5584.500248 kJ/mol
# Density = 1.981171 g / cm^3
# Si number density = 19.856907 Si / 1000 Ang^3
#
#
#
# Elastic Constant Matrix: (Units=GPa)
#
#
# Indices 1 2 3 4 5 6 
#
# 1 104.9015 53.8016 23.2830 0.0000 0.0000 0.0000
# 2 53.8016 85.6075 5.1549 0.0000 0.0000 0.0000
# 3 23.2830 5.1549 65.4356 0.0000 0.0000 0.0000
# 4 0.0000 0.0000 0.0000 18.8070 0.0000 0.0000
# 5 0.0000 0.0000 0.0000 0.0000 -9.0191 0.0000
# 6 0.0000 0.0000 0.0000 0.0000 0.0000 29.2757
#
#
#
# Elastic Compliance Matrix: (Units=1/GPa)
#
#
# Indices 1 2 3 4 5 6 
#
# 1 0.015404 -0.009395 -0.004741 0.000000 0.000000 0.000000
# 2 -0.009395 0.017467 0.001967 0.000000 0.000000 0.000000
# 3 -0.004741 0.001967 0.016814 0.000000 0.000000 0.000000
# 4 0.000000 0.000000 0.000000 0.053172 0.000000 0.000000
# 5 0.000000 0.000000 0.000000 0.000000 -0.110876 0.000000
# 6 0.000000 0.000000 0.000000 0.000000 0.000000 0.034158
#
#
# Mechanical properties :
#
#
# Convention : Reuss Voigt Hill
#
# Bulk Modulus (GPa) = 39.45235 46.71373 43.08304
# Shear Modulus (GPa) = 84.85319 19.39306 52.12313
#
# Velocity S-wave (km/s) = 6.54409 3.12852 5.12897
# Velocity P-wave (km/s) = 8.77562 6.05197 7.53784
#
# Compressibility (1/GPa) = 0.02534703
#
# Stress axis : x y z
#
# Youngs Moduli (GPa) = 64.92022 57.24966 59.47411
#
# Poissons Ratio (x) = 0.53787 0.28195
# Poissons Ratio (y) = 0.60994 -0.11698
# Poissons Ratio (z) = 0.30777 -0.11260
#
# Static dielectric constant tensor:
#      x y z
#    x 1.719900 0.000000 0.000000 
#    y 0.000000 1.706850 0.000000 
#    z 0.000000 0.000000 1.683910 
# 
# From -- ./inp_files/32793.got.cif
#   From: 2010.05.17/outbox.cif.g08.bks.cpg/sg21_17_cif.got.tgz:32793.got - 2010.06.03 23:14:55.
