data_PCOD9323781
_publ_section_title
;
Structure prediction by ZEFSAII (Michael W. Deem and Ramdas Pophale) SiO2 
 PCOD9323781
Probable space group: C 2 2 2
;
_chemical_formula_sum "Si O2"
_cell_formula_units_Z 32
_cell_length_a 5.159711
_cell_length_b 32.637836
_cell_length_c 9.037259
_cell_angle_alpha 90.000000
_cell_angle_beta 90.000000
_cell_angle_gamma 90.000000
_cell_volume 1521.890696
_symmetry_space_group_name_H-M "C 2 2 2"
_symmetry_group_IT_number 21
_symmetry_cell_setting 'orthorhombic'
loop_
_space_group_symop_operation_xyz
x,y,z
-x,-y,z
x,-y,-z
-x,y,-z
1/2+x,1/2+y,z
1/2-x,1/2-y,z
1/2+x,1/2-y,-z
1/2-x,1/2+y,-z
loop_
_atom_site_type_symbol
_atom_site_label
_atom_site_fract_x
_atom_site_fract_y
_atom_site_fract_z
Si Si1 0.500000 0.000000 0.500000
Si Si2 0.000000 0.500000 0.000000
Si Si3 0.250000 0.250000 0.402877
Si Si4 0.003102 0.128852 0.178644
Si Si5 0.818055 0.960780 0.750261
Si Si6 0.998940 0.333131 0.677074
O O1 0.656596 0.968951 0.603457
O O2 0.848568 0.530828 0.895073
O O3 0.500000 0.265856 0.500000
O O4 0.113997 0.286757 0.314213
O O5 0.944742 0.083035 0.235259
O O6 0.778455 0.157738 0.250478
O O7 0.285250 0.140291 0.238909
O O8 0.000000 0.130768 0.000000
O O9 0.000000 0.000000 0.750667
O O10 0.000000 0.341870 0.500000
#
# Coordination Sequence:
#
# PCOD9323781 Si02
#       6
#     2   2   4   8   8   8
#     4  10  26  42  64  96 132 178 238 306 334 402
#     4  10  22  42  68  92 116 198 230 278 338 438
#     4  10  20  44  74 106 140 180 234 290 360 428
#     4  12  27  44  70 106 148 187 233 293 356 424
#     4  11  25  43  66  94 137 183 238 285 355 405
#     4  11  25  45  74 106 137 183 238 294 351 423
#
# _framework density 21.026475000000001
#
# number of rings (size 3 to 8) (size 9 to 14) (size 15 to 20)
#    0.000    1.000    0.000    6.750   12.250    2.000 
#    0.000    2.500    0.000    1.500    0.000    0.000 
#    0.000    0.000    0.000    0.000    0.000    0.000 
#
# Total GULP energy -89397.254261 kJ/mol
# GULP energy per Si atom -5587.328391 kJ/mol
# Density = 2.097862 g / cm^3
# Si number density = 21.026475 Si / 1000 Ang^3
#
#
#
# Elastic Constant Matrix: (Units=GPa)
#
#
# Indices 1 2 3 4 5 6 
#
# 1 81.7819 -2.4596 33.0918 0.0000 0.0000 0.0000
# 2 -2.4596 92.7941 18.2058 0.0000 0.0000 0.0000
# 3 33.0918 18.2058 142.6426 0.0000 0.0000 0.0000
# 4 0.0000 0.0000 0.0000 94.4972 0.0000 0.0000
# 5 0.0000 0.0000 0.0000 0.0000 78.7889 0.0000
# 6 0.0000 0.0000 0.0000 0.0000 0.0000 33.5509
#
#
#
# Elastic Compliance Matrix: (Units=1/GPa)
#
#
# Indices 1 2 3 4 5 6 
#
# 1 0.013585 0.001004 -0.003280 0.000000 0.000000 0.000000
# 2 0.001004 0.011127 -0.001653 0.000000 0.000000 0.000000
# 3 -0.003280 -0.001653 0.007982 0.000000 0.000000 0.000000
# 4 0.000000 0.000000 0.000000 0.010582 0.000000 0.000000
# 5 0.000000 0.000000 0.000000 0.000000 0.012692 0.000000
# 6 0.000000 0.000000 0.000000 0.000000 0.000000 0.029805
#
#
# Mechanical properties :
#
#
# Convention : Reuss Voigt Hill
#
# Bulk Modulus (GPa) = 40.26347 46.09940 43.18144
# Shear Modulus (GPa) = 49.06205 59.25944 54.16075
#
# Velocity S-wave (km/s) = 4.83571 5.31455 5.08078
# Velocity P-wave (km/s) = 7.09714 7.72213 7.41622
#
# Compressibility (1/GPa) = 0.02483641
#
# Stress axis : x y z
#
# Youngs Moduli (GPa) = 73.61121 89.86767 125.27621
#
# Poissons Ratio (x) = -0.09019 0.41086
# Poissons Ratio (y) = -0.07387 0.20709
# Poissons Ratio (z) = 0.24142 0.14855
#
# Static dielectric constant tensor:
#      x y z
#    x 1.751580 0.000000 0.000000 
#    y 0.000000 1.693440 0.000000 
#    z 0.000000 0.000000 1.720640 
# 
# From -- ./inp_files/9225.got.cif
#   From: 2010.05.17/outbox.cif.g08.bks.cpg/sg21_5_cif.got.tgz:9225.got - 2010.06.03 23:14:55.
