data_PCOD9323681
_publ_section_title
;
Structure prediction by ZEFSAII (Michael W. Deem and Ramdas Pophale) SiO2 
 PCOD9323681
Probable space group: C 2 2 2
;
_chemical_formula_sum "Si O2"
_cell_formula_units_Z 40
_cell_length_a 14.675045
_cell_length_b 15.766879
_cell_length_c 7.369508
_cell_angle_alpha 90.000000
_cell_angle_beta 90.000000
_cell_angle_gamma 90.000000
_cell_volume 1705.154247
_symmetry_space_group_name_H-M "C 2 2 2"
_symmetry_group_IT_number 21
_symmetry_cell_setting 'orthorhombic'
loop_
_space_group_symop_operation_xyz
x,y,z
-x,-y,z
x,-y,-z
-x,y,-z
1/2+x,1/2+y,z
1/2-x,1/2-y,z
1/2+x,1/2-y,-z
1/2-x,1/2+y,-z
loop_
_atom_site_type_symbol
_atom_site_label
_atom_site_fract_x
_atom_site_fract_y
_atom_site_fract_z
Si Si1 0.709890 0.837972 0.763887
Si Si2 0.986409 0.729769 0.715873
Si Si3 0.471147 0.588135 0.710515
Si Si4 0.685744 0.824209 0.187261
Si Si5 0.722237 0.482121 0.783585
O O1 0.750000 0.750000 0.687387
O O2 0.601081 0.829123 0.741598
O O3 0.759479 0.924371 0.700831
O O4 0.720612 0.833941 0.981308
O O5 0.979658 0.827737 0.783634
O O6 0.080494 0.699865 0.803623
O O7 0.000000 0.734546 0.500000
O O8 0.500000 0.500000 0.798824
O O9 0.500000 0.585776 0.500000
O O10 0.362936 0.576587 0.724803
O O11 0.750000 0.750000 0.268385
O O12 0.695467 0.918903 0.263885
O O13 0.714453 0.500000 0.000000
#
# Coordination Sequence:
#
# PCOD9323681 Si02
#       5
#     8   8   8   8   8
#     4  10  22  40  63  92 127 162 210 267 321 371
#     4  11  23  40  62  93 127 172 212 256 322 388
#     4  10  21  39  60  92 129 160 210 259 319 379
#     4  10  20  40  64  90 126 165 214 265 314 374
#     4  10  21  40  65  94 123 169 216 262 318 379
#
# _framework density 23.458289000000001
#
# number of rings (size 3 to 8) (size 9 to 14) (size 15 to 20)
#    0.000    1.800    2.000    1.800    0.000    2.000 
#   10.800    4.000    0.000    0.000    0.000    0.000 
#    0.000    0.000    0.000    0.000    0.000    0.000 
#
# Total GULP energy -111534.475456 kJ/mol
# GULP energy per Si atom -5576.723773 kJ/mol
# Density = 2.340490 g / cm^3
# Si number density = 23.458289 Si / 1000 Ang^3
#
#
#
# Elastic Constant Matrix: (Units=GPa)
#
#
# Indices 1 2 3 4 5 6 
#
# 1 78.5373 16.8019 -18.7114 0.0000 0.0000 0.0000
# 2 16.8019 115.9884 8.1655 0.0000 0.0000 0.0000
# 3 -18.7114 8.1655 72.7201 0.0000 0.0000 0.0000
# 4 0.0000 0.0000 0.0000 2.4598 0.0000 0.0000
# 5 0.0000 0.0000 0.0000 0.0000-1734.2715 0.0000
# 6 0.0000 0.0000 0.0000 0.0000 0.0000 12.7935
#
#
#
# Elastic Compliance Matrix: (Units=1/GPa)
#
#
# Indices 1 2 3 4 5 6 
#
# 1 0.014161 -0.002326 0.003905 0.000000 0.000000 0.000000
# 2 -0.002326 0.009072 -0.001617 0.000000 0.000000 0.000000
# 3 0.003905 -0.001617 0.014938 0.000000 0.000000 0.000000
# 4 0.000000 0.000000 0.000000 0.406533 0.000000 0.000000
# 5 0.000000 0.000000 0.000000 0.000000 -0.000577 0.000000
# 6 0.000000 0.000000 0.000000 0.000000 0.000000 0.078164
#
#
# Mechanical properties :
#
#
# Convention : Reuss Voigt Hill
#
# Bulk Modulus (GPa) = 26.25106 31.08419 28.66762
# Shear Modulus (GPa) = 9.34463 -326.40430 -158.52983
#
# Velocity S-wave (km/s) = 1.99804 -11.80866 -8.22959
# Velocity P-wave (km/s) = 4.06666 13.13950 8.83484
#
# Compressibility (1/GPa) = 0.03809371
#
# Stress axis : x y z
#
# Youngs Moduli (GPa) = 70.61748 110.22467 66.94468
#
# Poissons Ratio (x) = 0.25641 -0.26141
# Poissons Ratio (y) = 0.16427 0.10827
# Poissons Ratio (z) = -0.27575 0.17826
#
# Static dielectric constant tensor:
#      x y z
#    x 2.067410 0.000000 0.000000 
#    y 0.000000 3.097080 0.000000 
#    z 0.000000 0.000000 1.929640 
# 
# From -- ./inp_files/12717.got.cif
#   From: 2010.05.17/outbox.cif.g08.bks.cpg/sg21_7_cif.got.tgz:12717.got - 2010.06.03 23:14:55.
