data_PCOD9323858
_publ_section_title
;
Structure prediction by ZEFSAII (Michael W. Deem and Ramdas Pophale) SiO2 
 PCOD9323858
Probable space group: C 2 2 2
;
_chemical_formula_sum "Si O2"
_cell_formula_units_Z 54
_cell_length_a 28.254867
_cell_length_b 6.751837
_cell_length_c 15.821757
_cell_angle_alpha 90.000000
_cell_angle_beta 90.000000
_cell_angle_gamma 90.000000
_cell_volume 3018.352284
_symmetry_space_group_name_H-M "C 2 2 2"
_symmetry_group_IT_number 21
_symmetry_cell_setting 'orthorhombic'
loop_
_space_group_symop_operation_xyz
x,y,z
-x,-y,z
x,-y,-z
-x,y,-z
1/2+x,1/2+y,z
1/2-x,1/2-y,z
1/2+x,1/2-y,-z
1/2-x,1/2+y,-z
loop_
_atom_site_type_symbol
_atom_site_label
_atom_site_fract_x
_atom_site_fract_y
_atom_site_fract_z
Si Si1 0.443388 0.040326 0.597986
Si Si2 0.807301 0.500000 0.000000
Si Si3 0.200101 0.241430 0.162790
Si Si4 0.547392 0.409211 0.302085
Si Si5 0.399085 0.801899 0.747590
Si Si6 0.441519 0.846103 0.150753
Si Si7 0.000000 0.500000 0.000000
Si Si8 0.856073 0.881706 0.919953
O O1 0.431609 0.262951 0.628167
O O2 0.500000 0.000000 0.613034
O O3 0.434701 0.000000 0.500000
O O4 0.411444 0.906481 0.659163
O O5 0.787868 0.607686 0.084593
O O6 0.833516 0.313756 0.040445
O O7 0.250000 0.250000 0.211399
O O8 0.155022 0.304746 0.219505
O O9 0.181221 0.031533 0.123780
O O10 0.500000 0.500000 0.339905
O O11 0.580569 0.581982 0.266126
O O12 0.530857 0.265653 0.225013
O O13 0.426679 0.936034 0.817089
O O14 0.395767 0.708578 0.139528
O O15 0.468180 0.869619 0.062775
O O16 0.877294 0.000000 0.000000
#
# Coordination Sequence:
#
# PCOD9323858 Si02
#       8
#     8   4   8   8   8   8   2   8
#     4  10  22  40  64  97 125 154 194 244 307 380
#     4  10  21  38  52  79 118 148 205 268 307 352
#     4  11  24  38  61  89 116 161 215 267 321 362
#     4  11  21  37  60  84 121 158 195 242 301 369
#     4  11  22  41  60  85 123 160 198 256 313 371
#     4  11  23  38  52  79 118 164 213 251 299 362
#     4  12  26  32  54  80 118 174 212 252 296 360
#     4  10  21  36  56  78 111 157 207 263 316 351
#
# _framework density 17.890554999999999
#
# number of rings (size 3 to 8) (size 9 to 14) (size 15 to 20)
#    0.000    1.333    4.444    1.333    7.259    1.778 
#    0.000    0.741    0.000    0.000    3.852    0.000 
#    0.000    0.000    0.000    0.000    0.000    0.000 
#
# Total GULP energy -150349.212811 kJ/mol
# GULP energy per Si atom -5568.489363 kJ/mol
# Density = 1.784984 g / cm^3
# Si number density = 17.890555 Si / 1000 Ang^3
#
#
#
# Elastic Constant Matrix: (Units=GPa)
#
#
# Indices 1 2 3 4 5 6 
#
# 1 87.7103 43.0667 42.5756 0.0000 0.0000 0.0000
# 2 43.0667 124.2745 50.7760 0.0000 0.0000 0.0000
# 3 42.5756 50.7760 108.7910 0.0000 0.0000 0.0000
# 4 0.0000 0.0000 0.0000 7.8007 0.0000 0.0000
# 5 0.0000 0.0000 0.0000 0.0000 -69.6563 0.0000
# 6 0.0000 0.0000 0.0000 0.0000 0.0000 17.4952
#
#
#
# Elastic Compliance Matrix: (Units=1/GPa)
#
#
# Indices 1 2 3 4 5 6 
#
# 1 0.015221 -0.003510 -0.004318 0.000000 0.000000 0.000000
# 2 -0.003510 0.010752 -0.003645 0.000000 0.000000 0.000000
# 3 -0.004318 -0.003645 0.012583 0.000000 0.000000 0.000000
# 4 0.000000 0.000000 0.000000 0.128194 0.000000 0.000000
# 5 0.000000 0.000000 0.000000 0.000000 -0.014356 0.000000
# 6 0.000000 0.000000 0.000000 0.000000 0.000000 0.057158
#
#
# Mechanical properties :
#
#
# Convention : Reuss Voigt Hill
#
# Bulk Modulus (GPa) = 64.06331 65.95694 65.01012
# Shear Modulus (GPa) = 21.03468 3.41841 12.22655
#
# Velocity S-wave (km/s) = 3.43263 1.38379 2.61704
# Velocity P-wave (km/s) = 7.18309 6.28491 6.74896
#
# Compressibility (1/GPa) = 0.01560956
#
# Stress axis : x y z
#
# Youngs Moduli (GPa) = 65.69875 93.00311 79.47228
#
# Poissons Ratio (x) = 0.32647 0.34319
# Poissons Ratio (y) = 0.23063 0.28965
# Poissons Ratio (z) = 0.28371 0.33896
#
# Static dielectric constant tensor:
#      x y z
#    x 1.647800 0.000000 0.000000 
#    y 0.000000 1.820530 0.000000 
#    z 0.000000 0.000000 1.643560 
# 
# From -- ./inp_files/34050.got.cif
#   From: 2010.05.17/outbox.cif.g08.bks.cpg/sg21_18_cif.got.tgz:34050.got - 2010.06.03 23:14:55.
