data_PCOD9323159
_publ_section_title
;
Structure prediction by ZEFSAII (Michael W. Deem and Ramdas Pophale) SiO2 
 PCOD9323159
Probable space group: C 2 2 2
;
_chemical_formula_sum "Si O2"
_cell_formula_units_Z 34
_cell_length_a 5.550061
_cell_length_b 37.278204
_cell_length_c 7.375323
_cell_angle_alpha 90.000000
_cell_angle_beta 90.000000
_cell_angle_gamma 90.000000
_cell_volume 1525.927086
_symmetry_space_group_name_H-M "C 2 2 2"
_symmetry_group_IT_number 21
_symmetry_cell_setting 'orthorhombic'
loop_
_space_group_symop_operation_xyz
x,y,z
-x,-y,z
x,-y,-z
-x,y,-z
1/2+x,1/2+y,z
1/2-x,1/2-y,z
1/2+x,1/2-y,-z
1/2-x,1/2+y,-z
loop_
_atom_site_type_symbol
_atom_site_label
_atom_site_fract_x
_atom_site_fract_y
_atom_site_fract_z
Si Si1 0.000000 0.000000 0.000000
Si Si2 0.001091 0.768540 0.720489
Si Si3 0.507222 0.884122 0.706437
Si Si4 0.391184 0.036472 0.797959
Si Si5 0.505256 0.647789 0.278402
O O1 0.878164 0.027015 0.144832
O O2 0.250000 0.750000 0.781323
O O3 0.000000 0.766572 0.500000
O O4 0.750000 0.750000 0.779941
O O5 0.012238 0.810364 0.768728
O O6 0.500000 0.870257 0.500000
O O7 0.547690 0.926786 0.703259
O O8 0.751789 0.868156 0.789582
O O9 0.248045 0.872587 0.783709
O O10 0.500000 0.000000 0.715140
O O11 0.500000 0.039495 0.000000
O O12 0.500000 0.644623 0.500000
#
# Coordination Sequence:
#
# PCOD9323159 Si02
#       5
#     2   8   8   8   8
#     4   8  18  36  56  76  96 132 174 230 258 300
#     4   9  15  24  41  63  93 133 171 200 236 292
#     4  10  20  33  51  73 106 137 164 205 259 308
#     4   9  20  35  55  74  98 130 173 214 258 295
#     4   9  18  30  44  70 104 136 166 205 254 299
#
# _framework density 22.281537
#
# number of rings (size 3 to 8) (size 9 to 14) (size 15 to 20)
#    0.000    3.059    0.000    1.412    6.588    6.118 
#    0.000    0.000    0.000    0.000    0.000    0.000 
#    0.000   18.824    0.000    0.000    0.000    0.000 
#
# Total GULP energy -94695.447395 kJ/mol
# GULP energy per Si atom -5570.320435 kJ/mol
# Density = 2.223082 g / cm^3
# Si number density = 22.281537 Si / 1000 Ang^3
#
#
#
# Elastic Constant Matrix: (Units=GPa)
#
#
# Indices 1 2 3 4 5 6 
#
# 1 219.3938 120.5176 8.3891 0.0000 0.0000 0.0000
# 2 120.5176 163.9410 -7.0754 0.0000 0.0000 0.0000
# 3 8.3891 -7.0754 67.1249 0.0000 0.0000 0.0000
# 4 0.0000 0.0000 0.0000 129.5125 0.0000 0.0000
# 5 0.0000 0.0000 0.0000 0.0000 -0.2499 0.0000
# 6 0.0000 0.0000 0.0000 0.0000 0.0000 61.6240
#
#
#
# Elastic Compliance Matrix: (Units=1/GPa)
#
#
# Indices 1 2 3 4 5 6 
#
# 1 0.007810 -0.005810 -0.001589 0.000000 0.000000 0.000000
# 2 -0.005810 0.010450 0.001828 0.000000 0.000000 0.000000
# 3 -0.001589 0.001828 0.015289 0.000000 0.000000 0.000000
# 4 0.000000 0.000000 0.000000 0.007721 0.000000 0.000000
# 5 0.000000 0.000000 0.000000 0.000000 -4.001161 0.000000
# 6 0.000000 0.000000 0.000000 0.000000 0.000000 0.016227
#
#
# Mechanical properties :
#
#
# Convention : Reuss Voigt Hill
#
# Bulk Modulus (GPa) = 44.62931 77.12469 60.87700
# Shear Modulus (GPa) = -1.27387 60.08587 29.40600
#
# Velocity S-wave (km/s) = -0.75694 5.19858 3.63677
# Velocity P-wave (km/s) = 4.39423 8.40967 6.70939
#
# Compressibility (1/GPa) = 0.02240680
#
# Stress axis : x y z
#
# Youngs Moduli (GPa) = 128.03374 95.69468 65.40745
#
# Poissons Ratio (x) = 0.55601 0.10390
# Poissons Ratio (y) = 0.74391 -0.11954
# Poissons Ratio (z) = 0.20339 -0.17490
#
# Static dielectric constant tensor:
#      x y z
#    x 1.600870 0.000000 0.000000 
#    y 0.000000 1.723950 0.000000 
#    z 0.000000 0.000000 1.860250 
# 
# From -- ./inp_files/21351.got.cif
#   From: 2010.05.17/outbox.cif.g08.bks.cpg/sg21_11_cif.got.tgz:21351.got - 2010.06.03 23:14:55.
