data_PCOD9323510
_publ_section_title
;
Structure prediction by ZEFSAII (Michael W. Deem and Ramdas Pophale) SiO2 
 PCOD9323510
Probable space group: C 2 2 2
;
_chemical_formula_sum "Si O2"
_cell_formula_units_Z 60
_cell_length_a 26.437716
_cell_length_b 19.017977
_cell_length_c 5.427131
_cell_angle_alpha 90.000000
_cell_angle_beta 90.000000
_cell_angle_gamma 90.000000
_cell_volume 2728.717370
_symmetry_space_group_name_H-M "C 2 2 2"
_symmetry_group_IT_number 21
_symmetry_cell_setting 'orthorhombic'
loop_
_space_group_symop_operation_xyz
x,y,z
-x,-y,z
x,-y,-z
-x,y,-z
1/2+x,1/2+y,z
1/2-x,1/2-y,z
1/2+x,1/2-y,-z
1/2-x,1/2+y,-z
loop_
_atom_site_type_symbol
_atom_site_label
_atom_site_fract_x
_atom_site_fract_y
_atom_site_fract_z
Si Si1 0.631654 0.583393 0.457453
Si Si2 0.633627 0.222825 0.303392
Si Si3 0.207515 0.500000 0.500000
Si Si4 0.175229 0.848198 0.036277
Si Si5 0.132119 0.429798 0.124982
Si Si6 0.554990 0.306588 0.627551
Si Si7 0.782123 0.631827 0.767061
Si Si8 0.444385 0.175476 0.042866
O O1 0.631282 0.500000 0.500000
O O2 0.651156 0.612638 0.723512
O O3 0.576088 0.613941 0.376052
O O4 0.664590 0.612002 0.221587
O O5 0.651207 0.270607 0.069196
O O6 0.603022 0.270696 0.491487
O O7 0.685822 0.187517 0.395707
O O8 0.588314 0.174112 0.205423
O O9 0.169276 0.457266 0.331675
O O10 0.237797 0.439141 0.636148
O O11 0.234822 0.839662 0.084820
O O12 0.089822 0.375110 0.211348
O O13 0.109314 0.500000 0.000000
O O14 0.172410 0.394195 0.940446
O O15 0.500000 0.302778 0.500000
O O16 0.550142 0.255704 0.863552
O O17 0.500000 0.147297 0.000000
#
# Coordination Sequence:
#
# PCOD9323510 Si02
#       8
#     8   8   4   8   8   8   8   8
#     4  11  26  44  66  98 138 173 221 281 336 408
#     4  10  21  41  60  94 128 163 219 282 333 395
#     4  10  20  38  56  87 128 166 221 266 326 400
#     4  11  24  43  66  96 133 177 220 275 334 401
#     4   9  21  37  57  86 125 167 212 270 326 396
#     4  11  22  40  67  94 126 171 222 275 349 407
#     4  10  22  37  63  91 126 175 222 271 333 395
#     4  11  20  37  65  87 120 162 215 272 333 396
#
# _framework density 21.988353
#
# number of rings (size 3 to 8) (size 9 to 14) (size 15 to 20)
#    0.000    1.600    2.667    1.600    2.800    2.667 
#    0.000    1.333    0.000    2.400    0.000    0.000 
#    0.000    0.000    0.000    0.000    0.000    0.000 
#
# Total GULP energy -167035.584950 kJ/mol
# GULP energy per Si atom -5567.852832 kJ/mol
# Density = 2.193831 g / cm^3
# Si number density = 21.988353 Si / 1000 Ang^3
#
#
#
# Elastic Constant Matrix: (Units=GPa)
#
#
# Indices 1 2 3 4 5 6 
#
# 1 120.2770 34.6062 9.4319 0.0000 0.0000 0.0000
# 2 34.6062 71.9010 4.2267 0.0000 0.0000 0.0000
# 3 9.4319 4.2267 54.4532 0.0000 0.0000 0.0000
# 4 0.0000 0.0000 0.0000 29.2469 0.0000 0.0000
# 5 0.0000 0.0000 0.0000 0.0000 22.1362 0.0000
# 6 0.0000 0.0000 0.0000 0.0000 0.0000 19.0924
#
#
#
# Elastic Compliance Matrix: (Units=1/GPa)
#
#
# Indices 1 2 3 4 5 6 
#
# 1 0.009746 -0.004612 -0.001330 0.000000 0.000000 0.000000
# 2 -0.004612 0.016155 -0.000455 0.000000 0.000000 0.000000
# 3 -0.001330 -0.000455 0.018630 0.000000 0.000000 0.000000
# 4 0.000000 0.000000 0.000000 0.034192 0.000000 0.000000
# 5 0.000000 0.000000 0.000000 0.000000 0.045175 0.000000
# 6 0.000000 0.000000 0.000000 0.000000 0.000000 0.052377
#
#
# Mechanical properties :
#
#
# Convention : Reuss Voigt Hill
#
# Bulk Modulus (GPa) = 31.51045 38.12896 34.81971
# Shear Modulus (GPa) = 25.04419 27.31952 26.18185
#
# Velocity S-wave (km/s) = 3.37853 3.52867 3.45442
# Velocity P-wave (km/s) = 5.43884 5.82925 5.63743
#
# Compressibility (1/GPa) = 0.03173550
#
# Stress axis : x y z
#
# Youngs Moduli (GPa) = 102.61135 61.90148 53.67664
#
# Poissons Ratio (x) = 0.28551 0.07139
# Poissons Ratio (y) = 0.47328 0.02442
# Poissons Ratio (z) = 0.13648 0.02817
#
# Static dielectric constant tensor:
#      x y z
#    x 1.796070 0.000000 0.000000 
#    y 0.000000 2.474670 0.000000 
#    z 0.000000 0.000000 1.994390 
# 
# From -- ./inp_files/6832.got.cif
#   From: 2010.05.17/outbox.cif.g08.bks.cpg/sg21_4_cif.got.tgz:6832.got - 2010.06.03 23:14:55.
