data_PCOD9323454
_publ_section_title
;
Structure prediction by ZEFSAII (Michael W. Deem and Ramdas Pophale) SiO2 
 PCOD9323454
Probable space group: C 2 2 2
;
_chemical_formula_sum "Si O2"
_cell_formula_units_Z 48
_cell_length_a 12.779689
_cell_length_b 23.253743
_cell_length_c 7.303954
_cell_angle_alpha 90.000000
_cell_angle_beta 90.000000
_cell_angle_gamma 90.000000
_cell_volume 2170.556939
_symmetry_space_group_name_H-M "C 2 2 2"
_symmetry_group_IT_number 21
_symmetry_cell_setting 'orthorhombic'
loop_
_space_group_symop_operation_xyz
x,y,z
-x,-y,z
x,-y,-z
-x,y,-z
1/2+x,1/2+y,z
1/2-x,1/2-y,z
1/2+x,1/2-y,-z
1/2-x,1/2+y,-z
loop_
_atom_site_type_symbol
_atom_site_label
_atom_site_fract_x
_atom_site_fract_y
_atom_site_fract_z
Si Si1 0.404561 0.398330 0.623320
Si Si2 0.036092 0.667445 0.787005
Si Si3 0.277164 0.504975 0.276385
Si Si4 0.771584 0.874433 0.284366
Si Si5 0.556192 0.054128 0.200225
Si Si6 0.533786 0.703712 0.207481
O O1 0.500000 0.421895 0.500000
O O2 0.370269 0.449918 0.753646
O O3 0.305607 0.380606 0.497621
O O4 0.452480 0.340473 0.703519
O O5 0.154162 0.644254 0.761123
O O6 0.031830 0.732120 0.711126
O O7 0.962379 0.616353 0.711244
O O8 0.000000 0.672645 0.000000
O O9 0.265351 0.500000 0.500000
O O10 0.289526 0.439484 0.210766
O O11 0.175261 0.535167 0.193956
O O12 0.853236 0.826932 0.214111
O O13 0.500000 0.000000 0.294505
O O14 0.500000 0.057854 0.000000
O O15 0.500000 0.708359 0.000000
#
# Coordination Sequence:
#
# PCOD9323454 Si02
#       6
#     8   8   8   8   8   8
#     4   9  21  42  62  89 125 158 203 255 301 359
#     4  10  21  39  62  87 120 160 200 251 305 360
#     4  10  21  38  62  90 117 161 200 245 306 362
#     4  10  20  39  64  86 118 161 204 247 307 363
#     4  10  20  37  59  88 122 152 193 247 303 359
#     4  10  22  40  61  88 122 162 205 250 301 359
#
# _framework density 22.114139000000002
#
# number of rings (size 3 to 8) (size 9 to 14) (size 15 to 20)
#    0.000    2.167    1.667    0.500    0.000   10.667 
#    0.000   18.333    0.000    0.000    0.000    0.000 
#    0.000    0.000    0.000    0.000    0.000    0.000 
#
# Total GULP energy -133862.753021 kJ/mol
# GULP energy per Si atom -5577.614709 kJ/mol
# Density = 2.206381 g / cm^3
# Si number density = 22.114139 Si / 1000 Ang^3
#
#
#
# Elastic Constant Matrix: (Units=GPa)
#
#
# Indices 1 2 3 4 5 6 
#
# 1 94.6530 78.9739 14.2118 0.0000 0.0000 0.0000
# 2 78.9739 251.8121 6.2428 0.0000 0.0000 0.0000
# 3 14.2118 6.2428 47.8607 0.0000 0.0000 0.0000
# 4 0.0000 0.0000 0.0000 3.1153 0.0000 0.0000
# 5 0.0000 0.0000 0.0000 0.0000 30.4926 0.0000
# 6 0.0000 0.0000 0.0000 0.0000 0.0000 30.7348
#
#
#
# Elastic Compliance Matrix: (Units=1/GPa)
#
#
# Indices 1 2 3 4 5 6 
#
# 1 0.014984 -0.004604 -0.003849 0.000000 0.000000 0.000000
# 2 -0.004604 0.005399 0.000663 0.000000 0.000000 0.000000
# 3 -0.003849 0.000663 0.021950 0.000000 0.000000 0.000000
# 4 0.000000 0.000000 0.000000 0.320996 0.000000 0.000000
# 5 0.000000 0.000000 0.000000 0.000000 0.032795 0.000000
# 6 0.000000 0.000000 0.000000 0.000000 0.000000 0.032536
#
#
# Mechanical properties :
#
#
# Convention : Reuss Voigt Hill
#
# Bulk Modulus (GPa) = 37.37845 65.90918 51.64382
# Shear Modulus (GPa) = 11.03367 32.52835 21.78101
#
# Velocity S-wave (km/s) = 2.23612 3.83943 3.14177
# Velocity P-wave (km/s) = 4.85862 7.03731 6.04690
#
# Compressibility (1/GPa) = 0.02675338
#
# Stress axis : x y z
#
# Youngs Moduli (GPa) = 66.73746 185.23064 45.55733
#
# Poissons Ratio (x) = 0.85279 0.17534
# Poissons Ratio (y) = 0.30725 -0.03020
# Poissons Ratio (z) = 0.25686 -0.12279
#
# Static dielectric constant tensor:
#      x y z
#    x 1.814370 0.000000 0.000000 
#    y 0.000000 1.895080 0.000000 
#    z 0.000000 0.000000 1.937950 
# 
# From -- ./inp_files/13317.got.cif
#   From: 2010.05.17/outbox.cif.g08.bks.cpg/sg21_7_cif.got.tgz:13317.got - 2010.06.03 23:14:55.
