data_PCOD9323092
_publ_section_title
;
Structure prediction by ZEFSAII (Michael W. Deem and Ramdas Pophale) SiO2 
 PCOD9323092
Probable space group: C 2 2 2
;
_chemical_formula_sum "Si O2"
_cell_formula_units_Z 44
_cell_length_a 17.397200
_cell_length_b 9.141267
_cell_length_c 14.226574
_cell_angle_alpha 90.000000
_cell_angle_beta 90.000000
_cell_angle_gamma 90.000000
_cell_volume 2262.486922
_symmetry_space_group_name_H-M "C 2 2 2"
_symmetry_group_IT_number 21
_symmetry_cell_setting 'orthorhombic'
loop_
_space_group_symop_operation_xyz
x,y,z
-x,-y,z
x,-y,-z
-x,y,-z
1/2+x,1/2+y,z
1/2-x,1/2-y,z
1/2+x,1/2-y,-z
1/2-x,1/2+y,-z
loop_
_atom_site_type_symbol
_atom_site_label
_atom_site_fract_x
_atom_site_fract_y
_atom_site_fract_z
Si Si1 0.486342 0.174123 0.392535
Si Si2 0.441575 0.365568 0.767030
Si Si3 0.853544 0.637173 0.256818
Si Si4 0.073693 0.405911 0.884296
Si Si5 0.802952 0.933827 0.188435
Si Si6 0.291252 0.000000 0.000000
O O1 0.500000 0.218307 0.500000
O O2 0.541454 0.270527 0.326134
O O3 0.400823 0.186024 0.348134
O O4 0.500000 0.000000 0.386674
O O5 0.500000 0.500000 0.768331
O O6 0.454050 0.251014 0.850628
O O7 0.357467 0.433887 0.782081
O O8 0.894060 0.503339 0.202859
O O9 0.849491 0.781592 0.191316
O O10 0.765446 0.586660 0.264389
O O11 0.000000 0.500000 0.912145
O O12 0.145544 0.388697 0.955493
O O13 0.761714 0.952907 0.087362
#
# Coordination Sequence:
#
# PCOD9323092 Si02
#       6
#     8   8   8   8   8   4
#     4  11  22  42  74  96 123 170 227 266 323 410
#     4  12  22  40  66  98 131 171 216 270 343 386
#     4  10  19  41  64  87 130 179 208 265 343 386
#     4  11  20  38  64  90 128 175 224 269 320 392
#     4  10  23  38  66  88 136 174 210 274 334 388
#     4  10  25  40  61  94 128 172 234 264 317 386
#
# _framework density 19.447627000000001
#
# number of rings (size 3 to 8) (size 9 to 14) (size 15 to 20)
#    0.000    1.273    5.455    0.273    0.000    9.091 
#    0.000    2.273   16.000    0.000    0.000    0.000 
#    0.000    0.000    0.000    0.000    0.000    0.000 
#
# Total GULP energy -122594.856081 kJ/mol
# GULP energy per Si atom -5572.493458 kJ/mol
# Density = 1.940336 g / cm^3
# Si number density = 19.447627 Si / 1000 Ang^3
#
#
#
# Elastic Constant Matrix: (Units=GPa)
#
#
# Indices 1 2 3 4 5 6 
#
# 1 119.1657 45.6876 70.7320 0.0000 0.0000 0.0000
# 2 45.6876 110.5131 46.5693 0.0000 0.0000 0.0000
# 3 70.7320 46.5693 125.1717 0.0000 0.0000 0.0000
# 4 0.0000 0.0000 0.0000 -28.8133 0.0000 0.0000
# 5 0.0000 0.0000 0.0000 0.0000 25.6254 0.0000
# 6 0.0000 0.0000 0.0000 0.0000 0.0000 44.5526
#
#
#
# Elastic Compliance Matrix: (Units=1/GPa)
#
#
# Indices 1 2 3 4 5 6 
#
# 1 0.013303 -0.002766 -0.006489 0.000000 0.000000 0.000000
# 2 -0.002766 0.011306 -0.002644 0.000000 0.000000 0.000000
# 3 -0.006489 -0.002644 0.012639 0.000000 0.000000 0.000000
# 4 0.000000 0.000000 0.000000 -0.034706 0.000000 0.000000
# 5 0.000000 0.000000 0.000000 0.000000 0.039024 0.000000
# 6 0.000000 0.000000 0.000000 0.000000 0.000000 0.022445
#
#
# Mechanical properties :
#
#
# Convention : Reuss Voigt Hill
#
# Bulk Modulus (GPa) = 74.33231 75.64759 74.98995
# Shear Modulus (GPa) = 54.17652 21.06373 37.62013
#
# Velocity S-wave (km/s) = 5.28376 3.29462 4.40299
# Velocity P-wave (km/s) = 8.69074 7.31131 8.03070
#
# Compressibility (1/GPa) = 0.01345310
#
# Stress axis : x y z
#
# Youngs Moduli (GPa) = 75.16926 88.44871 79.11972
#
# Poissons Ratio (x) = 0.24461 0.51337
# Poissons Ratio (y) = 0.20788 0.20916
# Poissons Ratio (z) = 0.48774 0.23382
#
# Static dielectric constant tensor:
#      x y z
#    x 1.739640 0.000000 0.000000 
#    y 0.000000 1.707420 0.000000 
#    z 0.000000 0.000000 1.707870 
# 
# From -- ./inp_files/32736.got.cif
#   From: 2010.05.17/outbox.cif.g08.bks.cpg/sg21_17_cif.got.tgz:32736.got - 2010.06.03 23:14:55.
