data_PCOD9323150
_publ_section_title
;
Structure prediction by ZEFSAII (Michael W. Deem and Ramdas Pophale) SiO2 
 PCOD9323150
Probable space group: C 2 2 2
;
_chemical_formula_sum "Si O2"
_cell_formula_units_Z 42
_cell_length_a 13.657408
_cell_length_b 14.626271
_cell_length_c 10.826438
_cell_angle_alpha 90.000000
_cell_angle_beta 90.000000
_cell_angle_gamma 90.000000
_cell_volume 2162.656240
_symmetry_space_group_name_H-M "C 2 2 2"
_symmetry_group_IT_number 21
_symmetry_cell_setting 'orthorhombic'
loop_
_space_group_symop_operation_xyz
x,y,z
-x,-y,z
x,-y,-z
-x,y,-z
1/2+x,1/2+y,z
1/2-x,1/2-y,z
1/2+x,1/2-y,-z
1/2-x,1/2+y,-z
loop_
_atom_site_type_symbol
_atom_site_label
_atom_site_fract_x
_atom_site_fract_y
_atom_site_fract_z
Si Si1 0.909035 0.433422 0.769969
Si Si2 0.978656 0.716094 0.638160
Si Si3 0.342359 0.807619 0.991181
Si Si4 0.500000 0.500000 0.000000
Si Si5 0.295241 0.893170 0.248865
Si Si6 0.584718 0.653614 0.828235
O O1 0.821648 0.500947 0.730997
O O2 0.000000 0.500000 0.800092
O O3 0.945217 0.365543 0.664162
O O4 0.888582 0.368659 0.885993
O O5 0.872476 0.669299 0.673595
O O6 0.990965 0.800051 0.733618
O O7 0.000000 0.746600 0.500000
O O8 0.250000 0.750000 0.941382
O O9 0.313725 0.874782 0.103089
O O10 0.400987 0.730818 0.066605
O O11 0.559945 0.564305 0.906402
O O12 0.182097 0.864411 0.254587
#
# Coordination Sequence:
#
# PCOD9323150 Si02
#       6
#     8   8   8   2   8   8
#     4  10  20  32  57  90 116 147 202 255 312 368
#     4  10  21  40  62  81 119 163 210 253 299 363
#     4   9  18  32  53  83 121 152 186 241 317 375
#     4  12  24  36  70  88 128 164 200 258 308 400
#     4   9  20  35  59  87 121 157 193 258 317 361
#     4  10  22  39  59  89 123 164 204 246 320 374
#
# _framework density 19.420563000000001
#
# number of rings (size 3 to 8) (size 9 to 14) (size 15 to 20)
#    0.000    2.286    0.000    3.429    5.333   13.333 
#    0.000    2.381    4.190    0.000    0.000    0.000 
#    0.000    0.000    0.000    0.000    0.000    0.000 
#
# Total GULP energy -116984.985941 kJ/mol
# GULP energy per Si atom -5570.713616 kJ/mol
# Density = 1.937636 g / cm^3
# Si number density = 19.420563 Si / 1000 Ang^3
#
#
#
# Elastic Constant Matrix: (Units=GPa)
#
#
# Indices 1 2 3 4 5 6 
#
# 1 29.1211 17.8006 6.9934 0.0000 0.0000 0.0000
# 2 17.8006 102.0564 34.6148 0.0000 0.0000 0.0000
# 3 6.9934 34.6148 67.8356 0.0000 0.0000 0.0000
# 4 0.0000 0.0000 0.0000 13.8554 0.0000 0.0000
# 5 0.0000 0.0000 0.0000 0.0000 6.7135 0.0000
# 6 0.0000 0.0000 0.0000 0.0000 0.0000 27.9284
#
#
#
# Elastic Compliance Matrix: (Units=1/GPa)
#
#
# Indices 1 2 3 4 5 6 
#
# 1 0.038462 -0.006486 -0.000655 0.000000 0.000000 0.000000
# 2 -0.006486 0.012943 -0.005936 0.000000 0.000000 0.000000
# 3 -0.000655 -0.005936 0.017838 0.000000 0.000000 0.000000
# 4 0.000000 0.000000 0.000000 0.072174 0.000000 0.000000
# 5 0.000000 0.000000 0.000000 0.000000 0.148953 0.000000
# 6 0.000000 0.000000 0.000000 0.000000 0.000000 0.035806
#
#
# Mechanical properties :
#
#
# Convention : Reuss Voigt Hill
#
# Bulk Modulus (GPa) = 23.20842 35.31452 29.26147
# Shear Modulus (GPa) = 13.63538 19.00641 16.32090
#
# Velocity S-wave (km/s) = 2.65261 3.13177 2.90210
# Velocity P-wave (km/s) = 4.62149 5.59472 5.13123
#
# Compressibility (1/GPa) = 0.04308781
#
# Stress axis : x y z
#
# Youngs Moduli (GPa) = 26.00000 77.26127 56.06009
#
# Poissons Ratio (x) = 0.50113 0.03674
# Poissons Ratio (y) = 0.16864 0.33276
# Poissons Ratio (z) = 0.01704 0.45861
#
# Static dielectric constant tensor:
#      x y z
#    x 1.820610 0.000000 0.000000 
#    y 0.000000 1.705860 0.000000 
#    z 0.000000 0.000000 1.628900 
# 
# From -- ./inp_files/25966.got.cif
#   From: 2010.05.17/outbox.cif.g08.bks.cpg/sg21_13_cif.got.tgz:25966.got - 2010.06.03 23:14:55.
