data_PCOD9323928
_publ_section_title
;
Structure prediction by ZEFSAII (Michael W. Deem and Ramdas Pophale) SiO2 
 PCOD9323928
Probable space group: C 2 2 2
;
_chemical_formula_sum "Si O2"
_cell_formula_units_Z 48
_cell_length_a 7.468702
_cell_length_b 27.862890
_cell_length_c 11.518913
_cell_angle_alpha 90.000000
_cell_angle_beta 90.000000
_cell_angle_gamma 90.000000
_cell_volume 2397.081444
_symmetry_space_group_name_H-M "C 2 2 2"
_symmetry_group_IT_number 21
_symmetry_cell_setting 'orthorhombic'
loop_
_space_group_symop_operation_xyz
x,y,z
-x,-y,z
x,-y,-z
-x,y,-z
1/2+x,1/2+y,z
1/2-x,1/2-y,z
1/2+x,1/2-y,-z
1/2-x,1/2+y,-z
loop_
_atom_site_type_symbol
_atom_site_label
_atom_site_fract_x
_atom_site_fract_y
_atom_site_fract_z
Si Si1 0.094416 0.343699 0.245407
Si Si2 0.740861 0.406219 0.293871
Si Si3 0.801162 0.604912 0.450229
Si Si4 0.212555 0.007227 0.365423
Si Si5 0.943367 0.137643 0.867013
Si Si6 0.538644 0.747495 0.863659
O O1 0.189059 0.347916 0.371674
O O2 0.231913 0.367531 0.154371
O O3 0.907903 0.373021 0.256761
O O4 0.053858 0.289728 0.207635
O O5 0.690345 0.395799 0.430028
O O6 0.791756 0.462963 0.293120
O O7 0.572540 0.394033 0.213502
O O8 0.757459 0.563019 0.357618
O O9 0.000000 0.596262 0.500000
O O10 0.265108 0.000000 0.500000
O O11 0.000000 0.000000 0.355379
O O12 0.977797 0.193648 0.836733
O O13 0.000000 0.130345 0.000000
O O14 0.750000 0.750000 0.844843
O O15 0.500000 0.756208 0.000000
#
# Coordination Sequence:
#
# PCOD9323928 Si02
#       6
#     8   8   8   8   8   8
#     4  11  22  36  61  89 120 161 205 251 313 369
#     4  10  21  37  61  91 128 159 201 256 314 363
#     4   9  20  37  60  90 127 159 207 253 309 372
#     4   9  17  32  57  89 117 158 205 249 297 362
#     4  11  23  39  62  92 122 162 209 261 311 363
#     4  11  21  39  63  89 118 153 210 267 307 367
#
# _framework density 20.024352
#
# number of rings (size 3 to 8) (size 9 to 14) (size 15 to 20)
#    0.000    1.833    1.667    3.500    0.000    9.667 
#    0.000    0.000   22.000    4.500    4.333    0.000 
#    0.000    0.000    0.000    0.000    0.000    0.000 
#
# Total GULP energy -133850.451785 kJ/mol
# GULP energy per Si atom -5577.102158 kJ/mol
# Density = 1.997878 g / cm^3
# Si number density = 20.024352 Si / 1000 Ang^3
#
#
#
# Elastic Constant Matrix: (Units=GPa)
#
#
# Indices 1 2 3 4 5 6 
#
# 1 68.6118 14.8136 34.7550 0.0000 0.0000 0.0000
# 2 14.8136 110.2840 60.4154 0.0000 0.0000 0.0000
# 3 34.7550 60.4154 80.7835 0.0000 0.0000 0.0000
# 4 0.0000 0.0000 0.0000 42.1899 0.0000 0.0000
# 5 0.0000 0.0000 0.0000 0.0000 32.2175 0.0000
# 6 0.0000 0.0000 0.0000 0.0000 0.0000 71.2245
#
#
#
# Elastic Compliance Matrix: (Units=1/GPa)
#
#
# Indices 1 2 3 4 5 6 
#
# 1 0.019327 0.003319 -0.010797 0.000000 0.000000 0.000000
# 2 0.003319 0.015931 -0.013342 0.000000 0.000000 0.000000
# 3 -0.010797 -0.013342 0.027002 0.000000 0.000000 0.000000
# 4 0.000000 0.000000 0.000000 0.023702 0.000000 0.000000
# 5 0.000000 0.000000 0.000000 0.000000 0.031039 0.000000
# 6 0.000000 0.000000 0.000000 0.000000 0.000000 0.014040
#
#
# Mechanical properties :
#
#
# Convention : Reuss Voigt Hill
#
# Bulk Modulus (GPa) = 48.49767 53.29417 50.89592
# Shear Modulus (GPa) = 27.84665 39.10605 33.47635
#
# Velocity S-wave (km/s) = 3.73317 4.42398 4.09318
# Velocity P-wave (km/s) = 6.54630 7.26416 6.91455
#
# Compressibility (1/GPa) = 0.02061955
#
# Stress axis : x y z
#
# Youngs Moduli (GPa) = 51.73988 62.77246 37.03456
#
# Poissons Ratio (x) = -0.20832 0.39987
# Poissons Ratio (y) = -0.17171 0.49411
# Poissons Ratio (z) = 0.55864 0.83749
#
# Static dielectric constant tensor:
#      x y z
#    x 1.771880 0.000000 0.000000 
#    y 0.000000 1.761480 0.000000 
#    z 0.000000 0.000000 1.722660 
# 
# From -- ./inp_files/22909.got.cif
#   From: 2010.05.17/outbox.cif.g08.bks.cpg/sg21_12_cif.got.tgz:22909.got - 2010.06.03 23:14:55.
