data_PCOD9323014
_publ_section_title
;
Structure prediction by ZEFSAII (Michael W. Deem and Ramdas Pophale) SiO2 
 PCOD9323014
Probable space group: C 2 2 2
;
_chemical_formula_sum "Si O2"
_cell_formula_units_Z 40
_cell_length_a 14.241385
_cell_length_b 21.464157
_cell_length_c 5.250088
_cell_angle_alpha 90.000000
_cell_angle_beta 90.000000
_cell_angle_gamma 90.000000
_cell_volume 1604.843348
_symmetry_space_group_name_H-M "C 2 2 2"
_symmetry_group_IT_number 21
_symmetry_cell_setting 'orthorhombic'
loop_
_space_group_symop_operation_xyz
x,y,z
-x,-y,z
x,-y,-z
-x,y,-z
1/2+x,1/2+y,z
1/2-x,1/2-y,z
1/2+x,1/2-y,-z
1/2-x,1/2+y,-z
loop_
_atom_site_type_symbol
_atom_site_label
_atom_site_fract_x
_atom_site_fract_y
_atom_site_fract_z
Si Si1 0.108346 0.972528 0.747808
Si Si2 0.750000 0.250000 0.770049
Si Si3 0.111626 0.427328 0.051505
Si Si4 0.500000 0.766868 0.500000
Si Si5 0.403781 0.328755 0.154122
Si Si6 0.154385 0.644192 0.426917
O O1 0.113185 0.898477 0.752156
O O2 0.155191 0.000000 0.500000
O O3 0.000000 0.000000 0.746714
O O4 0.151662 0.000000 0.000000
O O5 0.680987 0.288934 0.960759
O O6 0.780683 0.306481 0.579583
O O7 0.173889 0.391109 0.837183
O O8 0.127590 0.500000 0.000000
O O9 0.130948 0.404009 0.340862
O O10 0.000000 0.417359 0.000000
O O11 0.571273 0.719925 0.372356
O O12 0.435671 0.813722 0.343684
O O13 0.500000 0.333465 0.000000
#
# Coordination Sequence:
#
# PCOD9323014 Si02
#       6
#     8   4   8   4   8   8
#     4  10  19  37  67 103 132 180 236 298 371 436
#     4  10  28  46  68 112 150 198 252 308 372 448
#     4  11  22  41  73 105 138 188 246 301 365 440
#     4  10  22  36  66  94 134 188 226 296 366 426
#     4  11  23  44  71 104 147 194 244 308 372 448
#     4  11  23  43  65 102 144 187 240 301 363 434
#
# _framework density 24.924551999999998
#
# number of rings (size 3 to 8) (size 9 to 14) (size 15 to 20)
#    0.000    1.400    4.000    1.800    5.600    2.400 
#    3.600    3.000    0.000    0.000    0.000    0.000 
#    0.000    0.000    0.000    0.000    0.000    0.000 
#
# Total GULP energy -111525.181016 kJ/mol
# GULP energy per Si atom -5576.259051 kJ/mol
# Density = 2.486782 g / cm^3
# Si number density = 24.924552 Si / 1000 Ang^3
#
#
#
# Elastic Constant Matrix: (Units=GPa)
#
#
# Indices 1 2 3 4 5 6 
#
# 1 57.2223 46.6881 13.4679 0.0000 0.0000 0.0000
# 2 46.6881 233.1567 66.5422 0.0000 0.0000 0.0000
# 3 13.4679 66.5422 135.2059 0.0000 0.0000 0.0000
# 4 0.0000 0.0000 0.0000 34.4070 0.0000 0.0000
# 5 0.0000 0.0000 0.0000 0.0000 18.6470 0.0000
# 6 0.0000 0.0000 0.0000 0.0000 0.0000 39.5727
#
#
#
# Elastic Compliance Matrix: (Units=1/GPa)
#
#
# Indices 1 2 3 4 5 6 
#
# 1 0.020889 -0.004175 -0.000026 0.000000 0.000000 0.000000
# 2 -0.004175 0.005824 -0.002451 0.000000 0.000000 0.000000
# 3 -0.000026 -0.002451 0.008605 0.000000 0.000000 0.000000
# 4 0.000000 0.000000 0.000000 0.029064 0.000000 0.000000
# 5 0.000000 0.000000 0.000000 0.000000 0.053628 0.000000
# 6 0.000000 0.000000 0.000000 0.000000 0.000000 0.025270
#
#
# Mechanical properties :
#
#
# Convention : Reuss Voigt Hill
#
# Bulk Modulus (GPa) = 45.42532 75.44236 60.43384
# Shear Modulus (GPa) = 30.50246 38.45111 34.47678
#
# Velocity S-wave (km/s) = 3.50207 3.93198 3.72324
# Velocity P-wave (km/s) = 5.88365 7.13779 6.54085
#
# Compressibility (1/GPa) = 0.02201415
#
# Stress axis : x y z
#
# Youngs Moduli (GPa) = 47.87311 171.68959 116.21455
#
# Poissons Ratio (x) = 0.71688 0.00299
# Poissons Ratio (y) = 0.19989 0.28480
# Poissons Ratio (z) = 0.00123 0.42075
#
# Static dielectric constant tensor:
#      x y z
#    x 0.654610 0.000000 0.000000 
#    y 0.000000 1.898400 0.000000 
#    z 0.000000 0.000000 2.019210 
# 
# From -- ./inp_files/4837.got.cif
#   From: 2010.05.17/outbox.cif.g08.bks.cpg/sg21_3_cif.got.tgz:4837.got - 2010.06.03 23:14:55.
