data_PCOD9323024
_publ_section_title
;
Structure prediction by ZEFSAII (Michael W. Deem and Ramdas Pophale) SiO2 
 PCOD9323024
Probable space group: C 2 2 2
;
_chemical_formula_sum "Si O2"
_cell_formula_units_Z 56
_cell_length_a 9.752117
_cell_length_b 20.872799
_cell_length_c 13.693349
_cell_angle_alpha 90.000000
_cell_angle_beta 90.000000
_cell_angle_gamma 90.000000
_cell_volume 2787.335661
_symmetry_space_group_name_H-M "C 2 2 2"
_symmetry_group_IT_number 21
_symmetry_cell_setting 'orthorhombic'
loop_
_space_group_symop_operation_xyz
x,y,z
-x,-y,z
x,-y,-z
-x,y,-z
1/2+x,1/2+y,z
1/2-x,1/2-y,z
1/2+x,1/2-y,-z
1/2-x,1/2+y,-z
loop_
_atom_site_type_symbol
_atom_site_label
_atom_site_fract_x
_atom_site_fract_y
_atom_site_fract_z
Si Si1 0.252064 0.070046 0.693551
Si Si2 0.087260 0.763417 0.096574
Si Si3 0.844208 0.101851 0.514655
Si Si4 0.717131 0.069555 0.724483
Si Si5 0.474945 0.828411 0.275824
Si Si6 0.604150 0.723519 0.381762
Si Si7 0.510856 0.377890 0.781043
O O1 0.238668 0.076091 0.577034
O O2 0.333776 0.133517 0.721725
O O3 0.101729 0.073271 0.740841
O O4 0.321056 0.004805 0.729394
O O5 0.250000 0.750000 0.084396
O O6 0.031841 0.718355 0.183631
O O7 0.051732 0.835668 0.132073
O O8 0.000000 0.750011 0.000000
O O9 0.778386 0.078313 0.614990
O O10 0.856041 0.180084 0.524355
O O11 0.000000 0.079366 0.500000
O O12 0.593841 0.119002 0.734703
O O13 0.842169 0.088977 0.796089
O O14 0.506434 0.785274 0.372376
O O15 0.750000 0.750000 0.343132
O O16 0.538900 0.671767 0.308329
#
# Coordination Sequence:
#
# PCOD9323024 Si02
#       7
#     8   8   8   8   8   8   8
#     4  12  23  40  63  88 133 173 221 270 300 374
#     4  11  25  44  73 103 128 157 198 267 334 399
#     4  11  22  37  57  90 120 173 233 274 306 358
#     4  11  23  41  64  89 125 188 216 256 314 369
#     4  11  24  43  62  96 130 159 212 261 331 395
#     4  10  19  38  58  84 122 163 214 259 327 360
#     4  10  21  40  64  94 121 164 215 252 318 386
#
# _framework density 20.090871
#
# number of rings (size 3 to 8) (size 9 to 14) (size 15 to 20)
#    0.000    1.143    7.143    1.286    2.000    2.286 
#    0.000    1.429    0.000    5.143    0.000    0.000 
#    0.000    0.000    0.000    0.000    0.000    0.000 
#
# Total GULP energy -156223.546795 kJ/mol
# GULP energy per Si atom -5579.412386 kJ/mol
# Density = 2.004514 g / cm^3
# Si number density = 20.090871 Si / 1000 Ang^3
#
#
#
# Elastic Constant Matrix: (Units=GPa)
#
#
# Indices 1 2 3 4 5 6 
#
# 1 48.7531 -0.9776 13.8287 0.0000 0.0000 0.0000
# 2 -0.9776 96.7867 9.9711 0.0000 0.0000 0.0000
# 3 13.8287 9.9711 62.1676 0.0000 0.0000 0.0000
# 4 0.0000 0.0000 0.0000 10.6277 0.0000 0.0000
# 5 0.0000 0.0000 0.0000 0.0000 21.6332 0.0000
# 6 0.0000 0.0000 0.0000 0.0000 0.0000 23.6074
#
#
#
# Elastic Compliance Matrix: (Units=1/GPa)
#
#
# Indices 1 2 3 4 5 6 
#
# 1 0.021944 0.000737 -0.005000 0.000000 0.000000 0.000000
# 2 0.000737 0.010530 -0.001853 0.000000 0.000000 0.000000
# 3 -0.005000 -0.001853 0.017495 0.000000 0.000000 0.000000
# 4 0.000000 0.000000 0.000000 0.094094 0.000000 0.000000
# 5 0.000000 0.000000 0.000000 0.000000 0.046225 0.000000
# 6 0.000000 0.000000 0.000000 0.000000 0.000000 0.042360
#
#
# Mechanical properties :
#
#
# Convention : Reuss Voigt Hill
#
# Bulk Modulus (GPa) = 26.49829 28.15018 27.32424
# Shear Modulus (GPa) = 19.42061 23.49937 21.45999
#
# Velocity S-wave (km/s) = 3.11245 3.42373 3.27180
# Velocity P-wave (km/s) = 5.11218 5.44712 5.28230
#
# Compressibility (1/GPa) = 0.03773828
#
# Stress axis : x y z
#
# Youngs Moduli (GPa) = 45.56972 94.96387 57.15982
#
# Poissons Ratio (x) = -0.06996 0.28577
# Poissons Ratio (y) = -0.03357 0.10591
# Poissons Ratio (z) = 0.22783 0.17595
#
# Static dielectric constant tensor:
#      x y z
#    x 1.725640 0.000000 0.000000 
#    y 0.000000 1.761500 0.000000 
#    z 0.000000 0.000000 1.719570 
# 
# From -- ./inp_files/30741.got.cif
#   From: 2010.05.17/outbox.cif.g08.bks.cpg/sg21_16_cif.got.tgz:30741.got - 2010.06.03 23:14:55.
