data_PCOD9323839
_publ_section_title
;
Structure prediction by ZEFSAII (Michael W. Deem and Ramdas Pophale) SiO2 
 PCOD9323839
Probable space group: C 2 2 2
;
_chemical_formula_sum "Si O2"
_cell_formula_units_Z 48
_cell_length_a 30.783037
_cell_length_b 9.842247
_cell_length_c 8.095692
_cell_angle_alpha 90.000000
_cell_angle_beta 90.000000
_cell_angle_gamma 90.000000
_cell_volume 2452.786241
_symmetry_space_group_name_H-M "C 2 2 2"
_symmetry_group_IT_number 21
_symmetry_cell_setting 'orthorhombic'
loop_
_space_group_symop_operation_xyz
x,y,z
-x,-y,z
x,-y,-z
-x,y,-z
1/2+x,1/2+y,z
1/2-x,1/2-y,z
1/2+x,1/2-y,-z
1/2-x,1/2+y,-z
loop_
_atom_site_type_symbol
_atom_site_label
_atom_site_fract_x
_atom_site_fract_y
_atom_site_fract_z
Si Si1 0.094200 0.770176 0.686630
Si Si2 0.352477 0.994969 0.323986
Si Si3 0.410063 0.263582 0.686714
Si Si4 0.284923 0.138604 0.924674
Si Si5 0.001439 0.661241 0.800212
Si Si6 0.145220 0.147988 0.008632
O O1 0.125207 0.638423 0.704604
O O2 0.096413 0.823901 0.497902
O O3 0.045501 0.723669 0.728147
O O4 0.112299 0.859537 0.836495
O O5 0.329694 0.000000 0.500000
O O6 0.392010 0.889408 0.332024
O O7 0.318143 0.931982 0.201066
O O8 0.460321 0.244943 0.732487
O O9 0.382247 0.322322 0.840340
O O10 0.250000 0.250000 0.862752
O O11 0.317982 0.235528 0.029038
O O12 0.264758 0.000000 0.000000
O O13 0.000000 0.500000 0.757182
O O14 0.000000 0.669093 0.000000
O O15 0.165979 0.000000 0.000000
#
# Coordination Sequence:
#
# PCOD9323839 Si02
#       6
#     8   8   8   8   8   8
#     4  11  20  36  61  88 125 168 209 262 311 371
#     4   9  19  36  61  89 123 163 202 250 315 376
#     4  10  21  35  58  92 124 164 214 260 311 372
#     4  11  22  40  68  96 125 156 205 259 326 388
#     4  11  20  30  56  94 130 164 212 264 317 367
#     4  11  24  42  63  87 124 168 214 260 318 379
#
# _framework density 19.569582
#
# number of rings (size 3 to 8) (size 9 to 14) (size 15 to 20)
#    0.000    1.500    5.000    1.000    0.000    1.333 
#    0.000    2.500    7.333    2.000    0.000    0.000 
#    0.000    0.000    0.000    0.000    0.000    0.000 
#
# Total GULP energy -133612.091931 kJ/mol
# GULP energy per Si atom -5567.170497 kJ/mol
# Density = 1.952504 g / cm^3
# Si number density = 19.569582 Si / 1000 Ang^3
#
#
#
# Elastic Constant Matrix: (Units=GPa)
#
#
# Indices 1 2 3 4 5 6 
#
# 1 100.0471 22.5998 24.6390 0.0000 0.0000 0.0000
# 2 22.5998 98.4500 21.0584 0.0000 0.0000 0.0000
# 3 24.6390 21.0584 89.3358 0.0000 0.0000 0.0000
# 4 0.0000 0.0000 0.0000 -5.2216 0.0000 0.0000
# 5 0.0000 0.0000 0.0000 0.0000 -10.6044 0.0000
# 6 0.0000 0.0000 0.0000 0.0000 0.0000 3.5762
#
#
#
# Elastic Compliance Matrix: (Units=1/GPa)
#
#
# Indices 1 2 3 4 5 6 
#
# 1 0.011082 -0.001991 -0.002587 0.000000 0.000000 0.000000
# 2 -0.001991 0.011054 -0.002057 0.000000 0.000000 0.000000
# 3 -0.002587 -0.002057 0.012392 0.000000 0.000000 0.000000
# 4 0.000000 0.000000 0.000000 -0.191512 0.000000 0.000000
# 5 0.000000 0.000000 0.000000 0.000000 -0.094301 0.000000
# 6 0.000000 0.000000 0.000000 0.000000 0.000000 0.279628
#
#
# Mechanical properties :
#
#
# Convention : Reuss Voigt Hill
#
# Bulk Modulus (GPa) = 47.03792 47.15858 47.09825
# Shear Modulus (GPa) = 102.67162 12.18575 57.42869
#
# Velocity S-wave (km/s) = 7.25112 2.49808 5.42306
# Velocity P-wave (km/s) = 9.70533 5.69831 7.95815
#
# Compressibility (1/GPa) = 0.02125944
#
# Stress axis : x y z
#
# Youngs Moduli (GPa) = 90.23545 90.46235 80.69647
#
# Poissons Ratio (x) = 0.18007 0.20878
# Poissons Ratio (y) = 0.17962 0.16597
# Poissons Ratio (z) = 0.23346 0.18606
#
# Static dielectric constant tensor:
#      x y z
#    x 1.669400 0.000000 0.000000 
#    y 0.000000 1.850900 0.000000 
#    z 0.000000 0.000000 1.772320 
# 
# From -- ./inp_files/19641.got.cif
#   From: 2010.05.17/outbox.cif.g08.bks.cpg/sg21_10_cif.got.tgz:19641.got - 2010.06.03 23:14:55.
