data_PCOD9323041
_publ_section_title
;
Structure prediction by ZEFSAII (Michael W. Deem and Ramdas Pophale) SiO2 
 PCOD9323041
Probable space group: C 2 2 2
;
_chemical_formula_sum "Si O2"
_cell_formula_units_Z 58
_cell_length_a 23.552826
_cell_length_b 9.175757
_cell_length_c 14.650696
_cell_angle_alpha 90.000000
_cell_angle_beta 90.000000
_cell_angle_gamma 90.000000
_cell_volume 3166.235284
_symmetry_space_group_name_H-M "C 2 2 2"
_symmetry_group_IT_number 21
_symmetry_cell_setting 'orthorhombic'
loop_
_space_group_symop_operation_xyz
x,y,z
-x,-y,z
x,-y,-z
-x,y,-z
1/2+x,1/2+y,z
1/2-x,1/2-y,z
1/2+x,1/2-y,-z
1/2-x,1/2+y,-z
loop_
_atom_site_type_symbol
_atom_site_label
_atom_site_fract_x
_atom_site_fract_y
_atom_site_fract_z
Si Si1 0.580955 0.892300 0.343733
Si Si2 0.748998 0.591320 0.840956
Si Si3 0.035799 0.865312 0.766700
Si Si4 0.647502 0.376634 0.873353
Si Si5 0.454212 0.892029 0.174974
Si Si6 0.698435 0.840567 0.282249
Si Si7 0.644957 0.153986 0.040466
Si Si8 0.500000 0.000000 0.500000
O O1 0.566595 0.730266 0.309409
O O2 0.648883 0.892323 0.349211
O O3 0.542893 0.918405 0.431760
O O4 0.564304 0.011436 0.264305
O O5 0.750000 0.750000 0.794669
O O6 0.689887 0.515901 0.872415
O O7 0.777131 0.476813 0.772947
O O8 0.791443 0.622853 0.924887
O O9 0.083908 0.912113 0.839533
O O10 0.991109 0.750127 0.805976
O O11 0.000000 0.000000 0.731613
O O12 0.672560 0.263907 0.797606
O O13 0.644501 0.283867 0.967004
O O14 0.398412 0.834464 0.124246
O O15 0.500000 0.000000 0.125844
O O16 0.750000 0.750000 0.325457
O O17 0.625093 0.000000 0.000000
#
# Coordination Sequence:
#
# PCOD9323041 Si02
#       8
#     8   8   8   8   8   8   8   2
#     4  10  19  38  63  96 115 151 197 242 303 380
#     4  11  24  35  54  78 111 156 206 254 291 336
#     4  10  21  39  58  82 122 155 193 247 301 369
#     4  10  23  37  53  83 112 159 208 247 306 338
#     4  10  20  38  59  80 115 155 207 239 299 370
#     4   9  18  38  60  82 117 155 198 239 293 360
#     4  12  22  34  56  79 114 158 207 263 292 338
#     4  12  20  36  74 100 118 136 202 254 304 368
#
# _framework density 18.318283999999998
#
# number of rings (size 3 to 8) (size 9 to 14) (size 15 to 20)
#    0.000    1.655    4.828    1.655    3.862    1.931 
#    0.000    1.034    0.000    0.828    0.000    0.000 
#    0.000    0.000    0.000    0.000    0.000    0.000 
#
# Total GULP energy -161544.157140 kJ/mol
# GULP energy per Si atom -5570.488177 kJ/mol
# Density = 1.827659 g / cm^3
# Si number density = 18.318284 Si / 1000 Ang^3
#
#
#
# Elastic Constant Matrix: (Units=GPa)
#
#
# Indices 1 2 3 4 5 6 
#
# 1 128.3088 48.7034 47.7467 0.0000 0.0000 0.0000
# 2 48.7034 94.4549 22.8346 0.0000 0.0000 0.0000
# 3 47.7467 22.8346 60.5307 0.0000 0.0000 0.0000
# 4 0.0000 0.0000 0.0000 6.3689 0.0000 0.0000
# 5 0.0000 0.0000 0.0000 0.0000 20.4382 0.0000
# 6 0.0000 0.0000 0.0000 0.0000 0.0000 24.8676
#
#
#
# Elastic Compliance Matrix: (Units=1/GPa)
#
#
# Indices 1 2 3 4 5 6 
#
# 1 0.012551 -0.004488 -0.008208 0.000000 0.000000 0.000000
# 2 -0.004488 0.013254 -0.001460 0.000000 0.000000 0.000000
# 3 -0.008208 -0.001460 0.023546 0.000000 0.000000 0.000000
# 4 0.000000 0.000000 0.000000 0.157014 0.000000 0.000000
# 5 0.000000 0.000000 0.000000 0.000000 0.048928 0.000000
# 6 0.000000 0.000000 0.000000 0.000000 0.000000 0.040213
#
#
# Mechanical properties :
#
#
# Convention : Reuss Voigt Hill
#
# Bulk Modulus (GPa) = 47.52805 57.98487 52.75646
# Shear Modulus (GPa) = 15.11352 21.26892 18.19122
#
# Velocity S-wave (km/s) = 2.87549 3.41115 3.15471
# Velocity P-wave (km/s) = 6.08495 6.87295 6.49092
#
# Compressibility (1/GPa) = 0.02104021
#
# Stress axis : x y z
#
# Youngs Moduli (GPa) = 79.67270 75.44910 42.47089
#
# Poissons Ratio (x) = 0.33859 0.34859
# Poissons Ratio (y) = 0.35754 0.06201
# Poissons Ratio (z) = 0.65392 0.11016
#
# Static dielectric constant tensor:
#      x y z
#    x 1.699870 0.000000 0.000000 
#    y 0.000000 1.813270 0.000000 
#    z 0.000000 0.000000 1.664270 
# 
# From -- ./inp_files/33603.got.cif
#   From: 2010.05.17/outbox.cif.g08.bks.cpg/sg21_17_cif.got.tgz:33603.got - 2010.06.03 23:14:55.
