data_PCOD9323817
_publ_section_title
;
Structure prediction by ZEFSAII (Michael W. Deem and Ramdas Pophale) SiO2 
 PCOD9323817
Probable space group: C 2 2 2
;
_chemical_formula_sum "Si O2"
_cell_formula_units_Z 58
_cell_length_a 9.657501
_cell_length_b 16.278224
_cell_length_c 17.037272
_cell_angle_alpha 90.000000
_cell_angle_beta 90.000000
_cell_angle_gamma 90.000000
_cell_volume 2678.377815
_symmetry_space_group_name_H-M "C 2 2 2"
_symmetry_group_IT_number 21
_symmetry_cell_setting 'orthorhombic'
loop_
_space_group_symop_operation_xyz
x,y,z
-x,-y,z
x,-y,-z
-x,y,-z
1/2+x,1/2+y,z
1/2-x,1/2-y,z
1/2+x,1/2-y,-z
1/2-x,1/2+y,-z
loop_
_atom_site_type_symbol
_atom_site_label
_atom_site_fract_x
_atom_site_fract_y
_atom_site_fract_z
Si Si1 0.180460 0.338918 0.940525
Si Si2 0.638238 0.361848 0.391849
Si Si3 0.188233 0.657905 0.713070
Si Si4 0.465847 0.594403 0.749155
Si Si5 0.959408 0.904863 0.914461
Si Si6 0.363531 0.825084 0.889588
Si Si7 0.951831 0.676564 0.585138
Si Si8 0.000000 0.000000 0.500000
O O1 0.250000 0.250000 0.943423
O O2 0.295505 0.394848 0.898692
O O3 0.029716 0.319348 0.905246
O O4 0.174720 0.372887 0.030059
O O5 0.584680 0.366410 0.302898
O O6 0.802904 0.359519 0.394243
O O7 0.575285 0.274932 0.420594
O O8 0.584718 0.438188 0.443362
O O9 0.250000 0.750000 0.710486
O O10 0.323885 0.602976 0.701071
O O11 0.143650 0.639202 0.802209
O O12 0.066482 0.654932 0.650212
O O13 0.500000 0.500000 0.758198
O O14 0.463194 0.630698 0.837503
O O15 0.000000 0.000000 0.919537
O O16 0.000000 0.867600 0.000000
O O17 0.250000 0.750000 0.889515
O O18 0.000000 0.647302 0.500000
#
# Coordination Sequence:
#
# PCOD9323817 Si02
#       8
#     8   8   8   8   8   8   8   2
#     4  10  21  34  66  95 129 171 229 286 337 399
#     4  11  25  43  72 101 134 175 221 272 336 401
#     4  11  23  40  66  96 135 175 216 277 340 394
#     4  11  24  43  68  96 135 180 228 269 338 408
#     4  10  23  41  66  94 136 188 229 276 342 417
#     4   9  21  38  56 100 134 169 215 289 348 392
#     4  11  26  43  69 104 135 167 222 279 332 404
#     4  12  24  48  78  96 134 182 222 272 340 408
#
# _framework density 21.654897999999999
#
# number of rings (size 3 to 8) (size 9 to 14) (size 15 to 20)
#    0.000    1.517    2.759    0.828   13.517    0.000 
#    0.000    2.414    0.000   16.552    0.000    0.000 
#    0.000    0.000    0.000    0.000    0.000    0.000 
#
# Total GULP energy -161728.888057 kJ/mol
# GULP energy per Si atom -5576.858209 kJ/mol
# Density = 2.160561 g / cm^3
# Si number density = 21.654898 Si / 1000 Ang^3
#
#
#
# Elastic Constant Matrix: (Units=GPa)
#
#
# Indices 1 2 3 4 5 6 
#
# 1 181.8017 43.8291 79.5695 0.0000 0.0000 0.0000
# 2 43.8291 56.0060 13.6900 0.0000 0.0000 0.0000
# 3 79.5695 13.6900 132.8388 0.0000 0.0000 0.0000
# 4 0.0000 0.0000 0.0000 0.2307 0.0000 0.0000
# 5 0.0000 0.0000 0.0000 0.0000 34.9014 0.0000
# 6 0.0000 0.0000 0.0000 0.0000 0.0000 29.4055
#
#
#
# Elastic Compliance Matrix: (Units=1/GPa)
#
#
# Indices 1 2 3 4 5 6 
#
# 1 0.009018 -0.005885 -0.004795 0.000000 0.000000 0.000000
# 2 -0.005885 0.022157 0.001242 0.000000 0.000000 0.000000
# 3 -0.004795 0.001242 0.010272 0.000000 0.000000 0.000000
# 4 0.000000 0.000000 0.000000 4.333868 0.000000 0.000000
# 5 0.000000 0.000000 0.000000 0.000000 0.028652 0.000000
# 6 0.000000 0.000000 0.000000 0.000000 0.000000 0.034007
#
#
# Mechanical properties :
#
#
# Convention : Reuss Voigt Hill
#
# Bulk Modulus (GPa) = 44.30615 71.64707 57.97661
# Shear Modulus (GPa) = 1.11998 28.47804 14.79901
#
# Velocity S-wave (km/s) = 0.71994 3.63035 2.61703
# Velocity P-wave (km/s) = 4.60387 7.12251 5.99691
#
# Compressibility (1/GPa) = 0.02257023
#
# Stress axis : x y z
#
# Youngs Moduli (GPa) = 110.88875 45.13175 97.34956
#
# Poissons Ratio (x) = 0.26561 0.46681
# Poissons Ratio (y) = 0.65260 -0.12088
# Poissons Ratio (z) = 0.53174 -0.05604
#
# Static dielectric constant tensor:
#      x y z
#    x 1.824500 0.000000 0.000000 
#    y 0.000000 1.851400 0.000000 
#    z 0.000000 0.000000 1.831070 
# 
# From -- ./inp_files/35815.got.cif
#   From: 2010.05.17/outbox.cif.g08.bks.cpg/sg21_18_cif.got.tgz:35815.got - 2010.06.03 23:14:55.
