data_PCOD9323110
_publ_section_title
;
Structure prediction by ZEFSAII (Michael W. Deem and Ramdas Pophale) SiO2 
 PCOD9323110
Probable space group: C 2 2 2
;
_chemical_formula_sum "Si O2"
_cell_formula_units_Z 64
_cell_length_a 30.573263
_cell_length_b 14.857326
_cell_length_c 9.264565
_cell_angle_alpha 90.000000
_cell_angle_beta 90.000000
_cell_angle_gamma 90.000000
_cell_volume 4208.307612
_symmetry_space_group_name_H-M "C 2 2 2"
_symmetry_group_IT_number 21
_symmetry_cell_setting 'orthorhombic'
loop_
_space_group_symop_operation_xyz
x,y,z
-x,-y,z
x,-y,-z
-x,y,-z
1/2+x,1/2+y,z
1/2-x,1/2-y,z
1/2+x,1/2-y,-z
1/2-x,1/2+y,-z
loop_
_atom_site_type_symbol
_atom_site_label
_atom_site_fract_x
_atom_site_fract_y
_atom_site_fract_z
Si Si1 0.449036 0.605684 0.327397
Si Si2 0.295904 0.800525 0.674364
Si Si3 0.550964 0.605684 0.327397
Si Si4 0.369101 0.685317 0.168250
Si Si5 0.130899 0.185317 0.168250
Si Si6 0.183893 0.000000 0.838289
Si Si7 0.272216 1.000000 0.327347
Si Si8 0.295904 0.800525 0.325636
O O1 0.500000 0.624806 0.296506
O O2 0.441355 0.500000 0.290113
O O3 0.442508 0.613728 0.500000
O O4 0.415622 0.669412 0.244028
O O5 0.250000 0.750000 0.711423
O O6 0.336770 0.752937 0.749670
O O7 0.292718 0.905105 0.719682
O O8 0.300218 0.795178 0.500000
O O9 0.584378 0.669412 0.244028
O O10 0.345209 0.588451 0.176328
O O11 0.336770 0.752937 0.250330
O O12 0.373781 0.709433 1.000000
O O13 0.154791 0.088451 0.176328
O O14 0.222288 0.000000 0.723577
O O15 0.203421 0.000000 0.000000
O O16 0.273479 0.000000 0.500000
O O17 0.292718 0.905105 0.280318
O O18 0.250000 0.750000 0.288577
#
# Coordination Sequence:
#
# PCOD9323110 Si02
#       8
#     8   8   8   8   8   8   8   8
#     4   9  18  32  50  72  98 129 164 201 241 287
#     4  10  20  33  50  71  95 127 167 207 244 286
#     4   9  18  32  50  72  98 129 164 201 241 287
#     4  11  21  32  47  71 101 134 166 198 241 291
#     4  11  21  32  47  71 101 134 166 198 241 291
#     4  10  20  30  43  67 100 132 163 198 240 285
#     4  10  20  34  50  69  94 127 168 209 246 282
#     4  10  20  33  50  71  95 127 167 207 244 286
#
# _framework density 15.208015
#
# number of rings (size 3 to 8) (size 9 to 14) (size 15 to 20)
#    0.000    2.000    3.750    1.500    0.000    3.000 
#    0.000    1.250    0.000    0.000    0.000    0.875 
#    0.000    7.000    0.000    0.000    0.000    0.000 
#
# Total GULP energy -178432.738901 kJ/mol
# GULP energy per Si atom -5576.023091 kJ/mol
# Density = 1.517340 g / cm^3
# Si number density = 15.208015 Si / 1000 Ang^3
#
#
#
# Elastic Constant Matrix: (Units=GPa)
#
#
# Indices 1 2 3 4 5 6 
#
# 1 115.1652 50.9958 55.4606 0.0000 0.0000 0.0000
# 2 50.9958 97.4470 40.2215 0.0000 0.0000 0.0000
# 3 55.4606 40.2215 38.8096 0.0000 0.0000 0.0000
# 4 0.0000 0.0000 0.0000 14.1425 0.0000 0.0000
# 5 0.0000 0.0000 0.0000 0.0000 -15.3240 0.0000
# 6 0.0000 0.0000 0.0000 0.0000 0.0000 21.2869
#
#
#
# Elastic Compliance Matrix: (Units=1/GPa)
#
#
# Indices 1 2 3 4 5 6 
#
# 1 0.028444 0.003307 -0.044075 0.000000 0.000000 0.000000
# 2 0.003307 0.018318 -0.023709 0.000000 0.000000 0.000000
# 3 -0.044075 -0.023709 0.113324 0.000000 0.000000 0.000000
# 4 0.000000 0.000000 0.000000 0.070709 0.000000 0.000000
# 5 0.000000 0.000000 0.000000 0.000000 -0.065257 0.000000
# 6 0.000000 0.000000 0.000000 0.000000 0.000000 0.046977
#
#
# Mechanical properties :
#
#
# Convention : Reuss Voigt Hill
#
# Bulk Modulus (GPa) = 32.12314 60.53085 46.32700
# Shear Modulus (GPa) = 14.21069 11.00402 12.60735
#
# Velocity S-wave (km/s) = 3.06015 2.69284 2.88235
# Velocity P-wave (km/s) = 5.80124 7.03966 6.45024
#
# Compressibility (1/GPa) = 0.03113021
#
# Stress axis : x y z
#
# Youngs Moduli (GPa) = 35.15620 54.59214 8.82425
#
# Poissons Ratio (x) = -0.18052 0.38893
# Poissons Ratio (y) = -0.11625 0.20922
# Poissons Ratio (z) = 1.54952 1.29435
#
# Static dielectric constant tensor:
#      x y z
#    x 1.482540 0.000000 0.000000 
#    y 0.000000 1.506100 0.000000 
#    z 0.000000 0.000000 1.510910 
# 
# From -- ./inp_files/19854.got.cif
#   From: 2010.05.17/outbox.cif.g08.bks.cpg/sg21_10_cif.got.tgz:19854.got - 2010.06.03 23:14:55.
