data_PCOD9323499
_publ_section_title
;
Structure prediction by ZEFSAII (Michael W. Deem and Ramdas Pophale) SiO2 
 PCOD9323499
Probable space group: C 2 2 2
;
_chemical_formula_sum "Si O2"
_cell_formula_units_Z 32
_cell_length_a 15.772284
_cell_length_b 11.722432
_cell_length_c 7.630544
_cell_angle_alpha 90.000000
_cell_angle_beta 90.000000
_cell_angle_gamma 90.000000
_cell_volume 1410.807668
_symmetry_space_group_name_H-M "C 2 2 2"
_symmetry_group_IT_number 21
_symmetry_cell_setting 'orthorhombic'
loop_
_space_group_symop_operation_xyz
x,y,z
-x,-y,z
x,-y,-z
-x,y,-z
1/2+x,1/2+y,z
1/2-x,1/2-y,z
1/2+x,1/2-y,-z
1/2-x,1/2+y,-z
loop_
_atom_site_type_symbol
_atom_site_label
_atom_site_fract_x
_atom_site_fract_y
_atom_site_fract_z
Si Si1 0.819197 0.076092 0.733220
Si Si2 0.141702 0.373392 0.435472
Si Si3 0.539906 0.726169 0.177874
Si Si4 0.627496 0.344259 0.356526
O O1 0.725802 0.120674 0.686856
O O2 0.878075 0.146724 0.865487
O O3 0.869544 0.108089 0.554370
O O4 0.181575 0.060634 0.748092
O O5 0.125271 0.500000 0.500000
O O6 0.068722 0.323000 0.313085
O O7 0.153960 0.286749 0.600583
O O8 0.464355 0.656686 0.270010
O O9 0.500000 0.773216 0.000000
#
# Coordination Sequence:
#
# PCOD9323499 Si02
#       4
#     8   8   8   8
#     4  10  20  38  68  97 130 168 236 291 337 388
#     4  11  22  41  70  98 131 179 232 291 338 404
#     4  11  24  40  64  98 140 174 218 279 361 416
#     4  10  20  37  64  97 123 174 237 287 326 394
#
# _framework density 22.682044000000001
#
# number of rings (size 3 to 8) (size 9 to 14) (size 15 to 20)
#    0.000    1.500    2.500    6.750    0.000    8.000 
#    0.000    7.500    5.500    0.000    0.000    0.000 
#    0.000    0.000    0.000    0.000    0.000    0.000 
#
# Total GULP energy -89181.844236 kJ/mol
# GULP energy per Si atom -5573.865265 kJ/mol
# Density = 2.263042 g / cm^3
# Si number density = 22.682044 Si / 1000 Ang^3
#
#
#
# Elastic Constant Matrix: (Units=GPa)
#
#
# Indices 1 2 3 4 5 6 
#
# 1 62.5638 1.6742 1.2792 0.0000 0.0000 0.0000
# 2 1.6742 165.6091 0.9446 0.0000 0.0000 0.0000
# 3 1.2792 0.9446 35.8332 0.0000 0.0000 0.0000
# 4 0.0000 0.0000 0.0000 13.1045 0.0000 0.0000
# 5 0.0000 0.0000 0.0000 0.0000 16.8543 0.0000
# 6 0.0000 0.0000 0.0000 0.0000 0.0000 28.0022
#
#
#
# Elastic Compliance Matrix: (Units=1/GPa)
#
#
# Indices 1 2 3 4 5 6 
#
# 1 0.016000 -0.000159 -0.000567 0.000000 0.000000 0.000000
# 2 -0.000159 0.006041 -0.000154 0.000000 0.000000 0.000000
# 3 -0.000567 -0.000154 0.027931 0.000000 0.000000 0.000000
# 4 0.000000 0.000000 0.000000 0.076310 0.000000 0.000000
# 5 0.000000 0.000000 0.000000 0.000000 0.059332 0.000000
# 6 0.000000 0.000000 0.000000 0.000000 0.000000 0.035712
#
#
# Mechanical properties :
#
#
# Convention : Reuss Voigt Hill
#
# Bulk Modulus (GPa) = 20.74106 30.20024 25.47065
# Shear Modulus (GPa) = 20.90699 28.93273 24.91986
#
# Velocity S-wave (km/s) = 3.03931 3.57540 3.31820
# Velocity P-wave (km/s) = 4.63473 5.51254 5.09258
#
# Compressibility (1/GPa) = 0.04821355
#
# Stress axis : x y z
#
# Youngs Moduli (GPa) = 62.50191 165.54118 35.80202
#
# Poissons Ratio (x) = 0.02624 0.02030
# Poissons Ratio (y) = 0.00991 0.00550
# Poissons Ratio (z) = 0.03544 0.02542
#
# Static dielectric constant tensor:
#      x y z
#    x 1.874390 0.000000 0.000000 
#    y 0.000000 1.948260 0.000000 
#    z 0.000000 0.000000 1.902840 
# 
# From -- ./inp_files/14022.got.cif
#   From: 2010.05.17/outbox.cif.g08.bks.cpg/sg21_8_cif.got.tgz:14022.got - 2010.06.03 23:14:55.
