data_PCOD9323708
_publ_section_title
;
Structure prediction by ZEFSAII (Michael W. Deem and Ramdas Pophale) SiO2 
 PCOD9323708
Probable space group: C 2 2 2
;
_chemical_formula_sum "Si O2"
_cell_formula_units_Z 64
_cell_length_a 13.524113
_cell_length_b 18.995461
_cell_length_c 11.842988
_cell_angle_alpha 90.000000
_cell_angle_beta 90.000000
_cell_angle_gamma 90.000000
_cell_volume 3042.425258
_symmetry_space_group_name_H-M "C 2 2 2"
_symmetry_group_IT_number 21
_symmetry_cell_setting 'orthorhombic'
loop_
_space_group_symop_operation_xyz
x,y,z
-x,-y,z
x,-y,-z
-x,y,-z
1/2+x,1/2+y,z
1/2-x,1/2-y,z
1/2+x,1/2-y,-z
1/2-x,1/2+y,-z
loop_
_atom_site_type_symbol
_atom_site_label
_atom_site_fract_x
_atom_site_fract_y
_atom_site_fract_z
Si Si1 0.687126 0.820938 0.815809
Si Si2 0.026279 0.174795 0.367262
Si Si3 0.903759 0.043441 0.337817
Si Si4 0.966470 0.314699 0.781366
Si Si5 0.116904 0.428325 0.362334
Si Si6 0.187149 0.578500 0.399479
Si Si7 0.821966 0.915300 0.240149
Si Si8 0.776187 0.668603 0.057486
O O1 0.750000 0.750000 0.798191
O O2 0.572254 0.803886 0.837492
O O3 0.691049 0.867961 0.703815
O O4 0.718726 0.860421 0.930386
O O5 0.043642 0.247376 0.301402
O O6 0.122970 0.128961 0.337754
O O7 0.000000 0.183183 0.500000
O O8 0.941123 0.122817 0.317106
O O9 0.801592 0.051021 0.407973
O O10 0.872083 0.991939 0.235212
O O11 0.000000 0.000000 0.383888
O O12 0.965387 0.383144 0.700058
O O13 0.879150 0.327586 0.871807
O O14 0.114310 0.511976 0.379503
O O15 0.147941 0.393038 0.481277
O O16 0.211294 0.424106 0.281444
O O17 0.809472 0.870770 0.127204
O O18 0.750000 0.750000 0.044679
#
# Coordination Sequence:
#
# PCOD9323708 Si02
#       8
#     8   8   8   8   8   8   8   8
#     4  11  25  40  64  91 125 171 226 291 340 394
#     4  11  21  31  57  96 137 172 208 269 337 415
#     4   9  19  35  59  90 132 172 217 261 329 406
#     4  11  23  40  61  94 128 169 225 277 335 417
#     4   9  21  37  63  87 127 171 209 261 341 409
#     4  10  20  41  60  90 131 172 215 274 340 408
#     4   9  18  36  59  89 123 173 215 263 324 411
#     4  10  20  42  65  89 121 174 228 283 341 395
#
# _framework density 21.035848999999999
#
# number of rings (size 3 to 8) (size 9 to 14) (size 15 to 20)
#    0.000    2.000    1.250    1.875    1.750    5.750 
#    0.000    6.875    0.000    6.750    0.000    0.000 
#    0.000    0.000    0.000    0.000    0.000    0.000 
#
# Total GULP energy -178207.616719 kJ/mol
# GULP energy per Si atom -5568.988022 kJ/mol
# Density = 2.098797 g / cm^3
# Si number density = 21.035849 Si / 1000 Ang^3
#
#
#
# Elastic Constant Matrix: (Units=GPa)
#
#
# Indices 1 2 3 4 5 6 
#
# 1 82.5742 16.8002 7.8800 0.0000 0.0000 0.0000
# 2 16.8002 77.1450 40.0493 0.0000 0.0000 0.0000
# 3 7.8800 40.0493 99.2108 0.0000 0.0000 0.0000
# 4 0.0000 0.0000 0.0000 15.6071 0.0000 0.0000
# 5 0.0000 0.0000 0.0000 0.0000 13.5199 0.0000
# 6 0.0000 0.0000 0.0000 0.0000 0.0000 32.0732
#
#
#
# Elastic Compliance Matrix: (Units=1/GPa)
#
#
# Indices 1 2 3 4 5 6 
#
# 1 0.012673 -0.002831 0.000136 0.000000 0.000000 0.000000
# 2 -0.002831 0.017032 -0.006650 0.000000 0.000000 0.000000
# 3 0.000136 -0.006650 0.012753 0.000000 0.000000 0.000000
# 4 0.000000 0.000000 0.000000 0.064074 0.000000 0.000000
# 5 0.000000 0.000000 0.000000 0.000000 0.073965 0.000000
# 6 0.000000 0.000000 0.000000 0.000000 0.000000 0.031179
#
#
# Mechanical properties :
#
#
# Convention : Reuss Voigt Hill
#
# Bulk Modulus (GPa) = 42.07291 43.15434 42.61363
# Shear Modulus (GPa) = 20.98299 25.18673 23.08486
#
# Velocity S-wave (km/s) = 3.16173 3.46399 3.31631
# Velocity P-wave (km/s) = 5.77691 6.04634 5.91316
#
# Compressibility (1/GPa) = 0.02376826
#
# Stress axis : x y z
#
# Youngs Moduli (GPa) = 78.90657 58.71454 78.41046
#
# Poissons Ratio (x) = 0.16619 -0.01067
# Poissons Ratio (y) = 0.22335 0.52147
# Poissons Ratio (z) = -0.01073 0.39048
#
# Static dielectric constant tensor:
#      x y z
#    x 1.805130 0.000000 0.000000 
#    y 0.000000 1.797920 0.000000 
#    z 0.000000 0.000000 1.792710 
# 
# From -- ./inp_files/25466.got.cif
#   From: 2010.05.17/outbox.cif.g08.bks.cpg/sg21_13_cif.got.tgz:25466.got - 2010.06.03 23:14:55.
