data_PCOD9323355
_publ_section_title
;
Structure prediction by ZEFSAII (Michael W. Deem and Ramdas Pophale) SiO2 
 PCOD9323355
Probable space group: C 2 2 2
;
_chemical_formula_sum "Si O2"
_cell_formula_units_Z 64
_cell_length_a 17.012471
_cell_length_b 18.703686
_cell_length_c 11.423476
_cell_angle_alpha 90.000000
_cell_angle_beta 90.000000
_cell_angle_gamma 90.000000
_cell_volume 3634.903406
_symmetry_space_group_name_H-M "C 2 2 2"
_symmetry_group_IT_number 21
_symmetry_cell_setting 'orthorhombic'
loop_
_space_group_symop_operation_xyz
x,y,z
-x,-y,z
x,-y,-z
-x,y,-z
1/2+x,1/2+y,z
1/2-x,1/2-y,z
1/2+x,1/2-y,-z
1/2-x,1/2+y,-z
loop_
_atom_site_type_symbol
_atom_site_label
_atom_site_fract_x
_atom_site_fract_y
_atom_site_fract_z
Si Si1 0.906697 0.215248 0.362576
Si Si2 0.850332 0.649649 0.755455
Si Si3 0.095064 0.585743 0.000001
Si Si4 0.301797 0.582774 0.637996
Si Si5 0.406691 0.715248 0.637422
Si Si6 0.499993 0.920589 0.361311
Si Si7 0.850342 0.649647 0.244545
Si Si8 0.198195 0.917224 0.361997
O O1 0.857905 0.266748 0.276451
O O2 0.892137 0.234978 0.499998
O O3 0.876545 0.134402 0.347599
O O4 0.000003 0.221808 0.341635
O O5 0.869464 0.624796 0.886490
O O6 0.769581 0.615695 0.711340
O O7 0.921858 0.617522 0.679969
O O8 0.111764 0.500000 0.000000
O O9 0.130538 0.624796 0.886494
O O10 0.000000 0.593451 0.000000
O O11 0.376533 0.634405 0.652402
O O12 0.230400 0.615684 0.711321
O O13 0.279929 0.585533 0.499995
O O14 0.315842 0.500000 0.668190
O O15 0.357898 0.766749 0.723546
O O16 0.500000 0.923988 0.500000
O O17 0.578116 0.882465 0.320011
O O18 0.500000 0.000000 0.309169
#
# Coordination Sequence:
#
# PCOD9323355 Si02
#       8
#     8   8   8   8   8   8   8   8
#     4  10  20  36  58  83 112 146 183 227 279 334
#     4  12  21  35  55  79 111 145 185 228 274 325
#     4  11  22  36  53  76 112 156 191 227 272 326
#     4  10  21  36  56  83 114 146 182 228 280 334
#     4  10  20  36  58  83 112 146 183 227 279 334
#     4  11  20  29  49  79 110 141 169 208 267 332
#     4  12  21  35  55  79 111 145 185 228 274 325
#     4  10  21  36  56  83 114 146 182 228 280 334
#
# _framework density 17.60707
#
# number of rings (size 3 to 8) (size 9 to 14) (size 15 to 20)
#    0.000    1.250    2.500    5.250    0.000    4.500 
#    0.000    5.000    0.000    0.000    0.000    0.000 
#    0.000    6.000    0.000    0.000    0.000    0.000 
#
# Total GULP energy -178673.341942 kJ/mol
# GULP energy per Si atom -5583.541936 kJ/mol
# Density = 1.756700 g / cm^3
# Si number density = 17.607070 Si / 1000 Ang^3
#
#
#
# Elastic Constant Matrix: (Units=GPa)
#
#
# Indices 1 2 3 4 5 6 
#
# 1 41.6365 37.9038 29.5182 0.0000 0.0000 0.0000
# 2 37.9038 140.2099 54.0514 0.0000 0.0000 0.0000
# 3 29.5182 54.0514 90.4393 0.0000 0.0000 0.0000
# 4 0.0000 0.0000 0.0000 48.6241 0.0000 0.0000
# 5 0.0000 0.0000 0.0000 0.0000 103.5160 0.0000
# 6 0.0000 0.0000 0.0000 0.0000 0.0000 8.2738
#
#
#
# Elastic Compliance Matrix: (Units=1/GPa)
#
#
# Indices 1 2 3 4 5 6 
#
# 1 0.035464 -0.006659 -0.007595 0.000000 0.000000 0.000000
# 2 -0.006659 0.010518 -0.004112 0.000000 0.000000 0.000000
# 3 -0.007595 -0.004112 0.015994 0.000000 0.000000 0.000000
# 4 0.000000 0.000000 0.000000 0.020566 0.000000 0.000000
# 5 0.000000 0.000000 0.000000 0.000000 0.009660 0.000000
# 6 0.000000 0.000000 0.000000 0.000000 0.000000 0.120863
#
#
# Mechanical properties :
#
#
# Convention : Reuss Voigt Hill
#
# Bulk Modulus (GPa) = 39.61625 57.24806 48.43216
# Shear Modulus (GPa) = 19.36384 42.13694 30.75039
#
# Velocity S-wave (km/s) = 3.31989 4.89732 4.18362
# Velocity P-wave (km/s) = 6.10283 8.03512 7.13470
#
# Compressibility (1/GPa) = 0.02524217
#
# Stress axis : x y z
#
# Youngs Moduli (GPa) = 28.19734 95.07697 62.52371
#
# Poissons Ratio (x) = 0.63315 0.47488
# Poissons Ratio (y) = 0.18778 0.25713
# Poissons Ratio (z) = 0.21416 0.39100
#
# Static dielectric constant tensor:
#      x y z
#    x 1.566730 0.000000 0.000000 
#    y 0.000000 1.653960 0.000000 
#    z 0.000000 0.000000 1.591710 
# 
# From -- ./inp_files/26294.got.cif
#   From: 2010.05.17/outbox.cif.g08.bks.cpg/sg21_14_cif.got.tgz:26294.got - 2010.06.03 23:14:55.
