data_PCOD9323630
_publ_section_title
;
Structure prediction by ZEFSAII (Michael W. Deem and Ramdas Pophale) SiO2 
 PCOD9323630
Probable space group: C 2 2 2
;
_chemical_formula_sum "Si O2"
_cell_formula_units_Z 42
_cell_length_a 10.605886
_cell_length_b 15.105455
_cell_length_c 12.420035
_cell_angle_alpha 90.000000
_cell_angle_beta 90.000000
_cell_angle_gamma 90.000000
_cell_volume 1989.773240
_symmetry_space_group_name_H-M "C 2 2 2"
_symmetry_group_IT_number 21
_symmetry_cell_setting 'orthorhombic'
loop_
_space_group_symop_operation_xyz
x,y,z
-x,-y,z
x,-y,-z
-x,y,-z
1/2+x,1/2+y,z
1/2-x,1/2-y,z
1/2+x,1/2-y,-z
1/2-x,1/2+y,-z
loop_
_atom_site_type_symbol
_atom_site_label
_atom_site_fract_x
_atom_site_fract_y
_atom_site_fract_z
Si Si1 0.014084 0.865813 0.327912
Si Si2 0.240161 0.647280 0.224301
Si Si3 0.500000 0.500000 0.500000
Si Si4 0.259972 0.144431 0.245116
Si Si5 0.142212 0.394606 0.007978
Si Si6 0.508716 0.847338 0.627132
O O1 0.117494 0.884892 0.237816
O O2 0.065361 0.928802 0.422846
O O3 0.872812 0.890743 0.290952
O O4 0.011284 0.761367 0.360395
O O5 0.250000 0.750000 0.251929
O O6 0.205406 0.637616 0.100796
O O7 0.129887 0.615523 0.306255
O O8 0.250000 0.250000 0.255679
O O9 0.382473 0.118161 0.314069
O O10 0.289124 0.126212 0.119934
O O11 0.135198 0.500000 0.000000
O O12 0.000000 0.357613 0.000000
O O13 0.500000 0.867109 0.500000
#
# Coordination Sequence:
#
# PCOD9323630 Si02
#       6
#     8   8   2   8   8   8
#     4  10  24  37  61  91 121 165 189 246 306 358
#     4  10  22  41  64  90 118 158 207 250 295 355
#     4  12  24  40  56  88 148 156 182 238 322 372
#     4  10  22  41  64  90 118 158 207 250 295 355
#     4  11  23  41  63  87 122 159 200 254 308 351
#     4  10  20  39  65  90 115 153 214 250 285 350
#
# _framework density 21.107932000000002
#
# number of rings (size 3 to 8) (size 9 to 14) (size 15 to 20)
#    0.000    1.714    2.857    0.571    5.333    3.048 
#    0.000    0.952    0.000    2.286    0.000    0.000 
#    0.000    0.000    0.000    0.000    0.000    0.000 
#
# Total GULP energy -117031.268930 kJ/mol
# GULP energy per Si atom -5572.917568 kJ/mol
# Density = 2.105989 g / cm^3
# Si number density = 21.107932 Si / 1000 Ang^3
#
#
#
# Elastic Constant Matrix: (Units=GPa)
#
#
# Indices 1 2 3 4 5 6 
#
# 1 162.3747 15.0332 85.4079 0.0000 0.0000 0.0000
# 2 15.0332 26.8948 -15.1605 0.0000 0.0000 0.0000
# 3 85.4079 -15.1605 158.4358 0.0000 0.0000 0.0000
# 4 0.0000 0.0000 0.0000 -37.6632 0.0000 0.0000
# 5 0.0000 0.0000 0.0000 0.0000 -59.0772 0.0000
# 6 0.0000 0.0000 0.0000 0.0000 0.0000 2.9319
#
#
#
# Elastic Compliance Matrix: (Units=1/GPa)
#
#
# Indices 1 2 3 4 5 6 
#
# 1 0.010508 -0.009583 -0.006581 0.000000 0.000000 0.000000
# 2 -0.009583 0.048042 0.009763 0.000000 0.000000 0.000000
# 3 -0.006581 0.009763 0.010794 0.000000 0.000000 0.000000
# 4 0.000000 0.000000 0.000000 -0.026551 0.000000 0.000000
# 5 0.000000 0.000000 0.000000 0.000000 -0.016927 0.000000
# 6 0.000000 0.000000 0.000000 0.000000 0.000000 0.341080
#
#
# Mechanical properties :
#
#
# Convention : Reuss Voigt Hill
#
# Bulk Modulus (GPa) = 17.68648 57.58518 37.63583
# Shear Modulus (GPa) = 12.54406 -1.26673 5.63867
#
# Velocity S-wave (km/s) = 2.44043 -0.77551 1.63620
# Velocity P-wave (km/s) = 4.04206 5.15157 4.63016
#
# Compressibility (1/GPa) = 0.05654036
#
# Stress axis : x y z
#
# Youngs Moduli (GPa) = 95.16953 20.81514 92.64658
#
# Poissons Ratio (x) = 0.19948 0.60974
# Poissons Ratio (y) = 0.91203 -0.90452
# Poissons Ratio (z) = 0.62634 -0.20322
#
# Static dielectric constant tensor:
#      x y z
#    x 1.829330 0.000000 0.000000 
#    y 0.000000 1.889240 0.000000 
#    z 0.000000 0.000000 1.423430 
# 
# From -- ./inp_files/23993.got.cif
#   From: 2010.05.17/outbox.cif.g08.bks.cpg/sg21_12_cif.got.tgz:23993.got - 2010.06.03 23:14:55.
