data_PCOD9323286
_publ_section_title
;
Structure prediction by ZEFSAII (Michael W. Deem and Ramdas Pophale) SiO2 
 PCOD9323286
Probable space group: C 2 2 2
;
_chemical_formula_sum "Si O2"
_cell_formula_units_Z 52
_cell_length_a 16.402140
_cell_length_b 15.918713
_cell_length_c 8.259591
_cell_angle_alpha 90.000000
_cell_angle_beta 90.000000
_cell_angle_gamma 90.000000
_cell_volume 2156.587133
_symmetry_space_group_name_H-M "C 2 2 2"
_symmetry_group_IT_number 21
_symmetry_cell_setting 'orthorhombic'
loop_
_space_group_symop_operation_xyz
x,y,z
-x,-y,z
x,-y,-z
-x,y,-z
1/2+x,1/2+y,z
1/2-x,1/2-y,z
1/2+x,1/2-y,-z
1/2-x,1/2+y,-z
loop_
_atom_site_type_symbol
_atom_site_label
_atom_site_fract_x
_atom_site_fract_y
_atom_site_fract_z
Si Si1 0.375645 0.548684 0.344147
Si Si2 0.603029 0.833685 0.172220
Si Si3 0.824170 0.187436 0.950051
Si Si4 0.310850 0.979237 0.679994
Si Si5 0.631960 0.500000 0.000000
Si Si6 0.660812 0.729697 0.667528
Si Si7 0.579179 0.881763 0.799897
O O1 0.406679 0.500000 0.500000
O O2 0.280085 0.519477 0.315920
O O3 0.376986 0.645425 0.400308
O O4 0.412136 0.529794 0.166160
O O5 0.607168 0.731432 0.164294
O O6 0.673373 0.883013 0.269791
O O7 0.516953 0.873423 0.223127
O O8 0.603986 0.852970 0.980250
O O9 0.750000 0.250000 0.907188
O O10 0.821290 0.086316 0.945549
O O11 0.833013 0.203419 0.142474
O O12 0.338987 0.000000 0.500000
O O13 0.374044 0.031290 0.787590
O O14 0.750000 0.750000 0.602292
O O15 0.613900 0.816495 0.668927
#
# Coordination Sequence:
#
# PCOD9323286 Si02
#       7
#     8   8   8   8   4   8   8
#     4  10  21  35  55  89 116 147 199 249 296 361
#     4  10  21  35  55  84 117 146 206 248 290 375
#     4   9  18  33  56  87 111 154 197 246 307 370
#     4  11  22  34  52  83 121 160 196 240 306 373
#     4  10  20  36  62  83 121 158 192 252 316 354
#     4   9  16  33  56  77 111 149 192 239 295 358
#     4  10  20  35  57  81 111 160 197 242 302 360
#
# _framework density 24.112172000000001
#
# number of rings (size 3 to 8) (size 9 to 14) (size 15 to 20)
#    0.000    2.154    1.538    1.846    4.308    2.462 
#    2.769    0.769    0.000   16.615    0.000    1.077 
#    0.000    0.000    0.000    0.000    0.000    0.000 
#
# Total GULP energy -144839.568593 kJ/mol
# GULP energy per Si atom -5570.752638 kJ/mol
# Density = 2.405729 g / cm^3
# Si number density = 24.112172 Si / 1000 Ang^3
#
#
#
# Elastic Constant Matrix: (Units=GPa)
#
#
# Indices 1 2 3 4 5 6 
#
# 1 57.2836 16.1665 7.1171 0.0000 0.0000 0.0000
# 2 16.1665 166.1972 22.0973 0.0000 0.0000 0.0000
# 3 7.1171 22.0973 47.8267 0.0000 0.0000 0.0000
# 4 0.0000 0.0000 0.0000 32.4412 0.0000 0.0000
# 5 0.0000 0.0000 0.0000 0.0000 -37.1166 0.0000
# 6 0.0000 0.0000 0.0000 0.0000 0.0000 10.7789
#
#
#
# Elastic Compliance Matrix: (Units=1/GPa)
#
#
# Indices 1 2 3 4 5 6 
#
# 1 0.018129 -0.001497 -0.002006 0.000000 0.000000 0.000000
# 2 -0.001497 0.006534 -0.002796 0.000000 0.000000 0.000000
# 3 -0.002006 -0.002796 0.022499 0.000000 0.000000 0.000000
# 4 0.000000 0.000000 0.000000 0.030825 0.000000 0.000000
# 5 0.000000 0.000000 0.000000 0.000000 -0.026942 0.000000
# 6 0.000000 0.000000 0.000000 0.000000 0.000000 0.092774
#
#
# Mechanical properties :
#
#
# Convention : Reuss Voigt Hill
#
# Bulk Modulus (GPa) = 28.93194 40.22994 34.58094
# Shear Modulus (GPa) = 29.77278 16.28247 23.02762
#
# Velocity S-wave (km/s) = 3.51773 2.60143 3.09369
# Velocity P-wave (km/s) = 5.34080 5.07385 5.20904
#
# Compressibility (1/GPa) = 0.03456387
#
# Stress axis : x y z
#
# Youngs Moduli (GPa) = 55.16128 153.03784 44.44567
#
# Poissons Ratio (x) = 0.22905 0.08917
# Poissons Ratio (y) = 0.08256 0.12428
# Poissons Ratio (z) = 0.11067 0.42794
#
# Static dielectric constant tensor:
#      x y z
#    x 2.044050 0.000000 0.000000 
#    y 0.000000 2.048450 0.000000 
#    z 0.000000 0.000000 1.969240 
# 
# From -- ./inp_files/17642.got.cif
#   From: 2010.05.17/outbox.cif.g08.bks.cpg/sg21_9_cif.got.tgz:17642.got - 2010.06.03 23:14:55.
