data_PCOD9323332
_publ_section_title
;
Structure prediction by ZEFSAII (Michael W. Deem and Ramdas Pophale) SiO2 
 PCOD9323332
Probable space group: C 2 2 2
;
_chemical_formula_sum "Si O2"
_cell_formula_units_Z 40
_cell_length_a 24.536986
_cell_length_b 8.331792
_cell_length_c 9.459931
_cell_angle_alpha 90.000000
_cell_angle_beta 90.000000
_cell_angle_gamma 90.000000
_cell_volume 1933.960516
_symmetry_space_group_name_H-M "C 2 2 2"
_symmetry_group_IT_number 21
_symmetry_cell_setting 'orthorhombic'
loop_
_space_group_symop_operation_xyz
x,y,z
-x,-y,z
x,-y,-z
-x,y,-z
1/2+x,1/2+y,z
1/2-x,1/2-y,z
1/2+x,1/2-y,-z
1/2-x,1/2+y,-z
loop_
_atom_site_type_symbol
_atom_site_label
_atom_site_fract_x
_atom_site_fract_y
_atom_site_fract_z
Si Si1 0.206441 0.612168 0.629080
Si Si2 0.852651 0.168203 0.429533
Si Si3 0.023590 0.837419 0.343415
Si Si4 0.896982 0.500000 0.000000
Si Si5 0.500000 0.000000 0.799351
Si Si6 0.305178 0.827416 0.157653
O O1 0.225575 0.500000 0.500000
O O2 0.250000 0.750000 0.656186
O O3 0.154460 0.699365 0.554367
O O4 0.199544 0.502385 0.766481
O O5 0.912161 0.155052 0.363840
O O6 0.816513 0.215416 0.294412
O O7 0.839933 0.000000 0.500000
O O8 0.000000 0.835445 0.500000
O O9 0.009147 0.667913 0.277192
O O10 0.000000 0.000000 0.272344
O O11 0.941834 0.530839 0.121862
O O12 0.856166 0.357037 0.051970
O O13 0.250000 0.750000 0.092936
#
# Coordination Sequence:
#
# PCOD9323332 Si02
#       6
#     8   8   8   4   4   8
#     4  10  20  35  61  97 131 172 210 272 354 413
#     4  11  20  38  65 100 140 167 211 286 362 423
#     4  11  23  40  69 110 137 167 223 295 361 419
#     4  11  26  46  68  90 132 195 242 280 340 409
#     4  11  25  48  72  94 141 187 236 290 346 417
#     4  11  24  42  66  96 132 177 236 284 343 417
#
# _framework density 20.682946000000001
#
# number of rings (size 3 to 8) (size 9 to 14) (size 15 to 20)
#    0.000    1.200    4.000    4.500    2.800    2.400 
#    0.000    4.000    8.800    0.000    0.000    0.000 
#    0.000    0.000    0.000    0.000    0.000    0.000 
#
# Total GULP energy -111423.761245 kJ/mol
# GULP energy per Si atom -5571.188062 kJ/mol
# Density = 2.063587 g / cm^3
# Si number density = 20.682946 Si / 1000 Ang^3
#
#
#
# Elastic Constant Matrix: (Units=GPa)
#
#
# Indices 1 2 3 4 5 6 
#
# 1 144.7153 61.0095 29.3559 0.0000 0.0000 0.0000
# 2 61.0095 169.9719 50.7739 0.0000 0.0000 0.0000
# 3 29.3559 50.7739 50.6551 0.0000 0.0000 0.0000
# 4 0.0000 0.0000 0.0000 9.2726 0.0000 0.0000
# 5 0.0000 0.0000 0.0000 0.0000 18.4074 0.0000
# 6 0.0000 0.0000 0.0000 0.0000 0.0000 30.0102
#
#
#
# Elastic Compliance Matrix: (Units=1/GPa)
#
#
# Indices 1 2 3 4 5 6 
#
# 1 0.008380 -0.002223 -0.002629 0.000000 0.000000 0.000000
# 2 -0.002223 0.008987 -0.007720 0.000000 0.000000 0.000000
# 3 -0.002629 -0.007720 0.029003 0.000000 0.000000 0.000000
# 4 0.000000 0.000000 0.000000 0.107844 0.000000 0.000000
# 5 0.000000 0.000000 0.000000 0.000000 0.054326 0.000000
# 6 0.000000 0.000000 0.000000 0.000000 0.000000 0.033322
#
#
# Mechanical properties :
#
#
# Convention : Reuss Voigt Hill
#
# Bulk Modulus (GPa) = 47.10884 71.95788 59.53336
# Shear Modulus (GPa) = 18.24270 26.48491 22.36380
#
# Velocity S-wave (km/s) = 2.97310 3.58232 3.29183
# Velocity P-wave (km/s) = 5.88318 7.20952 6.57985
#
# Compressibility (1/GPa) = 0.02122744
#
# Stress axis : x y z
#
# Youngs Moduli (GPa) = 119.32512 111.26706 34.47911
#
# Poissons Ratio (x) = 0.24733 0.09063
# Poissons Ratio (y) = 0.26524 0.26619
# Poissons Ratio (z) = 0.31366 0.85901
#
# Static dielectric constant tensor:
#      x y z
#    x 1.058000 0.000000 0.000000 
#    y 0.000000 1.667200 0.000000 
#    z 0.000000 0.000000 1.716680 
# 
# From -- ./inp_files/18999.got.cif
#   From: 2010.05.17/outbox.cif.g08.bks.cpg/sg21_10_cif.got.tgz:18999.got - 2010.06.03 23:14:55.
