data_PCOD9323341
_publ_section_title
;
Structure prediction by ZEFSAII (Michael W. Deem and Ramdas Pophale) SiO2 
 PCOD9323341
Probable space group: C 2 2 2
;
_chemical_formula_sum "Si O2"
_cell_formula_units_Z 42
_cell_length_a 9.327648
_cell_length_b 30.591936
_cell_length_c 7.312074
_cell_angle_alpha 90.000000
_cell_angle_beta 90.000000
_cell_angle_gamma 90.000000
_cell_volume 2086.506243
_symmetry_space_group_name_H-M "C 2 2 2"
_symmetry_group_IT_number 21
_symmetry_cell_setting 'orthorhombic'
loop_
_space_group_symop_operation_xyz
x,y,z
-x,-y,z
x,-y,-z
-x,y,-z
1/2+x,1/2+y,z
1/2-x,1/2-y,z
1/2+x,1/2-y,-z
1/2-x,1/2+y,-z
loop_
_atom_site_type_symbol
_atom_site_label
_atom_site_fract_x
_atom_site_fract_y
_atom_site_fract_z
Si Si1 0.133077 0.928188 0.763824
Si Si2 0.330597 0.879156 0.500598
Si Si3 0.500000 0.500000 0.500000
Si Si4 0.168550 0.891465 0.129450
Si Si5 0.669792 0.291730 0.477514
Si Si6 0.666125 0.293008 0.044853
O O1 0.269438 0.910887 0.653842
O O2 0.990192 0.896444 0.776976
O O3 0.173965 0.929856 0.978512
O O4 0.085041 0.969123 0.641837
O O5 0.500000 0.873594 0.500000
O O6 0.277058 0.893344 0.298394
O O7 0.248151 0.834384 0.547734
O O8 0.192606 0.845520 0.017927
O O9 0.500000 0.291388 0.500000
O O10 0.750000 0.250000 0.556422
O O11 0.692596 0.291830 0.260982
O O12 0.750000 0.250000 0.970346
O O13 0.500000 0.286080 0.000000
#
# Coordination Sequence:
#
# PCOD9323341 Si02
#       6
#     8   8   2   8   8   8
#     4  11  22  42  70  99 129 168 225 288 352 411
#     4  11  22  40  63  94 139 184 219 268 345 413
#     4  12  24  42  78 116 114 164 238 298 356 432
#     4  10  21  42  66  94 135 180 221 277 347 393
#     4  10  21  36  57  87 127 173 238 280 326 387
#     4  10  20  36  53  87 125 173 222 270 314 378
#
# _framework density 20.129342999999999
#
# number of rings (size 3 to 8) (size 9 to 14) (size 15 to 20)
#    0.000    1.524    3.810    2.857    0.000    3.048 
#   10.286    0.476    0.000    0.000    9.905    0.000 
#    0.000    0.000    0.000    0.000    0.000    0.000 
#
# Total GULP energy -116916.831181 kJ/mol
# GULP energy per Si atom -5567.468151 kJ/mol
# Density = 2.008353 g / cm^3
# Si number density = 20.129343 Si / 1000 Ang^3
#
#
#
# Elastic Constant Matrix: (Units=GPa)
#
#
# Indices 1 2 3 4 5 6 
#
# 1 121.6839 18.0895 16.5995 0.0000 0.0000 0.0000
# 2 18.0895 57.2097 20.9940 0.0000 0.0000 0.0000
# 3 16.5995 20.9940 90.7332 0.0000 0.0000 0.0000
# 4 0.0000 0.0000 0.0000 14.9832 0.0000 0.0000
# 5 0.0000 0.0000 0.0000 0.0000 5.1987 0.0000
# 6 0.0000 0.0000 0.0000 0.0000 0.0000 13.6173
#
#
#
# Elastic Compliance Matrix: (Units=1/GPa)
#
#
# Indices 1 2 3 4 5 6 
#
# 1 0.008713 -0.002371 -0.001045 0.000000 0.000000 0.000000
# 2 -0.002371 0.019747 -0.004135 0.000000 0.000000 0.000000
# 3 -0.001045 -0.004135 0.012169 0.000000 0.000000 0.000000
# 4 0.000000 0.000000 0.000000 0.066742 0.000000 0.000000
# 5 0.000000 0.000000 0.000000 0.000000 0.192357 0.000000
# 6 0.000000 0.000000 0.000000 0.000000 0.000000 0.073436
#
#
# Mechanical properties :
#
#
# Convention : Reuss Voigt Hill
#
# Bulk Modulus (GPa) = 39.17669 42.33253 40.75461
# Shear Modulus (GPa) = 12.60154 21.02273 16.81214
#
# Velocity S-wave (km/s) = 2.50477 3.23520 2.89313
# Velocity P-wave (km/s) = 5.27919 5.91872 5.60808
#
# Compressibility (1/GPa) = 0.02552538
#
# Stress axis : x y z
#
# Youngs Moduli (GPa) = 114.76893 50.64093 82.17342
#
# Poissons Ratio (x) = 0.12009 0.08590
# Poissons Ratio (y) = 0.27217 0.33980
# Poissons Ratio (z) = 0.11997 0.20941
#
# Static dielectric constant tensor:
#      x y z
#    x 1.676450 0.000000 0.000000 
#    y 0.000000 1.860710 0.000000 
#    z 0.000000 0.000000 1.737360 
# 
# From -- ./inp_files/11248.got.cif
#   From: 2010.05.17/outbox.cif.g08.bks.cpg/sg21_6_cif.got.tgz:11248.got - 2010.06.03 23:14:55.
