data_PCOD9323151
_publ_section_title
;
Structure prediction by ZEFSAII (Michael W. Deem and Ramdas Pophale) SiO2 
 PCOD9323151
Probable space group: C 2 2 2
;
_chemical_formula_sum "Si O2"
_cell_formula_units_Z 40
_cell_length_a 26.264005
_cell_length_b 5.920082
_cell_length_c 11.301298
_cell_angle_alpha 90.000000
_cell_angle_beta 90.000000
_cell_angle_gamma 90.000000
_cell_volume 1757.183034
_symmetry_space_group_name_H-M "C 2 2 2"
_symmetry_group_IT_number 21
_symmetry_cell_setting 'orthorhombic'
loop_
_space_group_symop_operation_xyz
x,y,z
-x,-y,z
x,-y,-z
-x,y,-z
1/2+x,1/2+y,z
1/2-x,1/2-y,z
1/2+x,1/2-y,-z
1/2-x,1/2+y,-z
loop_
_atom_site_type_symbol
_atom_site_label
_atom_site_fract_x
_atom_site_fract_y
_atom_site_fract_z
Si Si1 0.925791 0.158511 0.109354
Si Si2 0.681462 0.472864 0.373099
Si Si3 0.910500 0.780155 0.298962
Si Si4 0.250000 0.750000 0.807545
Si Si5 0.164654 0.419582 0.813417
Si Si6 0.000000 0.500000 0.234560
O O1 0.868429 0.260945 0.099222
O O2 0.966417 0.346480 0.146011
O O3 0.924771 0.993738 0.220679
O O4 0.938477 0.000000 0.000000
O O5 0.708077 0.500000 0.500000
O O6 0.628569 0.612599 0.391446
O O7 0.712371 0.610626 0.275770
O O8 0.675538 0.229902 0.306793
O O9 0.875953 0.608245 0.224034
O O10 0.962279 0.644205 0.317838
O O11 0.213991 0.552782 0.862007
#
# Coordination Sequence:
#
# PCOD9323151 Si02
#       6
#     8   8   8   4   8   4
#     4  10  21  37  60  92 121 158 205 259 315 368
#     4  10  21  35  58  88 123 153 205 256 313 365
#     4   9  20  36  55  84 117 164 194 250 308 362
#     4  10  20  32  58  90 118 158 202 252 318 372
#     4   9  20  37  55  87 122 159 197 257 311 368
#     4  10  20  35  58  83 126 156 210 253 310 371
#
# _framework density 22.763705999999999
#
# number of rings (size 3 to 8) (size 9 to 14) (size 15 to 20)
#    0.000    2.400    0.000    1.200    2.800    8.000 
#    0.000    0.000    0.000   34.800  187.200    0.000 
#    0.000    0.000    0.000    0.000    0.000    0.000 
#
# Total GULP energy -111415.742136 kJ/mol
# GULP energy per Si atom -5570.787107 kJ/mol
# Density = 2.271190 g / cm^3
# Si number density = 22.763706 Si / 1000 Ang^3
#
#
#
# Elastic Constant Matrix: (Units=GPa)
#
#
# Indices 1 2 3 4 5 6 
#
# 1 126.6824 63.0575 5.2293 0.0000 0.0000 0.0000
# 2 63.0575 127.3847 15.4346 0.0000 0.0000 0.0000
# 3 5.2293 15.4346 30.3904 0.0000 0.0000 0.0000
# 4 0.0000 0.0000 0.0000 15.8413 0.0000 0.0000
# 5 0.0000 0.0000 0.0000 0.0000 14.0099 0.0000
# 6 0.0000 0.0000 0.0000 0.0000 0.0000 62.0678
#
#
#
# Elastic Compliance Matrix: (Units=1/GPa)
#
#
# Indices 1 2 3 4 5 6 
#
# 1 0.010497 -0.005304 0.000887 0.000000 0.000000 0.000000
# 2 -0.005304 0.011045 -0.004697 0.000000 0.000000 0.000000
# 3 0.000887 -0.004697 0.035138 0.000000 0.000000 0.000000
# 4 0.000000 0.000000 0.000000 0.063126 0.000000 0.000000
# 5 0.000000 0.000000 0.000000 0.000000 0.071378 0.000000
# 6 0.000000 0.000000 0.000000 0.000000 0.000000 0.016111
#
#
# Mechanical properties :
#
#
# Convention : Reuss Voigt Hill
#
# Bulk Modulus (GPa) = 26.00546 50.21113 38.10830
# Shear Modulus (GPa) = 20.97847 31.76619 26.37233
#
# Velocity S-wave (km/s) = 3.03904 3.73966 3.40740
# Velocity P-wave (km/s) = 4.87475 6.38374 5.67959
#
# Compressibility (1/GPa) = 0.03845346
#
# Stress axis : x y z
#
# Youngs Moduli (GPa) = 95.26406 90.54051 28.45939
#
# Poissons Ratio (x) = 0.48021 -0.02526
# Poissons Ratio (y) = 0.50526 0.13367
# Poissons Ratio (z) = -0.08454 0.42525
#
# Static dielectric constant tensor:
#      x y z
#    x 1.965430 0.000000 0.000000 
#    y 0.000000 1.839800 0.000000 
#    z 0.000000 0.000000 1.946550 
# 
# From -- ./inp_files/27638.got.cif
#   From: 2010.05.17/outbox.cif.g08.bks.cpg/sg21_14_cif.got.tgz:27638.got - 2010.06.03 23:14:55.
