data_PCOD9323827
_publ_section_title
;
Structure prediction by ZEFSAII (Michael W. Deem and Ramdas Pophale) SiO2 
 PCOD9323827
Probable space group: C 2 2 2
;
_chemical_formula_sum "Si O2"
_cell_formula_units_Z 28
_cell_length_a 5.096894
_cell_length_b 14.419109
_cell_length_c 17.822006
_cell_angle_alpha 90.000000
_cell_angle_beta 90.000000
_cell_angle_gamma 90.000000
_cell_volume 1309.786808
_symmetry_space_group_name_H-M "C 2 2 2"
_symmetry_group_IT_number 21
_symmetry_cell_setting 'orthorhombic'
loop_
_space_group_symop_operation_xyz
x,y,z
-x,-y,z
x,-y,-z
-x,y,-z
1/2+x,1/2+y,z
1/2-x,1/2-y,z
1/2+x,1/2-y,-z
1/2-x,1/2+y,-z
loop_
_atom_site_type_symbol
_atom_site_label
_atom_site_fract_x
_atom_site_fract_y
_atom_site_fract_z
Si Si1 0.997412 0.183960 0.419781
Si Si2 0.250000 0.250000 0.046894
Si Si3 0.988090 0.890347 0.255415
Si Si4 0.507125 0.887481 0.834684
O O1 0.250000 0.250000 0.413019
O O2 0.000000 0.130687 0.500000
O O3 0.750000 0.250000 0.426425
O O4 0.963193 0.131391 0.341864
O O5 0.388989 0.169243 0.095834
O O6 0.500000 0.288412 0.000000
O O7 0.207367 0.857405 0.195733
O O8 0.696274 0.862889 0.231806
O O9 0.000000 0.000000 0.247503
O O10 0.500000 0.000000 0.847458
#
# Coordination Sequence:
#
# PCOD9323827 Si02
#       4
#     8   4   8   8
#     4  10  21  35  54  87 124 162 208 257 309 359
#     4  12  26  44  68 100 126 164 216 252 328 410
#     4  10  21  38  61  89 121 164 210 254 310 368
#     4  10  23  42  64  95 127 160 208 262 314 374
#
# _framework density 21.377524000000001
#
# number of rings (size 3 to 8) (size 9 to 14) (size 15 to 20)
#    0.000    1.714    0.000    3.429    6.000    1.143 
#    0.000    1.429    0.000   10.286    0.000    0.000 
#    0.000    0.000    0.000    0.000    0.000    0.000 
#
# Total GULP energy -78111.327161 kJ/mol
# GULP energy per Si atom -5579.380512 kJ/mol
# Density = 2.132887 g / cm^3
# Si number density = 21.377524 Si / 1000 Ang^3
#
#
#
# Elastic Constant Matrix: (Units=GPa)
#
#
# Indices 1 2 3 4 5 6 
#
# 1 130.3812 17.5337 32.6071 0.0000 0.0000 0.0000
# 2 17.5337 74.8190 35.6017 0.0000 0.0000 0.0000
# 3 32.6071 35.6017 128.4045 0.0000 0.0000 0.0000
# 4 0.0000 0.0000 0.0000 248.6659 0.0000 0.0000
# 5 0.0000 0.0000 0.0000 0.0000 39.1370 0.0000
# 6 0.0000 0.0000 0.0000 0.0000 0.0000 13.2266
#
#
#
# Elastic Compliance Matrix: (Units=1/GPa)
#
#
# Indices 1 2 3 4 5 6 
#
# 1 0.008265 -0.001081 -0.001799 0.000000 0.000000 0.000000
# 2 -0.001081 0.015538 -0.004034 0.000000 0.000000 0.000000
# 3 -0.001799 -0.004034 0.009363 0.000000 0.000000 0.000000
# 4 0.000000 0.000000 0.000000 0.004021 0.000000 0.000000
# 5 0.000000 0.000000 0.000000 0.000000 0.025551 0.000000
# 6 0.000000 0.000000 0.000000 0.000000 0.000000 0.075605
#
#
# Mechanical properties :
#
#
# Convention : Reuss Voigt Hill
#
# Bulk Modulus (GPa) = 51.70852 56.12106 53.91479
# Shear Modulus (GPa) = 31.52227 76.73006 54.12616
#
# Velocity S-wave (km/s) = 3.84416 5.99756 5.03728
# Velocity P-wave (km/s) = 6.62904 8.61803 7.68813
#
# Compressibility (1/GPa) = 0.01933917
#
# Stress axis : x y z
#
# Youngs Moduli (GPa) = 120.99034 64.35727 106.80148
#
# Poissons Ratio (x) = 0.06956 0.19216
# Poissons Ratio (y) = 0.13077 0.43081
# Poissons Ratio (z) = 0.21768 0.25960
#
# Static dielectric constant tensor:
#      x y z
#    x 1.772300 0.000000 0.000000 
#    y 0.000000 1.779460 0.000000 
#    z 0.000000 0.000000 1.835560 
# 
# From -- ./inp_files/28549.got.cif
#   From: 2010.05.17/outbox.cif.g08.bks.cpg/sg21_15_cif.got.tgz:28549.got - 2010.06.03 23:14:55.
