data_PCOD9323852
_publ_section_title
;
Structure prediction by ZEFSAII (Michael W. Deem and Ramdas Pophale) SiO2 
 PCOD9323852
Probable space group: C 2 2 2
;
_chemical_formula_sum "Si O2"
_cell_formula_units_Z 36
_cell_length_a 25.609964
_cell_length_b 5.076947
_cell_length_c 13.678766
_cell_angle_alpha 90.000000
_cell_angle_beta 90.000000
_cell_angle_gamma 90.000000
_cell_volume 1778.519036
_symmetry_space_group_name_H-M "C 2 2 2"
_symmetry_group_IT_number 21
_symmetry_cell_setting 'orthorhombic'
loop_
_space_group_symop_operation_xyz
x,y,z
-x,-y,z
x,-y,-z
-x,y,-z
1/2+x,1/2+y,z
1/2-x,1/2-y,z
1/2+x,1/2-y,-z
1/2-x,1/2+y,-z
loop_
_atom_site_type_symbol
_atom_site_label
_atom_site_fract_x
_atom_site_fract_y
_atom_site_fract_z
Si Si1 0.300553 0.121634 0.099779
Si Si2 0.190610 0.253386 0.429420
Si Si3 0.122340 0.484911 0.255605
Si Si4 0.061624 0.030410 0.804119
Si Si5 0.385369 0.500000 0.000000
O O1 0.250000 0.250000 0.148406
O O2 0.330979 0.947138 0.178760
O O3 0.345735 0.308332 0.056625
O O4 0.278798 0.000000 0.000000
O O5 0.189823 0.500000 0.500000
O O6 0.250000 0.250000 0.389104
O O7 0.149829 0.333682 0.345560
O O8 0.180806 0.000000 0.500000
O O9 0.089013 0.752436 0.266268
O O10 0.084634 0.260079 0.213149
O O11 0.000000 0.000000 0.793086
O O12 0.078138 0.116787 0.914576
#
# Coordination Sequence:
#
# PCOD9323852 Si02
#       5
#     8   8   8   8   4
#     4  11  20  34  54  85 129 167 206 247 306 383
#     4  10  21  40  65  96 127 158 199 253 316 387
#     4  11  23  39  62  90 122 165 209 259 316 376
#     4  11  23  39  60  85 120 164 218 267 310 360
#     4  10  21  36  52  82 120 168 211 256 302 360
#
# _framework density 20.241562999999999
#
# number of rings (size 3 to 8) (size 9 to 14) (size 15 to 20)
#    0.000    1.333    3.333    3.000    0.000    0.000 
#    0.000    5.556    0.000   10.000    0.000    0.000 
#    0.000    0.000    0.000    0.000    0.000    0.000 
#
# Total GULP energy -100269.097672 kJ/mol
# GULP energy per Si atom -5570.505426 kJ/mol
# Density = 2.019549 g / cm^3
# Si number density = 20.241563 Si / 1000 Ang^3
#
#
#
# Elastic Constant Matrix: (Units=GPa)
#
#
# Indices 1 2 3 4 5 6 
#
# 1 127.5099 24.3500 30.4146 0.0000 0.0000 0.0000
# 2 24.3500 92.6988 3.0206 0.0000 0.0000 0.0000
# 3 30.4146 3.0206 57.1086 0.0000 0.0000 0.0000
# 4 0.0000 0.0000 0.0000 10.3447 0.0000 0.0000
# 5 0.0000 0.0000 0.0000 0.0000 24.2672 0.0000
# 6 0.0000 0.0000 0.0000 0.0000 0.0000 34.5874
#
#
#
# Elastic Compliance Matrix: (Units=1/GPa)
#
#
# Indices 1 2 3 4 5 6 
#
# 1 0.009459 -0.002324 -0.004914 0.000000 0.000000 0.000000
# 2 -0.002324 0.011377 0.000636 0.000000 0.000000 0.000000
# 3 -0.004914 0.000636 0.020094 0.000000 0.000000 0.000000
# 4 0.000000 0.000000 0.000000 0.096668 0.000000 0.000000
# 5 0.000000 0.000000 0.000000 0.000000 0.041208 0.000000
# 6 0.000000 0.000000 0.000000 0.000000 0.000000 0.028912
#
#
# Mechanical properties :
#
#
# Convention : Reuss Voigt Hill
#
# Bulk Modulus (GPa) = 36.06884 43.65419 39.86152
# Shear Modulus (GPa) = 21.72350 28.47533 25.09942
#
# Velocity S-wave (km/s) = 3.27955 3.75477 3.52518
# Velocity P-wave (km/s) = 5.67437 6.35698 6.02535
#
# Compressibility (1/GPa) = 0.02772476
#
# Stress axis : x y z
#
# Youngs Moduli (GPa) = 105.72321 87.89289 49.76565
#
# Poissons Ratio (x) = 0.20430 0.24457
# Poissons Ratio (y) = 0.24575 -0.03166
# Poissons Ratio (z) = 0.51958 -0.05591
#
# Static dielectric constant tensor:
#      x y z
#    x 1.833210 0.000000 0.000000 
#    y 0.000000 1.776780 0.000000 
#    z 0.000000 0.000000 1.724500 
# 
# From -- ./inp_files/27141.got.cif
#   From: 2010.05.17/outbox.cif.g08.bks.cpg/sg21_14_cif.got.tgz:27141.got - 2010.06.03 23:14:55.
