data_PCOD9323991
_publ_section_title
;
Structure prediction by ZEFSAII (Michael W. Deem and Ramdas Pophale) SiO2 
 PCOD9323991
Probable space group: C 2 2 2
;
_chemical_formula_sum "Si O2"
_cell_formula_units_Z 40
_cell_length_a 11.560875
_cell_length_b 28.228579
_cell_length_c 5.304593
_cell_angle_alpha 90.000000
_cell_angle_beta 90.000000
_cell_angle_gamma 90.000000
_cell_volume 1731.138400
_symmetry_space_group_name_H-M "C 2 2 2"
_symmetry_group_IT_number 21
_symmetry_cell_setting 'orthorhombic'
loop_
_space_group_symop_operation_xyz
x,y,z
-x,-y,z
x,-y,-z
-x,y,-z
1/2+x,1/2+y,z
1/2-x,1/2-y,z
1/2+x,1/2-y,-z
1/2-x,1/2+y,-z
loop_
_atom_site_type_symbol
_atom_site_label
_atom_site_fract_x
_atom_site_fract_y
_atom_site_fract_z
Si Si1 0.635675 0.267357 0.093281
Si Si2 0.423384 0.829632 0.254303
Si Si3 0.576007 0.632630 0.749311
Si Si4 0.674014 0.527397 0.747825
Si Si5 0.577939 0.935809 0.750972
O O1 0.750000 0.250000 0.930297
O O2 0.633866 0.222079 0.277572
O O3 0.652111 0.320199 0.200757
O O4 0.500000 0.269550 0.000000
O O5 0.500000 0.833468 0.500000
O O6 0.369689 0.882091 0.238731
O O7 0.500000 0.827216 0.000000
O O8 0.500000 0.642086 0.500000
O O9 0.632243 0.581248 0.725707
O O10 0.500000 0.628491 0.000000
O O11 0.635434 0.500000 0.500000
O O12 0.813589 0.529687 0.749623
O O13 0.636683 0.500000 0.000000
O O14 0.500000 0.940648 0.500000
O O15 0.500000 0.941699 0.000000
#
# Coordination Sequence:
#
# PCOD9323991 Si02
#       5
#     8   8   8   8   8
#     4  10  21  41  69 103 140 179 222 272 333 403
#     4   9  18  35  59  90 125 166 209 257 323 394
#     4  11  25  46  69  96 129 170 219 275 334 396
#     4  12  26  42  64  93 124 169 226 280 334 392
#     4  10  21  38  61  92 132 171 211 265 331 403
#
# _framework density 23.106182
#
# number of rings (size 3 to 8) (size 9 to 14) (size 15 to 20)
#    0.000    1.600    0.000    4.200    0.000    4.800 
#    0.000   30.000    0.000    0.000    0.000    0.000 
#    0.000    0.000    0.000    0.000    0.000    0.000 
#
# Total GULP energy -111458.538031 kJ/mol
# GULP energy per Si atom -5572.926902 kJ/mol
# Density = 2.305359 g / cm^3
# Si number density = 23.106182 Si / 1000 Ang^3
#
#
#
# Elastic Constant Matrix: (Units=GPa)
#
#
# Indices 1 2 3 4 5 6 
#
# 1 114.1530 66.1403 45.1189 0.0000 0.0000 0.0000
# 2 66.1403 198.4339 53.7880 0.0000 0.0000 0.0000
# 3 45.1189 53.7880 163.8380 0.0000 0.0000 0.0000
# 4 0.0000 0.0000 0.0000 17.0412 0.0000 0.0000
# 5 0.0000 0.0000 0.0000 0.0000 -123.1105 0.0000
# 6 0.0000 0.0000 0.0000 0.0000 0.0000 53.0860
#
#
#
# Elastic Compliance Matrix: (Units=1/GPa)
#
#
# Indices 1 2 3 4 5 6 
#
# 1 0.011474 -0.003258 -0.002090 0.000000 0.000000 0.000000
# 2 -0.003258 0.006457 -0.001223 0.000000 0.000000 0.000000
# 3 -0.002090 -0.001223 0.007081 0.000000 0.000000 0.000000
# 4 0.000000 0.000000 0.000000 0.058681 0.000000 0.000000
# 5 0.000000 0.000000 0.000000 0.000000 -0.008123 0.000000
# 6 0.000000 0.000000 0.000000 0.000000 0.000000 0.018837
#
#
# Mechanical properties :
#
#
# Convention : Reuss Voigt Hill
#
# Bulk Modulus (GPa) = 84.24614 89.61326 86.92970
# Shear Modulus (GPa) = 44.84100 10.16185 27.50143
#
# Velocity S-wave (km/s) = 4.41006 2.09939 3.45370
# Velocity P-wave (km/s) = 7.90387 6.68910 7.32172
#
# Compressibility (1/GPa) = 0.01186998
#
# Stress axis : x y z
#
# Youngs Moduli (GPa) = 87.15433 154.87745 141.23126
#
# Poissons Ratio (x) = 0.50456 0.29521
# Poissons Ratio (y) = 0.28393 0.17267
# Poissons Ratio (z) = 0.18217 0.18935
#
# Static dielectric constant tensor:
#      x y z
#    x 2.001680 0.000000 0.000000 
#    y 0.000000 1.955470 0.000000 
#    z 0.000000 0.000000 1.781580 
# 
# From -- ./inp_files/2836.got.cif
#   From: 2010.05.17/outbox.cif.g08.bks.cpg/sg21_2_cif.got.tgz:2836.got - 2010.06.03 23:14:55.
