data_PCOD9323245
_publ_section_title
;
Structure prediction by ZEFSAII (Michael W. Deem and Ramdas Pophale) SiO2 
 PCOD9323245
Probable space group: C 2 2 2
;
_chemical_formula_sum "Si O2"
_cell_formula_units_Z 32
_cell_length_a 23.787686
_cell_length_b 5.219184
_cell_length_c 13.715857
_cell_angle_alpha 90.000000
_cell_angle_beta 90.000000
_cell_angle_gamma 90.000000
_cell_volume 1702.855332
_symmetry_space_group_name_H-M "C 2 2 2"
_symmetry_group_IT_number 21
_symmetry_cell_setting 'orthorhombic'
loop_
_space_group_symop_operation_xyz
x,y,z
-x,-y,z
x,-y,-z
-x,y,-z
1/2+x,1/2+y,z
1/2-x,1/2-y,z
1/2+x,1/2-y,-z
1/2-x,1/2+y,-z
loop_
_atom_site_type_symbol
_atom_site_label
_atom_site_fract_x
_atom_site_fract_y
_atom_site_fract_z
Si Si1 0.147914 0.191832 0.186105
Si Si2 0.525228 0.746952 0.110887
Si Si3 0.317386 0.795284 0.297016
Si Si4 0.787133 0.500000 0.500000
Si Si5 0.250000 0.750000 0.946192
O O1 0.091617 0.222265 0.122373
O O2 0.161700 0.464566 0.234369
O O3 0.199851 0.131504 0.116136
O O4 0.149655 0.960764 0.264650
O O5 0.500000 0.500000 0.161404
O O6 0.500000 0.000000 0.157427
O O7 0.500000 0.747642 0.000000
O O8 0.250000 0.750000 0.282419
O O9 0.321273 0.884772 0.409396
O O10 0.750000 0.750000 0.466147
O O11 0.225813 0.500000 0.000000
#
# Coordination Sequence:
#
# PCOD9323245 Si02
#       5
#     8   8   8   4   4
#     4  12  23  39  60  85 123 165 204 259 302 369
#     4  10  23  40  58  79 109 158 216 265 295 336
#     4  11  20  38  58  94 128 159 194 238 313 382
#     4  10  20  34  60  92 133 168 191 234 298 394
#     4  12  26  36  56  84 122 168 206 244 320 366
#
# _framework density 18.791965000000001
#
# number of rings (size 3 to 8) (size 9 to 14) (size 15 to 20)
#    0.000    1.000    2.500    6.000    7.000    0.000 
#    0.000    0.000    0.000    0.000    0.000   13.125 
#    0.000    0.000    0.000    0.000    0.000    0.000 
#
# Total GULP energy -89180.414603 kJ/mol
# GULP energy per Si atom -5573.775913 kJ/mol
# Density = 1.874919 g / cm^3
# Si number density = 18.791965 Si / 1000 Ang^3
#
#
#
# Elastic Constant Matrix: (Units=GPa)
#
#
# Indices 1 2 3 4 5 6 
#
# 1 107.7624 18.4308 37.3874 0.0000 0.0000 0.0000
# 2 18.4308 153.0362 24.5951 0.0000 0.0000 0.0000
# 3 37.3874 24.5951 75.6227 0.0000 0.0000 0.0000
# 4 0.0000 0.0000 0.0000 5.8252 0.0000 0.0000
# 5 0.0000 0.0000 0.0000 0.0000 20.6703 0.0000
# 6 0.0000 0.0000 0.0000 0.0000 0.0000 27.6167
#
#
#
# Elastic Compliance Matrix: (Units=1/GPa)
#
#
# Indices 1 2 3 4 5 6 
#
# 1 0.011235 -0.000486 -0.005397 0.000000 0.000000 0.000000
# 2 -0.000486 0.006916 -0.002009 0.000000 0.000000 0.000000
# 3 -0.005397 -0.002009 0.016545 0.000000 0.000000 0.000000
# 4 0.000000 0.000000 0.000000 0.171668 0.000000 0.000000
# 5 0.000000 0.000000 0.000000 0.000000 0.048379 0.000000
# 6 0.000000 0.000000 0.000000 0.000000 0.000000 0.036210
#
#
# Mechanical properties :
#
#
# Convention : Reuss Voigt Hill
#
# Bulk Modulus (GPa) = 52.87368 55.24976 54.06172
# Shear Modulus (GPa) = 15.97244 27.88963 21.93104
#
# Velocity S-wave (km/s) = 2.91857 3.85661 3.41991
# Velocity P-wave (km/s) = 6.28926 7.02110 6.66523
#
# Compressibility (1/GPa) = 0.01891300
#
# Stress axis : x y z
#
# Youngs Moduli (GPa) = 89.00709 144.59647 60.44124
#
# Poissons Ratio (x) = 0.07024 0.32617
# Poissons Ratio (y) = 0.04324 0.12143
# Poissons Ratio (z) = 0.48033 0.29051
#
# Static dielectric constant tensor:
#      x y z
#    x 1.671730 0.000000 0.000000 
#    y 0.000000 1.772050 0.000000 
#    z 0.000000 0.000000 1.686780 
# 
# From -- ./inp_files/26485.got.cif
#   From: 2010.05.17/outbox.cif.g08.bks.cpg/sg21_14_cif.got.tgz:26485.got - 2010.06.03 23:14:55.
