data_PCOD9323419
_publ_section_title
;
Structure prediction by ZEFSAII (Michael W. Deem and Ramdas Pophale) SiO2 
 PCOD9323419
Probable space group: C 2 2 2
;
_chemical_formula_sum "Si O2"
_cell_formula_units_Z 56
_cell_length_a 16.635862
_cell_length_b 21.294587
_cell_length_c 7.485913
_cell_angle_alpha 90.000000
_cell_angle_beta 90.000000
_cell_angle_gamma 90.000000
_cell_volume 2651.913207
_symmetry_space_group_name_H-M "C 2 2 2"
_symmetry_group_IT_number 21
_symmetry_cell_setting 'orthorhombic'
loop_
_space_group_symop_operation_xyz
x,y,z
-x,-y,z
x,-y,-z
-x,y,-z
1/2+x,1/2+y,z
1/2-x,1/2-y,z
1/2+x,1/2-y,-z
1/2-x,1/2+y,-z
loop_
_atom_site_type_symbol
_atom_site_label
_atom_site_fract_x
_atom_site_fract_y
_atom_site_fract_z
Si Si1 0.424753 0.683550 0.903756
Si Si2 0.301657 0.311805 0.382050
Si Si3 0.496086 0.927748 0.787148
Si Si4 0.483529 0.571938 0.289637
Si Si5 0.322276 0.362765 0.781604
Si Si6 0.681031 0.919807 0.308975
Si Si7 0.827019 0.436752 0.272236
O O1 0.382109 0.706033 0.725048
O O2 0.462379 0.617638 0.831169
O O3 0.500000 0.717255 0.000000
O O4 0.357647 0.677706 0.056961
O O5 0.250000 0.250000 0.379269
O O6 0.316258 0.329272 0.589128
O O7 0.251831 0.368559 0.282634
O O8 0.411643 0.898052 0.726052
O O9 0.584968 0.905359 0.737844
O O10 0.500000 0.000000 0.717146
O O11 0.500000 0.929646 0.000000
O O12 0.500000 0.500000 0.252633
O O13 0.500000 0.584357 0.500000
O O14 0.390786 0.585196 0.249559
O O15 0.238220 0.394980 0.827840
O O16 0.692011 0.933540 0.518507
O O17 0.680660 0.989483 0.217894
#
# Coordination Sequence:
#
# PCOD9323419 Si02
#       7
#     8   8   8   8   8   8   8
#     4  10  23  41  65  93 128 166 210 256 318 379
#     4  11  24  43  64  86 122 165 216 267 312 364
#     4   9  17  30  49  81 119 148 181 233 303 367
#     4  10  20  36  63  97 138 169 198 249 319 403
#     4  10  22  38  64  93 121 162 211 258 320 376
#     4   9  19  34  57  82 112 157 194 245 310 373
#     4   9  18  33  57  84 117 150 190 245 308 381
#
# _framework density 21.11683
#
# number of rings (size 3 to 8) (size 9 to 14) (size 15 to 20)
#    0.000    2.286    1.429    0.429    4.000    6.000 
#    0.000    0.714   25.143    0.000    0.000    0.000 
#    0.000    0.000    0.000    0.000    0.000    0.000 
#
# Total GULP energy -155959.207150 kJ/mol
# GULP energy per Si atom -5569.971684 kJ/mol
# Density = 2.106877 g / cm^3
# Si number density = 21.116830 Si / 1000 Ang^3
#
#
#
# Elastic Constant Matrix: (Units=GPa)
#
#
# Indices 1 2 3 4 5 6 
#
# 1 85.3467 11.4527 10.9751 0.0000 0.0000 0.0000
# 2 11.4527 18.1938 14.7582 0.0000 0.0000 0.0000
# 3 10.9751 14.7582 71.5074 0.0000 0.0000 0.0000
# 4 0.0000 0.0000 0.0000 130.8176 0.0000 0.0000
# 5 0.0000 0.0000 0.0000 0.0000 44.1594 0.0000
# 6 0.0000 0.0000 0.0000 0.0000 0.0000 -69.4321
#
#
#
# Elastic Compliance Matrix: (Units=1/GPa)
#
#
# Indices 1 2 3 4 5 6 
#
# 1 0.012806 -0.007767 -0.000362 0.000000 0.000000 0.000000
# 2 -0.007767 0.070727 -0.013405 0.000000 0.000000 0.000000
# 3 -0.000362 -0.013405 0.016807 0.000000 0.000000 0.000000
# 4 0.000000 0.000000 0.000000 0.007644 0.000000 0.000000
# 5 0.000000 0.000000 0.000000 0.000000 0.022645 0.000000
# 6 0.000000 0.000000 0.000000 0.000000 0.000000 -0.014403
#
#
# Mechanical properties :
#
#
# Convention : Reuss Voigt Hill
#
# Bulk Modulus (GPa) = 17.46104 27.71331 22.58718
# Shear Modulus (GPa) = 28.02928 30.29977 29.16453
#
# Velocity S-wave (km/s) = 3.64722 3.79207 3.72035
# Velocity P-wave (km/s) = 5.10128 5.68554 5.40131
#
# Compressibility (1/GPa) = 0.05727034
#
# Stress axis : x y z
#
# Youngs Moduli (GPa) = 78.08972 14.13897 59.49972
#
# Poissons Ratio (x) = 0.10982 0.02157
# Poissons Ratio (y) = 0.60652 0.79759
# Poissons Ratio (z) = 0.02830 0.18953
#
# Static dielectric constant tensor:
#      x y z
#    x 1.624560 0.000000 0.000000 
#    y 0.000000 1.756830 0.000000 
#    z 0.000000 0.000000 3.193560 
# 
# From -- ./inp_files/15275.got.cif
#   From: 2010.05.17/outbox.cif.g08.bks.cpg/sg21_8_cif.got.tgz:15275.got - 2010.06.03 23:14:55.
