data_PCOD9323292
_publ_section_title
;
Structure prediction by ZEFSAII (Michael W. Deem and Ramdas Pophale) SiO2 
 PCOD9323292
Probable space group: C 2 2 2
;
_chemical_formula_sum "Si O2"
_cell_formula_units_Z 40
_cell_length_a 8.719795
_cell_length_b 15.079358
_cell_length_c 15.130431
_cell_angle_alpha 90.000000
_cell_angle_beta 90.000000
_cell_angle_gamma 90.000000
_cell_volume 1989.483887
_symmetry_space_group_name_H-M "C 2 2 2"
_symmetry_group_IT_number 21
_symmetry_cell_setting 'orthorhombic'
loop_
_space_group_symop_operation_xyz
x,y,z
-x,-y,z
x,-y,-z
-x,y,-z
1/2+x,1/2+y,z
1/2-x,1/2-y,z
1/2+x,1/2-y,-z
1/2-x,1/2+y,-z
loop_
_atom_site_type_symbol
_atom_site_label
_atom_site_fract_x
_atom_site_fract_y
_atom_site_fract_z
Si Si1 0.814148 0.345590 0.922431
Si Si2 0.813212 0.999089 0.600922
Si Si3 0.117042 0.416049 0.894034
Si Si4 0.188541 0.150499 0.733999
Si Si5 0.321155 0.348401 0.262606
O O1 0.750000 0.250000 0.945584
O O2 0.728575 0.379794 0.835334
O O3 0.991916 0.336578 0.894069
O O4 0.808557 0.406090 0.009260
O O5 0.767490 0.083017 0.661816
O O6 0.759090 0.000000 0.500000
O O7 0.765314 0.909242 0.650105
O O8 0.000000 0.000000 0.599410
O O9 0.238408 0.399817 0.818077
O O10 0.000000 0.500000 0.884265
O O11 0.250000 0.250000 0.729935
O O12 0.004771 0.153987 0.736736
O O13 0.250000 0.250000 0.274365
#
# Coordination Sequence:
#
# PCOD9323292 Si02
#       5
#     8   8   8   8   8
#     4  10  20  35  57  84 116 156 196 241 297 357
#     4   9  20  39  60  84 118 158 201 251 308 369
#     4  11  23  39  59  85 121 163 203 249 304 361
#     4  11  22  37  62  92 121 158 202 254 311 367
#     4  10  21  38  62  90 122 161 203 252 310 371
#
# _framework density 20.105718
#
# number of rings (size 3 to 8) (size 9 to 14) (size 15 to 20)
#    0.000    1.800    0.000    5.400    0.000    4.800 
#    0.000    0.000    0.000   24.600    0.000    0.000 
#    0.000    0.000    0.000    0.000    0.000    0.000 
#
# Total GULP energy -111602.586431 kJ/mol
# GULP energy per Si atom -5580.129322 kJ/mol
# Density = 2.005996 g / cm^3
# Si number density = 20.105718 Si / 1000 Ang^3
#
#
#
# Elastic Constant Matrix: (Units=GPa)
#
#
# Indices 1 2 3 4 5 6 
#
# 1 65.6161 44.8992 50.2122 0.0000 0.0000 0.0000
# 2 44.8992 152.3351 90.2254 0.0000 0.0000 0.0000
# 3 50.2122 90.2254 198.0562 0.0000 0.0000 0.0000
# 4 0.0000 0.0000 0.0000 30.6347 0.0000 0.0000
# 5 0.0000 0.0000 0.0000 0.0000 21.4617 0.0000
# 6 0.0000 0.0000 0.0000 0.0000 0.0000 27.2343
#
#
#
# Elastic Compliance Matrix: (Units=1/GPa)
#
#
# Indices 1 2 3 4 5 6 
#
# 1 0.020608 -0.004081 -0.003366 0.000000 0.000000 0.000000
# 2 -0.004081 0.009798 -0.003429 0.000000 0.000000 0.000000
# 3 -0.003366 -0.003429 0.007465 0.000000 0.000000 0.000000
# 4 0.000000 0.000000 0.000000 0.032643 0.000000 0.000000
# 5 0.000000 0.000000 0.000000 0.000000 0.046595 0.000000
# 6 0.000000 0.000000 0.000000 0.000000 0.000000 0.036718
#
#
# Mechanical properties :
#
#
# Convention : Reuss Voigt Hill
#
# Bulk Modulus (GPa) = 62.03495 87.40900 74.72197
# Shear Modulus (GPa) = 27.63190 31.24418 29.43804
#
# Velocity S-wave (km/s) = 3.71122 3.94635 3.83059
# Velocity P-wave (km/s) = 7.02037 8.02085 7.53723
#
# Compressibility (1/GPa) = 0.01611995
#
# Stress axis : x y z
#
# Youngs Moduli (GPa) = 48.52500 102.06014 133.96741
#
# Poissons Ratio (x) = 0.41646 0.45090
# Poissons Ratio (y) = 0.19801 0.45939
# Poissons Ratio (z) = 0.16332 0.34997
#
# Static dielectric constant tensor:
#      x y z
#    x 1.716430 0.000000 0.000000 
#    y 0.000000 1.782330 0.000000 
#    z 0.000000 0.000000 1.719670 
# 
# From -- ./inp_files/30214.got.cif
#   From: 2010.05.17/outbox.cif.g08.bks.cpg/sg21_16_cif.got.tgz:30214.got - 2010.06.03 23:14:55.
