data_PCOD9323711
_publ_section_title
;
Structure prediction by ZEFSAII (Michael W. Deem and Ramdas Pophale) SiO2 
 PCOD9323711
Probable space group: C 2 2 2
;
_chemical_formula_sum "Si O2"
_cell_formula_units_Z 64
_cell_length_a 17.909167
_cell_length_b 21.285182
_cell_length_c 8.865963
_cell_angle_alpha 90.000000
_cell_angle_beta 90.000000
_cell_angle_gamma 90.000000
_cell_volume 3379.704023
_symmetry_space_group_name_H-M "C 2 2 2"
_symmetry_group_IT_number 21
_symmetry_cell_setting 'orthorhombic'
loop_
_space_group_symop_operation_xyz
x,y,z
-x,-y,z
x,-y,-z
-x,y,-z
1/2+x,1/2+y,z
1/2-x,1/2-y,z
1/2+x,1/2-y,-z
1/2-x,1/2+y,-z
loop_
_atom_site_type_symbol
_atom_site_label
_atom_site_fract_x
_atom_site_fract_y
_atom_site_fract_z
Si Si1 0.077313 0.899183 0.091629
Si Si2 0.791824 0.684662 0.985443
Si Si3 0.807010 0.105383 0.824177
Si Si4 0.921924 0.312651 0.441218
Si Si5 0.842706 0.979277 0.661472
Si Si6 0.264169 0.863305 0.350328
Si Si7 0.565578 0.747353 0.880179
Si Si8 0.177286 0.786582 0.599226
O O1 0.096758 0.946260 0.228371
O O2 0.083342 0.826524 0.144482
O O3 0.141895 0.906154 0.968444
O O4 0.000000 0.909827 0.000000
O O5 0.750000 0.750000 0.011439
O O6 0.767000 0.657857 0.822970
O O7 0.875011 0.708437 0.965144
O O8 0.770013 0.634458 0.112623
O O9 0.842565 0.158827 0.716307
O O10 0.806395 0.040699 0.736051
O O11 0.849011 0.356540 0.412653
O O12 0.941522 0.278432 0.283623
O O13 0.889302 0.259991 0.556392
O O14 0.000000 0.340707 0.500000
O O15 0.775717 0.929917 0.636840
O O16 0.875016 0.000000 0.500000
O O17 0.210847 0.817208 0.446592
O O18 0.500000 0.745596 0.000000
O O19 0.250000 0.750000 0.660345
#
# Coordination Sequence:
#
# PCOD9323711 Si02
#       8
#     8   8   8   8   8   8   8   8
#     4  11  25  43  63  89 131 165 210 256 318 368
#     4  11  19  36  63  91 122 158 200 259 321 373
#     4  12  24  35  63  91 120 163 211 268 300 369
#     4  10  22  36  63  94 132 162 202 265 328 387
#     4  12  24  44  65  88 121 169 228 257 299 372
#     4  10  20  41  62  89 125 166 213 260 311 373
#     4  10  22  38  62  92 128 166 197 255 326 394
#     4  10  21  36  57  91 122 156 205 258 315 376
#
# _framework density 18.936571000000001
#
# number of rings (size 3 to 8) (size 9 to 14) (size 15 to 20)
#    0.000    1.250    3.750    3.375    3.500    2.000 
#    0.000    1.250    0.000    0.375    0.000    0.875 
#    0.000    0.000    0.000    0.000    0.000    0.000 
#
# Total GULP energy -178575.772147 kJ/mol
# GULP energy per Si atom -5580.492880 kJ/mol
# Density = 1.889347 g / cm^3
# Si number density = 18.936571 Si / 1000 Ang^3
#
#
#
# Elastic Constant Matrix: (Units=GPa)
#
#
# Indices 1 2 3 4 5 6 
#
# 1 83.0507 31.0117 35.5465 0.0000 0.0000 0.0000
# 2 31.0117 86.6657 39.2721 0.0000 0.0000 0.0000
# 3 35.5465 39.2721 91.6238 0.0000 0.0000 0.0000
# 4 0.0000 0.0000 0.0000 37.2773 0.0000 0.0000
# 5 0.0000 0.0000 0.0000 0.0000 -1.7506 0.0000
# 6 0.0000 0.0000 0.0000 0.0000 0.0000 13.8747
#
#
#
# Elastic Compliance Matrix: (Units=1/GPa)
#
#
# Indices 1 2 3 4 5 6 
#
# 1 0.015222 -0.003439 -0.004432 0.000000 0.000000 0.000000
# 2 -0.003439 0.015097 -0.005137 0.000000 0.000000 0.000000
# 3 -0.004432 -0.005137 0.014835 0.000000 0.000000 0.000000
# 4 0.000000 0.000000 0.000000 0.026826 0.000000 0.000000
# 5 0.000000 0.000000 0.000000 0.000000 -0.571233 0.000000
# 6 0.000000 0.000000 0.000000 0.000000 0.000000 0.072074
#
#
# Mechanical properties :
#
#
# Convention : Reuss Voigt Hill
#
# Bulk Modulus (GPa) = 52.24744 52.55565 52.40154
# Shear Modulus (GPa) = -12.66510 20.24760 3.79125
#
# Velocity S-wave (km/s) = -2.58896 3.27346 1.41648
# Velocity P-wave (km/s) = 4.32594 6.48854 5.51429
#
# Compressibility (1/GPa) = 0.01913970
#
# Stress axis : x y z
#
# Youngs Moduli (GPa) = 65.69622 66.23944 67.40727
#
# Poissons Ratio (x) = 0.22777 0.29872
# Poissons Ratio (y) = 0.22591 0.34626
# Poissons Ratio (z) = 0.29113 0.34026
#
# Static dielectric constant tensor:
#      x y z
#    x 1.658560 0.000000 0.000000 
#    y 0.000000 1.665760 0.000000 
#    z 0.000000 0.000000 1.700960 
# 
# From -- ./inp_files/16849.got.cif
#   From: 2010.05.17/outbox.cif.g08.bks.cpg/sg21_9_cif.got.tgz:16849.got - 2010.06.03 23:14:55.
