data_PCOD9323025
_publ_section_title
;
Structure prediction by ZEFSAII (Michael W. Deem and Ramdas Pophale) SiO2 
 PCOD9323025
Probable space group: C 2 2 2
;
_chemical_formula_sum "Si O2"
_cell_formula_units_Z 48
_cell_length_a 29.105455
_cell_length_b 10.236758
_cell_length_c 7.614155
_cell_angle_alpha 90.000000
_cell_angle_beta 90.000000
_cell_angle_gamma 90.000000
_cell_volume 2268.603213
_symmetry_space_group_name_H-M "C 2 2 2"
_symmetry_group_IT_number 21
_symmetry_cell_setting 'orthorhombic'
loop_
_space_group_symop_operation_xyz
x,y,z
-x,-y,z
x,-y,-z
-x,y,-z
1/2+x,1/2+y,z
1/2-x,1/2-y,z
1/2+x,1/2-y,-z
1/2-x,1/2+y,-z
loop_
_atom_site_type_symbol
_atom_site_label
_atom_site_fract_x
_atom_site_fract_y
_atom_site_fract_z
Si Si1 0.494530 0.849052 0.285404
Si Si2 0.753800 0.095522 0.833505
Si Si3 0.105527 0.268827 0.688544
Si Si4 0.410911 0.267768 0.275067
Si Si5 0.852174 0.997646 0.709935
Si Si6 0.155859 0.472241 0.207297
O O1 0.500000 0.849532 0.500000
O O2 0.444687 0.796279 0.230523
O O3 0.537302 0.763739 0.221198
O O4 0.500000 0.000000 0.230789
O O5 0.750000 0.250000 0.876306
O O6 0.802169 0.057273 0.747950
O O7 0.707155 0.061901 0.727980
O O8 0.753010 0.000000 0.000000
O O9 0.093263 0.234535 0.487401
O O10 0.134196 0.402343 0.698725
O O11 0.135730 0.150185 0.765892
O O12 0.390089 0.404140 0.213179
O O13 0.377766 0.150050 0.221906
O O14 0.855964 0.000000 0.500000
O O15 0.158640 0.500000 0.000000
#
# Coordination Sequence:
#
# PCOD9323025 Si02
#       6
#     8   8   8   8   8   8
#     4   9  16  30  57  87 114 152 193 230 281 346
#     4  11  25  43  62  84 115 155 197 238 288 353
#     4  10  21  36  59  88 116 153 191 234 290 342
#     4  10  19  38  59  84 120 151 188 240 287 344
#     4  10  23  39  59  89 120 150 189 244 295 336
#     4  11  23  37  58  85 111 151 198 236 291 340
#
# _framework density 21.158393
#
# number of rings (size 3 to 8) (size 9 to 14) (size 15 to 20)
#    0.000    1.833    3.333    0.500    4.667    2.000 
#    0.000    5.000    0.000    0.000    0.000    3.500 
#    0.000    0.000    0.000    0.000    0.000    0.000 
#
# Total GULP energy -133955.498998 kJ/mol
# GULP energy per Si atom -5581.479125 kJ/mol
# Density = 2.111024 g / cm^3
# Si number density = 21.158393 Si / 1000 Ang^3
#
#
#
# Elastic Constant Matrix: (Units=GPa)
#
#
# Indices 1 2 3 4 5 6 
#
# 1 173.2785 74.0890 1.9523 0.0000 0.0000 0.0000
# 2 74.0890 156.7240 6.0876 0.0000 0.0000 0.0000
# 3 1.9523 6.0876 22.1043 0.0000 0.0000 0.0000
# 4 0.0000 0.0000 0.0000 14.9494 0.0000 0.0000
# 5 0.0000 0.0000 0.0000 0.0000 60.3676 0.0000
# 6 0.0000 0.0000 0.0000 0.0000 0.0000 53.1402
#
#
#
# Elastic Compliance Matrix: (Units=1/GPa)
#
#
# Indices 1 2 3 4 5 6 
#
# 1 0.007235 -0.003432 0.000306 0.000000 0.000000 0.000000
# 2 -0.003432 0.008078 -0.001921 0.000000 0.000000 0.000000
# 3 0.000306 -0.001921 0.045742 0.000000 0.000000 0.000000
# 4 0.000000 0.000000 0.000000 0.066893 0.000000 0.000000
# 5 0.000000 0.000000 0.000000 0.000000 0.016565 0.000000
# 6 0.000000 0.000000 0.000000 0.000000 0.000000 0.018818
#
#
# Mechanical properties :
#
#
# Convention : Reuss Voigt Hill
#
# Bulk Modulus (GPa) = 19.62320 57.37383 38.49851
# Shear Modulus (GPa) = 26.25877 43.68996 34.97437
#
# Velocity S-wave (km/s) = 3.52669 4.54905 4.07009
# Velocity P-wave (km/s) = 5.08703 7.40047 6.35000
#
# Compressibility (1/GPa) = 0.05096010
#
# Stress axis : x y z
#
# Youngs Moduli (GPa) = 138.21483 123.79615 21.86168
#
# Poissons Ratio (x) = 0.42489 -0.00669
# Poissons Ratio (y) = 0.47438 0.04201
# Poissons Ratio (z) = -0.04232 0.23787
#
# Static dielectric constant tensor:
#      x y z
#    x 1.787190 0.000000 0.000000 
#    y 0.000000 1.698660 0.000000 
#    z 0.000000 0.000000 1.785400 
# 
# From -- ./inp_files/11510.got.cif
#   From: 2010.05.17/outbox.cif.g08.bks.cpg/sg21_6_cif.got.tgz:11510.got - 2010.06.03 23:14:55.
