data_PCOD9323949
_publ_section_title
;
Structure prediction by ZEFSAII (Michael W. Deem and Ramdas Pophale) SiO2 
 PCOD9323949
Probable space group: C 2 2 2
;
_chemical_formula_sum "Si O2"
_cell_formula_units_Z 48
_cell_length_a 15.865948
_cell_length_b 8.566781
_cell_length_c 15.348568
_cell_angle_alpha 90.000000
_cell_angle_beta 90.000000
_cell_angle_gamma 90.000000
_cell_volume 2086.178926
_symmetry_space_group_name_H-M "C 2 2 2"
_symmetry_group_IT_number 21
_symmetry_cell_setting 'orthorhombic'
loop_
_space_group_symop_operation_xyz
x,y,z
-x,-y,z
x,-y,-z
-x,y,-z
1/2+x,1/2+y,z
1/2-x,1/2-y,z
1/2+x,1/2-y,-z
1/2-x,1/2+y,-z
loop_
_atom_site_type_symbol
_atom_site_label
_atom_site_fract_x
_atom_site_fract_y
_atom_site_fract_z
Si Si1 0.360484 0.919718 0.090239
Si Si2 0.327484 0.127204 0.577255
Si Si3 0.166746 0.864181 0.737333
Si Si4 0.092829 0.934068 0.407225
Si Si5 0.908048 0.553900 0.274572
Si Si6 0.843584 0.935004 0.907435
O O1 0.258443 0.921671 0.088464
O O2 0.382257 0.737389 0.103533
O O3 0.391248 0.014827 0.173605
O O4 0.389097 0.000000 0.000000
O O5 0.250000 0.250000 0.569983
O O6 0.405162 0.248675 0.580573
O O7 0.328482 0.000000 0.500000
O O8 0.338517 0.034191 0.667469
O O9 0.250000 0.750000 0.742885
O O10 0.097933 0.736977 0.711466
O O11 0.156483 0.000071 0.665831
O O12 0.144547 0.944871 0.828715
O O13 0.121327 0.000000 0.500000
O O14 0.000000 0.000000 0.389750
O O15 0.000000 0.500000 0.299391
O O16 0.872970 0.000000 0.000000
#
# Coordination Sequence:
#
# PCOD9323949 Si02
#       6
#     8   8   8   8   8   8
#     4  10  21  40  65  97 139 182 231 284 350 420
#     4  12  27  48  73 104 139 183 241 297 350 418
#     4  12  23  42  70 102 134 178 236 290 341 412
#     4  11  25  46  69  97 138 184 227 283 356 422
#     4  12  26  42  68 104 143 187 230 289 359 416
#     4  10  21  37  67  99 132 178 232 292 351 409
#
# _framework density 23.008572999999998
#
# number of rings (size 3 to 8) (size 9 to 14) (size 15 to 20)
#    0.000    0.833    1.667    5.500    4.667    3.333 
#    0.000    0.000    0.000    3.500    0.000    0.000 
#    0.000    0.000    0.000    0.000    0.000    0.000 
#
# Total GULP energy -134152.791337 kJ/mol
# GULP energy per Si atom -5589.699639 kJ/mol
# Density = 2.295620 g / cm^3
# Si number density = 23.008573 Si / 1000 Ang^3
#
#
#
# Elastic Constant Matrix: (Units=GPa)
#
#
# Indices 1 2 3 4 5 6 
#
# 1 83.3366 34.6610 25.2936 0.0000 0.0000 0.0000
# 2 34.6610 167.4016 60.0800 0.0000 0.0000 0.0000
# 3 25.2936 60.0800 157.0878 0.0000 0.0000 0.0000
# 4 0.0000 0.0000 0.0000 50.2083 0.0000 0.0000
# 5 0.0000 0.0000 0.0000 0.0000 7.4497 0.0000
# 6 0.0000 0.0000 0.0000 0.0000 0.0000 43.6302
#
#
#
# Elastic Compliance Matrix: (Units=1/GPa)
#
#
# Indices 1 2 3 4 5 6 
#
# 1 0.013344 -0.002309 -0.001266 0.000000 0.000000 0.000000
# 2 -0.002309 0.007324 -0.002429 0.000000 0.000000 0.000000
# 3 -0.001266 -0.002429 0.007499 0.000000 0.000000 0.000000
# 4 0.000000 0.000000 0.000000 0.019917 0.000000 0.000000
# 5 0.000000 0.000000 0.000000 0.000000 0.134234 0.000000
# 6 0.000000 0.000000 0.000000 0.000000 0.000000 0.022920
#
#
# Mechanical properties :
#
#
# Convention : Reuss Voigt Hill
#
# Bulk Modulus (GPa) = 61.88454 71.98836 66.93645
# Shear Modulus (GPa) = 22.45870 39.44372 30.95121
#
# Velocity S-wave (km/s) = 3.12765 4.14491 3.67168
# Velocity P-wave (km/s) = 6.32437 7.36631 6.86514
#
# Compressibility (1/GPa) = 0.01615912
#
# Stress axis : x y z
#
# Youngs Moduli (GPa) = 74.94082 136.54631 133.35579
#
# Poissons Ratio (x) = 0.31524 0.16877
# Poissons Ratio (y) = 0.17301 0.32395
# Poissons Ratio (z) = 0.09484 0.33170
#
# Static dielectric constant tensor:
#      x y z
#    x 1.958510 0.000000 0.000000 
#    y 0.000000 1.664380 0.000000 
#    z 0.000000 0.000000 1.822170 
# 
# From -- ./inp_files/32816.got.cif
#   From: 2010.05.17/outbox.cif.g08.bks.cpg/sg21_17_cif.got.tgz:32816.got - 2010.06.03 23:14:55.
