data_PCOD9323779
_publ_section_title
;
Structure prediction by ZEFSAII (Michael W. Deem and Ramdas Pophale) SiO2 
 PCOD9323779
Probable space group: C 2 2 2
;
_chemical_formula_sum "Si O2"
_cell_formula_units_Z 34
_cell_length_a 6.556214
_cell_length_b 13.126950
_cell_length_c 18.775773
_cell_angle_alpha 90.000000
_cell_angle_beta 90.000000
_cell_angle_gamma 90.000000
_cell_volume 1615.901105
_symmetry_space_group_name_H-M "C 2 2 2"
_symmetry_group_IT_number 21
_symmetry_cell_setting 'orthorhombic'
loop_
_space_group_symop_operation_xyz
x,y,z
-x,-y,z
x,-y,-z
-x,y,-z
1/2+x,1/2+y,z
1/2-x,1/2-y,z
1/2+x,1/2-y,-z
1/2-x,1/2+y,-z
loop_
_atom_site_type_symbol
_atom_site_label
_atom_site_fract_x
_atom_site_fract_y
_atom_site_fract_z
Si Si1 0.686659 0.136783 0.191474
Si Si2 0.500000 0.000000 0.690111
Si Si3 0.000000 0.000000 0.899971
Si Si4 0.337663 0.861702 0.565932
Si Si5 0.000000 0.000000 0.500000
Si Si6 0.103716 0.389669 0.068338
O O1 0.750000 0.250000 0.213868
O O2 0.481547 0.153502 0.142714
O O3 0.856276 0.077302 0.144678
O O4 0.648444 0.060142 0.256488
O O5 0.575071 0.088061 0.636920
O O6 0.159516 0.920916 0.937546
O O7 0.500000 0.863673 0.500000
O O8 0.250000 0.750000 0.576550
O O9 0.146611 0.930514 0.545697
O O10 0.000000 0.500000 0.069745
O O11 0.000000 0.335407 0.000000
#
# Coordination Sequence:
#
# PCOD9323779 Si02
#       6
#     8   4   4   8   2   8
#     4  11  25  44  66 101 144 183 237 287 350 430
#     4  12  25  48  65 108 148 180 234 286 347 440
#     4  10  20  44  72  93 139 190 228 304 349 415
#     4  12  26  46  76 108 140 184 237 288 345 419
#     4  12  22  46  76 102 144 176 228 292 344 406
#     4   9  19  40  67 101 136 182 243 293 355 411
#
# _framework density 21.040890999999998
#
# number of rings (size 3 to 8) (size 9 to 14) (size 15 to 20)
#    0.000    1.176    7.059    0.000    0.000   14.118 
#    4.235    0.000    0.000    0.000    0.000    0.000 
#    0.000    0.000    0.000    0.000    0.000    0.000 
#
# Total GULP energy -94756.429623 kJ/mol
# GULP energy per Si atom -5573.907625 kJ/mol
# Density = 2.099300 g / cm^3
# Si number density = 21.040891 Si / 1000 Ang^3
#
#
#
# Elastic Constant Matrix: (Units=GPa)
#
#
# Indices 1 2 3 4 5 6 
#
# 1 143.1368 39.8451 64.7139 0.0000 0.0000 0.0000
# 2 39.8451 132.4384 38.3212 0.0000 0.0000 0.0000
# 3 64.7139 38.3212 120.5567 0.0000 0.0000 0.0000
# 4 0.0000 0.0000 0.0000 -4.6868 0.0000 0.0000
# 5 0.0000 0.0000 0.0000 0.0000 21.8344 0.0000
# 6 0.0000 0.0000 0.0000 0.0000 0.0000 34.1882
#
#
#
# Elastic Compliance Matrix: (Units=1/GPa)
#
#
# Indices 1 2 3 4 5 6 
#
# 1 0.009496 -0.001522 -0.004613 0.000000 0.000000 0.000000
# 2 -0.001522 0.008559 -0.001904 0.000000 0.000000 0.000000
# 3 -0.004613 -0.001904 0.011376 0.000000 0.000000 0.000000
# 4 0.000000 0.000000 0.000000 -0.213364 0.000000 0.000000
# 5 0.000000 0.000000 0.000000 0.000000 0.045799 0.000000
# 6 0.000000 0.000000 0.000000 0.000000 0.000000 0.029250
#
#
# Mechanical properties :
#
#
# Convention : Reuss Voigt Hill
#
# Bulk Modulus (GPa) = 74.88824 75.76583 75.32704
# Shear Modulus (GPa) = -56.59063 27.15061 -14.72001
#
# Velocity S-wave (km/s) = -5.19172 3.59607 -2.64785
# Velocity P-wave (km/s) = 0.51918 7.30269 5.15072
#
# Compressibility (1/GPa) = 0.01335323
#
# Stress axis : x y z
#
# Youngs Moduli (GPa) = 105.30960 116.83001 87.90052
#
# Poissons Ratio (x) = 0.17781 0.40553
# Poissons Ratio (y) = 0.16028 0.16735
# Poissons Ratio (z) = 0.48585 0.22242
#
# Static dielectric constant tensor:
#      x y z
#    x 1.795120 0.000000 0.000000 
#    y 0.000000 1.723480 0.000000 
#    z 0.000000 0.000000 1.921480 
# 
# From -- ./inp_files/34560.got.cif
#   From: 2010.05.17/outbox.cif.g08.bks.cpg/sg21_18_cif.got.tgz:34560.got - 2010.06.03 23:14:55.
