data_PCOD9323768
_publ_section_title
;
Structure prediction by ZEFSAII (Michael W. Deem and Ramdas Pophale) SiO2 
 PCOD9323768
Probable space group: C 2 2 2
;
_chemical_formula_sum "Si O2"
_cell_formula_units_Z 46
_cell_length_a 20.557487
_cell_length_b 17.256390
_cell_length_c 5.423474
_cell_angle_alpha 90.000000
_cell_angle_beta 90.000000
_cell_angle_gamma 90.000000
_cell_volume 1923.966626
_symmetry_space_group_name_H-M "C 2 2 2"
_symmetry_group_IT_number 21
_symmetry_cell_setting 'orthorhombic'
loop_
_space_group_symop_operation_xyz
x,y,z
-x,-y,z
x,-y,-z
-x,y,-z
1/2+x,1/2+y,z
1/2-x,1/2-y,z
1/2+x,1/2-y,-z
1/2-x,1/2+y,-z
loop_
_atom_site_type_symbol
_atom_site_label
_atom_site_fract_x
_atom_site_fract_y
_atom_site_fract_z
Si Si1 0.105187 0.791050 0.190346
Si Si2 0.588816 0.878377 0.889789
Si Si3 0.115196 0.500000 0.500000
Si Si4 0.784308 0.576496 0.142480
Si Si5 0.000000 0.500000 0.000000
Si Si6 0.687316 0.695392 0.309879
Si Si7 0.072943 0.966356 0.248442
O O1 0.068137 0.708564 0.175123
O O2 0.153311 0.789474 0.427912
O O3 0.069443 0.873186 0.231930
O O4 0.139699 0.794894 0.922897
O O5 0.577656 0.937669 0.664772
O O6 0.550852 0.931023 0.092278
O O7 0.666347 0.876537 0.957080
O O8 0.165684 0.447215 0.350675
O O9 0.722162 0.614015 0.265962
O O10 0.764620 0.500000 0.000000
O O11 0.750000 0.750000 0.287789
O O12 0.103455 0.000000 0.500000
O O13 0.000000 0.000000 0.249882
O O14 0.104378 0.000000 0.000000
#
# Coordination Sequence:
#
# PCOD9323768 Si02
#       7
#     8   8   4   8   2   8   8
#     4  12  27  44  75 107 145 188 248 290 358 440
#     4  11  24  45  66 105 139 190 241 297 351 431
#     4  10  20  43  68  92 146 184 225 296 346 424
#     4  10  22  41  67  98 145 185 229 292 361 423
#     4  12  24  46  72 100 148 188 248 290 366 422
#     4  12  25  43  70 106 145 190 228 297 356 432
#     4  10  23  48  74  99 142 188 239 308 364 409
#
# _framework density 23.908940999999999
#
# number of rings (size 3 to 8) (size 9 to 14) (size 15 to 20)
#    0.000    1.043    4.348    2.609    4.870    3.826 
#    0.000    3.478    0.000    0.000    0.000    0.000 
#    0.000    0.000    0.000    0.000    0.000    0.000 
#
# Total GULP energy -128165.787627 kJ/mol
# GULP energy per Si atom -5572.425549 kJ/mol
# Density = 2.385452 g / cm^3
# Si number density = 23.908941 Si / 1000 Ang^3
#
#
#
# Elastic Constant Matrix: (Units=GPa)
#
#
# Indices 1 2 3 4 5 6 
#
# 1 66.6144 40.4967 19.2565 0.0000 0.0000 0.0000
# 2 40.4967 224.3349 32.3569 0.0000 0.0000 0.0000
# 3 19.2565 32.3569 135.3274 0.0000 0.0000 0.0000
# 4 0.0000 0.0000 0.0000 25.5091 0.0000 0.0000
# 5 0.0000 0.0000 0.0000 0.0000 72.3240 0.0000
# 6 0.0000 0.0000 0.0000 0.0000 0.0000 -35.9294
#
#
#
# Elastic Compliance Matrix: (Units=1/GPa)
#
#
# Indices 1 2 3 4 5 6 
#
# 1 0.017263 -0.002861 -0.001772 0.000000 0.000000 0.000000
# 2 -0.002861 0.005091 -0.000810 0.000000 0.000000 0.000000
# 3 -0.001772 -0.000810 0.007835 0.000000 0.000000 0.000000
# 4 0.000000 0.000000 0.000000 0.039202 0.000000 0.000000
# 5 0.000000 0.000000 0.000000 0.000000 0.013827 0.000000
# 6 0.000000 0.000000 0.000000 0.000000 0.000000 -0.027832
#
#
# Mechanical properties :
#
#
# Convention : Reuss Voigt Hill
#
# Bulk Modulus (GPa) = 51.80586 67.83300 59.81943
# Shear Modulus (GPa) = 68.76969 34.65852 51.71410
#
# Velocity S-wave (km/s) = 5.36895 3.81150 4.65581
# Velocity P-wave (km/s) = 7.75559 6.91397 7.34684
#
# Compressibility (1/GPa) = 0.01930284
#
# Stress axis : x y z
#
# Youngs Moduli (GPa) = 57.92659 196.42957 127.62561
#
# Poissons Ratio (x) = 0.56192 0.22622
# Poissons Ratio (y) = 0.16571 0.10340
# Poissons Ratio (z) = 0.10267 0.15914
#
# Static dielectric constant tensor:
#      x y z
#    x 1.874910 0.000000 0.000000 
#    y 0.000000 1.677090 0.000000 
#    z 0.000000 0.000000 2.220690 
# 
# From -- ./inp_files/6730.got.cif
#   From: 2010.05.17/outbox.cif.g08.bks.cpg/sg21_4_cif.got.tgz:6730.got - 2010.06.03 23:14:55.
