data_PCOD9323253
_publ_section_title
;
Structure prediction by ZEFSAII (Michael W. Deem and Ramdas Pophale) SiO2 
 PCOD9323253
Probable space group: C 2 2 2
;
_chemical_formula_sum "Si O2"
_cell_formula_units_Z 40
_cell_length_a 10.984648
_cell_length_b 19.951225
_cell_length_c 9.542925
_cell_angle_alpha 90.000000
_cell_angle_beta 90.000000
_cell_angle_gamma 90.000000
_cell_volume 2091.400568
_symmetry_space_group_name_H-M "C 2 2 2"
_symmetry_group_IT_number 21
_symmetry_cell_setting 'orthorhombic'
loop_
_space_group_symop_operation_xyz
x,y,z
-x,-y,z
x,-y,-z
-x,y,-z
1/2+x,1/2+y,z
1/2-x,1/2-y,z
1/2+x,1/2-y,-z
1/2-x,1/2+y,-z
loop_
_atom_site_type_symbol
_atom_site_label
_atom_site_fract_x
_atom_site_fract_y
_atom_site_fract_z
Si Si1 0.993201 0.078889 0.749865
Si Si2 0.750000 0.250000 0.117617
Si Si3 0.000000 0.816400 0.000000
Si Si4 0.749384 0.069399 0.589253
Si Si5 0.357072 0.998793 0.844643
Si Si6 0.261845 0.874244 0.317043
O O1 0.969283 0.132271 0.873154
O O2 0.887455 0.080838 0.635399
O O3 0.120731 0.103175 0.686834
O O4 0.000000 0.000000 0.795596
O O5 0.716989 0.190215 0.223592
O O6 0.874899 0.225968 0.035812
O O7 0.702175 0.125018 0.480485
O O8 0.739142 0.000000 0.500000
O O9 0.682189 0.059611 0.737797
O O10 0.325437 0.066408 0.765820
O O11 0.500000 0.000000 0.860003
O O12 0.299231 0.000000 0.000000
#
# Coordination Sequence:
#
# PCOD9323253 Si02
#       6
#     8   4   4   8   8   8
#     4  11  19  34  64  99 123 144 200 267 332 377
#     4  10  24  46  60  88 130 178 220 254 306 380
#     4  10  25  40  66  90 129 168 218 268 306 372
#     4  10  20  34  62  93 125 154 190 263 326 383
#     4  10  22  36  58  92 121 157 199 258 319 372
#     4  10  22  37  62  85 125 164 201 251 309 378
#
# _framework density 19.125938999999999
#
# number of rings (size 3 to 8) (size 9 to 14) (size 15 to 20)
#    0.000    1.800    4.000    0.900    5.600    5.200 
#    0.000    1.000   13.200    0.000    0.000    0.000 
#    0.000    0.000    0.000    0.000    0.000    0.000 
#
# Total GULP energy -111361.210349 kJ/mol
# GULP energy per Si atom -5568.060517 kJ/mol
# Density = 1.908241 g / cm^3
# Si number density = 19.125939 Si / 1000 Ang^3
#
#
#
# Elastic Constant Matrix: (Units=GPa)
#
#
# Indices 1 2 3 4 5 6 
#
# 1 62.2431 24.9193 52.8257 0.0000 0.0000 0.0000
# 2 24.9193 80.1911 55.0000 0.0000 0.0000 0.0000
# 3 52.8257 55.0000 160.2314 0.0000 0.0000 0.0000
# 4 0.0000 0.0000 0.0000 16.1505 0.0000 0.0000
# 5 0.0000 0.0000 0.0000 0.0000 33.2769 0.0000
# 6 0.0000 0.0000 0.0000 0.0000 0.0000 12.9211
#
#
#
# Elastic Compliance Matrix: (Units=1/GPa)
#
#
# Indices 1 2 3 4 5 6 
#
# 1 0.022688 -0.002511 -0.006618 0.000000 0.000000 0.000000
# 2 -0.002511 0.016588 -0.004866 0.000000 0.000000 0.000000
# 3 -0.006618 -0.004866 0.010093 0.000000 0.000000 0.000000
# 4 0.000000 0.000000 0.000000 0.061918 0.000000 0.000000
# 5 0.000000 0.000000 0.000000 0.000000 0.030051 0.000000
# 6 0.000000 0.000000 0.000000 0.000000 0.000000 0.077393
#
#
# Mechanical properties :
#
#
# Convention : Reuss Voigt Hill
#
# Bulk Modulus (GPa) = 46.77538 63.12838 54.95188
# Shear Modulus (GPa) = 19.69692 23.79775 21.74733
#
# Velocity S-wave (km/s) = 3.21262 3.53124 3.37569
# Velocity P-wave (km/s) = 6.18634 7.05015 6.63232
#
# Compressibility (1/GPa) = 0.02137877
#
# Stress axis : x y z
#
# Youngs Moduli (GPa) = 44.07611 60.28469 99.07842
#
# Poissons Ratio (x) = 0.15140 0.65569
# Poissons Ratio (y) = 0.11069 0.48211
# Poissons Ratio (z) = 0.29169 0.29334
#
# Static dielectric constant tensor:
#      x y z
#    x 1.677180 0.000000 0.000000 
#    y 0.000000 1.698150 0.000000 
#    z 0.000000 0.000000 1.748710 
# 
# From -- ./inp_files/13076.got.cif
#   From: 2010.05.17/outbox.cif.g08.bks.cpg/sg21_7_cif.got.tgz:13076.got - 2010.06.03 23:14:55.
