data_PCOD9323425
_publ_section_title
;
Structure prediction by ZEFSAII (Michael W. Deem and Ramdas Pophale) SiO2 
 PCOD9323425
Probable space group: C 2 2 2
;
_chemical_formula_sum "Si O2"
_cell_formula_units_Z 52
_cell_length_a 16.058472
_cell_length_b 27.366501
_cell_length_c 5.162050
_cell_angle_alpha 90.000000
_cell_angle_beta 90.000000
_cell_angle_gamma 90.000000
_cell_volume 2268.536122
_symmetry_space_group_name_H-M "C 2 2 2"
_symmetry_group_IT_number 21
_symmetry_cell_setting 'orthorhombic'
loop_
_space_group_symop_operation_xyz
x,y,z
-x,-y,z
x,-y,-z
-x,y,-z
1/2+x,1/2+y,z
1/2-x,1/2-y,z
1/2+x,1/2-y,-z
1/2-x,1/2+y,-z
loop_
_atom_site_type_symbol
_atom_site_label
_atom_site_fract_x
_atom_site_fract_y
_atom_site_fract_z
Si Si1 0.321154 0.000000 0.500000
Si Si2 0.859847 0.600755 0.684548
Si Si3 0.097841 0.742053 0.815934
Si Si4 0.176811 0.106725 0.946679
Si Si5 0.123363 0.804326 0.323951
Si Si6 0.798198 0.000000 0.000000
Si Si7 0.767747 0.672175 0.352499
Si Si8 0.500000 0.843493 0.000000
O O1 0.375290 0.046991 0.574599
O O2 0.261041 0.008577 0.251903
O O3 0.769563 0.599598 0.824766
O O4 0.839297 0.635815 0.446121
O O5 0.929907 0.623585 0.865656
O O6 0.087389 0.780705 0.585110
O O7 0.186621 0.714509 0.801114
O O8 0.096692 0.770690 0.086185
O O9 0.035962 0.696454 0.799777
O O10 0.115366 0.139363 0.769678
O O11 0.199507 0.140478 0.195281
O O12 0.150442 0.050616 0.982418
O O13 0.221862 0.805214 0.397727
#
# Coordination Sequence:
#
# PCOD9323425 Si02
#       8
#     4   8   8   8   8   4   8   4
#     4  10  20  38  62  87 118 162 218 263 308 356
#     4  10  22  39  62  89 120 168 217 266 312 368
#     4  12  26  39  58  86 119 168 213 262 310 368
#     4  10  20  39  62  94 122 159 201 257 321 388
#     4  11  25  38  62  89 120 155 209 259 321 381
#     4  10  20  36  64  95 126 159 190 256 332 386
#     4  11  21  37  62  90 118 158 201 264 314 380
#     4  12  26  44  60  87 130 177 230 268 312 360
#
# _framework density 22.922270000000001
#
# number of rings (size 3 to 8) (size 9 to 14) (size 15 to 20)
#    0.000    1.231    4.615    1.385    4.308    2.462 
#    0.000    0.000    0.000   34.154    0.000    0.000 
#    0.000    0.615    5.231    0.000    0.000    0.000 
#
# Total GULP energy -145109.644679 kJ/mol
# GULP energy per Si atom -5581.140180 kJ/mol
# Density = 2.287010 g / cm^3
# Si number density = 22.922270 Si / 1000 Ang^3
#
#
#
# Elastic Constant Matrix: (Units=GPa)
#
#
# Indices 1 2 3 4 5 6 
#
# 1 18.4952 40.0739 9.9848 0.0000 0.0000 0.0000
# 2 40.0739 163.7063 54.4484 0.0000 0.0000 0.0000
# 3 9.9848 54.4484 137.1285 0.0000 0.0000 0.0000
# 4 0.0000 0.0000 0.0000 40.4318 0.0000 0.0000
# 5 0.0000 0.0000 0.0000 0.0000 26.9047 0.0000
# 6 0.0000 0.0000 0.0000 0.0000 0.0000 17.0671
#
#
#
# Elastic Compliance Matrix: (Units=1/GPa)
#
#
# Indices 1 2 3 4 5 6 
#
# 1 0.116394 -0.029580 0.003270 0.000000 0.000000 0.000000
# 2 -0.029580 0.014555 -0.003626 0.000000 0.000000 0.000000
# 3 0.003270 -0.003626 0.008494 0.000000 0.000000 0.000000
# 4 0.000000 0.000000 0.000000 0.024733 0.000000 0.000000
# 5 0.000000 0.000000 0.000000 0.000000 0.037168 0.000000
# 6 0.000000 0.000000 0.000000 0.000000 0.000000 0.058592
#
#
# Mechanical properties :
#
#
# Convention : Reuss Voigt Hill
#
# Bulk Modulus (GPa) = 12.56722 58.70491 35.63607
# Shear Modulus (GPa) = 14.43706 31.20223 22.81965
#
# Velocity S-wave (km/s) = 2.51236 3.69347 3.15861
# Velocity P-wave (km/s) = 3.72966 6.62231 5.37426
#
# Compressibility (1/GPa) = 0.07957211
#
# Stress axis : x y z
#
# Youngs Moduli (GPa) = 8.59154 68.70394 117.73177
#
# Poissons Ratio (x) = 2.03224 -0.38498
# Poissons Ratio (y) = 0.25414 0.42684
# Poissons Ratio (z) = -0.02809 0.24909
#
# Static dielectric constant tensor:
#      x y z
#    x 1.916500 0.000000 0.000000 
#    y 0.000000 1.906790 0.000000 
#    z 0.000000 0.000000 1.942730 
# 
# From -- ./inp_files/5311.got.cif
#   From: 2010.05.17/outbox.cif.g08.bks.cpg/sg21_3_cif.got.tgz:5311.got - 2010.06.03 23:14:55.
