data_PCOD9324765
_publ_section_title
;
Structure prediction by ZEFSAII (Michael W. Deem and Ramdas Pophale) SiO2 
 PCOD9324765
Probable space group: C 2 2 2
;
_chemical_formula_sum "Si O2"
_cell_formula_units_Z 22
_cell_length_a 7.409684
_cell_length_b 22.338924
_cell_length_c 5.803762
_cell_angle_alpha 90.000000
_cell_angle_beta 90.000000
_cell_angle_gamma 90.000000
_cell_volume 960.664036
_symmetry_space_group_name_H-M "C 2 2 2"
_symmetry_group_IT_number 21
_symmetry_cell_setting 'orthorhombic'
loop_
_space_group_symop_operation_xyz
x,y,z
-x,-y,z
x,-y,-z
-x,y,-z
1/2+x,1/2+y,z
1/2-x,1/2-y,z
1/2+x,1/2-y,-z
1/2-x,1/2+y,-z
loop_
_atom_site_type_symbol
_atom_site_label
_atom_site_fract_x
_atom_site_fract_y
_atom_site_fract_z
Si Si1 0.000000 0.000000 0.000000
Si Si2 0.304208 0.438202 0.612736
Si Si3 0.500000 0.844060 0.500000
Si Si4 0.540493 0.732890 0.747258
O O1 0.863680 0.956386 0.866749
O O2 0.232545 0.500000 0.500000
O O3 0.500000 0.427410 0.500000
O O4 0.162692 0.385780 0.581090
O O5 0.442500 0.797519 0.703180
O O6 0.500000 0.701603 0.500000
O O7 0.750000 0.750000 0.747051
O O8 0.500000 0.707031 0.000000
#
# Coordination Sequence:
#
# PCOD9324765 Si02
#       4
#     2   8   4   8
#     4   8  18  36  62  90 132 170 198 264 306 382
#     4   9  19  38  60  90 129 161 207 252 319 372
#     4  10  23  38  62  94 124 168 215 260 318 384
#     4  10  23  43  65  91 126 167 216 268 326 378
#
# _framework density 22.900825000000001
#
# number of rings (size 3 to 8) (size 9 to 14) (size 15 to 20)
#    1.091    1.818    0.000    1.636    0.000    7.273 
#    3.273    7.273    0.000    0.000    0.000    0.000 
#    0.000    0.000    0.000    0.000    0.000    0.000 
#
# Total GULP energy -61253.058371 kJ/mol
# GULP energy per Si atom -5568.459852 kJ/mol
# Density = 2.284870 g / cm^3
# Si number density = 22.900825 Si / 1000 Ang^3
#
#
#
# Elastic Constant Matrix: (Units=GPa)
#
#
# Indices 1 2 3 4 5 6 
#
# 1 74.3697 9.5243 30.3659 0.0000 0.0000 0.0000
# 2 9.5243 125.3772 8.4834 0.0000 0.0000 0.0000
# 3 30.3659 8.4834 149.3559 0.0000 0.0000 0.0000
# 4 0.0000 0.0000 0.0000 27.5726 0.0000 0.0000
# 5 0.0000 0.0000 0.0000 0.0000 -29.2325 0.0000
# 6 0.0000 0.0000 0.0000 0.0000 0.0000 39.6527
#
#
#
# Elastic Compliance Matrix: (Units=1/GPa)
#
#
# Indices 1 2 3 4 5 6 
#
# 1 0.014769 -0.000922 -0.002950 0.000000 0.000000 0.000000
# 2 -0.000922 0.008064 -0.000271 0.000000 0.000000 0.000000
# 3 -0.002950 -0.000271 0.007311 0.000000 0.000000 0.000000
# 4 0.000000 0.000000 0.000000 0.036268 0.000000 0.000000
# 5 0.000000 0.000000 0.000000 0.000000 -0.034209 0.000000
# 6 0.000000 0.000000 0.000000 0.000000 0.000000 0.025219
#
#
# Mechanical properties :
#
#
# Convention : Reuss Voigt Hill
#
# Bulk Modulus (GPa) = 45.75059 49.53890 47.64475
# Shear Modulus (GPa) = 68.49808 27.64716 48.07262
#
# Velocity S-wave (km/s) = 5.47501 3.47833 4.58664
# Velocity P-wave (km/s) = 7.74523 6.14903 6.99283
#
# Compressibility (1/GPa) = 0.02185764
#
# Stress axis : x y z
#
# Youngs Moduli (GPa) = 67.70880 124.00332 136.78715
#
# Poissons Ratio (x) = 0.11437 0.40357
# Poissons Ratio (y) = 0.06245 0.03701
# Poissons Ratio (z) = 0.19977 0.03355
#
# Static dielectric constant tensor:
#      x y z
#    x 1.842570 0.000000 0.000000 
#    y 0.000000 1.879420 0.000000 
#    z 0.000000 0.000000 1.891790 
# 
# From -- ./inp_files/1246.got.cif
#   From: 2010.05.17/outbox.cif.g08.bks.cpg/sg21_1_cif.got.tgz:1246.got - 2010.06.03 23:14:55.
