data_PCOD9324302
_publ_section_title
;
Structure prediction by ZEFSAII (Michael W. Deem and Ramdas Pophale) SiO2 
 PCOD9324302
Probable space group: C 2 2 2
;
_chemical_formula_sum "Si O2"
_cell_formula_units_Z 44
_cell_length_a 15.244277
_cell_length_b 11.589867
_cell_length_c 13.725601
_cell_angle_alpha 90.000000
_cell_angle_beta 90.000000
_cell_angle_gamma 90.000000
_cell_volume 2425.027421
_symmetry_space_group_name_H-M "C 2 2 2"
_symmetry_group_IT_number 21
_symmetry_cell_setting 'orthorhombic'
loop_
_space_group_symop_operation_xyz
x,y,z
-x,-y,z
x,-y,-z
-x,y,-z
1/2+x,1/2+y,z
1/2-x,1/2-y,z
1/2+x,1/2-y,-z
1/2-x,1/2+y,-z
loop_
_atom_site_type_symbol
_atom_site_label
_atom_site_fract_x
_atom_site_fract_y
_atom_site_fract_z
Si Si1 0.738240 0.920924 0.814115
Si Si2 0.046201 0.793533 0.905874
Si Si3 0.391040 0.274840 0.762599
Si Si4 0.343029 0.500000 0.000000
Si Si5 0.332930 0.832089 0.753376
Si Si6 0.508415 0.137071 0.615270
O O1 0.661634 0.826400 0.818523
O O2 0.816574 0.870632 0.746336
O O3 0.700379 0.039307 0.773233
O O4 0.782393 0.940809 0.918766
O O5 0.112472 0.712117 0.847305
O O6 0.968631 0.823464 0.830209
O O7 0.000000 0.737713 0.000000
O O8 0.097457 0.904924 0.945962
O O9 0.435094 0.212847 0.670455
O O10 0.250000 0.750000 0.739879
O O11 0.398808 0.827368 0.662184
O O12 0.500000 0.152718 0.500000
O O13 0.500000 0.000000 0.636852
#
# Coordination Sequence:
#
# PCOD9324302 Si02
#       6
#     8   8   8   4   8   8
#     4  11  23  38  60  88 129 165 211 256 304 363
#     4  11  23  36  57  86 123 172 214 249 301 363
#     4  10  23  40  60  89 126 162 203 262 315 363
#     4  12  23  36  58  87 128 176 212 245 298 374
#     4  11  23  41  62  93 124 165 212 263 313 366
#     4  10  21  44  69  91 119 161 210 260 323 387
#
# _framework density 18.144124000000001
#
# number of rings (size 3 to 8) (size 9 to 14) (size 15 to 20)
#    0.000    1.273    5.455    0.273    2.545    0.000 
#    3.273    0.909    0.000    1.091    0.000    0.000 
#    0.000    0.000    0.000    0.000    0.000    0.000 
#
# Total GULP energy -122849.830542 kJ/mol
# GULP energy per Si atom -5584.083206 kJ/mol
# Density = 1.810283 g / cm^3
# Si number density = 18.144124 Si / 1000 Ang^3
#
#
#
# Elastic Constant Matrix: (Units=GPa)
#
#
# Indices 1 2 3 4 5 6 
#
# 1 132.7955 62.4334 60.3028 0.0000 0.0000 0.0000
# 2 62.4334 99.3336 43.0283 0.0000 0.0000 0.0000
# 3 60.3028 43.0283 108.6221 0.0000 0.0000 0.0000
# 4 0.0000 0.0000 0.0000 27.0963 0.0000 0.0000
# 5 0.0000 0.0000 0.0000 0.0000 14.5379 0.0000
# 6 0.0000 0.0000 0.0000 0.0000 0.0000 18.6707
#
#
#
# Elastic Compliance Matrix: (Units=1/GPa)
#
#
# Indices 1 2 3 4 5 6 
#
# 1 0.012306 -0.005764 -0.004548 0.000000 0.000000 0.000000
# 2 -0.005764 0.014852 -0.002683 0.000000 0.000000 0.000000
# 3 -0.004548 -0.002683 0.012794 0.000000 0.000000 0.000000
# 4 0.000000 0.000000 0.000000 0.036905 0.000000 0.000000
# 5 0.000000 0.000000 0.000000 0.000000 0.068786 0.000000
# 6 0.000000 0.000000 0.000000 0.000000 0.000000 0.053560
#
#
# Mechanical properties :
#
#
# Convention : Reuss Voigt Hill
#
# Bulk Modulus (GPa) = 71.63041 74.69780 73.16411
# Shear Modulus (GPa) = 21.75341 23.72676 22.74008
#
# Velocity S-wave (km/s) = 3.46630 3.62011 3.54404
# Velocity P-wave (km/s) = 7.45551 7.66369 7.56032
#
# Compressibility (1/GPa) = 0.01396055
#
# Stress axis : x y z
#
# Youngs Moduli (GPa) = 81.26206 67.32900 78.16022
#
# Poissons Ratio (x) = 0.38811 0.35550
# Poissons Ratio (y) = 0.46842 0.20973
# Poissons Ratio (z) = 0.36961 0.18067
#
# Static dielectric constant tensor:
#      x y z
#    x 1.637870 0.000000 0.000000 
#    y 0.000000 1.634590 0.000000 
#    z 0.000000 0.000000 1.596370 
# 
# From -- ./inp_files/31470.got.cif
#   From: 2010.05.17/outbox.cif.g08.bks.cpg/sg21_16_cif.got.tgz:31470.got - 2010.06.03 23:14:55.
