data_PCOD9324476
_publ_section_title
;
Structure prediction by ZEFSAII (Michael W. Deem and Ramdas Pophale) SiO2 
 PCOD9324476
Probable space group: C 2 2 2
;
_chemical_formula_sum "Si O2"
_cell_formula_units_Z 56
_cell_length_a 21.212213
_cell_length_b 14.975241
_cell_length_c 8.727374
_cell_angle_alpha 90.000000
_cell_angle_beta 90.000000
_cell_angle_gamma 90.000000
_cell_volume 2772.320186
_symmetry_space_group_name_H-M "C 2 2 2"
_symmetry_group_IT_number 21
_symmetry_cell_setting 'orthorhombic'
loop_
_space_group_symop_operation_xyz
x,y,z
-x,-y,z
x,-y,-z
-x,y,-z
1/2+x,1/2+y,z
1/2-x,1/2-y,z
1/2+x,1/2-y,-z
1/2-x,1/2+y,-z
loop_
_atom_site_type_symbol
_atom_site_label
_atom_site_fract_x
_atom_site_fract_y
_atom_site_fract_z
Si Si1 0.426213 0.203514 0.555054
Si Si2 0.737151 0.989323 0.738153
Si Si3 0.664396 0.500000 0.000000
Si Si4 0.714198 0.153646 0.520302
Si Si5 0.565635 0.827457 0.910112
Si Si6 0.430714 0.411678 0.577070
Si Si7 0.863579 0.500000 0.000000
Si Si8 0.069490 0.128596 0.931450
O O1 0.500000 0.196161 0.500000
O O2 0.363184 0.161617 0.475940
O O3 0.433114 0.162428 0.726238
O O4 0.408489 0.309659 0.550386
O O5 0.729975 0.901611 0.634302
O O6 0.794715 0.976489 0.853682
O O7 0.739158 0.082549 0.645983
O O8 0.677863 0.998774 0.848715
O O9 0.617636 0.579139 0.040146
O O10 0.750000 0.250000 0.526994
O O11 0.594307 0.729176 0.924139
O O12 0.500000 0.819610 0.000000
O O13 0.597863 0.909589 0.991536
O O14 0.398820 0.500000 0.500000
O O15 0.500000 0.410791 0.500000
O O16 0.432918 0.415377 0.762005
O O17 0.000000 0.124621 0.000000
#
# Coordination Sequence:
#
# PCOD9324476 Si02
#       8
#     8   8   4   8   8   8   4   8
#     4  10  22  43  68 101 134 173 221 278 343 400
#     4  10  26  46  64  98 127 172 239 276 323 414
#     4  11  25  42  68  94 131 183 222 280 334 411
#     4  11  25  48  71  93 136 182 219 282 339 404
#     4  10  22  40  64 101 133 173 213 273 338 408
#     4   9  20  36  59  97 136 173 208 265 329 405
#     4  11  21  44  70  90 133 167 228 274 334 389
#     4  10  23  41  63  99 137 172 219 275 341 405
#
# _framework density 20.199687000000001
#
# number of rings (size 3 to 8) (size 9 to 14) (size 15 to 20)
#    0.000    1.857    1.429    0.429   10.000    2.286 
#    5.143    4.286    0.000    0.000    0.000    0.000 
#    0.000    0.000    0.000    0.000    0.000    0.000 
#
# Total GULP energy -155890.170509 kJ/mol
# GULP energy per Si atom -5567.506090 kJ/mol
# Density = 2.015371 g / cm^3
# Si number density = 20.199687 Si / 1000 Ang^3
#
#
#
# Elastic Constant Matrix: (Units=GPa)
#
#
# Indices 1 2 3 4 5 6 
#
# 1 77.4027 36.4903 -0.5999 0.0000 0.0000 0.0000
# 2 36.4903 114.0107 27.5544 0.0000 0.0000 0.0000
# 3 -0.5999 27.5544 28.8047 0.0000 0.0000 0.0000
# 4 0.0000 0.0000 0.0000 16.9744 0.0000 0.0000
# 5 0.0000 0.0000 0.0000 0.0000 44.5222 0.0000
# 6 0.0000 0.0000 0.0000 0.0000 0.0000 37.9355
#
#
#
# Elastic Compliance Matrix: (Units=1/GPa)
#
#
# Indices 1 2 3 4 5 6 
#
# 1 0.016203 -0.006851 0.006892 0.000000 0.000000 0.000000
# 2 -0.006851 0.014306 -0.013828 0.000000 0.000000 0.000000
# 3 0.006892 -0.013828 0.048088 0.000000 0.000000 0.000000
# 4 0.000000 0.000000 0.000000 0.058912 0.000000 0.000000
# 5 0.000000 0.000000 0.000000 0.000000 0.022461 0.000000
# 6 0.000000 0.000000 0.000000 0.000000 0.000000 0.026361
#
#
# Mechanical properties :
#
#
# Convention : Reuss Voigt Hill
#
# Bulk Modulus (GPa) = 19.59967 38.56752 29.08360
# Shear Modulus (GPa) = 21.65327 30.33798 25.99563
#
# Velocity S-wave (km/s) = 3.27763 3.87964 3.59128
# Velocity P-wave (km/s) = 4.90386 6.26126 5.62367
#
# Compressibility (1/GPa) = 0.05102125
#
# Stress axis : x y z
#
# Youngs Moduli (GPa) = 61.71740 69.90122 20.79537
#
# Poissons Ratio (x) = 0.47893 -0.14331
# Poissons Ratio (y) = 0.42286 0.28755
# Poissons Ratio (z) = -0.42533 0.96657
#
# Static dielectric constant tensor:
#      x y z
#    x 1.731250 0.000000 0.000000 
#    y 0.000000 1.957640 0.000000 
#    z 0.000000 0.000000 1.717890 
# 
# From -- ./inp_files/17742.got.cif
#   From: 2010.05.17/outbox.cif.g08.bks.cpg/sg21_9_cif.got.tgz:17742.got - 2010.06.03 23:14:55.
