data_PCOD9324722
_publ_section_title
;
Structure prediction by ZEFSAII (Michael W. Deem and Ramdas Pophale) SiO2 
 PCOD9324722
Probable space group: C 2 2 2
;
_chemical_formula_sum "Si O2"
_cell_formula_units_Z 46
_cell_length_a 10.457441
_cell_length_b 23.645749
_cell_length_c 8.229322
_cell_angle_alpha 90.000000
_cell_angle_beta 90.000000
_cell_angle_gamma 90.000000
_cell_volume 2034.897575
_symmetry_space_group_name_H-M "C 2 2 2"
_symmetry_group_IT_number 21
_symmetry_cell_setting 'orthorhombic'
loop_
_space_group_symop_operation_xyz
x,y,z
-x,-y,z
x,-y,-z
-x,y,-z
1/2+x,1/2+y,z
1/2-x,1/2-y,z
1/2+x,1/2-y,-z
1/2-x,1/2+y,-z
loop_
_atom_site_type_symbol
_atom_site_label
_atom_site_fract_x
_atom_site_fract_y
_atom_site_fract_z
Si Si1 0.750000 0.750000 0.537405
Si Si2 0.772659 0.994496 0.327735
Si Si3 0.877836 0.102214 0.894508
Si Si4 0.438430 0.826069 0.320770
Si Si5 0.500000 0.500000 0.500000
Si Si6 0.871754 0.572970 0.902718
Si Si7 0.384961 0.271492 0.219151
O O1 0.698695 0.799526 0.646239
O O2 0.645227 0.725658 0.412844
O O3 0.898808 0.030724 0.382022
O O4 0.690724 0.019293 0.184288
O O5 0.698783 0.000000 0.500000
O O6 0.835077 0.936380 0.260727
O O7 0.913359 0.166229 0.843626
O O8 0.746360 0.101250 0.999400
O O9 0.000000 0.079805 0.000000
O O10 0.500000 0.832471 0.500000
O O11 0.422182 0.884574 0.234168
O O12 0.514815 0.779781 0.213111
O O13 0.000000 0.561184 0.000000
O O14 0.250000 0.250000 0.145797
#
# Coordination Sequence:
#
# PCOD9324722 Si02
#       7
#     4   8   8   8   2   8   8
#     4   8  20  38  70 100 144 184 252 306 342 450
#     4  10  25  48  77 106 139 197 262 312 358 454
#     4  12  27  46  74 111 151 195 240 320 384 438
#     4  10  22  45  71 104 146 192 248 300 361 448
#     4   8  20  48  78 106 128 180 262 322 344 426
#     4  12  28  47  75 109 154 200 241 311 386 450
#     4   9  21  41  67 103 142 186 239 302 358 443
#
# _framework density 22.605560000000001
#
# number of rings (size 3 to 8) (size 9 to 14) (size 15 to 20)
#    1.043    0.696    0.000    2.609    4.870    4.174 
#    4.696    0.870    0.000    0.000    0.000    0.000 
#    0.000    0.000    0.000    0.000    0.000    0.000 
#
# Total GULP energy -128127.323263 kJ/mol
# GULP energy per Si atom -5570.753185 kJ/mol
# Density = 2.255411 g / cm^3
# Si number density = 22.605560 Si / 1000 Ang^3
#
#
#
# Elastic Constant Matrix: (Units=GPa)
#
#
# Indices 1 2 3 4 5 6 
#
# 1 95.5800 12.3434 29.1350 0.0000 0.0000 0.0000
# 2 12.3434 95.3879 32.7809 0.0000 0.0000 0.0000
# 3 29.1350 32.7809 93.1490 0.0000 0.0000 0.0000
# 4 0.0000 0.0000 0.0000 37.9393 0.0000 0.0000
# 5 0.0000 0.0000 0.0000 0.0000 111.8401 0.0000
# 6 0.0000 0.0000 0.0000 0.0000 0.0000 -98.8359
#
#
#
# Elastic Compliance Matrix: (Units=1/GPa)
#
#
# Indices 1 2 3 4 5 6 
#
# 1 0.011572 -0.000288 -0.003518 0.000000 0.000000 0.000000
# 2 -0.000288 0.011933 -0.004109 0.000000 0.000000 0.000000
# 3 -0.003518 -0.004109 0.013282 0.000000 0.000000 0.000000
# 4 0.000000 0.000000 0.000000 0.026358 0.000000 0.000000
# 5 0.000000 0.000000 0.000000 0.000000 0.008941 0.000000
# 6 0.000000 0.000000 0.000000 0.000000 0.000000 -0.010118
#
#
# Mechanical properties :
#
#
# Convention : Reuss Voigt Hill
#
# Bulk Modulus (GPa) = 47.71975 48.07061 47.89518
# Shear Modulus (GPa) = 58.97267 24.17921 41.57594
#
# Velocity S-wave (km/s) = 5.11315 3.27404 4.29323
# Velocity P-wave (km/s) = 7.48429 5.96687 6.76824
#
# Compressibility (1/GPa) = 0.02095568
#
# Stress axis : x y z
#
# Youngs Moduli (GPa) = 86.41507 83.80114 75.29013
#
# Poissons Ratio (x) = 0.02417 0.26487
# Poissons Ratio (y) = 0.02493 0.30938
# Poissons Ratio (z) = 0.30401 0.34436
#
# Static dielectric constant tensor:
#      x y z
#    x 1.863870 0.000000 0.000000 
#    y 0.000000 1.635090 0.000000 
#    z 0.000000 0.000000 1.933190 
# 
# From -- ./inp_files/13366.got.cif
#   From: 2010.05.17/outbox.cif.g08.bks.cpg/sg21_7_cif.got.tgz:13366.got - 2010.06.03 23:14:55.
