data_PCOD9324754
_publ_section_title
;
Structure prediction by ZEFSAII (Michael W. Deem and Ramdas Pophale) SiO2 
 PCOD9324754
Probable space group: C 2 2 2
;
_chemical_formula_sum "Si O2"
_cell_formula_units_Z 24
_cell_length_a 7.699611
_cell_length_b 24.193931
_cell_length_c 5.341768
_cell_angle_alpha 90.000000
_cell_angle_beta 90.000000
_cell_angle_gamma 90.000000
_cell_volume 995.085148
_symmetry_space_group_name_H-M "C 2 2 2"
_symmetry_group_IT_number 21
_symmetry_cell_setting 'orthorhombic'
loop_
_space_group_symop_operation_xyz
x,y,z
-x,-y,z
x,-y,-z
-x,y,-z
1/2+x,1/2+y,z
1/2-x,1/2-y,z
1/2+x,1/2-y,-z
1/2-x,1/2+y,-z
loop_
_atom_site_type_symbol
_atom_site_label
_atom_site_fract_x
_atom_site_fract_y
_atom_site_fract_z
Si Si1 0.500000 0.801918 0.000000
Si Si2 0.805079 0.975934 0.255686
Si Si3 0.657261 0.347482 0.797132
Si Si4 0.750000 0.250000 0.405157
O O1 0.161627 0.660876 0.935208
O O2 0.588004 0.767011 0.774305
O O3 0.714232 0.000000 0.500000
O O4 0.836275 0.910671 0.286583
O O5 0.000000 0.000000 0.251531
O O6 0.724835 0.000000 0.000000
O O7 0.686614 0.301909 0.575689
O O8 0.500000 0.340857 0.000000
#
# Coordination Sequence:
#
# PCOD9324754 Si02
#       4
#     4   8   8   4
#     4  12  32  52  81 128 163 228 280 348 432 506
#     4  10  22  48  81 120 156 219 279 339 425 499
#     4  12  29  54  90 118 172 222 282 358 421 513
#     4  12  32  58  78 128 178 222 290 348 434 516
#
# _framework density 24.118538999999998
#
# number of rings (size 3 to 8) (size 9 to 14) (size 15 to 20)
#    0.000    0.667    3.333    2.000   18.667    0.000 
#    0.000    0.833    0.000    0.000    0.000    0.000 
#    0.000    0.000    0.000    0.000    0.000    0.000 
#
# Total GULP energy -67001.941074 kJ/mol
# GULP energy per Si atom -5583.495090 kJ/mol
# Density = 2.406364 g / cm^3
# Si number density = 24.118539 Si / 1000 Ang^3
#
#
#
# Elastic Constant Matrix: (Units=GPa)
#
#
# Indices 1 2 3 4 5 6 
#
# 1 176.3070 58.2057 59.2075 0.0000 0.0000 0.0000
# 2 58.2057 267.6469 104.0700 0.0000 0.0000 0.0000
# 3 59.2075 104.0700 206.2678 0.0000 0.0000 0.0000
# 4 0.0000 0.0000 0.0000 63.5111 0.0000 0.0000
# 5 0.0000 0.0000 0.0000 0.0000 36.2870 0.0000
# 6 0.0000 0.0000 0.0000 0.0000 0.0000 24.3740
#
#
#
# Elastic Compliance Matrix: (Units=1/GPa)
#
#
# Indices 1 2 3 4 5 6 
#
# 1 0.006428 -0.000846 -0.001418 0.000000 0.000000 0.000000
# 2 -0.000846 0.004760 -0.002158 0.000000 0.000000 0.000000
# 3 -0.001418 -0.002158 0.006344 0.000000 0.000000 0.000000
# 4 0.000000 0.000000 0.000000 0.015745 0.000000 0.000000
# 5 0.000000 0.000000 0.000000 0.000000 0.027558 0.000000
# 6 0.000000 0.000000 0.000000 0.000000 0.000000 0.041027
#
#
# Mechanical properties :
#
#
# Convention : Reuss Voigt Hill
#
# Bulk Modulus (GPa) = 115.13290 121.46534 118.29912
# Shear Modulus (GPa) = 44.01301 53.41699 48.71500
#
# Velocity S-wave (km/s) = 4.27647 4.71124 4.49911
# Velocity P-wave (km/s) = 8.49848 8.94793 8.72610
#
# Compressibility (1/GPa) = 0.00868561
#
# Stress axis : x y z
#
# Youngs Moduli (GPa) = 155.58057 210.10058 157.62747
#
# Poissons Ratio (x) = 0.17785 0.22350
# Poissons Ratio (y) = 0.13170 0.34023
# Poissons Ratio (z) = 0.22060 0.45349
#
# Static dielectric constant tensor:
#      x y z
#    x 1.884430 0.000000 0.000000 
#    y 0.000000 1.921130 0.000000 
#    z 0.000000 0.000000 1.770890 
# 
# From -- ./inp_files/1272.got.cif
#   From: 2010.05.17/outbox.cif.g08.bks.cpg/sg21_1_cif.got.tgz:1272.got - 2010.06.03 23:14:55.
