data_PCOD9324653
_publ_section_title
;
Structure prediction by ZEFSAII (Michael W. Deem and Ramdas Pophale) SiO2 
 PCOD9324653
Probable space group: C 2 2 2
;
_chemical_formula_sum "Si O2"
_cell_formula_units_Z 54
_cell_length_a 12.767298
_cell_length_b 13.661304
_cell_length_c 15.723958
_cell_angle_alpha 90.000000
_cell_angle_beta 90.000000
_cell_angle_gamma 90.000000
_cell_volume 2742.540351
_symmetry_space_group_name_H-M "C 2 2 2"
_symmetry_group_IT_number 21
_symmetry_cell_setting 'orthorhombic'
loop_
_space_group_symop_operation_xyz
x,y,z
-x,-y,z
x,-y,-z
-x,y,-z
1/2+x,1/2+y,z
1/2-x,1/2-y,z
1/2+x,1/2-y,-z
1/2-x,1/2+y,-z
loop_
_atom_site_type_symbol
_atom_site_label
_atom_site_fract_x
_atom_site_fract_y
_atom_site_fract_z
Si Si1 0.970717 0.810340 0.902643
Si Si2 0.000000 0.000000 0.500000
Si Si3 0.941495 0.727802 0.344080
Si Si4 0.714904 0.395890 0.215953
Si Si5 0.750000 0.750000 0.457242
Si Si6 0.036676 0.611007 0.188415
Si Si7 0.871604 0.843069 0.599184
Si Si8 0.408633 0.578601 0.763206
O O1 0.860588 0.849661 0.858713
O O2 0.981403 0.694968 0.882356
O O3 0.057226 0.869297 0.849563
O O4 0.000000 0.828921 0.000000
O O5 0.066376 0.064521 0.564761
O O6 0.842130 0.704031 0.400997
O O7 0.909136 0.833357 0.303223
O O8 0.973924 0.651851 0.271039
O O9 0.046063 0.753533 0.396509
O O10 0.838075 0.382904 0.203894
O O11 0.676832 0.352327 0.306786
O O12 0.692042 0.511883 0.224073
O O13 0.791287 0.828987 0.523471
O O14 0.000000 0.500000 0.169399
O O15 0.500000 0.500000 0.743872
#
# Coordination Sequence:
#
# PCOD9324653 Si02
#       8
#     8   2   8   8   4   8   8   8
#     4  10  22  43  69 101 133 162 218 278 329 398
#     4  12  24  36  64 100 130 164 228 304 308 380
#     4  11  22  42  60  93 139 173 225 283 328 384
#     4  11  22  41  73  96 129 179 219 266 342 398
#     4  12  26  34  62  94 134 180 222 276 336 368
#     4  11  25  43  67  95 135 182 220 265 328 408
#     4  12  22  39  63  97 130 172 228 277 331 387
#     4   9  18  37  68  98 123 163 217 278 325 389
#
# _framework density 19.689775000000001
#
# number of rings (size 3 to 8) (size 9 to 14) (size 15 to 20)
#    0.000    1.185    5.926    2.222    2.074    2.963 
#    0.000    4.444    0.000    0.889    0.000    0.000 
#    0.000    0.000    0.000    0.000    0.000    0.000 
#
# Total GULP energy -150576.474843 kJ/mol
# GULP energy per Si atom -5576.906476 kJ/mol
# Density = 1.964496 g / cm^3
# Si number density = 19.689775 Si / 1000 Ang^3
#
#
#
# Elastic Constant Matrix: (Units=GPa)
#
#
# Indices 1 2 3 4 5 6 
#
# 1 94.6350 20.3250 53.9304 0.0000 0.0000 0.0000
# 2 20.3250 93.2325 16.9090 0.0000 0.0000 0.0000
# 3 53.9304 16.9090 120.7403 0.0000 0.0000 0.0000
# 4 0.0000 0.0000 0.0000 10.0141 0.0000 0.0000
# 5 0.0000 0.0000 0.0000 0.0000 40.2846 0.0000
# 6 0.0000 0.0000 0.0000 0.0000 0.0000 33.4415
#
#
#
# Elastic Compliance Matrix: (Units=1/GPa)
#
#
# Indices 1 2 3 4 5 6 
#
# 1 0.014545 -0.002045 -0.006211 0.000000 0.000000 0.000000
# 2 -0.002045 0.011293 -0.000668 0.000000 0.000000 0.000000
# 3 -0.006211 -0.000668 0.011150 0.000000 0.000000 0.000000
# 4 0.000000 0.000000 0.000000 0.099859 0.000000 0.000000
# 5 0.000000 0.000000 0.000000 0.000000 0.024823 0.000000
# 6 0.000000 0.000000 0.000000 0.000000 0.000000 0.029903
#
#
# Mechanical properties :
#
#
# Convention : Reuss Voigt Hill
#
# Bulk Modulus (GPa) = 52.24327 54.54851 53.39589
# Shear Modulus (GPa) = 23.16954 31.24426 27.20690
#
# Velocity S-wave (km/s) = 3.43407 3.98782 3.72126
# Velocity P-wave (km/s) = 6.50497 6.99770 6.75582
#
# Compressibility (1/GPa) = 0.01914122
#
# Stress axis : x y z
#
# Youngs Moduli (GPa) = 68.75090 88.55203 89.68733
#
# Poissons Ratio (x) = 0.18105 0.55701
# Poissons Ratio (y) = 0.14057 0.05993
# Poissons Ratio (z) = 0.42698 0.05918
#
# Static dielectric constant tensor:
#      x y z
#    x 1.656620 0.000000 0.000000 
#    y 0.000000 1.667620 0.000000 
#    z 0.000000 0.000000 1.696920 
# 
# From -- ./inp_files/31633.got.cif
#   From: 2010.05.17/outbox.cif.g08.bks.cpg/sg21_16_cif.got.tgz:31633.got - 2010.06.03 23:14:55.
