data_PCOD9324345
_publ_section_title
;
Structure prediction by ZEFSAII (Michael W. Deem and Ramdas Pophale) SiO2 
 PCOD9324345
Probable space group: C 2 2 2
;
_chemical_formula_sum "Si O2"
_cell_formula_units_Z 58
_cell_length_a 13.857125
_cell_length_b 22.550805
_cell_length_c 8.778661
_cell_angle_alpha 90.000000
_cell_angle_beta 90.000000
_cell_angle_gamma 90.000000
_cell_volume 2743.237839
_symmetry_space_group_name_H-M "C 2 2 2"
_symmetry_group_IT_number 21
_symmetry_cell_setting 'orthorhombic'
loop_
_space_group_symop_operation_xyz
x,y,z
-x,-y,z
x,-y,-z
-x,y,-z
1/2+x,1/2+y,z
1/2-x,1/2-y,z
1/2+x,1/2-y,-z
1/2-x,1/2+y,-z
loop_
_atom_site_type_symbol
_atom_site_label
_atom_site_fract_x
_atom_site_fract_y
_atom_site_fract_z
Si Si1 0.327257 0.916642 0.020856
Si Si2 0.959834 0.246033 0.648073
Si Si3 0.891633 0.290180 0.938771
Si Si4 0.713027 0.581299 0.694786
Si Si5 0.340778 0.709603 0.188901
Si Si6 0.401222 0.614202 0.587640
Si Si7 0.500000 0.000000 0.000000
Si Si8 0.138809 0.032187 0.146005
O O1 0.335071 0.846821 0.996349
O O2 0.235580 0.940930 0.929574
O O3 0.311963 0.926799 0.204366
O O4 0.419101 0.950943 0.951132
O O5 0.895132 0.284489 0.758748
O O6 0.905444 0.185513 0.602280
O O7 0.000000 0.278440 0.500000
O O8 0.057813 0.227769 0.735669
O O9 0.854276 0.229487 0.013975
O O10 0.000000 0.299402 0.000000
O O11 0.672531 0.640870 0.775123
O O12 0.690545 0.594012 0.516300
O O13 0.658097 0.521121 0.736132
O O14 0.250000 0.750000 0.245891
O O15 0.500000 0.597568 0.500000
O O16 0.406062 0.584110 0.753067
O O17 0.093384 0.000000 0.000000
#
# Coordination Sequence:
#
# PCOD9324345 Si02
#       8
#     8   8   8   8   8   8   2   8
#     4  11  22  42  69 104 124 175 224 286 340 407
#     4  10  22  43  59  96 129 176 225 271 336 418
#     4  10  22  36  64  90 129 167 223 280 335 408
#     4  11  21  41  64  96 133 171 222 278 339 407
#     4  11  21  38  64  90 127 172 220 276 336 393
#     4  11  23  45  68  89 141 188 217 276 352 406
#     4  12  20  44  80  94 130 168 222 274 340 408
#     4  10  24  42  65  99 134 169 232 286 328 410
#
# _framework density 21.142899
#
# number of rings (size 3 to 8) (size 9 to 14) (size 15 to 20)
#    0.000    1.379    6.897    0.414    3.862    1.103 
#    2.483    5.517    0.000    0.828    0.000    0.000 
#    0.000    0.000    0.000    0.000    0.000    0.000 
#
# Total GULP energy -161443.935828 kJ/mol
# GULP energy per Si atom -5567.032270 kJ/mol
# Density = 2.109478 g / cm^3
# Si number density = 21.142899 Si / 1000 Ang^3
#
#
#
# Elastic Constant Matrix: (Units=GPa)
#
#
# Indices 1 2 3 4 5 6 
#
# 1 71.7657 6.9996 8.1359 0.0000 0.0000 0.0000
# 2 6.9996 58.9279 6.0286 0.0000 0.0000 0.0000
# 3 8.1359 6.0286 105.2968 0.0000 0.0000 0.0000
# 4 0.0000 0.0000 0.0000 31.6229 0.0000 0.0000
# 5 0.0000 0.0000 0.0000 0.0000 24.7635 0.0000
# 6 0.0000 0.0000 0.0000 0.0000 0.0000 23.4988
#
#
#
# Elastic Compliance Matrix: (Units=1/GPa)
#
#
# Indices 1 2 3 4 5 6 
#
# 1 0.014203 -0.001584 -0.001007 0.000000 0.000000 0.000000
# 2 -0.001584 0.017247 -0.000865 0.000000 0.000000 0.000000
# 3 -0.001007 -0.000865 0.009624 0.000000 0.000000 0.000000
# 4 0.000000 0.000000 0.000000 0.031623 0.000000 0.000000
# 5 0.000000 0.000000 0.000000 0.000000 0.040382 0.000000
# 6 0.000000 0.000000 0.000000 0.000000 0.000000 0.042555
#
#
# Mechanical properties :
#
#
# Convention : Reuss Voigt Hill
#
# Bulk Modulus (GPa) = 29.27224 30.92431 30.09828
# Shear Modulus (GPa) = 28.74676 30.29879 29.52277
#
# Velocity S-wave (km/s) = 3.69133 3.78967 3.74082
# Velocity P-wave (km/s) = 5.66065 5.81437 5.73802
#
# Compressibility (1/GPa) = 0.03416206
#
# Stress axis : x y z
#
# Youngs Moduli (GPa) = 70.40830 57.98267 103.90392
#
# Poissons Ratio (x) = 0.09185 0.10460
# Poissons Ratio (y) = 0.11153 0.08988
# Poissons Ratio (z) = 0.07088 0.05016
#
# Static dielectric constant tensor:
#      x y z
#    x 1.802230 0.000000 0.000000 
#    y 0.000000 1.762210 0.000000 
#    z 0.000000 0.000000 1.808440 
# 
# From -- ./inp_files/15422.got.cif
#   From: 2010.05.17/outbox.cif.g08.bks.cpg/sg21_8_cif.got.tgz:15422.got - 2010.06.03 23:14:55.
