data_PCOD9324766
_publ_section_title
;
Structure prediction by ZEFSAII (Michael W. Deem and Ramdas Pophale) SiO2 
 PCOD9324766
Probable space group: C 2 2 2
;
_chemical_formula_sum "Si O2"
_cell_formula_units_Z 46
_cell_length_a 23.674538
_cell_length_b 8.831501
_cell_length_c 10.994835
_cell_angle_alpha 90.000000
_cell_angle_beta 90.000000
_cell_angle_gamma 90.000000
_cell_volume 2298.818859
_symmetry_space_group_name_H-M "C 2 2 2"
_symmetry_group_IT_number 21
_symmetry_cell_setting 'orthorhombic'
loop_
_space_group_symop_operation_xyz
x,y,z
-x,-y,z
x,-y,-z
-x,y,-z
1/2+x,1/2+y,z
1/2-x,1/2-y,z
1/2+x,1/2-y,-z
1/2-x,1/2+y,-z
loop_
_atom_site_type_symbol
_atom_site_label
_atom_site_fract_x
_atom_site_fract_y
_atom_site_fract_z
Si Si1 0.101057 0.491041 0.357053
Si Si2 0.189304 0.763306 0.704719
Si Si3 0.588485 0.659238 0.671141
Si Si4 0.500000 0.500000 0.500000
Si Si5 0.000000 0.500000 0.805648
Si Si6 0.821618 0.000000 0.500000
Si Si7 0.397870 0.567260 0.881371
Si Si8 0.500000 0.756471 0.000000
O O1 0.088556 0.500000 0.500000
O O2 0.156893 0.389857 0.337061
O O3 0.101934 0.665024 0.314940
O O4 0.048096 0.427968 0.280137
O O5 0.250000 0.750000 0.767784
O O6 0.203921 0.871878 0.588465
O O7 0.143996 0.838465 0.795771
O O8 0.536252 0.611149 0.585638
O O9 0.640506 0.591785 0.595277
O O10 0.581292 0.569444 0.796156
O O11 0.977310 0.630194 0.895284
O O12 0.367366 0.500000 0.000000
O O13 0.450746 0.659961 0.936130
#
# Coordination Sequence:
#
# PCOD9324766 Si02
#       8
#     8   8   8   2   4   4   8   4
#     4  12  24  41  64 103 143 178 224 289 361 421
#     4  11  25  46  71 100 139 183 238 296 357 423
#     4  10  23  38  62  95 139 178 228 283 343 429
#     4  10  24  36  60  96 144 194 220 280 360 424
#     4  11  25  38  64 104 137 183 228 290 364 421
#     4   9  20  41  62  94 130 177 228 275 350 418
#     4  11  24  45  66  95 130 187 239 284 344 417
#     4  11  23  44  66  94 138 182 234 294 338 428
#
# _framework density 20.010273999999999
#
# number of rings (size 3 to 8) (size 9 to 14) (size 15 to 20)
#    0.000    1.217    3.478    1.565    8.522    0.000 
#    0.000    6.087    0.000    0.000    0.000    0.000 
#    0.000    0.000    0.000    0.000    0.000    0.000 
#
# Total GULP energy -128291.258169 kJ/mol
# GULP energy per Si atom -5577.880790 kJ/mol
# Density = 1.996473 g / cm^3
# Si number density = 20.010274 Si / 1000 Ang^3
#
#
#
# Elastic Constant Matrix: (Units=GPa)
#
#
# Indices 1 2 3 4 5 6 
#
# 1 92.4884 47.7870 38.5600 0.0000 0.0000 0.0000
# 2 47.7870 130.2246 56.3162 0.0000 0.0000 0.0000
# 3 38.5600 56.3162 137.2692 0.0000 0.0000 0.0000
# 4 0.0000 0.0000 0.0000 33.3751 0.0000 0.0000
# 5 0.0000 0.0000 0.0000 0.0000 14.3547 0.0000
# 6 0.0000 0.0000 0.0000 0.0000 0.0000 23.0072
#
#
#
# Elastic Compliance Matrix: (Units=1/GPa)
#
#
# Indices 1 2 3 4 5 6 
#
# 1 0.013866 -0.004138 -0.002197 0.000000 0.000000 0.000000
# 2 -0.004138 0.010570 -0.003174 0.000000 0.000000 0.000000
# 3 -0.002197 -0.003174 0.009204 0.000000 0.000000 0.000000
# 4 0.000000 0.000000 0.000000 0.029962 0.000000 0.000000
# 5 0.000000 0.000000 0.000000 0.000000 0.069664 0.000000
# 6 0.000000 0.000000 0.000000 0.000000 0.000000 0.043465
#
#
# Mechanical properties :
#
#
# Convention : Reuss Voigt Hill
#
# Bulk Modulus (GPa) = 68.39157 71.70099 70.04628
# Shear Modulus (GPa) = 24.92212 28.63534 26.77873
#
# Velocity S-wave (km/s) = 3.53294 3.78700 3.66218
# Velocity P-wave (km/s) = 7.13405 7.41834 7.27758
#
# Compressibility (1/GPa) = 0.01462169
#
# Stress axis : x y z
#
# Youngs Moduli (GPa) = 72.11673 94.60553 108.64288
#
# Poissons Ratio (x) = 0.39149 0.23874
# Poissons Ratio (y) = 0.29842 0.34485
# Poissons Ratio (z) = 0.15848 0.30029
#
# Static dielectric constant tensor:
#      x y z
#    x 1.711150 0.000000 0.000000 
#    y 0.000000 1.814010 0.000000 
#    z 0.000000 0.000000 1.710730 
# 
# From -- ./inp_files/27387.got.cif
#   From: 2010.05.17/outbox.cif.g08.bks.cpg/sg21_14_cif.got.tgz:27387.got - 2010.06.03 23:14:55.
