data_PCOD9324107
_publ_section_title
;
Structure prediction by ZEFSAII (Michael W. Deem and Ramdas Pophale) SiO2 
 PCOD9324107
Probable space group: C 2 2 2
;
_chemical_formula_sum "Si O2"
_cell_formula_units_Z 58
_cell_length_a 19.945218
_cell_length_b 5.242521
_cell_length_c 25.997636
_cell_angle_alpha 90.000000
_cell_angle_beta 90.000000
_cell_angle_gamma 90.000000
_cell_volume 2718.396642
_symmetry_space_group_name_H-M "C 2 2 2"
_symmetry_group_IT_number 21
_symmetry_cell_setting 'orthorhombic'
loop_
_space_group_symop_operation_xyz
x,y,z
-x,-y,z
x,-y,-z
-x,y,-z
1/2+x,1/2+y,z
1/2-x,1/2-y,z
1/2+x,1/2-y,-z
1/2-x,1/2+y,-z
loop_
_atom_site_type_symbol
_atom_site_label
_atom_site_fract_x
_atom_site_fract_y
_atom_site_fract_z
Si Si1 0.398781 0.852962 0.694471
Si Si2 0.000000 0.500000 0.500000
Si Si3 0.820496 0.901896 0.168134
Si Si4 0.796559 0.998033 0.944730
Si Si5 0.209498 0.998724 0.437717
Si Si6 0.564552 0.328570 0.587497
Si Si7 0.678164 0.353563 0.275824
Si Si8 0.039077 0.744031 0.798136
O O1 0.423442 0.849393 0.636424
O O2 0.342420 0.629194 0.701363
O O3 0.453830 0.768039 0.736215
O O4 0.373348 0.131974 0.709675
O O5 0.953017 0.329375 0.536368
O O6 0.750000 0.750000 0.170745
O O7 0.831665 0.003833 0.110557
O O8 0.885073 0.734524 0.181742
O O9 0.820124 0.107557 0.214017
O O10 0.750000 0.250000 0.944333
O O11 0.750000 0.750000 0.944992
O O12 0.834062 0.000000 0.000000
O O13 0.250000 0.750000 0.420561
O O14 0.208910 0.000000 0.500000
O O15 0.250000 0.250000 0.420633
O O16 0.132626 0.011785 0.420239
O O17 0.500000 0.500000 0.597922
O O18 0.750000 0.250000 0.292878
O O19 0.000000 0.500000 0.817024
O O20 0.000000 0.000000 0.812434
#
# Coordination Sequence:
#
# PCOD9324107 Si02
#       8
#     8   2   8   8   8   8   8   8
#     4  11  26  42  68  96 132 173 217 269 331 405
#     4  12  30  48  84 106 140 172 232 288 344 420
#     4  10  21  39  67 101 132 182 231 284 337 397
#     4   9  18  32  55  93 137 176 224 284 339 389
#     4  10  24  45  73 102 135 172 214 265 323 395
#     4  12  29  49  76 106 136 176 224 279 343 408
#     4  11  22  41  65 100 139 173 219 276 337 399
#     4  11  23  40  61  91 130 169 214 265 330 398
#
# _framework density 21.336106999999998
#
# number of rings (size 3 to 8) (size 9 to 14) (size 15 to 20)
#    0.000    1.379    0.000    5.586    7.724    6.069 
#    0.000    0.000    0.000    0.414    0.000    2.897 
#    0.000    0.000    0.000    0.000    0.000    0.000 
#
# Total GULP energy -162209.971727 kJ/mol
# GULP energy per Si atom -5593.447301 kJ/mol
# Density = 2.128755 g / cm^3
# Si number density = 21.336107 Si / 1000 Ang^3
#
#
#
# Elastic Constant Matrix: (Units=GPa)
#
#
# Indices 1 2 3 4 5 6 
#
# 1 142.3446 56.8239 28.7680 0.0000 0.0000 0.0000
# 2 56.8239 123.0600 31.9833 0.0000 0.0000 0.0000
# 3 28.7680 31.9833 162.0932 0.0000 0.0000 0.0000
# 4 0.0000 0.0000 0.0000 -2.3678 0.0000 0.0000
# 5 0.0000 0.0000 0.0000 0.0000 36.2672 0.0000
# 6 0.0000 0.0000 0.0000 0.0000 0.0000 32.0803
#
#
#
# Elastic Compliance Matrix: (Units=1/GPa)
#
#
# Indices 1 2 3 4 5 6 
#
# 1 0.008708 -0.003815 -0.000793 0.000000 0.000000 0.000000
# 2 -0.003815 0.010237 -0.001343 0.000000 0.000000 0.000000
# 3 -0.000793 -0.001343 0.006575 0.000000 0.000000 0.000000
# 4 0.000000 0.000000 0.000000 -0.422330 0.000000 0.000000
# 5 0.000000 0.000000 0.000000 0.000000 0.027573 0.000000
# 6 0.000000 0.000000 0.000000 0.000000 0.000000 0.031172
#
#
# Mechanical properties :
#
#
# Convention : Reuss Voigt Hill
#
# Bulk Modulus (GPa) = 73.42797 73.62758 73.52778
# Shear Modulus (GPa) = -15.54611 33.85744 9.15567
#
# Velocity S-wave (km/s) = -2.70224 3.98786 2.07376
# Velocity P-wave (km/s) = 4.97528 7.46910 6.34590
#
# Compressibility (1/GPa) = 0.01361879
#
# Stress axis : x y z
#
# Youngs Moduli (GPa) = 114.83131 97.68710 152.09274
#
# Poissons Ratio (x) = 0.37269 0.12058
# Poissons Ratio (y) = 0.43810 0.20422
# Poissons Ratio (z) = 0.09104 0.13117
#
# Static dielectric constant tensor:
#      x y z
#    x 1.766890 0.000000 0.000000 
#    y 0.000000 1.780160 0.000000 
#    z 0.000000 0.000000 1.808910 
# 
# From -- ./inp_files/39412.got.cif
#   From: 2010.05.17/outbox.cif.g08.bks.cpg/sg21_20_cif.got.tgz:39412.got - 2010.06.03 23:14:55.
