data_PCOD9324363
_publ_section_title
;
Structure prediction by ZEFSAII (Michael W. Deem and Ramdas Pophale) SiO2 
 PCOD9324363
Probable space group: C 2 2 2
;
_chemical_formula_sum "Si O2"
_cell_formula_units_Z 32
_cell_length_a 8.431170
_cell_length_b 14.000381
_cell_length_c 10.815933
_cell_angle_alpha 90.000000
_cell_angle_beta 90.000000
_cell_angle_gamma 90.000000
_cell_volume 1276.708321
_symmetry_space_group_name_H-M "C 2 2 2"
_symmetry_group_IT_number 21
_symmetry_cell_setting 'orthorhombic'
loop_
_space_group_symop_operation_xyz
x,y,z
-x,-y,z
x,-y,-z
-x,y,-z
1/2+x,1/2+y,z
1/2-x,1/2-y,z
1/2+x,1/2-y,-z
1/2-x,1/2+y,-z
loop_
_atom_site_type_symbol
_atom_site_label
_atom_site_fract_x
_atom_site_fract_y
_atom_site_fract_z
Si Si1 0.813573 0.611851 0.519622
Si Si2 0.562396 0.149066 0.875919
Si Si3 0.266537 0.637285 0.202382
Si Si4 0.750000 0.750000 0.319680
Si Si5 0.698030 0.500000 0.000000
O O1 0.816497 0.500000 0.500000
O O2 0.726119 0.632525 0.649276
O O3 0.719843 0.662056 0.409093
O O4 0.000000 0.644639 0.500000
O O5 0.410707 0.095479 0.822034
O O6 0.611131 0.223214 0.772880
O O7 0.700349 0.078477 0.921203
O O8 0.500000 0.198106 0.000000
O O9 0.250000 0.750000 0.170669
O O10 0.370962 0.571779 0.108615
#
# Coordination Sequence:
#
# PCOD9324363 Si02
#       5
#     8   8   8   4   4
#     4  11  23  39  65  96 129 167 223 272 321 392
#     4  10  22  37  63  94 128 165 217 268 325 383
#     4  11  21  38  62  96 131 165 213 275 327 383
#     4  12  22  40  68  98 130 172 218 274 340 386
#     4  10  23  40  64  95 124 169 226 280 319 382
#
# _framework density 25.064457000000001
#
# number of rings (size 3 to 8) (size 9 to 14) (size 15 to 20)
#    0.000    1.250    3.750    4.875   10.500    0.000 
#    0.000    0.000    0.000   15.750    0.000    0.000 
#    0.000    0.000    0.000    0.000    0.000    0.000 
#
# Total GULP energy -89207.548936 kJ/mol
# GULP energy per Si atom -5575.471808 kJ/mol
# Density = 2.500741 g / cm^3
# Si number density = 25.064457 Si / 1000 Ang^3
#
#
#
# Elastic Constant Matrix: (Units=GPa)
#
#
# Indices 1 2 3 4 5 6 
#
# 1 32.8952 23.9839 21.8658 0.0000 0.0000 0.0000
# 2 23.9839 154.6729 81.8858 0.0000 0.0000 0.0000
# 3 21.8658 81.8858 233.3801 0.0000 0.0000 0.0000
# 4 0.0000 0.0000 0.0000 48.3755 0.0000 0.0000
# 5 0.0000 0.0000 0.0000 0.0000 196.5172 0.0000
# 6 0.0000 0.0000 0.0000 0.0000 0.0000 36.1207
#
#
#
# Elastic Compliance Matrix: (Units=1/GPa)
#
#
# Indices 1 2 3 4 5 6 
#
# 1 0.034802 -0.004508 -0.001679 0.000000 0.000000 0.000000
# 2 -0.004508 0.008524 -0.002568 0.000000 0.000000 0.000000
# 3 -0.001679 -0.002568 0.005343 0.000000 0.000000 0.000000
# 4 0.000000 0.000000 0.000000 0.020672 0.000000 0.000000
# 5 0.000000 0.000000 0.000000 0.000000 0.005089 0.000000
# 6 0.000000 0.000000 0.000000 0.000000 0.000000 0.027685
#
#
# Mechanical properties :
#
#
# Convention : Reuss Voigt Hill
#
# Bulk Modulus (GPa) = 32.09325 75.15768 53.62546
# Shear Modulus (GPa) = 38.45818 75.75019 57.10418
#
# Velocity S-wave (km/s) = 3.92135 5.50343 4.77833
# Velocity P-wave (km/s) = 5.77363 8.39253 7.20310
#
# Compressibility (1/GPa) = 0.03115920
#
# Stress axis : x y z
#
# Youngs Moduli (GPa) = 28.73389 117.31589 187.14762
#
# Poissons Ratio (x) = 0.52881 0.31424
# Poissons Ratio (y) = 0.12952 0.48069
# Poissons Ratio (z) = 0.04825 0.30132
#
# Static dielectric constant tensor:
#      x y z
#    x 2.219860 0.000000 0.000000 
#    y 0.000000 1.989790 0.000000 
#    z 0.000000 0.000000 2.019330 
# 
# From -- ./inp_files/23456.got.cif
#   From: 2010.05.17/outbox.cif.g08.bks.cpg/sg21_12_cif.got.tgz:23456.got - 2010.06.03 23:14:55.
