data_PCOD9324368
_publ_section_title
;
Structure prediction by ZEFSAII (Michael W. Deem and Ramdas Pophale) SiO2 
 PCOD9324368
Probable space group: C 2 2 2
;
_chemical_formula_sum "Si O2"
_cell_formula_units_Z 30
_cell_length_a 15.983831
_cell_length_b 13.796663
_cell_length_c 5.888215
_cell_angle_alpha 90.000000
_cell_angle_beta 90.000000
_cell_angle_gamma 90.000000
_cell_volume 1298.489956
_symmetry_space_group_name_H-M "C 2 2 2"
_symmetry_group_IT_number 21
_symmetry_cell_setting 'orthorhombic'
loop_
_space_group_symop_operation_xyz
x,y,z
-x,-y,z
x,-y,-z
-x,y,-z
1/2+x,1/2+y,z
1/2-x,1/2-y,z
1/2+x,1/2-y,-z
1/2-x,1/2+y,-z
loop_
_atom_site_type_symbol
_atom_site_label
_atom_site_fract_x
_atom_site_fract_y
_atom_site_fract_z
Si Si1 0.028905 0.114133 0.754484
Si Si2 0.302270 0.389587 0.555762
Si Si3 0.500000 0.000000 0.000000
Si Si4 0.750000 0.750000 0.183187
Si Si5 0.660341 0.902724 0.879914
O O1 0.128562 0.132724 0.743974
O O2 0.000000 0.148896 0.500000
O O3 0.000000 0.000000 0.756997
O O4 0.000000 0.153916 0.000000
O O5 0.320834 0.500000 0.500000
O O6 0.304660 0.320883 0.340876
O O7 0.208097 0.384745 0.647626
O O8 0.436727 0.930979 0.138546
O O9 0.686874 0.815122 0.038748
O O10 0.697476 0.000000 0.000000
#
# Coordination Sequence:
#
# PCOD9324368 Si02
#       5
#     8   8   2   4   8
#     4  10  22  37  68 105 146 193 244 301 392 474
#     4  12  23  44  73 104 149 203 254 327 400 481
#     4   8  20  48  82 104 144 214 256 336 398 460
#     4  12  26  44  74 114 140 208 264 326 408 486
#     4  10  23  45  79 101 153 197 271 331 403 475
#
# _framework density 23.103757999999999
#
# number of rings (size 3 to 8) (size 9 to 14) (size 15 to 20)
#    0.800    0.533    5.333    0.800    7.467    0.000 
#    0.000   11.333    2.933    0.000    0.000    0.000 
#    0.000    0.000    0.000    0.000    0.000    0.000 
#
# Total GULP energy -83694.380690 kJ/mol
# GULP energy per Si atom -5579.625379 kJ/mol
# Density = 2.305117 g / cm^3
# Si number density = 23.103758 Si / 1000 Ang^3
#
#
#
# Elastic Constant Matrix: (Units=GPa)
#
#
# Indices 1 2 3 4 5 6 
#
# 1 153.0858 25.5122 43.9917 0.0000 0.0000 0.0000
# 2 25.5122 120.8324 45.1398 0.0000 0.0000 0.0000
# 3 43.9917 45.1398 124.1282 0.0000 0.0000 0.0000
# 4 0.0000 0.0000 0.0000 14.6756 0.0000 0.0000
# 5 0.0000 0.0000 0.0000 0.0000 49.3387 0.0000
# 6 0.0000 0.0000 0.0000 0.0000 0.0000 17.6087
#
#
#
# Elastic Compliance Matrix: (Units=1/GPa)
#
#
# Indices 1 2 3 4 5 6 
#
# 1 0.007319 -0.000667 -0.002351 0.000000 0.000000 0.000000
# 2 -0.000667 0.009638 -0.003268 0.000000 0.000000 0.000000
# 3 -0.002351 -0.003268 0.010078 0.000000 0.000000 0.000000
# 4 0.000000 0.000000 0.000000 0.068140 0.000000 0.000000
# 5 0.000000 0.000000 0.000000 0.000000 0.020268 0.000000
# 6 0.000000 0.000000 0.000000 0.000000 0.000000 0.056790
#
#
# Mechanical properties :
#
#
# Convention : Reuss Voigt Hill
#
# Bulk Modulus (GPa) = 69.14937 69.70376 69.42656
# Shear Modulus (GPa) = 26.36747 35.21811 30.79279
#
# Velocity S-wave (km/s) = 3.38192 3.90852 3.65472
# Velocity P-wave (km/s) = 6.72642 7.11366 6.92275
#
# Compressibility (1/GPa) = 0.01446145
#
# Stress axis : x y z
#
# Youngs Moduli (GPa) = 136.62798 103.75877 99.22474
#
# Poissons Ratio (x) = 0.06920 0.23332
# Poissons Ratio (y) = 0.09112 0.32431
# Poissons Ratio (z) = 0.32127 0.33913
#
# Static dielectric constant tensor:
#      x y z
#    x 1.916060 0.000000 0.000000 
#    y 0.000000 1.847250 0.000000 
#    z 0.000000 0.000000 1.858300 
# 
# From -- ./inp_files/4617.got.cif
#   From: 2010.05.17/outbox.cif.g08.bks.cpg/sg21_3_cif.got.tgz:4617.got - 2010.06.03 23:14:55.
