data_PCOD9324673
_publ_section_title
;
Structure prediction by ZEFSAII (Michael W. Deem and Ramdas Pophale) SiO2 
 PCOD9324673
Probable space group: C 2 2 2
;
_chemical_formula_sum "Si O2"
_cell_formula_units_Z 30
_cell_length_a 5.709986
_cell_length_b 17.924713
_cell_length_c 13.863562
_cell_angle_alpha 90.000000
_cell_angle_beta 90.000000
_cell_angle_gamma 90.000000
_cell_volume 1418.933634
_symmetry_space_group_name_H-M "C 2 2 2"
_symmetry_group_IT_number 21
_symmetry_cell_setting 'orthorhombic'
loop_
_space_group_symop_operation_xyz
x,y,z
-x,-y,z
x,-y,-z
-x,y,-z
1/2+x,1/2+y,z
1/2-x,1/2-y,z
1/2+x,1/2-y,-z
1/2-x,1/2+y,-z
loop_
_atom_site_type_symbol
_atom_site_label
_atom_site_fract_x
_atom_site_fract_y
_atom_site_fract_z
Si Si1 0.500000 0.705598 0.500000
Si Si2 0.677261 0.401425 0.166783
Si Si3 0.750000 0.750000 0.938997
Si Si4 0.500000 0.500000 0.000000
Si Si5 0.399394 0.417332 0.347278
Si Si6 0.000000 0.500000 0.694794
O O1 0.250000 0.750000 0.501317
O O2 0.501055 0.649599 0.408739
O O3 0.759425 0.321513 0.131025
O O4 0.645628 0.447776 0.069872
O O5 0.444142 0.398970 0.234025
O O6 0.840506 0.450177 0.235544
O O7 0.500000 0.746396 0.000000
O O8 0.500000 0.500000 0.369843
O O9 0.129703 0.436256 0.365663
#
# Coordination Sequence:
#
# PCOD9324673 Si02
#       6
#     4   8   4   2   8   4
#     4  12  31  50  77 116 152 196 246 312 383 452
#     4  11  25  43  69 103 144 194 246 308 362 438
#     4  12  30  44  62 102 146 196 238 300 376 436
#     4  12  20  46  64 106 146 186 270 288 358 426
#     4  10  24  49  73 109 140 197 247 308 371 448
#     4  10  22  43  81 100 138 194 254 306 372 426
#
# _framework density 21.142638999999999
#
# number of rings (size 3 to 8) (size 9 to 14) (size 15 to 20)
#    0.000    1.067    5.333    0.400   16.800    0.000 
#    0.000    0.000    0.000    0.000    0.000    0.000 
#    0.000    0.000    0.000    0.000    0.000    0.000 
#
# Total GULP energy -83529.175773 kJ/mol
# GULP energy per Si atom -5568.611718 kJ/mol
# Density = 2.109452 g / cm^3
# Si number density = 21.142639 Si / 1000 Ang^3
#
#
#
# Elastic Constant Matrix: (Units=GPa)
#
#
# Indices 1 2 3 4 5 6 
#
# 1 86.9337 38.8688 17.0292 0.0000 0.0000 0.0000
# 2 38.8688 155.0102 38.6552 0.0000 0.0000 0.0000
# 3 17.0292 38.6552 68.5579 0.0000 0.0000 0.0000
# 4 0.0000 0.0000 0.0000 -16.7741 0.0000 0.0000
# 5 0.0000 0.0000 0.0000 0.0000 16.3522 0.0000
# 6 0.0000 0.0000 0.0000 0.0000 0.0000 33.0584
#
#
#
# Elastic Compliance Matrix: (Units=1/GPa)
#
#
# Indices 1 2 3 4 5 6 
#
# 1 0.013111 -0.002880 -0.001633 0.000000 0.000000 0.000000
# 2 -0.002880 0.008139 -0.003874 0.000000 0.000000 0.000000
# 3 -0.001633 -0.003874 0.017176 0.000000 0.000000 0.000000
# 4 0.000000 0.000000 0.000000 -0.059616 0.000000 0.000000
# 5 0.000000 0.000000 0.000000 0.000000 0.061154 0.000000
# 6 0.000000 0.000000 0.000000 0.000000 0.000000 0.030250
#
#
# Mechanical properties :
#
#
# Convention : Reuss Voigt Hill
#
# Bulk Modulus (GPa) = 46.18395 55.51203 50.84799
# Shear Modulus (GPa) = 53.07598 20.92387 36.99993
#
# Velocity S-wave (km/s) = 5.01580 3.14929 4.18786
# Velocity P-wave (km/s) = 7.44552 6.28784 6.89104
#
# Compressibility (1/GPa) = 0.02165254
#
# Stress axis : x y z
#
# Youngs Moduli (GPa) = 76.27378 122.85805 58.22111
#
# Poissons Ratio (x) = 0.35388 0.09505
# Poissons Ratio (y) = 0.21970 0.22554
# Poissons Ratio (z) = 0.12452 0.47593
#
# Static dielectric constant tensor:
#      x y z
#    x 2.161250 0.000000 0.000000 
#    y 0.000000 1.975720 0.000000 
#    z 0.000000 0.000000 1.756080 
# 
# From -- ./inp_files/28676.got.cif
#   From: 2010.05.17/outbox.cif.g08.bks.cpg/sg21_15_cif.got.tgz:28676.got - 2010.06.03 23:14:55.
