data_PCOD9324755
_publ_section_title
;
Structure prediction by ZEFSAII (Michael W. Deem and Ramdas Pophale) SiO2 
 PCOD9324755
Probable space group: C 2 2 2
;
_chemical_formula_sum "Si O2"
_cell_formula_units_Z 34
_cell_length_a 20.971087
_cell_length_b 11.861000
_cell_length_c 5.866473
_cell_angle_alpha 90.000000
_cell_angle_beta 90.000000
_cell_angle_gamma 90.000000
_cell_volume 1459.215130
_symmetry_space_group_name_H-M "C 2 2 2"
_symmetry_group_IT_number 21
_symmetry_cell_setting 'orthorhombic'
loop_
_space_group_symop_operation_xyz
x,y,z
-x,-y,z
x,-y,-z
-x,y,-z
1/2+x,1/2+y,z
1/2-x,1/2-y,z
1/2+x,1/2-y,-z
1/2-x,1/2+y,-z
loop_
_atom_site_type_symbol
_atom_site_label
_atom_site_fract_x
_atom_site_fract_y
_atom_site_fract_z
Si Si1 0.400087 0.109640 0.645580
Si Si2 0.500000 0.721034 0.500000
Si Si3 0.500000 0.000000 0.000000
Si Si4 0.924273 0.887678 0.142282
Si Si5 0.815120 0.208276 0.166398
Si Si6 0.166337 0.000000 0.500000
O O1 0.439891 0.198221 0.499364
O O2 0.337158 0.178991 0.703115
O O3 0.385333 0.000000 0.500000
O O4 0.450895 0.072313 0.843102
O O5 0.510852 0.654090 0.264876
O O6 0.879481 0.921615 0.352701
O O7 0.877378 0.811081 0.990862
O O8 0.932933 0.000000 0.000000
O O9 0.750000 0.250000 0.046590
O O10 0.804406 0.093726 0.320128
#
# Coordination Sequence:
#
# PCOD9324755 Si02
#       6
#     8   4   2   8   8   4
#     4  12  25  44  70 107 143 191 238 302 365 436
#     4  12  21  49  72 104 148 187 239 308 378 434
#     4  12  22  44  72 102 150 176 250 302 368 440
#     4  10  24  47  70 108 143 187 243 302 367 435
#     4  11  26  47  73 106 146 197 243 301 364 438
#     4  10  22  49  70 104 138 183 250 292 354 432
#
# _framework density 23.300198000000002
#
# number of rings (size 3 to 8) (size 9 to 14) (size 15 to 20)
#    0.000    0.941    4.706    1.412    1.647    1.412 
#   10.588    0.000    0.000    0.000    0.000    0.000 
#    0.000    0.000    0.000    0.000    0.000    0.000 
#
# Total GULP energy -94781.765216 kJ/mol
# GULP energy per Si atom -5575.397954 kJ/mol
# Density = 2.324717 g / cm^3
# Si number density = 23.300198 Si / 1000 Ang^3
#
#
#
# Elastic Constant Matrix: (Units=GPa)
#
#
# Indices 1 2 3 4 5 6 
#
# 1 91.1408 33.0993 -4.2063 0.0000 0.0000 0.0000
# 2 33.0993 139.4013 38.2123 0.0000 0.0000 0.0000
# 3 -4.2063 38.2123 56.3832 0.0000 0.0000 0.0000
# 4 0.0000 0.0000 0.0000 36.1405 0.0000 0.0000
# 5 0.0000 0.0000 0.0000 0.0000 42.2869 0.0000
# 6 0.0000 0.0000 0.0000 0.0000 0.0000 12.4743
#
#
#
# Elastic Compliance Matrix: (Units=1/GPa)
#
#
# Indices 1 2 3 4 5 6 
#
# 1 0.012588 -0.003987 0.003641 0.000000 0.000000 0.000000
# 2 -0.003987 0.010073 -0.007124 0.000000 0.000000 0.000000
# 3 0.003641 -0.007124 0.022836 0.000000 0.000000 0.000000
# 4 0.000000 0.000000 0.000000 0.027670 0.000000 0.000000
# 5 0.000000 0.000000 0.000000 0.000000 0.023648 0.000000
# 6 0.000000 0.000000 0.000000 0.000000 0.000000 0.080165
#
#
# Mechanical properties :
#
#
# Convention : Reuss Voigt Hill
#
# Bulk Modulus (GPa) = 32.72601 46.79286 39.75944
# Shear Modulus (GPa) = 24.73963 32.83502 28.78732
#
# Velocity S-wave (km/s) = 3.26203 3.75803 3.51878
# Velocity P-wave (km/s) = 5.31636 6.24152 5.79742
#
# Compressibility (1/GPa) = 0.03055673
#
# Stress axis : x y z
#
# Youngs Moduli (GPa) = 79.44058 99.27461 43.79113
#
# Poissons Ratio (x) = 0.39581 -0.15945
# Poissons Ratio (y) = 0.31673 0.31198
# Poissons Ratio (z) = -0.28926 0.70725
#
# Static dielectric constant tensor:
#      x y z
#    x 1.947290 0.000000 0.000000 
#    y 0.000000 1.449380 0.000000 
#    z 0.000000 0.000000 0.593610 
# 
# From -- ./inp_files/2689.got.cif
#   From: 2010.05.17/outbox.cif.g08.bks.cpg/sg21_2_cif.got.tgz:2689.got - 2010.06.03 23:14:55.
