data_PCOD9324820
_publ_section_title
;
Structure prediction by ZEFSAII (Michael W. Deem and Ramdas Pophale) SiO2 
 PCOD9324820
Probable space group: C 2 2 2
;
_chemical_formula_sum "Si O2"
_cell_formula_units_Z 32
_cell_length_a 20.661578
_cell_length_b 8.125047
_cell_length_c 9.106388
_cell_angle_alpha 90.000000
_cell_angle_beta 90.000000
_cell_angle_gamma 90.000000
_cell_volume 1528.746654
_symmetry_space_group_name_H-M "C 2 2 2"
_symmetry_group_IT_number 21
_symmetry_cell_setting 'orthorhombic'
loop_
_space_group_symop_operation_xyz
x,y,z
-x,-y,z
x,-y,-z
-x,y,-z
1/2+x,1/2+y,z
1/2-x,1/2-y,z
1/2+x,1/2-y,-z
1/2-x,1/2+y,-z
loop_
_atom_site_type_symbol
_atom_site_label
_atom_site_fract_x
_atom_site_fract_y
_atom_site_fract_z
Si Si1 0.250000 0.750000 0.132870
Si Si2 0.733297 0.940529 0.338209
Si Si3 0.413006 0.922633 0.751352
Si Si4 0.500000 0.000000 0.500000
Si Si5 0.900418 0.741367 0.948334
Si Si6 0.500000 0.500000 0.000000
O O1 0.256350 0.580990 0.225688
O O2 0.178700 0.744431 0.057139
O O3 0.750000 0.750000 0.309696
O O4 0.656600 0.942940 0.321172
O O5 0.753793 0.000000 0.500000
O O6 0.458933 0.893951 0.614103
O O7 0.422634 0.091721 0.843605
O O8 0.415050 0.790560 0.880313
O O9 0.947907 0.890844 0.908837
#
# Coordination Sequence:
#
# PCOD9324820 Si02
#       6
#     4   8   8   2   8   2
#     4  10  24  44  70 100 144 190 244 296 372 436
#     4  11  22  40  67 102 137 183 232 302 357 427
#     4  10  23  42  66  93 135 185 236 282 361 433
#     4  12  20  38  72  90 128 182 232 280 356 438
#     4  10  24  44  66 100 139 184 236 305 356 443
#     4  12  24  38  68 102 140 172 236 302 368 410
#
# _framework density 20.932181
#
# number of rings (size 3 to 8) (size 9 to 14) (size 15 to 20)
#    0.000    1.500    2.500    1.500    5.250    4.000 
#    0.000    0.000    0.000    3.000    0.000    0.000 
#    0.000    0.000    0.000    0.000    0.000    0.000 
#
# Total GULP energy -89135.282224 kJ/mol
# GULP energy per Si atom -5570.955139 kJ/mol
# Density = 2.088454 g / cm^3
# Si number density = 20.932181 Si / 1000 Ang^3
#
#
#
# Elastic Constant Matrix: (Units=GPa)
#
#
# Indices 1 2 3 4 5 6 
#
# 1 101.6280 33.5289 64.2667 0.0000 0.0000 0.0000
# 2 33.5289 125.4269 38.2746 0.0000 0.0000 0.0000
# 3 64.2667 38.2746 129.2748 0.0000 0.0000 0.0000
# 4 0.0000 0.0000 0.0000 0.9770 0.0000 0.0000
# 5 0.0000 0.0000 0.0000 0.0000-1354.1138 0.0000
# 6 0.0000 0.0000 0.0000 0.0000 0.0000 35.9389
#
#
#
# Elastic Compliance Matrix: (Units=1/GPa)
#
#
# Indices 1 2 3 4 5 6 
#
# 1 0.014741 -0.001874 -0.006774 0.000000 0.000000 0.000000
# 2 -0.001874 0.009003 -0.001734 0.000000 0.000000 0.000000
# 3 -0.006774 -0.001734 0.011616 0.000000 0.000000 0.000000
# 4 0.000000 0.000000 0.000000 1.023520 0.000000 0.000000
# 5 0.000000 0.000000 0.000000 0.000000 -0.000738 0.000000
# 6 0.000000 0.000000 0.000000 0.000000 0.000000 0.027825
#
#
# Mechanical properties :
#
#
# Convention : Reuss Voigt Hill
#
# Bulk Modulus (GPa) = 68.50362 69.83001 69.16681
# Shear Modulus (GPa) = 4.49804 -248.75563 -122.12879
#
# Velocity S-wave (km/s) = 1.46749 -10.91315 -7.64668
# Velocity P-wave (km/s) = 5.97234 11.19657 6.69680
#
# Compressibility (1/GPa) = 0.01459777
#
# Stress axis : x y z
#
# Youngs Moduli (GPa) = 67.83585 111.07690 86.08589
#
# Poissons Ratio (x) = 0.20812 0.58312
# Poissons Ratio (y) = 0.12710 0.14928
# Poissons Ratio (z) = 0.45950 0.19261
#
# Static dielectric constant tensor:
#      x y z
#    x 1.806230 0.000000 0.000000 
#    y 0.000000 1.805760 0.000000 
#    z 0.000000 0.000000 1.758870 
# 
# From -- ./inp_files/18194.got.cif
#   From: 2010.05.17/outbox.cif.g08.bks.cpg/sg21_10_cif.got.tgz:18194.got - 2010.06.03 23:14:55.
