data_PCOD9324116
_publ_section_title
;
Structure prediction by ZEFSAII (Michael W. Deem and Ramdas Pophale) SiO2 
 PCOD9324116
Probable space group: C 2 2 2
;
_chemical_formula_sum "Si O2"
_cell_formula_units_Z 40
_cell_length_a 8.156718
_cell_length_b 24.841938
_cell_length_c 8.952016
_cell_angle_alpha 90.000000
_cell_angle_beta 90.000000
_cell_angle_gamma 90.000000
_cell_volume 1813.935211
_symmetry_space_group_name_H-M "C 2 2 2"
_symmetry_group_IT_number 21
_symmetry_cell_setting 'orthorhombic'
loop_
_space_group_symop_operation_xyz
x,y,z
-x,-y,z
x,-y,-z
-x,y,-z
1/2+x,1/2+y,z
1/2-x,1/2-y,z
1/2+x,1/2-y,-z
1/2-x,1/2+y,-z
loop_
_atom_site_type_symbol
_atom_site_label
_atom_site_fract_x
_atom_site_fract_y
_atom_site_fract_z
Si Si1 0.871843 0.794051 0.120434
Si Si2 0.300369 0.109719 0.667503
Si Si3 0.313634 0.885927 0.692298
Si Si4 0.800187 0.499641 0.827656
Si Si5 0.105922 0.789619 0.357996
O O1 0.750000 0.750000 0.051590
O O2 0.777939 0.839846 0.214126
O O3 0.982163 0.762585 0.242549
O O4 0.000000 0.815555 0.000000
O O5 0.489591 0.118502 0.714382
O O6 0.291640 0.113511 0.486984
O O7 0.186030 0.158393 0.718305
O O8 0.248449 0.052316 0.734841
O O9 0.253345 0.943735 0.751162
O O10 0.000000 0.500000 0.826615
O O11 0.746689 0.500000 0.000000
O O12 0.250000 0.750000 0.405103
O O13 0.000000 0.805796 0.500000
#
# Coordination Sequence:
#
# PCOD9324116 Si02
#       5
#     8   8   8   8   8
#     4  12  27  47  66  99 140 186 235 287 355 422
#     4  10  21  39  69 102 134 178 228 290 346 410
#     4  10  21  40  69  99 137 177 233 287 344 414
#     4   9  19  37  64 100 134 177 229 279 341 421
#     4  12  25  42  69  99 137 179 231 290 348 415
#
# _framework density 22.051504999999999
#
# number of rings (size 3 to 8) (size 9 to 14) (size 15 to 20)
#    0.000    1.400    2.000    3.000    5.600    2.400 
#    3.600    1.000    0.000    0.000    0.000    0.000 
#    0.000    0.000    0.000    0.000    0.000    0.000 
#
# Total GULP energy -111774.096070 kJ/mol
# GULP energy per Si atom -5588.704804 kJ/mol
# Density = 2.200131 g / cm^3
# Si number density = 22.051505 Si / 1000 Ang^3
#
#
#
# Elastic Constant Matrix: (Units=GPa)
#
#
# Indices 1 2 3 4 5 6 
#
# 1 83.7866 63.8706 47.9666 0.0000 0.0000 0.0000
# 2 63.8706 153.0885 45.1112 0.0000 0.0000 0.0000
# 3 47.9666 45.1112 90.9870 0.0000 0.0000 0.0000
# 4 0.0000 0.0000 0.0000 28.3229 0.0000 0.0000
# 5 0.0000 0.0000 0.0000 0.0000 34.9093 0.0000
# 6 0.0000 0.0000 0.0000 0.0000 0.0000 26.8541
#
#
#
# Elastic Compliance Matrix: (Units=1/GPa)
#
#
# Indices 1 2 3 4 5 6 
#
# 1 0.021642 -0.006637 -0.008119 0.000000 0.000000 0.000000
# 2 -0.006637 0.009685 -0.001303 0.000000 0.000000 0.000000
# 3 -0.008119 -0.001303 0.015917 0.000000 0.000000 0.000000
# 4 0.000000 0.000000 0.000000 0.035307 0.000000 0.000000
# 5 0.000000 0.000000 0.000000 0.000000 0.028646 0.000000
# 6 0.000000 0.000000 0.000000 0.000000 0.000000 0.037238
#
#
# Mechanical properties :
#
#
# Convention : Reuss Voigt Hill
#
# Bulk Modulus (GPa) = 66.10886 71.30655 68.70771
# Shear Modulus (GPa) = 26.94032 29.41151 28.17592
#
# Velocity S-wave (km/s) = 3.49907 3.65604 3.57842
# Velocity P-wave (km/s) = 6.80948 7.08722 6.94974
#
# Compressibility (1/GPa) = 0.01512657
#
# Stress axis : x y z
#
# Youngs Moduli (GPa) = 46.20540 103.25016 62.82720
#
# Poissons Ratio (x) = 0.68528 0.51008
# Poissons Ratio (y) = 0.30667 0.08186
# Poissons Ratio (z) = 0.37513 0.13453
#
# Static dielectric constant tensor:
#      x y z
#    x 1.838750 0.000000 0.000000 
#    y 0.000000 1.766910 0.000000 
#    z 0.000000 0.000000 1.811070 
# 
# From -- ./inp_files/10911.got.cif
#   From: 2010.05.17/outbox.cif.g08.bks.cpg/sg21_6_cif.got.tgz:10911.got - 2010.06.03 23:14:55.
