data_PCOD9324273
_publ_section_title
;
Structure prediction by ZEFSAII (Michael W. Deem and Ramdas Pophale) SiO2 
 PCOD9324273
Probable space group: C 2 2 2
;
_chemical_formula_sum "Si O2"
_cell_formula_units_Z 32
_cell_length_a 7.509521
_cell_length_b 13.337909
_cell_length_c 12.698492
_cell_angle_alpha 90.000000
_cell_angle_beta 90.000000
_cell_angle_gamma 90.000000
_cell_volume 1271.897565
_symmetry_space_group_name_H-M "C 2 2 2"
_symmetry_group_IT_number 21
_symmetry_cell_setting 'orthorhombic'
loop_
_space_group_symop_operation_xyz
x,y,z
-x,-y,z
x,-y,-z
-x,y,-z
1/2+x,1/2+y,z
1/2-x,1/2-y,z
1/2+x,1/2-y,-z
1/2-x,1/2+y,-z
loop_
_atom_site_type_symbol
_atom_site_label
_atom_site_fract_x
_atom_site_fract_y
_atom_site_fract_z
Si Si1 0.922263 0.680313 0.884872
Si Si2 0.508805 0.269801 0.667226
Si Si3 0.679679 0.090145 0.585606
Si Si4 0.308910 0.451289 0.761923
O O1 0.750000 0.750000 0.892217
O O2 0.039451 0.727954 0.788163
O O3 0.827138 0.577782 0.851922
O O4 0.000000 0.676244 0.000000
O O5 0.511684 0.164952 0.603511
O O6 0.648563 0.336171 0.597775
O O7 0.355292 0.351182 0.692095
O O8 0.685862 0.000000 0.500000
O O9 0.706076 0.029233 0.691894
O O10 0.500000 0.500000 0.792548
#
# Coordination Sequence:
#
# PCOD9324273 Si02
#       4
#     8   8   8   8
#     4  10  22  43  78 108 144 202 251 316 393 451
#     4   9  21  42  69 103 148 187 252 313 365 454
#     4  10  21  42  71 103 147 203 244 311 382 442
#     4   9  20  43  71 102 152 194 249 319 379 457
#
# _framework density 25.15926
#
# number of rings (size 3 to 8) (size 9 to 14) (size 15 to 20)
#    0.000    2.500    0.000    0.000    3.500    5.500 
#   18.000    3.750   22.000    6.000    0.000    0.000 
#    0.000    0.000    0.000    0.000    0.000    0.000 
#
# Total GULP energy -89077.939520 kJ/mol
# GULP energy per Si atom -5567.371220 kJ/mol
# Density = 2.510200 g / cm^3
# Si number density = 25.159260 Si / 1000 Ang^3
#
#
#
# Elastic Constant Matrix: (Units=GPa)
#
#
# Indices 1 2 3 4 5 6 
#
# 1 113.0364 47.0751 46.0567 0.0000 0.0000 0.0000
# 2 47.0751 183.3398 63.4156 0.0000 0.0000 0.0000
# 3 46.0567 63.4156 137.3777 0.0000 0.0000 0.0000
# 4 0.0000 0.0000 0.0000-5663.0323 0.0000 0.0000
# 5 0.0000 0.0000 0.0000 0.0000 30.2342 0.0000
# 6 0.0000 0.0000 0.0000 0.0000 0.0000 43.9248
#
#
#
# Elastic Compliance Matrix: (Units=1/GPa)
#
#
# Indices 1 2 3 4 5 6 
#
# 1 0.010722 -0.001796 -0.002765 0.000000 0.000000 0.000000
# 2 -0.001796 0.006792 -0.002533 0.000000 0.000000 0.000000
# 3 -0.002765 -0.002533 0.009375 0.000000 0.000000 0.000000
# 4 0.000000 0.000000 0.000000 -0.000177 0.000000 0.000000
# 5 0.000000 0.000000 0.000000 0.000000 0.033075 0.000000
# 6 0.000000 0.000000 0.000000 0.000000 0.000000 0.022766
#
#
# Mechanical properties :
#
#
# Convention : Reuss Voigt Hill
#
# Bulk Modulus (GPa) = 78.74227 82.98321 80.86274
# Shear Modulus (GPa) = 49.51686 -1099.29422 -524.88868
#
# Velocity S-wave (km/s) = 4.44118 -20.92565 -14.45958
# Velocity P-wave (km/s) = 7.59370 23.46889 15.70230
#
# Compressibility (1/GPa) = 0.01269966
#
# Stress axis : x y z
#
# Youngs Moduli (GPa) = 93.27023 147.23799 106.66134
#
# Poissons Ratio (x) = 0.26451 0.29494
# Poissons Ratio (y) = 0.16756 0.27016
# Poissons Ratio (z) = 0.25791 0.37294
#
# Static dielectric constant tensor:
#      x y z
#    x 4.878640 0.000000 0.000000 
#    y 0.000000 2.155520 0.000000 
#    z 0.000000 0.000000 1.966250 
# 
# From -- ./inp_files/21859.got.cif
#   From: 2010.05.17/outbox.cif.g08.bks.cpg/sg21_11_cif.got.tgz:21859.got - 2010.06.03 23:14:55.
