data_PCOD9324759
_publ_section_title
;
Structure prediction by ZEFSAII (Michael W. Deem and Ramdas Pophale) SiO2 
 PCOD9324759
Probable space group: C 2 2 2
;
_chemical_formula_sum "Si O2"
_cell_formula_units_Z 64
_cell_length_a 11.970156
_cell_length_b 15.204971
_cell_length_c 16.493305
_cell_angle_alpha 90.000000
_cell_angle_beta 90.000000
_cell_angle_gamma 90.000000
_cell_volume 3001.878406
_symmetry_space_group_name_H-M "C 2 2 2"
_symmetry_group_IT_number 21
_symmetry_cell_setting 'orthorhombic'
loop_
_space_group_symop_operation_xyz
x,y,z
-x,-y,z
x,-y,-z
-x,y,-z
1/2+x,1/2+y,z
1/2-x,1/2-y,z
1/2+x,1/2-y,-z
1/2-x,1/2+y,-z
loop_
_atom_site_type_symbol
_atom_site_label
_atom_site_fract_x
_atom_site_fract_y
_atom_site_fract_z
Si Si1 0.369907 0.494762 0.096871
Si Si2 0.487614 0.894939 0.240186
Si Si3 0.451286 0.900085 0.419109
Si Si4 0.277475 0.148020 0.190182
Si Si5 0.654600 0.579351 0.341236
Si Si6 0.256474 0.657547 0.182425
Si Si7 0.717299 0.348807 0.485508
Si Si8 0.091362 0.125831 0.670002
O O1 0.500000 0.500000 0.123350
O O2 0.300213 0.411971 0.132068
O O3 0.312252 0.580873 0.132223
O O4 0.366713 0.500000 0.000000
O O5 0.486819 0.860300 0.333283
O O6 0.589138 0.862321 0.184968
O O7 0.366521 0.872433 0.206618
O O8 0.500000 0.000000 0.244401
O O9 0.500000 0.856296 0.500000
O O10 0.319069 0.894494 0.435594
O O11 0.500000 0.000000 0.417981
O O12 0.250000 0.250000 0.182309
O O13 0.249371 0.112046 0.280570
O O14 0.685734 0.597749 0.434293
O O15 0.628723 0.476747 0.327994
O O16 0.540665 0.629482 0.317181
O O17 0.250000 0.750000 0.137254
O O18 0.334260 0.672078 0.261936
O O19 0.750000 0.250000 0.509738
O O20 0.619070 0.341864 0.420020
#
# Coordination Sequence:
#
# PCOD9324759 Si02
#       8
#     8   8   8   8   8   8   8   8
#     4  11  26  52  81 108 144 186 228 280 350 435
#     4  11  22  43  66 101 138 188 236 286 350 414
#     4  10  23  36  57  84 125 183 231 280 342 409
#     4  12  26  43  72 108 145 183 233 289 349 416
#     4  11  24  42  66  92 132 187 241 292 351 408
#     4  12  25  44  76 109 142 184 236 287 352 420
#     4  12  25  39  57  93 132 178 237 301 354 406
#     4  11  23  42  67  93 130 186 240 292 349 416
#
# _framework density 21.319984999999999
#
# number of rings (size 3 to 8) (size 9 to 14) (size 15 to 20)
#    0.000    0.750    3.750    3.000    8.750    2.500 
#    0.000    1.250    0.000    0.000    0.000    0.000 
#    0.000    0.000    0.000    0.000    0.000    0.000 
#
# Total GULP energy -179068.322596 kJ/mol
# GULP energy per Si atom -5595.885081 kJ/mol
# Density = 2.127146 g / cm^3
# Si number density = 21.319985 Si / 1000 Ang^3
#
#
#
# Elastic Constant Matrix: (Units=GPa)
#
#
# Indices 1 2 3 4 5 6 
#
# 1 134.1343 21.3688 29.3600 0.0000 0.0000 0.0000
# 2 21.3688 102.5716 20.6520 0.0000 0.0000 0.0000
# 3 29.3600 20.6520 72.8301 0.0000 0.0000 0.0000
# 4 0.0000 0.0000 0.0000 -6.7994 0.0000 0.0000
# 5 0.0000 0.0000 0.0000 0.0000 27.6658 0.0000
# 6 0.0000 0.0000 0.0000 0.0000 0.0000 26.3793
#
#
#
# Elastic Compliance Matrix: (Units=1/GPa)
#
#
# Indices 1 2 3 4 5 6 
#
# 1 0.008296 -0.001119 -0.003027 0.000000 0.000000 0.000000
# 2 -0.001119 0.010491 -0.002524 0.000000 0.000000 0.000000
# 3 -0.003027 -0.002524 0.015667 0.000000 0.000000 0.000000
# 4 0.000000 0.000000 0.000000 -0.147071 0.000000 0.000000
# 5 0.000000 0.000000 0.000000 0.000000 0.036146 0.000000
# 6 0.000000 0.000000 0.000000 0.000000 0.000000 0.037909
#
#
# Mechanical properties :
#
#
# Convention : Reuss Voigt Hill
#
# Bulk Modulus (GPa) = 47.36241 50.25527 48.80884
# Shear Modulus (GPa) = -274.92368 25.32615 -124.79877
#
# Velocity S-wave (km/s) = -11.36799 3.45034 -7.65919
# Velocity P-wave (km/s) = 12.24928 6.28460 7.43467
#
# Compressibility (1/GPa) = 0.02111379
#
# Stress axis : x y z
#
# Youngs Moduli (GPa) = 120.53940 95.32433 63.83030
#
# Poissons Ratio (x) = 0.10665 0.19322
# Poissons Ratio (y) = 0.13486 0.16109
# Poissons Ratio (z) = 0.36489 0.24057
#
# Static dielectric constant tensor:
#      x y z
#    x 2.049760 0.000000 0.000000 
#    y 0.000000 1.793210 0.000000 
#    z 0.000000 0.000000 1.759620 
# 
# From -- ./inp_files/36264.got.cif
#   From: 2010.05.17/outbox.cif.g08.bks.cpg/sg21_19_cif.got.tgz:36264.got - 2010.06.03 23:14:55.
