data_PCOD9324888
_publ_section_title
;
Structure prediction by ZEFSAII (Michael W. Deem and Ramdas Pophale) SiO2 
 PCOD9324888
Probable space group: C 2 2 2
;
_chemical_formula_sum "Si O2"
_cell_formula_units_Z 38
_cell_length_a 6.795064
_cell_length_b 24.380205
_cell_length_c 11.024130
_cell_angle_alpha 90.000000
_cell_angle_beta 90.000000
_cell_angle_gamma 90.000000
_cell_volume 1826.313084
_symmetry_space_group_name_H-M "C 2 2 2"
_symmetry_group_IT_number 21
_symmetry_cell_setting 'orthorhombic'
loop_
_space_group_symop_operation_xyz
x,y,z
-x,-y,z
x,-y,-z
-x,y,-z
1/2+x,1/2+y,z
1/2-x,1/2-y,z
1/2+x,1/2-y,-z
1/2-x,1/2+y,-z
loop_
_atom_site_type_symbol
_atom_site_label
_atom_site_fract_x
_atom_site_fract_y
_atom_site_fract_z
Si Si1 0.500000 0.650834 0.500000
Si Si2 0.937400 0.108552 0.874039
Si Si3 0.746449 0.314440 0.272043
Si Si4 0.000000 0.500000 0.500000
Si Si5 0.343602 0.549274 0.647113
Si Si6 0.885411 0.698555 0.126043
O O1 0.345201 0.681376 0.409278
O O2 0.391822 0.607946 0.587521
O O3 0.854416 0.062056 0.787363
O O4 0.768144 0.151633 0.904729
O O5 0.109399 0.144731 0.807494
O O6 0.000000 0.083618 0.000000
O O7 0.750000 0.250000 0.236870
O O8 0.972394 0.325320 0.232285
O O9 0.860244 0.466646 0.588394
O O10 0.500000 0.500000 0.623967
O O11 0.750000 0.750000 0.167246
O O12 0.000000 0.712737 0.000000
#
# Coordination Sequence:
#
# PCOD9324888 Si02
#       6
#     4   8   8   2   8   8
#     4  10  23  46  65  96 134 185 231 290 340 418
#     4  11  24  42  68 102 134 185 228 292 357 421
#     4  11  23  43  64  93 144 181 232 277 339 409
#     4  12  22  44  74 100 128 182 234 286 364 434
#     4  11  24  45  71  96 133 176 235 295 356 423
#     4  12  22  38  67 101 139 186 232 280 341 428
#
# _framework density 20.806946
#
# number of rings (size 3 to 8) (size 9 to 14) (size 15 to 20)
#    0.000    0.842    6.316    1.263    2.947    0.421 
#    7.579    0.000    0.000    0.000    0.000    0.000 
#    0.000    0.000    0.000    0.000    0.000    0.000 
#
# Total GULP energy -105839.698895 kJ/mol
# GULP energy per Si atom -5570.510468 kJ/mol
# Density = 2.075959 g / cm^3
# Si number density = 20.806946 Si / 1000 Ang^3
#
#
#
# Elastic Constant Matrix: (Units=GPa)
#
#
# Indices 1 2 3 4 5 6 
#
# 1 118.6272 25.5063 55.8607 0.0000 0.0000 0.0000
# 2 25.5063 54.0325 29.0240 0.0000 0.0000 0.0000
# 3 55.8607 29.0240 163.1197 0.0000 0.0000 0.0000
# 4 0.0000 0.0000 0.0000 26.0660 0.0000 0.0000
# 5 0.0000 0.0000 0.0000 0.0000 -49.6536 0.0000
# 6 0.0000 0.0000 0.0000 0.0000 0.0000 5.3812
#
#
#
# Elastic Compliance Matrix: (Units=1/GPa)
#
#
# Indices 1 2 3 4 5 6 
#
# 1 0.010578 -0.003370 -0.003023 0.000000 0.000000 0.000000
# 2 -0.003370 0.021537 -0.002678 0.000000 0.000000 0.000000
# 3 -0.003023 -0.002678 0.007642 0.000000 0.000000 0.000000
# 4 0.000000 0.000000 0.000000 0.038364 0.000000 0.000000
# 5 0.000000 0.000000 0.000000 0.000000 -0.020140 0.000000
# 6 0.000000 0.000000 0.000000 0.000000 0.000000 0.185831
#
#
# Mechanical properties :
#
#
# Convention : Reuss Voigt Hill
#
# Bulk Modulus (GPa) = 46.26310 61.84015 54.05162
# Shear Modulus (GPa) = 18.57642 11.38463 14.98053
#
# Velocity S-wave (km/s) = 2.99122 2.34167 2.68615
# Velocity P-wave (km/s) = 5.84915 6.09070 5.97115
#
# Compressibility (1/GPa) = 0.02161550
#
# Stress axis : x y z
#
# Youngs Moduli (GPa) = 94.53878 46.43274 130.85325
#
# Poissons Ratio (x) = 0.15646 0.39554
# Poissons Ratio (y) = 0.31855 0.35044
# Poissons Ratio (z) = 0.28577 0.12435
#
# Static dielectric constant tensor:
#      x y z
#    x 1.823860 0.000000 0.000000 
#    y 0.000000 1.743970 0.000000 
#    z 0.000000 0.000000 1.837410 
# 
# From -- ./inp_files/21215.got.cif
#   From: 2010.05.17/outbox.cif.g08.bks.cpg/sg21_11_cif.got.tgz:21215.got - 2010.06.03 23:14:55.
