data_PCOD9324325
_publ_section_title
;
Structure prediction by ZEFSAII (Michael W. Deem and Ramdas Pophale) SiO2 
 PCOD9324325
Probable space group: C 2 2 2
;
_chemical_formula_sum "Si O2"
_cell_formula_units_Z 46
_cell_length_a 23.517643
_cell_length_b 8.875989
_cell_length_c 10.932368
_cell_angle_alpha 90.000000
_cell_angle_beta 90.000000
_cell_angle_gamma 90.000000
_cell_volume 2282.048084
_symmetry_space_group_name_H-M "C 2 2 2"
_symmetry_group_IT_number 21
_symmetry_cell_setting 'orthorhombic'
loop_
_space_group_symop_operation_xyz
x,y,z
-x,-y,z
x,-y,-z
-x,y,-z
1/2+x,1/2+y,z
1/2-x,1/2-y,z
1/2+x,1/2-y,-z
1/2-x,1/2+y,-z
loop_
_atom_site_type_symbol
_atom_site_label
_atom_site_fract_x
_atom_site_fract_y
_atom_site_fract_z
Si Si1 0.685889 0.000000 0.500000
Si Si2 0.211144 0.057439 0.338707
Si Si3 0.305433 0.346840 0.068696
Si Si4 0.750000 0.250000 0.233966
Si Si5 0.000000 0.500000 0.500000
Si Si6 0.611867 0.500000 0.500000
Si Si7 0.591618 0.197484 0.360617
Si Si8 0.638834 0.141413 0.094732
O O1 0.729412 0.086066 0.592170
O O2 0.646060 0.112986 0.423321
O O3 0.196320 0.132318 0.211685
O O4 0.216732 0.877425 0.309937
O O5 0.156336 0.091891 0.418026
O O6 0.250000 0.250000 0.046167
O O7 0.296201 0.500000 0.000000
O O8 0.360000 0.275875 0.003924
O O9 0.701200 0.156265 0.160869
O O10 0.961250 0.395396 0.414141
O O11 0.584846 0.370803 0.411476
O O12 0.598614 0.171284 0.213017
O O13 0.633309 0.000000 0.000000
#
# Coordination Sequence:
#
# PCOD9324325 Si02
#       8
#     4   8   8   4   2   4   8   8
#     4  10  22  35  58  86 136 183 222 264 306 406
#     4  11  21  32  55  92 141 180 217 253 310 389
#     4  12  22  31  49  81 131 185 223 250 304 377
#     4  12  18  36  50  92 142 192 226 252 298 382
#     4  10  28  52  78  92 112 152 232 308 360 428
#     4  11  22  38  64  98 132 164 208 275 342 408
#     4  11  24  45  67  95 121 168 229 286 359 397
#     4  12  24  39  59  90 136 189 223 263 313 404
#
# _framework density 20.157332
#
# number of rings (size 3 to 8) (size 9 to 14) (size 15 to 20)
#    0.000    0.696    6.087    1.565    2.435    3.130 
#    0.000    0.435    0.000    0.000    0.000    0.000 
#    0.000    0.000    0.000    0.000    0.000    0.000 
#
# Total GULP energy -128048.534134 kJ/mol
# GULP energy per Si atom -5567.327571 kJ/mol
# Density = 2.011145 g / cm^3
# Si number density = 20.157332 Si / 1000 Ang^3
#
#
#
# Elastic Constant Matrix: (Units=GPa)
#
#
# Indices 1 2 3 4 5 6 
#
# 1 68.7038 30.1831 50.7642 0.0000 0.0000 0.0000
# 2 30.1831 111.8290 54.3397 0.0000 0.0000 0.0000
# 3 50.7642 54.3397 181.5642 0.0000 0.0000 0.0000
# 4 0.0000 0.0000 0.0000 45.5164 0.0000 0.0000
# 5 0.0000 0.0000 0.0000 0.0000 -24.6334 0.0000
# 6 0.0000 0.0000 0.0000 0.0000 0.0000 8.1539
#
#
#
# Elastic Compliance Matrix: (Units=1/GPa)
#
#
# Indices 1 2 3 4 5 6 
#
# 1 0.019172 -0.003007 -0.004460 0.000000 0.000000 0.000000
# 2 -0.003007 0.010936 -0.002432 0.000000 0.000000 0.000000
# 3 -0.004460 -0.002432 0.007483 0.000000 0.000000 0.000000
# 4 0.000000 0.000000 0.000000 0.021970 0.000000 0.000000
# 5 0.000000 0.000000 0.000000 0.000000 -0.040595 0.000000
# 6 0.000000 0.000000 0.000000 0.000000 0.000000 0.122641
#
#
# Mechanical properties :
#
#
# Convention : Reuss Voigt Hill
#
# Bulk Modulus (GPa) = 56.20811 70.29678 63.25244
# Shear Modulus (GPa) = 29.87996 20.92804 25.40400
#
# Velocity S-wave (km/s) = 3.85429 3.22566 3.55390
# Velocity P-wave (km/s) = 6.91033 6.98734 6.94894
#
# Compressibility (1/GPa) = 0.01779103
#
# Stress axis : x y z
#
# Youngs Moduli (GPa) = 52.15920 91.44370 133.64213
#
# Poissons Ratio (x) = 0.27499 0.59609
# Poissons Ratio (y) = 0.15686 0.32503
# Poissons Ratio (z) = 0.23265 0.22240
#
# Static dielectric constant tensor:
#      x y z
#    x 1.706740 0.000000 0.000000 
#    y 0.000000 1.804920 0.000000 
#    z 0.000000 0.000000 2.116720 
# 
# From -- ./inp_files/27752.got.cif
#   From: 2010.05.17/outbox.cif.g08.bks.cpg/sg21_14_cif.got.tgz:27752.got - 2010.06.03 23:14:55.
