data_PCOD9324746
_publ_section_title
;
Structure prediction by ZEFSAII (Michael W. Deem and Ramdas Pophale) SiO2 
 PCOD9324746
Probable space group: C 2 2 2
;
_chemical_formula_sum "Si O2"
_cell_formula_units_Z 34
_cell_length_a 4.865857
_cell_length_b 28.797239
_cell_length_c 9.821323
_cell_angle_alpha 90.000000
_cell_angle_beta 90.000000
_cell_angle_gamma 90.000000
_cell_volume 1376.195668
_symmetry_space_group_name_H-M "C 2 2 2"
_symmetry_group_IT_number 21
_symmetry_cell_setting 'orthorhombic'
loop_
_space_group_symop_operation_xyz
x,y,z
-x,-y,z
x,-y,-z
-x,y,-z
1/2+x,1/2+y,z
1/2-x,1/2-y,z
1/2+x,1/2-y,-z
1/2-x,1/2+y,-z
loop_
_atom_site_type_symbol
_atom_site_label
_atom_site_fract_x
_atom_site_fract_y
_atom_site_fract_z
Si Si1 0.265682 0.624974 0.906538
Si Si2 0.500000 0.000000 0.000000
Si Si3 0.500000 0.888042 0.500000
Si Si4 0.986849 0.218247 0.223543
Si Si5 0.053961 0.550404 0.256651
Si Si6 0.500000 0.325899 0.500000
O O1 0.406240 0.671681 0.848982
O O2 0.181849 0.585038 0.800029
O O3 0.500000 0.604802 0.000000
O O4 0.000000 0.636329 0.000000
O O5 0.666303 0.031364 0.109686
O O6 0.347961 0.918275 0.382522
O O7 0.256161 0.855714 0.554169
O O8 0.250000 0.250000 0.242257
O O9 0.750000 0.250000 0.155515
O O10 0.885357 0.202539 0.372379
O O11 0.000000 0.500000 0.321963
#
# Coordination Sequence:
#
# PCOD9324746 Si02
#       6
#     8   2   4   8   8   4
#     4  12  26  47  77 109 153 202 255 314 380 455
#     4   8  20  42  78 104 154 198 254 296 378 454
#     4  12  25  45  76 109 154 193 252 317 379 448
#     4  12  26  47  75 109 146 198 253 318 386 455
#     4  10  22  47  74 113 148 204 247 309 375 456
#     4  12  26  45  77 107 144 199 249 313 392 446
#
# _framework density 24.705787000000001
#
# number of rings (size 3 to 8) (size 9 to 14) (size 15 to 20)
#    0.706    0.000    3.529    3.882    3.294    1.882 
#    0.000   12.353    0.000    0.000    0.000    0.000 
#    0.000    0.000    0.000    0.000    0.000    0.000 
#
# Total GULP energy -94689.494765 kJ/mol
# GULP energy per Si atom -5569.970280 kJ/mol
# Density = 2.464956 g / cm^3
# Si number density = 24.705787 Si / 1000 Ang^3
#
#
#
# Elastic Constant Matrix: (Units=GPa)
#
#
# Indices 1 2 3 4 5 6 
#
# 1 97.1659 53.3778 18.0127 0.0000 0.0000 0.0000
# 2 53.3778 175.3985 35.7678 0.0000 0.0000 0.0000
# 3 18.0127 35.7678 83.7347 0.0000 0.0000 0.0000
# 4 0.0000 0.0000 0.0000 -34.3466 0.0000 0.0000
# 5 0.0000 0.0000 0.0000 0.0000 27.1743 0.0000
# 6 0.0000 0.0000 0.0000 0.0000 0.0000 779.4084
#
#
#
# Elastic Compliance Matrix: (Units=1/GPa)
#
#
# Indices 1 2 3 4 5 6 
#
# 1 0.012460 -0.003555 -0.001162 0.000000 0.000000 0.000000
# 2 -0.003555 0.007260 -0.002336 0.000000 0.000000 0.000000
# 3 -0.001162 -0.002336 0.013190 0.000000 0.000000 0.000000
# 4 0.000000 0.000000 0.000000 -0.029115 0.000000 0.000000
# 5 0.000000 0.000000 0.000000 0.000000 0.036799 0.000000
# 6 0.000000 0.000000 0.000000 0.000000 0.000000 0.001283
#
#
# Mechanical properties :
#
#
# Convention : Reuss Voigt Hill
#
# Bulk Modulus (GPa) = 53.18058 63.40175 58.29117
# Shear Modulus (GPa) = 80.31953 171.05661 125.68807
#
# Velocity S-wave (km/s) = 5.70798 8.32993 7.14033
# Velocity P-wave (km/s) = 8.06310 10.87361 9.57207
#
# Compressibility (1/GPa) = 0.01880386
#
# Stress axis : x y z
#
# Youngs Moduli (GPa) = 80.25722 137.74938 75.81301
#
# Poissons Ratio (x) = 0.48969 0.08808
# Poissons Ratio (y) = 0.28531 0.17712
# Poissons Ratio (z) = 0.09325 0.32182
#
# Static dielectric constant tensor:
#      x y z
#    x 1.912510 0.000000 0.000000 
#    y 0.000000 1.997910 0.000000 
#    z 0.000000 0.000000 -0.087220 
# 
# From -- ./inp_files/21141.got.cif
#   From: 2010.05.17/outbox.cif.g08.bks.cpg/sg21_11_cif.got.tgz:21141.got - 2010.06.03 23:14:55.
