data_PCOD9324841
_publ_section_title
;
Structure prediction by ZEFSAII (Michael W. Deem and Ramdas Pophale) SiO2 
 PCOD9324841
Probable space group: C 2 2 2
;
_chemical_formula_sum "Si O2"
_cell_formula_units_Z 42
_cell_length_a 14.751161
_cell_length_b 15.918599
_cell_length_c 9.383489
_cell_angle_alpha 90.000000
_cell_angle_beta 90.000000
_cell_angle_gamma 90.000000
_cell_volume 2203.410400
_symmetry_space_group_name_H-M "C 2 2 2"
_symmetry_group_IT_number 21
_symmetry_cell_setting 'orthorhombic'
loop_
_space_group_symop_operation_xyz
x,y,z
-x,-y,z
x,-y,-z
-x,y,-z
1/2+x,1/2+y,z
1/2-x,1/2-y,z
1/2+x,1/2-y,-z
1/2-x,1/2+y,-z
loop_
_atom_site_type_symbol
_atom_site_label
_atom_site_fract_x
_atom_site_fract_y
_atom_site_fract_z
Si Si1 0.354464 0.878648 0.869536
Si Si2 0.503971 0.251776 0.828080
Si Si3 0.044222 0.079614 0.342581
Si Si4 0.752983 0.004968 0.659204
Si Si5 0.000000 0.500000 0.000000
Si Si6 0.191035 0.667339 0.187102
O O1 0.403484 0.798989 0.802542
O O2 0.293746 0.928395 0.761541
O O3 0.436255 0.940962 0.908933
O O4 0.306605 0.855556 0.018568
O O5 0.517319 0.337920 0.744182
O O6 0.414214 0.196853 0.786858
O O7 0.500000 0.264443 0.000000
O O8 0.000000 0.088883 0.500000
O O9 0.147083 0.046673 0.357133
O O10 0.000000 0.000000 0.265296
O O11 0.733016 0.912896 0.729317
O O12 0.714162 0.000000 0.500000
O O13 0.250000 0.750000 0.215566
#
# Coordination Sequence:
#
# PCOD9324841 Si02
#       6
#     8   8   8   8   2   8
#     4  11  22  42  71  97 134 170 223 283 341 398
#     4  10  23  43  68 100 130 173 224 283 344 397
#     4  11  24  46  64  88 141 185 217 270 341 397
#     4  12  25  43  66 100 133 182 225 273 333 411
#     4  12  16  48  70  92 136 172 202 288 352 384
#     4  11  23  41  68  97 132 173 227 282 336 401
#
# _framework density 19.061361999999999
#
# number of rings (size 3 to 8) (size 9 to 14) (size 15 to 20)
#    0.000    0.952    6.667    1.143    5.333    1.905 
#    3.429    3.333    0.000    0.000    0.000    0.000 
#    0.000    0.000    0.000    0.000    0.000    0.000 
#
# Total GULP energy -117038.531416 kJ/mol
# GULP energy per Si atom -5573.263401 kJ/mol
# Density = 1.901798 g / cm^3
# Si number density = 19.061362 Si / 1000 Ang^3
#
#
#
# Elastic Constant Matrix: (Units=GPa)
#
#
# Indices 1 2 3 4 5 6 
#
# 1 97.2793 59.0155 59.9675 0.0000 0.0000 0.0000
# 2 59.0155 168.3563 75.1702 0.0000 0.0000 0.0000
# 3 59.9675 75.1702 80.3705 0.0000 0.0000 0.0000
# 4 0.0000 0.0000 0.0000 49.9388 0.0000 0.0000
# 5 0.0000 0.0000 0.0000 0.0000 26.8125 0.0000
# 6 0.0000 0.0000 0.0000 0.0000 0.0000 41.7095
#
#
#
# Elastic Compliance Matrix: (Units=1/GPa)
#
#
# Indices 1 2 3 4 5 6 
#
# 1 0.019067 -0.000569 -0.013694 0.000000 0.000000 0.000000
# 2 -0.000569 0.010216 -0.009130 0.000000 0.000000 0.000000
# 3 -0.013694 -0.009130 0.031199 0.000000 0.000000 0.000000
# 4 0.000000 0.000000 0.000000 0.020025 0.000000 0.000000
# 5 0.000000 0.000000 0.000000 0.000000 0.037296 0.000000
# 6 0.000000 0.000000 0.000000 0.000000 0.000000 0.023975
#
#
# Mechanical properties :
#
#
# Convention : Reuss Voigt Hill
#
# Bulk Modulus (GPa) = 73.01829 81.59028 77.30428
# Shear Modulus (GPa) = 25.88942 33.81567 29.85255
#
# Velocity S-wave (km/s) = 3.68939 4.21651 3.96173
# Velocity P-wave (km/s) = 7.51924 8.16102 7.84669
#
# Compressibility (1/GPa) = 0.01369520
#
# Stress axis : x y z
#
# Youngs Moduli (GPa) = 52.44778 97.88660 32.05218
#
# Poissons Ratio (x) = 0.05574 0.43892
# Poissons Ratio (y) = 0.02986 0.29264
# Poissons Ratio (z) = 0.71821 0.89371
#
# Static dielectric constant tensor:
#      x y z
#    x 1.497510 0.000000 0.000000 
#    y 0.000000 1.701840 0.000000 
#    z 0.000000 0.000000 1.648540 
# 
# From -- ./inp_files/14599.got.cif
#   From: 2010.05.17/outbox.cif.g08.bks.cpg/sg21_8_cif.got.tgz:14599.got - 2010.06.03 23:14:55.
