data_PCOD9324453
_publ_section_title
;
Structure prediction by ZEFSAII (Michael W. Deem and Ramdas Pophale) SiO2 
 PCOD9324453
Probable space group: C 2 2 2
;
_chemical_formula_sum "Si O2"
_cell_formula_units_Z 40
_cell_length_a 10.538938
_cell_length_b 9.619571
_cell_length_c 17.895647
_cell_angle_alpha 90.000000
_cell_angle_beta 90.000000
_cell_angle_gamma 90.000000
_cell_volume 1814.261809
_symmetry_space_group_name_H-M "C 2 2 2"
_symmetry_group_IT_number 21
_symmetry_cell_setting 'orthorhombic'
loop_
_space_group_symop_operation_xyz
x,y,z
-x,-y,z
x,-y,-z
-x,y,-z
1/2+x,1/2+y,z
1/2-x,1/2-y,z
1/2+x,1/2-y,-z
1/2-x,1/2+y,-z
loop_
_atom_site_type_symbol
_atom_site_label
_atom_site_fract_x
_atom_site_fract_y
_atom_site_fract_z
Si Si1 0.642797 0.640595 0.452670
Si Si2 0.468397 0.228362 0.658355
Si Si3 0.299031 0.030734 0.314466
Si Si4 0.848258 0.877389 0.791771
Si Si5 0.628331 0.648391 0.961543
O O1 0.634603 0.500000 0.500000
O O2 0.750000 0.750000 0.481480
O O3 0.512428 0.712150 0.422018
O O4 0.701431 0.588502 0.374030
O O5 0.353079 0.117610 0.655560
O O6 0.437481 0.341836 0.721301
O O7 0.584725 0.135718 0.687688
O O8 0.233777 0.008363 0.234868
O O9 0.750000 0.750000 0.794644
O O10 0.902222 0.880869 0.874287
O O11 0.750000 0.750000 0.967427
O O12 0.656691 0.500000 0.000000
O O13 0.500000 0.705242 0.000000
#
# Coordination Sequence:
#
# PCOD9324453 Si02
#       5
#     8   8   8   8   8
#     4  10  22  40  59  85 119 154 196 244 301 367
#     4   9  19  38  62  85 111 151 199 248 301 353
#     4   9  19  38  60  84 114 148 196 253 300 350
#     4   9  19  38  62  86 117 156 200 251 302 357
#     4  10  23  41  62  94 133 170 208 255 314 379
#
# _framework density 22.047535
#
# number of rings (size 3 to 8) (size 9 to 14) (size 15 to 20)
#    0.000    2.600    0.000    0.000    0.000    8.400 
#    0.000   24.000    0.000    0.000    0.000    0.000 
#    0.000    0.000    0.000    0.000    0.000    0.000 
#
# Total GULP energy -111701.511548 kJ/mol
# GULP energy per Si atom -5585.075577 kJ/mol
# Density = 2.199735 g / cm^3
# Si number density = 22.047535 Si / 1000 Ang^3
#
#
#
# Elastic Constant Matrix: (Units=GPa)
#
#
# Indices 1 2 3 4 5 6 
#
# 1 87.1386 43.4558 36.4405 0.0000 0.0000 0.0000
# 2 43.4558 107.4319 38.5069 0.0000 0.0000 0.0000
# 3 36.4405 38.5069 123.9632 0.0000 0.0000 0.0000
# 4 0.0000 0.0000 0.0000 26.2069 0.0000 0.0000
# 5 0.0000 0.0000 0.0000 0.0000 18.2325 0.0000
# 6 0.0000 0.0000 0.0000 0.0000 0.0000 44.1294
#
#
#
# Elastic Compliance Matrix: (Units=1/GPa)
#
#
# Indices 1 2 3 4 5 6 
#
# 1 0.015242 -0.005131 -0.002887 0.000000 0.000000 0.000000
# 2 -0.005131 0.012201 -0.002282 0.000000 0.000000 0.000000
# 3 -0.002887 -0.002282 0.009624 0.000000 0.000000 0.000000
# 4 0.000000 0.000000 0.000000 0.038158 0.000000 0.000000
# 5 0.000000 0.000000 0.000000 0.000000 0.054847 0.000000
# 6 0.000000 0.000000 0.000000 0.000000 0.000000 0.022661
#
#
# Mechanical properties :
#
#
# Convention : Reuss Voigt Hill
#
# Bulk Modulus (GPa) = 60.72020 61.70447 61.21233
# Shear Modulus (GPa) = 27.96087 31.05581 29.50834
#
# Velocity S-wave (km/s) = 3.56506 3.75718 3.66238
# Velocity P-wave (km/s) = 6.67432 6.84614 6.76078
#
# Compressibility (1/GPa) = 0.01646898
#
# Stress axis : x y z
#
# Youngs Moduli (GPa) = 65.60909 81.95766 103.90286
#
# Poissons Ratio (x) = 0.42049 0.29995
# Poissons Ratio (y) = 0.33661 0.23710
# Poissons Ratio (z) = 0.18940 0.18702
#
# Static dielectric constant tensor:
#      x y z
#    x 1.879680 0.000000 0.000000 
#    y 0.000000 1.821350 0.000000 
#    z 0.000000 0.000000 1.789500 
# 
# From -- ./inp_files/36049.got.cif
#   From: 2010.05.17/outbox.cif.g08.bks.cpg/sg21_19_cif.got.tgz:36049.got - 2010.06.03 23:14:55.
