data_PCOD9324447
_publ_section_title
;
Structure prediction by ZEFSAII (Michael W. Deem and Ramdas Pophale) SiO2 
 PCOD9324447
Probable space group: C 2 2 2
;
_chemical_formula_sum "Si O2"
_cell_formula_units_Z 54
_cell_length_a 29.025132
_cell_length_b 5.973937
_cell_length_c 14.135336
_cell_angle_alpha 90.000000
_cell_angle_beta 90.000000
_cell_angle_gamma 90.000000
_cell_volume 2450.986832
_symmetry_space_group_name_H-M "C 2 2 2"
_symmetry_group_IT_number 21
_symmetry_cell_setting 'orthorhombic'
loop_
_space_group_symop_operation_xyz
x,y,z
-x,-y,z
x,-y,-z
-x,y,-z
1/2+x,1/2+y,z
1/2-x,1/2-y,z
1/2+x,1/2-y,-z
1/2-x,1/2+y,-z
loop_
_atom_site_type_symbol
_atom_site_label
_atom_site_fract_x
_atom_site_fract_y
_atom_site_fract_z
Si Si1 0.367077 0.655242 0.087606
Si Si2 0.880259 0.125533 0.595597
Si Si3 0.780307 0.443763 0.100243
Si Si4 0.442936 0.000000 0.500000
Si Si5 0.961055 0.811642 0.667963
Si Si6 0.065106 0.501783 0.160413
Si Si7 0.657933 0.265728 0.781238
Si Si8 0.500000 0.000000 0.000000
O O1 0.327091 0.827878 0.065989
O O2 0.413109 0.785566 0.108332
O O3 0.348146 0.508196 0.173383
O O4 0.374167 0.500000 0.000000
O O5 0.910949 0.337869 0.564022
O O6 0.841641 0.208529 0.668481
O O7 0.864726 0.000000 0.500000
O O8 0.913875 0.951334 0.651152
O O9 0.750000 0.250000 0.148679
O O10 0.799376 0.638318 0.168788
O O11 0.755411 0.500000 0.000000
O O12 0.467746 0.827462 0.428590
O O13 0.957707 0.624845 0.749540
O O14 0.000000 0.000000 0.684442
O O15 0.109212 0.358130 0.193772
O O16 0.033277 0.385059 0.080176
#
# Coordination Sequence:
#
# PCOD9324447 Si02
#       8
#     8   8   8   4   8   8   8   2
#     4  11  21  39  64  87 128 174 218 265 327 388
#     4  10  22  39  65  93 123 165 224 274 345 396
#     4  11  24  38  63 101 142 176 211 259 326 402
#     4  10  22  43  60  86 130 156 206 290 342 404
#     4  11  24  38  62  90 120 169 222 283 344 389
#     4  11  25  41  58  86 124 174 232 281 328 390
#     4  11  22  42  65  93 134 173 217 280 336 398
#     4  12  28  40  58  82 124 186 244 272 334 394
#
# _framework density 22.031942000000001
#
# number of rings (size 3 to 8) (size 9 to 14) (size 15 to 20)
#    0.000    1.185    4.444    1.333    4.148    5.037 
#    0.000    0.741    0.000    0.000    0.000    0.000 
#   22.222    0.000    0.000    0.000    0.000    0.000 
#
# Total GULP energy -150740.128774 kJ/mol
# GULP energy per Si atom -5582.967732 kJ/mol
# Density = 2.198180 g / cm^3
# Si number density = 22.031942 Si / 1000 Ang^3
#
#
#
# Elastic Constant Matrix: (Units=GPa)
#
#
# Indices 1 2 3 4 5 6 
#
# 1 64.8731 27.3083 42.1688 0.0000 0.0000 0.0000
# 2 27.3083 81.9849 31.1796 0.0000 0.0000 0.0000
# 3 42.1688 31.1796 134.6256 0.0000 0.0000 0.0000
# 4 0.0000 0.0000 0.0000 41.9732 0.0000 0.0000
# 5 0.0000 0.0000 0.0000 0.0000 23.1647 0.0000
# 6 0.0000 0.0000 0.0000 0.0000 0.0000 20.9076
#
#
#
# Elastic Compliance Matrix: (Units=1/GPa)
#
#
# Indices 1 2 3 4 5 6 
#
# 1 0.021031 -0.004935 -0.005445 0.000000 0.000000 0.000000
# 2 -0.004935 0.014533 -0.001820 0.000000 0.000000 0.000000
# 3 -0.005445 -0.001820 0.009555 0.000000 0.000000 0.000000
# 4 0.000000 0.000000 0.000000 0.023825 0.000000 0.000000
# 5 0.000000 0.000000 0.000000 0.000000 0.043169 0.000000
# 6 0.000000 0.000000 0.000000 0.000000 0.000000 0.047829
#
#
# Mechanical properties :
#
#
# Convention : Reuss Voigt Hill
#
# Bulk Modulus (GPa) = 48.26190 53.64412 50.95301
# Shear Modulus (GPa) = 26.14397 29.26422 27.70410
#
# Velocity S-wave (km/s) = 3.44850 3.64849 3.54990
# Velocity P-wave (km/s) = 6.14892 6.49229 6.32293
#
# Compressibility (1/GPa) = 0.02072028
#
# Stress axis : x y z
#
# Youngs Moduli (GPa) = 47.54866 68.80752 104.65678
#
# Poissons Ratio (x) = 0.33954 0.56983
# Poissons Ratio (y) = 0.23463 0.19051
# Poissons Ratio (z) = 0.25889 0.12525
#
# Static dielectric constant tensor:
#      x y z
#    x 1.875070 0.000000 0.000000 
#    y 0.000000 1.636310 0.000000 
#    z 0.000000 0.000000 1.871090 
# 
# From -- ./inp_files/34053.got.cif
#   From: 2010.05.17/outbox.cif.g08.bks.cpg/sg21_18_cif.got.tgz:34053.got - 2010.06.03 23:14:55.
