data_PCOD9324148
_publ_section_title
;
Structure prediction by ZEFSAII (Michael W. Deem and Ramdas Pophale) SiO2 
 PCOD9324148
Probable space group: C 2 2 2
;
_chemical_formula_sum "Si O2"
_cell_formula_units_Z 56
_cell_length_a 12.334490
_cell_length_b 12.253293
_cell_length_c 16.131203
_cell_angle_alpha 90.000000
_cell_angle_beta 90.000000
_cell_angle_gamma 90.000000
_cell_volume 2438.039694
_symmetry_space_group_name_H-M "C 2 2 2"
_symmetry_group_IT_number 21
_symmetry_cell_setting 'orthorhombic'
loop_
_space_group_symop_operation_xyz
x,y,z
-x,-y,z
x,-y,-z
-x,y,-z
1/2+x,1/2+y,z
1/2-x,1/2-y,z
1/2+x,1/2-y,-z
1/2-x,1/2+y,-z
loop_
_atom_site_type_symbol
_atom_site_label
_atom_site_fract_x
_atom_site_fract_y
_atom_site_fract_z
Si Si1 0.411444 0.833589 0.430348
Si Si2 0.161567 0.833331 0.812225
Si Si3 0.332677 0.413040 0.566409
Si Si4 0.407460 0.839329 0.065075
Si Si5 0.117907 0.049704 0.752035
Si Si6 0.943287 0.282577 0.241310
Si Si7 0.835273 0.876888 0.997129
O O1 0.500000 0.866580 0.500000
O O2 0.385241 0.705531 0.445214
O O3 0.297236 0.895839 0.437971
O O4 0.441959 0.837039 0.331987
O O5 0.250000 0.750000 0.781192
O O6 0.155363 0.827426 0.911316
O O7 0.053988 0.785158 0.770745
O O8 0.192534 0.958863 0.794133
O O9 0.367721 0.500000 0.500000
O O10 0.367870 0.460386 0.654449
O O11 0.428935 0.860698 0.161930
O O12 0.500000 0.874511 0.000000
O O13 0.289228 0.877239 0.034454
O O14 0.401083 0.706532 0.059620
O O15 0.139427 0.178300 0.764555
O O16 0.000000 0.000000 0.777919
O O17 0.875291 0.000000 0.000000
#
# Coordination Sequence:
#
# PCOD9324148 Si02
#       7
#     8   8   8   8   8   8   8
#     4  10  24  43  65  93 128 168 210 259 323 376
#     4  11  20  38  57  91 126 159 211 256 310 368
#     4  10  23  40  64  95 126 161 212 260 315 381
#     4  11  21  40  61  87 124 165 205 254 313 359
#     4   9  21  36  61  95 122 163 206 254 316 373
#     4  10  21  40  64  86 125 164 205 262 310 378
#     4  11  23  36  59  91 122 163 208 256 306 367
#
# _framework density 22.969273999999999
#
# number of rings (size 3 to 8) (size 9 to 14) (size 15 to 20)
#    0.000    1.714    2.857    0.857    6.000    7.714 
#    0.000    0.000    0.000    3.429    0.000    0.000 
#    0.000    0.000    0.000    0.000    0.000    0.000 
#
# Total GULP energy -156366.453211 kJ/mol
# GULP energy per Si atom -5584.516186 kJ/mol
# Density = 2.291699 g / cm^3
# Si number density = 22.969274 Si / 1000 Ang^3
#
#
#
# Elastic Constant Matrix: (Units=GPa)
#
#
# Indices 1 2 3 4 5 6 
#
# 1 77.9058 18.1956 2.6719 0.0000 0.0000 0.0000
# 2 18.1956 44.3323 22.6786 0.0000 0.0000 0.0000
# 3 2.6719 22.6786 126.5750 0.0000 0.0000 0.0000
# 4 0.0000 0.0000 0.0000 5.0163 0.0000 0.0000
# 5 0.0000 0.0000 0.0000 0.0000 7.9249 0.0000
# 6 0.0000 0.0000 0.0000 0.0000 0.0000 8.6617
#
#
#
# Elastic Compliance Matrix: (Units=1/GPa)
#
#
# Indices 1 2 3 4 5 6 
#
# 1 0.014275 -0.006280 0.000824 0.000000 0.000000 0.000000
# 2 -0.006280 0.027596 -0.004812 0.000000 0.000000 0.000000
# 3 0.000824 -0.004812 0.008745 0.000000 0.000000 0.000000
# 4 0.000000 0.000000 0.000000 0.199351 0.000000 0.000000
# 5 0.000000 0.000000 0.000000 0.000000 0.126184 0.000000
# 6 0.000000 0.000000 0.000000 0.000000 0.000000 0.115451
#
#
# Mechanical properties :
#
#
# Convention : Reuss Voigt Hill
#
# Bulk Modulus (GPa) = 33.24529 37.32283 35.28406
# Shear Modulus (GPa) = 9.57550 18.00504 13.79027
#
# Velocity S-wave (km/s) = 2.04399 2.80281 2.45292
# Velocity P-wave (km/s) = 4.48060 5.17288 4.83913
#
# Compressibility (1/GPa) = 0.03007944
#
# Stress axis : x y z
#
# Youngs Moduli (GPa) = 70.05459 36.23690 114.34831
#
# Poissons Ratio (x) = 0.22758 -0.09421
# Poissons Ratio (y) = 0.43997 0.55023
# Poissons Ratio (z) = -0.05772 0.17437
#
# Static dielectric constant tensor:
#      x y z
#    x 1.961750 0.000000 0.000000 
#    y 0.000000 1.915620 0.000000 
#    z 0.000000 0.000000 1.861920 
# 
# From -- ./inp_files/31595.got.cif
#   From: 2010.05.17/outbox.cif.g08.bks.cpg/sg21_16_cif.got.tgz:31595.got - 2010.06.03 23:14:55.
