data_PCOD9324499
_publ_section_title
;
Structure prediction by ZEFSAII (Michael W. Deem and Ramdas Pophale) SiO2 
 PCOD9324499
Probable space group: C 2 2 2
;
_chemical_formula_sum "Si O2"
_cell_formula_units_Z 48
_cell_length_a 8.535999
_cell_length_b 16.392041
_cell_length_c 17.052924
_cell_angle_alpha 90.000000
_cell_angle_beta 90.000000
_cell_angle_gamma 90.000000
_cell_volume 2386.086830
_symmetry_space_group_name_H-M "C 2 2 2"
_symmetry_group_IT_number 21
_symmetry_cell_setting 'orthorhombic'
loop_
_space_group_symop_operation_xyz
x,y,z
-x,-y,z
x,-y,-z
-x,y,-z
1/2+x,1/2+y,z
1/2-x,1/2-y,z
1/2+x,1/2-y,-z
1/2-x,1/2+y,-z
loop_
_atom_site_type_symbol
_atom_site_label
_atom_site_fract_x
_atom_site_fract_y
_atom_site_fract_z
Si Si1 0.184222 0.985472 0.408252
Si Si2 0.385627 0.417593 0.833059
Si Si3 0.390709 0.075785 0.279291
Si Si4 0.675502 0.904139 0.986592
Si Si5 0.203834 0.655395 0.312061
Si Si6 0.806880 0.159724 0.854736
O O1 0.286119 0.045491 0.352493
O O2 0.210838 0.000000 0.500000
O O3 0.238474 0.893259 0.388729
O O4 0.000000 0.000000 0.391178
O O5 0.500000 0.500000 0.837879
O O6 0.263455 0.402444 0.903560
O O7 0.290124 0.400392 0.754252
O O8 0.511755 0.346282 0.837163
O O9 0.516978 0.144608 0.302397
O O10 0.286991 0.102287 0.205648
O O11 0.500000 0.000000 0.255441
O O12 0.500000 0.868940 0.000000
O O13 0.778868 0.867283 0.056042
O O14 0.662306 0.000000 0.000000
O O15 0.250000 0.750000 0.308287
O O16 0.750000 0.250000 0.842936
#
# Coordination Sequence:
#
# PCOD9324499 Si02
#       6
#     8   8   8   8   8   8
#     4  10  22  43  68  94 127 169 214 258 313 393
#     4  12  23  42  67  88 123 173 219 261 323 394
#     4  10  22  40  66  89 125 169 211 250 316 390
#     4  11  25  40  62  87 121 166 218 268 319 382
#     4  11  23  40  65  97 132 165 211 268 323 377
#     4  12  25  39  61  94 126 158 211 269 323 369
#
# _framework density 20.116619
#
# number of rings (size 3 to 8) (size 9 to 14) (size 15 to 20)
#    0.000    1.000    1.667    6.000    2.333    5.000 
#    0.000    4.167    0.000    0.000    0.000    0.000 
#    0.000    0.000    0.000    0.000    0.000    0.000 
#
# Total GULP energy -133977.052450 kJ/mol
# GULP energy per Si atom -5582.377185 kJ/mol
# Density = 2.007083 g / cm^3
# Si number density = 20.116619 Si / 1000 Ang^3
#
#
#
# Elastic Constant Matrix: (Units=GPa)
#
#
# Indices 1 2 3 4 5 6 
#
# 1 111.8303 39.0008 48.9609 0.0000 0.0000 0.0000
# 2 39.0008 83.0518 44.1787 0.0000 0.0000 0.0000
# 3 48.9609 44.1787 125.3990 0.0000 0.0000 0.0000
# 4 0.0000 0.0000 0.0000 2.6475 0.0000 0.0000
# 5 0.0000 0.0000 0.0000 0.0000 -39.6307 0.0000
# 6 0.0000 0.0000 0.0000 0.0000 0.0000 24.1027
#
#
#
# Elastic Compliance Matrix: (Units=1/GPa)
#
#
# Indices 1 2 3 4 5 6 
#
# 1 0.011668 -0.003761 -0.003231 0.000000 0.000000 0.000000
# 2 -0.003761 0.016030 -0.004179 0.000000 0.000000 0.000000
# 3 -0.003231 -0.004179 0.010708 0.000000 0.000000 0.000000
# 4 0.000000 0.000000 0.000000 0.377711 0.000000 0.000000
# 5 0.000000 0.000000 0.000000 0.000000 -0.025233 0.000000
# 6 0.000000 0.000000 0.000000 0.000000 0.000000 0.041489
#
#
# Mechanical properties :
#
#
# Convention : Reuss Voigt Hill
#
# Bulk Modulus (GPa) = 62.24692 64.95133 63.59912
# Shear Modulus (GPa) = 10.86793 9.96662 10.41727
#
# Velocity S-wave (km/s) = 2.32684 2.22827 2.27809
# Velocity P-wave (km/s) = 6.18297 6.24321 6.21317
#
# Compressibility (1/GPa) = 0.01606505
#
# Stress axis : x y z
#
# Youngs Moduli (GPa) = 85.70330 62.38432 93.38582
#
# Poissons Ratio (x) = 0.23461 0.30171
# Poissons Ratio (y) = 0.32231 0.39026
# Poissons Ratio (z) = 0.27689 0.26070
#
# Static dielectric constant tensor:
#      x y z
#    x 1.806010 0.000000 0.000000 
#    y 0.000000 1.741370 0.000000 
#    z 0.000000 0.000000 1.755170 
# 
# From -- ./inp_files/30490.got.cif
#   From: 2010.05.17/outbox.cif.g08.bks.cpg/sg21_16_cif.got.tgz:30490.got - 2010.06.03 23:14:55.
