data_PCOD9324874
_publ_section_title
;
Structure prediction by ZEFSAII (Michael W. Deem and Ramdas Pophale) SiO2 
 PCOD9324874
Probable space group: C 2 2 2
;
_chemical_formula_sum "Si O2"
_cell_formula_units_Z 48
_cell_length_a 23.091124
_cell_length_b 8.420533
_cell_length_c 12.701611
_cell_angle_alpha 90.000000
_cell_angle_beta 90.000000
_cell_angle_gamma 90.000000
_cell_volume 2469.695802
_symmetry_space_group_name_H-M "C 2 2 2"
_symmetry_group_IT_number 21
_symmetry_cell_setting 'orthorhombic'
loop_
_space_group_symop_operation_xyz
x,y,z
-x,-y,z
x,-y,-z
-x,y,-z
1/2+x,1/2+y,z
1/2-x,1/2-y,z
1/2+x,1/2-y,-z
1/2-x,1/2+y,-z
loop_
_atom_site_type_symbol
_atom_site_label
_atom_site_fract_x
_atom_site_fract_y
_atom_site_fract_z
Si Si1 0.943088 0.786373 0.436346
Si Si2 0.362222 0.468802 0.690888
Si Si3 0.949594 0.389985 0.773172
Si Si4 0.374052 0.109776 0.619732
Si Si5 0.935933 0.066145 0.883552
Si Si6 0.749717 0.562001 0.393091
O O1 0.898686 0.918554 0.390907
O O2 0.969396 0.709267 0.330015
O O3 0.908365 0.657993 0.509633
O O4 0.000000 0.836546 0.500000
O O5 0.364509 0.287301 0.659575
O O6 0.392102 0.491503 0.801788
O O7 0.295390 0.518568 0.696557
O O8 0.905202 0.507383 0.711921
O O9 0.932510 0.256073 0.858705
O O10 0.000000 0.500000 0.817039
O O11 0.311847 0.022492 0.609680
O O12 0.000000 0.000000 0.857154
O O13 0.924250 0.000000 0.000000
O O14 0.720518 0.500000 0.500000
O O15 0.750000 0.750000 0.399624
#
# Coordination Sequence:
#
# PCOD9324874 Si02
#       6
#     8   8   8   8   8   8
#     4  11  22  36  58  97 144 180 207 251 316 391
#     4  11  24  39  61  92 125 173 219 262 315 386
#     4  11  21  37  60  97 130 164 209 261 318 385
#     4  12  23  37  60  94 136 174 215 254 310 386
#     4  10  23  45  66  87 120 161 211 275 337 388
#     4  12  23  40  59  88 129 174 217 252 303 383
#
# _framework density 19.435593000000001
#
# number of rings (size 3 to 8) (size 9 to 14) (size 15 to 20)
#    0.000    0.833    1.667    8.500    2.333    0.667 
#    0.000    5.833    0.000    6.000    0.000    0.000 
#    0.000    0.000    0.000    0.000    0.000    0.000 
#
# Total GULP energy -133830.913293 kJ/mol
# GULP energy per Si atom -5576.288054 kJ/mol
# Density = 1.939136 g / cm^3
# Si number density = 19.435593 Si / 1000 Ang^3
#
#
#
# Elastic Constant Matrix: (Units=GPa)
#
#
# Indices 1 2 3 4 5 6 
#
# 1 113.2380 40.1155 60.5209 0.0000 0.0000 0.0000
# 2 40.1155 164.5098 66.2169 0.0000 0.0000 0.0000
# 3 60.5209 66.2169 101.6028 0.0000 0.0000 0.0000
# 4 0.0000 0.0000 0.0000 30.5630 0.0000 0.0000
# 5 0.0000 0.0000 0.0000 0.0000 17.1683 0.0000
# 6 0.0000 0.0000 0.0000 0.0000 0.0000 82.4462
#
#
#
# Elastic Compliance Matrix: (Units=1/GPa)
#
#
# Indices 1 2 3 4 5 6 
#
# 1 0.012956 -0.000072 -0.007671 0.000000 0.000000 0.000000
# 2 -0.000072 0.008241 -0.005328 0.000000 0.000000 0.000000
# 3 -0.007671 -0.005328 0.017884 0.000000 0.000000 0.000000
# 4 0.000000 0.000000 0.000000 0.032719 0.000000 0.000000
# 5 0.000000 0.000000 0.000000 0.000000 0.058247 0.000000
# 6 0.000000 0.000000 0.000000 0.000000 0.000000 0.012129
#
#
# Mechanical properties :
#
#
# Convention : Reuss Voigt Hill
#
# Bulk Modulus (GPa) = 77.28119 79.22860 78.25489
# Shear Modulus (GPa) = 28.96376 40.20199 34.58288
#
# Velocity S-wave (km/s) = 3.86456 4.55298 4.22282
# Velocity P-wave (km/s) = 7.73059 8.27603 8.00796
#
# Compressibility (1/GPa) = 0.01293976
#
# Stress axis : x y z
#
# Youngs Moduli (GPa) = 77.18429 121.34885 55.91700
#
# Poissons Ratio (x) = 0.00871 0.42892
# Poissons Ratio (y) = 0.00554 0.29792
# Poissons Ratio (z) = 0.59205 0.64653
#
# Static dielectric constant tensor:
#      x y z
#    x 1.694940 0.000000 0.000000 
#    y 0.000000 1.771820 0.000000 
#    z 0.000000 0.000000 1.652240 
# 
# From -- ./inp_files/27325.got.cif
#   From: 2010.05.17/outbox.cif.g08.bks.cpg/sg21_14_cif.got.tgz:27325.got - 2010.06.03 23:14:55.
