data_PCOD9324905
_publ_section_title
;
Structure prediction by ZEFSAII (Michael W. Deem and Ramdas Pophale) SiO2 
 PCOD9324905
Probable space group: C 2 2 2
;
_chemical_formula_sum "Si O2"
_cell_formula_units_Z 30
_cell_length_a 20.540565
_cell_length_b 11.825468
_cell_length_c 4.881804
_cell_angle_alpha 90.000000
_cell_angle_beta 90.000000
_cell_angle_gamma 90.000000
_cell_volume 1185.798950
_symmetry_space_group_name_H-M "C 2 2 2"
_symmetry_group_IT_number 21
_symmetry_cell_setting 'orthorhombic'
loop_
_space_group_symop_operation_xyz
x,y,z
-x,-y,z
x,-y,-z
-x,y,-z
1/2+x,1/2+y,z
1/2-x,1/2-y,z
1/2+x,1/2-y,-z
1/2-x,1/2+y,-z
loop_
_atom_site_type_symbol
_atom_site_label
_atom_site_fract_x
_atom_site_fract_y
_atom_site_fract_z
Si Si1 0.500000 0.000000 0.000000
Si Si2 0.395779 0.834953 0.193383
Si Si3 0.433881 0.298181 0.320985
Si Si4 0.265231 0.880381 0.354603
Si Si5 0.644557 0.500000 0.500000
O O1 0.550431 0.068181 0.185329
O O2 0.391660 0.790157 0.501238
O O3 0.320778 0.862959 0.124791
O O4 0.427661 0.746069 0.985131
O O5 0.500000 0.301525 0.500000
O O6 0.400850 0.418607 0.330582
O O7 0.250000 0.750000 0.462104
O O8 0.191903 0.925582 0.305781
O O9 0.289975 0.000000 0.500000
#
# Coordination Sequence:
#
# PCOD9324905 Si02
#       5
#     2   8   8   8   4
#     4  12  28  46  76 108 148 210 262 334 394 494
#     4  12  27  47  76 111 154 205 268 334 406 479
#     4  12  25  51  77 114 155 208 267 337 403 484
#     4  10  23  50  78 118 161 216 267 337 413 494
#     4  10  25  48  84 115 162 212 274 332 410 497
#
# _framework density 25.299398
#
# number of rings (size 3 to 8) (size 9 to 14) (size 15 to 20)
#    0.800    0.000    5.333    0.400    3.733    2.133 
#    9.600    2.667    0.000    0.000    0.000    0.000 
#    0.000    0.000    0.000    0.000    0.000    0.000 
#
# Total GULP energy -83505.916611 kJ/mol
# GULP energy per Si atom -5567.061107 kJ/mol
# Density = 2.524182 g / cm^3
# Si number density = 25.299398 Si / 1000 Ang^3
#
#
#
# Elastic Constant Matrix: (Units=GPa)
#
#
# Indices 1 2 3 4 5 6 
#
# 1 163.0749 53.9191 21.1680 0.0000 0.0000 0.0000
# 2 53.9191 175.6680 40.5599 0.0000 0.0000 0.0000
# 3 21.1680 40.5599 73.6036 0.0000 0.0000 0.0000
# 4 0.0000 0.0000 0.0000 8.8720 0.0000 0.0000
# 5 0.0000 0.0000 0.0000 0.0000 22.7201 0.0000
# 6 0.0000 0.0000 0.0000 0.0000 0.0000 48.5013
#
#
#
# Elastic Compliance Matrix: (Units=1/GPa)
#
#
# Indices 1 2 3 4 5 6 
#
# 1 0.006880 -0.001896 -0.000934 0.000000 0.000000 0.000000
# 2 -0.001896 0.007045 -0.003337 0.000000 0.000000 0.000000
# 3 -0.000934 -0.003337 0.015694 0.000000 0.000000 0.000000
# 4 0.000000 0.000000 0.000000 0.112714 0.000000 0.000000
# 5 0.000000 0.000000 0.000000 0.000000 0.044014 0.000000
# 6 0.000000 0.000000 0.000000 0.000000 0.000000 0.020618
#
#
# Mechanical properties :
#
#
# Convention : Reuss Voigt Hill
#
# Bulk Modulus (GPa) = 57.85302 71.51564 64.68433
# Shear Modulus (GPa) = 22.21623 35.79865 29.00744
#
# Velocity S-wave (km/s) = 2.96655 3.76573 3.38977
# Velocity P-wave (km/s) = 5.88650 6.87290 6.39873
#
# Compressibility (1/GPa) = 0.01728518
#
# Stress axis : x y z
#
# Youngs Moduli (GPa) = 145.34180 141.94407 63.71999
#
# Poissons Ratio (x) = 0.26916 0.05950
# Poissons Ratio (y) = 0.27560 0.21263
# Poissons Ratio (z) = 0.13572 0.47365
#
# Static dielectric constant tensor:
#      x y z
#    x 2.161350 0.000000 0.000000 
#    y 0.000000 2.054020 0.000000 
#    z 0.000000 0.000000 1.958900 
# 
# From -- ./inp_files/2546.got.cif
#   From: 2010.05.17/outbox.cif.g08.bks.cpg/sg21_2_cif.got.tgz:2546.got - 2010.06.03 23:14:55.
