data_PCOD9324433
_publ_section_title
;
Structure prediction by ZEFSAII (Michael W. Deem and Ramdas Pophale) SiO2 
 PCOD9324433
Probable space group: C 2 2 2
;
_chemical_formula_sum "Si O2"
_cell_formula_units_Z 48
_cell_length_a 10.619775
_cell_length_b 14.707459
_cell_length_c 16.440855
_cell_angle_alpha 90.000000
_cell_angle_beta 90.000000
_cell_angle_gamma 90.000000
_cell_volume 2567.895587
_symmetry_space_group_name_H-M "C 2 2 2"
_symmetry_group_IT_number 21
_symmetry_cell_setting 'orthorhombic'
loop_
_space_group_symop_operation_xyz
x,y,z
-x,-y,z
x,-y,-z
-x,y,-z
1/2+x,1/2+y,z
1/2-x,1/2-y,z
1/2+x,1/2-y,-z
1/2-x,1/2+y,-z
loop_
_atom_site_type_symbol
_atom_site_label
_atom_site_fract_x
_atom_site_fract_y
_atom_site_fract_z
Si Si1 0.250000 0.750000 0.392176
Si Si2 0.149258 0.100430 0.484188
Si Si3 0.193403 0.648668 0.799703
Si Si4 0.906286 0.913430 0.303258
Si Si5 0.447544 0.767417 0.253891
Si Si6 0.352304 0.107531 0.012627
Si Si7 0.250000 0.250000 0.890018
O O1 0.205510 0.829073 0.452521
O O2 0.357529 0.785833 0.330735
O O3 0.157643 0.116723 0.388162
O O4 0.000000 0.099695 0.500000
O O5 0.200961 0.000000 0.500000
O O6 0.250000 0.750000 0.788048
O O7 0.289974 0.577577 0.759070
O O8 0.182043 0.630871 0.895069
O O9 0.054994 0.657092 0.760202
O O10 0.990321 0.829861 0.273049
O O11 0.000000 0.000000 0.313473
O O12 0.367984 0.754497 0.171396
O O13 0.500000 0.131704 0.000000
O O14 0.266923 0.163917 0.949580
O O15 0.338958 0.000000 0.000000
#
# Coordination Sequence:
#
# PCOD9324433 Si02
#       7
#     4   8   8   8   8   8   4
#     4  11  22  36  69  94 128 166 217 254 316 393
#     4  11  21  40  62  92 125 166 207 256 311 376
#     4  10  22  40  63  89 127 163 213 262 315 379
#     4  11  22  39  64  92 125 164 214 266 319 379
#     4  10  22  39  59  94 122 170 207 258 329 372
#     4  11  23  41  62  92 124 171 211 258 328 383
#     4  11  22  40  67  82 130 164 211 272 316 387
#
# _framework density 18.692349
#
# number of rings (size 3 to 8) (size 9 to 14) (size 15 to 20)
#    0.000    1.333    5.833    0.000    5.833    0.000 
#    0.000    0.000    0.000    5.500    0.000    0.000 
#    0.000    0.000    0.000    0.000    0.000    0.000 
#
# Total GULP energy -133876.806123 kJ/mol
# GULP energy per Si atom -5578.200255 kJ/mol
# Density = 1.864980 g / cm^3
# Si number density = 18.692349 Si / 1000 Ang^3
#
#
#
# Elastic Constant Matrix: (Units=GPa)
#
#
# Indices 1 2 3 4 5 6 
#
# 1 93.7854 31.7018 65.0869 0.0000 0.0000 0.0000
# 2 31.7018 65.6350 41.4969 0.0000 0.0000 0.0000
# 3 65.0869 41.4969 169.7965 0.0000 0.0000 0.0000
# 4 0.0000 0.0000 0.0000 -40.5148 0.0000 0.0000
# 5 0.0000 0.0000 0.0000 0.0000 35.8844 0.0000
# 6 0.0000 0.0000 0.0000 0.0000 0.0000 13.1536
#
#
#
# Elastic Compliance Matrix: (Units=1/GPa)
#
#
# Indices 1 2 3 4 5 6 
#
# 1 0.015542 -0.004424 -0.004877 0.000000 0.000000 0.000000
# 2 -0.004424 0.019279 -0.003016 0.000000 0.000000 0.000000
# 3 -0.004877 -0.003016 0.008496 0.000000 0.000000 0.000000
# 4 0.000000 0.000000 0.000000 -0.024682 0.000000 0.000000
# 5 0.000000 0.000000 0.000000 0.000000 0.027867 0.000000
# 6 0.000000 0.000000 0.000000 0.000000 0.000000 0.076025
#
#
# Mechanical properties :
#
#
# Convention : Reuss Voigt Hill
#
# Bulk Modulus (GPa) = 53.51975 67.30982 60.41478
# Shear Modulus (GPa) = 32.59704 14.43340 23.51522
#
# Velocity S-wave (km/s) = 4.18050 2.78178 3.55070
# Velocity P-wave (km/s) = 7.21084 6.81214 7.01432
#
# Compressibility (1/GPa) = 0.01868469
#
# Stress axis : x y z
#
# Youngs Moduli (GPa) = 64.34035 51.86915 117.70533
#
# Poissons Ratio (x) = 0.22946 0.57400
# Poissons Ratio (y) = 0.28463 0.35499
# Poissons Ratio (z) = 0.31376 0.15644
#
# Static dielectric constant tensor:
#      x y z
#    x 1.681780 0.000000 0.000000 
#    y 0.000000 1.649290 0.000000 
#    z 0.000000 0.000000 1.659110 
# 
# From -- ./inp_files/31545.got.cif
#   From: 2010.05.17/outbox.cif.g08.bks.cpg/sg21_16_cif.got.tgz:31545.got - 2010.06.03 23:14:55.
