data_PCOD9324824
_publ_section_title
;
Structure prediction by ZEFSAII (Michael W. Deem and Ramdas Pophale) SiO2 
 PCOD9324824
Probable space group: C 2 2 2
;
_chemical_formula_sum "Si O2"
_cell_formula_units_Z 32
_cell_length_a 5.698594
_cell_length_b 18.104068
_cell_length_c 13.923931
_cell_angle_alpha 90.000000
_cell_angle_beta 90.000000
_cell_angle_gamma 90.000000
_cell_volume 1436.500400
_symmetry_space_group_name_H-M "C 2 2 2"
_symmetry_group_IT_number 21
_symmetry_cell_setting 'orthorhombic'
loop_
_space_group_symop_operation_xyz
x,y,z
-x,-y,z
x,-y,-z
-x,y,-z
1/2+x,1/2+y,z
1/2-x,1/2-y,z
1/2+x,1/2-y,-z
1/2-x,1/2+y,-z
loop_
_atom_site_type_symbol
_atom_site_label
_atom_site_fract_x
_atom_site_fract_y
_atom_site_fract_z
Si Si1 0.656621 0.427663 0.854525
Si Si2 0.997051 0.227548 0.110034
Si Si3 0.500000 0.000000 0.000000
Si Si4 0.500000 0.296352 0.500000
Si Si5 0.852380 0.923366 0.362442
Si Si6 0.000000 0.500000 0.500000
O O1 0.500000 0.500000 0.850774
O O2 0.502168 0.360250 0.890521
O O3 0.856982 0.446616 0.929480
O O4 0.733687 0.410227 0.745862
O O5 0.750000 0.250000 0.156023
O O6 0.250000 0.250000 0.153170
O O7 0.000000 0.257175 0.000000
O O8 0.250000 0.250000 0.502408
O O9 0.483460 0.352760 0.408375
O O10 0.645554 0.945342 0.433129
O O11 0.000000 0.000000 0.361759
#
# Coordination Sequence:
#
# PCOD9324824 Si02
#       6
#     8   8   2   4   8   2
#     4  11  26  43  71 105 145 190 253 309 367 442
#     4  10  23  42  67  96 137 194 237 288 357 426
#     4  12  24  44  72 112 148 196 250 328 366 426
#     4  12  26  46  75 113 158 192 242 322 388 442
#     4  11  24  45  73 106 139 200 247 299 376 461
#     4  12  18  44  76  98 140 186 248 302 346 468
#
# _framework density 22.276361999999999
#
# number of rings (size 3 to 8) (size 9 to 14) (size 15 to 20)
#    0.000    1.000    2.500    3.375    8.750    2.000 
#    0.000    0.000    0.000    0.000    0.000    0.000 
#    0.000    0.000    0.000    0.000    0.000    0.000 
#
# Total GULP energy -89340.124080 kJ/mol
# GULP energy per Si atom -5583.757755 kJ/mol
# Density = 2.222566 g / cm^3
# Si number density = 22.276362 Si / 1000 Ang^3
#
#
#
# Elastic Constant Matrix: (Units=GPa)
#
#
# Indices 1 2 3 4 5 6 
#
# 1 156.3610 64.8819 58.8134 0.0000 0.0000 0.0000
# 2 64.8819 142.9912 33.6644 0.0000 0.0000 0.0000
# 3 58.8134 33.6644 162.2425 0.0000 0.0000 0.0000
# 4 0.0000 0.0000 0.0000 44.3727 0.0000 0.0000
# 5 0.0000 0.0000 0.0000 0.0000 48.4507 0.0000
# 6 0.0000 0.0000 0.0000 0.0000 0.0000 125.2337
#
#
#
# Elastic Compliance Matrix: (Units=1/GPa)
#
#
# Indices 1 2 3 4 5 6 
#
# 1 0.008723 -0.003379 -0.002461 0.000000 0.000000 0.000000
# 2 -0.003379 0.008661 -0.000572 0.000000 0.000000 0.000000
# 3 -0.002461 -0.000572 0.007175 0.000000 0.000000 0.000000
# 4 0.000000 0.000000 0.000000 0.022536 0.000000 0.000000
# 5 0.000000 0.000000 0.000000 0.000000 0.020640 0.000000
# 6 0.000000 0.000000 0.000000 0.000000 0.000000 0.007985
#
#
# Mechanical properties :
#
#
# Convention : Reuss Voigt Hill
#
# Bulk Modulus (GPa) = 85.21809 86.25714 85.73761
# Shear Modulus (GPa) = 54.07983 63.89373 58.98678
#
# Velocity S-wave (km/s) = 4.93249 5.36140 5.15141
# Velocity P-wave (km/s) = 8.41292 8.78246 8.59968
#
# Compressibility (1/GPa) = 0.01173460
#
# Stress axis : x y z
#
# Youngs Moduli (GPa) = 114.63729 115.45654 139.38177
#
# Poissons Ratio (x) = 0.39009 0.34303
# Poissons Ratio (y) = 0.38732 0.07978
# Poissons Ratio (z) = 0.28214 0.06608
#
# Static dielectric constant tensor:
#      x y z
#    x 1.878770 0.000000 0.000000 
#    y 0.000000 1.826430 0.000000 
#    z 0.000000 0.000000 1.852890 
# 
# From -- ./inp_files/28679.got.cif
#   From: 2010.05.17/outbox.cif.g08.bks.cpg/sg21_15_cif.got.tgz:28679.got - 2010.06.03 23:14:55.
