data_PCOD9324946
_publ_section_title
;
Structure prediction by ZEFSAII (Michael W. Deem and Ramdas Pophale) SiO2 
 PCOD9324946
Probable space group: C 2 2 2
;
_chemical_formula_sum "Si O2"
_cell_formula_units_Z 32
_cell_length_a 15.269040
_cell_length_b 5.647960
_cell_length_c 17.164559
_cell_angle_alpha 90.000000
_cell_angle_beta 90.000000
_cell_angle_gamma 90.000000
_cell_volume 1480.253153
_symmetry_space_group_name_H-M "C 2 2 2"
_symmetry_group_IT_number 21
_symmetry_cell_setting 'orthorhombic'
loop_
_space_group_symop_operation_xyz
x,y,z
-x,-y,z
x,-y,-z
-x,y,-z
1/2+x,1/2+y,z
1/2-x,1/2-y,z
1/2+x,1/2-y,-z
1/2-x,1/2+y,-z
loop_
_atom_site_type_symbol
_atom_site_label
_atom_site_fract_x
_atom_site_fract_y
_atom_site_fract_z
Si Si1 0.803248 0.500000 0.500000
Si Si2 0.849328 0.340627 0.342379
Si Si3 0.412875 0.129844 0.197930
Si Si4 0.000000 0.000000 0.312358
Si Si5 0.147459 0.749919 0.967850
O O1 0.750000 0.750000 0.501149
O O2 0.854521 0.508692 0.418019
O O3 0.750000 0.250000 0.340324
O O4 0.864994 0.452826 0.257357
O O5 0.926130 0.149752 0.356235
O O6 0.445508 0.331706 0.255545
O O7 0.361052 0.232738 0.125252
O O8 0.500000 0.000000 0.167023
O O9 0.250000 0.750000 0.990849
O O10 0.110663 0.500000 0.000000
O O11 0.110390 0.000000 0.000000
#
# Coordination Sequence:
#
# PCOD9324946 Si02
#       5
#     4   8   8   4   8
#     4  10  24  44  73 109 140 184 246 284 356 437
#     4  10  24  43  76 100 143 189 234 300 353 426
#     4  10  24  43  64 100 135 179 236 286 353 425
#     4  10  24  44  66 108 136 180 248 282 357 433
#     4  10  24  42  66  97 131 174 231 286 347 421
#
# _framework density 21.617923000000001
#
# number of rings (size 3 to 8) (size 9 to 14) (size 15 to 20)
#    0.000    2.000    0.000    0.000   17.500    1.500 
#    0.000    6.875    0.000    0.000    0.000    0.000 
#    0.000    0.000    0.000    0.000    0.000    0.000 
#
# Total GULP energy -89203.468140 kJ/mol
# GULP energy per Si atom -5575.216759 kJ/mol
# Density = 2.156872 g / cm^3
# Si number density = 21.617923 Si / 1000 Ang^3
#
#
#
# Elastic Constant Matrix: (Units=GPa)
#
#
# Indices 1 2 3 4 5 6 
#
# 1 69.8662 44.3552 42.6691 0.0000 0.0000 0.0000
# 2 44.3552 129.2755 39.4188 0.0000 0.0000 0.0000
# 3 42.6691 39.4188 99.2654 0.0000 0.0000 0.0000
# 4 0.0000 0.0000 0.0000 -102.8556 0.0000 0.0000
# 5 0.0000 0.0000 0.0000 0.0000 163.4856 0.0000
# 6 0.0000 0.0000 0.0000 0.0000 0.0000 17.2787
#
#
#
# Elastic Compliance Matrix: (Units=1/GPa)
#
#
# Indices 1 2 3 4 5 6 
#
# 1 0.022266 -0.005372 -0.007438 0.000000 0.000000 0.000000
# 2 -0.005372 0.010097 -0.001701 0.000000 0.000000 0.000000
# 3 -0.007438 -0.001701 0.013946 0.000000 0.000000 0.000000
# 4 0.000000 0.000000 0.000000 -0.009722 0.000000 0.000000
# 5 0.000000 0.000000 0.000000 0.000000 0.006117 0.000000
# 6 0.000000 0.000000 0.000000 0.000000 0.000000 0.057875
#
#
# Mechanical properties :
#
#
# Convention : Reuss Voigt Hill
#
# Bulk Modulus (GPa) = 57.83959 61.25482 59.54721
# Shear Modulus (GPa) = 36.93816 27.04601 31.99208
#
# Velocity S-wave (km/s) = 4.13811 3.54091 3.85110
# Velocity P-wave (km/s) = 7.04595 6.71671 6.88330
#
# Compressibility (1/GPa) = 0.01728919
#
# Stress axis : x y z
#
# Youngs Moduli (GPa) = 44.91211 99.03954 71.70273
#
# Poissons Ratio (x) = 0.53200 0.53331
# Poissons Ratio (y) = 0.24125 0.12194
# Poissons Ratio (z) = 0.33405 0.16843
#
# Static dielectric constant tensor:
#      x y z
#    x 1.932360 0.000000 0.000000 
#    y 0.000000 1.832950 0.000000 
#    z 0.000000 0.000000 1.751260 
# 
# From -- ./inp_files/34503.got.cif
#   From: 2010.05.17/outbox.cif.g08.bks.cpg/sg21_18_cif.got.tgz:34503.got - 2010.06.03 23:14:55.
