data_PCOD9324379
_publ_section_title
;
Structure prediction by ZEFSAII (Michael W. Deem and Ramdas Pophale) SiO2 
 PCOD9324379
Probable space group: C 2 2 2
;
_chemical_formula_sum "Si O2"
_cell_formula_units_Z 64
_cell_length_a 24.998592
_cell_length_b 9.504927
_cell_length_c 13.823197
_cell_angle_alpha 90.000000
_cell_angle_beta 90.000000
_cell_angle_gamma 90.000000
_cell_volume 3284.526965
_symmetry_space_group_name_H-M "C 2 2 2"
_symmetry_group_IT_number 21
_symmetry_cell_setting 'orthorhombic'
loop_
_space_group_symop_operation_xyz
x,y,z
-x,-y,z
x,-y,-z
-x,y,-z
1/2+x,1/2+y,z
1/2-x,1/2-y,z
1/2+x,1/2-y,-z
1/2-x,1/2+y,-z
loop_
_atom_site_type_symbol
_atom_site_label
_atom_site_fract_x
_atom_site_fract_y
_atom_site_fract_z
Si Si1 0.591533 0.794285 0.243872
Si Si2 0.164532 0.950332 0.735623
Si Si3 0.841109 0.508991 0.887105
Si Si4 0.502726 0.330238 0.114328
Si Si5 0.390085 0.748806 0.230817
Si Si6 0.736852 0.916264 0.400768
Si Si7 0.773714 0.102047 0.921203
Si Si8 0.114034 0.491711 0.615168
O O1 0.622757 0.667739 0.297379
O O2 0.546566 0.730417 0.175364
O O3 0.627362 0.893057 0.174196
O O4 0.575042 0.901739 0.328351
O O5 0.217466 0.967054 0.672187
O O6 0.184695 0.883086 0.836189
O O7 0.136131 0.098597 0.748863
O O8 0.853905 0.658831 0.841353
O O9 0.778349 0.478230 0.882068
O O10 0.856177 0.500000 0.000000
O O11 0.500000 0.500000 0.117300
O O12 0.555066 0.276217 0.171711
O O13 0.500000 0.289154 0.000000
O O14 0.392788 0.842185 0.329691
O O15 0.750000 0.750000 0.412181
O O16 0.743889 0.000000 0.500000
O O17 0.675825 0.951935 0.368803
O O18 0.750000 0.250000 0.957625
O O19 0.798655 0.000000 0.000000
O O20 0.105947 0.500000 0.500000
#
# Coordination Sequence:
#
# PCOD9324379 Si02
#       8
#     8   8   8   8   8   8   8   8
#     4  11  21  42  66  89 125 171 206 270 329 378
#     4  12  23  37  64  89 128 168 209 257 328 375
#     4  10  22  38  57  86 127 160 209 260 312 386
#     4  11  24  43  68  98 129 164 220 277 325 386
#     4  11  25  41  63  97 122 166 219 268 325 387
#     4  11  24  41  66  99 131 170 214 259 316 385
#     4  11  24  37  55  86 125 169 213 252 310 389
#     4  10  24  44  68  96 135 166 213 268 324 391
#
# _framework density 19.485302000000001
#
# number of rings (size 3 to 8) (size 9 to 14) (size 15 to 20)
#    0.000    1.125    3.750    2.625    7.000    4.000 
#    0.000    4.375    0.000    0.750    0.000    0.000 
#    0.000    0.000    0.000    0.000    0.000    0.000 
#
# Total GULP energy -178589.505521 kJ/mol
# GULP energy per Si atom -5580.922048 kJ/mol
# Density = 1.944095 g / cm^3
# Si number density = 19.485302 Si / 1000 Ang^3
#
#
#
# Elastic Constant Matrix: (Units=GPa)
#
#
# Indices 1 2 3 4 5 6 
#
# 1 41.7094 13.8291 28.0573 0.0000 0.0000 0.0000
# 2 13.8291 114.4046 37.7630 0.0000 0.0000 0.0000
# 3 28.0573 37.7630 122.0140 0.0000 0.0000 0.0000
# 4 0.0000 0.0000 0.0000 28.6002 0.0000 0.0000
# 5 0.0000 0.0000 0.0000 0.0000 -153.5442 0.0000
# 6 0.0000 0.0000 0.0000 0.0000 0.0000 28.4715
#
#
#
# Elastic Compliance Matrix: (Units=1/GPa)
#
#
# Indices 1 2 3 4 5 6 
#
# 1 0.028572 -0.001431 -0.006127 0.000000 0.000000 0.000000
# 2 -0.001431 0.009807 -0.002706 0.000000 0.000000 0.000000
# 3 -0.006127 -0.002706 0.010442 0.000000 0.000000 0.000000
# 4 0.000000 0.000000 0.000000 0.034965 0.000000 0.000000
# 5 0.000000 0.000000 0.000000 0.000000 -0.006513 0.000000
# 6 0.000000 0.000000 0.000000 0.000000 0.000000 0.035123
#
#
# Mechanical properties :
#
#
# Convention : Reuss Voigt Hill
#
# Bulk Modulus (GPa) = 35.34571 48.60298 41.97435
# Shear Modulus (GPa) = 35.12333 -6.06258 14.53037
#
# Velocity S-wave (km/s) = 4.25026 -1.76582 2.73373
# Velocity P-wave (km/s) = 6.50118 4.56509 5.61718
#
# Compressibility (1/GPa) = 0.02829198
#
# Stress axis : x y z
#
# Youngs Moduli (GPa) = 34.99981 101.96616 95.76458
#
# Poissons Ratio (x) = 0.14594 0.58676
# Poissons Ratio (y) = 0.05009 0.25916
# Poissons Ratio (z) = 0.21445 0.27594
#
# Static dielectric constant tensor:
#      x y z
#    x 1.687630 0.000000 0.000000 
#    y 0.000000 1.706660 0.000000 
#    z 0.000000 0.000000 1.702200 
# 
# From -- ./inp_files/33610.got.cif
#   From: 2010.05.17/outbox.cif.g08.bks.cpg/sg21_17_cif.got.tgz:33610.got - 2010.06.03 23:14:55.
