data_PCOD9324636
_publ_section_title
;
Structure prediction by ZEFSAII (Michael W. Deem and Ramdas Pophale) SiO2 
 PCOD9324636
Probable space group: C 2 2 2
;
_chemical_formula_sum "Si O2"
_cell_formula_units_Z 32
_cell_length_a 17.096878
_cell_length_b 10.096865
_cell_length_c 8.369351
_cell_angle_alpha 90.000000
_cell_angle_beta 90.000000
_cell_angle_gamma 90.000000
_cell_volume 1444.758121
_symmetry_space_group_name_H-M "C 2 2 2"
_symmetry_group_IT_number 21
_symmetry_cell_setting 'orthorhombic'
loop_
_space_group_symop_operation_xyz
x,y,z
-x,-y,z
x,-y,-z
-x,y,-z
1/2+x,1/2+y,z
1/2-x,1/2-y,z
1/2+x,1/2-y,-z
1/2-x,1/2+y,-z
loop_
_atom_site_type_symbol
_atom_site_label
_atom_site_fract_x
_atom_site_fract_y
_atom_site_fract_z
Si Si1 0.250000 0.250000 0.420100
Si Si2 0.375330 0.323465 0.677954
Si Si3 0.416201 0.248863 0.010609
Si Si4 0.500000 0.500000 0.500000
Si Si5 0.500000 0.000000 0.000000
Si Si6 0.282920 0.440166 0.157106
O O1 0.324565 0.267785 0.533129
O O2 0.237145 0.371315 0.299107
O O3 0.393069 0.225938 0.824962
O O4 0.448804 0.401783 0.607839
O O5 0.324933 0.436971 0.762484
O O6 0.500000 0.325402 0.000000
O O7 0.349100 0.334016 0.096311
O O8 0.442710 0.107754 0.084579
O O9 0.241860 0.500000 0.000000
#
# Coordination Sequence:
#
# PCOD9324636 Si02
#       6
#     4   8   8   2   2   8
#     4  12  24  44  62 110 140 180 228 312 380 426
#     4  11  23  40  72 102 144 179 241 298 366 426
#     4   9  20  41  66  98 139 184 248 293 360 425
#     4  12  20  40  74 106 132 174 234 296 350 432
#     4   8  20  40  58 106 132 176 234 284 368 416
#     4  10  22  43  65  98 133 192 238 295 356 447
#
# _framework density 22.149035999999999
#
# number of rings (size 3 to 8) (size 9 to 14) (size 15 to 20)
#    0.750    1.000    2.500    1.500    0.000    7.500 
#   11.250    0.000    0.000    1.500    0.000    0.000 
#    0.000    0.000    0.000    0.000    0.000    0.000 
#
# Total GULP energy -89174.792803 kJ/mol
# GULP energy per Si atom -5573.424550 kJ/mol
# Density = 2.209862 g / cm^3
# Si number density = 22.149036 Si / 1000 Ang^3
#
#
#
# Elastic Constant Matrix: (Units=GPa)
#
#
# Indices 1 2 3 4 5 6 
#
# 1 75.6846 25.3207 56.5326 0.0000 0.0000 0.0000
# 2 25.3207 86.6558 45.6690 0.0000 0.0000 0.0000
# 3 56.5326 45.6690 159.1503 0.0000 0.0000 0.0000
# 4 0.0000 0.0000 0.0000 22.1874 0.0000 0.0000
# 5 0.0000 0.0000 0.0000 0.0000 -21.5501 0.0000
# 6 0.0000 0.0000 0.0000 0.0000 0.0000 39.3008
#
#
#
# Elastic Compliance Matrix: (Units=1/GPa)
#
#
# Indices 1 2 3 4 5 6 
#
# 1 0.018356 -0.002271 -0.005869 0.000000 0.000000 0.000000
# 2 -0.002271 0.013877 -0.003175 0.000000 0.000000 0.000000
# 3 -0.005869 -0.003175 0.009279 0.000000 0.000000 0.000000
# 4 0.000000 0.000000 0.000000 0.045071 0.000000 0.000000
# 5 0.000000 0.000000 0.000000 0.000000 -0.046403 0.000000
# 6 0.000000 0.000000 0.000000 0.000000 0.000000 0.025445
#
#
# Mechanical properties :
#
#
# Convention : Reuss Voigt Hill
#
# Bulk Modulus (GPa) = 52.95934 64.05949 58.50941
# Shear Modulus (GPa) = 52.88297 20.91882 36.90089
#
# Velocity S-wave (km/s) = 4.89161 3.07654 4.08613
# Velocity P-wave (km/s) = 7.47436 6.45019 6.98108
#
# Compressibility (1/GPa) = 0.01888241
#
# Stress axis : x y z
#
# Youngs Moduli (GPa) = 54.47782 72.06207 107.76705
#
# Poissons Ratio (x) = 0.16363 0.63246
# Poissons Ratio (y) = 0.12370 0.34221
# Poissons Ratio (z) = 0.31972 0.22883
#
# Static dielectric constant tensor:
#      x y z
#    x 1.887470 0.000000 0.000000 
#    y 0.000000 1.856130 0.000000 
#    z 0.000000 0.000000 2.059200 
# 
# From -- ./inp_files/14168.got.cif
#   From: 2010.05.17/outbox.cif.g08.bks.cpg/sg21_8_cif.got.tgz:14168.got - 2010.06.03 23:14:55.
