data_PCOD9324873
_publ_section_title
;
Structure prediction by ZEFSAII (Michael W. Deem and Ramdas Pophale) SiO2 
 PCOD9324873
Probable space group: C 2 2 2
;
_chemical_formula_sum "Si O2"
_cell_formula_units_Z 32
_cell_length_a 5.357928
_cell_length_b 13.675101
_cell_length_c 18.582267
_cell_angle_alpha 90.000000
_cell_angle_beta 90.000000
_cell_angle_gamma 90.000000
_cell_volume 1361.526541
_symmetry_space_group_name_H-M "C 2 2 2"
_symmetry_group_IT_number 21
_symmetry_cell_setting 'orthorhombic'
loop_
_space_group_symop_operation_xyz
x,y,z
-x,-y,z
x,-y,-z
-x,y,-z
1/2+x,1/2+y,z
1/2-x,1/2-y,z
1/2+x,1/2-y,-z
1/2-x,1/2+y,-z
loop_
_atom_site_type_symbol
_atom_site_label
_atom_site_fract_x
_atom_site_fract_y
_atom_site_fract_z
Si Si1 0.250000 0.750000 0.862537
Si Si2 0.000000 0.811586 0.500000
Si Si3 0.737479 0.456847 0.919231
Si Si4 0.510070 0.879643 0.741639
Si Si5 0.990284 0.114488 0.659419
O O1 0.311448 0.658652 0.914533
O O2 0.441467 0.810156 0.810237
O O3 0.250000 0.750000 0.509025
O O4 0.968720 0.866449 0.575420
O O5 0.500000 0.500000 0.876970
O O6 0.000000 0.500000 0.892896
O O7 0.733031 0.500000 0.000000
O O8 0.284011 0.855911 0.686501
O O9 0.777045 0.852547 0.708268
O O10 0.500000 0.000000 0.749817
O O11 0.000000 0.000000 0.669365
#
# Coordination Sequence:
#
# PCOD9324873 Si02
#       5
#     4   4   8   8   8
#     4  12  26  44  78 102 146 200 232 302 380 418
#     4  12  25  38  67 100 134 178 242 294 355 432
#     4  10  25  47  72 108 147 181 241 291 354 440
#     4  10  24  42  66 101 138 182 243 295 352 439
#     4  10  23  45  65  93 137 183 233 297 357 417
#
# _framework density 23.503031
#
# number of rings (size 3 to 8) (size 9 to 14) (size 15 to 20)
#    0.000    1.500    0.000    2.625    5.250   12.000 
#    0.000    5.000    0.000    0.000    0.000    0.000 
#    0.000    0.000    0.000    0.000    0.000    0.000 
#
# Total GULP energy -89189.250396 kJ/mol
# GULP energy per Si atom -5574.328150 kJ/mol
# Density = 2.344954 g / cm^3
# Si number density = 23.503031 Si / 1000 Ang^3
#
#
#
# Elastic Constant Matrix: (Units=GPa)
#
#
# Indices 1 2 3 4 5 6 
#
# 1 154.8195 36.5721 19.8491 0.0000 0.0000 0.0000
# 2 36.5721 217.6321 34.7866 0.0000 0.0000 0.0000
# 3 19.8491 34.7866 129.1250 0.0000 0.0000 0.0000
# 4 0.0000 0.0000 0.0000 53.6918 0.0000 0.0000
# 5 0.0000 0.0000 0.0000 0.0000 540.4828 0.0000
# 6 0.0000 0.0000 0.0000 0.0000 0.0000 1.9913
#
#
#
# Elastic Compliance Matrix: (Units=1/GPa)
#
#
# Indices 1 2 3 4 5 6 
#
# 1 0.006799 -0.001019 -0.000770 0.000000 0.000000 0.000000
# 2 -0.001019 0.004955 -0.001178 0.000000 0.000000 0.000000
# 3 -0.000770 -0.001178 0.008180 0.000000 0.000000 0.000000
# 4 0.000000 0.000000 0.000000 0.018625 0.000000 0.000000
# 5 0.000000 0.000000 0.000000 0.000000 0.001850 0.000000
# 6 0.000000 0.000000 0.000000 0.000000 0.000000 0.502179
#
#
# Mechanical properties :
#
#
# Convention : Reuss Voigt Hill
#
# Bulk Modulus (GPa) = 71.44037 75.99915 73.71976
# Shear Modulus (GPa) = 9.03849 146.59110 77.81479
#
# Velocity S-wave (km/s) = 1.96317 7.90611 5.76023
# Velocity P-wave (km/s) = 5.96665 10.75863 8.69911
#
# Compressibility (1/GPa) = 0.01399769
#
# Stress axis : x y z
#
# Youngs Moduli (GPa) = 147.08672 201.83633 122.24569
#
# Poissons Ratio (x) = 0.20574 0.09419
# Poissons Ratio (y) = 0.14993 0.14401
# Poissons Ratio (z) = 0.11333 0.23778
#
# Static dielectric constant tensor:
#      x y z
#    x 3.068110 0.000000 0.000000 
#    y 0.000000 1.271740 0.000000 
#    z 0.000000 0.000000 2.537050 
# 
# From -- ./inp_files/34485.got.cif
#   From: 2010.05.17/outbox.cif.g08.bks.cpg/sg21_18_cif.got.tgz:34485.got - 2010.06.03 23:14:55.
