data_PCOD9324247
_publ_section_title
;
Structure prediction by ZEFSAII (Michael W. Deem and Ramdas Pophale) SiO2 
 PCOD9324247
Probable space group: C 2 2 2
;
_chemical_formula_sum "Si O2"
_cell_formula_units_Z 40
_cell_length_a 11.151221
_cell_length_b 17.354207
_cell_length_c 9.373843
_cell_angle_alpha 90.000000
_cell_angle_beta 90.000000
_cell_angle_gamma 90.000000
_cell_volume 1814.031699
_symmetry_space_group_name_H-M "C 2 2 2"
_symmetry_group_IT_number 21
_symmetry_cell_setting 'orthorhombic'
loop_
_space_group_symop_operation_xyz
x,y,z
-x,-y,z
x,-y,-z
-x,y,-z
1/2+x,1/2+y,z
1/2-x,1/2-y,z
1/2+x,1/2-y,-z
1/2-x,1/2+y,-z
loop_
_atom_site_type_symbol
_atom_site_label
_atom_site_fract_x
_atom_site_fract_y
_atom_site_fract_z
Si Si1 0.853410 0.191332 0.175359
Si Si2 0.275401 0.091486 0.325025
Si Si3 0.503195 0.166148 0.832700
Si Si4 0.712201 0.090343 0.348293
Si Si5 0.635951 0.581776 0.057711
O O1 0.750000 0.250000 0.223239
O O2 0.972371 0.242389 0.174232
O O3 0.836898 0.117849 0.276276
O O4 0.814345 0.156759 0.023155
O O5 0.373696 0.139126 0.237217
O O6 0.278247 0.118127 0.488489
O O7 0.157420 0.091038 0.225148
O O8 0.305128 0.000862 0.337898
O O9 0.399144 0.124801 0.740400
O O10 0.500000 0.144579 0.000000
O O11 0.689428 0.500000 0.000000
O O12 0.500000 0.581432 0.000000
#
# Coordination Sequence:
#
# PCOD9324247 Si02
#       5
#     8   8   8   8   8
#     4  10  21  42  63  93 139 177 225 288 348 420
#     4  11  22  41  69 100 137 184 238 296 357 429
#     4  11  23  38  65 101 138 183 234 294 359 424
#     4  10  22  41  66 101 143 183 232 293 359 437
#     4  11  23  41  67  95 128 180 238 293 343 421
#
# _framework density 22.050331
#
# number of rings (size 3 to 8) (size 9 to 14) (size 15 to 20)
#    0.000    1.400    2.000    4.200    0.000    2.400 
#    0.000   22.000    0.000    0.000    0.000    0.000 
#    0.000    0.000    0.000    0.000    0.000    0.000 
#
# Total GULP energy -111517.492323 kJ/mol
# GULP energy per Si atom -5575.874616 kJ/mol
# Density = 2.200014 g / cm^3
# Si number density = 22.050331 Si / 1000 Ang^3
#
#
#
# Elastic Constant Matrix: (Units=GPa)
#
#
# Indices 1 2 3 4 5 6 
#
# 1 77.5169 19.5046 58.0404 0.0000 0.0000 0.0000
# 2 19.5046 85.0278 28.3895 0.0000 0.0000 0.0000
# 3 58.0404 28.3895 198.9703 0.0000 0.0000 0.0000
# 4 0.0000 0.0000 0.0000 24.5208 0.0000 0.0000
# 5 0.0000 0.0000 0.0000 0.0000 17.4948 0.0000
# 6 0.0000 0.0000 0.0000 0.0000 0.0000 33.4347
#
#
#
# Elastic Compliance Matrix: (Units=1/GPa)
#
#
# Indices 1 2 3 4 5 6 
#
# 1 0.016940 -0.002348 -0.004607 0.000000 0.000000 0.000000
# 2 -0.002348 0.012675 -0.001124 0.000000 0.000000 0.000000
# 3 -0.004607 -0.001124 0.006530 0.000000 0.000000 0.000000
# 4 0.000000 0.000000 0.000000 0.040782 0.000000 0.000000
# 5 0.000000 0.000000 0.000000 0.000000 0.057160 0.000000
# 6 0.000000 0.000000 0.000000 0.000000 0.000000 0.029909
#
#
# Mechanical properties :
#
#
# Convention : Reuss Voigt Hill
#
# Bulk Modulus (GPa) = 50.02791 63.70933 56.86862
# Shear Modulus (GPa) = 26.76457 32.12878 29.44667
#
# Velocity S-wave (km/s) = 3.48773 3.82129 3.65832
# Velocity P-wave (km/s) = 6.24150 6.95882 6.60990
#
# Compressibility (1/GPa) = 0.01998884
#
# Stress axis : x y z
#
# Youngs Moduli (GPa) = 59.03084 78.89814 153.14088
#
# Poissons Ratio (x) = 0.18524 0.70545
# Poissons Ratio (y) = 0.13860 0.17206
# Poissons Ratio (z) = 0.27193 0.08865
#
# Static dielectric constant tensor:
#      x y z
#    x 1.900180 0.000000 0.000000 
#    y 0.000000 1.884230 0.000000 
#    z 0.000000 0.000000 1.842300 
# 
# From -- ./inp_files/12723.got.cif
#   From: 2010.05.17/outbox.cif.g08.bks.cpg/sg21_7_cif.got.tgz:12723.got - 2010.06.03 23:14:55.
