data_PCOD9324633
_publ_section_title
;
Structure prediction by ZEFSAII (Michael W. Deem and Ramdas Pophale) SiO2 
 PCOD9324633
Probable space group: C 2 2 2
;
_chemical_formula_sum "Si O2"
_cell_formula_units_Z 34
_cell_length_a 6.414274
_cell_length_b 24.159061
_cell_length_c 10.540124
_cell_angle_alpha 90.000000
_cell_angle_beta 90.000000
_cell_angle_gamma 90.000000
_cell_volume 1633.327516
_symmetry_space_group_name_H-M "C 2 2 2"
_symmetry_group_IT_number 21
_symmetry_cell_setting 'orthorhombic'
loop_
_space_group_symop_operation_xyz
x,y,z
-x,-y,z
x,-y,-z
-x,y,-z
1/2+x,1/2+y,z
1/2-x,1/2-y,z
1/2+x,1/2-y,-z
1/2-x,1/2+y,-z
loop_
_atom_site_type_symbol
_atom_site_label
_atom_site_fract_x
_atom_site_fract_y
_atom_site_fract_z
Si Si1 0.250933 0.340369 0.771002
Si Si2 0.664019 0.599532 0.158750
Si Si3 0.250000 0.750000 0.442362
Si Si4 0.523438 0.065445 0.649620
Si Si5 0.500000 0.833471 0.000000
Si Si6 0.500000 0.500000 0.000000
O O1 0.468543 0.360244 0.827813
O O2 0.266592 0.303492 0.646700
O O3 0.139160 0.397606 0.728689
O O4 0.117828 0.307749 0.878963
O O5 0.621983 0.541319 0.091675
O O6 0.756826 0.586990 0.297075
O O7 0.828183 0.629437 0.068704
O O8 0.500000 0.753845 0.500000
O O9 0.500000 0.074578 0.500000
O O10 0.500000 0.000000 0.674475
#
# Coordination Sequence:
#
# PCOD9324633 Si02
#       6
#     8   8   4   8   4   2
#     4  11  24  47  71 103 144 190 254 318 385 461
#     4  11  23  38  66  98 144 190 242 309 379 458
#     4  12  32  54  84 116 146 208 264 328 388 452
#     4  10  23  40  65 101 141 192 244 304 381 459
#     4  10  22  43  63 100 138 189 238 309 380 450
#     4  12  20  38  62 110 142 194 244 300 394 456
#
# _framework density 20.816400000000002
#
# number of rings (size 3 to 8) (size 9 to 14) (size 15 to 20)
#    0.000    1.176    2.353    2.118   13.176    0.000 
#    4.235    2.353    0.000    0.000    0.000    0.000 
#    0.000    0.000    0.000    0.000    0.000    0.000 
#
# Total GULP energy -94673.557639 kJ/mol
# GULP energy per Si atom -5569.032802 kJ/mol
# Density = 2.076902 g / cm^3
# Si number density = 20.816400 Si / 1000 Ang^3
#
#
#
# Elastic Constant Matrix: (Units=GPa)
#
#
# Indices 1 2 3 4 5 6 
#
# 1 133.8659 37.7271 61.8280 0.0000 0.0000 0.0000
# 2 37.7271 62.9403 24.8978 0.0000 0.0000 0.0000
# 3 61.8280 24.8978 122.6000 0.0000 0.0000 0.0000
# 4 0.0000 0.0000 0.0000 -3.1659 0.0000 0.0000
# 5 0.0000 0.0000 0.0000 0.0000 53.2232 0.0000
# 6 0.0000 0.0000 0.0000 0.0000 0.0000 15.0311
#
#
#
# Elastic Compliance Matrix: (Units=1/GPa)
#
#
# Indices 1 2 3 4 5 6 
#
# 1 0.010900 -0.004740 -0.004535 0.000000 0.000000 0.000000
# 2 -0.004740 0.019337 -0.001537 0.000000 0.000000 0.000000
# 3 -0.004535 -0.001537 0.010755 0.000000 0.000000 0.000000
# 4 0.000000 0.000000 0.000000 -0.315867 0.000000 0.000000
# 5 0.000000 0.000000 0.000000 0.000000 0.018789 0.000000
# 6 0.000000 0.000000 0.000000 0.000000 0.000000 0.066529
#
#
# Mechanical properties :
#
#
# Convention : Reuss Voigt Hill
#
# Bulk Modulus (GPa) = 51.62444 63.14579 57.38512
# Shear Modulus (GPa) = -30.96412 26.01458 -2.47477
#
# Velocity S-wave (km/s) = -3.86098 3.53897 -1.09153
# Velocity P-wave (km/s) = 2.23103 6.86291 5.10280
#
# Compressibility (1/GPa) = 0.01937067
#
# Stress axis : x y z
#
# Youngs Moduli (GPa) = 91.73996 51.71398 92.97620
#
# Poissons Ratio (x) = 0.24513 0.42160
# Poissons Ratio (y) = 0.43485 0.14287
# Poissons Ratio (z) = 0.41600 0.07946
#
# Static dielectric constant tensor:
#      x y z
#    x 2.411990 0.000000 0.000000 
#    y 0.000000 1.659730 0.000000 
#    z 0.000000 0.000000 1.762010 
# 
# From -- ./inp_files/21003.got.cif
#   From: 2010.05.17/outbox.cif.g08.bks.cpg/sg21_11_cif.got.tgz:21003.got - 2010.06.03 23:14:55.
