data_PCOD9324478
_publ_section_title
;
Structure prediction by ZEFSAII (Michael W. Deem and Ramdas Pophale) SiO2 
 PCOD9324478
Probable space group: C 2 2 2
;
_chemical_formula_sum "Si O2"
_cell_formula_units_Z 56
_cell_length_a 12.060513
_cell_length_b 9.597607
_cell_length_c 23.300427
_cell_angle_alpha 90.000000
_cell_angle_beta 90.000000
_cell_angle_gamma 90.000000
_cell_volume 2697.072517
_symmetry_space_group_name_H-M "C 2 2 2"
_symmetry_group_IT_number 21
_symmetry_cell_setting 'orthorhombic'
loop_
_space_group_symop_operation_xyz
x,y,z
-x,-y,z
x,-y,-z
-x,y,-z
1/2+x,1/2+y,z
1/2-x,1/2-y,z
1/2+x,1/2-y,-z
1/2-x,1/2+y,-z
loop_
_atom_site_type_symbol
_atom_site_label
_atom_site_fract_x
_atom_site_fract_y
_atom_site_fract_z
Si Si1 0.762272 0.915436 0.555239
Si Si2 0.418425 0.304727 0.305247
Si Si3 0.750000 0.750000 0.883404
Si Si4 0.058500 0.722208 0.817493
Si Si5 0.308306 0.025483 0.325823
Si Si6 0.668026 0.054179 0.204451
Si Si7 0.481560 0.666669 0.065294
Si Si8 0.000000 0.000000 0.396592
O O1 0.750000 0.750000 0.545581
O O2 0.888381 0.972425 0.567129
O O3 0.720679 0.000000 0.500000
O O4 0.695089 0.954544 0.612805
O O5 0.442185 0.323681 0.237639
O O6 0.404484 0.140219 0.317161
O O7 0.304309 0.385123 0.318768
O O8 0.498793 0.370300 0.352085
O O9 0.752524 0.880517 0.839853
O O10 0.640634 0.725500 0.920169
O O11 0.155525 0.610166 0.806742
O O12 0.945535 0.633418 0.810649
O O13 0.057355 0.779970 0.881705
O O14 0.310239 0.923894 0.271405
O O15 0.500000 0.500000 0.065656
O O16 0.500000 0.714485 0.000000
#
# Coordination Sequence:
#
# PCOD9324478 Si02
#       8
#     8   8   4   8   8   8   8   4
#     4  11  26  43  67  88 125 172 209 261 317 376
#     4   9  19  34  60  90 121 157 195 263 320 373
#     4  10  22  40  64  86 124 160 208 264 322 364
#     4   9  19  36  58  86 127 156 199 258 319 367
#     4   9  20  37  58  90 124 153 207 253 321 380
#     4   9  19  35  59  92 118 154 200 260 316 380
#     4  10  23  43  59  88 126 164 210 260 303 382
#     4  10  23  40  66  90 121 158 216 258 322 374
#
# _framework density 20.763254
#
# number of rings (size 3 to 8) (size 9 to 14) (size 15 to 20)
#    0.000    2.429    0.000    0.214   10.000    2.286 
#    5.143    5.000    0.000    0.000    0.000    0.000 
#    0.000    0.000    0.000    0.000    0.000    0.000 
#
# Total GULP energy -156119.965585 kJ/mol
# GULP energy per Si atom -5575.713057 kJ/mol
# Density = 2.071600 g / cm^3
# Si number density = 20.763254 Si / 1000 Ang^3
#
#
#
# Elastic Constant Matrix: (Units=GPa)
#
#
# Indices 1 2 3 4 5 6 
#
# 1 20.6096 5.5111 30.1861 0.0000 0.0000 0.0000
# 2 5.5111 76.8088 66.5524 0.0000 0.0000 0.0000
# 3 30.1861 66.5524 217.6268 0.0000 0.0000 0.0000
# 4 0.0000 0.0000 0.0000 72.7201 0.0000 0.0000
# 5 0.0000 0.0000 0.0000 0.0000 35.0517 0.0000
# 6 0.0000 0.0000 0.0000 0.0000 0.0000 15.3563
#
#
#
# Elastic Compliance Matrix: (Units=1/GPa)
#
#
# Indices 1 2 3 4 5 6 
#
# 1 0.061814 0.004073 -0.009820 0.000000 0.000000 0.000000
# 2 0.004073 0.017981 -0.006064 0.000000 0.000000 0.000000
# 3 -0.009820 -0.006064 0.007811 0.000000 0.000000 0.000000
# 4 0.000000 0.000000 0.000000 0.013751 0.000000 0.000000
# 5 0.000000 0.000000 0.000000 0.000000 0.028529 0.000000
# 6 0.000000 0.000000 0.000000 0.000000 0.000000 0.065120
#
#
# Mechanical properties :
#
#
# Convention : Reuss Voigt Hill
#
# Bulk Modulus (GPa) = 15.62832 57.72716 36.67774
# Shear Modulus (GPa) = 20.83709 38.81199 29.82454
#
# Velocity S-wave (km/s) = 3.17133 4.32819 3.79411
# Velocity P-wave (km/s) = 4.57745 7.26915 6.07427
#
# Compressibility (1/GPa) = 0.06398640
#
# Stress axis : x y z
#
# Youngs Moduli (GPa) = 16.17750 55.61369 128.01750
#
# Poissons Ratio (x) = -0.22653 1.25708
# Poissons Ratio (y) = -0.06589 0.77627
# Poissons Ratio (z) = 0.15886 0.33723
#
# Static dielectric constant tensor:
#      x y z
#    x 1.424990 0.000000 0.000000 
#    y 0.000000 1.791210 0.000000 
#    z 0.000000 0.000000 1.731900 
# 
# From -- ./inp_files/37608.got.cif
#   From: 2010.05.17/outbox.cif.g08.bks.cpg/sg21_19_cif.got.tgz:37608.got - 2010.06.03 23:14:55.
