data_PCOD9324931
_publ_section_title
;
Structure prediction by ZEFSAII (Michael W. Deem and Ramdas Pophale) SiO2 
 PCOD9324931
Probable space group: C 2 2 2
;
_chemical_formula_sum "Si O2"
_cell_formula_units_Z 40
_cell_length_a 11.135540
_cell_length_b 11.960408
_cell_length_c 14.294458
_cell_angle_alpha 90.000000
_cell_angle_beta 90.000000
_cell_angle_gamma 90.000000
_cell_volume 1903.815990
_symmetry_space_group_name_H-M "C 2 2 2"
_symmetry_group_IT_number 21
_symmetry_cell_setting 'orthorhombic'
loop_
_space_group_symop_operation_xyz
x,y,z
-x,-y,z
x,-y,-z
-x,y,-z
1/2+x,1/2+y,z
1/2-x,1/2-y,z
1/2+x,1/2-y,-z
1/2-x,1/2+y,-z
loop_
_atom_site_type_symbol
_atom_site_label
_atom_site_fract_x
_atom_site_fract_y
_atom_site_fract_z
Si Si1 0.238316 0.098575 0.876635
Si Si2 0.804389 0.125331 0.495628
Si Si3 0.998432 0.878664 0.659435
Si Si4 0.814998 0.361654 0.909782
Si Si5 0.950489 0.271695 0.176730
O O1 0.111592 0.162318 0.871723
O O2 0.333957 0.151927 0.805377
O O3 0.246952 0.966873 0.865460
O O4 0.295130 0.124625 0.978960
O O5 0.750000 0.250000 0.506346
O O6 0.900625 0.118733 0.579894
O O7 0.873899 0.130236 0.396838
O O8 0.741877 0.000000 0.500000
O O9 0.010081 0.777239 0.730593
O O10 0.000000 0.000000 0.708247
O O11 0.750000 0.250000 0.879057
O O12 0.953116 0.342703 0.881889
#
# Coordination Sequence:
#
# PCOD9324931 Si02
#       5
#     8   8   8   8   8
#     4  10  24  41  61  89 121 172 215 260 333 368
#     4   9  19  41  66  89 124 167 201 250 315 388
#     4   9  21  39  61  91 125 161 201 251 314 373
#     4  11  23  41  62  89 124 168 214 265 317 381
#     4  11  22  40  62  90 126 161 210 267 310 380
#
# _framework density 21.010434
#
# number of rings (size 3 to 8) (size 9 to 14) (size 15 to 20)
#    0.000    2.000    2.000    2.400    5.600    2.400 
#    3.600    6.000    0.000    0.000    0.000    0.000 
#    0.000    0.000    0.000    0.000    0.000    0.000 
#
# Total GULP energy -111403.341084 kJ/mol
# GULP energy per Si atom -5570.167054 kJ/mol
# Density = 2.096261 g / cm^3
# Si number density = 21.010434 Si / 1000 Ang^3
#
#
#
# Elastic Constant Matrix: (Units=GPa)
#
#
# Indices 1 2 3 4 5 6 
#
# 1 36.0873 14.7429 -6.8710 0.0000 0.0000 0.0000
# 2 14.7429 174.4817 2.8485 0.0000 0.0000 0.0000
# 3 -6.8710 2.8485 47.0074 0.0000 0.0000 0.0000
# 4 0.0000 0.0000 0.0000 31.3708 0.0000 0.0000
# 5 0.0000 0.0000 0.0000 0.0000 14.4266 0.0000
# 6 0.0000 0.0000 0.0000 0.0000 0.0000 33.0527
#
#
#
# Elastic Compliance Matrix: (Units=1/GPa)
#
#
# Indices 1 2 3 4 5 6 
#
# 1 0.029617 -0.002576 0.004485 0.000000 0.000000 0.000000
# 2 -0.002576 0.005961 -0.000738 0.000000 0.000000 0.000000
# 3 0.004485 -0.000738 0.021974 0.000000 0.000000 0.000000
# 4 0.000000 0.000000 0.000000 0.031877 0.000000 0.000000
# 5 0.000000 0.000000 0.000000 0.000000 0.069316 0.000000
# 6 0.000000 0.000000 0.000000 0.000000 0.000000 0.030255
#
#
# Mechanical properties :
#
#
# Convention : Reuss Voigt Hill
#
# Bulk Modulus (GPa) = 16.69598 31.00191 23.84894
# Shear Modulus (GPa) = 24.19893 32.22708 28.21300
#
# Velocity S-wave (km/s) = 3.39744 3.92070 3.66841
# Velocity P-wave (km/s) = 4.83258 5.93998 5.41467
#
# Compressibility (1/GPa) = 0.05989467
#
# Stress axis : x y z
#
# Youngs Moduli (GPa) = 33.76461 167.75890 45.50932
#
# Poissons Ratio (x) = 0.43210 -0.20411
# Poissons Ratio (y) = 0.08697 0.03357
# Poissons Ratio (z) = -0.15144 0.12375
#
# Static dielectric constant tensor:
#      x y z
#    x 1.809280 0.000000 0.000000 
#    y 0.000000 1.832510 0.000000 
#    z 0.000000 0.000000 1.763440 
# 
# From -- ./inp_files/31380.got.cif
#   From: 2010.05.17/outbox.cif.g08.bks.cpg/sg21_16_cif.got.tgz:31380.got - 2010.06.03 23:14:55.
