data_PCOD9324778
_publ_section_title
;
Structure prediction by ZEFSAII (Michael W. Deem and Ramdas Pophale) SiO2 
 PCOD9324778
Probable space group: C 2 2 2
;
_chemical_formula_sum "Si O2"
_cell_formula_units_Z 64
_cell_length_a 8.894410
_cell_length_b 15.055539
_cell_length_c 26.829659
_cell_angle_alpha 90.000000
_cell_angle_beta 90.000000
_cell_angle_gamma 90.000000
_cell_volume 3592.763303
_symmetry_space_group_name_H-M "C 2 2 2"
_symmetry_group_IT_number 21
_symmetry_cell_setting 'orthorhombic'
loop_
_space_group_symop_operation_xyz
x,y,z
-x,-y,z
x,-y,-z
-x,y,-z
1/2+x,1/2+y,z
1/2-x,1/2-y,z
1/2+x,1/2-y,-z
1/2-x,1/2+y,-z
loop_
_atom_site_type_symbol
_atom_site_label
_atom_site_fract_x
_atom_site_fract_y
_atom_site_fract_z
Si Si1 0.679793 0.841834 0.395501
Si Si2 0.317074 0.500000 0.056950
Si Si3 0.318179 0.348822 0.134451
Si Si4 0.320207 0.841834 0.395501
Si Si5 0.827741 0.106626 0.500000
Si Si6 0.819498 0.500000 0.321662
Si Si7 0.180932 0.000000 0.787349
Si Si8 0.318180 0.651178 0.134450
O O1 0.750000 0.750000 0.378692
O O2 0.500000 0.837922 0.398788
O O3 0.745040 0.862907 0.450071
O O4 0.722664 0.916170 0.355576
O O5 0.500000 0.500000 0.056994
O O6 0.273180 0.411051 0.087300
O O7 0.273180 0.588949 0.087300
O O8 0.264811 0.500000 0.000000
O O9 0.250000 0.250000 0.134691
O O10 0.275145 0.411370 0.181612
O O11 0.500000 0.341172 0.134162
O O12 0.250000 0.750000 0.378692
O O13 0.254960 0.862907 0.450071
O O14 0.277337 0.916170 0.355577
O O15 0.000000 0.139505 0.500000
O O16 0.829464 0.000000 0.500000
O O17 0.746191 0.500000 0.267735
O O18 0.000000 0.500000 0.315866
O O19 0.224854 0.088630 0.818388
O O20 0.000000 0.000000 0.785610
O O21 0.250000 0.750000 0.134691
#
# Coordination Sequence:
#
# PCOD9324778 Si02
#       8
#     8   8   8   8   8   8   8   8
#     4  11  23  40  59  82 111 142 176 217 266 318
#     4   8  15  30  51  75 108 147 182 216 260 317
#     4   9  18  33  53  78 105 139 181 221 265 315
#     4  11  23  40  59  82 111 142 176 217 266 318
#     4  11  22  37  60  86 110 142 180 215 259 317
#     4  10  23  40  58  80 108 139 175 222 272 317
#     4   9  20  37  55  74 103 140 177 218 265 322
#     4   9  18  33  53  78 105 139 181 221 265 315
#
# _framework density 17.813586000000001
#
# number of rings (size 3 to 8) (size 9 to 14) (size 15 to 20)
#    0.000    2.250    1.250    3.000    0.000    5.000 
#    0.000    6.875    0.000    0.750    0.000    0.000 
#    0.000    0.000    0.000    0.000    0.000    0.000 
#
# Total GULP energy -178537.906802 kJ/mol
# GULP energy per Si atom -5579.309588 kJ/mol
# Density = 1.777304 g / cm^3
# Si number density = 17.813586 Si / 1000 Ang^3
#
#
#
# Elastic Constant Matrix: (Units=GPa)
#
#
# Indices 1 2 3 4 5 6 
#
# 1 42.0189 52.6606 49.8514 0.0000 0.0000 0.0000
# 2 52.6606 197.3951 105.9467 0.0000 0.0000 0.0000
# 3 49.8514 105.9467 183.8765 0.0000 0.0000 0.0000
# 4 0.0000 0.0000 0.0000 31.0849 0.0000 0.0000
# 5 0.0000 0.0000 0.0000 0.0000 -7.2525 0.0000
# 6 0.0000 0.0000 0.0000 0.0000 0.0000 34.3566
#
#
#
# Elastic Compliance Matrix: (Units=1/GPa)
#
#
# Indices 1 2 3 4 5 6 
#
# 1 0.041150 -0.007224 -0.006994 0.000000 0.000000 0.000000
# 2 -0.007224 0.008602 -0.002998 0.000000 0.000000 0.000000
# 3 -0.006994 -0.002998 0.009062 0.000000 0.000000 0.000000
# 4 0.000000 0.000000 0.000000 0.032170 0.000000 0.000000
# 5 0.000000 0.000000 0.000000 0.000000 -0.137884 0.000000
# 6 0.000000 0.000000 0.000000 0.000000 0.000000 0.029106
#
#
# Mechanical properties :
#
#
# Convention : Reuss Voigt Hill
#
# Bulk Modulus (GPa) = 41.01326 93.35640 67.18483
# Shear Modulus (GPa) = 201.88950 25.95994 113.92472
#
# Velocity S-wave (km/s) = 10.65742 3.82162 8.00579
# Velocity P-wave (km/s) = 13.21039 8.48494 11.10199
#
# Compressibility (1/GPa) = 0.02438236
#
# Stress axis : x y z
#
# Youngs Moduli (GPa) = 24.30130 116.24828 110.35160
#
# Poissons Ratio (x) = 0.83979 0.77179
# Poissons Ratio (y) = 0.17556 0.33083
# Poissons Ratio (z) = 0.16996 0.34851
#
# Static dielectric constant tensor:
#      x y z
#    x 1.602530 0.000000 0.000000 
#    y 0.000000 1.571740 0.000000 
#    z 0.000000 0.000000 1.592100 
# 
# From -- ./inp_files/38523.got.cif
#   From: 2010.05.17/outbox.cif.g08.bks.cpg/sg21_20_cif.got.tgz:38523.got - 2010.06.03 23:14:55.
