data_PCOD9324632
_publ_section_title
;
Structure prediction by ZEFSAII (Michael W. Deem and Ramdas Pophale) SiO2 
 PCOD9324632
Probable space group: C 2 2 2
;
_chemical_formula_sum "Si O2"
_cell_formula_units_Z 22
_cell_length_a 23.431642
_cell_length_b 7.249692
_cell_length_c 7.412851
_cell_angle_alpha 90.000000
_cell_angle_beta 90.000000
_cell_angle_gamma 90.000000
_cell_volume 1259.237215
_symmetry_space_group_name_H-M "C 2 2 2"
_symmetry_group_IT_number 21
_symmetry_cell_setting 'orthorhombic'
loop_
_space_group_symop_operation_xyz
x,y,z
-x,-y,z
x,-y,-z
-x,y,-z
1/2+x,1/2+y,z
1/2-x,1/2-y,z
1/2+x,1/2-y,-z
1/2-x,1/2+y,-z
loop_
_atom_site_type_symbol
_atom_site_label
_atom_site_fract_x
_atom_site_fract_y
_atom_site_fract_z
Si Si1 0.611002 0.348758 0.355404
Si Si2 0.750000 0.250000 0.771431
Si Si3 0.677621 0.000000 0.500000
Si Si4 0.500000 0.500000 0.500000
Si Si5 0.834753 0.000000 0.000000
O O1 0.635224 0.500000 0.500000
O O2 0.543170 0.372820 0.385547
O O3 0.637866 0.154015 0.407441
O O4 0.628206 0.404437 0.155123
O O5 0.782607 0.396956 0.645271
O O6 0.704934 0.353398 0.897985
#
# Coordination Sequence:
#
# PCOD9324632 Si02
#       5
#     8   4   4   2   4
#     4  10  22  43  61  92 123 162 205 266 301 368
#     4  12  22  36  62  96 126 174 200 250 308 378
#     4  12  22  42  64  90 136 166 204 246 320 370
#     4   8  20  46  64  88 124 166 200 268 328 342
#     4  12  22  39  62  94 126 161 216 254 300 372
#
# _framework density 17.470894999999999
#
# number of rings (size 3 to 8) (size 9 to 14) (size 15 to 20)
#    1.091    0.000    3.636    4.364    0.000    1.455 
#    0.000    0.000    0.000    4.364    0.000    0.000 
#    0.000    0.000    0.000    0.000    0.000    0.000 
#
# Total GULP energy -61366.093622 kJ/mol
# GULP energy per Si atom -5578.735784 kJ/mol
# Density = 1.743113 g / cm^3
# Si number density = 17.470895 Si / 1000 Ang^3
#
#
#
# Elastic Constant Matrix: (Units=GPa)
#
#
# Indices 1 2 3 4 5 6 
#
# 1 151.1063 73.3752 90.1172 0.0000 0.0000 0.0000
# 2 73.3752 129.9046 79.3411 0.0000 0.0000 0.0000
# 3 90.1172 79.3411 163.1605 0.0000 0.0000 0.0000
# 4 0.0000 0.0000 0.0000 47.2200 0.0000 0.0000
# 5 0.0000 0.0000 0.0000 0.0000 24.8755 0.0000
# 6 0.0000 0.0000 0.0000 0.0000 0.0000 34.3103
#
#
#
# Elastic Compliance Matrix: (Units=1/GPa)
#
#
# Indices 1 2 3 4 5 6 
#
# 1 0.010897 -0.003526 -0.004304 0.000000 0.000000 0.000000
# 2 -0.003526 0.012091 -0.003932 0.000000 0.000000 0.000000
# 3 -0.004304 -0.003932 0.010418 0.000000 0.000000 0.000000
# 4 0.000000 0.000000 0.000000 0.021177 0.000000 0.000000
# 5 0.000000 0.000000 0.000000 0.000000 0.040200 0.000000
# 6 0.000000 0.000000 0.000000 0.000000 0.000000 0.029146
#
#
# Mechanical properties :
#
#
# Convention : Reuss Voigt Hill
#
# Bulk Modulus (GPa) = 101.19534 103.31540 102.25537
# Shear Modulus (GPa) = 33.16789 34.70370 33.93579
#
# Velocity S-wave (km/s) = 4.36186 4.46171 4.41207
# Velocity P-wave (km/s) = 9.13323 9.26318 9.19843
#
# Compressibility (1/GPa) = 0.00988188
#
# Stress axis : x y z
#
# Youngs Moduli (GPa) = 91.76875 82.70380 95.98692
#
# Poissons Ratio (x) = 0.29165 0.41311
# Poissons Ratio (y) = 0.32361 0.37742
# Poissons Ratio (z) = 0.39496 0.32519
#
# Static dielectric constant tensor:
#      x y z
#    x 1.593870 0.000000 0.000000 
#    y 0.000000 1.583960 0.000000 
#    z 0.000000 0.000000 1.569310 
# 
# From -- ./inp_files/787.got.cif
#   From: 2010.05.17/outbox.cif.g08.bks.cpg/sg21_1_cif.got.tgz:787.got - 2010.06.03 23:14:55.
