data_PCOD9324827
_publ_section_title
;
Structure prediction by ZEFSAII (Michael W. Deem and Ramdas Pophale) SiO2 
 PCOD9324827
Probable space group: C 2 2 2
;
_chemical_formula_sum "Si O2"
_cell_formula_units_Z 26
_cell_length_a 10.574514
_cell_length_b 11.692108
_cell_length_c 9.446257
_cell_angle_alpha 90.000000
_cell_angle_beta 90.000000
_cell_angle_gamma 90.000000
_cell_volume 1167.919721
_symmetry_space_group_name_H-M "C 2 2 2"
_symmetry_group_IT_number 21
_symmetry_cell_setting 'orthorhombic'
loop_
_space_group_symop_operation_xyz
x,y,z
-x,-y,z
x,-y,-z
-x,y,-z
1/2+x,1/2+y,z
1/2-x,1/2-y,z
1/2+x,1/2-y,-z
1/2-x,1/2+y,-z
loop_
_atom_site_type_symbol
_atom_site_label
_atom_site_fract_x
_atom_site_fract_y
_atom_site_fract_z
Si Si1 0.915398 0.323120 0.819441
Si Si2 0.000000 0.000000 0.500000
Si Si3 0.690322 0.126819 0.130316
Si Si4 0.326542 0.587185 0.741574
O O1 0.812119 0.362898 0.706711
O O2 0.900564 0.185545 0.830703
O O3 0.054066 0.370574 0.792492
O O4 0.857314 0.373700 0.966226
O O5 0.090074 0.930307 0.604123
O O6 0.750000 0.250000 0.154093
O O7 0.791227 0.031893 0.179966
#
# Coordination Sequence:
#
# PCOD9324827 Si02
#       4
#     8   2   8   8
#     4  10  23  42  71 107 141 180 237 316 380 429
#     4  12  28  48  68  92 154 212 248 284 340 462
#     4  11  21  40  73 110 140 180 228 320 386 430
#     4  11  23  46  65 102 142 191 246 287 359 444
#
# _framework density 22.261804000000001
#
# number of rings (size 3 to 8) (size 9 to 14) (size 15 to 20)
#    0.000    1.231    3.077    3.692    0.000    2.462 
#   16.615    1.538    0.000    0.000    0.000    0.000 
#    0.000    0.000    0.000    0.000    0.000    0.000 
#
# Total GULP energy -72488.986393 kJ/mol
# GULP energy per Si atom -5576.075876 kJ/mol
# Density = 2.221114 g / cm^3
# Si number density = 22.261804 Si / 1000 Ang^3
#
#
#
# Elastic Constant Matrix: (Units=GPa)
#
#
# Indices 1 2 3 4 5 6 
#
# 1 128.6518 28.3751 50.0073 0.0000 0.0000 0.0000
# 2 28.3751 154.6971 41.5389 0.0000 0.0000 0.0000
# 3 50.0073 41.5389 72.7672 0.0000 0.0000 0.0000
# 4 0.0000 0.0000 0.0000 -18.9429 0.0000 0.0000
# 5 0.0000 0.0000 0.0000 0.0000 45.7926 0.0000
# 6 0.0000 0.0000 0.0000 0.0000 0.0000 -25.4973
#
#
#
# Elastic Compliance Matrix: (Units=1/GPa)
#
#
# Indices 1 2 3 4 5 6 
#
# 1 0.010606 0.000014 -0.007297 0.000000 0.000000 0.000000
# 2 0.000014 0.007634 -0.004368 0.000000 0.000000 0.000000
# 3 -0.007297 -0.004368 0.021250 0.000000 0.000000 0.000000
# 4 0.000000 0.000000 0.000000 -0.052790 0.000000 0.000000
# 5 0.000000 0.000000 0.000000 0.000000 0.021838 0.000000
# 6 0.000000 0.000000 0.000000 0.000000 0.000000 -0.039220
#
#
# Mechanical properties :
#
#
# Convention : Reuss Voigt Hill
#
# Bulk Modulus (GPa) = 61.76715 66.21764 63.99240
# Shear Modulus (GPa) = -2520.05667 16.01678 -1252.01994
#
# Velocity S-wave (km/s) = -33.68184 2.68521 -23.74085
# Velocity P-wave (km/s) = 38.53331 6.27880 26.88301
#
# Compressibility (1/GPa) = 0.01618983
#
# Stress axis : x y z
#
# Youngs Moduli (GPa) = 94.28543 130.98455 47.05852
#
# Poissons Ratio (x) = -0.00182 0.34337
# Poissons Ratio (y) = -0.00131 0.20554
# Poissons Ratio (z) = 0.68797 0.57209
#
# Static dielectric constant tensor:
#      x y z
#    x 1.853890 0.000000 0.000000 
#    y 0.000000 1.944890 0.000000 
#    z 0.000000 0.000000 1.853320 
# 
# From -- ./inp_files/11903.got.cif
#   From: 2010.05.17/outbox.cif.g08.bks.cpg/sg21_6_cif.got.tgz:11903.got - 2010.06.03 23:14:55.
