data_PCOD9324162
_publ_section_title
;
Structure prediction by ZEFSAII (Michael W. Deem and Ramdas Pophale) SiO2 
 PCOD9324162
Probable space group: C 2 2 2
;
_chemical_formula_sum "Si O2"
_cell_formula_units_Z 46
_cell_length_a 9.472216
_cell_length_b 19.992662
_cell_length_c 11.540334
_cell_angle_alpha 90.000000
_cell_angle_beta 90.000000
_cell_angle_gamma 90.000000
_cell_volume 2185.448592
_symmetry_space_group_name_H-M "C 2 2 2"
_symmetry_group_IT_number 21
_symmetry_cell_setting 'orthorhombic'
loop_
_space_group_symop_operation_xyz
x,y,z
-x,-y,z
x,-y,-z
-x,y,-z
1/2+x,1/2+y,z
1/2-x,1/2-y,z
1/2+x,1/2-y,-z
1/2-x,1/2+y,-z
loop_
_atom_site_type_symbol
_atom_site_label
_atom_site_fract_x
_atom_site_fract_y
_atom_site_fract_z
Si Si1 0.097158 0.897515 0.186311
Si Si2 0.077784 0.564694 0.623546
Si Si3 0.750000 0.750000 0.481493
Si Si4 0.111842 0.116108 0.396029
Si Si5 0.631294 0.165061 0.306765
Si Si6 0.000000 0.000000 0.000000
Si Si7 0.601570 0.745678 0.913005
O O1 0.240772 0.883123 0.261545
O O2 0.067496 0.830249 0.114461
O O3 0.972037 0.902000 0.279763
O O4 0.093159 0.955701 0.090145
O O5 0.244698 0.571546 0.603562
O O6 0.000000 0.500000 0.677654
O O7 0.000000 0.569271 0.500000
O O8 0.017397 0.627990 0.689961
O O9 0.840986 0.804940 0.409454
O O10 0.666227 0.798863 0.571380
O O11 0.000000 0.103656 0.500000
O O12 0.615948 0.220460 0.209975
O O13 0.750000 0.750000 0.975081
O O14 0.500000 0.781805 0.000000
#
# Coordination Sequence:
#
# PCOD9324162 Si02
#       7
#     8   8   4   8   8   2   8
#     4  11  24  45  68 102 135 196 253 302 373 441
#     4  11  25  43  62  96 145 188 225 286 367 453
#     4  12  22  40  70 110 150 180 230 306 398 452
#     4  12  25  42  73 111 144 190 242 302 381 471
#     4  11  22  43  68  98 147 185 231 315 378 443
#     4  12  28  48  74  90 156 196 266 336 352 440
#     4  10  21  40  65  95 133 173 245 309 363 422
#
# _framework density 21.048310000000001
#
# number of rings (size 3 to 8) (size 9 to 14) (size 15 to 20)
#    0.000    0.870    6.957    0.000    7.304    1.391 
#    0.000    0.000    0.000    1.043    0.000    0.000 
#    0.000    0.000    0.000    0.000    0.000    0.000 
#
# Total GULP energy -128209.202779 kJ/mol
# GULP energy per Si atom -5574.313164 kJ/mol
# Density = 2.100040 g / cm^3
# Si number density = 21.048310 Si / 1000 Ang^3
#
#
#
# Elastic Constant Matrix: (Units=GPa)
#
#
# Indices 1 2 3 4 5 6 
#
# 1 133.1497 36.7532 48.1643 0.0000 0.0000 0.0000
# 2 36.7532 91.9075 27.6160 0.0000 0.0000 0.0000
# 3 48.1643 27.6160 81.7174 0.0000 0.0000 0.0000
# 4 0.0000 0.0000 0.0000 51.4552 0.0000 0.0000
# 5 0.0000 0.0000 0.0000 0.0000 28.7094 0.0000
# 6 0.0000 0.0000 0.0000 0.0000 0.0000 14.8550
#
#
#
# Elastic Compliance Matrix: (Units=1/GPa)
#
#
# Indices 1 2 3 4 5 6 
#
# 1 0.010032 -0.002488 -0.005072 0.000000 0.000000 0.000000
# 2 -0.002488 0.012727 -0.002835 0.000000 0.000000 0.000000
# 3 -0.005072 -0.002835 0.016185 0.000000 0.000000 0.000000
# 4 0.000000 0.000000 0.000000 0.019434 0.000000 0.000000
# 5 0.000000 0.000000 0.000000 0.000000 0.034832 0.000000
# 6 0.000000 0.000000 0.000000 0.000000 0.000000 0.067317
#
#
# Mechanical properties :
#
#
# Convention : Reuss Voigt Hill
#
# Bulk Modulus (GPa) = 55.08244 59.09351 57.08797
# Shear Modulus (GPa) = 26.68553 31.95334 29.31943
#
# Velocity S-wave (km/s) = 3.56451 3.90050 3.73629
# Velocity P-wave (km/s) = 6.57019 6.95854 6.76715
#
# Compressibility (1/GPa) = 0.01815461
#
# Stress axis : x y z
#
# Youngs Moduli (GPa) = 99.68404 78.57255 61.78641
#
# Poissons Ratio (x) = 0.19546 0.31338
# Poissons Ratio (y) = 0.24797 0.17516
# Poissons Ratio (z) = 0.50560 0.22274
#
# Static dielectric constant tensor:
#      x y z
#    x 1.811940 0.000000 0.000000 
#    y 0.000000 1.843590 0.000000 
#    z 0.000000 0.000000 1.781560 
# 
# From -- ./inp_files/22821.got.cif
#   From: 2010.05.17/outbox.cif.g08.bks.cpg/sg21_12_cif.got.tgz:22821.got - 2010.06.03 23:14:55.
