data_PCOD9324111
_publ_section_title
;
Structure prediction by ZEFSAII (Michael W. Deem and Ramdas Pophale) SiO2 
 PCOD9324111
Probable space group: C 2 2 2
;
_chemical_formula_sum "Si O2"
_cell_formula_units_Z 24
_cell_length_a 8.698320
_cell_length_b 15.344084
_cell_length_c 7.756633
_cell_angle_alpha 90.000000
_cell_angle_beta 90.000000
_cell_angle_gamma 90.000000
_cell_volume 1035.260375
_symmetry_space_group_name_H-M "C 2 2 2"
_symmetry_group_IT_number 21
_symmetry_cell_setting 'orthorhombic'
loop_
_space_group_symop_operation_xyz
x,y,z
-x,-y,z
x,-y,-z
-x,y,-z
1/2+x,1/2+y,z
1/2-x,1/2-y,z
1/2+x,1/2-y,-z
1/2-x,1/2+y,-z
loop_
_atom_site_type_symbol
_atom_site_label
_atom_site_fract_x
_atom_site_fract_y
_atom_site_fract_z
Si Si1 0.606062 0.914427 0.733153
Si Si2 0.304694 0.846144 0.617336
Si Si3 0.680322 0.347973 0.967303
O O1 0.475080 0.840254 0.703294
O O2 0.692372 0.905763 0.551055
O O3 0.717772 0.899093 0.892275
O O4 0.500000 0.000000 0.749114
O O5 0.250000 0.750000 0.567935
O O6 0.204487 0.882584 0.773662
O O7 0.750000 0.250000 0.969537
O O8 0.500000 0.347766 0.000000
#
# Coordination Sequence:
#
# PCOD9324111 Si02
#       3
#     8   8   8
#     4  11  24  43  68  98 138 186 233 290 359 419
#     4  10  21  39  67  97 131 180 234 284 338 414
#     4  11  23  41  70 105 140 183 236 290 348 425
#
# _framework density 23.182573000000001
#
# number of rings (size 3 to 8) (size 9 to 14) (size 15 to 20)
#    0.000    1.333    0.000    8.000    0.000   10.667 
#    0.000    3.333    0.000   16.000    0.000    0.000 
#    0.000    0.000    0.000    0.000    0.000    0.000 
#
# Total GULP energy -67107.568034 kJ/mol
# GULP energy per Si atom -5592.297336 kJ/mol
# Density = 2.312981 g / cm^3
# Si number density = 23.182573 Si / 1000 Ang^3
#
#
#
# Elastic Constant Matrix: (Units=GPa)
#
#
# Indices 1 2 3 4 5 6 
#
# 1 117.7334 61.9396 66.8628 0.0000 0.0000 0.0000
# 2 61.9396 121.8185 64.6945 0.0000 0.0000 0.0000
# 3 66.8628 64.6945 188.0339 0.0000 0.0000 0.0000
# 4 0.0000 0.0000 0.0000 20.2216 0.0000 0.0000
# 5 0.0000 0.0000 0.0000 0.0000 42.8367 0.0000
# 6 0.0000 0.0000 0.0000 0.0000 0.0000 45.7654
#
#
#
# Elastic Compliance Matrix: (Units=1/GPa)
#
#
# Indices 1 2 3 4 5 6 
#
# 1 0.012701 -0.004967 -0.002807 0.000000 0.000000 0.000000
# 2 -0.004967 0.011987 -0.002358 0.000000 0.000000 0.000000
# 3 -0.002807 -0.002358 0.007128 0.000000 0.000000 0.000000
# 4 0.000000 0.000000 0.000000 0.049452 0.000000 0.000000
# 5 0.000000 0.000000 0.000000 0.000000 0.023344 0.000000
# 6 0.000000 0.000000 0.000000 0.000000 0.000000 0.021851
#
#
# Mechanical properties :
#
#
# Convention : Reuss Voigt Hill
#
# Bulk Modulus (GPa) = 86.57361 90.50884 88.54122
# Shear Modulus (GPa) = 33.20532 37.37067 35.28799
#
# Velocity S-wave (km/s) = 3.78873 4.01935 3.90574
# Velocity P-wave (km/s) = 7.52095 7.78888 7.65609
#
# Compressibility (1/GPa) = 0.01155086
#
# Stress axis : x y z
#
# Youngs Moduli (GPa) = 78.73146 83.42579 140.29690
#
# Poissons Ratio (x) = 0.41439 0.39388
# Poissons Ratio (y) = 0.39107 0.33080
# Poissons Ratio (z) = 0.22104 0.19671
#
# Static dielectric constant tensor:
#      x y z
#    x 1.881770 0.000000 0.000000 
#    y 0.000000 1.951800 0.000000 
#    z 0.000000 0.000000 1.919690 
# 
# From -- ./inp_files/9645.got.cif
#   From: 2010.05.17/outbox.cif.g08.bks.cpg/sg21_5_cif.got.tgz:9645.got - 2010.06.03 23:14:55.
