data_PCOD9324502
_publ_section_title
;
Structure prediction by ZEFSAII (Michael W. Deem and Ramdas Pophale) SiO2 
 PCOD9324502
Probable space group: C 2 2 2
;
_chemical_formula_sum "Si O2"
_cell_formula_units_Z 64
_cell_length_a 9.611063
_cell_length_b 21.631076
_cell_length_c 15.251212
_cell_angle_alpha 90.000000
_cell_angle_beta 90.000000
_cell_angle_gamma 90.000000
_cell_volume 3170.690893
_symmetry_space_group_name_H-M "C 2 2 2"
_symmetry_group_IT_number 21
_symmetry_cell_setting 'orthorhombic'
loop_
_space_group_symop_operation_xyz
x,y,z
-x,-y,z
x,-y,-z
-x,y,-z
1/2+x,1/2+y,z
1/2-x,1/2-y,z
1/2+x,1/2-y,-z
1/2-x,1/2+y,-z
loop_
_atom_site_type_symbol
_atom_site_label
_atom_site_fract_x
_atom_site_fract_y
_atom_site_fract_z
Si Si1 0.548606 0.138764 0.263007
Si Si2 0.407094 0.174442 0.080519
Si Si3 0.582229 0.247626 0.406002
Si Si4 0.531451 0.647491 0.272507
Si Si5 0.212671 0.421442 0.324790
Si Si6 0.158166 0.926228 0.493357
Si Si7 0.409657 0.322017 0.080319
Si Si8 0.794434 0.937573 0.698927
O O1 0.481992 0.162710 0.173066
O O2 0.557396 0.190712 0.338553
O O3 0.445990 0.086518 0.300418
O O4 0.695406 0.106082 0.244677
O O5 0.398019 0.248300 0.068813
O O6 0.247391 0.151524 0.080431
O O7 0.500000 0.149620 0.000000
O O8 0.500000 0.244125 0.500000
O O9 0.750000 0.250000 0.422119
O O10 0.526787 0.305560 0.346198
O O11 0.694044 0.632301 0.281959
O O12 0.514266 0.669450 0.173361
O O13 0.452362 0.582243 0.284353
O O14 0.244924 0.409139 0.426592
O O15 0.263123 0.490010 0.298395
O O16 0.228663 0.914852 0.401062
O O17 0.000000 0.900853 0.500000
O O18 0.142904 0.000000 0.500000
O O19 0.500000 0.347372 0.000000
#
# Coordination Sequence:
#
# PCOD9324502 Si02
#       8
#     8   8   8   8   8   8   8   8
#     4  12  25  43  66  93 137 170 213 267 329 397
#     4  10  22  41  65  95 129 165 211 270 331 388
#     4  12  30  45  64  98 137 182 217 259 335 394
#     4  12  23  41  70  93 134 171 217 268 320 395
#     4  11  24  40  66  92 128 175 222 272 318 374
#     4   9  18  35  57  84 117 162 223 266 297 346
#     4  10  22  40  66  98 124 164 218 270 322 386
#     4  11  24  40  63  96 126 177 225 268 314 377
#
# _framework density 20.184877
#
# number of rings (size 3 to 8) (size 9 to 14) (size 15 to 20)
#    0.000    1.125    5.000    0.750    7.000    0.000 
#    0.000    1.875    0.000    4.500    0.000    0.000 
#    0.000    0.000    0.000    0.000    0.000    0.000 
#
# Total GULP energy -178516.586518 kJ/mol
# GULP energy per Si atom -5578.643329 kJ/mol
# Density = 2.013894 g / cm^3
# Si number density = 20.184877 Si / 1000 Ang^3
#
#
#
# Elastic Constant Matrix: (Units=GPa)
#
#
# Indices 1 2 3 4 5 6 
#
# 1 86.8661 16.2690 52.9458 0.0000 0.0000 0.0000
# 2 16.2690 61.5496 15.0015 0.0000 0.0000 0.0000
# 3 52.9458 15.0015 141.4665 0.0000 0.0000 0.0000
# 4 0.0000 0.0000 0.0000 14.6864 0.0000 0.0000
# 5 0.0000 0.0000 0.0000 0.0000 30.5661 0.0000
# 6 0.0000 0.0000 0.0000 0.0000 0.0000 29.9138
#
#
#
# Elastic Compliance Matrix: (Units=1/GPa)
#
#
# Indices 1 2 3 4 5 6 
#
# 1 0.015348 -0.002727 -0.005455 0.000000 0.000000 0.000000
# 2 -0.002727 0.017163 -0.000799 0.000000 0.000000 0.000000
# 3 -0.005455 -0.000799 0.009195 0.000000 0.000000 0.000000
# 4 0.000000 0.000000 0.000000 0.068090 0.000000 0.000000
# 5 0.000000 0.000000 0.000000 0.000000 0.032716 0.000000
# 6 0.000000 0.000000 0.000000 0.000000 0.000000 0.033429
#
#
# Mechanical properties :
#
#
# Convention : Reuss Voigt Hill
#
# Bulk Modulus (GPa) = 42.11818 50.92389 46.52103
# Shear Modulus (GPa) = 24.77483 28.74431 26.75957
#
# Velocity S-wave (km/s) = 3.50722 3.77776 3.64500
# Velocity P-wave (km/s) = 6.10838 6.65673 6.38844
#
# Compressibility (1/GPa) = 0.02374272
#
# Stress axis : x y z
#
# Youngs Moduli (GPa) = 65.15712 58.26581 108.75336
#
# Poissons Ratio (x) = 0.15890 0.59323
# Poissons Ratio (y) = 0.17770 0.08693
# Poissons Ratio (z) = 0.35542 0.04657
#
# Static dielectric constant tensor:
#      x y z
#    x 1.725520 0.000000 0.000000 
#    y 0.000000 1.726390 0.000000 
#    z 0.000000 0.000000 1.734150 
# 
# From -- ./inp_files/30906.got.cif
#   From: 2010.05.17/outbox.cif.g08.bks.cpg/sg21_16_cif.got.tgz:30906.got - 2010.06.03 23:14:55.
