data_PCOD9324883
_publ_section_title
;
Structure prediction by ZEFSAII (Michael W. Deem and Ramdas Pophale) SiO2 
 PCOD9324883
Probable space group: C 2 2 2
;
_chemical_formula_sum "Si O2"
_cell_formula_units_Z 64
_cell_length_a 19.462721
_cell_length_b 13.647870
_cell_length_c 10.828526
_cell_angle_alpha 90.000000
_cell_angle_beta 90.000000
_cell_angle_gamma 90.000000
_cell_volume 2876.323819
_symmetry_space_group_name_H-M "C 2 2 2"
_symmetry_group_IT_number 21
_symmetry_cell_setting 'orthorhombic'
loop_
_space_group_symop_operation_xyz
x,y,z
-x,-y,z
x,-y,-z
-x,y,-z
1/2+x,1/2+y,z
1/2-x,1/2-y,z
1/2+x,1/2-y,-z
1/2-x,1/2+y,-z
loop_
_atom_site_type_symbol
_atom_site_label
_atom_site_fract_x
_atom_site_fract_y
_atom_site_fract_z
Si Si1 0.292295 0.648968 0.652939
Si Si2 0.456016 0.099802 0.308291
Si Si3 0.072230 0.886565 0.041867
Si Si4 0.573498 0.236651 0.230220
Si Si5 0.676539 0.988757 0.369695
Si Si6 0.285479 0.354566 0.067690
Si Si7 0.924582 0.223669 0.510644
Si Si8 0.289954 0.852147 0.174293
O O1 0.250000 0.750000 0.655474
O O2 0.239690 0.577664 0.586933
O O3 0.292818 0.606080 0.793195
O O4 0.365432 0.667218 0.587275
O O5 0.503591 0.172480 0.225120
O O6 0.378623 0.063382 0.277270
O O7 0.440444 0.175240 0.418816
O O8 0.500000 0.000000 0.328632
O O9 0.073378 0.848703 0.181812
O O10 0.136962 0.841700 0.975247
O O11 0.000000 0.844762 0.000000
O O12 0.074137 0.000000 0.000000
O O13 0.596404 0.246181 0.372674
O O14 0.631004 0.177895 0.154958
O O15 0.636743 0.000000 0.500000
O O16 0.706820 0.079150 0.293674
O O17 0.250000 0.250000 0.081033
O O18 0.245784 0.398464 0.947779
O O19 0.000000 0.172533 0.500000
O O20 0.250000 0.750000 0.198284
#
# Coordination Sequence:
#
# PCOD9324883 Si02
#       8
#     8   8   8   8   8   8   8   8
#     4  11  25  43  68 104 145 196 250 307 385 461
#     4  11  23  41  70 114 155 202 251 307 397 468
#     4  11  26  46  72 104 138 197 258 312 379 459
#     4  11  23  41  75 103 151 195 252 319 381 465
#     4  12  27  40  70 111 154 199 251 319 383 475
#     4  10  23  45  72  99 136 190 248 310 373 446
#     4  10  24  41  71 108 149 203 246 318 386 459
#     4  11  23  43  70 106 145 197 254 316 384 447
#
# _framework density 22.250623999999998
#
# number of rings (size 3 to 8) (size 9 to 14) (size 15 to 20)
#    0.000    1.125    5.000    0.750   10.500    0.000 
#    0.000    0.000    0.000    0.750    0.000    0.000 
#    0.000    0.000    0.000    0.000    0.000    0.000 
#
# Total GULP energy -178164.085455 kJ/mol
# GULP energy per Si atom -5567.627670 kJ/mol
# Density = 2.219998 g / cm^3
# Si number density = 22.250624 Si / 1000 Ang^3
#
#
#
# Elastic Constant Matrix: (Units=GPa)
#
#
# Indices 1 2 3 4 5 6 
#
# 1 166.2101 36.4965 40.1438 0.0000 0.0000 0.0000
# 2 36.4965 103.7216 33.1851 0.0000 0.0000 0.0000
# 3 40.1438 33.1851 63.7662 0.0000 0.0000 0.0000
# 4 0.0000 0.0000 0.0000 77.5164 0.0000 0.0000
# 5 0.0000 0.0000 0.0000 0.0000 24.0602 0.0000
# 6 0.0000 0.0000 0.0000 0.0000 0.0000 40.2099
#
#
#
# Elastic Compliance Matrix: (Units=1/GPa)
#
#
# Indices 1 2 3 4 5 6 
#
# 1 0.007240 -0.001307 -0.003878 0.000000 0.000000 0.000000
# 2 -0.001307 0.011803 -0.005320 0.000000 0.000000 0.000000
# 3 -0.003878 -0.005320 0.020892 0.000000 0.000000 0.000000
# 4 0.000000 0.000000 0.000000 0.012901 0.000000 0.000000
# 5 0.000000 0.000000 0.000000 0.000000 0.041562 0.000000
# 6 0.000000 0.000000 0.000000 0.000000 0.000000 0.024869
#
#
# Mechanical properties :
#
#
# Convention : Reuss Voigt Hill
#
# Bulk Modulus (GPa) = 52.83680 61.48319 57.15999
# Shear Modulus (GPa) = 34.10983 43.28213 38.69598
#
# Velocity S-wave (km/s) = 3.91958 4.41524 4.17477
# Velocity P-wave (km/s) = 6.65447 7.32697 6.99880
#
# Compressibility (1/GPa) = 0.01892620
#
# Stress axis : x y z
#
# Youngs Moduli (GPa) = 138.12100 84.72362 47.86506
#
# Poissons Ratio (x) = 0.11072 0.18561
# Poissons Ratio (y) = 0.18051 0.25463
# Poissons Ratio (z) = 0.53561 0.45071
#
# Static dielectric constant tensor:
#      x y z
#    x 1.801560 0.000000 0.000000 
#    y 0.000000 1.869200 0.000000 
#    z 0.000000 0.000000 1.891030 
# 
# From -- ./inp_files/26235.got.cif
#   From: 2010.05.17/outbox.cif.g08.bks.cpg/sg21_14_cif.got.tgz:26235.got - 2010.06.03 23:14:55.
