data_PCOD9324268
_publ_section_title
;
Structure prediction by ZEFSAII (Michael W. Deem and Ramdas Pophale) SiO2 
 PCOD9324268
Probable space group: C 2 2 2
;
_chemical_formula_sum "Si O2"
_cell_formula_units_Z 26
_cell_length_a 7.660926
_cell_length_b 12.132090
_cell_length_c 12.204982
_cell_angle_alpha 90.000000
_cell_angle_beta 90.000000
_cell_angle_gamma 90.000000
_cell_volume 1134.368176
_symmetry_space_group_name_H-M "C 2 2 2"
_symmetry_group_IT_number 21
_symmetry_cell_setting 'orthorhombic'
loop_
_space_group_symop_operation_xyz
x,y,z
-x,-y,z
x,-y,-z
-x,y,-z
1/2+x,1/2+y,z
1/2-x,1/2-y,z
1/2+x,1/2-y,-z
1/2-x,1/2+y,-z
loop_
_atom_site_type_symbol
_atom_site_label
_atom_site_fract_x
_atom_site_fract_y
_atom_site_fract_z
Si Si1 0.606878 0.332612 0.217878
Si Si2 0.259597 0.075569 0.185813
Si Si3 0.000000 0.500000 0.000000
Si Si4 0.070218 0.690725 0.610881
O O1 0.750000 0.250000 0.167198
O O2 0.690907 0.453299 0.215010
O O3 0.412247 0.348852 0.168919
O O4 0.560401 0.281660 0.337183
O O5 0.376192 0.070394 0.078463
O O6 0.377253 0.114515 0.287248
O O7 0.250000 0.750000 0.580755
O O8 0.000000 0.638237 0.500000
#
# Coordination Sequence:
#
# PCOD9324268 Si02
#       4
#     8   8   2   8
#     4  10  21  43  68  97 134 174 228 283 340 408
#     4  10  24  44  67  97 136 181 227 284 343 399
#     4  12  24  46  70  96 140 184 232 284 340 416
#     4  10  21  42  69  99 134 173 221 278 343 412
#
# _framework density 22.920248000000001
#
# number of rings (size 3 to 8) (size 9 to 14) (size 15 to 20)
#    0.000    1.846    0.000    2.769    0.000    2.462 
#    0.000   63.846    0.000    0.000    0.000    0.000 
#    0.000    0.000    0.000    0.000    0.000    0.000 
#
# Total GULP energy -72651.857086 kJ/mol
# GULP energy per Si atom -5588.604391 kJ/mol
# Density = 2.286808 g / cm^3
# Si number density = 22.920248 Si / 1000 Ang^3
#
#
#
# Elastic Constant Matrix: (Units=GPa)
#
#
# Indices 1 2 3 4 5 6 
#
# 1 171.6828 60.6373 101.4009 0.0000 0.0000 0.0000
# 2 60.6373 100.2037 53.7719 0.0000 0.0000 0.0000
# 3 101.4009 53.7719 169.2898 0.0000 0.0000 0.0000
# 4 0.0000 0.0000 0.0000 22.6652 0.0000 0.0000
# 5 0.0000 0.0000 0.0000 0.0000 31.5714 0.0000
# 6 0.0000 0.0000 0.0000 0.0000 0.0000 43.8480
#
#
#
# Elastic Compliance Matrix: (Units=1/GPa)
#
#
# Indices 1 2 3 4 5 6 
#
# 1 0.009879 -0.003379 -0.004844 0.000000 0.000000 0.000000
# 2 -0.003379 0.013186 -0.002164 0.000000 0.000000 0.000000
# 3 -0.004844 -0.002164 0.009496 0.000000 0.000000 0.000000
# 4 0.000000 0.000000 0.000000 0.044121 0.000000 0.000000
# 5 0.000000 0.000000 0.000000 0.000000 0.031674 0.000000
# 6 0.000000 0.000000 0.000000 0.000000 0.000000 0.022806
#
#
# Mechanical properties :
#
#
# Convention : Reuss Voigt Hill
#
# Bulk Modulus (GPa) = 84.84447 96.97737 90.91092
# Shear Modulus (GPa) = 32.07894 34.64132 33.36013
#
# Velocity S-wave (km/s) = 3.74517 3.89187 3.81922
# Velocity P-wave (km/s) = 7.46989 7.91190 7.69407
#
# Compressibility (1/GPa) = 0.01178627
#
# Stress axis : x y z
#
# Youngs Moduli (GPa) = 101.22283 75.83925 105.30631
#
# Poissons Ratio (x) = 0.25624 0.51013
# Poissons Ratio (y) = 0.34201 0.22793
# Poissons Ratio (z) = 0.49035 0.16415
#
# Static dielectric constant tensor:
#      x y z
#    x 1.894260 0.000000 0.000000 
#    y 0.000000 1.883790 0.000000 
#    z 0.000000 0.000000 1.793310 
# 
# From -- ./inp_files/21644.got.cif
#   From: 2010.05.17/outbox.cif.g08.bks.cpg/sg21_11_cif.got.tgz:21644.got - 2010.06.03 23:14:55.
