data_PCOD9324947
_publ_section_title
;
Structure prediction by ZEFSAII (Michael W. Deem and Ramdas Pophale) SiO2 
 PCOD9324947
Probable space group: C 2 2 2
;
_chemical_formula_sum "Si O2"
_cell_formula_units_Z 28
_cell_length_a 13.214717
_cell_length_b 8.390267
_cell_length_c 10.816107
_cell_angle_alpha 90.000000
_cell_angle_beta 90.000000
_cell_angle_gamma 90.000000
_cell_volume 1199.235906
_symmetry_space_group_name_H-M "C 2 2 2"
_symmetry_group_IT_number 21
_symmetry_cell_setting 'orthorhombic'
loop_
_space_group_symop_operation_xyz
x,y,z
-x,-y,z
x,-y,-z
-x,y,-z
1/2+x,1/2+y,z
1/2-x,1/2-y,z
1/2+x,1/2-y,-z
1/2-x,1/2+y,-z
loop_
_atom_site_type_symbol
_atom_site_label
_atom_site_fract_x
_atom_site_fract_y
_atom_site_fract_z
Si Si1 0.649032 0.822293 0.552430
Si Si2 0.104447 0.282213 0.063957
Si Si3 0.539371 0.677866 0.329361
Si Si4 0.768988 0.000000 0.000000
O O1 0.750000 0.750000 0.610805
O O2 0.622582 0.715171 0.432568
O O3 0.553103 0.799168 0.642118
O O4 0.659033 0.000000 0.500000
O O5 0.080339 0.199278 0.192713
O O6 0.158045 0.149669 0.975680
O O7 0.186087 0.421351 0.091781
O O8 0.000000 0.330373 0.000000
O O9 0.500000 0.500000 0.345910
#
# Coordination Sequence:
#
# PCOD9324947 Si02
#       4
#     8   8   8   4
#     4  11  24  44  68 104 147 189 246 297 367 451
#     4  11  24  46  68 102 146 179 246 303 363 439
#     4  11  23  43  71 100 143 192 235 308 370 426
#     4  10  24  42  68 100 130 192 234 290 366 428
#
# _framework density 23.348199999999999
#
# number of rings (size 3 to 8) (size 9 to 14) (size 15 to 20)
#    0.000    1.143    0.000    7.714    4.000    4.571 
#   15.429    0.000    0.000    0.000    0.000    0.000 
#    0.000    0.000    0.000    0.000    0.000    0.000 
#
# Total GULP energy -78213.681090 kJ/mol
# GULP energy per Si atom -5586.691506 kJ/mol
# Density = 2.329506 g / cm^3
# Si number density = 23.348200 Si / 1000 Ang^3
#
#
#
# Elastic Constant Matrix: (Units=GPa)
#
#
# Indices 1 2 3 4 5 6 
#
# 1 133.6886 38.0022 5.1545 0.0000 0.0000 0.0000
# 2 38.0022 138.0139 22.8927 0.0000 0.0000 0.0000
# 3 5.1545 22.8927 53.0066 0.0000 0.0000 0.0000
# 4 0.0000 0.0000 0.0000 9.8488 0.0000 0.0000
# 5 0.0000 0.0000 0.0000 0.0000 -1.5522 0.0000
# 6 0.0000 0.0000 0.0000 0.0000 0.0000 37.1160
#
#
#
# Elastic Compliance Matrix: (Units=1/GPa)
#
#
# Indices 1 2 3 4 5 6 
#
# 1 0.008117 -0.002266 0.000190 0.000000 0.000000 0.000000
# 2 -0.002266 0.008438 -0.003424 0.000000 0.000000 0.000000
# 3 0.000190 -0.003424 0.020326 0.000000 0.000000 0.000000
# 4 0.000000 0.000000 0.000000 0.101535 0.000000 0.000000
# 5 0.000000 0.000000 0.000000 0.000000 -0.644255 0.000000
# 6 0.000000 0.000000 0.000000 0.000000 0.000000 0.026943
#
#
# Mechanical properties :
#
#
# Convention : Reuss Voigt Hill
#
# Bulk Modulus (GPa) = 38.64107 50.75643 44.69875
# Shear Modulus (GPa) = -10.88686 26.32652 7.71983
#
# Velocity S-wave (km/s) = -2.16170 3.36156 1.82032
# Velocity P-wave (km/s) = 3.21796 6.07066 4.85840
#
# Compressibility (1/GPa) = 0.02587920
#
# Stress axis : x y z
#
# Youngs Moduli (GPa) = 123.19788 118.51701 49.19863
#
# Poissons Ratio (x) = 0.26861 -0.00932
# Poissons Ratio (y) = 0.27922 0.16844
# Poissons Ratio (z) = -0.02335 0.40576
#
# Static dielectric constant tensor:
#      x y z
#    x 1.902370 0.000000 0.000000 
#    y 0.000000 1.904460 0.000000 
#    z 0.000000 0.000000 1.824250 
# 
# From -- ./inp_files/24626.got.cif
#   From: 2010.05.17/outbox.cif.g08.bks.cpg/sg21_13_cif.got.tgz:24626.got - 2010.06.03 23:14:55.
