data_PCOD9324121
_publ_section_title
;
Structure prediction by ZEFSAII (Michael W. Deem and Ramdas Pophale) SiO2 
 PCOD9324121
Probable space group: C 2 2 2
;
_chemical_formula_sum "Si O2"
_cell_formula_units_Z 52
_cell_length_a 7.916602
_cell_length_b 20.201555
_cell_length_c 15.771314
_cell_angle_alpha 90.000000
_cell_angle_beta 90.000000
_cell_angle_gamma 90.000000
_cell_volume 2522.269512
_symmetry_space_group_name_H-M "C 2 2 2"
_symmetry_group_IT_number 21
_symmetry_cell_setting 'orthorhombic'
loop_
_space_group_symop_operation_xyz
x,y,z
-x,-y,z
x,-y,-z
-x,y,-z
1/2+x,1/2+y,z
1/2-x,1/2-y,z
1/2+x,1/2-y,-z
1/2-x,1/2+y,-z
loop_
_atom_site_type_symbol
_atom_site_label
_atom_site_fract_x
_atom_site_fract_y
_atom_site_fract_z
Si Si1 0.299011 0.424209 0.011013
Si Si2 0.051954 0.927071 0.402064
Si Si3 0.696927 0.014050 0.292409
Si Si4 0.723111 0.120755 0.800101
Si Si5 0.593185 0.708890 0.326578
Si Si6 0.671369 0.875154 0.838071
Si Si7 0.250000 0.750000 0.262362
O O1 0.205494 0.382763 0.937577
O O2 0.239490 0.500000 0.000000
O O3 0.500000 0.422522 0.000000
O O4 0.272063 0.399147 0.105522
O O5 0.243276 0.937392 0.369463
O O6 0.000000 0.930151 0.500000
O O7 0.972746 0.858273 0.371570
O O8 0.000000 0.000000 0.365302
O O9 0.731007 0.058048 0.208688
O O10 0.500000 0.000000 0.306120
O O11 0.756210 0.940491 0.264258
O O12 0.825485 0.181757 0.761156
O O13 0.523185 0.133098 0.810226
O O14 0.750000 0.750000 0.367150
O O15 0.424062 0.752205 0.315061
O O16 0.767289 0.813885 0.796964
#
# Coordination Sequence:
#
# PCOD9324121 Si02
#       7
#     8   8   8   8   8   8   4
#     4  11  23  36  58  95 136 174 227 292 342 394
#     4  11  24  45  75 105 138 176 227 299 362 421
#     4  10  21  39  73 100 131 176 233 286 342 409
#     4  11  22  40  67  95 129 182 231 283 339 402
#     4  12  25  46  72  98 139 187 234 283 352 438
#     4  11  22  40  62  97 133 178 232 282 337 407
#     4  12  24  42  68  94 134 186 236 274 344 426
#
# _framework density 20.616354000000001
#
# number of rings (size 3 to 8) (size 9 to 14) (size 15 to 20)
#    0.000    0.923    6.154    1.385    0.000    0.615 
#    2.769    1.538    0.000    0.000    0.000    0.000 
#    0.000    0.000    0.000    0.000    0.000    0.000 
#
# Total GULP energy -144798.957528 kJ/mol
# GULP energy per Si atom -5569.190674 kJ/mol
# Density = 2.056943 g / cm^3
# Si number density = 20.616354 Si / 1000 Ang^3
#
#
#
# Elastic Constant Matrix: (Units=GPa)
#
#
# Indices 1 2 3 4 5 6 
#
# 1 74.1538 42.3621 27.7028 0.0000 0.0000 0.0000
# 2 42.3621 97.1552 17.3997 0.0000 0.0000 0.0000
# 3 27.7028 17.3997 78.7329 0.0000 0.0000 0.0000
# 4 0.0000 0.0000 0.0000 21.9340 0.0000 0.0000
# 5 0.0000 0.0000 0.0000 0.0000 7.6501 0.0000
# 6 0.0000 0.0000 0.0000 0.0000 0.0000 37.1588
#
#
#
# Elastic Compliance Matrix: (Units=1/GPa)
#
#
# Indices 1 2 3 4 5 6 
#
# 1 0.019868 -0.007716 -0.005285 0.000000 0.000000 0.000000
# 2 -0.007716 0.013714 -0.000316 0.000000 0.000000 0.000000
# 3 -0.005285 -0.000316 0.014631 0.000000 0.000000 0.000000
# 4 0.000000 0.000000 0.000000 0.045591 0.000000 0.000000
# 5 0.000000 0.000000 0.000000 0.000000 0.130717 0.000000
# 6 0.000000 0.000000 0.000000 0.000000 0.000000 0.026912
#
#
# Mechanical properties :
#
#
# Convention : Reuss Voigt Hill
#
# Bulk Modulus (GPa) = 46.34422 47.21901 46.78162
# Shear Modulus (GPa) = 17.52782 24.18706 20.85744
#
# Velocity S-wave (km/s) = 2.91897 3.42891 3.18416
# Velocity P-wave (km/s) = 5.82139 6.21530 6.02157
#
# Compressibility (1/GPa) = 0.02157766
#
# Stress axis : x y z
#
# Youngs Moduli (GPa) = 50.33144 72.91868 68.34961
#
# Poissons Ratio (x) = 0.56268 0.36126
# Poissons Ratio (y) = 0.38838 0.02157
# Poissons Ratio (z) = 0.26603 0.02302
#
# Static dielectric constant tensor:
#      x y z
#    x 4.443970 0.000000 0.000000 
#    y 0.000000 1.813540 0.000000 
#    z 0.000000 0.000000 1.699190 
# 
# From -- ./inp_files/30683.got.cif
#   From: 2010.05.17/outbox.cif.g08.bks.cpg/sg21_16_cif.got.tgz:30683.got - 2010.06.03 23:14:55.
