data_PCOD9324847
_publ_section_title
;
Structure prediction by ZEFSAII (Michael W. Deem and Ramdas Pophale) SiO2 
 PCOD9324847
Probable space group: C 2 2 2
;
_chemical_formula_sum "Si O2"
_cell_formula_units_Z 48
_cell_length_a 13.416347
_cell_length_b 18.469575
_cell_length_c 9.072024
_cell_angle_alpha 90.000000
_cell_angle_beta 90.000000
_cell_angle_gamma 90.000000
_cell_volume 2247.995176
_symmetry_space_group_name_H-M "C 2 2 2"
_symmetry_group_IT_number 21
_symmetry_cell_setting 'orthorhombic'
loop_
_space_group_symop_operation_xyz
x,y,z
-x,-y,z
x,-y,-z
-x,y,-z
1/2+x,1/2+y,z
1/2-x,1/2-y,z
1/2+x,1/2-y,-z
1/2-x,1/2+y,-z
loop_
_atom_site_type_symbol
_atom_site_label
_atom_site_fract_x
_atom_site_fract_y
_atom_site_fract_z
Si Si1 0.000000 0.811313 0.000000
Si Si2 0.650849 0.049547 0.774900
Si Si3 0.301235 0.328974 0.169914
Si Si4 0.381108 0.651090 0.498200
Si Si5 0.550292 0.097515 0.160409
Si Si6 0.719520 0.500000 0.500000
Si Si7 0.142256 0.740251 0.232357
O O1 0.900742 0.845579 0.073805
O O2 0.050655 0.767752 0.133264
O O3 0.719929 0.107976 0.857824
O O4 0.612202 0.976397 0.851777
O O5 0.712232 0.024778 0.634276
O O6 0.546718 0.088278 0.737096
O O7 0.250000 0.250000 0.149630
O O8 0.336079 0.332224 0.340920
O O9 0.500000 0.650299 0.500000
O O10 0.344133 0.570631 0.455252
O O11 0.352889 0.712728 0.380343
O O12 0.620659 0.155684 0.236954
O O13 0.500000 0.114645 0.000000
O O14 0.250000 0.750000 0.159593
#
# Coordination Sequence:
#
# PCOD9324847 Si02
#       7
#     4   8   8   8   8   4   8
#     4  12  24  42  66 106 138 186 230 302 354 426
#     4  10  23  43  69  98 137 190 235 293 368 431
#     4  11  24  44  70 100 145 186 235 300 362 430
#     4  11  23  45  70 102 139 191 238 296 361 434
#     4  11  24  45  67 104 142 189 236 300 369 439
#     4  10  23  45  70 102 142 182 242 300 362 424
#     4  12  25  43  72 104 140 186 245 298 362 433
#
# _framework density 21.352357999999999
#
# number of rings (size 3 to 8) (size 9 to 14) (size 15 to 20)
#    0.000    1.000    2.500    4.250    2.333    2.667 
#    4.500    0.000    0.000    9.000    0.000    0.000 
#    0.000    0.000    0.000    0.000    0.000    0.000 
#
# Total GULP energy -133959.897347 kJ/mol
# GULP energy per Si atom -5581.662389 kJ/mol
# Density = 2.130376 g / cm^3
# Si number density = 21.352358 Si / 1000 Ang^3
#
#
#
# Elastic Constant Matrix: (Units=GPa)
#
#
# Indices 1 2 3 4 5 6 
#
# 1 170.2144 87.5548 26.3164 0.0000 0.0000 0.0000
# 2 87.5548 148.2974 38.8339 0.0000 0.0000 0.0000
# 3 26.3164 38.8339 72.4630 0.0000 0.0000 0.0000
# 4 0.0000 0.0000 0.0000 5.1030 0.0000 0.0000
# 5 0.0000 0.0000 0.0000 0.0000 27.0047 0.0000
# 6 0.0000 0.0000 0.0000 0.0000 0.0000 48.3801
#
#
#
# Elastic Compliance Matrix: (Units=1/GPa)
#
#
# Indices 1 2 3 4 5 6 
#
# 1 0.008450 -0.004869 -0.000460 0.000000 0.000000 0.000000
# 2 -0.004869 0.010649 -0.003939 0.000000 0.000000 0.000000
# 3 -0.000460 -0.003939 0.016078 0.000000 0.000000 0.000000
# 4 0.000000 0.000000 0.000000 0.195964 0.000000 0.000000
# 5 0.000000 0.000000 0.000000 0.000000 0.037031 0.000000
# 6 0.000000 0.000000 0.000000 0.000000 0.000000 0.020670
#
#
# Mechanical properties :
#
#
# Convention : Reuss Voigt Hill
#
# Bulk Modulus (GPa) = 60.08552 77.37613 68.73082
# Shear Modulus (GPa) = 15.97832 31.98219 23.98026
#
# Velocity S-wave (km/s) = 2.73851 3.87438 3.35486
# Velocity P-wave (km/s) = 6.18064 7.50539 6.87500
#
# Compressibility (1/GPa) = 0.01664295
#
# Stress axis : x y z
#
# Youngs Moduli (GPa) = 118.33760 93.90415 62.19682
#
# Poissons Ratio (x) = 0.45719 0.02859
# Poissons Ratio (y) = 0.57615 0.24498
# Poissons Ratio (z) = 0.05440 0.36987
#
# Static dielectric constant tensor:
#      x y z
#    x 1.756430 0.000000 0.000000 
#    y 0.000000 1.819240 0.000000 
#    z 0.000000 0.000000 1.807020 
# 
# From -- ./inp_files/15039.got.cif
#   From: 2010.05.17/outbox.cif.g08.bks.cpg/sg21_8_cif.got.tgz:15039.got - 2010.06.03 23:14:55.
