data_PCOD9324554
_publ_section_title
;
Structure prediction by ZEFSAII (Michael W. Deem and Ramdas Pophale) SiO2 
 PCOD9324554
Probable space group: C 2 2 2
;
_chemical_formula_sum "Si O2"
_cell_formula_units_Z 34
_cell_length_a 5.472911
_cell_length_b 13.423260
_cell_length_c 21.467335
_cell_angle_alpha 90.000000
_cell_angle_beta 90.000000
_cell_angle_gamma 90.000000
_cell_volume 1577.082896
_symmetry_space_group_name_H-M "C 2 2 2"
_symmetry_group_IT_number 21
_symmetry_cell_setting 'orthorhombic'
loop_
_space_group_symop_operation_xyz
x,y,z
-x,-y,z
x,-y,-z
-x,y,-z
1/2+x,1/2+y,z
1/2-x,1/2-y,z
1/2+x,1/2-y,-z
1/2-x,1/2+y,-z
loop_
_atom_site_type_symbol
_atom_site_label
_atom_site_fract_x
_atom_site_fract_y
_atom_site_fract_z
Si Si1 0.623200 0.143139 0.896006
Si Si2 0.247130 0.564862 0.633357
Si Si3 0.871325 0.105945 0.768375
Si Si4 0.000000 0.500000 0.000000
Si Si5 0.250000 0.250000 0.460119
Si Si6 0.250000 0.750000 0.172696
O O1 0.750000 0.250000 0.907346
O O2 0.719804 0.099366 0.831552
O O3 0.649104 0.071421 0.953957
O O4 0.346890 0.167031 0.875425
O O5 0.500000 0.500000 0.628647
O O6 0.236713 0.614149 0.702534
O O7 0.254798 0.651778 0.582751
O O8 0.000000 0.500000 0.625702
O O9 0.050311 0.198448 0.783279
O O10 0.000000 0.000000 0.763211
O O11 0.500000 0.248264 0.500000
#
# Coordination Sequence:
#
# PCOD9324554 Si02
#       6
#     8   8   8   2   4   4
#     4  10  24  42  62  97 131 181 230 295 353 438
#     4  11  27  45  74 112 148 190 244 302 357 429
#     4  10  23  41  68  99 135 177 233 292 363 421
#     4  12  24  40  70  86 140 182 234 284 378 426
#     4  12  28  49  76 107 150 200 246 288 366 436
#     4  10  22  41  66  93 136 178 226 300 356 420
#
# _framework density 21.558792
#
# number of rings (size 3 to 8) (size 9 to 14) (size 15 to 20)
#    0.000    1.412    0.000    2.824   14.824    3.765 
#    0.000    4.706    0.000    0.000    0.000    0.000 
#    0.000    0.000    0.000    0.000    0.000    0.000 
#
# Total GULP energy -94934.832416 kJ/mol
# GULP energy per Si atom -5584.401907 kJ/mol
# Density = 2.150972 g / cm^3
# Si number density = 21.558792 Si / 1000 Ang^3
#
#
#
# Elastic Constant Matrix: (Units=GPa)
#
#
# Indices 1 2 3 4 5 6 
#
# 1 111.3332 49.7026 72.4523 0.0000 0.0000 0.0000
# 2 49.7026 122.3683 98.6122 0.0000 0.0000 0.0000
# 3 72.4523 98.6122 201.8520 0.0000 0.0000 0.0000
# 4 0.0000 0.0000 0.0000 67.5355 0.0000 0.0000
# 5 0.0000 0.0000 0.0000 0.0000 45.0094 0.0000
# 6 0.0000 0.0000 0.0000 0.0000 0.0000 31.8819
#
#
#
# Elastic Compliance Matrix: (Units=1/GPa)
#
#
# Indices 1 2 3 4 5 6 
#
# 1 0.012111 -0.002335 -0.003206 0.000000 0.000000 0.000000
# 2 -0.002335 0.013929 -0.005966 0.000000 0.000000 0.000000
# 3 -0.003206 -0.005966 0.009020 0.000000 0.000000 0.000000
# 4 0.000000 0.000000 0.000000 0.014807 0.000000 0.000000
# 5 0.000000 0.000000 0.000000 0.000000 0.022218 0.000000
# 6 0.000000 0.000000 0.000000 0.000000 0.000000 0.031366
#
#
# Mechanical properties :
#
#
# Convention : Reuss Voigt Hill
#
# Bulk Modulus (GPa) = 83.03210 97.45419 90.24314
# Shear Modulus (GPa) = 38.31980 43.20445 40.76212
#
# Velocity S-wave (km/s) = 4.22056 4.48150 4.35298
# Velocity P-wave (km/s) = 7.89612 8.49002 8.19845
#
# Compressibility (1/GPa) = 0.01204354
#
# Stress axis : x y z
#
# Youngs Moduli (GPa) = 82.56841 71.79375 110.86743
#
# Poissons Ratio (x) = 0.16767 0.35546
# Poissons Ratio (y) = 0.19283 0.66148
# Poissons Ratio (z) = 0.26473 0.42835
#
# Static dielectric constant tensor:
#      x y z
#    x 1.825410 0.000000 0.000000 
#    y 0.000000 1.748020 0.000000 
#    z 0.000000 0.000000 1.752670 
# 
# From -- ./inp_files/34515.got.cif
#   From: 2010.05.17/outbox.cif.g08.bks.cpg/sg21_18_cif.got.tgz:34515.got - 2010.06.03 23:14:55.
