data_PCOD9324419
_publ_section_title
;
Structure prediction by ZEFSAII (Michael W. Deem and Ramdas Pophale) SiO2 
 PCOD9324419
Probable space group: C 2 2 2
;
_chemical_formula_sum "Si O2"
_cell_formula_units_Z 36
_cell_length_a 24.911056
_cell_length_b 5.223963
_cell_length_c 11.782818
_cell_angle_alpha 90.000000
_cell_angle_beta 90.000000
_cell_angle_gamma 90.000000
_cell_volume 1533.350361
_symmetry_space_group_name_H-M "C 2 2 2"
_symmetry_group_IT_number 21
_symmetry_cell_setting 'orthorhombic'
loop_
_space_group_symop_operation_xyz
x,y,z
-x,-y,z
x,-y,-z
-x,y,-z
1/2+x,1/2+y,z
1/2-x,1/2-y,z
1/2+x,1/2-y,-z
1/2-x,1/2+y,-z
loop_
_atom_site_type_symbol
_atom_site_label
_atom_site_fract_x
_atom_site_fract_y
_atom_site_fract_z
Si Si1 0.891993 0.500000 0.500000
Si Si2 0.897946 0.147506 0.691516
Si Si3 0.688779 0.290776 0.335325
Si Si4 0.138511 0.458541 0.879302
Si Si5 0.534603 0.737143 0.826112
O O1 0.921791 0.310020 0.587225
O O2 0.851839 0.351828 0.417594
O O3 0.887434 0.309104 0.806141
O O4 0.836634 0.072622 0.659734
O O5 0.934839 0.899345 0.718206
O O6 0.750000 0.250000 0.365759
O O7 0.677079 0.186310 0.208605
O O8 0.084920 0.295978 0.905695
O O9 0.165515 0.500000 0.000000
O O10 0.500000 0.500000 0.868736
O O11 0.500000 0.000000 0.807560
#
# Coordination Sequence:
#
# PCOD9324419 Si02
#       5
#     4   8   8   8   8
#     4  10  22  38  70 101 138 182 225 294 342 414
#     4  10  22  43  68 102 144 176 234 289 350 409
#     4  10  23  40  66 104 138 182 231 283 345 416
#     4  10  23  44  66 101 144 183 227 286 347 416
#     4  11  22  43  70 104 141 183 234 287 344 414
#
# _framework density 23.478002
#
# number of rings (size 3 to 8) (size 9 to 14) (size 15 to 20)
#    0.000    1.778    2.222    0.667    3.111    6.667 
#    8.000    0.000    0.000   38.667    0.000    0.000 
#    0.000    0.000    0.000    0.000    0.000    0.000 
#
# Total GULP energy -100332.960014 kJ/mol
# GULP energy per Si atom -5574.053334 kJ/mol
# Density = 2.342457 g / cm^3
# Si number density = 23.478002 Si / 1000 Ang^3
#
#
#
# Elastic Constant Matrix: (Units=GPa)
#
#
# Indices 1 2 3 4 5 6 
#
# 1 40.2486 1.2326 -27.2855 0.0000 0.0000 0.0000
# 2 1.2326 101.9600 25.5046 0.0000 0.0000 0.0000
# 3 -27.2855 25.5046 133.2169 0.0000 0.0000 0.0000
# 4 0.0000 0.0000 0.0000 20.2709 0.0000 0.0000
# 5 0.0000 0.0000 0.0000 0.0000 1.7688 0.0000
# 6 0.0000 0.0000 0.0000 0.0000 0.0000 22.3838
#
#
#
# Elastic Compliance Matrix: (Units=1/GPa)
#
#
# Indices 1 2 3 4 5 6 
#
# 1 0.029214 -0.001943 0.006356 0.000000 0.000000 0.000000
# 2 -0.001943 0.010430 -0.002395 0.000000 0.000000 0.000000
# 3 0.006356 -0.002395 0.009267 0.000000 0.000000 0.000000
# 4 0.000000 0.000000 0.000000 0.049332 0.000000 0.000000
# 5 0.000000 0.000000 0.000000 0.000000 0.565350 0.000000
# 6 0.000000 0.000000 0.000000 0.000000 0.000000 0.044675
#
#
# Mechanical properties :
#
#
# Convention : Reuss Voigt Hill
#
# Bulk Modulus (GPa) = 18.88711 30.48099 24.68405
# Shear Modulus (GPa) = 6.92635 27.28295 17.10465
#
# Velocity S-wave (km/s) = 1.71946 3.41260 2.70208
# Velocity P-wave (km/s) = 3.46470 5.34217 4.50238
#
# Compressibility (1/GPa) = 0.05294615
#
# Stress axis : x y z
#
# Youngs Moduli (GPa) = 34.23060 95.87438 107.91224
#
# Poissons Ratio (x) = 0.18628 -0.68584
# Poissons Ratio (y) = 0.06651 0.25843
# Poissons Ratio (z) = -0.21755 0.22961
#
# Static dielectric constant tensor:
#      x y z
#    x 1.874020 0.000000 0.000000 
#    y 0.000000 2.122340 0.000000 
#    z 0.000000 0.000000 1.961520 
# 
# From -- ./inp_files/27162.got.cif
#   From: 2010.05.17/outbox.cif.g08.bks.cpg/sg21_14_cif.got.tgz:27162.got - 2010.06.03 23:14:55.
