data_PCOD9324276
_publ_section_title
;
Structure prediction by ZEFSAII (Michael W. Deem and Ramdas Pophale) SiO2 
 PCOD9324276
Probable space group: C 2 2 2
;
_chemical_formula_sum "Si O2"
_cell_formula_units_Z 40
_cell_length_a 12.336298
_cell_length_b 9.767546
_cell_length_c 15.249979
_cell_angle_alpha 90.000000
_cell_angle_beta 90.000000
_cell_angle_gamma 90.000000
_cell_volume 1837.551682
_symmetry_space_group_name_H-M "C 2 2 2"
_symmetry_group_IT_number 21
_symmetry_cell_setting 'orthorhombic'
loop_
_space_group_symop_operation_xyz
x,y,z
-x,-y,z
x,-y,-z
-x,y,-z
1/2+x,1/2+y,z
1/2-x,1/2-y,z
1/2+x,1/2-y,-z
1/2-x,1/2+y,-z
loop_
_atom_site_type_symbol
_atom_site_label
_atom_site_fract_x
_atom_site_fract_y
_atom_site_fract_z
Si Si1 0.285832 0.591794 0.086422
Si Si2 0.534527 0.236734 0.694095
Si Si3 0.000000 0.000000 0.188822
Si Si4 0.724544 0.901305 0.567646
Si Si5 0.837428 0.467648 0.258824
Si Si6 0.500000 0.186454 0.500000
O O1 0.250000 0.750000 0.070662
O O2 0.405139 0.565931 0.128313
O O3 0.204735 0.538506 0.161494
O O4 0.276931 0.500000 0.000000
O O5 0.542646 0.375130 0.750066
O O6 0.426202 0.152902 0.725733
O O7 0.539556 0.263210 0.588697
O O8 0.622289 0.118686 0.715376
O O9 0.750000 0.750000 0.544345
O O10 0.751520 0.931929 0.667463
O O11 0.595516 0.899095 0.548260
O O12 0.779966 0.000000 0.500000
#
# Coordination Sequence:
#
# PCOD9324276 Si02
#       6
#     8   8   4   8   8   4
#     4  12  28  52  77 108 143 186 239 309 379 445
#     4  10  22  42  73 105 143 193 241 295 353 436
#     4  12  27  47  76 110 146 180 243 310 361 434
#     4  11  22  39  65  97 137 187 240 287 344 422
#     4  10  22  45  71  98 142 193 234 288 371 432
#     4  10  21  43  64  98 143 193 238 280 345 411
#
# _framework density 21.768094999999999
#
# number of rings (size 3 to 8) (size 9 to 14) (size 15 to 20)
#    0.000    1.200    4.000    1.200    5.600    2.000 
#    0.000    2.000    0.000    0.000    0.000    0.000 
#    0.000    0.000    0.000    0.000    0.000    0.000 
#
# Total GULP energy -111484.912301 kJ/mol
# GULP energy per Si atom -5574.245615 kJ/mol
# Density = 2.171855 g / cm^3
# Si number density = 21.768095 Si / 1000 Ang^3
#
#
#
# Elastic Constant Matrix: (Units=GPa)
#
#
# Indices 1 2 3 4 5 6 
#
# 1 39.1018 20.6797 24.5966 0.0000 0.0000 0.0000
# 2 20.6797 178.7302 79.0933 0.0000 0.0000 0.0000
# 3 24.5966 79.0933 191.1743 0.0000 0.0000 0.0000
# 4 0.0000 0.0000 0.0000 43.7130 0.0000 0.0000
# 5 0.0000 0.0000 0.0000 0.0000 67.8862 0.0000
# 6 0.0000 0.0000 0.0000 0.0000 0.0000 27.7294
#
#
#
# Elastic Compliance Matrix: (Units=1/GPa)
#
#
# Indices 1 2 3 4 5 6 
#
# 1 0.028424 -0.002045 -0.002811 0.000000 0.000000 0.000000
# 2 -0.002045 0.006996 -0.002631 0.000000 0.000000 0.000000
# 3 -0.002811 -0.002631 0.006681 0.000000 0.000000 0.000000
# 4 0.000000 0.000000 0.000000 0.022876 0.000000 0.000000
# 5 0.000000 0.000000 0.000000 0.000000 0.014731 0.000000
# 6 0.000000 0.000000 0.000000 0.000000 0.000000 0.036063
#
#
# Mechanical properties :
#
#
# Convention : Reuss Voigt Hill
#
# Bulk Modulus (GPa) = 36.86390 73.08284 54.97337
# Shear Modulus (GPa) = 35.76852 46.84150 41.30501
#
# Velocity S-wave (km/s) = 4.05799 4.64383 4.36076
# Velocity P-wave (km/s) = 6.23923 7.89935 7.11786
#
# Compressibility (1/GPa) = 0.02712681
#
# Stress axis : x y z
#
# Youngs Moduli (GPa) = 35.18155 142.93753 149.67471
#
# Poissons Ratio (x) = 0.29227 0.42075
# Poissons Ratio (y) = 0.07194 0.39385
# Poissons Ratio (z) = 0.09890 0.37612
#
# Static dielectric constant tensor:
#      x y z
#    x 1.875860 0.000000 0.000000 
#    y 0.000000 1.751750 0.000000 
#    z 0.000000 0.000000 1.785680 
# 
# From -- ./inp_files/32143.got.cif
#   From: 2010.05.17/outbox.cif.g08.bks.cpg/sg21_17_cif.got.tgz:32143.got - 2010.06.03 23:14:55.
