data_PCOD9324040
_publ_section_title
;
Structure prediction by ZEFSAII (Michael W. Deem and Ramdas Pophale) SiO2 
 PCOD9324040
Probable space group: C 2 2 2
;
_chemical_formula_sum "Si O2"
_cell_formula_units_Z 52
_cell_length_a 14.010172
_cell_length_b 19.477490
_cell_length_c 8.464053
_cell_angle_alpha 90.000000
_cell_angle_beta 90.000000
_cell_angle_gamma 90.000000
_cell_volume 2309.696048
_symmetry_space_group_name_H-M "C 2 2 2"
_symmetry_group_IT_number 21
_symmetry_cell_setting 'orthorhombic'
loop_
_space_group_symop_operation_xyz
x,y,z
-x,-y,z
x,-y,-z
-x,y,-z
1/2+x,1/2+y,z
1/2-x,1/2-y,z
1/2+x,1/2-y,-z
1/2-x,1/2+y,-z
loop_
_atom_site_type_symbol
_atom_site_label
_atom_site_fract_x
_atom_site_fract_y
_atom_site_fract_z
Si Si1 0.954461 0.765797 0.334991
Si Si2 0.685138 0.837238 0.224633
Si Si3 0.304915 0.452912 0.703191
Si Si4 0.371373 0.407862 0.355271
Si Si5 0.891778 0.482281 0.812399
Si Si6 0.500000 0.273245 0.000000
Si Si7 0.706863 0.316282 0.091217
O O1 0.854539 0.727149 0.318659
O O2 0.951439 0.849434 0.332356
O O3 0.000000 0.745825 0.500000
O O4 0.002898 0.739259 0.173040
O O5 0.778201 0.867966 0.301991
O O6 0.614424 0.901091 0.215008
O O7 0.714143 0.820499 0.045960
O O8 0.348380 0.428277 0.535855
O O9 0.370566 0.520229 0.740903
O O10 0.195449 0.482096 0.714791
O O11 0.302112 0.386129 0.812000
O O12 0.000000 0.500000 0.769351
O O13 0.876338 0.500000 0.000000
O O14 0.396814 0.309692 0.993136
O O15 0.750000 0.250000 0.185281
#
# Coordination Sequence:
#
# PCOD9324040 Si02
#       7
#     8   8   8   8   8   4   8
#     4  12  26  46  71 109 149 194 252 310 378 449
#     4  11  22  44  70  96 152 190 229 312 382 437
#     4  10  23  42  70 101 135 198 251 298 384 453
#     4  10  22  45  68  94 146 192 242 306 373 446
#     4  10  21  38  68 104 142 186 245 304 373 456
#     4  12  26  44  73 108 139 192 260 302 366 470
#     4  12  23  44  70 103 147 193 247 318 382 449
#
# _framework density 22.513784999999999
#
# number of rings (size 3 to 8) (size 9 to 14) (size 15 to 20)
#    0.000    1.077    4.615    1.385    0.000    6.154 
#    0.000   11.538    0.000    0.000    0.000    0.000 
#    0.000    0.000    0.000    0.000    0.000    0.000 
#
# Total GULP energy -144864.929088 kJ/mol
# GULP energy per Si atom -5571.728042 kJ/mol
# Density = 2.246254 g / cm^3
# Si number density = 22.513785 Si / 1000 Ang^3
#
#
#
# Elastic Constant Matrix: (Units=GPa)
#
#
# Indices 1 2 3 4 5 6 
#
# 1 63.6627 23.9055 14.2336 0.0000 0.0000 0.0000
# 2 23.9055 153.3791 36.8590 0.0000 0.0000 0.0000
# 3 14.2336 36.8590 94.5294 0.0000 0.0000 0.0000
# 4 0.0000 0.0000 0.0000 28.4043 0.0000 0.0000
# 5 0.0000 0.0000 0.0000 0.0000 23.0592 0.0000
# 6 0.0000 0.0000 0.0000 0.0000 0.0000 29.7674
#
#
#
# Elastic Compliance Matrix: (Units=1/GPa)
#
#
# Indices 1 2 3 4 5 6 
#
# 1 0.016922 -0.002234 -0.001677 0.000000 0.000000 0.000000
# 2 -0.002234 0.007489 -0.002584 0.000000 0.000000 0.000000
# 3 -0.001677 -0.002584 0.011839 0.000000 0.000000 0.000000
# 4 0.000000 0.000000 0.000000 0.035206 0.000000 0.000000
# 5 0.000000 0.000000 0.000000 0.000000 0.043367 0.000000
# 6 0.000000 0.000000 0.000000 0.000000 0.000000 0.033594
#
#
# Mechanical properties :
#
#
# Convention : Reuss Voigt Hill
#
# Bulk Modulus (GPa) = 42.99289 51.28525 47.13907
# Shear Modulus (GPa) = 29.55810 32.01773 30.78792
#
# Velocity S-wave (km/s) = 3.62731 3.77522 3.70200
# Velocity P-wave (km/s) = 6.05648 6.46776 6.26549
#
# Compressibility (1/GPa) = 0.02325966
#
# Stress axis : x y z
#
# Youngs Moduli (GPa) = 59.09566 133.53023 84.46942
#
# Poissons Ratio (x) = 0.29837 0.14163
# Poissons Ratio (y) = 0.13205 0.21824
# Poissons Ratio (z) = 0.09908 0.34499
#
# Static dielectric constant tensor:
#      x y z
#    x 1.840940 0.000000 0.000000 
#    y 0.000000 1.929010 0.000000 
#    z 0.000000 0.000000 1.905690 
# 
# From -- ./inp_files/15217.got.cif
#   From: 2010.05.17/outbox.cif.g08.bks.cpg/sg21_8_cif.got.tgz:15217.got - 2010.06.03 23:14:55.
