data_PCOD9324455
_publ_section_title
;
Structure prediction by ZEFSAII (Michael W. Deem and Ramdas Pophale) SiO2 
 PCOD9324455
Probable space group: C 2 2 2
;
_chemical_formula_sum "Si O2"
_cell_formula_units_Z 48
_cell_length_a 9.702776
_cell_length_b 15.517582
_cell_length_c 16.749340
_cell_angle_alpha 90.000000
_cell_angle_beta 90.000000
_cell_angle_gamma 90.000000
_cell_volume 2521.841300
_symmetry_space_group_name_H-M "C 2 2 2"
_symmetry_group_IT_number 21
_symmetry_cell_setting 'orthorhombic'
loop_
_space_group_symop_operation_xyz
x,y,z
-x,-y,z
x,-y,-z
-x,y,-z
1/2+x,1/2+y,z
1/2-x,1/2-y,z
1/2+x,1/2-y,-z
1/2-x,1/2+y,-z
loop_
_atom_site_type_symbol
_atom_site_label
_atom_site_fract_x
_atom_site_fract_y
_atom_site_fract_z
Si Si1 0.009849 0.603422 0.907716
Si Si2 0.415409 0.268905 0.575409
Si Si3 0.494387 0.096866 0.349073
Si Si4 0.213517 0.650049 0.217054
Si Si5 0.231697 0.351709 0.222568
Si Si6 0.020576 0.093943 0.716607
O O1 0.146624 0.630234 0.858504
O O2 0.000000 0.500000 0.902799
O O3 0.879211 0.641497 0.860873
O O4 0.000000 0.629139 0.000000
O O5 0.500000 0.305654 0.500000
O O6 0.250000 0.250000 0.565149
O O7 0.487909 0.176794 0.592235
O O8 0.444307 0.333360 0.650009
O O9 0.620264 0.111687 0.287743
O O10 0.359576 0.109922 0.294746
O O11 0.500000 0.000000 0.382133
O O12 0.250000 0.750000 0.230187
O O13 0.353335 0.596940 0.221404
O O14 0.250000 0.250000 0.232746
O O15 0.383868 0.387278 0.233423
O O16 0.000000 0.000000 0.678719
#
# Coordination Sequence:
#
# PCOD9324455 Si02
#       6
#     8   8   8   8   8   8
#     4  10  22  40  60  89 129 170 211 255 307 375
#     4  12  27  46  63  91 128 166 204 260 324 373
#     4  11  21  41  66  89 119 164 212 249 303 379
#     4  11  19  40  64  88 122 166 208 258 308 370
#     4  11  21  36  64  95 121 155 214 259 299 366
#     4  12  22  39  65  94 124 161 209 262 313 364
#
# _framework density 19.033711
#
# number of rings (size 3 to 8) (size 9 to 14) (size 15 to 20)
#    0.000    0.833    5.000    5.000    2.333    1.333 
#    0.000    2.500    0.000    3.000    0.000    0.000 
#    0.000    0.000    0.000    0.000    0.000    0.000 
#
# Total GULP energy -133941.191008 kJ/mol
# GULP energy per Si atom -5580.882959 kJ/mol
# Density = 1.899039 g / cm^3
# Si number density = 19.033711 Si / 1000 Ang^3
#
#
#
# Elastic Constant Matrix: (Units=GPa)
#
#
# Indices 1 2 3 4 5 6 
#
# 1 151.4642 5.9004 44.8785 0.0000 0.0000 0.0000
# 2 5.9004 111.5217 15.5609 0.0000 0.0000 0.0000
# 3 44.8785 15.5609 91.4562 0.0000 0.0000 0.0000
# 4 0.0000 0.0000 0.0000 16.3793 0.0000 0.0000
# 5 0.0000 0.0000 0.0000 0.0000 11.2028 0.0000
# 6 0.0000 0.0000 0.0000 0.0000 0.0000 2.8671
#
#
#
# Elastic Compliance Matrix: (Units=1/GPa)
#
#
# Indices 1 2 3 4 5 6 
#
# 1 0.007727 0.000123 -0.003813 0.000000 0.000000 0.000000
# 2 0.000123 0.009187 -0.001624 0.000000 0.000000 0.000000
# 3 -0.003813 -0.001624 0.013081 0.000000 0.000000 0.000000
# 4 0.000000 0.000000 0.000000 0.061053 0.000000 0.000000
# 5 0.000000 0.000000 0.000000 0.000000 0.089263 0.000000
# 6 0.000000 0.000000 0.000000 0.000000 0.000000 0.348779
#
#
# Mechanical properties :
#
#
# Convention : Reuss Voigt Hill
#
# Bulk Modulus (GPa) = 51.62847 54.12465 52.87656
# Shear Modulus (GPa) = 9.15461 25.29667 17.22564
#
# Velocity S-wave (km/s) = 2.19548 3.64956 3.01160
# Velocity P-wave (km/s) = 5.79745 6.80125 6.31932
#
# Compressibility (1/GPa) = 0.01936916
#
# Stress axis : x y z
#
# Youngs Moduli (GPa) = 129.41420 108.85084 76.44448
#
# Poissons Ratio (x) = -0.01341 0.29146
# Poissons Ratio (y) = -0.01594 0.12411
# Poissons Ratio (z) = 0.49342 0.17672
#
# Static dielectric constant tensor:
#      x y z
#    x 1.706410 0.000000 0.000000 
#    y 0.000000 1.613200 0.000000 
#    z 0.000000 0.000000 1.682730 
# 
# From -- ./inp_files/35644.got.cif
#   From: 2010.05.17/outbox.cif.g08.bks.cpg/sg21_18_cif.got.tgz:35644.got - 2010.06.03 23:14:55.
