data_PCOD9324152
_publ_section_title
;
Structure prediction by ZEFSAII (Michael W. Deem and Ramdas Pophale) SiO2 
 PCOD9324152
Probable space group: C 2 2 2
;
_chemical_formula_sum "Si O2"
_cell_formula_units_Z 24
_cell_length_a 18.818391
_cell_length_b 5.271957
_cell_length_c 10.122890
_cell_angle_alpha 90.000000
_cell_angle_beta 90.000000
_cell_angle_gamma 90.000000
_cell_volume 1004.289368
_symmetry_space_group_name_H-M "C 2 2 2"
_symmetry_group_IT_number 21
_symmetry_cell_setting 'orthorhombic'
loop_
_space_group_symop_operation_xyz
x,y,z
-x,-y,z
x,-y,-z
-x,y,-z
1/2+x,1/2+y,z
1/2-x,1/2-y,z
1/2+x,1/2-y,-z
1/2-x,1/2+y,-z
loop_
_atom_site_type_symbol
_atom_site_label
_atom_site_fract_x
_atom_site_fract_y
_atom_site_fract_z
Si Si1 0.171480 0.002478 0.853774
Si Si2 0.418739 0.011452 0.208329
Si Si3 0.873915 0.500000 0.500000
Si Si4 0.750000 0.250000 0.362447
O O1 0.122485 0.252878 0.829749
O O2 0.230762 0.025609 0.739743
O O3 0.122767 0.755154 0.844596
O O4 0.203556 0.000000 0.000000
O O5 0.417230 0.049276 0.367822
O O6 0.500000 0.000000 0.163669
O O7 0.818042 0.286673 0.453766
#
# Coordination Sequence:
#
# PCOD9324152 Si02
#       4
#     8   8   4   4
#     4  11  25  42  65  96 128 170 214 262 322 382
#     4  11  24  42  66  94 128 169 213 264 319 382
#     4  10  21  40  64  94 125 164 212 264 324 378
#     4  10  22  40  68  94 130 166 212 270 324 384
#
# _framework density 23.897493999999998
#
# number of rings (size 3 to 8) (size 9 to 14) (size 15 to 20)
#    0.000    1.333    0.000    4.500    0.000   17.333 
#    0.000    6.667    0.000    0.000    0.000    0.000 
#    0.000    0.000    0.000    0.000    0.000    0.000 
#
# Total GULP energy -67145.325721 kJ/mol
# GULP energy per Si atom -5595.443810 kJ/mol
# Density = 2.384310 g / cm^3
# Si number density = 23.897494 Si / 1000 Ang^3
#
#
#
# Elastic Constant Matrix: (Units=GPa)
#
#
# Indices 1 2 3 4 5 6 
#
# 1 109.2703 48.6532 -2.8092 0.0000 0.0000 0.0000
# 2 48.6532 173.6696 18.0409 0.0000 0.0000 0.0000
# 3 -2.8092 18.0409 149.8359 0.0000 0.0000 0.0000
# 4 0.0000 0.0000 0.0000 2.0305 0.0000 0.0000
# 5 0.0000 0.0000 0.0000 0.0000 -2.3012 0.0000
# 6 0.0000 0.0000 0.0000 0.0000 0.0000 34.8770
#
#
#
# Elastic Compliance Matrix: (Units=1/GPa)
#
#
# Indices 1 2 3 4 5 6 
#
# 1 0.010502 -0.003000 0.000558 0.000000 0.000000 0.000000
# 2 -0.003000 0.006688 -0.000862 0.000000 0.000000 0.000000
# 3 0.000558 -0.000862 0.006788 0.000000 0.000000 0.000000
# 4 0.000000 0.000000 0.000000 0.492496 0.000000 0.000000
# 5 0.000000 0.000000 0.000000 0.000000 -0.434553 0.000000
# 6 0.000000 0.000000 0.000000 0.000000 0.000000 0.028672
#
#
# Mechanical properties :
#
#
# Convention : Reuss Voigt Hill
#
# Bulk Modulus (GPa) = 57.56700 62.28284 59.92492
# Shear Modulus (GPa) = 40.65349 31.51397 36.08373
#
# Velocity S-wave (km/s) = 4.12899 3.63535 3.89001
# Velocity P-wave (km/s) = 6.84637 6.61363 6.73101
#
# Compressibility (1/GPa) = 0.01737106
#
# Stress axis : x y z
#
# Youngs Moduli (GPa) = 95.22228 149.52138 147.31528
#
# Poissons Ratio (x) = 0.44857 -0.08222
# Poissons Ratio (y) = 0.28567 0.12691
# Poissons Ratio (z) = -0.05314 0.12881
#
# Static dielectric constant tensor:
#      x y z
#    x 1.873990 0.000000 0.000000 
#    y 0.000000 1.909930 0.000000 
#    z 0.000000 0.000000 1.924030 
# 
# From -- ./inp_files/20416.got.cif
#   From: 2010.05.17/outbox.cif.g08.bks.cpg/sg21_11_cif.got.tgz:20416.got - 2010.06.03 23:14:55.
