data_PCOD9324038
_publ_section_title
;
Structure prediction by ZEFSAII (Michael W. Deem and Ramdas Pophale) SiO2 
 PCOD9324038
Probable space group: C 2 2 2
;
_chemical_formula_sum "Si O2"
_cell_formula_units_Z 48
_cell_length_a 14.266111
_cell_length_b 5.775786
_cell_length_c 27.422547
_cell_angle_alpha 90.000000
_cell_angle_beta 90.000000
_cell_angle_gamma 90.000000
_cell_volume 2259.563143
_symmetry_space_group_name_H-M "C 2 2 2"
_symmetry_group_IT_number 21
_symmetry_cell_setting 'orthorhombic'
loop_
_space_group_symop_operation_xyz
x,y,z
-x,-y,z
x,-y,-z
-x,y,-z
1/2+x,1/2+y,z
1/2-x,1/2-y,z
1/2+x,1/2-y,-z
1/2-x,1/2+y,-z
loop_
_atom_site_type_symbol
_atom_site_label
_atom_site_fract_x
_atom_site_fract_y
_atom_site_fract_z
Si Si1 0.250000 0.750000 0.972846
Si Si2 0.000000 0.000000 0.169570
Si Si3 0.296285 0.000000 0.500000
Si Si4 0.147539 0.360602 0.797745
Si Si5 0.904328 0.634320 0.106392
Si Si6 0.400717 0.128427 0.401279
Si Si7 0.647531 0.863861 0.692743
Si Si8 0.000000 0.000000 0.348369
O O1 0.162683 0.683414 0.938381
O O2 0.269765 0.500000 0.000000
O O3 0.062936 0.823947 0.199957
O O4 0.930778 0.869991 0.133113
O O5 0.250000 0.250000 0.514862
O O6 0.350743 0.082937 0.451766
O O7 0.250000 0.250000 0.796914
O O8 0.140836 0.494254 0.848623
O O9 0.134205 0.486219 0.745537
O O10 0.000000 0.500000 0.092325
O O11 0.424515 0.387195 0.385097
O O12 0.500000 0.000000 0.404577
O O13 0.349957 0.026356 0.354056
O O14 0.750000 0.750000 0.694930
O O15 0.560625 0.685340 0.682829
#
# Coordination Sequence:
#
# PCOD9324038 Si02
#       8
#     4   4   4   8   8   8   8   4
#     4  12  30  50  78 106 146 194 244 310 368 436
#     4  10  21  38  67  93 139 178 235 289 352 436
#     4  12  29  46  75 102 134 184 236 299 358 429
#     4  10  21  38  66  98 139 185 230 291 355 430
#     4  10  24  44  70 102 141 185 240 298 361 436
#     4  10  24  44  65  94 136 177 234 290 356 426
#     4  10  22  39  63  99 137 180 235 287 356 426
#     4  10  23  40  67  91 141 180 230 298 352 440
#
# _framework density 21.243043
#
# number of rings (size 3 to 8) (size 9 to 14) (size 15 to 20)
#    0.000    1.667    0.000    2.250   12.833    7.667 
#    0.000    3.333    0.000    0.000    0.000    0.000 
#    0.000    0.000    0.000    0.000    0.000    0.000 
#
# Total GULP energy -133798.386485 kJ/mol
# GULP energy per Si atom -5574.932770 kJ/mol
# Density = 2.119469 g / cm^3
# Si number density = 21.243043 Si / 1000 Ang^3
#
#
#
# Elastic Constant Matrix: (Units=GPa)
#
#
# Indices 1 2 3 4 5 6 
#
# 1 73.0554 14.4617 69.6496 0.0000 0.0000 0.0000
# 2 14.4617 67.6015 59.2056 0.0000 0.0000 0.0000
# 3 69.6496 59.2056 179.9807 0.0000 0.0000 0.0000
# 4 0.0000 0.0000 0.0000 67.9443 0.0000 0.0000
# 5 0.0000 0.0000 0.0000 0.0000 13.5277 0.0000
# 6 0.0000 0.0000 0.0000 0.0000 0.0000 20.1293
#
#
#
# Elastic Compliance Matrix: (Units=1/GPa)
#
#
# Indices 1 2 3 4 5 6 
#
# 1 0.022412 0.003935 -0.009968 0.000000 0.000000 0.000000
# 2 0.003935 0.021470 -0.008585 0.000000 0.000000 0.000000
# 3 -0.009968 -0.008585 0.012238 0.000000 0.000000 0.000000
# 4 0.000000 0.000000 0.000000 0.014718 0.000000 0.000000
# 5 0.000000 0.000000 0.000000 0.000000 0.073923 0.000000
# 6 0.000000 0.000000 0.000000 0.000000 0.000000 0.049679
#
#
# Mechanical properties :
#
#
# Convention : Reuss Voigt Hill
#
# Bulk Modulus (GPa) = 37.19701 67.47460 52.33581
# Shear Modulus (GPa) = 21.49277 32.14164 26.81721
#
# Velocity S-wave (km/s) = 3.18426 3.89401 3.55688
# Velocity P-wave (km/s) = 5.57383 7.21456 6.44660
#
# Compressibility (1/GPa) = 0.02688388
#
# Stress axis : x y z
#
# Youngs Moduli (GPa) = 44.61856 46.57678 81.71472
#
# Poissons Ratio (x) = -0.18329 0.81450
# Poissons Ratio (y) = -0.17558 0.70156
# Poissons Ratio (z) = 0.44474 0.39988
#
# Static dielectric constant tensor:
#      x y z
#    x 1.792950 0.000000 0.000000 
#    y 0.000000 1.891850 0.000000 
#    z 0.000000 0.000000 1.753980 
# 
# From -- ./inp_files/39365.got.cif
#   From: 2010.05.17/outbox.cif.g08.bks.cpg/sg21_20_cif.got.tgz:39365.got - 2010.06.03 23:14:55.
