data_PCOD9324019
_publ_section_title
;
Structure prediction by ZEFSAII (Michael W. Deem and Ramdas Pophale) SiO2 
 PCOD9324019
Probable space group: C 2 2 2
;
_chemical_formula_sum "Si O2"
_cell_formula_units_Z 32
_cell_length_a 8.471528
_cell_length_b 29.094841
_cell_length_c 6.293774
_cell_angle_alpha 90.000000
_cell_angle_beta 90.000000
_cell_angle_gamma 90.000000
_cell_volume 1551.275319
_symmetry_space_group_name_H-M "C 2 2 2"
_symmetry_group_IT_number 21
_symmetry_cell_setting 'orthorhombic'
loop_
_space_group_symop_operation_xyz
x,y,z
-x,-y,z
x,-y,-z
-x,y,-z
1/2+x,1/2+y,z
1/2-x,1/2-y,z
1/2+x,1/2-y,-z
1/2-x,1/2+y,-z
loop_
_atom_site_type_symbol
_atom_site_label
_atom_site_fract_x
_atom_site_fract_y
_atom_site_fract_z
Si Si1 0.685406 0.449449 0.052566
Si Si2 0.180813 0.118824 0.585372
Si Si3 0.646347 0.865810 0.168395
Si Si4 0.325688 0.296686 0.915220
O O1 0.710513 0.428749 0.287589
O O2 0.749555 0.500000 0.000000
O O3 0.500000 0.450372 0.000000
O O4 0.757027 0.410602 0.903963
O O5 0.323201 0.129074 0.421172
O O6 0.176298 0.161666 0.747982
O O7 0.000000 0.116201 0.500000
O O8 0.500000 0.867104 0.000000
O O9 0.726753 0.817362 0.111064
O O10 0.250000 0.250000 0.831679
O O11 0.500000 0.288028 0.000000
#
# Coordination Sequence:
#
# PCOD9324019 Si02
#       4
#     8   8   8   8
#     4  10  21  38  63  98 132 175 235 294 351 431
#     4  11  20  42  68  93 135 186 234 295 363 438
#     4  11  23  41  64  94 134 179 230 298 361 426
#     4  11  23  41  63  95 133 179 240 301 358 432
#
# _framework density 20.628188999999999
#
# number of rings (size 3 to 8) (size 9 to 14) (size 15 to 20)
#    0.000    1.250    5.000    2.250    0.000    6.500 
#    4.500    0.000    0.000    6.000    0.000    0.000 
#    0.000    0.000    0.000    0.000    0.000    0.000 
#
# Total GULP energy -89080.919522 kJ/mol
# GULP energy per Si atom -5567.557470 kJ/mol
# Density = 2.058124 g / cm^3
# Si number density = 20.628189 Si / 1000 Ang^3
#
#
#
# Elastic Constant Matrix: (Units=GPa)
#
#
# Indices 1 2 3 4 5 6 
#
# 1 90.3152 27.1116 29.4904 0.0000 0.0000 0.0000
# 2 27.1116 136.3004 25.7659 0.0000 0.0000 0.0000
# 3 29.4904 25.7659 106.3633 0.0000 0.0000 0.0000
# 4 0.0000 0.0000 0.0000 18.3163 0.0000 0.0000
# 5 0.0000 0.0000 0.0000 0.0000 28.8279 0.0000
# 6 0.0000 0.0000 0.0000 0.0000 0.0000 20.1947
#
#
#
# Elastic Compliance Matrix: (Units=1/GPa)
#
#
# Indices 1 2 3 4 5 6 
#
# 1 0.012647 -0.001942 -0.003036 0.000000 0.000000 0.000000
# 2 -0.001942 0.007987 -0.001396 0.000000 0.000000 0.000000
# 3 -0.003036 -0.001396 0.010582 0.000000 0.000000 0.000000
# 4 0.000000 0.000000 0.000000 0.054596 0.000000 0.000000
# 5 0.000000 0.000000 0.000000 0.000000 0.034689 0.000000
# 6 0.000000 0.000000 0.000000 0.000000 0.000000 0.049518
#
#
# Mechanical properties :
#
#
# Convention : Reuss Voigt Hill
#
# Bulk Modulus (GPa) = 54.15052 55.30164 54.72608
# Shear Modulus (GPa) = 26.46595 30.17517 28.32056
#
# Velocity S-wave (km/s) = 3.58578 3.82882 3.70929
# Velocity P-wave (km/s) = 6.59178 6.81274 6.70317
#
# Compressibility (1/GPa) = 0.01846704
#
# Stress axis : x y z
#
# Youngs Moduli (GPa) = 79.07303 125.20465 94.50183
#
# Poissons Ratio (x) = 0.24310 0.28691
# Poissons Ratio (y) = 0.15353 0.13197
# Poissons Ratio (z) = 0.24007 0.17484
#
# Static dielectric constant tensor:
#      x y z
#    x 1.777710 0.000000 0.000000 
#    y 0.000000 1.686760 0.000000 
#    z 0.000000 0.000000 2.119310 
# 
# From -- ./inp_files/1464.got.cif
#   From: 2010.05.17/outbox.cif.g08.bks.cpg/sg21_1_cif.got.tgz:1464.got - 2010.06.03 23:14:55.
