data_PCOD9324328
_publ_section_title
;
Structure prediction by ZEFSAII (Michael W. Deem and Ramdas Pophale) SiO2 
 PCOD9324328
Probable space group: C 2 2 2
;
_chemical_formula_sum "Si O2"
_cell_formula_units_Z 48
_cell_length_a 26.469687
_cell_length_b 5.767726
_cell_length_c 14.689473
_cell_angle_alpha 90.000000
_cell_angle_beta 90.000000
_cell_angle_gamma 90.000000
_cell_volume 2242.640402
_symmetry_space_group_name_H-M "C 2 2 2"
_symmetry_group_IT_number 21
_symmetry_cell_setting 'orthorhombic'
loop_
_space_group_symop_operation_xyz
x,y,z
-x,-y,z
x,-y,-z
-x,y,-z
1/2+x,1/2+y,z
1/2-x,1/2-y,z
1/2+x,1/2-y,-z
1/2-x,1/2+y,-z
loop_
_atom_site_type_symbol
_atom_site_label
_atom_site_fract_x
_atom_site_fract_y
_atom_site_fract_z
Si Si1 0.865414 0.759803 0.677701
Si Si2 0.553471 0.879037 0.382405
Si Si3 0.099338 0.851952 0.782123
Si Si4 0.393193 0.500000 0.500000
Si Si5 0.518356 0.248280 0.895778
Si Si6 0.198003 0.617158 0.697723
Si Si7 0.723706 0.000000 0.500000
O O1 0.903971 0.569098 0.639388
O O2 0.860877 0.925482 0.588954
O O3 0.813615 0.653218 0.715897
O O4 0.892640 0.879477 0.762633
O O5 0.556829 0.725120 0.291202
O O6 0.571592 0.709291 0.463247
O O7 0.500000 0.000000 0.395462
O O8 0.078374 0.766944 0.877694
O O9 0.152638 0.745519 0.749420
O O10 0.500000 0.500000 0.859400
O O11 0.500000 0.000000 0.857012
O O12 0.500000 0.245998 0.000000
O O13 0.250000 0.750000 0.715807
O O14 0.193962 0.595820 0.587444
O O15 0.750000 0.750000 0.528572
#
# Coordination Sequence:
#
# PCOD9324328 Si02
#       7
#     8   8   8   4   8   8   4
#     4  10  23  35  57  81 115 171 226 288 344 401
#     4  10  22  37  53  80 117 167 217 278 336 410
#     4  10  23  38  63  92 128 169 221 277 346 418
#     4  10  22  36  50  79 110 168 229 290 341 401
#     4  10  23  43  73 108 141 175 211 268 343 434
#     4  10  24  40  57  86 122 177 234 292 344 390
#     4  10  24  39  60  85 119 174 244 300 339 386
#
# _framework density 21.403343
#
# number of rings (size 3 to 8) (size 9 to 14) (size 15 to 20)
#    0.000    2.000    0.000    1.000   18.667    4.000 
#    0.000    0.000    0.000    0.000    0.000    4.667 
#    0.000    0.000    0.000    0.000    0.000    0.000 
#
# Total GULP energy -133604.379062 kJ/mol
# GULP energy per Si atom -5566.849128 kJ/mol
# Density = 2.135463 g / cm^3
# Si number density = 21.403343 Si / 1000 Ang^3
#
#
#
# Elastic Constant Matrix: (Units=GPa)
#
#
# Indices 1 2 3 4 5 6 
#
# 1 152.1274 69.8423 46.6266 0.0000 0.0000 0.0000
# 2 69.8423 143.3446 20.2137 0.0000 0.0000 0.0000
# 3 46.6266 20.2137 67.1122 0.0000 0.0000 0.0000
# 4 0.0000 0.0000 0.0000 15.7716 0.0000 0.0000
# 5 0.0000 0.0000 0.0000 0.0000 30.0983 0.0000
# 6 0.0000 0.0000 0.0000 0.0000 0.0000 50.9413
#
#
#
# Elastic Compliance Matrix: (Units=1/GPa)
#
#
# Indices 1 2 3 4 5 6 
#
# 1 0.010304 -0.004189 -0.005897 0.000000 0.000000 0.000000
# 2 -0.004189 0.008989 0.000203 0.000000 0.000000 0.000000
# 3 -0.005897 0.000203 0.018936 0.000000 0.000000 0.000000
# 4 0.000000 0.000000 0.000000 0.063405 0.000000 0.000000
# 5 0.000000 0.000000 0.000000 0.000000 0.033224 0.000000
# 6 0.000000 0.000000 0.000000 0.000000 0.000000 0.019630
#
#
# Mechanical properties :
#
#
# Convention : Reuss Voigt Hill
#
# Bulk Modulus (GPa) = 54.16285 70.66104 62.41195
# Shear Modulus (GPa) = 27.71480 34.42237 31.06858
#
# Velocity S-wave (km/s) = 3.60235 4.01468 3.81409
# Velocity P-wave (km/s) = 6.53171 7.38755 6.97277
#
# Compressibility (1/GPa) = 0.01846284
#
# Stress axis : x y z
#
# Youngs Moduli (GPa) = 97.04959 111.25282 52.80857
#
# Poissons Ratio (x) = 0.46602 0.31142
# Poissons Ratio (y) = 0.40653 -0.01072
# Poissons Ratio (z) = 0.57231 -0.02258
#
# Static dielectric constant tensor:
#      x y z
#    x 1.855350 0.000000 0.000000 
#    y 0.000000 1.984790 0.000000 
#    z 0.000000 0.000000 1.838980 
# 
# From -- ./inp_files/33818.got.cif
#   From: 2010.05.17/outbox.cif.g08.bks.cpg/sg21_17_cif.got.tgz:33818.got - 2010.06.03 23:14:55.
