data_PCOD9324524
_publ_section_title
;
Structure prediction by ZEFSAII (Michael W. Deem and Ramdas Pophale) SiO2 
 PCOD9324524
Probable space group: C 2 2 2
;
_chemical_formula_sum "Si O2"
_cell_formula_units_Z 54
_cell_length_a 16.623506
_cell_length_b 5.128030
_cell_length_c 30.594185
_cell_angle_alpha 90.000000
_cell_angle_beta 90.000000
_cell_angle_gamma 90.000000
_cell_volume 2608.026922
_symmetry_space_group_name_H-M "C 2 2 2"
_symmetry_group_IT_number 21
_symmetry_cell_setting 'orthorhombic'
loop_
_space_group_symop_operation_xyz
x,y,z
-x,-y,z
x,-y,-z
-x,y,-z
1/2+x,1/2+y,z
1/2-x,1/2-y,z
1/2+x,1/2-y,-z
1/2-x,1/2+y,-z
loop_
_atom_site_type_symbol
_atom_site_label
_atom_site_fract_x
_atom_site_fract_y
_atom_site_fract_z
Si Si1 0.000000 0.500000 0.000000
Si Si2 0.802620 0.000000 0.000000
Si Si3 0.653628 0.748834 0.306459
Si Si4 0.443028 0.247559 0.837957
Si Si5 0.195597 0.506032 0.552452
Si Si6 0.846481 0.751547 0.749320
Si Si7 0.915571 0.862358 0.930563
Si Si8 0.053141 0.258866 0.391592
O O1 0.058858 0.345670 0.967356
O O2 0.750000 0.750000 0.990319
O O3 0.855165 0.046449 0.956530
O O4 0.750000 0.750000 0.313432
O O5 0.632141 0.529994 0.271088
O O6 0.610169 0.680779 0.351491
O O7 0.632268 0.027981 0.285767
O O8 0.500000 0.500000 0.831144
O O9 0.389811 0.208570 0.795107
O O10 0.390610 0.272719 0.882544
O O11 0.500000 0.000000 0.844985
O O12 0.185984 0.500000 0.500000
O O13 0.250000 0.750000 0.564609
O O14 0.109638 0.589297 0.572906
O O15 0.250000 0.250000 0.564909
O O16 0.750000 0.750000 0.755282
O O17 0.000000 0.000000 0.922051
O O18 0.000000 0.500000 0.374952
O O19 0.000000 0.000000 0.404864
#
# Coordination Sequence:
#
# PCOD9324524 Si02
#       8
#     2   4   8   8   8   8   8   8
#     4  12  16  40  72  80 120 158 218 246 278 366
#     4  12  26  40  61  93 124 150 194 256 310 348
#     4  10  22  41  64  87 120 171 215 249 309 390
#     4  11  24  39  62  92 118 154 204 247 303 367
#     4  10  22  43  68  92 126 179 231 269 318 398
#     4  10  22  41  62  87 122 162 202 256 316 371
#     4  11  23  40  64  88 117 167 203 242 297 373
#     4  12  25  39  63 101 135 165 211 279 341 377
#
# _framework density 20.705307999999999
#
# number of rings (size 3 to 8) (size 9 to 14) (size 15 to 20)
#    0.000    1.185    2.222    3.556    0.000    6.222 
#    0.000    2.963    0.000    0.000    0.000    0.000 
#    0.000    0.000    0.000    0.000    0.000    0.000 
#
# Total GULP energy -150641.372121 kJ/mol
# GULP energy per Si atom -5579.310079 kJ/mol
# Density = 2.065818 g / cm^3
# Si number density = 20.705308 Si / 1000 Ang^3
#
#
#
# Elastic Constant Matrix: (Units=GPa)
#
#
# Indices 1 2 3 4 5 6 
#
# 1 51.9243 18.2536 36.8430 0.0000 0.0000 0.0000
# 2 18.2536 101.0867 10.8580 0.0000 0.0000 0.0000
# 3 36.8430 10.8580 86.2400 0.0000 0.0000 0.0000
# 4 0.0000 0.0000 0.0000 7.7486 0.0000 0.0000
# 5 0.0000 0.0000 0.0000 0.0000 -23.6720 0.0000
# 6 0.0000 0.0000 0.0000 0.0000 0.0000 26.0293
#
#
#
# Elastic Compliance Matrix: (Units=1/GPa)
#
#
# Indices 1 2 3 4 5 6 
#
# 1 0.029133 -0.003978 -0.011945 0.000000 0.000000 0.000000
# 2 -0.003978 0.010571 0.000368 0.000000 0.000000 0.000000
# 3 -0.011945 0.000368 0.016652 0.000000 0.000000 0.000000
# 4 0.000000 0.000000 0.000000 0.129056 0.000000 0.000000
# 5 0.000000 0.000000 0.000000 0.000000 -0.042244 0.000000
# 6 0.000000 0.000000 0.000000 0.000000 0.000000 0.038418
#
#
# Mechanical properties :
#
#
# Convention : Reuss Voigt Hill
#
# Bulk Modulus (GPa) = 39.60791 41.24002 40.42397
# Shear Modulus (GPa) = 22.61310 13.57428 18.09369
#
# Velocity S-wave (km/s) = 3.30834 2.56324 2.95933
# Velocity P-wave (km/s) = 5.81071 5.35921 5.58952
#
# Compressibility (1/GPa) = 0.02524748
#
# Stress axis : x y z
#
# Youngs Moduli (GPa) = 34.32563 94.59692 60.05170
#
# Poissons Ratio (x) = 0.37626 0.71733
# Poissons Ratio (y) = 0.13653 -0.02212
# Poissons Ratio (z) = 0.41002 -0.03484
#
# Static dielectric constant tensor:
#      x y z
#    x 1.846360 0.000000 0.000000 
#    y 0.000000 1.818060 0.000000 
#    z 0.000000 0.000000 1.741790 
# 
# From -- ./inp_files/39609.got.cif
#   From: 2010.05.17/outbox.cif.g08.bks.cpg/sg21_20_cif.got.tgz:39609.got - 2010.06.03 23:14:55.
