data_PCOD9324944
_publ_section_title
;
Structure prediction by ZEFSAII (Michael W. Deem and Ramdas Pophale) SiO2 
 PCOD9324944
Probable space group: C 2 2 2
;
_chemical_formula_sum "Si O2"
_cell_formula_units_Z 18
_cell_length_a 18.855606
_cell_length_b 4.790157
_cell_length_c 8.361638
_cell_angle_alpha 90.000000
_cell_angle_beta 90.000000
_cell_angle_gamma 90.000000
_cell_volume 755.234124
_symmetry_space_group_name_H-M "C 2 2 2"
_symmetry_group_IT_number 21
_symmetry_cell_setting 'orthorhombic'
loop_
_space_group_symop_operation_xyz
x,y,z
-x,-y,z
x,-y,-z
-x,y,-z
1/2+x,1/2+y,z
1/2-x,1/2-y,z
1/2+x,1/2-y,-z
1/2-x,1/2+y,-z
loop_
_atom_site_type_symbol
_atom_site_label
_atom_site_fract_x
_atom_site_fract_y
_atom_site_fract_z
Si Si1 0.750000 0.750000 0.382497
Si Si2 0.000000 0.000000 0.721660
Si Si3 0.362321 0.738331 0.888308
Si Si4 0.000000 0.500000 0.500000
O O1 0.730905 0.500000 0.500000
O O2 0.685131 0.813457 0.264240
O O3 0.063841 0.879486 0.823778
O O4 0.967942 0.736081 0.619662
O O5 0.326998 0.500000 0.000000
O O6 0.374537 0.000000 0.000000
#
# Coordination Sequence:
#
# PCOD9324944 Si02
#       4
#     4   4   8   2
#     4  12  28  48  78 108 146 202 258 306 370 448
#     4  11  25  42  76 108 154 194 248 310 378 448
#     4  12  26  48  76 110 152 195 251 308 379 445
#     4  10  24  42  66 110 156 186 246 300 380 418
#
# _framework density 23.833670999999999
#
# number of rings (size 3 to 8) (size 9 to 14) (size 15 to 20)
#    0.000    0.444    0.000    7.333    9.333    1.778 
#    0.000    0.000    0.000    0.000    0.000    0.000 
#    0.000    0.000    0.000    0.000    0.000    0.000 
#
# Total GULP energy -50356.552930 kJ/mol
# GULP energy per Si atom -5595.172548 kJ/mol
# Density = 2.377942 g / cm^3
# Si number density = 23.833671 Si / 1000 Ang^3
#
#
#
# Elastic Constant Matrix: (Units=GPa)
#
#
# Indices 1 2 3 4 5 6 
#
# 1 114.5820 21.4534 67.9550 0.0000 0.0000 0.0000
# 2 21.4534 185.0276 86.0288 0.0000 0.0000 0.0000
# 3 67.9550 86.0288 180.7312 0.0000 0.0000 0.0000
# 4 0.0000 0.0000 0.0000 87.0565 0.0000 0.0000
# 5 0.0000 0.0000 0.0000 0.0000 -12.8751 0.0000
# 6 0.0000 0.0000 0.0000 0.0000 0.0000 21.9423
#
#
#
# Elastic Compliance Matrix: (Units=1/GPa)
#
#
# Indices 1 2 3 4 5 6 
#
# 1 0.011337 0.000857 -0.004671 0.000000 0.000000 0.000000
# 2 0.000857 0.007006 -0.003657 0.000000 0.000000 0.000000
# 3 -0.004671 -0.003657 0.009030 0.000000 0.000000 0.000000
# 4 0.000000 0.000000 0.000000 0.011487 0.000000 0.000000
# 5 0.000000 0.000000 0.000000 0.000000 -0.077669 0.000000
# 6 0.000000 0.000000 0.000000 0.000000 0.000000 0.045574
#
#
# Mechanical properties :
#
#
# Convention : Reuss Voigt Hill
#
# Bulk Modulus (GPa) = 80.44109 92.35726 86.39918
# Shear Modulus (GPa) = 193.43090 39.55163 116.49126
#
# Velocity S-wave (km/s) = 9.01858 4.07810 6.99878
# Velocity P-wave (km/s) = 11.92773 7.81085 10.08167
#
# Compressibility (1/GPa) = 0.01243146
#
# Stress axis : x y z
#
# Youngs Moduli (GPa) = 88.20727 142.74465 110.74208
#
# Poissons Ratio (x) = -0.12236 0.51724
# Poissons Ratio (y) = -0.07561 0.40498
# Poissons Ratio (z) = 0.41199 0.52201
#
# Static dielectric constant tensor:
#      x y z
#    x 1.903800 0.000000 0.000000 
#    y 0.000000 1.848510 0.000000 
#    z 0.000000 0.000000 1.929720 
# 
# From -- ./inp_files/15690.got.cif
#   From: 2010.05.17/outbox.cif.g08.bks.cpg/sg21_8_cif.got.tgz:15690.got - 2010.06.03 23:14:55.
