data_PCOD9324913
_publ_section_title
;
Structure prediction by ZEFSAII (Michael W. Deem and Ramdas Pophale) SiO2 
 PCOD9324913
Probable space group: C 2 2 2
;
_chemical_formula_sum "Si O2"
_cell_formula_units_Z 58
_cell_length_a 18.207369
_cell_length_b 24.245782
_cell_length_c 5.757475
_cell_angle_alpha 90.000000
_cell_angle_beta 90.000000
_cell_angle_gamma 90.000000
_cell_volume 2541.648275
_symmetry_space_group_name_H-M "C 2 2 2"
_symmetry_group_IT_number 21
_symmetry_cell_setting 'orthorhombic'
loop_
_space_group_symop_operation_xyz
x,y,z
-x,-y,z
x,-y,-z
-x,y,-z
1/2+x,1/2+y,z
1/2-x,1/2-y,z
1/2+x,1/2-y,-z
1/2-x,1/2+y,-z
loop_
_atom_site_type_symbol
_atom_site_label
_atom_site_fract_x
_atom_site_fract_y
_atom_site_fract_z
Si Si1 0.752761 0.553237 0.871326
Si Si2 0.566350 0.823690 0.174053
Si Si3 0.330513 0.766008 0.189396
Si Si4 0.607683 0.452437 0.350940
Si Si5 0.923441 0.789681 0.437487
Si Si6 0.826181 0.876900 0.256619
Si Si7 0.327661 0.128540 0.510509
Si Si8 0.500000 0.500000 0.000000
O O1 0.688999 0.526660 0.716940
O O2 0.813565 0.586335 0.723771
O O3 0.785844 0.500000 0.000000
O O4 0.696846 0.594372 0.014204
O O5 0.550226 0.768417 0.322450
O O6 0.599593 0.869849 0.348707
O O7 0.500000 0.839553 0.000000
O O8 0.629406 0.801189 0.005589
O O9 0.250000 0.750000 0.108586
O O10 0.378307 0.719674 0.322045
O O11 0.321068 0.809965 0.394728
O O12 0.572944 0.500000 0.500000
O O13 0.623982 0.405035 0.539871
O O14 0.554644 0.456401 0.129666
O O15 0.868753 0.818714 0.251514
O O16 0.000000 0.819356 0.500000
O O17 0.744802 0.877444 0.359923
#
# Coordination Sequence:
#
# PCOD9324913 Si02
#       8
#     8   8   8   8   8   8   8   2
#     4  11  22  42  66  95 134 185 241 312 371 416
#     4  11  24  41  67  96 141 187 232 288 368 441
#     4  11  22  41  64  94 135 188 228 283 346 422
#     4  11  22  39  58  83 124 181 240 309 360 419
#     4  11  24  41  60  95 137 192 235 286 343 420
#     4  11  23  40  63  96 134 185 246 304 355 423
#     4  10  24  38  65 100 131 183 240 291 362 439
#     4  12  22  36  60  82 116 188 254 300 370 422
#
# _framework density 22.819838000000001
#
# number of rings (size 3 to 8) (size 9 to 14) (size 15 to 20)
#    0.000    1.103    4.828    1.034    3.862    2.207 
#    0.000    0.000    1.517    0.000    0.000    0.000 
#    0.000   38.621    0.000    0.000    0.000    0.000 
#
# Total GULP energy -161442.131672 kJ/mol
# GULP energy per Si atom -5566.970058 kJ/mol
# Density = 2.276790 g / cm^3
# Si number density = 22.819838 Si / 1000 Ang^3
#
#
#
# Elastic Constant Matrix: (Units=GPa)
#
#
# Indices 1 2 3 4 5 6 
#
# 1 124.0277 44.1105 55.1986 0.0000 0.0000 0.0000
# 2 44.1105 59.3006 25.4299 0.0000 0.0000 0.0000
# 3 55.1986 25.4299 84.0421 0.0000 0.0000 0.0000
# 4 0.0000 0.0000 0.0000 28.8186 0.0000 0.0000
# 5 0.0000 0.0000 0.0000 0.0000 33.5646 0.0000
# 6 0.0000 0.0000 0.0000 0.0000 0.0000 33.5714
#
#
#
# Elastic Compliance Matrix: (Units=1/GPa)
#
#
# Indices 1 2 3 4 5 6 
#
# 1 0.013658 -0.007254 -0.006776 0.000000 0.000000 0.000000
# 2 -0.007254 0.023230 -0.002265 0.000000 0.000000 0.000000
# 3 -0.006776 -0.002265 0.017034 0.000000 0.000000 0.000000
# 4 0.000000 0.000000 0.000000 0.034700 0.000000 0.000000
# 5 0.000000 0.000000 0.000000 0.000000 0.029793 0.000000
# 6 0.000000 0.000000 0.000000 0.000000 0.000000 0.029787
#
#
# Mechanical properties :
#
#
# Convention : Reuss Voigt Hill
#
# Bulk Modulus (GPa) = 46.87371 57.42761 52.15066
# Shear Modulus (GPa) = 26.60949 28.69969 27.65459
#
# Velocity S-wave (km/s) = 3.41848 3.55020 3.48496
# Velocity P-wave (km/s) = 6.01388 6.48271 6.25269
#
# Compressibility (1/GPa) = 0.02133392
#
# Stress axis : x y z
#
# Youngs Moduli (GPa) = 73.21688 43.04739 58.70506
#
# Poissons Ratio (x) = 0.31226 0.39776
# Poissons Ratio (y) = 0.53111 0.13296
# Poissons Ratio (z) = 0.49609 0.09749
#
# Static dielectric constant tensor:
#      x y z
#    x 1.877220 0.000000 0.000000 
#    y 0.000000 2.025440 0.000000 
#    z 0.000000 0.000000 1.844810 
# 
# From -- ./inp_files/5336.got.cif
#   From: 2010.05.17/outbox.cif.g08.bks.cpg/sg21_3_cif.got.tgz:5336.got - 2010.06.03 23:14:55.
