data_PCOD9324508
_publ_section_title
;
Structure prediction by ZEFSAII (Michael W. Deem and Ramdas Pophale) SiO2 
 PCOD9324508
Probable space group: C 2 2 2
;
_chemical_formula_sum "Si O2"
_cell_formula_units_Z 32
_cell_length_a 10.443086
_cell_length_b 17.366187
_cell_length_c 8.514737
_cell_angle_alpha 90.000000
_cell_angle_beta 90.000000
_cell_angle_gamma 90.000000
_cell_volume 1544.203619
_symmetry_space_group_name_H-M "C 2 2 2"
_symmetry_group_IT_number 21
_symmetry_cell_setting 'orthorhombic'
loop_
_space_group_symop_operation_xyz
x,y,z
-x,-y,z
x,-y,-z
-x,y,-z
1/2+x,1/2+y,z
1/2-x,1/2-y,z
1/2+x,1/2-y,-z
1/2-x,1/2+y,-z
loop_
_atom_site_type_symbol
_atom_site_label
_atom_site_fract_x
_atom_site_fract_y
_atom_site_fract_z
Si Si1 0.406479 0.637966 0.711823
Si Si2 0.500000 0.500000 0.500000
Si Si3 0.250000 0.750000 0.485738
Si Si4 0.066725 0.724933 0.220960
Si Si5 0.161328 0.641290 0.905637
Si Si6 0.500000 0.000000 0.000000
O O1 0.429490 0.558417 0.620646
O O2 0.334619 0.691539 0.585082
O O3 0.533401 0.683930 0.769614
O O4 0.307021 0.634004 0.855644
O O5 0.152996 0.705881 0.369204
O O6 0.926214 0.686824 0.219224
O O7 0.135384 0.689407 0.066393
O O8 0.094678 0.558235 0.912402
#
# Coordination Sequence:
#
# PCOD9324508 Si02
#       6
#     8   2   4   8   8   2
#     4  12  24  46  66 108 141 187 229 298 360 431
#     4  12  28  44  68 112 168 178 226 296 394 436
#     4  12  22  38  72  98 138 174 244 280 354 428
#     4  10  22  40  68 101 128 182 242 288 339 421
#     4  10  23  41  73  94 140 180 245 296 339 431
#     4   8  20  44  60 100 132 174 224 290 366 404
#
# _framework density 20.722657000000002
#
# number of rings (size 3 to 8) (size 9 to 14) (size 15 to 20)
#    0.000    1.500    5.000    0.000    7.000    4.000 
#    0.000    0.000    0.000    0.000    0.000    0.000 
#    0.000    0.000    0.000    0.000    0.000    0.000 
#
# Total GULP energy -89226.681955 kJ/mol
# GULP energy per Si atom -5576.667622 kJ/mol
# Density = 2.067549 g / cm^3
# Si number density = 20.722657 Si / 1000 Ang^3
#
#
#
# Elastic Constant Matrix: (Units=GPa)
#
#
# Indices 1 2 3 4 5 6 
#
# 1 76.2018 42.7969 51.3886 0.0000 0.0000 0.0000
# 2 42.7969 144.6776 61.9198 0.0000 0.0000 0.0000
# 3 51.3886 61.9198 100.0217 0.0000 0.0000 0.0000
# 4 0.0000 0.0000 0.0000 34.0472 0.0000 0.0000
# 5 0.0000 0.0000 0.0000 0.0000 53.7144 0.0000
# 6 0.0000 0.0000 0.0000 0.0000 0.0000 32.6874
#
#
#
# Elastic Compliance Matrix: (Units=1/GPa)
#
#
# Indices 1 2 3 4 5 6 
#
# 1 0.020549 -0.002122 -0.009243 0.000000 0.000000 0.000000
# 2 -0.002122 0.009623 -0.004867 0.000000 0.000000 0.000000
# 3 -0.009243 -0.004867 0.017760 0.000000 0.000000 0.000000
# 4 0.000000 0.000000 0.000000 0.029371 0.000000 0.000000
# 5 0.000000 0.000000 0.000000 0.000000 0.018617 0.000000
# 6 0.000000 0.000000 0.000000 0.000000 0.000000 0.030593
#
#
# Mechanical properties :
#
#
# Convention : Reuss Voigt Hill
#
# Bulk Modulus (GPa) = 64.65815 70.34574 67.50194
# Shear Modulus (GPa) = 30.46336 35.07618 32.76977
#
# Velocity S-wave (km/s) = 3.83828 4.11864 3.98093
# Velocity P-wave (km/s) = 7.13531 7.52580 7.33315
#
# Compressibility (1/GPa) = 0.01546595
#
# Stress axis : x y z
#
# Youngs Moduli (GPa) = 48.66517 103.92259 56.30766
#
# Poissons Ratio (x) = 0.22057 0.52048
# Poissons Ratio (y) = 0.10329 0.27402
# Poissons Ratio (z) = 0.44983 0.50574
#
# Static dielectric constant tensor:
#      x y z
#    x 1.804880 0.000000 0.000000 
#    y 0.000000 1.774150 0.000000 
#    z 0.000000 0.000000 1.789130 
# 
# From -- ./inp_files/12248.got.cif
#   From: 2010.05.17/outbox.cif.g08.bks.cpg/sg21_7_cif.got.tgz:12248.got - 2010.06.03 23:14:55.
