data_PCOD9324024
_publ_section_title
;
Structure prediction by ZEFSAII (Michael W. Deem and Ramdas Pophale) SiO2 
 PCOD9324024
Probable space group: C 2 2 2
;
_chemical_formula_sum "Si O2"
_cell_formula_units_Z 24
_cell_length_a 7.895804
_cell_length_b 14.126092
_cell_length_c 8.291673
_cell_angle_alpha 90.000000
_cell_angle_beta 90.000000
_cell_angle_gamma 90.000000
_cell_volume 924.827118
_symmetry_space_group_name_H-M "C 2 2 2"
_symmetry_group_IT_number 21
_symmetry_cell_setting 'orthorhombic'
loop_
_space_group_symop_operation_xyz
x,y,z
-x,-y,z
x,-y,-z
-x,y,-z
1/2+x,1/2+y,z
1/2-x,1/2-y,z
1/2+x,1/2-y,-z
1/2-x,1/2+y,-z
loop_
_atom_site_type_symbol
_atom_site_label
_atom_site_fract_x
_atom_site_fract_y
_atom_site_fract_z
Si Si1 0.500000 0.226141 0.000000
Si Si2 0.195821 0.148314 0.451416
Si Si3 0.750000 0.750000 0.743066
Si Si4 0.819469 0.447653 0.849441
O O1 0.406821 0.277713 0.854787
O O2 0.635737 0.155028 0.921331
O O3 0.250000 0.250000 0.377418
O O4 0.292560 0.162155 0.624065
O O5 0.234846 0.067524 0.323491
O O6 0.000000 0.147458 0.500000
O O7 0.000000 0.500000 0.827296
O O8 0.729497 0.500000 0.000000
#
# Coordination Sequence:
#
# PCOD9324024 Si02
#       4
#     4   8   4   8
#     4  10  21  38  64 104 141 194 232 300 373 420
#     4  10  22  40  72 120 140 186 247 309 367 422
#     4  10  24  34  68 112 144 182 238 320 348 428
#     4   9  21  43  71 104 144 200 238 291 375 441
#
# _framework density 25.950794999999999
#
# number of rings (size 3 to 8) (size 9 to 14) (size 15 to 20)
#    1.000    1.667    0.000    2.000    7.000    0.000 
#    0.000   13.333    0.000   28.000    0.000    0.000 
#    0.000    0.000    0.000    0.000    0.000    0.000 
#
# Total GULP energy -66989.568460 kJ/mol
# GULP energy per Si atom -5582.464038 kJ/mol
# Density = 2.589173 g / cm^3
# Si number density = 25.950795 Si / 1000 Ang^3
#
#
#
# Elastic Constant Matrix: (Units=GPa)
#
#
# Indices 1 2 3 4 5 6 
#
# 1 74.0189 22.3438 76.5618 0.0000 0.0000 0.0000
# 2 22.3438 79.5341 64.5822 0.0000 0.0000 0.0000
# 3 76.5618 64.5822 245.4443 0.0000 0.0000 0.0000
# 4 0.0000 0.0000 0.0000 46.7406 0.0000 0.0000
# 5 0.0000 0.0000 0.0000 0.0000 44.2421 0.0000
# 6 0.0000 0.0000 0.0000 0.0000 0.0000 24.3972
#
#
#
# Elastic Compliance Matrix: (Units=1/GPa)
#
#
# Indices 1 2 3 4 5 6 
#
# 1 0.019976 -0.000702 -0.006046 0.000000 0.000000 0.000000
# 2 -0.000702 0.016014 -0.003995 0.000000 0.000000 0.000000
# 3 -0.006046 -0.003995 0.007011 0.000000 0.000000 0.000000
# 4 0.000000 0.000000 0.000000 0.021395 0.000000 0.000000
# 5 0.000000 0.000000 0.000000 0.000000 0.022603 0.000000
# 6 0.000000 0.000000 0.000000 0.000000 0.000000 0.040988
#
#
# Mechanical properties :
#
#
# Convention : Reuss Voigt Hill
#
# Bulk Modulus (GPa) = 46.47893 80.66364 63.57129
# Shear Modulus (GPa) = 31.91909 38.77661 35.34785
#
# Velocity S-wave (km/s) = 3.51092 3.86973 3.69468
# Velocity P-wave (km/s) = 5.86385 7.14963 6.53842
#
# Compressibility (1/GPa) = 0.02151512
#
# Stress axis : x y z
#
# Youngs Moduli (GPa) = 50.05962 62.44459 142.62490
#
# Poissons Ratio (x) = 0.04385 0.86237
# Poissons Ratio (y) = 0.03515 0.56974
# Poissons Ratio (z) = 0.30268 0.24944
#
# Static dielectric constant tensor:
#      x y z
#    x 2.068440 0.000000 0.000000 
#    y 0.000000 2.096100 0.000000 
#    z 0.000000 0.000000 2.157100 
# 
# From -- ./inp_files/9804.got.cif
#   From: 2010.05.17/outbox.cif.g08.bks.cpg/sg21_5_cif.got.tgz:9804.got - 2010.06.03 23:14:55.
