data_PCOD9324587
_publ_section_title
;
Structure prediction by ZEFSAII (Michael W. Deem and Ramdas Pophale) SiO2 
 PCOD9324587
Probable space group: C 2 2 2
;
_chemical_formula_sum "Si O2"
_cell_formula_units_Z 26
_cell_length_a 10.038824
_cell_length_b 16.790662
_cell_length_c 7.306059
_cell_angle_alpha 90.000000
_cell_angle_beta 90.000000
_cell_angle_gamma 90.000000
_cell_volume 1231.498351
_symmetry_space_group_name_H-M "C 2 2 2"
_symmetry_group_IT_number 21
_symmetry_cell_setting 'orthorhombic'
loop_
_space_group_symop_operation_xyz
x,y,z
-x,-y,z
x,-y,-z
-x,y,-z
1/2+x,1/2+y,z
1/2-x,1/2-y,z
1/2+x,1/2-y,-z
1/2-x,1/2+y,-z
loop_
_atom_site_type_symbol
_atom_site_label
_atom_site_fract_x
_atom_site_fract_y
_atom_site_fract_z
Si Si1 0.605985 0.753512 0.358238
Si Si2 0.920490 0.422646 0.815643
Si Si3 0.500000 0.500000 0.500000
Si Si4 0.888257 0.903482 0.158418
O O1 0.500000 0.722966 0.500000
O O2 0.750000 0.750000 0.449498
O O3 0.574100 0.843779 0.305942
O O4 0.613678 0.691937 0.190171
O O5 0.764330 0.431819 0.869716
O O6 0.000000 0.500000 0.738649
O O7 0.000000 0.404877 0.000000
O O8 0.423201 0.444399 0.353701
O O9 0.000000 0.918455 0.000000
#
# Coordination Sequence:
#
# PCOD9324587 Si02
#       4
#     8   8   2   8
#     4  10  22  42  66 101 137 178 229 285 342 411
#     4  10  24  42  65 100 139 178 230 279 354 405
#     4  12  26  40  70 106 126 172 240 276 344 402
#     4  11  25  45  72  98 139 182 231 288 339 417
#
# _framework density 21.112490999999999
#
# number of rings (size 3 to 8) (size 9 to 14) (size 15 to 20)
#    0.000    1.538    1.538    1.385    8.615    8.000 
#    0.000    0.000    0.000    0.000    0.000    0.000 
#    0.000    0.000    0.000    0.000    0.000    0.000 
#
# Total GULP energy -72424.381301 kJ/mol
# GULP energy per Si atom -5571.106254 kJ/mol
# Density = 2.106444 g / cm^3
# Si number density = 21.112491 Si / 1000 Ang^3
#
#
#
# Elastic Constant Matrix: (Units=GPa)
#
#
# Indices 1 2 3 4 5 6 
#
# 1 211.2330 60.3415 79.3714 0.0000 0.0000 0.0000
# 2 60.3415 162.5254 23.2259 0.0000 0.0000 0.0000
# 3 79.3714 23.2259 88.0905 0.0000 0.0000 0.0000
# 4 0.0000 0.0000 0.0000 8.6790 0.0000 0.0000
# 5 0.0000 0.0000 0.0000 0.0000 27.8946 0.0000
# 6 0.0000 0.0000 0.0000 0.0000 0.0000 10.8947
#
#
#
# Elastic Compliance Matrix: (Units=1/GPa)
#
#
# Indices 1 2 3 4 5 6 
#
# 1 0.007705 -0.001942 -0.006430 0.000000 0.000000 0.000000
# 2 -0.001942 0.006883 -0.000065 0.000000 0.000000 0.000000
# 3 -0.006430 -0.000065 0.017163 0.000000 0.000000 0.000000
# 4 0.000000 0.000000 0.000000 0.115221 0.000000 0.000000
# 5 0.000000 0.000000 0.000000 0.000000 0.035849 0.000000
# 6 0.000000 0.000000 0.000000 0.000000 0.000000 0.091788
#
#
# Mechanical properties :
#
#
# Convention : Reuss Voigt Hill
#
# Bulk Modulus (GPa) = 67.22045 87.52516 77.37281
# Shear Modulus (GPa) = 16.86664 29.42098 23.14381
#
# Velocity S-wave (km/s) = 2.82954 3.73706 3.31450
# Velocity P-wave (km/s) = 6.52559 7.75676 7.16766
#
# Compressibility (1/GPa) = 0.01487642
#
# Stress axis : x y z
#
# Youngs Moduli (GPa) = 129.78483 145.28283 58.26431
#
# Poissons Ratio (x) = 0.28210 0.37467
# Poissons Ratio (y) = 0.25201 0.00380
# Poissons Ratio (z) = 0.83458 0.00948
#
# Static dielectric constant tensor:
#      x y z
#    x 1.799360 0.000000 0.000000 
#    y 0.000000 1.846080 0.000000 
#    z 0.000000 0.000000 1.886940 
# 
# From -- ./inp_files/10136.got.cif
#   From: 2010.05.17/outbox.cif.g08.bks.cpg/sg21_6_cif.got.tgz:10136.got - 2010.06.03 23:14:55.
