data_PCOD9324066
_publ_section_title
;
Structure prediction by ZEFSAII (Michael W. Deem and Ramdas Pophale) SiO2 
 PCOD9324066
Probable space group: C 2 2 2
;
_chemical_formula_sum "Si O2"
_cell_formula_units_Z 38
_cell_length_a 33.378196
_cell_length_b 5.345083
_cell_length_c 10.797148
_cell_angle_alpha 90.000000
_cell_angle_beta 90.000000
_cell_angle_gamma 90.000000
_cell_volume 1926.310839
_symmetry_space_group_name_H-M "C 2 2 2"
_symmetry_group_IT_number 21
_symmetry_cell_setting 'orthorhombic'
loop_
_space_group_symop_operation_xyz
x,y,z
-x,-y,z
x,-y,-z
-x,y,-z
1/2+x,1/2+y,z
1/2-x,1/2-y,z
1/2+x,1/2-y,-z
1/2-x,1/2+y,-z
loop_
_atom_site_type_symbol
_atom_site_label
_atom_site_fract_x
_atom_site_fract_y
_atom_site_fract_z
Si Si1 0.455101 0.892272 0.131411
Si Si2 0.105776 0.481350 0.646776
Si Si3 0.224507 0.000000 0.500000
Si Si4 0.843734 0.980612 0.299232
Si Si5 0.772089 0.000153 0.146614
Si Si6 0.000000 0.000000 0.000000
O O1 0.429526 0.942753 0.252682
O O2 0.467431 0.612646 0.096556
O O3 0.500000 0.000000 0.144380
O O4 0.438225 0.000000 0.000000
O O5 0.094716 0.500000 0.500000
O O6 0.128738 0.737325 0.683432
O O7 0.133401 0.235201 0.665192
O O8 0.250000 0.750000 0.482042
O O9 0.194383 0.954029 0.612110
O O10 0.819801 0.000675 0.170720
O O11 0.750000 0.750000 0.194623
O O12 0.750000 0.250000 0.195413
O O13 0.765892 0.000000 0.000000
#
# Coordination Sequence:
#
# PCOD9324066 Si02
#       6
#     8   8   4   8   8   2
#     4   9  22  42  72  99 130 172 229 270 321 404
#     4  12  25  43  64  94 144 172 208 275 334 391
#     4  12  22  38  64  84 117 172 227 266 318 378
#     4  12  24  41  60  93 130 169 214 268 331 392
#     4  10  21  39  62  87 120 161 216 276 325 387
#     4   8  18  44  72 104 128 164 246 278 310 412
#
# _framework density 19.726825999999999
#
# number of rings (size 3 to 8) (size 9 to 14) (size 15 to 20)
#    0.000    1.474    2.105    3.789    5.895    2.105 
#    0.000    0.000    0.000    0.000    0.000    0.000 
#    0.000    0.000    0.000    0.000    0.000    0.000 
#
# Total GULP energy -105790.339078 kJ/mol
# GULP energy per Si atom -5567.912583 kJ/mol
# Density = 1.968193 g / cm^3
# Si number density = 19.726826 Si / 1000 Ang^3
#
#
#
# Elastic Constant Matrix: (Units=GPa)
#
#
# Indices 1 2 3 4 5 6 
#
# 1 92.3225 44.7471 69.6403 0.0000 0.0000 0.0000
# 2 44.7471 127.8653 55.6722 0.0000 0.0000 0.0000
# 3 69.6403 55.6722 107.8175 0.0000 0.0000 0.0000
# 4 0.0000 0.0000 0.0000 21.4735 0.0000 0.0000
# 5 0.0000 0.0000 0.0000 0.0000 39.6468 0.0000
# 6 0.0000 0.0000 0.0000 0.0000 0.0000 601.7903
#
#
#
# Elastic Compliance Matrix: (Units=1/GPa)
#
#
# Indices 1 2 3 4 5 6 
#
# 1 0.021477 -0.001904 -0.012889 0.000000 0.000000 0.000000
# 2 -0.001904 0.010258 -0.004067 0.000000 0.000000 0.000000
# 3 -0.012889 -0.004067 0.019700 0.000000 0.000000 0.000000
# 4 0.000000 0.000000 0.000000 0.046569 0.000000 0.000000
# 5 0.000000 0.000000 0.000000 0.000000 0.025223 0.000000
# 6 0.000000 0.000000 0.000000 0.000000 0.000000 0.001662
#
#
# Mechanical properties :
#
#
# Convention : Reuss Voigt Hill
#
# Bulk Modulus (GPa) = 72.91330 74.23603 73.57467
# Shear Modulus (GPa) = 29.90811 143.11184 86.50997
#
# Velocity S-wave (km/s) = 3.89795 8.52668 6.62942
# Velocity P-wave (km/s) = 7.56971 11.60400 9.79677
#
# Compressibility (1/GPa) = 0.01371492
#
# Stress axis : x y z
#
# Youngs Moduli (GPa) = 46.56199 97.48735 50.76184
#
# Poissons Ratio (x) = 0.18563 0.65426
# Poissons Ratio (y) = 0.08866 0.20644
# Poissons Ratio (z) = 0.60013 0.39646
#
# Static dielectric constant tensor:
#      x y z
#    x 1.644890 0.000000 0.000000 
#    y 0.000000 2.263150 0.000000 
#    z 0.000000 0.000000 1.896820 
# 
# From -- ./inp_files/27661.got.cif
#   From: 2010.05.17/outbox.cif.g08.bks.cpg/sg21_14_cif.got.tgz:27661.got - 2010.06.03 23:14:55.
