data_PCOD9324496
_publ_section_title
;
Structure prediction by ZEFSAII (Michael W. Deem and Ramdas Pophale) SiO2 
 PCOD9324496
Probable space group: C 2 2 2
;
_chemical_formula_sum "Si O2"
_cell_formula_units_Z 30
_cell_length_a 8.352546
_cell_length_b 11.558920
_cell_length_c 13.715605
_cell_angle_alpha 90.000000
_cell_angle_beta 90.000000
_cell_angle_gamma 90.000000
_cell_volume 1324.192438
_symmetry_space_group_name_H-M "C 2 2 2"
_symmetry_group_IT_number 21
_symmetry_cell_setting 'orthorhombic'
loop_
_space_group_symop_operation_xyz
x,y,z
-x,-y,z
x,-y,-z
-x,y,-z
1/2+x,1/2+y,z
1/2-x,1/2-y,z
1/2+x,1/2-y,-z
1/2-x,1/2+y,-z
loop_
_atom_site_type_symbol
_atom_site_label
_atom_site_fract_x
_atom_site_fract_y
_atom_site_fract_z
Si Si1 0.500000 0.500000 0.735766
Si Si2 0.918617 0.801213 0.587109
Si Si3 0.500000 0.000000 0.323105
Si Si4 0.232510 0.500000 0.500000
Si Si5 0.194382 0.618192 0.169521
Si Si6 0.000000 0.500000 0.000000
O O1 0.505566 0.381417 0.668981
O O2 0.340607 0.468508 0.798608
O O3 0.750000 0.750000 0.629036
O O4 0.000000 0.721255 0.500000
O O5 0.842563 0.891600 0.513133
O O6 0.641941 0.982239 0.398671
O O7 0.555110 0.102248 0.251963
O O8 0.250000 0.750000 0.160136
O O9 0.113032 0.575614 0.070118
#
# Coordination Sequence:
#
# PCOD9324496 Si02
#       6
#     4   8   4   4   8   2
#     4  12  23  43  66 102 142 180 240 298 346 434
#     4  12  24  40  62  97 143 198 248 291 343 402
#     4  10  22  40  66 102 142 194 238 288 332 420
#     4  11  21  40  66  95 155 194 248 291 325 400
#     4  11  25  48  78 103 145 180 234 296 375 432
#     4  10  28  52  76 116 132 172 240 302 368 466
#
# _framework density 22.655318999999999
#
# number of rings (size 3 to 8) (size 9 to 14) (size 15 to 20)
#    0.000    0.800    5.333    0.800    3.733    2.667 
#    0.000    4.000    0.000    0.000    0.000    0.000 
#    0.000    0.000    0.000    0.000    0.000    0.000 
#
# Total GULP energy -83509.073473 kJ/mol
# GULP energy per Si atom -5567.271565 kJ/mol
# Density = 2.260375 g / cm^3
# Si number density = 22.655319 Si / 1000 Ang^3
#
#
#
# Elastic Constant Matrix: (Units=GPa)
#
#
# Indices 1 2 3 4 5 6 
#
# 1 121.3813 45.2480 78.8453 0.0000 0.0000 0.0000
# 2 45.2480 127.9668 61.8200 0.0000 0.0000 0.0000
# 3 78.8453 61.8200 183.5235 0.0000 0.0000 0.0000
# 4 0.0000 0.0000 0.0000 -167.8349 0.0000 0.0000
# 5 0.0000 0.0000 0.0000 0.0000 50.8408 0.0000
# 6 0.0000 0.0000 0.0000 0.0000 0.0000 44.6244
#
#
#
# Elastic Compliance Matrix: (Units=1/GPa)
#
#
# Indices 1 2 3 4 5 6 
#
# 1 0.011870 -0.002070 -0.004402 0.000000 0.000000 0.000000
# 2 -0.002070 0.009694 -0.002376 0.000000 0.000000 0.000000
# 3 -0.004402 -0.002376 0.008140 0.000000 0.000000 0.000000
# 4 0.000000 0.000000 0.000000 -0.005958 0.000000 0.000000
# 5 0.000000 0.000000 0.000000 0.000000 0.019669 0.000000
# 6 0.000000 0.000000 0.000000 0.000000 0.000000 0.022409
#
#
# Mechanical properties :
#
#
# Convention : Reuss Voigt Hill
#
# Bulk Modulus (GPa) = 83.28084 89.41089 86.34587
# Shear Modulus (GPa) = 57.12676 1.98994 29.55835
#
# Velocity S-wave (km/s) = 5.02696 0.93822 3.61598
# Velocity P-wave (km/s) = 8.39843 6.38162 7.45851
#
# Compressibility (1/GPa) = 0.01200756
#
# Stress axis : x y z
#
# Youngs Moduli (GPa) = 84.24794 103.15132 122.84282
#
# Poissons Ratio (x) = 0.21357 0.54076
# Poissons Ratio (y) = 0.17443 0.29189
# Poissons Ratio (z) = 0.37086 0.24510
#
# Static dielectric constant tensor:
#      x y z
#    x 3.478210 0.000000 0.000000 
#    y 0.000000 2.055050 0.000000 
#    z 0.000000 0.000000 1.936080 
# 
# From -- ./inp_files/29899.got.cif
#   From: 2010.05.17/outbox.cif.g08.bks.cpg/sg21_15_cif.got.tgz:29899.got - 2010.06.03 23:14:55.
