data_PCOD9324065
_publ_section_title
;
Structure prediction by ZEFSAII (Michael W. Deem and Ramdas Pophale) SiO2 
 PCOD9324065
Probable space group: C 2 2 2
;
_chemical_formula_sum "Si O2"
_cell_formula_units_Z 48
_cell_length_a 10.216598
_cell_length_b 31.795288
_cell_length_c 7.492910
_cell_angle_alpha 90.000000
_cell_angle_beta 90.000000
_cell_angle_gamma 90.000000
_cell_volume 2433.994455
_symmetry_space_group_name_H-M "C 2 2 2"
_symmetry_group_IT_number 21
_symmetry_cell_setting 'orthorhombic'
loop_
_space_group_symop_operation_xyz
x,y,z
-x,-y,z
x,-y,-z
-x,y,-z
1/2+x,1/2+y,z
1/2-x,1/2-y,z
1/2+x,1/2-y,-z
1/2-x,1/2+y,-z
loop_
_atom_site_type_symbol
_atom_site_label
_atom_site_fract_x
_atom_site_fract_y
_atom_site_fract_z
Si Si1 0.490448 0.171399 0.711792
Si Si2 0.396639 0.260528 0.854732
Si Si3 0.730338 0.896343 0.668128
Si Si4 0.525139 0.653738 0.708363
Si Si5 0.656112 0.951912 0.968927
Si Si6 0.745438 0.880080 0.239486
O O1 0.500000 0.175729 0.500000
O O2 0.453700 0.216963 0.782263
O O3 0.376080 0.137532 0.737197
O O4 0.625794 0.152738 0.786291
O O5 0.250000 0.250000 0.914497
O O6 0.403859 0.300999 0.727938
O O7 0.500000 0.274781 0.000000
O O8 0.868648 0.881792 0.748462
O O9 0.735441 0.894443 0.450800
O O10 0.688537 0.938845 0.765468
O O11 0.500000 0.650140 0.500000
O O12 0.383735 0.643621 0.793414
O O13 0.722907 0.919260 0.107575
O O14 0.500000 0.948451 0.000000
O O15 0.695666 0.000000 0.000000
#
# Coordination Sequence:
#
# PCOD9324065 Si02
#       6
#     8   8   8   8   8   8
#     4  10  21  39  62  84 118 165 206 253 302 359
#     4  12  27  39  56  90 127 165 212 262 304 360
#     4  10  21  42  65  92 125 163 209 257 309 375
#     4  10  23  43  64  88 124 170 211 256 313 368
#     4  11  24  40  66  97 126 161 205 263 322 381
#     4  10  23  40  67  94 122 166 209 254 318 375
#
# _framework density 19.720669999999998
#
# number of rings (size 3 to 8) (size 9 to 14) (size 15 to 20)
#    0.000    1.500    3.333    0.500    7.000    0.667 
#    0.000    3.333    0.000    3.000    0.000    0.000 
#    0.000    0.000    0.000    0.000    0.000    0.000 
#
# Total GULP energy -133898.059657 kJ/mol
# GULP energy per Si atom -5579.085819 kJ/mol
# Density = 1.967578 g / cm^3
# Si number density = 19.720670 Si / 1000 Ang^3
#
#
#
# Elastic Constant Matrix: (Units=GPa)
#
#
# Indices 1 2 3 4 5 6 
#
# 1 122.4772 8.5101 15.7818 0.0000 0.0000 0.0000
# 2 8.5101 83.4871 23.7719 0.0000 0.0000 0.0000
# 3 15.7818 23.7719 42.1547 0.0000 0.0000 0.0000
# 4 0.0000 0.0000 0.0000 -1.8516 0.0000 0.0000
# 5 0.0000 0.0000 0.0000 0.0000 15.7669 0.0000
# 6 0.0000 0.0000 0.0000 0.0000 0.0000 3.7902
#
#
#
# Elastic Compliance Matrix: (Units=1/GPa)
#
#
# Indices 1 2 3 4 5 6 
#
# 1 0.008579 0.000048 -0.003239 0.000000 0.000000 0.000000
# 2 0.000048 0.014269 -0.008065 0.000000 0.000000 0.000000
# 3 -0.003239 -0.008065 0.029482 0.000000 0.000000 0.000000
# 4 0.000000 0.000000 0.000000 -0.540078 0.000000 0.000000
# 5 0.000000 0.000000 0.000000 0.000000 0.063424 0.000000
# 6 0.000000 0.000000 0.000000 0.000000 0.000000 0.263841
#
#
# Mechanical properties :
#
#
# Convention : Reuss Voigt Hill
#
# Bulk Modulus (GPa) = 33.53516 38.24963 35.89240
# Shear Modulus (GPa) = -39.05280 16.87812 -11.08734
#
# Velocity S-wave (km/s) = -4.45488 2.92868 -2.37369
# Velocity P-wave (km/s) = 3.06909 5.55644 3.27527
#
# Compressibility (1/GPa) = 0.02981945
#
# Stress axis : x y z
#
# Youngs Moduli (GPa) = 116.56667 70.08035 33.91853
#
# Poissons Ratio (x) = -0.00334 0.10985
# Poissons Ratio (y) = -0.00556 0.27354
# Poissons Ratio (z) = 0.37751 0.56517
#
# Static dielectric constant tensor:
#      x y z
#    x 1.724860 0.000000 0.000000 
#    y 0.000000 1.695220 0.000000 
#    z 0.000000 0.000000 1.826420 
# 
# From -- ./inp_files/11512.got.cif
#   From: 2010.05.17/outbox.cif.g08.bks.cpg/sg21_6_cif.got.tgz:11512.got - 2010.06.03 23:14:55.
