data_PCOD9324222
_publ_section_title
;
Structure prediction by ZEFSAII (Michael W. Deem and Ramdas Pophale) SiO2 
 PCOD9324222
Probable space group: C 2 2 2
;
_chemical_formula_sum "Si O2"
_cell_formula_units_Z 28
_cell_length_a 8.330183
_cell_length_b 14.158067
_cell_length_c 8.904250
_cell_angle_alpha 90.000000
_cell_angle_beta 90.000000
_cell_angle_gamma 90.000000
_cell_volume 1050.160914
_symmetry_space_group_name_H-M "C 2 2 2"
_symmetry_group_IT_number 21
_symmetry_cell_setting 'orthorhombic'
loop_
_space_group_symop_operation_xyz
x,y,z
-x,-y,z
x,-y,-z
-x,y,-z
1/2+x,1/2+y,z
1/2-x,1/2-y,z
1/2+x,1/2-y,-z
1/2-x,1/2+y,-z
loop_
_atom_site_type_symbol
_atom_site_label
_atom_site_fract_x
_atom_site_fract_y
_atom_site_fract_z
Si Si1 0.548172 0.140951 0.164486
Si Si2 0.839702 0.393621 0.566199
Si Si3 0.500000 0.632879 0.500000
Si Si4 0.924072 0.868748 0.834107
O O1 0.401498 0.102286 0.264904
O O2 0.733832 0.110884 0.180454
O O3 0.549559 0.255190 0.177263
O O4 0.500000 0.114506 0.000000
O O5 0.824122 0.500000 0.500000
O O6 0.684560 0.338657 0.514173
O O7 0.000000 0.345970 0.500000
O O8 0.502888 0.594895 0.676095
O O9 0.000000 0.894407 0.000000
#
# Coordination Sequence:
#
# PCOD9324222 Si02
#       4
#     8   8   4   8
#     4  10  21  41  67  98 139 174 217 274 334 400
#     4  11  24  43  65  94 129 177 229 268 321 392
#     4  12  23  40  72  96 135 174 220 280 336 386
#     4  10  22  38  66 107 137 170 216 275 341 402
#
# _framework density 26.662579000000001
#
# number of rings (size 3 to 8) (size 9 to 14) (size 15 to 20)
#    0.000    1.429    2.857    2.143    2.000    3.429 
#    0.000    2.857    0.000    1.714    0.000    0.000 
#    0.000    0.000    0.000    0.000    0.000    0.000 
#
# Total GULP energy -77969.916140 kJ/mol
# GULP energy per Si atom -5569.279724 kJ/mol
# Density = 2.660189 g / cm^3
# Si number density = 26.662579 Si / 1000 Ang^3
#
#
#
# Elastic Constant Matrix: (Units=GPa)
#
#
# Indices 1 2 3 4 5 6 
#
# 1 216.6523 76.5410 51.5691 0.0000 0.0000 0.0000
# 2 76.5410 118.7520 45.9608 0.0000 0.0000 0.0000
# 3 51.5691 45.9608 266.3970 0.0000 0.0000 0.0000
# 4 0.0000 0.0000 0.0000 -8.5848 0.0000 0.0000
# 5 0.0000 0.0000 0.0000 0.0000 54.7128 0.0000
# 6 0.0000 0.0000 0.0000 0.0000 0.0000 3.2331
#
#
#
# Elastic Compliance Matrix: (Units=1/GPa)
#
#
# Indices 1 2 3 4 5 6 
#
# 1 0.006047 -0.003691 -0.000534 0.000000 0.000000 0.000000
# 2 -0.003691 0.011276 -0.001231 0.000000 0.000000 0.000000
# 3 -0.000534 -0.001231 0.004070 0.000000 0.000000 0.000000
# 4 0.000000 0.000000 0.000000 -0.116485 0.000000 0.000000
# 5 0.000000 0.000000 0.000000 0.000000 0.018277 0.000000
# 6 0.000000 0.000000 0.000000 0.000000 0.000000 0.309296
#
#
# Mechanical properties :
#
#
# Convention : Reuss Voigt Hill
#
# Bulk Modulus (GPa) = 95.40768 105.54924 100.47846
# Shear Modulus (GPa) = 20.25230 38.38758 29.31994
#
# Velocity S-wave (km/s) = 2.75903 3.79853 3.31972
# Velocity P-wave (km/s) = 6.78312 7.67537 7.24300
#
# Compressibility (1/GPa) = 0.01048134
#
# Stress axis : x y z
#
# Youngs Moduli (GPa) = 165.38101 88.68232 245.73032
#
# Poissons Ratio (x) = 0.32730 0.13116
# Poissons Ratio (y) = 0.61038 0.30249
# Poissons Ratio (z) = 0.08827 0.10917
#
# Static dielectric constant tensor:
#      x y z
#    x 1.833080 0.000000 0.000000 
#    y 0.000000 2.385760 0.000000 
#    z 0.000000 0.000000 1.862460 
# 
# From -- ./inp_files/10317.got.cif
#   From: 2010.05.17/outbox.cif.g08.bks.cpg/sg21_6_cif.got.tgz:10317.got - 2010.06.03 23:14:55.
