data_PCOD9324392
_publ_section_title
;
Structure prediction by ZEFSAII (Michael W. Deem and Ramdas Pophale) SiO2 
 PCOD9324392
Probable space group: C 2 2 2
;
_chemical_formula_sum "Si O2"
_cell_formula_units_Z 36
_cell_length_a 21.793296
_cell_length_b 7.092463
_cell_length_c 9.815810
_cell_angle_alpha 90.000000
_cell_angle_beta 90.000000
_cell_angle_gamma 90.000000
_cell_volume 1517.211549
_symmetry_space_group_name_H-M "C 2 2 2"
_symmetry_group_IT_number 21
_symmetry_cell_setting 'orthorhombic'
loop_
_space_group_symop_operation_xyz
x,y,z
-x,-y,z
x,-y,-z
-x,y,-z
1/2+x,1/2+y,z
1/2-x,1/2-y,z
1/2+x,1/2-y,-z
1/2-x,1/2+y,-z
loop_
_atom_site_type_symbol
_atom_site_label
_atom_site_fract_x
_atom_site_fract_y
_atom_site_fract_z
Si Si1 0.614651 0.764315 0.638240
Si Si2 0.011734 0.728165 0.154469
Si Si3 0.101011 0.283095 0.332806
Si Si4 0.250000 0.750000 0.274636
Si Si5 0.698385 0.888042 0.121347
O O1 0.574995 0.710358 0.771984
O O2 0.598067 0.705204 0.485316
O O3 0.686270 0.714340 0.648163
O O4 0.603558 0.990306 0.645167
O O5 0.957881 0.790368 0.254506
O O6 0.000000 0.500000 0.152591
O O7 0.000000 0.789900 0.000000
O O8 0.157786 0.268180 0.227097
O O9 0.232811 0.557568 0.197504
O O10 0.750000 0.750000 0.062782
O O11 0.662570 0.000000 0.000000
#
# Coordination Sequence:
#
# PCOD9324392 Si02
#       5
#     8   8   8   4   8
#     4   9  18  34  53  83 123 163 202 255 310 366
#     4   9  17  27  52  84 120 160 205 254 304 363
#     4   9  19  32  54  83 121 160 210 250 307 368
#     4  10  22  38  62  88 128 162 204 256 310 372
#     4  11  23  38  61  90 125 165 207 255 311 370
#
# _framework density 23.727739
#
# number of rings (size 3 to 8) (size 9 to 14) (size 15 to 20)
#    0.000    2.444    1.111    0.667   10.889    2.667 
#    0.000    0.000    0.000    1.333    0.000    6.222 
#    0.000    0.000    0.000    0.000    0.000    0.000 
#
# Total GULP energy -100310.482953 kJ/mol
# GULP energy per Si atom -5572.804608 kJ/mol
# Density = 2.367373 g / cm^3
# Si number density = 23.727739 Si / 1000 Ang^3
#
#
#
# Elastic Constant Matrix: (Units=GPa)
#
#
# Indices 1 2 3 4 5 6 
#
# 1 134.8174 -5.2734 101.1600 0.0000 0.0000 0.0000
# 2 -5.2734 67.8862 -8.4710 0.0000 0.0000 0.0000
# 3 101.1600 -8.4710 210.9941 0.0000 0.0000 0.0000
# 4 0.0000 0.0000 0.0000 -12.5887 0.0000 0.0000
# 5 0.0000 0.0000 0.0000 0.0000 34.2653 0.0000
# 6 0.0000 0.0000 0.0000 0.0000 0.0000 13.2061
#
#
#
# Elastic Compliance Matrix: (Units=1/GPa)
#
#
# Indices 1 2 3 4 5 6 
#
# 1 0.011588 0.000208 -0.005548 0.000000 0.000000 0.000000
# 2 0.000208 0.014808 0.000495 0.000000 0.000000 0.000000
# 3 -0.005548 0.000495 0.007419 0.000000 0.000000 0.000000
# 4 0.000000 0.000000 0.000000 -0.079437 0.000000 0.000000
# 5 0.000000 0.000000 0.000000 0.000000 0.029184 0.000000
# 6 0.000000 0.000000 0.000000 0.000000 0.000000 0.075723
#
#
# Mechanical properties :
#
#
# Convention : Reuss Voigt Hill
#
# Bulk Modulus (GPa) = 41.44883 65.39210 53.42046
# Shear Modulus (GPa) = 64.92043 28.72869 46.82456
#
# Velocity S-wave (km/s) = 5.23641 3.48338 4.44713
# Velocity P-wave (km/s) = 7.35298 6.61799 6.99515
#
# Compressibility (1/GPa) = 0.02412613
#
# Stress axis : x y z
#
# Youngs Moduli (GPa) = 86.29500 67.52911 134.78771
#
# Poissons Ratio (x) = -0.01404 0.74774
# Poissons Ratio (y) = -0.01794 -0.06670
# Poissons Ratio (z) = 0.47872 -0.03342
#
# Static dielectric constant tensor:
#      x y z
#    x 1.912660 0.000000 0.000000 
#    y 0.000000 2.035860 0.000000 
#    z 0.000000 0.000000 1.961860 
# 
# From -- ./inp_files/17179.got.cif
#   From: 2010.05.17/outbox.cif.g08.bks.cpg/sg21_9_cif.got.tgz:17179.got - 2010.06.03 23:14:55.
