data_PCOD9324600
_publ_section_title
;
Structure prediction by ZEFSAII (Michael W. Deem and Ramdas Pophale) SiO2 
 PCOD9324600
Probable space group: C 2 2 2
;
_chemical_formula_sum "Si O2"
_cell_formula_units_Z 40
_cell_length_a 16.717752
_cell_length_b 8.015835
_cell_length_c 13.787277
_cell_angle_alpha 90.000000
_cell_angle_beta 90.000000
_cell_angle_gamma 90.000000
_cell_volume 1847.588066
_symmetry_space_group_name_H-M "C 2 2 2"
_symmetry_group_IT_number 21
_symmetry_cell_setting 'orthorhombic'
loop_
_space_group_symop_operation_xyz
x,y,z
-x,-y,z
x,-y,-z
-x,y,-z
1/2+x,1/2+y,z
1/2-x,1/2-y,z
1/2+x,1/2-y,-z
1/2-x,1/2+y,-z
loop_
_atom_site_type_symbol
_atom_site_label
_atom_site_fract_x
_atom_site_fract_y
_atom_site_fract_z
Si Si1 0.569629 0.121765 0.202763
Si Si2 0.316855 0.629112 0.575890
Si Si3 0.014107 0.198907 0.386453
Si Si4 0.235990 0.445853 0.236494
Si Si5 0.172709 0.145225 0.927046
O O1 0.536548 0.210536 0.301856
O O2 0.601528 0.244046 0.117744
O O3 0.500000 0.000000 0.167390
O O4 0.646618 0.010056 0.226939
O O5 0.351629 0.500000 0.500000
O O6 0.250000 0.750000 0.531752
O O7 0.390409 0.724801 0.625050
O O8 0.269605 0.527026 0.656429
O O9 0.000000 0.248538 0.500000
O O10 0.000000 0.000000 0.375526
O O11 0.250000 0.250000 0.217231
O O12 0.289098 0.552713 0.164598
O O13 0.250000 0.250000 0.968118
O O14 0.146702 0.000000 0.000000
#
# Coordination Sequence:
#
# PCOD9324600 Si02
#       5
#     8   8   8   8   8
#     4  11  24  42  69 103 144 184 230 289 361 415
#     4  11  23  37  60  90 130 179 231 281 331 410
#     4  11  23  42  63  94 138 192 236 293 352 410
#     4  10  22  42  68  99 135 179 228 293 342 421
#     4  10  22  42  77 105 132 179 229 294 353 425
#
# _framework density 21.649847999999999
#
# number of rings (size 3 to 8) (size 9 to 14) (size 15 to 20)
#    0.000    1.400    2.000    4.200    2.800    1.200 
#    0.000    0.000    0.000   78.600    0.000    0.000 
#    0.000    0.000    0.000    0.000    0.000    0.000 
#
# Total GULP energy -111680.079851 kJ/mol
# GULP energy per Si atom -5584.003993 kJ/mol
# Density = 2.160057 g / cm^3
# Si number density = 21.649848 Si / 1000 Ang^3
#
#
#
# Elastic Constant Matrix: (Units=GPa)
#
#
# Indices 1 2 3 4 5 6 
#
# 1 161.6946 74.7448 51.1284 0.0000 0.0000 0.0000
# 2 74.7448 115.6297 69.3928 0.0000 0.0000 0.0000
# 3 51.1284 69.3928 81.5807 0.0000 0.0000 0.0000
# 4 0.0000 0.0000 0.0000 49.9795 0.0000 0.0000
# 5 0.0000 0.0000 0.0000 0.0000 10.4023 0.0000
# 6 0.0000 0.0000 0.0000 0.0000 0.0000 24.4560
#
#
#
# Elastic Compliance Matrix: (Units=1/GPa)
#
#
# Indices 1 2 3 4 5 6 
#
# 1 0.008897 -0.004913 -0.001397 0.000000 0.000000 0.000000
# 2 -0.004913 0.020379 -0.014256 0.000000 0.000000 0.000000
# 3 -0.001397 -0.014256 0.025259 0.000000 0.000000 0.000000
# 4 0.000000 0.000000 0.000000 0.020008 0.000000 0.000000
# 5 0.000000 0.000000 0.000000 0.000000 0.096132 0.000000
# 6 0.000000 0.000000 0.000000 0.000000 0.000000 0.040890
#
#
# Mechanical properties :
#
#
# Convention : Reuss Voigt Hill
#
# Bulk Modulus (GPa) = 74.60215 83.27078 78.93646
# Shear Modulus (GPa) = 19.44269 27.87683 23.65976
#
# Velocity S-wave (km/s) = 3.00000 3.59224 3.30940
# Velocity P-wave (km/s) = 6.82153 7.46670 7.15140
#
# Compressibility (1/GPa) = 0.01340444
#
# Stress axis : x y z
#
# Youngs Moduli (GPa) = 112.39347 49.06941 39.58907
#
# Poissons Ratio (x) = 0.24107 0.05532
# Poissons Ratio (y) = 0.55217 0.56437
# Poissons Ratio (z) = 0.15705 0.69952
#
# Static dielectric constant tensor:
#      x y z
#    x 1.809000 0.000000 0.000000 
#    y 0.000000 1.828820 0.000000 
#    z 0.000000 0.000000 1.809520 
# 
# From -- ./inp_files/32097.got.cif
#   From: 2010.05.17/outbox.cif.g08.bks.cpg/sg21_17_cif.got.tgz:32097.got - 2010.06.03 23:14:55.
