data_PCOD9324323
_publ_section_title
;
Structure prediction by ZEFSAII (Michael W. Deem and Ramdas Pophale) SiO2 
 PCOD9324323
Probable space group: C 2 2 2
;
_chemical_formula_sum "Si O2"
_cell_formula_units_Z 34
_cell_length_a 14.008578
_cell_length_b 24.288986
_cell_length_c 4.961724
_cell_angle_alpha 90.000000
_cell_angle_beta 90.000000
_cell_angle_gamma 90.000000
_cell_volume 1688.247207
_symmetry_space_group_name_H-M "C 2 2 2"
_symmetry_group_IT_number 21
_symmetry_cell_setting 'orthorhombic'
loop_
_space_group_symop_operation_xyz
x,y,z
-x,-y,z
x,-y,-z
-x,y,-z
1/2+x,1/2+y,z
1/2-x,1/2-y,z
1/2+x,1/2-y,-z
1/2-x,1/2+y,-z
loop_
_atom_site_type_symbol
_atom_site_label
_atom_site_fract_x
_atom_site_fract_y
_atom_site_fract_z
Si Si1 0.685029 0.548885 0.803007
Si Si2 0.000000 0.000000 0.000000
Si Si3 0.066743 0.326681 0.240678
Si Si4 0.232927 0.883297 0.707504
Si Si5 0.066971 0.201452 0.242801
O O1 0.571951 0.535939 0.819378
O O2 0.714086 0.565851 0.500858
O O3 0.726261 0.500000 0.000000
O O4 0.712193 0.600451 0.984642
O O5 0.159810 0.361889 0.306832
O O6 0.096795 0.263918 0.165753
O O7 0.000000 0.324761 0.500000
O O8 0.000000 0.348530 0.000000
O O9 0.155635 0.835458 0.665598
O O10 0.000000 0.205367 0.500000
O O11 0.000000 0.179273 0.000000
#
# Coordination Sequence:
#
# PCOD9324323 Si02
#       5
#     8   2   8   8   8
#     4  10  24  38  60  87 125 153 201 246 313 375
#     4   8  24  42  56  90 130 162 184 262 320 390
#     4  10  22  41  60  86 124 162 207 261 307 349
#     4  12  22  38  64  89 118 167 210 244 302 387
#     4  10  22  35  57  92 128 160 199 251 305 373
#
# _framework density 20.139230000000001
#
# number of rings (size 3 to 8) (size 9 to 14) (size 15 to 20)
#    0.706    0.941    0.000    4.235    4.941    0.941 
#    0.000    9.412    0.000   10.588    0.000    0.000 
#    0.000    0.000    0.000    0.000    0.000    0.000 
#
# Total GULP energy -94722.538407 kJ/mol
# GULP energy per Si atom -5571.914024 kJ/mol
# Density = 2.009339 g / cm^3
# Si number density = 20.139230 Si / 1000 Ang^3
#
#
#
# Elastic Constant Matrix: (Units=GPa)
#
#
# Indices 1 2 3 4 5 6 
#
# 1 127.4704 47.9348 34.1451 0.0000 0.0000 0.0000
# 2 47.9348 48.4034 10.1003 0.0000 0.0000 0.0000
# 3 34.1451 10.1003 120.5083 0.0000 0.0000 0.0000
# 4 0.0000 0.0000 0.0000 39.8635 0.0000 0.0000
# 5 0.0000 0.0000 0.0000 0.0000 18.1679 0.0000
# 6 0.0000 0.0000 0.0000 0.0000 0.0000 36.4683
#
#
#
# Elastic Compliance Matrix: (Units=1/GPa)
#
#
# Indices 1 2 3 4 5 6 
#
# 1 0.013320 -0.012624 -0.002716 0.000000 0.000000 0.000000
# 2 -0.012624 0.032992 0.000812 0.000000 0.000000 0.000000
# 3 -0.002716 0.000812 0.009000 0.000000 0.000000 0.000000
# 4 0.000000 0.000000 0.000000 0.025086 0.000000 0.000000
# 5 0.000000 0.000000 0.000000 0.000000 0.055042 0.000000
# 6 0.000000 0.000000 0.000000 0.000000 0.000000 0.027421
#
#
# Mechanical properties :
#
#
# Convention : Reuss Voigt Hill
#
# Bulk Modulus (GPa) = 38.08802 53.41584 45.75193
# Shear Modulus (GPa) = 24.91673 32.51340 28.71506
#
# Velocity S-wave (km/s) = 3.52123 4.02236 3.78011
# Velocity P-wave (km/s) = 5.95697 6.93926 6.46679
#
# Compressibility (1/GPa) = 0.02625497
#
# Stress axis : x y z
#
# Youngs Moduli (GPa) = 75.07691 30.31032 111.11486
#
# Poissons Ratio (x) = 0.38264 0.30178
# Poissons Ratio (y) = 0.94777 -0.09019
# Poissons Ratio (z) = 0.20391 -0.02460
#
# Static dielectric constant tensor:
#      x y z
#    x 1.646230 0.000000 0.000000 
#    y 0.000000 1.818590 0.000000 
#    z 0.000000 0.000000 1.659410 
# 
# From -- ./inp_files/2587.got.cif
#   From: 2010.05.17/outbox.cif.g08.bks.cpg/sg21_2_cif.got.tgz:2587.got - 2010.06.03 23:14:55.
