data_PCOD9324002
_publ_section_title
;
Structure prediction by ZEFSAII (Michael W. Deem and Ramdas Pophale) SiO2 
 PCOD9324002
Probable space group: C 2 2 2
;
_chemical_formula_sum "Si O2"
_cell_formula_units_Z 34
_cell_length_a 17.523096
_cell_length_b 13.987424
_cell_length_c 6.173069
_cell_angle_alpha 90.000000
_cell_angle_beta 90.000000
_cell_angle_gamma 90.000000
_cell_volume 1513.037568
_symmetry_space_group_name_H-M "C 2 2 2"
_symmetry_group_IT_number 21
_symmetry_cell_setting 'orthorhombic'
loop_
_space_group_symop_operation_xyz
x,y,z
-x,-y,z
x,-y,-z
-x,y,-z
1/2+x,1/2+y,z
1/2-x,1/2-y,z
1/2+x,1/2-y,-z
1/2-x,1/2+y,-z
loop_
_atom_site_type_symbol
_atom_site_label
_atom_site_fract_x
_atom_site_fract_y
_atom_site_fract_z
Si Si1 0.500000 0.000000 0.500000
Si Si2 0.615766 0.856487 0.306850
Si Si3 0.173029 0.238009 0.669773
Si Si4 0.414769 0.342899 0.048594
Si Si5 0.780839 0.083889 0.677398
O O1 0.551265 0.934828 0.340432
O O2 0.635154 0.828309 0.557701
O O3 0.588817 0.760282 0.179361
O O4 0.696751 0.898879 0.219971
O O5 0.250000 0.250000 0.809058
O O6 0.201702 0.175178 0.470631
O O7 0.115028 0.181179 0.811545
O O8 0.353621 0.413509 0.162777
O O9 0.500000 0.377490 0.000000
O O10 0.778039 0.000000 0.500000
#
# Coordination Sequence:
#
# PCOD9324002 Si02
#       5
#     2   8   8   8   8
#     4  12  20  36  66  96 130 156 200 280 330 388
#     4  10  21  38  62  92 130 167 208 264 336 393
#     4   9  19  38  62  85 120 172 212 253 316 391
#     4  11  22  39  62  89 127 169 219 266 316 385
#     4  10  21  40  63  91 125 171 217 262 324 390
#
# _framework density 22.471350999999999
#
# number of rings (size 3 to 8) (size 9 to 14) (size 15 to 20)
#    0.000    1.882    1.176    4.941    0.000    3.765 
#    0.000    8.824    0.000    0.000    0.000    0.000 
#    0.000    0.000    0.000    0.000    0.000    0.000 
#
# Total GULP energy -94742.334370 kJ/mol
# GULP energy per Si atom -5573.078492 kJ/mol
# Density = 2.242021 g / cm^3
# Si number density = 22.471351 Si / 1000 Ang^3
#
#
#
# Elastic Constant Matrix: (Units=GPa)
#
#
# Indices 1 2 3 4 5 6 
#
# 1 163.4464 34.7028 34.0835 0.0000 0.0000 0.0000
# 2 34.7028 91.9073 12.9553 0.0000 0.0000 0.0000
# 3 34.0835 12.9553 41.9214 0.0000 0.0000 0.0000
# 4 0.0000 0.0000 0.0000 3.2588 0.0000 0.0000
# 5 0.0000 0.0000 0.0000 0.0000 27.2625 0.0000
# 6 0.0000 0.0000 0.0000 0.0000 0.0000 40.2763
#
#
#
# Elastic Compliance Matrix: (Units=1/GPa)
#
#
# Indices 1 2 3 4 5 6 
#
# 1 0.007747 -0.002130 -0.005640 0.000000 0.000000 0.000000
# 2 -0.002130 0.011962 -0.001965 0.000000 0.000000 0.000000
# 3 -0.005640 -0.001965 0.029047 0.000000 0.000000 0.000000
# 4 0.000000 0.000000 0.000000 0.306860 0.000000 0.000000
# 5 0.000000 0.000000 0.000000 0.000000 0.036680 0.000000
# 6 0.000000 0.000000 0.000000 0.000000 0.000000 0.024829
#
#
# Mechanical properties :
#
#
# Convention : Reuss Voigt Hill
#
# Bulk Modulus (GPa) = 34.14660 51.19535 42.67098
# Shear Modulus (GPa) = 11.20182 28.52841 19.86512
#
# Velocity S-wave (km/s) = 2.23512 3.56693 2.97647
# Velocity P-wave (km/s) = 4.67863 6.30841 5.55363
#
# Compressibility (1/GPa) = 0.02928549
#
# Stress axis : x y z
#
# Youngs Moduli (GPa) = 129.08979 83.59981 34.42717
#
# Poissons Ratio (x) = 0.17806 0.19417
# Poissons Ratio (y) = 0.27496 0.06765
# Poissons Ratio (z) = 0.72806 0.16427
#
# Static dielectric constant tensor:
#      x y z
#    x 2.041640 0.000000 0.000000 
#    y 0.000000 1.935360 0.000000 
#    z 0.000000 0.000000 1.849700 
# 
# From -- ./inp_files/3530.got.cif
#   From: 2010.05.17/outbox.cif.g08.bks.cpg/sg21_2_cif.got.tgz:3530.got - 2010.06.03 23:14:55.
