data_PCOD9324487
_publ_section_title
;
Structure prediction by ZEFSAII (Michael W. Deem and Ramdas Pophale) SiO2 
 PCOD9324487
Probable space group: C 2 2 2
;
_chemical_formula_sum "Si O2"
_cell_formula_units_Z 40
_cell_length_a 25.357994
_cell_length_b 11.939645
_cell_length_c 5.971841
_cell_angle_alpha 90.000000
_cell_angle_beta 90.000000
_cell_angle_gamma 90.000000
_cell_volume 1808.067105
_symmetry_space_group_name_H-M "C 2 2 2"
_symmetry_group_IT_number 21
_symmetry_cell_setting 'orthorhombic'
loop_
_space_group_symop_operation_xyz
x,y,z
-x,-y,z
x,-y,-z
-x,y,-z
1/2+x,1/2+y,z
1/2-x,1/2-y,z
1/2+x,1/2-y,-z
1/2-x,1/2+y,-z
loop_
_atom_site_type_symbol
_atom_site_label
_atom_site_fract_x
_atom_site_fract_y
_atom_site_fract_z
Si Si1 0.298878 0.807954 0.178896
Si Si2 0.453054 0.689797 0.678154
Si Si3 0.923234 0.000000 0.000000
Si Si4 0.605698 0.887466 0.129255
Si Si5 0.323804 0.000000 0.500000
Si Si6 0.644856 0.388246 0.385118
O O1 0.250000 0.750000 0.049757
O O2 0.313259 0.707581 0.345850
O O3 0.292429 0.922294 0.322279
O O4 0.349804 0.829408 0.025286
O O5 0.500000 0.696535 0.500000
O O6 0.441423 0.803481 0.812399
O O7 0.400223 0.662769 0.541146
O O8 0.455970 0.584986 0.845514
O O9 0.885010 0.073192 0.159350
O O10 0.637183 0.923296 0.352176
O O11 0.588482 0.000000 0.000000
O O12 0.666469 0.500000 0.500000
#
# Coordination Sequence:
#
# PCOD9324487 Si02
#       6
#     8   8   4   8   4   8
#     4  11  23  41  68 101 136 181 225 275 340 399
#     4  11  23  42  72  97 130 179 226 275 344 411
#     4  10  22  43  64  98 140 168 216 280 335 408
#     4  10  22  45  69  94 138 180 230 284 337 396
#     4  10  22  44  69  94 138 178 225 288 330 394
#     4  10  22  40  64  98 134 175 216 274 326 402
#
# _framework density 22.123073999999999
#
# number of rings (size 3 to 8) (size 9 to 14) (size 15 to 20)
#    0.000    1.600    4.000    0.000    1.400    6.000 
#    5.400    0.500    4.400    1.200    0.000    0.000 
#    0.000    0.000    0.000    0.000    0.000    0.000 
#
# Total GULP energy -111759.047880 kJ/mol
# GULP energy per Si atom -5587.952394 kJ/mol
# Density = 2.207272 g / cm^3
# Si number density = 22.123074 Si / 1000 Ang^3
#
#
#
# Elastic Constant Matrix: (Units=GPa)
#
#
# Indices 1 2 3 4 5 6 
#
# 1 50.5343 42.2301 11.2453 0.0000 0.0000 0.0000
# 2 42.2301 151.0372 35.0354 0.0000 0.0000 0.0000
# 3 11.2453 35.0354 71.6689 0.0000 0.0000 0.0000
# 4 0.0000 0.0000 0.0000 27.4031 0.0000 0.0000
# 5 0.0000 0.0000 0.0000 0.0000 3.1900 0.0000
# 6 0.0000 0.0000 0.0000 0.0000 0.0000 26.1701
#
#
#
# Elastic Compliance Matrix: (Units=1/GPa)
#
#
# Indices 1 2 3 4 5 6 
#
# 1 0.025844 -0.007089 -0.000589 0.000000 0.000000 0.000000
# 2 -0.007089 0.009412 -0.003489 0.000000 0.000000 0.000000
# 3 -0.000589 -0.003489 0.015751 0.000000 0.000000 0.000000
# 4 0.000000 0.000000 0.000000 0.036492 0.000000 0.000000
# 5 0.000000 0.000000 0.000000 0.000000 0.313483 0.000000
# 6 0.000000 0.000000 0.000000 0.000000 0.000000 0.038211
#
#
# Mechanical properties :
#
#
# Convention : Reuss Voigt Hill
#
# Bulk Modulus (GPa) = 34.87700 50.02910 42.45305
# Shear Modulus (GPa) = 10.61376 23.66793 17.14085
#
# Velocity S-wave (km/s) = 2.19272 3.27437 2.78653
# Velocity P-wave (km/s) = 4.71274 6.07935 5.43913
#
# Compressibility (1/GPa) = 0.02867219
#
# Stress axis : x y z
#
# Youngs Moduli (GPa) = 38.69364 106.24334 63.48763
#
# Poissons Ratio (x) = 0.75319 0.03743
# Poissons Ratio (y) = 0.27431 0.22150
# Poissons Ratio (z) = 0.02281 0.37067
#
# Static dielectric constant tensor:
#      x y z
#    x 1.860080 0.000000 0.000000 
#    y 0.000000 1.841190 0.000000 
#    z 0.000000 0.000000 1.851050 
# 
# From -- ./inp_files/7195.got.cif
#   From: 2010.05.17/outbox.cif.g08.bks.cpg/sg21_4_cif.got.tgz:7195.got - 2010.06.03 23:14:55.
