data_PCOD9324534
_publ_section_title
;
Structure prediction by ZEFSAII (Michael W. Deem and Ramdas Pophale) SiO2 
 PCOD9324534
Probable space group: C 2 2 2
;
_chemical_formula_sum "Si O2"
_cell_formula_units_Z 32
_cell_length_a 17.770584
_cell_length_b 7.234482
_cell_length_c 10.681977
_cell_angle_alpha 90.000000
_cell_angle_beta 90.000000
_cell_angle_gamma 90.000000
_cell_volume 1373.285325
_symmetry_space_group_name_H-M "C 2 2 2"
_symmetry_group_IT_number 21
_symmetry_cell_setting 'orthorhombic'
loop_
_space_group_symop_operation_xyz
x,y,z
-x,-y,z
x,-y,-z
-x,y,-z
1/2+x,1/2+y,z
1/2-x,1/2-y,z
1/2+x,1/2-y,-z
1/2-x,1/2+y,-z
loop_
_atom_site_type_symbol
_atom_site_label
_atom_site_fract_x
_atom_site_fract_y
_atom_site_fract_z
Si Si1 0.665590 0.209399 0.954277
Si Si2 0.139169 0.242638 0.767092
Si Si3 0.514457 0.718302 0.143179
Si Si4 0.746881 0.531248 0.353335
O O1 0.750000 0.250000 0.916212
O O2 0.653051 0.315187 0.087228
O O3 0.550714 0.204938 0.233059
O O4 0.602939 0.246798 0.849913
O O5 0.168730 0.072336 0.683634
O O6 0.308483 0.085723 0.726261
O O7 0.341357 0.000000 0.000000
O O8 0.500000 0.500000 0.147868
O O9 0.500000 0.783522 0.000000
O O10 0.761646 0.500000 0.500000
O O11 0.750000 0.750000 0.336287
#
# Coordination Sequence:
#
# PCOD9324534 Si02
#       4
#     8   8   8   8
#     4  11  24  40  68 104 150 191 245 290 356 451
#     4  10  22  41  64 107 149 187 243 296 373 436
#     4   9  21  40  64  97 148 197 233 287 357 447
#     4  11  21  40  73 111 144 191 249 317 371 428
#
# _framework density 23.301786
#
# number of rings (size 3 to 8) (size 9 to 14) (size 15 to 20)
#    0.000    1.750    5.000    0.000    7.000    7.500 
#    0.000    5.000    0.000    0.750    6.500    0.000 
#    0.000    0.000    0.000    0.000    0.000    0.000 
#
# Total GULP energy -89438.470805 kJ/mol
# GULP energy per Si atom -5589.904425 kJ/mol
# Density = 2.324875 g / cm^3
# Si number density = 23.301786 Si / 1000 Ang^3
#
#
#
# Elastic Constant Matrix: (Units=GPa)
#
#
# Indices 1 2 3 4 5 6 
#
# 1 239.6478 67.8615 41.0610 0.0000 0.0000 0.0000
# 2 67.8615 161.3393 21.8680 0.0000 0.0000 0.0000
# 3 41.0610 21.8680 103.8922 0.0000 0.0000 0.0000
# 4 0.0000 0.0000 0.0000 25.2383 0.0000 0.0000
# 5 0.0000 0.0000 0.0000 0.0000 20.7012 0.0000
# 6 0.0000 0.0000 0.0000 0.0000 0.0000 38.8097
#
#
#
# Elastic Compliance Matrix: (Units=1/GPa)
#
#
# Indices 1 2 3 4 5 6 
#
# 1 0.004974 -0.001879 -0.001570 0.000000 0.000000 0.000000
# 2 -0.001879 0.007090 -0.000750 0.000000 0.000000 0.000000
# 3 -0.001570 -0.000750 0.010404 0.000000 0.000000 0.000000
# 4 0.000000 0.000000 0.000000 0.039622 0.000000 0.000000
# 5 0.000000 0.000000 0.000000 0.000000 0.048306 0.000000
# 6 0.000000 0.000000 0.000000 0.000000 0.000000 0.025767
#
#
# Mechanical properties :
#
#
# Convention : Reuss Voigt Hill
#
# Bulk Modulus (GPa) = 71.07574 85.16225 78.11900
# Shear Modulus (GPa) = 33.50042 41.88908 37.69475
#
# Velocity S-wave (km/s) = 3.79578 4.24450 4.02640
# Velocity P-wave (km/s) = 7.05543 7.78768 7.43058
#
# Compressibility (1/GPa) = 0.01406950
#
# Stress axis : x y z
#
# Youngs Moduli (GPa) = 201.04515 141.04010 96.11891
#
# Poissons Ratio (x) = 0.26506 0.15094
# Poissons Ratio (y) = 0.37782 0.07205
# Poissons Ratio (z) = 0.31570 0.10573
#
# Static dielectric constant tensor:
#      x y z
#    x 2.026890 0.000000 0.000000 
#    y 0.000000 1.961530 0.000000 
#    z 0.000000 0.000000 1.867760 
# 
# From -- ./inp_files/16022.got.cif
#   From: 2010.05.17/outbox.cif.g08.bks.cpg/sg21_9_cif.got.tgz:16022.got - 2010.06.03 23:14:55.
