data_PCOD9324032
_publ_section_title
;
Structure prediction by ZEFSAII (Michael W. Deem and Ramdas Pophale) SiO2 
 PCOD9324032
Probable space group: C 2 2 2
;
_chemical_formula_sum "Si O2"
_cell_formula_units_Z 64
_cell_length_a 35.948387
_cell_length_b 9.518130
_cell_length_c 10.768808
_cell_angle_alpha 90.000000
_cell_angle_beta 90.000000
_cell_angle_gamma 90.000000
_cell_volume 3684.670645
_symmetry_space_group_name_H-M "C 2 2 2"
_symmetry_group_IT_number 21
_symmetry_cell_setting 'orthorhombic'
loop_
_space_group_symop_operation_xyz
x,y,z
-x,-y,z
x,-y,-z
-x,y,-z
1/2+x,1/2+y,z
1/2-x,1/2-y,z
1/2+x,1/2-y,-z
1/2-x,1/2+y,-z
loop_
_atom_site_type_symbol
_atom_site_label
_atom_site_fract_x
_atom_site_fract_y
_atom_site_fract_z
Si Si1 0.849398 0.492507 0.644901
Si Si2 0.590890 0.769149 0.272427
Si Si3 0.292019 0.585908 0.871736
Si Si4 0.092686 0.268392 0.725518
Si Si5 0.042119 0.167677 0.498628
Si Si6 0.370821 0.496857 0.149927
Si Si7 0.792786 0.579185 0.133908
Si Si8 0.957779 0.506209 0.853188
O O1 0.836730 0.500000 0.500000
O O2 0.876019 0.357059 0.663079
O O3 0.875237 0.627129 0.675586
O O4 0.818828 0.477045 0.754876
O O5 0.563117 0.713771 0.375909
O O6 0.607126 0.639771 0.195572
O O7 0.567228 0.876471 0.190460
O O8 0.328078 0.522638 0.804531
O O9 0.250246 0.566469 0.822112
O O10 0.298983 0.753271 0.888066
O O11 0.290637 0.500000 0.000000
O O12 0.066954 0.217898 0.612928
O O13 0.111062 0.136865 0.795015
O O14 0.064985 0.356632 0.812730
O O15 0.000000 0.223889 0.500000
O O16 0.040389 0.000000 0.500000
O O17 0.370887 0.500000 0.000000
O O18 0.798034 0.500000 0.000000
O O19 0.000000 0.500000 0.801557
O O20 0.960368 0.500000 0.000000
#
# Coordination Sequence:
#
# PCOD9324032 Si02
#       8
#     8   8   8   8   8   8   8   8
#     4  11  23  38  61  89 124 158 198 250 303 353
#     4  11  21  39  60  83 116 154 195 243 298 350
#     4   9  20  38  61  90 122 155 206 249 296 349
#     4  11  23  38  60  87 116 153 199 243 297 357
#     4  11  22  38  61  86 112 152 203 247 291 353
#     4  11  22  37  61  91 119 151 196 248 299 358
#     4  10  21  38  65  90 122 162 206 251 296 356
#     4  10  22  39  57  82 117 151 188 242 302 358
#
# _framework density 17.369259
#
# number of rings (size 3 to 8) (size 9 to 14) (size 15 to 20)
#    0.000    1.500    3.750    1.500    3.500    2.000 
#    0.000    1.875    8.250    3.000    0.000    0.000 
#    0.000    0.000    0.000    0.000    0.000    0.000 
#
# Total GULP energy -178439.841306 kJ/mol
# GULP energy per Si atom -5576.245041 kJ/mol
# Density = 1.732973 g / cm^3
# Si number density = 17.369259 Si / 1000 Ang^3
#
#
#
# Elastic Constant Matrix: (Units=GPa)
#
#
# Indices 1 2 3 4 5 6 
#
# 1 153.2577 64.4561 63.7822 0.0000 0.0000 0.0000
# 2 64.4561 113.7726 44.6357 0.0000 0.0000 0.0000
# 3 63.7822 44.6357 106.0926 0.0000 0.0000 0.0000
# 4 0.0000 0.0000 0.0000 16.0093 0.0000 0.0000
# 5 0.0000 0.0000 0.0000 0.0000 41.9419 0.0000
# 6 0.0000 0.0000 0.0000 0.0000 0.0000 -185.8478
#
#
#
# Elastic Compliance Matrix: (Units=1/GPa)
#
#
# Indices 1 2 3 4 5 6 
#
# 1 0.009999 -0.003960 -0.004345 0.000000 0.000000 0.000000
# 2 -0.003960 0.012095 -0.002708 0.000000 0.000000 0.000000
# 3 -0.004345 -0.002708 0.013177 0.000000 0.000000 0.000000
# 4 0.000000 0.000000 0.000000 0.062463 0.000000 0.000000
# 5 0.000000 0.000000 0.000000 0.000000 0.023843 0.000000
# 6 0.000000 0.000000 0.000000 0.000000 0.000000 -0.005381
#
#
# Mechanical properties :
#
#
# Convention : Reuss Voigt Hill
#
# Bulk Modulus (GPa) = 75.49969 79.87453 77.68711
# Shear Modulus (GPa) = 35.05372 -12.22939 11.41217
#
# Velocity S-wave (km/s) = 4.49725 -2.65633 2.56605
# Velocity P-wave (km/s) = 8.39814 6.05622 7.32143
#
# Compressibility (1/GPa) = 0.01324509
#
# Stress axis : x y z
#
# Youngs Moduli (GPa) = 100.01249 82.67634 75.88762
#
# Poissons Ratio (x) = 0.32739 0.32974
# Poissons Ratio (y) = 0.39604 0.20551
# Poissons Ratio (z) = 0.43457 0.22390
#
# Static dielectric constant tensor:
#      x y z
#    x 1.607940 0.000000 0.000000 
#    y 0.000000 1.577710 0.000000 
#    z 0.000000 0.000000 2.975830 
# 
# From -- ./inp_files/28094.got.cif
#   From: 2010.05.17/outbox.cif.g08.bks.cpg/sg21_15_cif.got.tgz:28094.got - 2010.06.03 23:14:55.
