data_PCOD9324163
_publ_section_title
;
Structure prediction by ZEFSAII (Michael W. Deem and Ramdas Pophale) SiO2 
 PCOD9324163
Probable space group: C 2 2 2
;
_chemical_formula_sum "Si O2"
_cell_formula_units_Z 58
_cell_length_a 21.799422
_cell_length_b 13.841438
_cell_length_c 8.641035
_cell_angle_alpha 90.000000
_cell_angle_beta 90.000000
_cell_angle_gamma 90.000000
_cell_volume 2607.305703
_symmetry_space_group_name_H-M "C 2 2 2"
_symmetry_group_IT_number 21
_symmetry_cell_setting 'orthorhombic'
loop_
_space_group_symop_operation_xyz
x,y,z
-x,-y,z
x,-y,-z
-x,y,-z
1/2+x,1/2+y,z
1/2-x,1/2-y,z
1/2+x,1/2-y,-z
1/2-x,1/2+y,-z
loop_
_atom_site_type_symbol
_atom_site_label
_atom_site_fract_x
_atom_site_fract_y
_atom_site_fract_z
Si Si1 0.809206 0.115764 0.313115
Si Si2 0.321444 0.734566 0.027377
Si Si3 0.409990 0.608146 0.544690
Si Si4 0.119256 0.056489 0.140854
Si Si5 0.328673 0.941131 0.341270
Si Si6 0.891340 0.392409 0.834103
Si Si7 0.000000 0.500000 0.000000
Si Si8 0.931459 0.680060 0.499680
O O1 0.750000 0.250000 0.000644
O O2 0.830242 0.204765 0.206157
O O3 0.839132 0.117439 0.483673
O O4 0.839044 0.021501 0.231624
O O5 0.263933 0.890530 0.308835
O O6 0.340252 0.639301 0.933801
O O7 0.360356 0.823060 0.960670
O O8 0.430500 0.500000 0.500000
O O9 0.420188 0.607871 0.727771
O O10 0.436324 0.705059 0.470250
O O11 0.087235 0.000000 0.000000
O O12 0.386694 0.873690 0.381229
O O13 0.317965 0.000000 0.500000
O O14 0.347827 0.017034 0.209344
O O15 0.955203 0.434076 0.896917
O O16 0.902866 0.336952 0.671473
O O17 0.000000 0.638211 0.500000
#
# Coordination Sequence:
#
# PCOD9324163 Si02
#       8
#     8   8   8   8   8   8   2   8
#     4  10  22  36  63 101 139 176 217 284 350 433
#     4  11  23  36  61  96 138 183 225 285 357 430
#     4  10  21  40  66 100 130 171 223 285 357 426
#     4   9  18  38  60  89 132 174 211 266 343 421
#     4  10  22  41  67  97 136 181 236 295 354 421
#     4  11  25  45  66  99 136 192 242 291 354 423
#     4  12  28  44  70  88 138 192 244 288 336 432
#     4  11  24  43  69  97 131 178 242 304 344 413
#
# _framework density 22.245187000000001
#
# number of rings (size 3 to 8) (size 9 to 14) (size 15 to 20)
#    0.000    1.655    1.379    2.897    3.862    4.414 
#    0.000    0.000    0.000    0.000    0.000    0.000 
#    0.000    0.000    0.000    0.000    0.000    0.000 
#
# Total GULP energy -161958.790806 kJ/mol
# GULP energy per Si atom -5584.785890 kJ/mol
# Density = 2.219456 g / cm^3
# Si number density = 22.245187 Si / 1000 Ang^3
#
#
#
# Elastic Constant Matrix: (Units=GPa)
#
#
# Indices 1 2 3 4 5 6 
#
# 1 104.0594 28.7815 18.7974 0.0000 0.0000 0.0000
# 2 28.7815 106.3188 34.9579 0.0000 0.0000 0.0000
# 3 18.7974 34.9579 85.3747 0.0000 0.0000 0.0000
# 4 0.0000 0.0000 0.0000 27.2475 0.0000 0.0000
# 5 0.0000 0.0000 0.0000 0.0000 20.1784 0.0000
# 6 0.0000 0.0000 0.0000 0.0000 0.0000 17.9244
#
#
#
# Elastic Compliance Matrix: (Units=1/GPa)
#
#
# Indices 1 2 3 4 5 6 
#
# 1 0.010516 -0.002410 -0.001329 0.000000 0.000000 0.000000
# 2 -0.002410 0.011421 -0.004146 0.000000 0.000000 0.000000
# 3 -0.001329 -0.004146 0.013703 0.000000 0.000000 0.000000
# 4 0.000000 0.000000 0.000000 0.036701 0.000000 0.000000
# 5 0.000000 0.000000 0.000000 0.000000 0.049558 0.000000
# 6 0.000000 0.000000 0.000000 0.000000 0.000000 0.055790
#
#
# Mechanical properties :
#
#
# Convention : Reuss Voigt Hill
#
# Bulk Modulus (GPa) = 50.32286 51.20293 50.76289
# Shear Modulus (GPa) = 24.98966 27.28446 26.13706
#
# Velocity S-wave (km/s) = 3.35531 3.50599 3.43148
# Velocity P-wave (km/s) = 6.13855 6.28146 6.21042
#
# Compressibility (1/GPa) = 0.01987169
#
# Stress axis : x y z
#
# Youngs Moduli (GPa) = 95.08871 87.55565 72.97551
#
# Poissons Ratio (x) = 0.21101 0.09696
# Poissons Ratio (y) = 0.22917 0.30255
# Poissons Ratio (z) = 0.12634 0.36300
#
# Static dielectric constant tensor:
#      x y z
#    x 1.801230 0.000000 0.000000 
#    y 0.000000 1.857790 0.000000 
#    z 0.000000 0.000000 1.856600 
# 
# From -- ./inp_files/19170.got.cif
#   From: 2010.05.17/outbox.cif.g08.bks.cpg/sg21_10_cif.got.tgz:19170.got - 2010.06.03 23:14:55.
