data_PCOD9324598
_publ_section_title
;
Structure prediction by ZEFSAII (Michael W. Deem and Ramdas Pophale) SiO2 
 PCOD9324598
Probable space group: C 2 2 2
;
_chemical_formula_sum "Si O2"
_cell_formula_units_Z 46
_cell_length_a 10.708574
_cell_length_b 9.971480
_cell_length_c 19.342649
_cell_angle_alpha 90.000000
_cell_angle_beta 90.000000
_cell_angle_gamma 90.000000
_cell_volume 2065.414472
_symmetry_space_group_name_H-M "C 2 2 2"
_symmetry_group_IT_number 21
_symmetry_cell_setting 'orthorhombic'
loop_
_space_group_symop_operation_xyz
x,y,z
-x,-y,z
x,-y,-z
-x,y,-z
1/2+x,1/2+y,z
1/2-x,1/2-y,z
1/2+x,1/2-y,-z
1/2-x,1/2+y,-z
loop_
_atom_site_type_symbol
_atom_site_label
_atom_site_fract_x
_atom_site_fract_y
_atom_site_fract_z
Si Si1 0.750000 0.250000 0.495302
Si Si2 0.429427 0.791029 0.613955
Si Si3 0.798113 0.432841 0.374862
Si Si4 0.800453 0.547528 0.775323
Si Si5 0.000000 0.000000 0.000000
Si Si6 0.536393 0.227807 0.761744
Si Si7 0.161963 0.118938 0.119616
O O1 0.625483 0.262344 0.542648
O O2 0.734446 0.373965 0.442023
O O3 0.566678 0.857977 0.618125
O O4 0.433374 0.711646 0.686077
O O5 0.331275 0.912948 0.620064
O O6 0.737200 0.418018 0.299049
O O7 0.876029 0.406255 0.764860
O O8 0.727844 0.511691 0.845420
O O9 0.901169 0.666624 0.778663
O O10 0.088659 0.915322 0.949400
O O11 0.571043 0.332264 0.819703
O O12 0.250000 0.250000 0.108635
#
# Coordination Sequence:
#
# PCOD9324598 Si02
#       7
#     4   8   8   8   2   8   8
#     4  12  20  26  52  84 116 154 200 262 332 358
#     4   9  19  34  55  76 110 154 206 260 302 367
#     4   9  19  36  51  78 112 150 208 260 301 369
#     4   8  16  35  62  87 116 157 213 255 296 375
#     4  12  28  44  60 112 136 150 208 264 308 404
#     4   8  16  34  63  91 111 157 216 253 298 373
#     4  10  22  42  68  90 131 168 198 250 325 377
#
# _framework density 22.271559
#
# number of rings (size 3 to 8) (size 9 to 14) (size 15 to 20)
#    0.000    2.783    0.000    3.130    6.087    2.783 
#    6.261    0.000    0.000    8.348    0.000    0.000 
#    0.000    0.000    0.000    0.000    0.000    0.000 
#
# Total GULP energy -128081.570223 kJ/mol
# GULP energy per Si atom -5568.763923 kJ/mol
# Density = 2.222087 g / cm^3
# Si number density = 22.271559 Si / 1000 Ang^3
#
#
#
# Elastic Constant Matrix: (Units=GPa)
#
#
# Indices 1 2 3 4 5 6 
#
# 1 57.4081 27.3161 62.3870 0.0000 0.0000 0.0000
# 2 27.3161 49.7372 55.2004 0.0000 0.0000 0.0000
# 3 62.3870 55.2004 207.8426 0.0000 0.0000 0.0000
# 4 0.0000 0.0000 0.0000 66.6707 0.0000 0.0000
# 5 0.0000 0.0000 0.0000 0.0000 -33.7525 0.0000
# 6 0.0000 0.0000 0.0000 0.0000 0.0000 28.9713
#
#
#
# Elastic Compliance Matrix: (Units=1/GPa)
#
#
# Indices 1 2 3 4 5 6 
#
# 1 0.028257 -0.008658 -0.006183 0.000000 0.000000 0.000000
# 2 -0.008658 0.031161 -0.005677 0.000000 0.000000 0.000000
# 3 -0.006183 -0.005677 0.008175 0.000000 0.000000 0.000000
# 4 0.000000 0.000000 0.000000 0.014999 0.000000 0.000000
# 5 0.000000 0.000000 0.000000 0.000000 -0.029627 0.000000
# 6 0.000000 0.000000 0.000000 0.000000 0.000000 0.034517
#
#
# Mechanical properties :
#
#
# Convention : Reuss Voigt Hill
#
# Bulk Modulus (GPa) = 37.65231 67.19945 52.42588
# Shear Modulus (GPa) = 36.39801 23.71687 30.05744
#
# Velocity S-wave (km/s) = 4.04701 3.26681 3.67766
# Velocity P-wave (km/s) = 6.22739 6.66841 6.45167
#
# Compressibility (1/GPa) = 0.02655880
#
# Stress axis : x y z
#
# Youngs Moduli (GPa) = 35.38909 32.09090 122.32484
#
# Poissons Ratio (x) = 0.27783 0.75627
# Poissons Ratio (y) = 0.30638 0.69449
# Poissons Ratio (z) = 0.21879 0.18219
#
# Static dielectric constant tensor:
#      x y z
#    x 1.936440 0.000000 0.000000 
#    y 0.000000 2.060160 0.000000 
#    z 0.000000 0.000000 1.861180 
# 
# From -- ./inp_files/36195.got.cif
#   From: 2010.05.17/outbox.cif.g08.bks.cpg/sg21_19_cif.got.tgz:36195.got - 2010.06.03 23:14:55.
