data_PCOD9324544
_publ_section_title
;
Structure prediction by ZEFSAII (Michael W. Deem and Ramdas Pophale) SiO2 
 PCOD9324544
Probable space group: C 2 2 2
;
_chemical_formula_sum "Si O2"
_cell_formula_units_Z 64
_cell_length_a 23.331692
_cell_length_b 9.055214
_cell_length_c 15.529796
_cell_angle_alpha 90.000000
_cell_angle_beta 90.000000
_cell_angle_gamma 90.000000
_cell_volume 3281.033797
_symmetry_space_group_name_H-M "C 2 2 2"
_symmetry_group_IT_number 21
_symmetry_cell_setting 'orthorhombic'
loop_
_space_group_symop_operation_xyz
x,y,z
-x,-y,z
x,-y,-z
-x,y,-z
1/2+x,1/2+y,z
1/2-x,1/2-y,z
1/2+x,1/2-y,-z
1/2-x,1/2+y,-z
loop_
_atom_site_type_symbol
_atom_site_label
_atom_site_fract_x
_atom_site_fract_y
_atom_site_fract_z
Si Si1 0.080748 0.935355 0.593573
Si Si2 0.711107 0.605185 0.417740
Si Si3 0.476811 0.645976 0.296290
Si Si4 0.213088 0.605751 0.082694
Si Si5 0.608720 0.290266 0.064470
Si Si6 0.222427 0.911313 0.773893
Si Si7 0.502548 0.174208 0.140717
Si Si8 0.109871 0.124775 0.123438
O O1 0.142754 0.861891 0.589423
O O2 0.028675 0.838607 0.633837
O O3 0.066978 0.000000 0.500000
O O4 0.078300 0.080977 0.655177
O O5 0.718710 0.500000 0.500000
O O6 0.750000 0.750000 0.427824
O O7 0.726145 0.534950 0.324661
O O8 0.500000 0.500000 0.245208
O O9 0.468875 0.777293 0.231696
O O10 0.250000 0.750000 0.059921
O O11 0.151849 0.675504 0.109057
O O12 0.246076 0.518015 0.158166
O O13 0.207009 0.500000 0.000000
O O14 0.545700 0.223472 0.066069
O O15 0.599645 0.451248 0.105801
O O16 0.632748 0.315497 0.968467
O O17 0.250000 0.750000 0.777348
O O18 0.157238 0.880334 0.802972
O O19 0.443452 0.266905 0.140990
O O20 0.500000 0.000000 0.137047
#
# Coordination Sequence:
#
# PCOD9324544 Si02
#       8
#     8   8   8   8   8   8   8   8
#     4   8  16  34  68  92 111 158 212 259 311 392
#     4  10  22  41  65  94 132 168 212 262 328 396
#     4   8  17  34  63  89 115 155 208 265 307 386
#     4  12  24  41  64  97 130 167 225 277 329 382
#     4  11  25  41  63  89 126 172 215 267 313 388
#     4  11  24  41  68  94 125 174 214 273 325 384
#     4  12  26  38  58  92 131 168 211 268 329 385
#     4  11  23  45  65  87 123 175 223 260 320 383
#
# _framework density 19.506046000000001
#
# number of rings (size 3 to 8) (size 9 to 14) (size 15 to 20)
#    0.750    0.750    1.250    4.875    5.250    2.000 
#    0.000    0.000    0.000    0.750    0.000    0.000 
#    0.000    0.000    0.000    0.000    0.000    0.000 
#
# Total GULP energy -178294.318424 kJ/mol
# GULP energy per Si atom -5571.697451 kJ/mol
# Density = 1.946165 g / cm^3
# Si number density = 19.506046 Si / 1000 Ang^3
#
#
#
# Elastic Constant Matrix: (Units=GPa)
#
#
# Indices 1 2 3 4 5 6 
#
# 1 124.9869 51.9338 38.7416 0.0000 0.0000 0.0000
# 2 51.9338 103.3205 47.6742 0.0000 0.0000 0.0000
# 3 38.7416 47.6742 102.6782 0.0000 0.0000 0.0000
# 4 0.0000 0.0000 0.0000 17.2438 0.0000 0.0000
# 5 0.0000 0.0000 0.0000 0.0000 13.0195 0.0000
# 6 0.0000 0.0000 0.0000 0.0000 0.0000 38.6135
#
#
#
# Elastic Compliance Matrix: (Units=1/GPa)
#
#
# Indices 1 2 3 4 5 6 
#
# 1 0.010398 -0.004348 -0.001905 0.000000 0.000000 0.000000
# 2 -0.004348 0.014135 -0.004923 0.000000 0.000000 0.000000
# 3 -0.001905 -0.004923 0.012743 0.000000 0.000000 0.000000
# 4 0.000000 0.000000 0.000000 0.057992 0.000000 0.000000
# 5 0.000000 0.000000 0.000000 0.000000 0.076808 0.000000
# 6 0.000000 0.000000 0.000000 0.000000 0.000000 0.025898
#
#
# Mechanical properties :
#
#
# Convention : Reuss Voigt Hill
#
# Bulk Modulus (GPa) = 66.99391 67.52052 67.25722
# Shear Modulus (GPa) = 22.19270 26.61776 24.40523
#
# Velocity S-wave (km/s) = 3.37669 3.69804 3.54101
# Velocity P-wave (km/s) = 7.04432 7.27491 7.16055
#
# Compressibility (1/GPa) = 0.01492673
#
# Stress axis : x y z
#
# Youngs Moduli (GPa) = 96.17560 70.74450 78.47172
#
# Poissons Ratio (x) = 0.30757 0.14945
# Poissons Ratio (y) = 0.41813 0.38630
# Poissons Ratio (z) = 0.18317 0.34826
#
# Static dielectric constant tensor:
#      x y z
#    x 1.770470 0.000000 0.000000 
#    y 0.000000 1.752660 0.000000 
#    z 0.000000 0.000000 1.731750 
# 
# From -- ./inp_files/33625.got.cif
#   From: 2010.05.17/outbox.cif.g08.bks.cpg/sg21_17_cif.got.tgz:33625.got - 2010.06.03 23:14:55.
