data_PCOD9324503
_publ_section_title
;
Structure prediction by ZEFSAII (Michael W. Deem and Ramdas Pophale) SiO2 
 PCOD9324503
Probable space group: C 2 2 2
;
_chemical_formula_sum "Si O2"
_cell_formula_units_Z 58
_cell_length_a 30.304819
_cell_length_b 6.864108
_cell_length_c 11.225012
_cell_angle_alpha 90.000000
_cell_angle_beta 90.000000
_cell_angle_gamma 90.000000
_cell_volume 2334.977051
_symmetry_space_group_name_H-M "C 2 2 2"
_symmetry_group_IT_number 21
_symmetry_cell_setting 'orthorhombic'
loop_
_space_group_symop_operation_xyz
x,y,z
-x,-y,z
x,-y,-z
-x,y,-z
1/2+x,1/2+y,z
1/2-x,1/2-y,z
1/2+x,1/2-y,-z
1/2-x,1/2+y,-z
loop_
_atom_site_type_symbol
_atom_site_label
_atom_site_fract_x
_atom_site_fract_y
_atom_site_fract_z
Si Si1 0.051156 0.502943 0.356037
Si Si2 0.447089 0.500949 0.642413
Si Si3 0.069471 0.718374 0.982179
Si Si4 0.500000 0.500000 0.000000
Si Si5 0.698885 0.727756 0.880665
Si Si6 0.800750 0.776661 0.151803
Si Si7 0.391363 0.748788 0.242180
Si Si8 0.613352 0.755873 0.259121
O O1 0.053671 0.500000 0.500000
O O2 0.060990 0.755056 0.329755
O O3 0.100551 0.505246 0.284765
O O4 0.000000 0.500000 0.314280
O O5 0.500000 0.500000 0.669707
O O6 0.440462 0.500000 0.500000
O O7 0.393290 0.498442 0.711540
O O8 0.436998 0.747569 0.669702
O O9 0.086291 0.778490 0.110824
O O10 0.053637 0.500000 0.000000
O O11 0.106016 0.736290 0.883549
O O12 0.031260 0.854846 0.931425
O O13 0.750000 0.750000 0.843884
O O14 0.691407 0.499711 0.876678
O O15 0.660263 0.789891 0.790833
O O16 0.694769 0.806725 0.016336
O O17 0.750000 0.750000 0.186816
O O18 0.833477 0.728893 0.260925
#
# Coordination Sequence:
#
# PCOD9324503 Si02
#       8
#     8   8   8   2   8   8   8   8
#     4  11  26  45  66  92 130 186 241 283 329 398
#     4  11  25  44  68  97 132 188 242 282 337 408
#     4  12  27  43  66 105 142 186 231 281 361 435
#     4  12  30  40  60  90 154 192 222 272 356 420
#     4  10  22  40  66  99 136 174 218 274 347 427
#     4  10  22  40  66  99 136 174 218 274 347 427
#     4  12  23  42  69  98 140 175 227 288 346 416
#     4  12  23  42  69  98 140 175 227 288 346 416
#
# _framework density 24.839645000000001
#
# number of rings (size 3 to 8) (size 9 to 14) (size 15 to 20)
#    0.000    0.828    4.138    2.690    7.724    2.207 
#    0.000    0.000    0.000    4.966    0.000    0.000 
#    0.000    0.000    0.000    0.000    0.000    0.000 
#
# Total GULP energy -161531.706114 kJ/mol
# GULP energy per Si atom -5570.058832 kJ/mol
# Density = 2.478311 g / cm^3
# Si number density = 24.839645 Si / 1000 Ang^3
#
#
#
# Elastic Constant Matrix: (Units=GPa)
#
#
# Indices 1 2 3 4 5 6 
#
# 1 248.0044 111.6865 80.0778 0.0000 0.0000 0.0000
# 2 111.6865 181.0105 16.7857 0.0000 0.0000 0.0000
# 3 80.0778 16.7857 106.3225 0.0000 0.0000 0.0000
# 4 0.0000 0.0000 0.0000 32.7046 0.0000 0.0000
# 5 0.0000 0.0000 0.0000 0.0000 40.8972 0.0000
# 6 0.0000 0.0000 0.0000 0.0000 0.0000 51.7507
#
#
#
# Elastic Compliance Matrix: (Units=1/GPa)
#
#
# Indices 1 2 3 4 5 6 
#
# 1 0.007536 -0.004185 -0.005015 0.000000 0.000000 0.000000
# 2 -0.004185 0.007930 0.001900 0.000000 0.000000 0.000000
# 3 -0.005015 0.001900 0.012883 0.000000 0.000000 0.000000
# 4 0.000000 0.000000 0.000000 0.030577 0.000000 0.000000
# 5 0.000000 0.000000 0.000000 0.000000 0.024452 0.000000
# 6 0.000000 0.000000 0.000000 0.000000 0.000000 0.019323
#
#
# Mechanical properties :
#
#
# Convention : Reuss Voigt Hill
#
# Bulk Modulus (GPa) = 72.73354 105.82636 89.27995
# Shear Modulus (GPa) = 41.02243 46.85632 43.93937
#
# Velocity S-wave (km/s) = 4.06826 4.34793 4.21042
# Velocity P-wave (km/s) = 7.17025 8.24028 7.72382
#
# Compressibility (1/GPa) = 0.01374882
#
# Stress axis : x y z
#
# Youngs Moduli (GPa) = 132.69341 126.09557 77.62346
#
# Poissons Ratio (x) = 0.52769 0.38930
# Poissons Ratio (y) = 0.55530 -0.14747
# Poissons Ratio (z) = 0.66549 -0.23956
#
# Static dielectric constant tensor:
#      x y z
#    x 2.046890 0.000000 0.000000 
#    y 0.000000 2.474750 0.000000 
#    z 0.000000 0.000000 1.847140 
# 
# From -- ./inp_files/28072.got.cif
#   From: 2010.05.17/outbox.cif.g08.bks.cpg/sg21_15_cif.got.tgz:28072.got - 2010.06.03 23:14:55.
