data_PCOD9324262
_publ_section_title
;
Structure prediction by ZEFSAII (Michael W. Deem and Ramdas Pophale) SiO2 
 PCOD9324262
Probable space group: C 2 2 2
;
_chemical_formula_sum "Si O2"
_cell_formula_units_Z 36
_cell_length_a 16.415194
_cell_length_b 14.165455
_cell_length_c 7.660076
_cell_angle_alpha 90.000000
_cell_angle_beta 90.000000
_cell_angle_gamma 90.000000
_cell_volume 1781.187452
_symmetry_space_group_name_H-M "C 2 2 2"
_symmetry_group_IT_number 21
_symmetry_cell_setting 'orthorhombic'
loop_
_space_group_symop_operation_xyz
x,y,z
-x,-y,z
x,-y,-z
-x,y,-z
1/2+x,1/2+y,z
1/2-x,1/2-y,z
1/2+x,1/2-y,-z
1/2-x,1/2+y,-z
loop_
_atom_site_type_symbol
_atom_site_label
_atom_site_fract_x
_atom_site_fract_y
_atom_site_fract_z
Si Si1 0.591389 0.037675 0.691232
Si Si2 0.186529 0.178521 0.866320
Si Si3 0.023766 0.104676 0.702804
Si Si4 0.716021 0.000000 0.000000
Si Si5 0.068323 0.277658 0.127698
O O1 0.587781 0.150527 0.717439
O O2 0.500000 0.000000 0.725233
O O3 0.613817 0.000000 0.500000
O O4 0.656698 0.005808 0.833536
O O5 0.250000 0.250000 0.774175
O O6 0.117034 0.133296 0.743069
O O7 0.229167 0.092117 0.967066
O O8 0.142940 0.246676 0.007491
O O9 0.000000 0.108801 0.500000
O O10 0.970706 0.182350 0.800911
O O11 0.000000 0.000000 0.765868
O O12 0.000000 0.323017 0.000000
#
# Coordination Sequence:
#
# PCOD9324262 Si02
#       5
#     8   8   8   4   8
#     4  11  25  41  67  98 135 186 233 279 348 434
#     4  11  23  41  68 101 133 179 230 297 360 411
#     4  10  23  43  69  98 134 186 239 287 347 438
#     4  12  23  44  69  98 144 176 228 292 367 416
#     4  10  21  42  68  94 130 182 232 279 345 433
#
# _framework density 20.211237000000001
#
# number of rings (size 3 to 8) (size 9 to 14) (size 15 to 20)
#    0.000    1.333    2.222    3.000    6.222    3.111 
#    8.000    1.111    0.000    0.000    0.000    0.000 
#    0.000    0.000    0.000    0.000    0.000    0.000 
#
# Total GULP energy -100543.379631 kJ/mol
# GULP energy per Si atom -5585.743313 kJ/mol
# Density = 2.016524 g / cm^3
# Si number density = 20.211237 Si / 1000 Ang^3
#
#
#
# Elastic Constant Matrix: (Units=GPa)
#
#
# Indices 1 2 3 4 5 6 
#
# 1 123.3996 57.1007 54.3044 0.0000 0.0000 0.0000
# 2 57.1007 131.6439 60.5443 0.0000 0.0000 0.0000
# 3 54.3044 60.5443 121.4534 0.0000 0.0000 0.0000
# 4 0.0000 0.0000 0.0000 33.1020 0.0000 0.0000
# 5 0.0000 0.0000 0.0000 0.0000 36.6927 0.0000
# 6 0.0000 0.0000 0.0000 0.0000 0.0000 6.4401
#
#
#
# Elastic Compliance Matrix: (Units=1/GPa)
#
#
# Indices 1 2 3 4 5 6 
#
# 1 0.011083 -0.003280 -0.003320 0.000000 0.000000 0.000000
# 2 -0.003280 0.010827 -0.003930 0.000000 0.000000 0.000000
# 3 -0.003320 -0.003930 0.011677 0.000000 0.000000 0.000000
# 4 0.000000 0.000000 0.000000 0.030210 0.000000 0.000000
# 5 0.000000 0.000000 0.000000 0.000000 0.027253 0.000000
# 6 0.000000 0.000000 0.000000 0.000000 0.000000 0.155278
#
#
# Mechanical properties :
#
#
# Convention : Reuss Voigt Hill
#
# Bulk Modulus (GPa) = 79.83851 80.04396 79.94123
# Shear Modulus (GPa) = 18.41185 28.88345 23.64765
#
# Velocity S-wave (km/s) = 3.02150 3.78442 3.42427
# Velocity P-wave (km/s) = 7.19447 7.66716 7.43458
#
# Compressibility (1/GPa) = 0.01252528
#
# Stress axis : x y z
#
# Youngs Moduli (GPa) = 90.23095 92.36446 85.63516
#
# Poissons Ratio (x) = 0.30297 0.28432
# Poissons Ratio (y) = 0.29597 0.33659
# Poissons Ratio (z) = 0.29958 0.36303
#
# Static dielectric constant tensor:
#      x y z
#    x 1.743250 0.000000 0.000000 
#    y 0.000000 1.716860 0.000000 
#    z 0.000000 0.000000 1.744690 
# 
# From -- ./inp_files/14394.got.cif
#   From: 2010.05.17/outbox.cif.g08.bks.cpg/sg21_8_cif.got.tgz:14394.got - 2010.06.03 23:14:55.
