data_PCOD9324814
_publ_section_title
;
Structure prediction by ZEFSAII (Michael W. Deem and Ramdas Pophale) SiO2 
 PCOD9324814
Probable space group: C 2 2 2
;
_chemical_formula_sum "Si O2"
_cell_formula_units_Z 42
_cell_length_a 14.333691
_cell_length_b 13.648955
_cell_length_c 9.666325
_cell_angle_alpha 90.000000
_cell_angle_beta 90.000000
_cell_angle_gamma 90.000000
_cell_volume 1891.118890
_symmetry_space_group_name_H-M "C 2 2 2"
_symmetry_group_IT_number 21
_symmetry_cell_setting 'orthorhombic'
loop_
_space_group_symop_operation_xyz
x,y,z
-x,-y,z
x,-y,-z
-x,y,-z
1/2+x,1/2+y,z
1/2-x,1/2-y,z
1/2+x,1/2-y,-z
1/2-x,1/2+y,-z
loop_
_atom_site_type_symbol
_atom_site_label
_atom_site_fract_x
_atom_site_fract_y
_atom_site_fract_z
Si Si1 0.644353 0.139954 0.617374
Si Si2 0.216282 0.608499 0.929660
Si Si3 0.211093 0.000000 0.500000
Si Si4 0.000000 0.206672 0.500000
Si Si5 0.000000 0.500000 0.500000
Si Si6 0.421075 0.430812 0.733633
Si Si7 0.611434 0.706819 0.976516
O O1 0.675562 0.131094 0.776421
O O2 0.591394 0.233625 0.553286
O O3 0.726308 0.097002 0.521015
O O4 0.562769 0.062091 0.600387
O O5 0.210833 0.500000 0.000000
O O6 0.323928 0.644672 0.918381
O O7 0.157792 0.685633 0.024336
O O8 0.150732 0.010283 0.638422
O O9 0.026932 0.138882 0.626352
O O10 0.500000 0.500000 0.800240
O O11 0.373625 0.358295 0.840594
O O12 0.500000 0.712515 0.000000
#
# Coordination Sequence:
#
# PCOD9324814 Si02
#       7
#     8   8   4   4   2   8   8
#     4  10  23  41  72 101 144 174 246 294 372 438
#     4  11  26  48  70 107 149 198 252 308 372 449
#     4  11  23  43  71 106 136 194 227 317 365 435
#     4  11  23  45  71 104 138 186 237 315 371 443
#     4   8  20  44  66 108 132 196 216 294 376 436
#     4  12  25  46  68 100 144 187 252 298 374 446
#     4  11  28  45  71 105 143 201 252 307 373 442
#
# _framework density 22.209074000000001
#
# number of rings (size 3 to 8) (size 9 to 14) (size 15 to 20)
#    0.000    1.143    1.905    2.286    5.333   13.333 
#    0.000    0.000    0.000    0.000    0.000    0.000 
#    0.000    0.000    0.000    0.000    0.000    0.000 
#
# Total GULP energy -117193.342543 kJ/mol
# GULP energy per Si atom -5580.635359 kJ/mol
# Density = 2.215853 g / cm^3
# Si number density = 22.209074 Si / 1000 Ang^3
#
#
#
# Elastic Constant Matrix: (Units=GPa)
#
#
# Indices 1 2 3 4 5 6 
#
# 1 146.3004 56.5249 31.5719 0.0000 0.0000 0.0000
# 2 56.5249 122.0760 30.1280 0.0000 0.0000 0.0000
# 3 31.5719 30.1280 75.0763 0.0000 0.0000 0.0000
# 4 0.0000 0.0000 0.0000 24.3894 0.0000 0.0000
# 5 0.0000 0.0000 0.0000 0.0000 51.2946 0.0000
# 6 0.0000 0.0000 0.0000 0.0000 0.0000 18.9783
#
#
#
# Elastic Compliance Matrix: (Units=1/GPa)
#
#
# Indices 1 2 3 4 5 6 
#
# 1 0.008655 -0.003451 -0.002255 0.000000 0.000000 0.000000
# 2 -0.003451 0.010468 -0.002750 0.000000 0.000000 0.000000
# 3 -0.002255 -0.002750 0.015371 0.000000 0.000000 0.000000
# 4 0.000000 0.000000 0.000000 0.041001 0.000000 0.000000
# 5 0.000000 0.000000 0.000000 0.000000 0.019495 0.000000
# 6 0.000000 0.000000 0.000000 0.000000 0.000000 0.052692
#
#
# Mechanical properties :
#
#
# Convention : Reuss Voigt Hill
#
# Bulk Modulus (GPa) = 56.87075 64.43360 60.65217
# Shear Modulus (GPa) = 29.33313 33.94765 31.64039
#
# Velocity S-wave (km/s) = 3.63819 3.91391 3.77856
# Velocity P-wave (km/s) = 6.58112 7.03563 6.81217
#
# Compressibility (1/GPa) = 0.01758373
#
# Stress axis : x y z
#
# Youngs Moduli (GPa) = 115.53685 95.52756 65.05581
#
# Poissons Ratio (x) = 0.32968 0.14669
# Poissons Ratio (y) = 0.39874 0.17887
# Poissons Ratio (z) = 0.26052 0.26266
#
# Static dielectric constant tensor:
#      x y z
#    x 1.828210 0.000000 0.000000 
#    y 0.000000 1.852380 0.000000 
#    z 0.000000 0.000000 1.868920 
# 
# From -- ./inp_files/14626.got.cif
#   From: 2010.05.17/outbox.cif.g08.bks.cpg/sg21_8_cif.got.tgz:14626.got - 2010.06.03 23:14:55.
