data_PCOD9324129
_publ_section_title
;
Structure prediction by ZEFSAII (Michael W. Deem and Ramdas Pophale) SiO2 
 PCOD9324129
Probable space group: C 2 2 2
;
_chemical_formula_sum "Si O2"
_cell_formula_units_Z 40
_cell_length_a 6.159086
_cell_length_b 18.127847
_cell_length_c 17.623546
_cell_angle_alpha 90.000000
_cell_angle_beta 90.000000
_cell_angle_gamma 90.000000
_cell_volume 1967.685982
_symmetry_space_group_name_H-M "C 2 2 2"
_symmetry_group_IT_number 21
_symmetry_cell_setting 'orthorhombic'
loop_
_space_group_symop_operation_xyz
x,y,z
-x,-y,z
x,-y,-z
-x,y,-z
1/2+x,1/2+y,z
1/2-x,1/2-y,z
1/2+x,1/2-y,-z
1/2-x,1/2+y,-z
loop_
_atom_site_type_symbol
_atom_site_label
_atom_site_fract_x
_atom_site_fract_y
_atom_site_fract_z
Si Si1 0.747629 0.338441 0.033890
Si Si2 0.268251 0.837331 0.726843
Si Si3 0.622087 0.571689 0.689799
Si Si4 0.590609 0.074361 0.170192
Si Si5 0.518317 0.910260 0.587680
O O1 0.750000 0.250000 0.041791
O O2 0.758947 0.381897 0.112779
O O3 0.500000 0.355482 0.000000
O O4 0.000000 0.355230 0.000000
O O5 0.250000 0.750000 0.727433
O O6 0.412907 0.869556 0.795218
O O7 0.359992 0.869474 0.646711
O O8 0.031869 0.871667 0.731276
O O9 0.500000 0.500000 0.660830
O O10 0.786887 0.545563 0.754603
O O11 0.745984 0.608551 0.620731
O O12 0.500000 0.000000 0.132557
O O13 0.500000 0.890340 0.500000
O O14 0.500000 0.000000 0.593862
#
# Coordination Sequence:
#
# PCOD9324129 Si02
#       5
#     8   8   8   8   8
#     4  10  25  46  70 103 142 181 224 276 340 411
#     4  11  24  40  63  97 128 169 220 278 336 397
#     4  11  20  40  66  91 127 169 219 274 337 395
#     4  11  24  41  68  98 131 169 223 279 326 402
#     4  10  21  40  61  90 126 167 224 272 329 409
#
# _framework density 20.328447000000001
#
# number of rings (size 3 to 8) (size 9 to 14) (size 15 to 20)
#    0.000    1.400    4.000    1.200    5.600    4.400 
#    3.600    1.000    0.000    0.000    0.000    0.000 
#    0.000    0.000    0.000    0.000    0.000    0.000 
#
# Total GULP energy -111387.838487 kJ/mol
# GULP energy per Si atom -5569.391924 kJ/mol
# Density = 2.028218 g / cm^3
# Si number density = 20.328447 Si / 1000 Ang^3
#
#
#
# Elastic Constant Matrix: (Units=GPa)
#
#
# Indices 1 2 3 4 5 6 
#
# 1 112.7247 36.4750 53.4311 0.0000 0.0000 0.0000
# 2 36.4750 96.7967 31.0890 0.0000 0.0000 0.0000
# 3 53.4311 31.0890 114.0250 0.0000 0.0000 0.0000
# 4 0.0000 0.0000 0.0000 53.9621 0.0000 0.0000
# 5 0.0000 0.0000 0.0000 0.0000 51.7654 0.0000
# 6 0.0000 0.0000 0.0000 0.0000 0.0000 25.3215
#
#
#
# Elastic Compliance Matrix: (Units=1/GPa)
#
#
# Indices 1 2 3 4 5 6 
#
# 1 0.012158 -0.003016 -0.004875 0.000000 0.000000 0.000000
# 2 -0.003016 0.012070 -0.001878 0.000000 0.000000 0.000000
# 3 -0.004875 -0.001878 0.011566 0.000000 0.000000 0.000000
# 4 0.000000 0.000000 0.000000 0.018532 0.000000 0.000000
# 5 0.000000 0.000000 0.000000 0.000000 0.019318 0.000000
# 6 0.000000 0.000000 0.000000 0.000000 0.000000 0.039492
#
#
# Mechanical properties :
#
#
# Convention : Reuss Voigt Hill
#
# Bulk Modulus (GPa) = 61.50897 62.83738 62.17318
# Shear Modulus (GPa) = 36.20787 39.71321 37.96054
#
# Velocity S-wave (km/s) = 4.22494 4.42472 4.32598
# Velocity P-wave (km/s) = 7.35686 7.55529 7.45674
#
# Compressibility (1/GPa) = 0.01625779
#
# Stress axis : x y z
#
# Youngs Moduli (GPa) = 82.25353 82.84722 86.45824
#
# Poissons Ratio (x) = 0.24983 0.42146
# Poissons Ratio (y) = 0.24804 0.16236
# Poissons Ratio (z) = 0.40096 0.15558
#
# Static dielectric constant tensor:
#      x y z
#    x 1.750890 0.000000 0.000000 
#    y 0.000000 1.294160 0.000000 
#    z 0.000000 0.000000 1.696680 
# 
# From -- ./inp_files/34645.got.cif
#   From: 2010.05.17/outbox.cif.g08.bks.cpg/sg21_18_cif.got.tgz:34645.got - 2010.06.03 23:14:55.
