data_PCOD9324796
_publ_section_title
;
Structure prediction by ZEFSAII (Michael W. Deem and Ramdas Pophale) SiO2 
 PCOD9324796
Probable space group: C 2 2 2
;
_chemical_formula_sum "Si O2"
_cell_formula_units_Z 32
_cell_length_a 5.357287
_cell_length_b 17.435043
_cell_length_c 14.768134
_cell_angle_alpha 90.000000
_cell_angle_beta 90.000000
_cell_angle_gamma 90.000000
_cell_volume 1379.410604
_symmetry_space_group_name_H-M "C 2 2 2"
_symmetry_group_IT_number 21
_symmetry_cell_setting 'orthorhombic'
loop_
_space_group_symop_operation_xyz
x,y,z
-x,-y,z
x,-y,-z
-x,y,-z
1/2+x,1/2+y,z
1/2-x,1/2-y,z
1/2+x,1/2-y,-z
1/2-x,1/2+y,-z
loop_
_atom_site_type_symbol
_atom_site_label
_atom_site_fract_x
_atom_site_fract_y
_atom_site_fract_z
Si Si1 0.500000 0.500000 0.307309
Si Si2 0.750000 0.250000 0.335668
Si Si3 0.822635 0.153852 0.751256
Si Si4 0.084196 0.403584 0.601606
Si Si5 0.246319 0.339236 0.039493
O O1 0.483332 0.424465 0.246718
O O2 0.260213 0.525407 0.367838
O O3 0.507759 0.275177 0.275009
O O4 0.757180 0.324756 0.398430
O O5 0.623364 0.125987 0.674697
O O6 0.726766 0.162350 0.852480
O O7 0.000000 0.415121 0.500000
O O8 0.250000 0.250000 0.007299
O O9 0.500000 0.373801 0.000000
O O10 0.000000 0.377079 0.000000
#
# Coordination Sequence:
#
# PCOD9324796 Si02
#       5
#     4   4   8   8   8
#     4  10  26  45  69  96 144 194 243 294 363 452
#     4  10  24  38  72 106 144 182 238 312 370 434
#     4  11  24  44  70 102 145 188 241 302 370 437
#     4  11  25  43  72 101 144 191 246 298 367 441
#     4  10  23  40  72 106 139 182 239 301 370 436
#
# _framework density 23.198312000000001
#
# number of rings (size 3 to 8) (size 9 to 14) (size 15 to 20)
#    0.000    1.500    0.000    3.000   15.750    6.000 
#    0.000    0.625    0.000    0.000    0.000    0.000 
#    0.000    0.000    0.000    0.000    0.000    0.000 
#
# Total GULP energy -89149.649807 kJ/mol
# GULP energy per Si atom -5571.853113 kJ/mol
# Density = 2.314551 g / cm^3
# Si number density = 23.198312 Si / 1000 Ang^3
#
#
#
# Elastic Constant Matrix: (Units=GPa)
#
#
# Indices 1 2 3 4 5 6 
#
# 1 166.9601 17.2135 79.5172 0.0000 0.0000 0.0000
# 2 17.2135 119.7679 33.6698 0.0000 0.0000 0.0000
# 3 79.5172 33.6698 116.9378 0.0000 0.0000 0.0000
# 4 0.0000 0.0000 0.0000 14.9560 0.0000 0.0000
# 5 0.0000 0.0000 0.0000 0.0000 40.5806 0.0000
# 6 0.0000 0.0000 0.0000 0.0000 0.0000 33.0270
#
#
#
# Elastic Compliance Matrix: (Units=1/GPa)
#
#
# Indices 1 2 3 4 5 6 
#
# 1 0.008881 0.000458 -0.006171 0.000000 0.000000 0.000000
# 2 0.000458 0.009109 -0.002934 0.000000 0.000000 0.000000
# 3 -0.006171 -0.002934 0.013593 0.000000 0.000000 0.000000
# 4 0.000000 0.000000 0.000000 0.066863 0.000000 0.000000
# 5 0.000000 0.000000 0.000000 0.000000 0.024642 0.000000
# 6 0.000000 0.000000 0.000000 0.000000 0.000000 0.030278
#
#
# Mechanical properties :
#
#
# Convention : Reuss Voigt Hill
#
# Bulk Modulus (GPa) = 69.98694 73.82964 71.90829
# Shear Modulus (GPa) = 28.50244 35.93038 32.21641
#
# Velocity S-wave (km/s) = 3.50900 3.93980 3.73062
# Velocity P-wave (km/s) = 6.83022 7.25193 7.04423
#
# Compressibility (1/GPa) = 0.01428838
#
# Stress axis : x y z
#
# Youngs Moduli (GPa) = 112.59537 109.78744 73.56788
#
# Poissons Ratio (x) = -0.05033 0.45401
# Poissons Ratio (y) = -0.05162 0.21587
# Poissons Ratio (z) = 0.69486 0.32215
#
# Static dielectric constant tensor:
#      x y z
#    x 2.030990 0.000000 0.000000 
#    y 0.000000 2.012570 0.000000 
#    z 0.000000 0.000000 1.775820 
# 
# From -- ./inp_files/28760.got.cif
#   From: 2010.05.17/outbox.cif.g08.bks.cpg/sg21_15_cif.got.tgz:28760.got - 2010.06.03 23:14:55.
