data_PCOD9324347
_publ_section_title
;
Structure prediction by ZEFSAII (Michael W. Deem and Ramdas Pophale) SiO2 
 PCOD9324347
Probable space group: C 2 2 2
;
_chemical_formula_sum "Si O2"
_cell_formula_units_Z 64
_cell_length_a 23.848508
_cell_length_b 11.389112
_cell_length_c 12.122234
_cell_angle_alpha 90.000000
_cell_angle_beta 90.000000
_cell_angle_gamma 90.000000
_cell_volume 3292.560327
_symmetry_space_group_name_H-M "C 2 2 2"
_symmetry_group_IT_number 21
_symmetry_cell_setting 'orthorhombic'
loop_
_space_group_symop_operation_xyz
x,y,z
-x,-y,z
x,-y,-z
-x,y,-z
1/2+x,1/2+y,z
1/2-x,1/2-y,z
1/2+x,1/2-y,-z
1/2-x,1/2+y,-z
loop_
_atom_site_type_symbol
_atom_site_label
_atom_site_fract_x
_atom_site_fract_y
_atom_site_fract_z
Si Si1 0.291185 0.639376 0.771334
Si Si2 0.460630 0.710835 0.725021
Si Si3 0.752547 0.067106 0.109628
Si Si4 0.381448 0.533812 0.625064
Si Si5 0.408694 0.276478 0.674303
Si Si6 0.655375 0.230595 0.124714
Si Si7 0.065935 0.631861 0.532712
Si Si8 0.896518 0.129124 0.940413
O O1 0.250000 0.750000 0.770260
O O2 0.252822 0.526257 0.793044
O O3 0.330145 0.613589 0.666398
O O4 0.338505 0.639359 0.868864
O O5 0.438370 0.603154 0.650652
O O6 0.526850 0.724044 0.712928
O O7 0.432503 0.823156 0.660205
O O8 0.441495 0.672850 0.848458
O O9 0.692824 0.123584 0.085118
O O10 0.798895 0.164934 0.134999
O O11 0.769602 0.000000 0.000000
O O12 0.375849 0.500000 0.500000
O O13 0.385915 0.409068 0.686475
O O14 0.372400 0.201870 0.759235
O O15 0.405655 0.224866 0.550931
O O16 0.609883 0.278212 0.039042
O O17 0.085110 0.500000 0.500000
O O18 0.000000 0.635338 0.500000
O O19 0.904480 0.000000 0.000000
#
# Coordination Sequence:
#
# PCOD9324347 Si02
#       8
#     8   8   8   8   8   8   8   8
#     4  11  21  39  62  84 116 159 205 257 309 375
#     4  10  22  36  64  95 126 167 207 253 319 391
#     4  11  20  37  60  83 108 157 206 254 295 363
#     4  11  21  37  60  91 124 154 198 263 321 378
#     4  11  21  39  60  95 128 159 205 264 319 378
#     4  11  21  36  59  88 119 154 201 256 314 362
#     4   9  19  39  64  86 119 173 223 255 296 369
#     4  11  20  37  60  93 127 158 202 256 316 382
#
# _framework density 19.437760000000001
#
# number of rings (size 3 to 8) (size 9 to 14) (size 15 to 20)
#    0.000    1.375    5.000    1.875    0.000    1.000 
#    6.750    3.750    0.000    0.000    0.000    0.000 
#    0.000    0.000    0.000    0.000    0.000    0.000 
#
# Total GULP energy -178273.926882 kJ/mol
# GULP energy per Si atom -5571.060215 kJ/mol
# Density = 1.939352 g / cm^3
# Si number density = 19.437760 Si / 1000 Ang^3
#
#
#
# Elastic Constant Matrix: (Units=GPa)
#
#
# Indices 1 2 3 4 5 6 
#
# 1 53.8776 21.0148 24.5296 0.0000 0.0000 0.0000
# 2 21.0148 69.6182 5.8837 0.0000 0.0000 0.0000
# 3 24.5296 5.8837 81.8085 0.0000 0.0000 0.0000
# 4 0.0000 0.0000 0.0000 23.1002 0.0000 0.0000
# 5 0.0000 0.0000 0.0000 0.0000 49.7769 0.0000
# 6 0.0000 0.0000 0.0000 0.0000 0.0000 12.4819
#
#
#
# Elastic Compliance Matrix: (Units=1/GPa)
#
#
# Indices 1 2 3 4 5 6 
#
# 1 0.024291 -0.006758 -0.006798 0.000000 0.000000 0.000000
# 2 -0.006758 0.016332 0.000852 0.000000 0.000000 0.000000
# 3 -0.006798 0.000852 0.014201 0.000000 0.000000 0.000000
# 4 0.000000 0.000000 0.000000 0.043290 0.000000 0.000000
# 5 0.000000 0.000000 0.000000 0.000000 0.020090 0.000000
# 6 0.000000 0.000000 0.000000 0.000000 0.000000 0.080116
#
#
# Mechanical properties :
#
#
# Convention : Reuss Voigt Hill
#
# Bulk Modulus (GPa) = 33.99472 34.24004 34.11738
# Shear Modulus (GPa) = 21.41029 27.33021 24.37025
#
# Velocity S-wave (km/s) = 3.32245 3.75378 3.54469
# Velocity P-wave (km/s) = 5.67849 6.03666 5.86031
#
# Compressibility (1/GPa) = 0.02941633
#
# Stress axis : x y z
#
# Youngs Moduli (GPa) = 41.16695 61.22935 70.41959
#
# Poissons Ratio (x) = 0.41379 0.47868
# Poissons Ratio (y) = 0.27821 -0.05998
# Poissons Ratio (z) = 0.27983 -0.05215
#
# Static dielectric constant tensor:
#      x y z
#    x 1.674150 0.000000 0.000000 
#    y 0.000000 1.727420 0.000000 
#    z 0.000000 0.000000 1.759800 
# 
# From -- ./inp_files/27484.got.cif
#   From: 2010.05.17/outbox.cif.g08.bks.cpg/sg21_14_cif.got.tgz:27484.got - 2010.06.03 23:14:55.
