data_PCOD9324829
_publ_section_title
;
Structure prediction by ZEFSAII (Michael W. Deem and Ramdas Pophale) SiO2 
 PCOD9324829
Probable space group: C 2 2 2
;
_chemical_formula_sum "Si O2"
_cell_formula_units_Z 30
_cell_length_a 14.649682
_cell_length_b 5.441350
_cell_length_c 17.033051
_cell_angle_alpha 90.000000
_cell_angle_beta 90.000000
_cell_angle_gamma 90.000000
_cell_volume 1357.773431
_symmetry_space_group_name_H-M "C 2 2 2"
_symmetry_group_IT_number 21
_symmetry_cell_setting 'orthorhombic'
loop_
_space_group_symop_operation_xyz
x,y,z
-x,-y,z
x,-y,-z
-x,y,-z
1/2+x,1/2+y,z
1/2-x,1/2-y,z
1/2+x,1/2-y,-z
1/2-x,1/2+y,-z
loop_
_atom_site_type_symbol
_atom_site_label
_atom_site_fract_x
_atom_site_fract_y
_atom_site_fract_z
Si Si1 0.500000 0.000000 0.000000
Si Si2 0.647810 0.654495 0.078915
Si Si3 0.609470 0.008169 0.671224
Si Si4 0.191394 0.500000 0.500000
Si Si5 0.391501 0.509813 0.248527
O O1 0.431911 0.849077 0.942396
O O2 0.750000 0.750000 0.092933
O O3 0.622881 0.499919 0.155546
O O4 0.652741 0.500000 0.000000
O O5 0.644151 0.759914 0.712928
O O6 0.500000 0.000000 0.679402
O O7 0.634015 0.007934 0.579923
O O8 0.643930 0.257702 0.712395
O O9 0.250000 0.750000 0.497757
O O10 0.500000 0.500000 0.262624
#
# Coordination Sequence:
#
# PCOD9324829 Si02
#       5
#     2   8   8   4   8
#     4  12  26  48  76  96 156 190 254 312 370 438
#     4  12  27  46  72 107 143 198 249 306 377 445
#     4  10  23  44  70  99 133 185 230 284 355 434
#     4  12  25  42  67 100 142 178 230 292 359 422
#     4  10  23  42  72 100 138 181 235 298 361 424
#
# _framework density 22.094996999999999
#
# number of rings (size 3 to 8) (size 9 to 14) (size 15 to 20)
#    0.000    1.067    1.333    4.000    9.333    3.200 
#    0.000    5.333    0.000    0.000    0.000    0.000 
#    0.000    0.000    0.000    0.000    0.000    0.000 
#
# Total GULP energy -83926.345279 kJ/mol
# GULP energy per Si atom -5595.089685 kJ/mol
# Density = 2.204471 g / cm^3
# Si number density = 22.094997 Si / 1000 Ang^3
#
#
#
# Elastic Constant Matrix: (Units=GPa)
#
#
# Indices 1 2 3 4 5 6 
#
# 1 98.9511 26.8946 -13.2064 0.0000 0.0000 0.0000
# 2 26.8946 160.7860 67.2649 0.0000 0.0000 0.0000
# 3 -13.2064 67.2649 151.5753 0.0000 0.0000 0.0000
# 4 0.0000 0.0000 0.0000 52.9058 0.0000 0.0000
# 5 0.0000 0.0000 0.0000 0.0000 91.2908 0.0000
# 6 0.0000 0.0000 0.0000 0.0000 0.0000 -12.9449
#
#
#
# Elastic Compliance Matrix: (Units=1/GPa)
#
#
# Indices 1 2 3 4 5 6 
#
# 1 0.011160 -0.002792 0.002211 0.000000 0.000000 0.000000
# 2 -0.002792 0.008336 -0.003942 0.000000 0.000000 0.000000
# 3 0.002211 -0.003942 0.008540 0.000000 0.000000 0.000000
# 4 0.000000 0.000000 0.000000 0.018902 0.000000 0.000000
# 5 0.000000 0.000000 0.000000 0.000000 0.010954 0.000000
# 6 0.000000 0.000000 0.000000 0.000000 0.000000 -0.077250
#
#
# Mechanical properties :
#
#
# Convention : Reuss Voigt Hill
#
# Bulk Modulus (GPa) = 52.66110 63.69096 58.17603
# Shear Modulus (GPa) = -1255.07853 48.27428 -603.40213
#
# Velocity S-wave (km/s) = -23.85939 4.67931 -16.54350
# Velocity P-wave (km/s) = 27.11350 7.62123 18.39917
#
# Compressibility (1/GPa) = 0.01898935
#
# Stress axis : x y z
#
# Youngs Moduli (GPa) = 89.60631 119.96540 117.10185
#
# Poissons Ratio (x) = 0.33492 -0.25894
# Poissons Ratio (y) = 0.25016 0.46166
# Poissons Ratio (z) = -0.19814 0.47295
#
# Static dielectric constant tensor:
#      x y z
#    x 1.676070 0.000000 0.000000 
#    y 0.000000 1.852000 0.000000 
#    z 0.000000 0.000000 1.743210 
# 
# From -- ./inp_files/36364.got.cif
#   From: 2010.05.17/outbox.cif.g08.bks.cpg/sg21_19_cif.got.tgz:36364.got - 2010.06.03 23:14:55.
