data_PCOD9324760
_publ_section_title
;
Structure prediction by ZEFSAII (Michael W. Deem and Ramdas Pophale) SiO2 
 PCOD9324760
Probable space group: C 2 2 2
;
_chemical_formula_sum "Si O2"
_cell_formula_units_Z 44
_cell_length_a 15.322334
_cell_length_b 27.289647
_cell_length_c 5.030622
_cell_angle_alpha 90.000000
_cell_angle_beta 90.000000
_cell_angle_gamma 90.000000
_cell_volume 2103.509747
_symmetry_space_group_name_H-M "C 2 2 2"
_symmetry_group_IT_number 21
_symmetry_cell_setting 'orthorhombic'
loop_
_space_group_symop_operation_xyz
x,y,z
-x,-y,z
x,-y,-z
-x,y,-z
1/2+x,1/2+y,z
1/2-x,1/2-y,z
1/2+x,1/2-y,-z
1/2-x,1/2+y,-z
loop_
_atom_site_type_symbol
_atom_site_label
_atom_site_fract_x
_atom_site_fract_y
_atom_site_fract_z
Si Si1 0.500000 0.584685 0.000000
Si Si2 0.099146 0.315863 0.442639
Si Si3 0.761015 0.115850 0.573265
Si Si4 0.924754 0.172948 0.681317
Si Si5 0.690982 0.445904 0.082324
Si Si6 0.854030 0.254136 0.055950
O O1 0.466255 0.621739 0.775039
O O2 0.414694 0.555413 0.085652
O O3 0.168179 0.359407 0.472525
O O4 0.110718 0.295303 0.146263
O O5 0.000000 0.329967 0.500000
O O6 0.125589 0.272670 0.648857
O O7 0.835208 0.157943 0.534187
O O8 0.775284 0.093744 0.866670
O O9 0.777618 0.072494 0.366797
O O10 0.898503 0.205170 0.937465
O O11 0.000000 0.196368 0.500000
O O12 0.719841 0.500000 0.000000
O O13 0.750000 0.250000 0.024943
#
# Coordination Sequence:
#
# PCOD9324760 Si02
#       6
#     4   8   8   8   8   8
#     4  10  23  36  60  96 138 178 206 260 331 414
#     4  12  27  46  64  94 131 183 229 279 337 381
#     4  11  24  44  66  93 131 175 216 272 341 398
#     4  11  23  39  61  94 137 179 225 263 327 390
#     4  11  23  42  69 100 131 168 217 274 343 417
#     4  12  26  41  65  96 134 176 233 285 317 386
#
# _framework density 20.917418999999999
#
# number of rings (size 3 to 8) (size 9 to 14) (size 15 to 20)
#    0.000    0.727    3.636    3.545    7.636    0.000 
#    0.000    1.818    0.000    3.273    0.000    0.000 
#    0.000    0.000    0.000    0.000    0.000    0.000 
#
# Total GULP energy -123172.337975 kJ/mol
# GULP energy per Si atom -5598.742635 kJ/mol
# Density = 2.086981 g / cm^3
# Si number density = 20.917419 Si / 1000 Ang^3
#
#
#
# Elastic Constant Matrix: (Units=GPa)
#
#
# Indices 1 2 3 4 5 6 
#
# 1 157.0685 23.8887 0.6402 0.0000 0.0000 0.0000
# 2 23.8887 61.3286 -15.9696 0.0000 0.0000 0.0000
# 3 0.6402 -15.9696 40.8747 0.0000 0.0000 0.0000
# 4 0.0000 0.0000 0.0000 25.3569 0.0000 0.0000
# 5 0.0000 0.0000 0.0000 0.0000 22.1089 0.0000
# 6 0.0000 0.0000 0.0000 0.0000 0.0000 14.0554
#
#
#
# Elastic Compliance Matrix: (Units=1/GPa)
#
#
# Indices 1 2 3 4 5 6 
#
# 1 0.006827 -0.002991 -0.001276 0.000000 0.000000 0.000000
# 2 -0.002991 0.019463 0.007651 0.000000 0.000000 0.000000
# 3 -0.001276 0.007651 0.027474 0.000000 0.000000 0.000000
# 4 0.000000 0.000000 0.000000 0.039437 0.000000 0.000000
# 5 0.000000 0.000000 0.000000 0.000000 0.045231 0.000000
# 6 0.000000 0.000000 0.000000 0.000000 0.000000 0.071147
#
#
# Mechanical properties :
#
#
# Convention : Reuss Voigt Hill
#
# Bulk Modulus (GPa) = 16.52016 30.71006 23.61511
# Shear Modulus (GPa) = 22.42275 29.01842 25.72059
#
# Velocity S-wave (km/s) = 3.27764 3.72867 3.51041
# Velocity P-wave (km/s) = 4.71581 5.76634 5.26733
#
# Compressibility (1/GPa) = 0.06053211
#
# Stress axis : x y z
#
# Youngs Moduli (GPa) = 146.48141 51.37934 36.39779
#
# Poissons Ratio (x) = 0.15369 0.04643
# Poissons Ratio (y) = 0.43818 -0.27848
# Poissons Ratio (z) = 0.18686 -0.39310
#
# Static dielectric constant tensor:
#      x y z
#    x 1.746550 0.000000 0.000000 
#    y 0.000000 1.749750 0.000000 
#    z 0.000000 0.000000 1.765100 
# 
# From -- ./inp_files/4035.got.cif
#   From: 2010.05.17/outbox.cif.g08.bks.cpg/sg21_3_cif.got.tgz:4035.got - 2010.06.03 23:14:55.
