data_PCOD9324294
_publ_section_title
;
Structure prediction by ZEFSAII (Michael W. Deem and Ramdas Pophale) SiO2 
 PCOD9324294
Probable space group: C 2 2 2
;
_chemical_formula_sum "Si O2"
_cell_formula_units_Z 44
_cell_length_a 8.348252
_cell_length_b 16.668742
_cell_length_c 14.255305
_cell_angle_alpha 90.000000
_cell_angle_beta 90.000000
_cell_angle_gamma 90.000000
_cell_volume 1983.694954
_symmetry_space_group_name_H-M "C 2 2 2"
_symmetry_group_IT_number 21
_symmetry_cell_setting 'orthorhombic'
loop_
_space_group_symop_operation_xyz
x,y,z
-x,-y,z
x,-y,-z
-x,y,-z
1/2+x,1/2+y,z
1/2-x,1/2-y,z
1/2+x,1/2-y,-z
1/2-x,1/2+y,-z
loop_
_atom_site_type_symbol
_atom_site_label
_atom_site_fract_x
_atom_site_fract_y
_atom_site_fract_z
Si Si1 0.500000 0.000000 0.000000
Si Si2 0.564908 0.729305 0.724860
Si Si3 0.256215 0.961479 0.860809
Si Si4 0.890813 0.933580 0.334016
Si Si5 0.586708 0.797510 0.096831
Si Si6 0.638869 0.822863 0.428418
Si Si7 0.500000 0.500000 0.000000
O O1 0.364881 0.975559 0.079946
O O2 0.750000 0.750000 0.706084
O O3 0.504227 0.639842 0.700485
O O4 0.523995 0.748361 0.832448
O O5 0.449795 0.785916 0.662356
O O6 0.191369 0.975697 0.757035
O O7 0.359490 0.880953 0.857135
O O8 0.106205 0.947727 0.929636
O O9 0.754847 0.894153 0.397789
O O10 0.000000 0.000000 0.381879
O O11 0.750000 0.750000 0.079714
O O12 0.500000 0.815769 0.000000
O O13 0.500000 0.845642 0.500000
O O14 0.750000 0.750000 0.467086
#
# Coordination Sequence:
#
# PCOD9324294 Si02
#       7
#     2   8   8   8   8   8   2
#     4  10  24  38  58  94 134 182 238 270 352 394
#     4  11  23  41  67 102 133 180 233 280 348 412
#     4  11  21  39  57  89 130 183 227 285 328 404
#     4  11  23  44  69 102 146 181 226 288 350 416
#     4  12  23  37  58  88 134 180 240 293 331 393
#     4  10  21  43  77 106 133 175 228 288 351 426
#     4  10  24  34  58  82 136 190 238 264 356 398
#
# _framework density 22.18083
#
# number of rings (size 3 to 8) (size 9 to 14) (size 15 to 20)
#    0.000    1.091    5.455    1.636    1.273    2.909 
#    0.000    0.000    0.000   29.455    0.000    0.000 
#    0.000    0.000    0.000    0.000    0.000    0.000 
#
# Total GULP energy -122789.940468 kJ/mol
# GULP energy per Si atom -5581.360930 kJ/mol
# Density = 2.213035 g / cm^3
# Si number density = 22.180830 Si / 1000 Ang^3
#
#
#
# Elastic Constant Matrix: (Units=GPa)
#
#
# Indices 1 2 3 4 5 6 
#
# 1 153.2762 51.7416 47.2611 0.0000 0.0000 0.0000
# 2 51.7416 86.6533 32.8610 0.0000 0.0000 0.0000
# 3 47.2611 32.8610 85.8913 0.0000 0.0000 0.0000
# 4 0.0000 0.0000 0.0000 -2.1054 0.0000 0.0000
# 5 0.0000 0.0000 0.0000 0.0000 31.7703 0.0000
# 6 0.0000 0.0000 0.0000 0.0000 0.0000 37.4655
#
#
#
# Elastic Compliance Matrix: (Units=1/GPa)
#
#
# Indices 1 2 3 4 5 6 
#
# 1 0.008930 -0.004058 -0.003361 0.000000 0.000000 0.000000
# 2 -0.004058 0.015342 -0.003637 0.000000 0.000000 0.000000
# 3 -0.003361 -0.003637 0.014884 0.000000 0.000000 0.000000
# 4 0.000000 0.000000 0.000000 -0.474979 0.000000 0.000000
# 5 0.000000 0.000000 0.000000 0.000000 0.031476 0.000000
# 6 0.000000 0.000000 0.000000 0.000000 0.000000 0.026691
#
#
# Mechanical properties :
#
#
# Convention : Reuss Voigt Hill
#
# Bulk Modulus (GPa) = 58.67152 65.50533 62.08843
# Shear Modulus (GPa) = -14.29138 26.35658 6.03260
#
# Velocity S-wave (km/s) = -2.54108 3.45085 1.65095
# Velocity P-wave (km/s) = 4.23077 6.74347 5.62911
#
# Compressibility (1/GPa) = 0.01704404
#
# Stress axis : x y z
#
# Youngs Moduli (GPa) = 111.97707 65.17883 67.18736
#
# Poissons Ratio (x) = 0.26448 0.22585
# Poissons Ratio (y) = 0.45437 0.24437
# Poissons Ratio (z) = 0.37641 0.23706
#
# Static dielectric constant tensor:
#      x y z
#    x 1.848990 0.000000 0.000000 
#    y 0.000000 1.928980 0.000000 
#    z 0.000000 0.000000 1.792630 
# 
# From -- ./inp_files/30418.got.cif
#   From: 2010.05.17/outbox.cif.g08.bks.cpg/sg21_16_cif.got.tgz:30418.got - 2010.06.03 23:14:55.
