data_PCOD9324799
_publ_section_title
;
Structure prediction by ZEFSAII (Michael W. Deem and Ramdas Pophale) SiO2 
 PCOD9324799
Probable space group: C 2 2 2
;
_chemical_formula_sum "Si O2"
_cell_formula_units_Z 58
_cell_length_a 8.138398
_cell_length_b 26.461241
_cell_length_c 11.863094
_cell_angle_alpha 90.000000
_cell_angle_beta 90.000000
_cell_angle_gamma 90.000000
_cell_volume 2554.742334
_symmetry_space_group_name_H-M "C 2 2 2"
_symmetry_group_IT_number 21
_symmetry_cell_setting 'orthorhombic'
loop_
_space_group_symop_operation_xyz
x,y,z
-x,-y,z
x,-y,-z
-x,y,-z
1/2+x,1/2+y,z
1/2-x,1/2-y,z
1/2+x,1/2-y,-z
1/2-x,1/2+y,-z
loop_
_atom_site_type_symbol
_atom_site_label
_atom_site_fract_x
_atom_site_fract_y
_atom_site_fract_z
Si Si1 0.691001 0.882283 0.038942
Si Si2 0.403337 0.284465 0.608228
Si Si3 0.500000 0.500000 0.500000
Si Si4 0.848320 0.628289 0.577472
Si Si5 0.801111 0.095570 0.198193
Si Si6 0.240800 0.433292 0.391612
Si Si7 0.869122 0.151798 0.750586
Si Si8 0.176666 0.515194 0.831541
O O1 0.760121 0.845265 0.136394
O O2 0.731607 0.937810 0.091648
O O3 0.782017 0.876923 0.921145
O O4 0.000000 0.620727 0.000000
O O5 0.500000 0.263674 0.500000
O O6 0.250000 0.250000 0.646462
O O7 0.309848 0.335381 0.567865
O O8 0.538007 0.299035 0.702395
O O9 0.403854 0.463626 0.416203
O O10 0.837192 0.615357 0.711699
O O11 0.824619 0.574322 0.517272
O O12 0.000000 0.648802 0.500000
O O13 0.981445 0.111829 0.235980
O O14 0.781846 0.035712 0.178285
O O15 0.260468 0.376616 0.343183
O O16 0.150407 0.462675 0.293642
O O17 0.000000 0.500000 0.876428
#
# Coordination Sequence:
#
# PCOD9324799 Si02
#       8
#     8   8   2   8   8   8   8   8
#     4  11  23  38  61  87 128 186 239 298 341 387
#     4  11  22  42  70 103 138 171 214 283 367 451
#     4  12  20  32  50  80 122 184 234 264 320 406
#     4  11  23  38  61  95 137 176 227 277 353 437
#     4  11  22  36  58  87 128 185 243 288 337 392
#     4  11  21  35  56  82 131 184 221 271 334 390
#     4  10  23  41  61  91 134 174 223 285 348 428
#     4  11  21  35  56  83 130 181 245 298 330 374
#
# _framework density 22.702876
#
# number of rings (size 3 to 8) (size 9 to 14) (size 15 to 20)
#    0.000    1.103    2.759    5.379    1.931    1.655 
#    0.000    4.138    0.000    0.000    0.000   30.897 
#    0.000    0.000    0.000    0.000    0.000    0.000 
#
# Total GULP energy -161652.471623 kJ/mol
# GULP energy per Si atom -5574.223159 kJ/mol
# Density = 2.265120 g / cm^3
# Si number density = 22.702876 Si / 1000 Ang^3
#
#
#
# Elastic Constant Matrix: (Units=GPa)
#
#
# Indices 1 2 3 4 5 6 
#
# 1 72.3274 20.4829 30.1853 0.0000 0.0000 0.0000
# 2 20.4829 47.3000 33.1623 0.0000 0.0000 0.0000
# 3 30.1853 33.1623 166.4037 0.0000 0.0000 0.0000
# 4 0.0000 0.0000 0.0000 -0.8644 0.0000 0.0000
# 5 0.0000 0.0000 0.0000 0.0000 36.3008 0.0000
# 6 0.0000 0.0000 0.0000 0.0000 0.0000 39.8808
#
#
#
# Elastic Compliance Matrix: (Units=1/GPa)
#
#
# Indices 1 2 3 4 5 6 
#
# 1 0.016205 -0.005762 -0.001791 0.000000 0.000000 0.000000
# 2 -0.005762 0.026624 -0.004261 0.000000 0.000000 0.000000
# 3 -0.001791 -0.004261 0.007184 0.000000 0.000000 0.000000
# 4 0.000000 0.000000 0.000000 -1.156867 0.000000 0.000000
# 5 0.000000 0.000000 0.000000 0.000000 0.027548 0.000000
# 6 0.000000 0.000000 0.000000 0.000000 0.000000 0.025075
#
#
# Mechanical properties :
#
#
# Convention : Reuss Voigt Hill
#
# Bulk Modulus (GPa) = 37.89983 50.41022 44.15503
# Shear Modulus (GPa) = -4.89328 28.54348 11.82510
#
# Velocity S-wave (km/s) = -1.46971 3.54964 2.28472
# Velocity P-wave (km/s) = 3.72156 6.24919 5.14308
#
# Compressibility (1/GPa) = 0.02638534
#
# Stress axis : x y z
#
# Youngs Moduli (GPa) = 61.70819 37.56025 139.20713
#
# Poissons Ratio (x) = 0.21641 0.24937
# Poissons Ratio (y) = 0.35554 0.59312
# Poissons Ratio (z) = 0.11054 0.16003
#
# Static dielectric constant tensor:
#      x y z
#    x 1.988910 0.000000 0.000000 
#    y 0.000000 1.854930 0.000000 
#    z 0.000000 0.000000 1.835190 
# 
# From -- ./inp_files/23083.got.cif
#   From: 2010.05.17/outbox.cif.g08.bks.cpg/sg21_12_cif.got.tgz:23083.got - 2010.06.03 23:14:55.
