data_PCOD9324117
_publ_section_title
;
Structure prediction by ZEFSAII (Michael W. Deem and Ramdas Pophale) SiO2 
 PCOD9324117
Probable space group: C 2 2 2
;
_chemical_formula_sum "Si O2"
_cell_formula_units_Z 58
_cell_length_a 16.512453
_cell_length_b 16.150475
_cell_length_c 9.703347
_cell_angle_alpha 90.000000
_cell_angle_beta 90.000000
_cell_angle_gamma 90.000000
_cell_volume 2587.726997
_symmetry_space_group_name_H-M "C 2 2 2"
_symmetry_group_IT_number 21
_symmetry_cell_setting 'orthorhombic'
loop_
_space_group_symop_operation_xyz
x,y,z
-x,-y,z
x,-y,-z
-x,y,-z
1/2+x,1/2+y,z
1/2-x,1/2-y,z
1/2+x,1/2-y,-z
1/2-x,1/2+y,-z
loop_
_atom_site_type_symbol
_atom_site_label
_atom_site_fract_x
_atom_site_fract_y
_atom_site_fract_z
Si Si1 0.197648 0.091552 0.438058
Si Si2 0.663318 0.209466 0.902944
Si Si3 0.556830 0.673918 0.614913
Si Si4 0.372339 0.900750 0.497404
Si Si5 0.110729 0.682964 0.201320
Si Si6 0.500000 0.500000 0.000000
Si Si7 0.084432 0.877079 0.800082
Si Si8 0.542851 0.091519 0.772737
O O1 0.130866 0.135518 0.532489
O O2 0.286082 0.131627 0.446446
O O3 0.162375 0.093352 0.285084
O O4 0.204289 0.000000 0.500000
O O5 0.750000 0.250000 0.862927
O O6 0.602039 0.284234 0.856255
O O7 0.627569 0.122614 0.840970
O O8 0.665368 0.191546 0.067366
O O9 0.500000 0.718185 0.500000
O O10 0.595633 0.728601 0.732544
O O11 0.491230 0.618212 0.693148
O O12 0.371607 0.871954 0.338373
O O13 0.440665 0.883420 0.613009
O O14 0.372828 0.000000 0.500000
O O15 0.024814 0.646938 0.155469
O O16 0.559018 0.439518 0.917106
O O17 0.500000 0.000000 0.778525
#
# Coordination Sequence:
#
# PCOD9324117 Si02
#       8
#     8   8   8   8   8   2   8   8
#     4  10  23  41  67 104 146 188 247 322 398 462
#     4  12  29  49  70 111 160 203 257 327 398 478
#     4  10  21  39  69  99 133 181 246 307 376 457
#     4  11  24  44  69 107 146 190 251 326 386 463
#     4  12  25  43  70 105 142 193 257 317 382 475
#     4  12  24  40  74 100 134 188 254 298 368 468
#     4  11  23  45  68 104 144 199 246 317 384 470
#     4  12  25  49  80 107 149 205 263 320 403 488
#
# _framework density 22.413494
#
# number of rings (size 3 to 8) (size 9 to 14) (size 15 to 20)
#    0.000    0.828    2.759    4.138    3.862    3.034 
#    2.483    0.000    0.000    0.000    0.000    0.000 
#    0.000    0.000    0.000    0.000    0.000    0.000 
#
# Total GULP energy -161618.385040 kJ/mol
# GULP energy per Si atom -5573.047760 kJ/mol
# Density = 2.236248 g / cm^3
# Si number density = 22.413494 Si / 1000 Ang^3
#
#
#
# Elastic Constant Matrix: (Units=GPa)
#
#
# Indices 1 2 3 4 5 6 
#
# 1 96.7073 34.9993 32.7906 0.0000 0.0000 0.0000
# 2 34.9993 64.5575 25.3165 0.0000 0.0000 0.0000
# 3 32.7906 25.3165 120.6067 0.0000 0.0000 0.0000
# 4 0.0000 0.0000 0.0000 25.2944 0.0000 0.0000
# 5 0.0000 0.0000 0.0000 0.0000 35.0643 0.0000
# 6 0.0000 0.0000 0.0000 0.0000 0.0000 53.2333
#
#
#
# Elastic Compliance Matrix: (Units=1/GPa)
#
#
# Indices 1 2 3 4 5 6 
#
# 1 0.013432 -0.006375 -0.002314 0.000000 0.000000 0.000000
# 2 -0.006375 0.019905 -0.002445 0.000000 0.000000 0.000000
# 3 -0.002314 -0.002445 0.009434 0.000000 0.000000 0.000000
# 4 0.000000 0.000000 0.000000 0.039534 0.000000 0.000000
# 5 0.000000 0.000000 0.000000 0.000000 0.028519 0.000000
# 6 0.000000 0.000000 0.000000 0.000000 0.000000 0.018785
#
#
# Mechanical properties :
#
#
# Convention : Reuss Voigt Hill
#
# Bulk Modulus (GPa) = 48.77207 52.00937 50.39072
# Shear Modulus (GPa) = 31.50377 35.30273 33.40325
#
# Velocity S-wave (km/s) = 3.75316 3.97302 3.86465
# Velocity P-wave (km/s) = 6.37095 6.65593 6.51500
#
# Compressibility (1/GPa) = 0.02050354
#
# Stress axis : x y z
#
# Youngs Moduli (GPa) = 74.44852 50.23885 106.00251
#
# Poissons Ratio (x) = 0.32026 0.24527
# Poissons Ratio (y) = 0.47459 0.25918
# Poissons Ratio (z) = 0.17226 0.12284
#
# Static dielectric constant tensor:
#      x y z
#    x 1.909780 0.000000 0.000000 
#    y 0.000000 1.847830 0.000000 
#    z 0.000000 0.000000 1.729950 
# 
# From -- ./inp_files/16678.got.cif
#   From: 2010.05.17/outbox.cif.g08.bks.cpg/sg21_9_cif.got.tgz:16678.got - 2010.06.03 23:14:55.
