data_PCOD9324967
_publ_section_title
;
Structure prediction by ZEFSAII (Michael W. Deem and Ramdas Pophale) SiO2 
 PCOD9324967
Probable space group: C 2 2 2
;
_chemical_formula_sum "Si O2"
_cell_formula_units_Z 40
_cell_length_a 8.678587
_cell_length_b 14.065326
_cell_length_c 14.680114
_cell_angle_alpha 90.000000
_cell_angle_beta 90.000000
_cell_angle_gamma 90.000000
_cell_volume 1791.959757
_symmetry_space_group_name_H-M "C 2 2 2"
_symmetry_group_IT_number 21
_symmetry_cell_setting 'orthorhombic'
loop_
_space_group_symop_operation_xyz
x,y,z
-x,-y,z
x,-y,-z
-x,y,-z
1/2+x,1/2+y,z
1/2-x,1/2-y,z
1/2+x,1/2-y,-z
1/2-x,1/2+y,-z
loop_
_atom_site_type_symbol
_atom_site_label
_atom_site_fract_x
_atom_site_fract_y
_atom_site_fract_z
Si Si1 0.000000 0.000000 0.152711
Si Si2 0.243547 0.500000 0.000000
Si Si3 0.427294 0.219478 0.597928
Si Si4 0.454788 0.100496 0.246656
Si Si5 0.364900 0.338943 0.268654
Si Si6 0.599463 0.192077 0.074277
O O1 0.148276 0.006330 0.088130
O O2 0.983875 0.901568 0.209300
O O3 0.151958 0.597065 0.019602
O O4 0.500000 0.199345 0.500000
O O5 0.250000 0.250000 0.590899
O O6 0.444587 0.131590 0.667083
O O7 0.537870 0.297762 0.647443
O O8 0.279576 0.090845 0.282027
O O9 0.501942 0.170302 0.164037
O O10 0.500000 0.000000 0.207069
O O11 0.250000 0.250000 0.238677
O O12 0.750000 0.250000 0.100285
O O13 0.500000 0.249779 0.000000
#
# Coordination Sequence:
#
# PCOD9324967 Si02
#       6
#     4   4   8   8   8   8
#     4  11  24  42  71 102 146 196 249 312 373 432
#     4  11  27  42  66 100 146 186 254 316 358 450
#     4  11  25  47  75 107 147 188 240 306 380 458
#     4  11  24  44  73 104 143 191 243 304 375 455
#     4  10  24  43  74 102 145 192 251 307 380 456
#     4  12  27  44  67 100 141 194 247 301 371 443
#
# _framework density 22.321929999999998
#
# number of rings (size 3 to 8) (size 9 to 14) (size 15 to 20)
#    0.000    1.000    0.000    6.300   14.000    3.600 
#    0.000    0.500    0.000    0.000    0.000    0.000 
#    0.000    0.000    0.000    0.000    0.000    0.000 
#
# Total GULP energy -111557.212295 kJ/mol
# GULP energy per Si atom -5577.860615 kJ/mol
# Density = 2.227112 g / cm^3
# Si number density = 22.321930 Si / 1000 Ang^3
#
#
#
# Elastic Constant Matrix: (Units=GPa)
#
#
# Indices 1 2 3 4 5 6 
#
# 1 141.5895 9.5410 50.8003 0.0000 0.0000 0.0000
# 2 9.5410 24.8715 35.9059 0.0000 0.0000 0.0000
# 3 50.8003 35.9059 140.3006 0.0000 0.0000 0.0000
# 4 0.0000 0.0000 0.0000 39.7588 0.0000 0.0000
# 5 0.0000 0.0000 0.0000 0.0000 39.0674 0.0000
# 6 0.0000 0.0000 0.0000 0.0000 0.0000 13.2059
#
#
#
# Elastic Compliance Matrix: (Units=1/GPa)
#
#
# Indices 1 2 3 4 5 6 
#
# 1 0.008168 0.001802 -0.003419 0.000000 0.000000 0.000000
# 2 0.001802 0.064163 -0.017073 0.000000 0.000000 0.000000
# 3 -0.003419 -0.017073 0.012735 0.000000 0.000000 0.000000
# 4 0.000000 0.000000 0.000000 0.025152 0.000000 0.000000
# 5 0.000000 0.000000 0.000000 0.000000 0.025597 0.000000
# 6 0.000000 0.000000 0.000000 0.000000 0.000000 0.075723
#
#
# Mechanical properties :
#
#
# Convention : Reuss Voigt Hill
#
# Bulk Modulus (GPa) = 20.97047 55.47290 38.22168
# Shear Modulus (GPa) = 18.88130 32.44073 25.66101
#
# Velocity S-wave (km/s) = 2.91153 3.81637 3.39424
# Velocity P-wave (km/s) = 4.55166 6.65769 5.70274
#
# Compressibility (1/GPa) = 0.04768611
#
# Stress axis : x y z
#
# Youngs Moduli (GPa) = 122.43231 15.58529 78.52536
#
# Poissons Ratio (x) = -0.02808 0.26844
# Poissons Ratio (y) = -0.22062 1.34068
# Poissons Ratio (z) = 0.41854 0.26609
#
# Static dielectric constant tensor:
#      x y z
#    x 1.908170 0.000000 0.000000 
#    y 0.000000 2.170280 0.000000 
#    z 0.000000 0.000000 1.799650 
# 
# From -- ./inp_files/30245.got.cif
#   From: 2010.05.17/outbox.cif.g08.bks.cpg/sg21_16_cif.got.tgz:30245.got - 2010.06.03 23:14:55.
