data_PCOD9324119
_publ_section_title
;
Structure prediction by ZEFSAII (Michael W. Deem and Ramdas Pophale) SiO2 
 PCOD9324119
Probable space group: C 2 2 2
;
_chemical_formula_sum "Si O2"
_cell_formula_units_Z 56
_cell_length_a 12.646232
_cell_length_b 14.484581
_cell_length_c 15.148383
_cell_angle_alpha 90.000000
_cell_angle_beta 90.000000
_cell_angle_gamma 90.000000
_cell_volume 2774.810687
_symmetry_space_group_name_H-M "C 2 2 2"
_symmetry_group_IT_number 21
_symmetry_cell_setting 'orthorhombic'
loop_
_space_group_symop_operation_xyz
x,y,z
-x,-y,z
x,-y,-z
-x,y,-z
1/2+x,1/2+y,z
1/2-x,1/2-y,z
1/2+x,1/2-y,-z
1/2-x,1/2+y,-z
loop_
_atom_site_type_symbol
_atom_site_label
_atom_site_fract_x
_atom_site_fract_y
_atom_site_fract_z
Si Si1 0.179401 0.341383 0.189458
Si Si2 0.459552 0.896679 0.170013
Si Si3 0.252057 0.525216 0.098886
Si Si4 0.393127 0.554429 0.258609
Si Si5 0.710696 0.947325 0.364960
Si Si6 0.872242 0.255041 0.311874
Si Si7 0.118022 0.617116 0.463870
O O1 0.250000 0.250000 0.187301
O O2 0.238571 0.425346 0.143289
O O3 0.165980 0.378309 0.290308
O O4 0.065130 0.341402 0.141298
O O5 0.360074 0.919425 0.106058
O O6 0.420466 0.833752 0.249978
O O7 0.500000 0.000000 0.194702
O O8 0.333627 0.573009 0.165614
O O9 0.283299 0.500000 0.000000
O O10 0.500000 0.500000 0.242608
O O11 0.316193 0.494045 0.323244
O O12 0.418812 0.653872 0.299513
O O13 0.704530 0.893166 0.458122
O O14 0.641696 0.036496 0.392720
O O15 0.750000 0.250000 0.286726
O O16 0.877772 0.287880 0.412131
O O17 0.000000 0.605627 0.500000
#
# Coordination Sequence:
#
# PCOD9324119 Si02
#       7
#     8   8   8   8   8   8   8
#     4  10  22  39  64 100 138 175 222 276 344 407
#     4  10  21  39  70  98 132 177 225 280 339 406
#     4  10  22  44  71  97 131 175 230 288 341 410
#     4  11  25  45  67  92 141 186 224 277 358 425
#     4  10  21  40  63  91 133 179 222 278 329 395
#     4  12  22  43  69  99 133 180 234 276 343 416
#     4  11  22  40  67  99 129 170 233 289 329 394
#
# _framework density 20.181557999999999
#
# number of rings (size 3 to 8) (size 9 to 14) (size 15 to 20)
#    0.000    1.429    2.857    3.429    4.000    6.857 
#    5.143    1.429    0.000    0.000    0.000    0.000 
#    0.000    0.000    0.000    0.000    0.000    0.000 
#
# Total GULP energy -156033.478850 kJ/mol
# GULP energy per Si atom -5572.624245 kJ/mol
# Density = 2.013562 g / cm^3
# Si number density = 20.181558 Si / 1000 Ang^3
#
#
#
# Elastic Constant Matrix: (Units=GPa)
#
#
# Indices 1 2 3 4 5 6 
#
# 1 91.6313 31.5756 20.5574 0.0000 0.0000 0.0000
# 2 31.5756 69.8673 39.6662 0.0000 0.0000 0.0000
# 3 20.5574 39.6662 92.1927 0.0000 0.0000 0.0000
# 4 0.0000 0.0000 0.0000 13.1094 0.0000 0.0000
# 5 0.0000 0.0000 0.0000 0.0000 7.7087 0.0000
# 6 0.0000 0.0000 0.0000 0.0000 0.0000 32.9674
#
#
#
# Elastic Compliance Matrix: (Units=1/GPa)
#
#
# Indices 1 2 3 4 5 6 
#
# 1 0.012943 -0.005572 -0.000489 0.000000 0.000000 0.000000
# 2 -0.005572 0.021338 -0.007938 0.000000 0.000000 0.000000
# 3 -0.000489 -0.007938 0.014371 0.000000 0.000000 0.000000
# 4 0.000000 0.000000 0.000000 0.076281 0.000000 0.000000
# 5 0.000000 0.000000 0.000000 0.000000 0.129723 0.000000
# 6 0.000000 0.000000 0.000000 0.000000 0.000000 0.030333
#
#
# Mechanical properties :
#
#
# Convention : Reuss Voigt Hill
#
# Bulk Modulus (GPa) = 48.41604 48.58776 48.50190
# Shear Modulus (GPa) = 15.63127 21.54992 18.59059
#
# Velocity S-wave (km/s) = 2.78606 3.27127 3.03837
# Velocity P-wave (km/s) = 5.86446 6.19644 6.03273
#
# Compressibility (1/GPa) = 0.02065431
#
# Stress axis : x y z
#
# Youngs Moduli (GPa) = 77.26181 46.86511 69.58335
#
# Poissons Ratio (x) = 0.26113 0.03401
# Poissons Ratio (y) = 0.43050 0.55237
# Poissons Ratio (z) = 0.03776 0.37202
#
# Static dielectric constant tensor:
#      x y z
#    x 1.770360 0.000000 0.000000 
#    y 0.000000 1.727690 0.000000 
#    z 0.000000 0.000000 1.797560 
# 
# From -- ./inp_files/31618.got.cif
#   From: 2010.05.17/outbox.cif.g08.bks.cpg/sg21_16_cif.got.tgz:31618.got - 2010.06.03 23:14:55.
