data_PCOD9324745
_publ_section_title
;
Structure prediction by ZEFSAII (Michael W. Deem and Ramdas Pophale) SiO2 
 PCOD9324745
Probable space group: C 2 2 2
;
_chemical_formula_sum "Si O2"
_cell_formula_units_Z 32
_cell_length_a 5.870980
_cell_length_b 13.755461
_cell_length_c 17.045439
_cell_angle_alpha 90.000000
_cell_angle_beta 90.000000
_cell_angle_gamma 90.000000
_cell_volume 1376.556184
_symmetry_space_group_name_H-M "C 2 2 2"
_symmetry_group_IT_number 21
_symmetry_cell_setting 'orthorhombic'
loop_
_space_group_symop_operation_xyz
x,y,z
-x,-y,z
x,-y,-z
-x,y,-z
1/2+x,1/2+y,z
1/2-x,1/2-y,z
1/2+x,1/2-y,-z
1/2-x,1/2+y,-z
loop_
_atom_site_type_symbol
_atom_site_label
_atom_site_fract_x
_atom_site_fract_y
_atom_site_fract_z
Si Si1 0.250000 0.250000 0.857975
Si Si2 0.157064 0.140627 0.424441
Si Si3 0.099191 0.151786 0.251254
Si Si4 0.500000 0.500000 0.000000
Si Si5 0.500000 0.000000 0.500000
Si Si6 0.136256 0.596156 0.892190
O O1 0.377479 0.325445 0.800334
O O2 0.460394 0.188866 0.898807
O O3 0.250000 0.250000 0.425068
O O4 0.048092 0.120213 0.339573
O O5 0.000000 0.129436 0.500000
O O6 0.358444 0.067587 0.442089
O O7 0.250000 0.250000 0.258332
O O8 0.261901 0.089333 0.195609
O O9 0.350507 0.422960 0.050781
O O10 0.000000 0.500000 0.908211
#
# Coordination Sequence:
#
# PCOD9324745 Si02
#       6
#     4   8   8   2   2   8
#     4  10  22  46  78 110 144 194 250 300 380 462
#     4  11  24  44  70 105 150 196 248 312 367 437
#     4   9  22  42  73 106 143 194 249 306 369 446
#     4  12  26  48  80 118 150 192 248 320 394 456
#     4  12  26  44  64 104 144 198 250 300 388 436
#     4  11  24  46  80 108 149 195 245 309 380 463
#
# _framework density 23.246417000000001
#
# number of rings (size 3 to 8) (size 9 to 14) (size 15 to 20)
#    0.000    1.500    1.250    2.250    3.500    2.000 
#    9.000    0.000  123.750    0.000    0.000    0.000 
#    0.000    0.000    0.000    0.000    0.000    0.000 
#
# Total GULP energy -89298.298064 kJ/mol
# GULP energy per Si atom -5581.143629 kJ/mol
# Density = 2.319351 g / cm^3
# Si number density = 23.246417 Si / 1000 Ang^3
#
#
#
# Elastic Constant Matrix: (Units=GPa)
#
#
# Indices 1 2 3 4 5 6 
#
# 1 120.3970 50.5354 71.2887 0.0000 0.0000 0.0000
# 2 50.5354 116.3959 48.6371 0.0000 0.0000 0.0000
# 3 71.2887 48.6371 174.5752 0.0000 0.0000 0.0000
# 4 0.0000 0.0000 0.0000 26.4643 0.0000 0.0000
# 5 0.0000 0.0000 0.0000 0.0000 23.6947 0.0000
# 6 0.0000 0.0000 0.0000 0.0000 0.0000 33.4565
#
#
#
# Elastic Compliance Matrix: (Units=1/GPa)
#
#
# Indices 1 2 3 4 5 6 
#
# 1 0.012175 -0.003631 -0.003960 0.000000 0.000000 0.000000
# 2 -0.003631 0.010806 -0.001528 0.000000 0.000000 0.000000
# 3 -0.003960 -0.001528 0.007771 0.000000 0.000000 0.000000
# 4 0.000000 0.000000 0.000000 0.037787 0.000000 0.000000
# 5 0.000000 0.000000 0.000000 0.000000 0.042204 0.000000
# 6 0.000000 0.000000 0.000000 0.000000 0.000000 0.029890
#
#
# Mechanical properties :
#
#
# Convention : Reuss Voigt Hill
#
# Bulk Modulus (GPa) = 79.91046 83.58783 81.74914
# Shear Modulus (GPa) = 30.66707 32.78355 31.72531
#
# Velocity S-wave (km/s) = 3.63604 3.75942 3.69825
# Velocity P-wave (km/s) = 7.21649 7.40808 7.31291
#
# Compressibility (1/GPa) = 0.01251401
#
# Stress axis : x y z
#
# Youngs Moduli (GPa) = 82.13715 92.53821 128.68474
#
# Poissons Ratio (x) = 0.33602 0.50959
# Poissons Ratio (y) = 0.29825 0.19661
# Poissons Ratio (z) = 0.32526 0.14139
#
# Static dielectric constant tensor:
#      x y z
#    x 1.962260 0.000000 0.000000 
#    y 0.000000 1.847780 0.000000 
#    z 0.000000 0.000000 1.923670 
# 
# From -- ./inp_files/34555.got.cif
#   From: 2010.05.17/outbox.cif.g08.bks.cpg/sg21_18_cif.got.tgz:34555.got - 2010.06.03 23:14:55.
