data_PCOD9324201
_publ_section_title
;
Structure prediction by ZEFSAII (Michael W. Deem and Ramdas Pophale) SiO2 
 PCOD9324201
Probable space group: C 2 2 2
;
_chemical_formula_sum "Si O2"
_cell_formula_units_Z 38
_cell_length_a 16.357881
_cell_length_b 9.747076
_cell_length_c 12.615350
_cell_angle_alpha 90.000000
_cell_angle_beta 90.000000
_cell_angle_gamma 90.000000
_cell_volume 2011.410444
_symmetry_space_group_name_H-M "C 2 2 2"
_symmetry_group_IT_number 21
_symmetry_cell_setting 'orthorhombic'
loop_
_space_group_symop_operation_xyz
x,y,z
-x,-y,z
x,-y,-z
-x,y,-z
1/2+x,1/2+y,z
1/2-x,1/2-y,z
1/2+x,1/2-y,-z
1/2-x,1/2+y,-z
loop_
_atom_site_type_symbol
_atom_site_label
_atom_site_fract_x
_atom_site_fract_y
_atom_site_fract_z
Si Si1 0.250000 0.250000 0.019943
Si Si2 0.500000 0.500000 0.000000
Si Si3 0.762798 0.051116 0.788466
Si Si4 0.913836 0.437721 0.274966
Si Si5 0.750000 0.750000 0.391867
Si Si6 0.650317 0.000000 0.500000
Si Si7 0.620288 0.316949 0.141963
O O1 0.232325 0.125232 0.098574
O O2 0.327555 0.231430 0.944414
O O3 0.555413 0.405800 0.076385
O O4 0.795471 0.151152 0.694733
O O5 0.668066 0.014942 0.766408
O O6 0.816328 0.916130 0.798398
O O7 0.902585 0.449738 0.400902
O O8 0.914173 0.285796 0.228345
O O9 0.000000 0.500000 0.241943
O O10 0.797432 0.635083 0.461698
#
# Coordination Sequence:
#
# PCOD9324201 Si02
#       7
#     4   2   8   8   4   4   8
#     4  11  20  39  64  86 130 179 214 257 326 394
#     4  12  28  40  58 104 140 176 224 282 340 394
#     4  10  21  41  62  95 130 175 224 269 324 408
#     4  11  25  41  65  94 129 175 228 283 339 395
#     4   9  22  35  72 100 124 163 230 277 328 404
#     4  10  23  44  68  96 131 170 226 289 344 394
#     4  12  24  41  65  93 138 180 222 271 332 411
#
# _framework density 18.892213999999999
#
# number of rings (size 3 to 8) (size 9 to 14) (size 15 to 20)
#    0.000    1.263    4.211    0.316    8.842    1.684 
#    0.000    0.000    0.000    0.000    0.000    0.000 
#    0.000    0.000    0.000    0.000    0.000    0.000 
#
# Total GULP energy -105948.029642 kJ/mol
# GULP energy per Si atom -5576.212086 kJ/mol
# Density = 1.884921 g / cm^3
# Si number density = 18.892214 Si / 1000 Ang^3
#
#
#
# Elastic Constant Matrix: (Units=GPa)
#
#
# Indices 1 2 3 4 5 6 
#
# 1 100.0261 56.0182 34.4657 0.0000 0.0000 0.0000
# 2 56.0182 131.2727 52.0789 0.0000 0.0000 0.0000
# 3 34.4657 52.0789 88.8272 0.0000 0.0000 0.0000
# 4 0.0000 0.0000 0.0000 25.7044 0.0000 0.0000
# 5 0.0000 0.0000 0.0000 0.0000 12.6196 0.0000
# 6 0.0000 0.0000 0.0000 0.0000 0.0000 31.8616
#
#
#
# Elastic Compliance Matrix: (Units=1/GPa)
#
#
# Indices 1 2 3 4 5 6 
#
# 1 0.013528 -0.004809 -0.002429 0.000000 0.000000 0.000000
# 2 -0.004809 0.011636 -0.004956 0.000000 0.000000 0.000000
# 3 -0.002429 -0.004956 0.015106 0.000000 0.000000 0.000000
# 4 0.000000 0.000000 0.000000 0.038904 0.000000 0.000000
# 5 0.000000 0.000000 0.000000 0.000000 0.079242 0.000000
# 6 0.000000 0.000000 0.000000 0.000000 0.000000 0.031386
#
#
# Mechanical properties :
#
#
# Convention : Reuss Voigt Hill
#
# Bulk Modulus (GPa) = 62.96890 67.25018 65.10954
# Shear Modulus (GPa) = 22.78065 25.87465 24.32765
#
# Velocity S-wave (km/s) = 3.47626 3.70482 3.59236
# Velocity P-wave (km/s) = 7.03672 7.34676 7.19341
#
# Compressibility (1/GPa) = 0.01588086
#
# Stress axis : x y z
#
# Youngs Moduli (GPa) = 73.92287 85.93948 66.19747
#
# Poissons Ratio (x) = 0.41327 0.16082
# Poissons Ratio (y) = 0.35548 0.32810
# Poissons Ratio (z) = 0.17959 0.42594
#
# Static dielectric constant tensor:
#      x y z
#    x 1.686020 0.000000 0.000000 
#    y 0.000000 1.697270 0.000000 
#    z 0.000000 0.000000 1.661480 
# 
# From -- ./inp_files/22380.got.cif
#   From: 2010.05.17/outbox.cif.g08.bks.cpg/sg21_12_cif.got.tgz:22380.got - 2010.06.03 23:14:55.
