data_PCOD9324235
_publ_section_title
;
Structure prediction by ZEFSAII (Michael W. Deem and Ramdas Pophale) SiO2 
 PCOD9324235
Probable space group: C 2 2 2
;
_chemical_formula_sum "Si O2"
_cell_formula_units_Z 32
_cell_length_a 20.284995
_cell_length_b 5.609271
_cell_length_c 12.007040
_cell_angle_alpha 90.000000
_cell_angle_beta 90.000000
_cell_angle_gamma 90.000000
_cell_volume 1366.209450
_symmetry_space_group_name_H-M "C 2 2 2"
_symmetry_group_IT_number 21
_symmetry_cell_setting 'orthorhombic'
loop_
_space_group_symop_operation_xyz
x,y,z
-x,-y,z
x,-y,-z
-x,y,-z
1/2+x,1/2+y,z
1/2-x,1/2-y,z
1/2+x,1/2-y,-z
1/2-x,1/2+y,-z
loop_
_atom_site_type_symbol
_atom_site_label
_atom_site_fract_x
_atom_site_fract_y
_atom_site_fract_z
Si Si1 0.750000 0.250000 0.434870
Si Si2 0.101474 0.753793 0.430779
Si Si3 0.813737 0.371331 0.885305
Si Si4 0.937587 0.333626 0.193916
Si Si5 0.092382 0.000000 0.000000
O O1 0.752872 0.500000 0.500000
O O2 0.822928 0.239032 0.385124
O O3 0.092385 0.500000 0.500000
O O4 0.058661 0.761412 0.319462
O O5 0.091569 0.000000 0.500000
O O6 0.750000 0.250000 0.827442
O O7 0.865438 0.541158 0.821960
O O8 0.790122 0.500000 0.000000
O O9 0.860682 0.162843 0.925688
O O10 0.000000 0.500000 0.180779
O O11 0.943612 0.157456 0.090598
#
# Coordination Sequence:
#
# PCOD9324235 Si02
#       5
#     4   8   8   8   4
#     4   8  16  36  66 104 144 180 236 306 380 432
#     4  10  23  46  75 111 149 197 254 321 378 457
#     4  10  21  41  70 109 148 193 252 311 381 449
#     4  11  27  46  73 112 149 207 254 311 394 464
#     4  10  24  45  74 102 153 192 244 316 373 464
#
# _framework density 23.422471000000002
#
# number of rings (size 3 to 8) (size 9 to 14) (size 15 to 20)
#    0.000    2.000    1.250    0.000    3.500    9.000 
#    9.000    1.250    0.000    0.000    0.000    0.000 
#    0.000    0.000    0.000    0.000    0.000    0.000 
#
# Total GULP energy -89242.449254 kJ/mol
# GULP energy per Si atom -5577.653078 kJ/mol
# Density = 2.336916 g / cm^3
# Si number density = 23.422471 Si / 1000 Ang^3
#
#
#
# Elastic Constant Matrix: (Units=GPa)
#
#
# Indices 1 2 3 4 5 6 
#
# 1 110.7822 72.9068 72.4156 0.0000 0.0000 0.0000
# 2 72.9068 159.7235 92.5050 0.0000 0.0000 0.0000
# 3 72.4156 92.5050 143.5912 0.0000 0.0000 0.0000
# 4 0.0000 0.0000 0.0000 -115.5711 0.0000 0.0000
# 5 0.0000 0.0000 0.0000 0.0000 134.0603 0.0000
# 6 0.0000 0.0000 0.0000 0.0000 0.0000 48.1002
#
#
#
# Elastic Compliance Matrix: (Units=1/GPa)
#
#
# Indices 1 2 3 4 5 6 
#
# 1 0.014842 -0.003892 -0.004978 0.000000 0.000000 0.000000
# 2 -0.003892 0.011007 -0.005129 0.000000 0.000000 0.000000
# 3 -0.004978 -0.005129 0.012779 0.000000 0.000000 0.000000
# 4 0.000000 0.000000 0.000000 -0.008653 0.000000 0.000000
# 5 0.000000 0.000000 0.000000 0.000000 0.007459 0.000000
# 6 0.000000 0.000000 0.000000 0.000000 0.000000 0.020790
#
#
# Mechanical properties :
#
#
# Convention : Reuss Voigt Hill
#
# Bulk Modulus (GPa) = 94.05975 98.86130 96.46052
# Shear Modulus (GPa) = 55.70120 25.06920 40.38520
#
# Velocity S-wave (km/s) = 4.88188 3.27510 4.15686
# Velocity P-wave (km/s) = 8.48658 7.52338 8.01945
#
# Compressibility (1/GPa) = 0.01063154
#
# Stress axis : x y z
#
# Youngs Moduli (GPa) = 67.37741 90.84726 78.25555
#
# Poissons Ratio (x) = 0.35355 0.38955
# Poissons Ratio (y) = 0.26221 0.40135
# Poissons Ratio (z) = 0.33540 0.46592
#
# Static dielectric constant tensor:
#      x y z
#    x 1.959370 0.000000 0.000000 
#    y 0.000000 1.856190 0.000000 
#    z 0.000000 0.000000 1.827060 
# 
# From -- ./inp_files/27100.got.cif
#   From: 2010.05.17/outbox.cif.g08.bks.cpg/sg21_14_cif.got.tgz:27100.got - 2010.06.03 23:14:55.
