data_PCOD9324086
_publ_section_title
;
Structure prediction by ZEFSAII (Michael W. Deem and Ramdas Pophale) SiO2 
 PCOD9324086
Probable space group: C 2 2 2
;
_chemical_formula_sum "Si O2"
_cell_formula_units_Z 54
_cell_length_a 21.965694
_cell_length_b 21.868014
_cell_length_c 6.037637
_cell_angle_alpha 90.000000
_cell_angle_beta 90.000000
_cell_angle_gamma 90.000000
_cell_volume 2900.155410
_symmetry_space_group_name_H-M "C 2 2 2"
_symmetry_group_IT_number 21
_symmetry_cell_setting 'orthorhombic'
loop_
_space_group_symop_operation_xyz
x,y,z
-x,-y,z
x,-y,-z
-x,y,-z
1/2+x,1/2+y,z
1/2-x,1/2-y,z
1/2+x,1/2-y,-z
1/2-x,1/2+y,-z
loop_
_atom_site_type_symbol
_atom_site_label
_atom_site_fract_x
_atom_site_fract_y
_atom_site_fract_z
Si Si1 0.932947 0.304418 0.949142
Si Si2 0.736526 0.468675 0.751734
Si Si3 0.000000 0.000000 0.000000
Si Si4 0.935948 0.804288 0.377585
Si Si5 0.846987 0.269861 0.327979
Si Si6 0.403595 0.555570 0.677520
Si Si7 0.183441 0.649880 0.707497
Si Si8 0.750000 0.250000 0.001575
O O1 0.939097 0.235370 0.848762
O O2 0.886853 0.341872 0.788651
O O3 0.898421 0.300356 0.179947
O O4 0.000000 0.329065 0.000000
O O5 0.740216 0.500000 0.500000
O O6 0.666350 0.445278 0.758351
O O7 0.787134 0.415814 0.736449
O O8 0.745101 0.500000 0.000000
O O9 0.045726 0.040362 0.141857
O O10 0.879069 0.773416 0.498812
O O11 0.921490 0.875896 0.389136
O O12 0.000000 0.793042 0.500000
O O13 0.812330 0.323019 0.460131
O O14 0.804462 0.231921 0.164158
O O15 0.408760 0.500000 0.500000
O O16 0.223552 0.695896 0.855832
#
# Coordination Sequence:
#
# PCOD9324086 Si02
#       8
#     8   8   2   8   8   8   8   4
#     4  10  21  39  63  98 129 167 204 267 351 413
#     4  11  27  49  71  99 134 183 235 289 342 400
#     4  12  22  44  56  82 120 172 244 268 348 356
#     4  11  22  37  59  91 129 170 224 269 337 402
#     4  10  22  37  61  93 129 168 204 278 330 414
#     4  11  26  41  60  86 126 180 235 286 329 390
#     4  10  24  40  64 100 127 174 222 279 342 412
#     4  10  22  36  60  92 130 168 218 264 342 392
#
# _framework density 18.619692000000001
#
# number of rings (size 3 to 8) (size 9 to 14) (size 15 to 20)
#    0.000    1.481    2.222    1.556   13.481    2.370 
#    0.000    0.000    0.000    0.444    0.000    0.000 
#    0.000    0.000    0.000    0.000    0.000    0.000 
#
# Total GULP energy -150363.804056 kJ/mol
# GULP energy per Si atom -5569.029780 kJ/mol
# Density = 1.857731 g / cm^3
# Si number density = 18.619692 Si / 1000 Ang^3
#
#
#
# Elastic Constant Matrix: (Units=GPa)
#
#
# Indices 1 2 3 4 5 6 
#
# 1 124.4012 38.5081 38.1954 0.0000 0.0000 0.0000
# 2 38.5081 68.3368 31.9405 0.0000 0.0000 0.0000
# 3 38.1954 31.9405 96.9234 0.0000 0.0000 0.0000
# 4 0.0000 0.0000 0.0000 6.3366 0.0000 0.0000
# 5 0.0000 0.0000 0.0000 0.0000 33.9502 0.0000
# 6 0.0000 0.0000 0.0000 0.0000 0.0000 25.8023
#
#
#
# Elastic Compliance Matrix: (Units=1/GPa)
#
#
# Indices 1 2 3 4 5 6 
#
# 1 0.010233 -0.004588 -0.002520 0.000000 0.000000 0.000000
# 2 -0.004588 0.019355 -0.004570 0.000000 0.000000 0.000000
# 3 -0.002520 -0.004570 0.012817 0.000000 0.000000 0.000000
# 4 0.000000 0.000000 0.000000 0.157814 0.000000 0.000000
# 5 0.000000 0.000000 0.000000 0.000000 0.029455 0.000000
# 6 0.000000 0.000000 0.000000 0.000000 0.000000 0.038756
#
#
# Mechanical properties :
#
#
# Convention : Reuss Voigt Hill
#
# Bulk Modulus (GPa) = 52.50236 56.32770 54.41503
# Shear Modulus (GPa) = 16.77085 25.28564 21.02824
#
# Velocity S-wave (km/s) = 3.00443 3.68911 3.36423
# Velocity P-wave (km/s) = 6.34775 6.96157 6.66173
#
# Compressibility (1/GPa) = 0.01904676
#
# Stress axis : x y z
#
# Youngs Moduli (GPa) = 97.72685 51.66646 78.02270
#
# Poissons Ratio (x) = 0.23705 0.19665
# Poissons Ratio (y) = 0.44838 0.35658
# Poissons Ratio (z) = 0.24632 0.23613
#
# Static dielectric constant tensor:
#      x y z
#    x 1.667870 0.000000 0.000000 
#    y 0.000000 1.674130 0.000000 
#    z 0.000000 0.000000 1.710940 
# 
# From -- ./inp_files/6814.got.cif
#   From: 2010.05.17/outbox.cif.g08.bks.cpg/sg21_4_cif.got.tgz:6814.got - 2010.06.03 23:14:55.
