data_PCOD9324159
_publ_section_title
;
Structure prediction by ZEFSAII (Michael W. Deem and Ramdas Pophale) SiO2 
 PCOD9324159
Probable space group: C 2 2 2
;
_chemical_formula_sum "Si O2"
_cell_formula_units_Z 48
_cell_length_a 28.586275
_cell_length_b 8.628498
_cell_length_c 9.763063
_cell_angle_alpha 90.000000
_cell_angle_beta 90.000000
_cell_angle_gamma 90.000000
_cell_volume 2408.124088
_symmetry_space_group_name_H-M "C 2 2 2"
_symmetry_group_IT_number 21
_symmetry_cell_setting 'orthorhombic'
loop_
_space_group_symop_operation_xyz
x,y,z
-x,-y,z
x,-y,-z
-x,y,-z
1/2+x,1/2+y,z
1/2-x,1/2-y,z
1/2+x,1/2-y,-z
1/2-x,1/2+y,-z
loop_
_atom_site_type_symbol
_atom_site_label
_atom_site_fract_x
_atom_site_fract_y
_atom_site_fract_z
Si Si1 0.861767 0.089470 0.352614
Si Si2 0.377761 0.041364 0.635009
Si Si3 0.452723 0.066948 0.849228
Si Si4 0.274252 0.582497 0.141993
Si Si5 0.777677 0.408841 0.635597
Si Si6 0.448255 0.563158 0.153398
O O1 0.865138 0.276190 0.372396
O O2 0.817455 0.076057 0.249409
O O3 0.907676 0.033215 0.266448
O O4 0.857465 0.000000 0.500000
O O5 0.407526 0.014569 0.768186
O O6 0.406852 0.000000 0.500000
O O7 0.333532 0.925792 0.630617
O O8 0.453235 0.251722 0.855088
O O9 0.500000 0.000000 0.784060
O O10 0.450413 0.000000 0.000000
O O11 0.250000 0.750000 0.120239
O O12 0.235154 0.486022 0.221543
O O13 0.287119 0.500000 0.000000
O O14 0.761364 0.500000 0.500000
O O15 0.750000 0.250000 0.629427
O O16 0.500000 0.500000 0.189818
O O17 0.436464 0.500000 0.000000
#
# Coordination Sequence:
#
# PCOD9324159 Si02
#       6
#     8   8   8   8   8   8
#     4  11  25  44  67  96 134 174 221 271 333 398
#     4  10  24  42  62  96 130 168 221 267 326 393
#     4  10  21  40  65  94 130 175 214 264 326 392
#     4  12  25  45  65  96 131 169 224 272 331 394
#     4  11  24  43  67  95 129 173 216 271 330 390
#     4  10  21  41  66 100 135 169 220 272 327 394
#
# _framework density 19.932528999999999
#
# number of rings (size 3 to 8) (size 9 to 14) (size 15 to 20)
#    0.000    1.333    1.667    4.000    7.000    4.000 
#    6.000    3.333    0.000    0.000    0.000    0.000 
#    0.000    0.000    0.000    0.000    0.000    0.000 
#
# Total GULP energy -133863.865380 kJ/mol
# GULP energy per Si atom -5577.661058 kJ/mol
# Density = 1.988716 g / cm^3
# Si number density = 19.932529 Si / 1000 Ang^3
#
#
#
# Elastic Constant Matrix: (Units=GPa)
#
#
# Indices 1 2 3 4 5 6 
#
# 1 120.0264 47.1198 71.7561 0.0000 0.0000 0.0000
# 2 47.1198 86.6369 47.3556 0.0000 0.0000 0.0000
# 3 71.7561 47.3556 139.8905 0.0000 0.0000 0.0000
# 4 0.0000 0.0000 0.0000 33.1629 0.0000 0.0000
# 5 0.0000 0.0000 0.0000 0.0000 40.3839 0.0000
# 6 0.0000 0.0000 0.0000 0.0000 0.0000 -16.7389
#
#
#
# Elastic Compliance Matrix: (Units=1/GPa)
#
#
# Indices 1 2 3 4 5 6 
#
# 1 0.013186 -0.004263 -0.005320 0.000000 0.000000 0.000000
# 2 -0.004263 0.015542 -0.003074 0.000000 0.000000 0.000000
# 3 -0.005320 -0.003074 0.010918 0.000000 0.000000 0.000000
# 4 0.000000 0.000000 0.000000 0.030154 0.000000 0.000000
# 5 0.000000 0.000000 0.000000 0.000000 0.024762 0.000000
# 6 0.000000 0.000000 0.000000 0.000000 0.000000 -0.059741
#
#
# Mechanical properties :
#
#
# Convention : Reuss Voigt Hill
#
# Bulk Modulus (GPa) = 69.78547 75.44631 72.61589
# Shear Modulus (GPa) = 77.02507 23.38307 50.20407
#
# Velocity S-wave (km/s) = 6.22309 3.42879 5.02411
# Velocity P-wave (km/s) = 9.31250 7.32178 8.37649
#
# Compressibility (1/GPa) = 0.01432963
#
# Stress axis : x y z
#
# Youngs Moduli (GPa) = 75.83820 64.34368 91.59007
#
# Poissons Ratio (x) = 0.27432 0.48730
# Poissons Ratio (y) = 0.32333 0.28157
# Poissons Ratio (z) = 0.40349 0.19781
#
# Static dielectric constant tensor:
#      x y z
#    x 1.722840 0.000000 0.000000 
#    y 0.000000 1.723890 0.000000 
#    z 0.000000 0.000000 1.769340 
# 
# From -- ./inp_files/19683.got.cif
#   From: 2010.05.17/outbox.cif.g08.bks.cpg/sg21_10_cif.got.tgz:19683.got - 2010.06.03 23:14:55.
