data_PCOD9324822
_publ_section_title
;
Structure prediction by ZEFSAII (Michael W. Deem and Ramdas Pophale) SiO2 
 PCOD9324822
Probable space group: C 2 2 2
;
_chemical_formula_sum "Si O2"
_cell_formula_units_Z 40
_cell_length_a 26.187842
_cell_length_b 10.817812
_cell_length_c 7.241935
_cell_angle_alpha 90.000000
_cell_angle_beta 90.000000
_cell_angle_gamma 90.000000
_cell_volume 2051.605073
_symmetry_space_group_name_H-M "C 2 2 2"
_symmetry_group_IT_number 21
_symmetry_cell_setting 'orthorhombic'
loop_
_space_group_symop_operation_xyz
x,y,z
-x,-y,z
x,-y,-z
-x,y,-z
1/2+x,1/2+y,z
1/2-x,1/2-y,z
1/2+x,1/2-y,-z
1/2-x,1/2+y,-z
loop_
_atom_site_type_symbol
_atom_site_label
_atom_site_fract_x
_atom_site_fract_y
_atom_site_fract_z
Si Si1 0.741936 0.383895 0.374080
Si Si2 0.643970 0.613042 0.865109
Si Si3 0.500000 0.179572 0.500000
Si Si4 0.590842 0.000000 0.500000
Si Si5 0.156942 0.396350 0.846851
Si Si6 0.973886 0.121718 0.200321
O O1 0.752776 0.500000 0.500000
O O2 0.750000 0.250000 0.467346
O O3 0.684531 0.391069 0.300239
O O4 0.783464 0.389171 0.210415
O O5 0.644458 0.758566 0.922694
O O6 0.585521 0.591460 0.814973
O O7 0.658923 0.500000 0.000000
O O8 0.450406 0.102327 0.433895
O O9 0.517785 0.262520 0.330189
O O10 0.625046 0.938287 0.662939
O O11 0.148231 0.500000 0.000000
O O12 0.000000 0.000000 0.280574
O O13 0.000000 0.142192 0.000000
#
# Coordination Sequence:
#
# PCOD9324822 Si02
#       6
#     8   8   4   4   8   8
#     4  10  23  42  67 100 135 168 221 270 331 400
#     4  11  23  44  64  97 134 170 225 272 323 399
#     4  11  25  40  64  98 129 171 224 274 326 387
#     4  11  24  42  66  98 132 168 227 272 324 404
#     4  11  24  44  70  97 134 177 214 278 337 391
#     4  11  23  42  63  92 131 174 220 271 324 393
#
# _framework density 19.496928
#
# number of rings (size 3 to 8) (size 9 to 14) (size 15 to 20)
#    0.000    1.200    5.000    0.900    2.800    3.200 
#    0.000    2.000    0.000    0.000    0.000    0.000 
#    0.000    0.000    0.000    0.000    0.000    0.000 
#
# Total GULP energy -111520.920535 kJ/mol
# GULP energy per Si atom -5576.046027 kJ/mol
# Density = 1.945255 g / cm^3
# Si number density = 19.496928 Si / 1000 Ang^3
#
#
#
# Elastic Constant Matrix: (Units=GPa)
#
#
# Indices 1 2 3 4 5 6 
#
# 1 117.9066 20.5061 8.7323 0.0000 0.0000 0.0000
# 2 20.5061 161.4918 38.9490 0.0000 0.0000 0.0000
# 3 8.7323 38.9490 43.1243 0.0000 0.0000 0.0000
# 4 0.0000 0.0000 0.0000 36.0514 0.0000 0.0000
# 5 0.0000 0.0000 0.0000 0.0000 7.6942 0.0000
# 6 0.0000 0.0000 0.0000 0.0000 0.0000 30.1871
#
#
#
# Elastic Compliance Matrix: (Units=1/GPa)
#
#
# Indices 1 2 3 4 5 6 
#
# 1 0.008705 -0.000870 -0.000977 0.000000 0.000000 0.000000
# 2 -0.000870 0.008004 -0.007053 0.000000 0.000000 0.000000
# 3 -0.000977 -0.007053 0.029757 0.000000 0.000000 0.000000
# 4 0.000000 0.000000 0.000000 0.027738 0.000000 0.000000
# 5 0.000000 0.000000 0.000000 0.000000 0.129969 0.000000
# 6 0.000000 0.000000 0.000000 0.000000 0.000000 0.033127
#
#
# Mechanical properties :
#
#
# Convention : Reuss Voigt Hill
#
# Bulk Modulus (GPa) = 34.88451 50.98863 42.93657
# Shear Modulus (GPa) = 18.89265 31.74223 25.31744
#
# Velocity S-wave (km/s) = 3.11626 4.03930 3.60743
# Velocity P-wave (km/s) = 5.55691 6.92557 6.27865
#
# Compressibility (1/GPa) = 0.02866602
#
# Stress axis : x y z
#
# Youngs Moduli (GPa) = 114.87769 124.94261 33.60608
#
# Poissons Ratio (x) = 0.10866 0.03284
# Poissons Ratio (y) = 0.09990 0.23701
# Poissons Ratio (z) = 0.11226 0.88118
#
# Static dielectric constant tensor:
#      x y z
#    x 1.665660 0.000000 0.000000 
#    y 0.000000 1.721120 0.000000 
#    z 0.000000 0.000000 1.670290 
# 
# From -- ./inp_files/18972.got.cif
#   From: 2010.05.17/outbox.cif.g08.bks.cpg/sg21_10_cif.got.tgz:18972.got - 2010.06.03 23:14:55.
