data_PCOD9324271
_publ_section_title
;
Structure prediction by ZEFSAII (Michael W. Deem and Ramdas Pophale) SiO2 
 PCOD9324271
Probable space group: C 2 2 2
;
_chemical_formula_sum "Si O2"
_cell_formula_units_Z 58
_cell_length_a 9.150231
_cell_length_b 25.706038
_cell_length_c 11.798309
_cell_angle_alpha 90.000000
_cell_angle_beta 90.000000
_cell_angle_gamma 90.000000
_cell_volume 2775.153242
_symmetry_space_group_name_H-M "C 2 2 2"
_symmetry_group_IT_number 21
_symmetry_cell_setting 'orthorhombic'
loop_
_space_group_symop_operation_xyz
x,y,z
-x,-y,z
x,-y,-z
-x,y,-z
1/2+x,1/2+y,z
1/2-x,1/2-y,z
1/2+x,1/2-y,-z
1/2-x,1/2+y,-z
loop_
_atom_site_type_symbol
_atom_site_label
_atom_site_fract_x
_atom_site_fract_y
_atom_site_fract_z
Si Si1 0.423502 0.623177 0.885056
Si Si2 0.141663 0.700694 0.251637
Si Si3 0.500000 0.500000 0.500000
Si Si4 0.681713 0.439696 0.690339
Si Si5 0.665395 0.874432 0.958524
Si Si6 0.858642 0.471648 0.187706
Si Si7 0.504884 0.104022 0.632266
Si Si8 0.421320 0.741404 0.883710
O O1 0.431261 0.590064 0.772191
O O2 0.468992 0.682157 0.863392
O O3 0.500000 0.603435 0.000000
O O4 0.257912 0.629607 0.927990
O O5 0.250000 0.750000 0.277690
O O6 0.194443 0.669112 0.138304
O O7 0.089526 0.656375 0.340495
O O8 0.987700 0.725452 0.216229
O O9 0.602353 0.463960 0.580676
O O10 0.744985 0.486806 0.766185
O O11 0.822263 0.402212 0.665112
O O12 0.699624 0.929235 0.899039
O O13 0.500000 0.873731 0.000000
O O14 0.000000 0.500000 0.136139
O O15 0.923603 0.439973 0.294518
O O16 0.500000 0.093179 0.500000
O O17 0.250000 0.750000 0.895046
O O18 0.500000 0.757005 0.000000
#
# Coordination Sequence:
#
# PCOD9324271 Si02
#       8
#     8   8   2   8   8   8   8   8
#     4  11  24  38  58  93 135 169 212 265 342 408
#     4  11  22  39  64  94 130 172 222 278 340 418
#     4  12  28  44  68  88 132 184 252 280 344 420
#     4  11  24  45  64  95 131 179 228 285 345 414
#     4  11  21  36  61  96 130 170 213 264 329 413
#     4   9  20  37  64  92 125 163 214 273 337 405
#     4  10  21  42  70  95 125 166 232 292 345 396
#     4  11  20  35  59  89 128 175 219 271 338 414
#
# _framework density 20.899746
#
# number of rings (size 3 to 8) (size 9 to 14) (size 15 to 20)
#    0.000    1.379    0.000    8.276    1.931    3.862 
#    2.483    2.069    0.000    0.000    0.000    0.000 
#    0.000    0.000    0.000    0.000    0.000    0.000 
#
# Total GULP energy -161908.376011 kJ/mol
# GULP energy per Si atom -5583.047449 kJ/mol
# Density = 2.085218 g / cm^3
# Si number density = 20.899746 Si / 1000 Ang^3
#
#
#
# Elastic Constant Matrix: (Units=GPa)
#
#
# Indices 1 2 3 4 5 6 
#
# 1 86.1472 10.0358 -2.5681 0.0000 0.0000 0.0000
# 2 10.0358 84.3875 23.0638 0.0000 0.0000 0.0000
# 3 -2.5681 23.0638 68.9017 0.0000 0.0000 0.0000
# 4 0.0000 0.0000 0.0000 16.8355 0.0000 0.0000
# 5 0.0000 0.0000 0.0000 0.0000 18.9558 0.0000
# 6 0.0000 0.0000 0.0000 0.0000 0.0000 23.9764
#
#
#
# Elastic Compliance Matrix: (Units=1/GPa)
#
#
# Indices 1 2 3 4 5 6 
#
# 1 0.011834 -0.001682 0.001004 0.000000 0.000000 0.000000
# 2 -0.001682 0.013282 -0.004509 0.000000 0.000000 0.000000
# 3 0.001004 -0.004509 0.016060 0.000000 0.000000 0.000000
# 4 0.000000 0.000000 0.000000 0.059398 0.000000 0.000000
# 5 0.000000 0.000000 0.000000 0.000000 0.052754 0.000000
# 6 0.000000 0.000000 0.000000 0.000000 0.000000 0.041708
#
#
# Mechanical properties :
#
#
# Convention : Reuss Voigt Hill
#
# Bulk Modulus (GPa) = 32.46400 33.38884 32.92642
# Shear Modulus (GPa) = 23.18276 25.88053 24.53164
#
# Velocity S-wave (km/s) = 3.33413 3.52279 3.42976
# Velocity P-wave (km/s) = 5.51261 5.70589 5.61008
#
# Compressibility (1/GPa) = 0.03080335
#
# Stress axis : x y z
#
# Youngs Moduli (GPa) = 84.50309 75.28771 62.26618
#
# Poissons Ratio (x) = 0.12662 -0.06252
# Poissons Ratio (y) = 0.14211 0.28074
# Poissons Ratio (z) = -0.08484 0.33945
#
# Static dielectric constant tensor:
#      x y z
#    x 1.841410 0.000000 0.000000 
#    y 0.000000 1.809740 0.000000 
#    z 0.000000 0.000000 1.708440 
# 
# From -- ./inp_files/23030.got.cif
#   From: 2010.05.17/outbox.cif.g08.bks.cpg/sg21_12_cif.got.tgz:23030.got - 2010.06.03 23:14:55.
