data_PCOD9324924
_publ_section_title
;
Structure prediction by ZEFSAII (Michael W. Deem and Ramdas Pophale) SiO2 
 PCOD9324924
Probable space group: C 2 2 2
;
_chemical_formula_sum "Si O2"
_cell_formula_units_Z 38
_cell_length_a 7.510963
_cell_length_b 16.885227
_cell_length_c 11.659391
_cell_angle_alpha 90.000000
_cell_angle_beta 90.000000
_cell_angle_gamma 90.000000
_cell_volume 1478.694280
_symmetry_space_group_name_H-M "C 2 2 2"
_symmetry_group_IT_number 21
_symmetry_cell_setting 'orthorhombic'
loop_
_space_group_symop_operation_xyz
x,y,z
-x,-y,z
x,-y,-z
-x,y,-z
1/2+x,1/2+y,z
1/2-x,1/2-y,z
1/2+x,1/2-y,-z
1/2-x,1/2+y,-z
loop_
_atom_site_type_symbol
_atom_site_label
_atom_site_fract_x
_atom_site_fract_y
_atom_site_fract_z
Si Si1 0.500000 0.500000 0.500000
Si Si2 0.801895 0.417627 0.049841
Si Si3 0.005046 0.414809 0.716880
Si Si4 0.958319 0.249083 0.742534
Si Si5 0.500000 0.710705 0.000000
Si Si6 0.397948 0.576315 0.719043
O O1 0.384200 0.553109 0.585007
O O2 0.670233 0.346828 0.016405
O O3 0.849292 0.424924 0.183974
O O4 0.729165 0.500000 0.000000
O O5 0.000000 0.409200 0.000000
O O6 0.039031 0.324487 0.675840
O O7 0.800796 0.409334 0.764070
O O8 0.000000 0.500000 0.652656
O O9 0.750000 0.250000 0.713741
O O10 0.008822 0.157535 0.723628
O O11 0.984854 0.257704 0.880214
O O12 0.500000 0.500000 0.769719
#
# Coordination Sequence:
#
# PCOD9324924 Si02
#       6
#     2   8   8   8   4   8
#     4   8  20  44  90  94 126 168 226 296 372 460
#     4  11  23  39  58  92 136 187 245 288 324 388
#     4  11  23  41  63  94 145 178 222 297 342 395
#     4  10  24  40  65  98 138 186 235 287 326 413
#     4  12  27  38  63  94 144 200 250 266 342 402
#     4   9  21  44  74 100 125 172 227 288 362 434
#
# _framework density 25.698349
#
# number of rings (size 3 to 8) (size 9 to 14) (size 15 to 20)
#    0.632    1.053    2.105    2.842    7.368    0.000 
#    0.000    0.526   13.895    0.000    0.000    0.000 
#    0.000    0.000    0.000    0.000    0.000    0.000 
#
# Total GULP energy -106027.483602 kJ/mol
# GULP energy per Si atom -5580.393874 kJ/mol
# Density = 2.563986 g / cm^3
# Si number density = 25.698349 Si / 1000 Ang^3
#
#
#
# Elastic Constant Matrix: (Units=GPa)
#
#
# Indices 1 2 3 4 5 6 
#
# 1 120.1636 20.0184 10.0440 0.0000 0.0000 0.0000
# 2 20.0184 248.4988 8.9026 0.0000 0.0000 0.0000
# 3 10.0440 8.9026 62.4997 0.0000 0.0000 0.0000
# 4 0.0000 0.0000 0.0000 13.7051 0.0000 0.0000
# 5 0.0000 0.0000 0.0000 0.0000 16.4521 0.0000
# 6 0.0000 0.0000 0.0000 0.0000 0.0000 38.4420
#
#
#
# Elastic Compliance Matrix: (Units=1/GPa)
#
#
# Indices 1 2 3 4 5 6 
#
# 1 0.008536 -0.000642 -0.001280 0.000000 0.000000 0.000000
# 2 -0.000642 0.004093 -0.000480 0.000000 0.000000 0.000000
# 3 -0.001280 -0.000480 0.016274 0.000000 0.000000 0.000000
# 4 0.000000 0.000000 0.000000 0.072966 0.000000 0.000000
# 5 0.000000 0.000000 0.000000 0.000000 0.060782 0.000000
# 6 0.000000 0.000000 0.000000 0.000000 0.000000 0.026013
#
#
# Mechanical properties :
#
#
# Convention : Reuss Voigt Hill
#
# Bulk Modulus (GPa) = 41.49521 56.56578 49.03049
# Shear Modulus (GPa) = 24.81371 39.86633 32.34002
#
# Velocity S-wave (km/s) = 3.11074 3.94295 3.55131
# Velocity P-wave (km/s) = 5.39299 6.54128 5.99470
#
# Compressibility (1/GPa) = 0.02409916
#
# Stress axis : x y z
#
# Youngs Moduli (GPa) = 117.15198 244.31632 61.44704
#
# Poissons Ratio (x) = 0.15679 0.07867
# Poissons Ratio (y) = 0.07518 0.02949
# Poissons Ratio (z) = 0.15000 0.11724
#
# Static dielectric constant tensor:
#      x y z
#    x 2.030010 0.000000 0.000000 
#    y 0.000000 2.192860 0.000000 
#    z 0.000000 0.000000 2.012670 
# 
# From -- ./inp_files/30357.got.cif
#   From: 2010.05.17/outbox.cif.g08.bks.cpg/sg21_16_cif.got.tgz:30357.got - 2010.06.03 23:14:55.
