data_PCOD9324402
_publ_section_title
;
Structure prediction by ZEFSAII (Michael W. Deem and Ramdas Pophale) SiO2 
 PCOD9324402
Probable space group: C 2 2 2
;
_chemical_formula_sum "Si O2"
_cell_formula_units_Z 64
_cell_length_a 15.649878
_cell_length_b 8.952254
_cell_length_c 21.046180
_cell_angle_alpha 90.000000
_cell_angle_beta 90.000000
_cell_angle_gamma 90.000000
_cell_volume 2948.605237
_symmetry_space_group_name_H-M "C 2 2 2"
_symmetry_group_IT_number 21
_symmetry_cell_setting 'orthorhombic'
loop_
_space_group_symop_operation_xyz
x,y,z
-x,-y,z
x,-y,-z
-x,y,-z
1/2+x,1/2+y,z
1/2-x,1/2-y,z
1/2+x,1/2-y,-z
1/2-x,1/2+y,-z
loop_
_atom_site_type_symbol
_atom_site_label
_atom_site_fract_x
_atom_site_fract_y
_atom_site_fract_z
Si Si1 0.176314 0.148882 0.241237
Si Si2 0.739587 0.427658 0.338245
Si Si3 0.412757 0.941741 0.071586
Si Si4 0.016797 0.828735 0.245923
Si Si5 0.920883 0.108383 0.102158
Si Si6 0.587280 0.426414 0.430428
Si Si7 0.074335 0.379382 0.638040
Si Si8 0.262390 0.412246 0.099666
O O1 0.250000 0.250000 0.271842
O O2 0.082776 0.220916 0.240145
O O3 0.200746 0.125091 0.168767
O O4 0.192707 0.993711 0.276885
O O5 0.750000 0.250000 0.332604
O O6 0.673466 0.467453 0.393598
O O7 0.837045 0.469722 0.353343
O O8 0.421274 0.765808 0.068468
O O9 0.500000 0.000000 0.103137
O O10 0.327584 0.003379 0.104123
O O11 0.408054 0.000000 0.000000
O O12 0.065741 0.846752 0.177897
O O13 0.058628 0.720644 0.297955
O O14 0.000000 0.000000 0.266699
O O15 0.835782 0.025012 0.078177
O O16 0.000000 0.000000 0.088741
O O17 0.500000 0.500000 0.404323
O O18 0.594240 0.500000 0.500000
O O19 0.578908 0.246863 0.418079
O O20 0.000000 0.500000 0.629052
O O21 0.250000 0.250000 0.066658
#
# Coordination Sequence:
#
# PCOD9324402 Si02
#       8
#     8   8   8   8   8   8   8   8
#     4  11  22  37  60  98 140 179 221 278 344 416
#     4  10  22  38  63  96 134 175 228 277 343 416
#     4  11  27  48  71 101 139 186 245 302 362 425
#     4  11  21  39  65 100 144 186 222 273 355 440
#     4  11  23  44  72 106 141 189 236 292 365 438
#     4  10  22  44  69  88 126 190 235 280 346 417
#     4  11  23  40  65 103 141 176 229 293 355 412
#     4  11  24  42  68 102 141 180 240 292 354 427
#
# _framework density 21.705176999999999
#
# number of rings (size 3 to 8) (size 9 to 14) (size 15 to 20)
#    0.000    1.250    2.500    4.500    3.500    1.500 
#    0.000   14.375    0.000    0.000    0.000    0.000 
#    0.000    0.000    0.000    0.000    0.000    0.000 
#
# Total GULP energy -178499.790731 kJ/mol
# GULP energy per Si atom -5578.118460 kJ/mol
# Density = 2.165577 g / cm^3
# Si number density = 21.705177 Si / 1000 Ang^3
#
#
#
# Elastic Constant Matrix: (Units=GPa)
#
#
# Indices 1 2 3 4 5 6 
#
# 1 177.2612 37.7851 4.0015 0.0000 0.0000 0.0000
# 2 37.7851 111.8772 18.4231 0.0000 0.0000 0.0000
# 3 4.0015 18.4231 57.0697 0.0000 0.0000 0.0000
# 4 0.0000 0.0000 0.0000 35.9450 0.0000 0.0000
# 5 0.0000 0.0000 0.0000 0.0000 23.0975 0.0000
# 6 0.0000 0.0000 0.0000 0.0000 0.0000 44.4752
#
#
#
# Elastic Compliance Matrix: (Units=1/GPa)
#
#
# Indices 1 2 3 4 5 6 
#
# 1 0.006082 -0.002095 0.000250 0.000000 0.000000 0.000000
# 2 -0.002095 0.010162 -0.003134 0.000000 0.000000 0.000000
# 3 0.000250 -0.003134 0.018516 0.000000 0.000000 0.000000
# 4 0.000000 0.000000 0.000000 0.027820 0.000000 0.000000
# 5 0.000000 0.000000 0.000000 0.000000 0.043295 0.000000
# 6 0.000000 0.000000 0.000000 0.000000 0.000000 0.022484
#
#
# Mechanical properties :
#
#
# Convention : Reuss Voigt Hill
#
# Bulk Modulus (GPa) = 40.31785 51.84750 46.08267
# Shear Modulus (GPa) = 34.10965 39.77011 36.93988
#
# Velocity S-wave (km/s) = 3.96851 4.28517 4.12988
# Velocity P-wave (km/s) = 6.29399 6.95863 6.63464
#
# Compressibility (1/GPa) = 0.02480291
#
# Stress axis : x y z
#
# Youngs Moduli (GPa) = 164.40849 98.40496 54.00594
#
# Poissons Ratio (x) = 0.20620 -0.01350
# Poissons Ratio (y) = 0.34451 0.16923
# Poissons Ratio (z) = -0.04110 0.30836
#
# Static dielectric constant tensor:
#      x y z
#    x 1.899940 0.000000 0.000000 
#    y 0.000000 1.882780 0.000000 
#    z 0.000000 0.000000 1.795050 
# 
# From -- ./inp_files/38755.got.cif
#   From: 2010.05.17/outbox.cif.g08.bks.cpg/sg21_20_cif.got.tgz:38755.got - 2010.06.03 23:14:55.
