data_PCOD9324048
_publ_section_title
;
Structure prediction by ZEFSAII (Michael W. Deem and Ramdas Pophale) SiO2 
 PCOD9324048
Probable space group: C 2 2 2
;
_chemical_formula_sum "Si O2"
_cell_formula_units_Z 40
_cell_length_a 15.311324
_cell_length_b 8.804309
_cell_length_c 13.876452
_cell_angle_alpha 90.000000
_cell_angle_beta 90.000000
_cell_angle_gamma 90.000000
_cell_volume 1870.623822
_symmetry_space_group_name_H-M "C 2 2 2"
_symmetry_group_IT_number 21
_symmetry_cell_setting 'orthorhombic'
loop_
_space_group_symop_operation_xyz
x,y,z
-x,-y,z
x,-y,-z
-x,y,-z
1/2+x,1/2+y,z
1/2-x,1/2-y,z
1/2+x,1/2-y,-z
1/2-x,1/2+y,-z
loop_
_atom_site_type_symbol
_atom_site_label
_atom_site_fract_x
_atom_site_fract_y
_atom_site_fract_z
Si Si1 0.506029 0.677715 0.636466
Si Si2 0.572873 0.394641 0.154196
Si Si3 0.847719 0.183637 0.512419
Si Si4 0.411333 0.935221 0.107619
Si Si5 0.762931 0.930786 0.108784
O O1 0.500000 0.500000 0.609929
O O2 0.532019 0.674015 0.747799
O O3 0.409395 0.730154 0.604158
O O4 0.588153 0.738750 0.574944
O O5 0.500000 0.500000 0.108149
O O6 0.594588 0.244649 0.096005
O O7 0.655228 0.504165 0.167642
O O8 0.750000 0.250000 0.513972
O O9 0.838209 0.000000 0.500000
O O10 0.500000 0.000000 0.153142
O O11 0.324075 0.997861 0.154816
O O12 0.410080 0.000000 0.000000
O O13 0.750000 0.750000 0.104422
O O14 0.774071 0.000000 0.000000
#
# Coordination Sequence:
#
# PCOD9324048 Si02
#       5
#     8   8   8   8   8
#     4   8  18  37  57  83 121 158 193 235 290 359
#     4  11  22  38  59  85 118 161 203 249 303 353
#     4   9  17  35  62  88 118 155 191 232 290 356
#     4  10  21  39  57  80 115 154 199 250 301 359
#     4  11  22  38  59  85 115 154 203 257 309 364
#
# _framework density 21.383241000000002
#
# number of rings (size 3 to 8) (size 9 to 14) (size 15 to 20)
#    0.000    2.200    0.000    5.400    0.000    3.600 
#    0.000   19.000    0.000    0.000    0.000    0.000 
#    0.000    0.000    0.000    0.000    0.000    0.000 
#
# Total GULP energy -111435.870105 kJ/mol
# GULP energy per Si atom -5571.793505 kJ/mol
# Density = 2.133457 g / cm^3
# Si number density = 21.383241 Si / 1000 Ang^3
#
#
#
# Elastic Constant Matrix: (Units=GPa)
#
#
# Indices 1 2 3 4 5 6 
#
# 1 215.2379 61.4632 19.3528 0.0000 0.0000 0.0000
# 2 61.4632 146.9776 13.4252 0.0000 0.0000 0.0000
# 3 19.3528 13.4252 72.1357 0.0000 0.0000 0.0000
# 4 0.0000 0.0000 0.0000 9.7048 0.0000 0.0000
# 5 0.0000 0.0000 0.0000 0.0000 25.0556 0.0000
# 6 0.0000 0.0000 0.0000 0.0000 0.0000 81.8702
#
#
#
# Elastic Compliance Matrix: (Units=1/GPa)
#
#
# Indices 1 2 3 4 5 6 
#
# 1 0.005351 -0.002143 -0.001037 0.000000 0.000000 0.000000
# 2 -0.002143 0.007780 -0.000873 0.000000 0.000000 0.000000
# 3 -0.001037 -0.000873 0.014303 0.000000 0.000000 0.000000
# 4 0.000000 0.000000 0.000000 0.103042 0.000000 0.000000
# 5 0.000000 0.000000 0.000000 0.000000 0.039911 0.000000
# 6 0.000000 0.000000 0.000000 0.000000 0.000000 0.012214
#
#
# Mechanical properties :
#
#
# Convention : Reuss Voigt Hill
#
# Bulk Modulus (GPa) = 51.73656 69.20372 60.47014
# Shear Modulus (GPa) = 25.36132 46.00011 35.68071
#
# Velocity S-wave (km/s) = 3.44763 4.64316 4.08932
# Velocity P-wave (km/s) = 6.33211 7.82170 7.11599
#
# Compressibility (1/GPa) = 0.01932869
#
# Stress axis : x y z
#
# Youngs Moduli (GPa) = 186.87328 128.53986 69.91356
#
# Poissons Ratio (x) = 0.27547 0.07249
# Poissons Ratio (y) = 0.40048 0.06103
# Poissons Ratio (z) = 0.19375 0.11221
#
# Static dielectric constant tensor:
#      x y z
#    x 1.992070 0.000000 0.000000 
#    y 0.000000 1.771100 0.000000 
#    z 0.000000 0.000000 1.861550 
# 
# From -- ./inp_files/32073.got.cif
#   From: 2010.05.17/outbox.cif.g08.bks.cpg/sg21_17_cif.got.tgz:32073.got - 2010.06.03 23:14:55.
