data_PCOD9324960
_publ_section_title
;
Structure prediction by ZEFSAII (Michael W. Deem and Ramdas Pophale) SiO2 
 PCOD9324960
Probable space group: C 2 2 2
;
_chemical_formula_sum "Si O2"
_cell_formula_units_Z 38
_cell_length_a 8.588813
_cell_length_b 23.750839
_cell_length_c 8.768567
_cell_angle_alpha 90.000000
_cell_angle_beta 90.000000
_cell_angle_gamma 90.000000
_cell_volume 1788.713265
_symmetry_space_group_name_H-M "C 2 2 2"
_symmetry_group_IT_number 21
_symmetry_cell_setting 'orthorhombic'
loop_
_space_group_symop_operation_xyz
x,y,z
-x,-y,z
x,-y,-z
-x,y,-z
1/2+x,1/2+y,z
1/2-x,1/2-y,z
1/2+x,1/2-y,-z
1/2-x,1/2+y,-z
loop_
_atom_site_type_symbol
_atom_site_label
_atom_site_fract_x
_atom_site_fract_y
_atom_site_fract_z
Si Si1 0.500000 0.382673 0.500000
Si Si2 0.808352 0.085327 0.778046
Si Si3 0.210654 0.811529 0.271709
Si Si4 0.724802 0.000000 0.000000
Si Si5 0.500000 0.332533 0.000000
Si Si6 0.435523 0.083461 0.761649
Si Si7 0.000000 0.500000 0.500000
O O1 0.610599 0.416162 0.614909
O O2 0.603849 0.343496 0.392633
O O3 0.825993 0.028326 0.870565
O O4 0.621659 0.093235 0.765882
O O5 0.891836 0.130871 0.886427
O O6 0.250000 0.750000 0.332695
O O7 0.115711 0.801269 0.114819
O O8 0.348814 0.856684 0.244127
O O9 0.628720 0.952615 0.905286
O O10 0.409761 0.042324 0.615091
#
# Coordination Sequence:
#
# PCOD9324960 Si02
#       7
#     4   8   8   4   4   8   2
#     4  10  26  47  65 102 145 177 240 292 364 430
#     4  11  22  45  68 103 141 185 232 296 359 432
#     4  11  26  47  70 100 141 189 239 293 361 426
#     4  12  23  43  76 103 142 187 246 297 356 435
#     4  10  24  43  66 104 140 171 238 294 356 424
#     4  12  24  43  72 103 138 190 241 295 349 446
#     4  12  24  36  68 110 142 170 248 292 356 422
#
# _framework density 21.244323000000001
#
# number of rings (size 3 to 8) (size 9 to 14) (size 15 to 20)
#    0.000    0.842    4.211    2.526    0.000    4.632 
#    0.000    5.263    0.000    0.000    0.000    0.000 
#    0.000    0.000    0.000    0.000    0.000    0.000 
#
# Total GULP energy -106095.606600 kJ/mol
# GULP energy per Si atom -5583.979295 kJ/mol
# Density = 2.119597 g / cm^3
# Si number density = 21.244323 Si / 1000 Ang^3
#
#
#
# Elastic Constant Matrix: (Units=GPa)
#
#
# Indices 1 2 3 4 5 6 
#
# 1 122.5463 51.9542 53.3255 0.0000 0.0000 0.0000
# 2 51.9542 104.6155 36.4668 0.0000 0.0000 0.0000
# 3 53.3255 36.4668 153.5086 0.0000 0.0000 0.0000
# 4 0.0000 0.0000 0.0000 18.6522 0.0000 0.0000
# 5 0.0000 0.0000 0.0000 0.0000 29.7384 0.0000
# 6 0.0000 0.0000 0.0000 0.0000 0.0000 24.0644
#
#
#
# Elastic Compliance Matrix: (Units=1/GPa)
#
#
# Indices 1 2 3 4 5 6 
#
# 1 0.011372 -0.004656 -0.002844 0.000000 0.000000 0.000000
# 2 -0.004656 0.012328 -0.001311 0.000000 0.000000 0.000000
# 3 -0.002844 -0.001311 0.007814 0.000000 0.000000 0.000000
# 4 0.000000 0.000000 0.000000 0.053613 0.000000 0.000000
# 5 0.000000 0.000000 0.000000 0.000000 0.033627 0.000000
# 6 0.000000 0.000000 0.000000 0.000000 0.000000 0.041555
#
#
# Mechanical properties :
#
#
# Convention : Reuss Voigt Hill
#
# Bulk Modulus (GPa) = 71.99019 73.79592 72.89306
# Shear Modulus (GPa) = 27.38802 30.41926 28.90364
#
# Velocity S-wave (km/s) = 3.59443 3.78812 3.69254
# Velocity P-wave (km/s) = 7.15450 7.34475 7.25025
#
# Compressibility (1/GPa) = 0.01389078
#
# Stress axis : x y z
#
# Youngs Moduli (GPa) = 87.93694 81.11514 127.97853
#
# Poissons Ratio (x) = 0.37767 0.36400
# Poissons Ratio (y) = 0.40944 0.16781
# Poissons Ratio (z) = 0.25011 0.10636
#
# Static dielectric constant tensor:
#      x y z
#    x 1.824430 0.000000 0.000000 
#    y 0.000000 1.744090 0.000000 
#    z 0.000000 0.000000 1.629950 
# 
# From -- ./inp_files/11023.got.cif
#   From: 2010.05.17/outbox.cif.g08.bks.cpg/sg21_6_cif.got.tgz:11023.got - 2010.06.03 23:14:55.
