data_PCOD9324952
_publ_section_title
;
Structure prediction by ZEFSAII (Michael W. Deem and Ramdas Pophale) SiO2 
 PCOD9324952
Probable space group: C 2 2 2
;
_chemical_formula_sum "Si O2"
_cell_formula_units_Z 48
_cell_length_a 17.150979
_cell_length_b 7.761013
_cell_length_c 15.411812
_cell_angle_alpha 90.000000
_cell_angle_beta 90.000000
_cell_angle_gamma 90.000000
_cell_volume 2051.450436
_symmetry_space_group_name_H-M "C 2 2 2"
_symmetry_group_IT_number 21
_symmetry_cell_setting 'orthorhombic'
loop_
_space_group_symop_operation_xyz
x,y,z
-x,-y,z
x,-y,-z
-x,y,-z
1/2+x,1/2+y,z
1/2-x,1/2-y,z
1/2+x,1/2-y,-z
1/2-x,1/2+y,-z
loop_
_atom_site_type_symbol
_atom_site_label
_atom_site_fract_x
_atom_site_fract_y
_atom_site_fract_z
Si Si1 0.774831 0.435616 0.083057
Si Si2 0.070405 0.732413 0.361530
Si Si3 0.000000 0.000000 0.733688
Si Si4 0.500000 0.500000 0.000000
Si Si5 0.881631 0.878350 0.139786
Si Si6 0.000000 0.500000 0.500000
Si Si7 0.337872 0.959159 0.744874
Si Si8 0.282797 0.557303 0.399371
O O1 0.750000 0.250000 0.054800
O O2 0.699381 0.553649 0.101693
O O3 0.812695 0.420040 0.175881
O O4 0.823029 0.500000 0.000000
O O5 0.054627 0.631651 0.448989
O O6 0.097381 0.574384 0.301664
O O7 0.128177 0.895954 0.375336
O O8 0.995780 0.826560 0.321889
O O9 0.924588 0.988280 0.795521
O O10 0.443866 0.620134 0.939742
O O11 0.862532 0.712003 0.200752
O O12 0.267772 0.949179 0.671975
O O13 0.275741 0.500000 0.500000
O O14 0.250000 0.750000 0.393537
#
# Coordination Sequence:
#
# PCOD9324952 Si02
#       8
#     8   8   4   2   8   2   8   8
#     4  12  24  42  72 106 139 180 235 304 379 445
#     4  11  26  46  68 104 144 193 255 299 374 452
#     4  11  24  42  72  97 136 206 230 305 354 451
#     4  10  24  44  72 108 152 196 248 300 360 472
#     4  11  23  44  73 101 149 188 244 302 377 448
#     4  12  28  46  68  96 154 198 244 314 364 466
#     4  11  24  46  71 109 140 191 239 317 373 438
#     4  10  24  42  71 106 143 183 242 316 372 437
#
# _framework density 23.398078999999999
#
# number of rings (size 3 to 8) (size 9 to 14) (size 15 to 20)
#    0.000    1.000    0.833    6.000    7.000    2.667 
#    0.000    0.000    3.667    0.000    0.000    0.000 
#    0.000    0.000    0.000    0.000    0.000    0.000 
#
# Total GULP energy -133760.650528 kJ/mol
# GULP energy per Si atom -5573.360439 kJ/mol
# Density = 2.334482 g / cm^3
# Si number density = 23.398079 Si / 1000 Ang^3
#
#
#
# Elastic Constant Matrix: (Units=GPa)
#
#
# Indices 1 2 3 4 5 6 
#
# 1 60.9843 25.2930 32.3116 0.0000 0.0000 0.0000
# 2 25.2930 117.4804 49.1598 0.0000 0.0000 0.0000
# 3 32.3116 49.1598 167.7108 0.0000 0.0000 0.0000
# 4 0.0000 0.0000 0.0000 34.6849 0.0000 0.0000
# 5 0.0000 0.0000 0.0000 0.0000 36.4967 0.0000
# 6 0.0000 0.0000 0.0000 0.0000 0.0000 15.6531
#
#
#
# Elastic Compliance Matrix: (Units=1/GPa)
#
#
# Indices 1 2 3 4 5 6 
#
# 1 0.019109 -0.002933 -0.002822 0.000000 0.000000 0.000000
# 2 -0.002933 0.010152 -0.002411 0.000000 0.000000 0.000000
# 3 -0.002822 -0.002411 0.007213 0.000000 0.000000 0.000000
# 4 0.000000 0.000000 0.000000 0.028831 0.000000 0.000000
# 5 0.000000 0.000000 0.000000 0.000000 0.027400 0.000000
# 6 0.000000 0.000000 0.000000 0.000000 0.000000 0.063885
#
#
# Mechanical properties :
#
#
# Convention : Reuss Voigt Hill
#
# Bulk Modulus (GPa) = 49.64547 62.18938 55.91742
# Shear Modulus (GPa) = 27.83395 33.32767 30.58081
#
# Velocity S-wave (km/s) = 3.45277 3.77819 3.61914
# Velocity P-wave (km/s) = 6.09585 6.75792 6.43540
#
# Compressibility (1/GPa) = 0.02014282
#
# Stress axis : x y z
#
# Youngs Moduli (GPa) = 52.33039 98.49912 138.63951
#
# Poissons Ratio (x) = 0.28893 0.39122
# Poissons Ratio (y) = 0.15350 0.33422
# Poissons Ratio (z) = 0.14767 0.23746
#
# Static dielectric constant tensor:
#      x y z
#    x 2.107790 0.000000 0.000000 
#    y 0.000000 1.874960 0.000000 
#    z 0.000000 0.000000 1.931410 
# 
# From -- ./inp_files/30579.got.cif
#   From: 2010.05.17/outbox.cif.g08.bks.cpg/sg21_16_cif.got.tgz:30579.got - 2010.06.03 23:14:55.
