data_PCOD9324886
_publ_section_title
;
Structure prediction by ZEFSAII (Michael W. Deem and Ramdas Pophale) SiO2 
 PCOD9324886
Probable space group: C 2 2 2
;
_chemical_formula_sum "Si O2"
_cell_formula_units_Z 34
_cell_length_a 31.705440
_cell_length_b 7.958083
_cell_length_c 5.386768
_cell_angle_alpha 90.000000
_cell_angle_beta 90.000000
_cell_angle_gamma 90.000000
_cell_volume 1359.159799
_symmetry_space_group_name_H-M "C 2 2 2"
_symmetry_group_IT_number 21
_symmetry_cell_setting 'orthorhombic'
loop_
_space_group_symop_operation_xyz
x,y,z
-x,-y,z
x,-y,-z
-x,y,-z
1/2+x,1/2+y,z
1/2-x,1/2-y,z
1/2+x,1/2-y,-z
1/2-x,1/2+y,-z
loop_
_atom_site_type_symbol
_atom_site_label
_atom_site_fract_x
_atom_site_fract_y
_atom_site_fract_z
Si Si1 0.250000 0.750000 0.863675
Si Si2 0.334073 0.266595 0.852576
Si Si3 0.500000 0.500000 0.500000
Si Si4 0.392507 0.000000 0.000000
Si Si5 0.957518 0.736544 0.866609
Si Si6 0.898477 0.000000 0.000000
Si Si7 0.796372 0.500000 0.500000
O O1 0.233009 0.597405 0.696133
O O2 0.289137 0.692898 0.031703
O O3 0.365424 0.421162 0.803660
O O4 0.324564 0.143168 0.626987
O O5 0.359915 0.151062 0.050233
O O6 0.471295 0.370537 0.659350
O O7 0.425645 0.915784 0.194209
O O8 0.930293 0.848924 0.060209
O O9 0.000000 0.681041 0.000000
#
# Coordination Sequence:
#
# PCOD9324886 Si02
#       7
#     4   8   2   4   8   4   4
#     4  12  26  46  70 102 154 190 244 306 364 438
#     4  11  25  48  70 106 146 196 239 313 353 441
#     4  12  22  44  80 110 136 190 254 276 362 464
#     4  10  23  49  70 100 152 186 234 303 365 416
#     4  11  22  48  72 104 145 191 228 304 365 430
#     4  10  23  45  74  96 154 182 238 303 371 400
#     4  12  26  46  75 106 143 200 257 282 381 444
#
# _framework density 25.015454999999999
#
# number of rings (size 3 to 8) (size 9 to 14) (size 15 to 20)
#    0.000    0.941    4.706    1.059    6.588    0.000 
#   16.941    1.176    0.000    0.000    0.000    0.000 
#    0.000    0.000    0.000    0.000    0.000    0.000 
#
# Total GULP energy -94809.820109 kJ/mol
# GULP energy per Si atom -5577.048242 kJ/mol
# Density = 2.495852 g / cm^3
# Si number density = 25.015455 Si / 1000 Ang^3
#
#
#
# Elastic Constant Matrix: (Units=GPa)
#
#
# Indices 1 2 3 4 5 6 
#
# 1 211.5611 74.6403 45.5978 0.0000 0.0000 0.0000
# 2 74.6403 115.6267 49.3339 0.0000 0.0000 0.0000
# 3 45.5978 49.3339 78.5475 0.0000 0.0000 0.0000
# 4 0.0000 0.0000 0.0000 18.4983 0.0000 0.0000
# 5 0.0000 0.0000 0.0000 0.0000 -0.5574 0.0000
# 6 0.0000 0.0000 0.0000 0.0000 0.0000 4.9435
#
#
#
# Elastic Compliance Matrix: (Units=1/GPa)
#
#
# Indices 1 2 3 4 5 6 
#
# 1 0.006246 -0.003395 -0.001494 0.000000 0.000000 0.000000
# 2 -0.003395 0.013660 -0.006609 0.000000 0.000000 0.000000
# 3 -0.001494 -0.006609 0.017749 0.000000 0.000000 0.000000
# 4 0.000000 0.000000 0.000000 0.054059 0.000000 0.000000
# 5 0.000000 0.000000 0.000000 0.000000 -1.793922 0.000000
# 6 0.000000 0.000000 0.000000 0.000000 0.000000 0.202287
#
#
# Mechanical properties :
#
#
# Convention : Reuss Voigt Hill
#
# Bulk Modulus (GPa) = 68.21043 82.76437 75.48740
# Shear Modulus (GPa) = -3.39665 20.32109 8.46222
#
# Velocity S-wave (km/s) = -1.16652 2.85325 1.84123
# Velocity P-wave (km/s) = 5.05096 6.63414 5.89593
#
# Compressibility (1/GPa) = 0.01466052
#
# Stress axis : x y z
#
# Youngs Moduli (GPa) = 160.08989 73.20834 56.34097
#
# Poissons Ratio (x) = 0.24853 0.08417
# Poissons Ratio (y) = 0.54349 0.37233
# Poissons Ratio (z) = 0.23916 0.48380
#
# Static dielectric constant tensor:
#      x y z
#    x 1.976450 0.000000 0.000000 
#    y 0.000000 2.069110 0.000000 
#    z 0.000000 0.000000 2.009590 
# 
# From -- ./inp_files/7842.got.cif
#   From: 2010.05.17/outbox.cif.g08.bks.cpg/sg21_4_cif.got.tgz:7842.got - 2010.06.03 23:14:55.
