data_PCOD9324150
_publ_section_title
;
Structure prediction by ZEFSAII (Michael W. Deem and Ramdas Pophale) SiO2 
 PCOD9324150
Probable space group: C 2 2 2
;
_chemical_formula_sum "Si O2"
_cell_formula_units_Z 34
_cell_length_a 12.860617
_cell_length_b 20.419988
_cell_length_c 5.392712
_cell_angle_alpha 90.000000
_cell_angle_beta 90.000000
_cell_angle_gamma 90.000000
_cell_volume 1416.199754
_symmetry_space_group_name_H-M "C 2 2 2"
_symmetry_group_IT_number 21
_symmetry_cell_setting 'orthorhombic'
loop_
_space_group_symop_operation_xyz
x,y,z
-x,-y,z
x,-y,-z
-x,y,-z
1/2+x,1/2+y,z
1/2-x,1/2-y,z
1/2+x,1/2-y,-z
1/2-x,1/2+y,-z
loop_
_atom_site_type_symbol
_atom_site_label
_atom_site_fract_x
_atom_site_fract_y
_atom_site_fract_z
Si Si1 0.382548 0.798185 0.550332
Si Si2 0.166217 0.850929 0.444878
Si Si3 0.339933 0.426748 0.036465
Si Si4 0.000000 0.500000 0.500000
Si Si5 0.889492 0.405354 0.874097
O O1 0.500000 0.818670 0.500000
O O2 0.289879 0.835658 0.409715
O O3 0.374704 0.721285 0.512488
O O4 0.364856 0.828650 0.821256
O O5 0.147434 0.897062 0.685747
O O6 0.122296 0.880842 0.190403
O O7 0.214712 0.430680 0.002958
O O8 0.381041 0.500000 0.000000
O O9 0.080858 0.547349 0.644419
O O10 0.000000 0.407762 0.000000
#
# Coordination Sequence:
#
# PCOD9324150 Si02
#       5
#     8   8   8   2   8
#     4  10  21  40  64  88 126 165 207 260 314 369
#     4  10  24  40  61  96 121 159 218 256 309 387
#     4  11  23  39  63  85 126 164 203 265 319 371
#     4  12  22  36  52 102 132 164 218 252 306 420
#     4  11  23  35  60  91 130 173 207 254 319 403
#
# _framework density 24.007912999999999
#
# number of rings (size 3 to 8) (size 9 to 14) (size 15 to 20)
#    0.000    1.412    1.176    3.882    9.882    9.412 
#    0.000    0.000    0.000    4.235    0.000    0.000 
#    0.000    0.000    0.000    0.000    0.000    0.000 
#
# Total GULP energy -94802.497031 kJ/mol
# GULP energy per Si atom -5576.617472 kJ/mol
# Density = 2.395327 g / cm^3
# Si number density = 24.007913 Si / 1000 Ang^3
#
#
#
# Elastic Constant Matrix: (Units=GPa)
#
#
# Indices 1 2 3 4 5 6 
#
# 1 74.3666 -2.4542 -2.3591 0.0000 0.0000 0.0000
# 2 -2.4542 179.5359 74.2820 0.0000 0.0000 0.0000
# 3 -2.3591 74.2820 119.5283 0.0000 0.0000 0.0000
# 4 0.0000 0.0000 0.0000 22.7406 0.0000 0.0000
# 5 0.0000 0.0000 0.0000 0.0000 -6.8724 0.0000
# 6 0.0000 0.0000 0.0000 0.0000 0.0000 6.4445
#
#
#
# Elastic Compliance Matrix: (Units=1/GPa)
#
#
# Indices 1 2 3 4 5 6 
#
# 1 0.013457 0.000100 0.000204 0.000000 0.000000 0.000000
# 2 0.000100 0.007499 -0.004658 0.000000 0.000000 0.000000
# 3 0.000204 -0.004658 0.011265 0.000000 0.000000 0.000000
# 4 0.000000 0.000000 0.000000 0.043974 0.000000 0.000000
# 5 0.000000 0.000000 0.000000 0.000000 -0.145510 0.000000
# 6 0.000000 0.000000 0.000000 0.000000 0.000000 0.155171
#
#
# Mechanical properties :
#
#
# Convention : Reuss Voigt Hill
#
# Bulk Modulus (GPa) = 42.53374 56.92981 49.73177
# Shear Modulus (GPa) = 48.82698 24.72666 36.77682
#
# Velocity S-wave (km/s) = 4.51465 3.21275 3.91815
# Velocity P-wave (km/s) = 6.70306 6.12591 6.42097
#
# Compressibility (1/GPa) = 0.02351074
#
# Stress axis : x y z
#
# Youngs Moduli (GPa) = 74.31268 133.35940 88.77019
#
# Poissons Ratio (x) = -0.01330 -0.01808
# Poissons Ratio (y) = -0.00741 0.41350
# Poissons Ratio (z) = -0.01513 0.62120
#
# Static dielectric constant tensor:
#      x y z
#    x 1.955490 0.000000 0.000000 
#    y 0.000000 1.919400 0.000000 
#    z 0.000000 0.000000 2.178750 
# 
# From -- ./inp_files/3709.got.cif
#   From: 2010.05.17/outbox.cif.g08.bks.cpg/sg21_2_cif.got.tgz:3709.got - 2010.06.03 23:14:55.
