data_PCOD9324631
_publ_section_title
;
Structure prediction by ZEFSAII (Michael W. Deem and Ramdas Pophale) SiO2 
 PCOD9324631
Probable space group: C 2 2 2
;
_chemical_formula_sum "Si O2"
_cell_formula_units_Z 28
_cell_length_a 4.873787
_cell_length_b 15.293384
_cell_length_c 16.305919
_cell_angle_alpha 90.000000
_cell_angle_beta 90.000000
_cell_angle_gamma 90.000000
_cell_volume 1215.389330
_symmetry_space_group_name_H-M "C 2 2 2"
_symmetry_group_IT_number 21
_symmetry_cell_setting 'orthorhombic'
loop_
_space_group_symop_operation_xyz
x,y,z
-x,-y,z
x,-y,-z
-x,y,-z
1/2+x,1/2+y,z
1/2-x,1/2-y,z
1/2+x,1/2-y,-z
1/2-x,1/2+y,-z
loop_
_atom_site_type_symbol
_atom_site_label
_atom_site_fract_x
_atom_site_fract_y
_atom_site_fract_z
Si Si1 0.500000 0.308426 0.000000
Si Si2 0.000000 0.885027 0.500000
Si Si3 0.250000 0.250000 0.746023
Si Si4 0.750000 0.250000 0.627830
Si Si5 0.000000 0.500000 0.000000
Si Si6 0.000000 0.500000 0.500000
Si Si7 0.887162 0.910810 0.862970
O O1 0.250000 0.250000 0.969840
O O2 0.606227 0.361902 0.921302
O O3 0.858136 0.826725 0.430797
O O4 0.737316 0.937423 0.539450
O O5 0.502753 0.227322 0.687589
O O6 0.203760 0.162665 0.799882
O O7 0.182603 0.556348 0.064499
O O8 0.000000 0.000000 0.823767
#
# Coordination Sequence:
#
# PCOD9324631 Si02
#       7
#     4   4   4   4   2   2   8
#     4  12  24  42  74  98 132 200 267 313 367 459
#     4  11  23  50  87 111 164 192 280 303 397 508
#     4  12  31  46  73 118 164 200 266 332 427 450
#     4  12  27  54  81 114 150 222 246 326 397 500
#     4  12  24  48  72 106 150 216 278 314 392 464
#     4  10  22  42  84 134 136 188 244 352 358 458
#     4  12  27  44  72 107 151 207 267 329 387 475
#
# _framework density 23.037889
#
# number of rings (size 3 to 8) (size 9 to 14) (size 15 to 20)
#    0.000    0.286    4.286    4.286    6.000    0.000 
#   10.286    1.429    0.000    0.000    0.000    0.000 
#    0.000    0.000    0.000    0.000    0.000    0.000 
#
# Total GULP energy -78065.832646 kJ/mol
# GULP energy per Si atom -5576.130903 kJ/mol
# Density = 2.298545 g / cm^3
# Si number density = 23.037889 Si / 1000 Ang^3
#
#
#
# Elastic Constant Matrix: (Units=GPa)
#
#
# Indices 1 2 3 4 5 6 
#
# 1 150.6081 62.7388 59.0023 0.0000 0.0000 0.0000
# 2 62.7388 174.9169 81.2702 0.0000 0.0000 0.0000
# 3 59.0023 81.2702 133.2671 0.0000 0.0000 0.0000
# 4 0.0000 0.0000 0.0000 -7.0592 0.0000 0.0000
# 5 0.0000 0.0000 0.0000 0.0000 40.8067 0.0000
# 6 0.0000 0.0000 0.0000 0.0000 0.0000 49.7303
#
#
#
# Elastic Compliance Matrix: (Units=1/GPa)
#
#
# Indices 1 2 3 4 5 6 
#
# 1 0.008419 -0.001797 -0.002632 0.000000 0.000000 0.000000
# 2 -0.001797 0.008361 -0.004303 0.000000 0.000000 0.000000
# 3 -0.002632 -0.004303 0.011293 0.000000 0.000000 0.000000
# 4 0.000000 0.000000 0.000000 -0.141660 0.000000 0.000000
# 5 0.000000 0.000000 0.000000 0.000000 0.024506 0.000000
# 6 0.000000 0.000000 0.000000 0.000000 0.000000 0.020108
#
#
# Mechanical properties :
#
#
# Convention : Reuss Voigt Hill
#
# Bulk Modulus (GPa) = 94.25427 96.09053 95.17240
# Shear Modulus (GPa) = -104.22666 33.74761 -35.23952
#
# Velocity S-wave (km/s) = -6.73347 3.83152 -3.91530
# Velocity P-wave (km/s) = 4.41036 7.83418 4.57838
#
# Compressibility (1/GPa) = 0.01060960
#
# Stress axis : x y z
#
# Youngs Moduli (GPa) = 118.77415 119.60459 88.55063
#
# Poissons Ratio (x) = 0.21494 0.23303
# Poissons Ratio (y) = 0.21345 0.38104
# Poissons Ratio (z) = 0.31257 0.51467
#
# Static dielectric constant tensor:
#      x y z
#    x 1.926980 0.000000 0.000000 
#    y 0.000000 2.130770 0.000000 
#    z 0.000000 0.000000 1.798740 
# 
# From -- ./inp_files/34295.got.cif
#   From: 2010.05.17/outbox.cif.g08.bks.cpg/sg21_18_cif.got.tgz:34295.got - 2010.06.03 23:14:55.
