data_PCOD9324343
_publ_section_title
;
Structure prediction by ZEFSAII (Michael W. Deem and Ramdas Pophale) SiO2 
 PCOD9324343
Probable space group: C 2 2 2
;
_chemical_formula_sum "Si O2"
_cell_formula_units_Z 34
_cell_length_a 16.696263
_cell_length_b 13.628393
_cell_length_c 6.623015
_cell_angle_alpha 90.000000
_cell_angle_beta 90.000000
_cell_angle_gamma 90.000000
_cell_volume 1507.022251
_symmetry_space_group_name_H-M "C 2 2 2"
_symmetry_group_IT_number 21
_symmetry_cell_setting 'orthorhombic'
loop_
_space_group_symop_operation_xyz
x,y,z
-x,-y,z
x,-y,-z
-x,y,-z
1/2+x,1/2+y,z
1/2-x,1/2-y,z
1/2+x,1/2-y,-z
1/2-x,1/2+y,-z
loop_
_atom_site_type_symbol
_atom_site_label
_atom_site_fract_x
_atom_site_fract_y
_atom_site_fract_z
Si Si1 0.832357 0.601260 0.896345
Si Si2 0.000000 0.000000 0.000000
Si Si3 0.454161 0.338585 0.704512
Si Si4 0.250000 0.750000 0.820912
Si Si5 0.707545 0.387522 0.459189
Si Si6 0.000000 0.327082 0.000000
O O1 0.786823 0.608686 0.681999
O O2 0.804011 0.500000 0.000000
O O3 0.810676 0.695143 0.032708
O O4 0.928013 0.605802 0.917347
O O5 0.950443 0.071084 0.142223
O O6 0.500000 0.364824 0.500000
O O7 0.361544 0.323780 0.649056
O O8 0.503000 0.250686 0.811990
O O9 0.280495 0.665504 0.671959
O O10 0.682094 0.500000 0.500000
#
# Coordination Sequence:
#
# PCOD9324343 Si02
#       6
#     8   2   8   4   8   4
#     4  12  26  47  73 105 142 199 247 308 377 445
#     4  10  22  36  62  98 138 178 228 288 370 450
#     4  11  23  41  66 103 141 188 235 306 377 436
#     4  12  24  46  72 102 148 186 248 312 370 444
#     4  12  25  44  73 108 147 195 255 310 380 457
#     4  11  25  45  69  98 144 190 250 302 368 446
#
# _framework density 22.561046000000001
#
# number of rings (size 3 to 8) (size 9 to 14) (size 15 to 20)
#    0.000    0.471    2.353    7.059    1.647    3.765 
#    0.000    0.000    0.000    0.000    0.000    0.000 
#    0.000    0.000    0.000    0.000    0.000    0.000 
#
# Total GULP energy -94902.333050 kJ/mol
# GULP energy per Si atom -5582.490179 kJ/mol
# Density = 2.250970 g / cm^3
# Si number density = 22.561046 Si / 1000 Ang^3
#
#
#
# Elastic Constant Matrix: (Units=GPa)
#
#
# Indices 1 2 3 4 5 6 
#
# 1 87.2140 -5.2903 23.2588 0.0000 0.0000 0.0000
# 2 -5.2903 98.0701 26.6730 0.0000 0.0000 0.0000
# 3 23.2588 26.6730 109.3724 0.0000 0.0000 0.0000
# 4 0.0000 0.0000 0.0000 54.2424 0.0000 0.0000
# 5 0.0000 0.0000 0.0000 0.0000 23.7878 0.0000
# 6 0.0000 0.0000 0.0000 0.0000 0.0000 35.4014
#
#
#
# Elastic Compliance Matrix: (Units=1/GPa)
#
#
# Indices 1 2 3 4 5 6 
#
# 1 0.012352 0.001479 -0.002988 0.000000 0.000000 0.000000
# 2 0.001479 0.011098 -0.003021 0.000000 0.000000 0.000000
# 3 -0.002988 -0.003021 0.010515 0.000000 0.000000 0.000000
# 4 0.000000 0.000000 0.000000 0.018436 0.000000 0.000000
# 5 0.000000 0.000000 0.000000 0.000000 0.042038 0.000000
# 6 0.000000 0.000000 0.000000 0.000000 0.000000 0.028247
#
#
# Mechanical properties :
#
#
# Convention : Reuss Voigt Hill
#
# Bulk Modulus (GPa) = 40.15014 42.65993 41.40503
# Shear Modulus (GPa) = 35.70182 39.35400 37.52791
#
# Velocity S-wave (km/s) = 3.98232 4.18105 4.08290
# Velocity P-wave (km/s) = 6.24340 6.50061 6.37331
#
# Compressibility (1/GPa) = 0.02490651
#
# Stress axis : x y z
#
# Youngs Moduli (GPa) = 80.95534 90.10453 95.10092
#
# Poissons Ratio (x) = -0.13325 0.28411
# Poissons Ratio (y) = -0.11972 0.28730
# Poissons Ratio (z) = 0.24185 0.27221
#
# Static dielectric constant tensor:
#      x y z
#    x 0.904140 0.000000 0.000000 
#    y 0.000000 1.845940 0.000000 
#    z 0.000000 0.000000 1.849000 
# 
# From -- ./inp_files/3553.got.cif
#   From: 2010.05.17/outbox.cif.g08.bks.cpg/sg21_2_cif.got.tgz:3553.got - 2010.06.03 23:14:55.
