data_PCOD9324467
_publ_section_title
;
Structure prediction by ZEFSAII (Michael W. Deem and Ramdas Pophale) SiO2 
 PCOD9324467
Probable space group: C 2 2 2
;
_chemical_formula_sum "Si O2"
_cell_formula_units_Z 52
_cell_length_a 21.864918
_cell_length_b 18.946124
_cell_length_c 5.586769
_cell_angle_alpha 90.000000
_cell_angle_beta 90.000000
_cell_angle_gamma 90.000000
_cell_volume 2314.349493
_symmetry_space_group_name_H-M "C 2 2 2"
_symmetry_group_IT_number 21
_symmetry_cell_setting 'orthorhombic'
loop_
_space_group_symop_operation_xyz
x,y,z
-x,-y,z
x,-y,-z
-x,y,-z
1/2+x,1/2+y,z
1/2-x,1/2-y,z
1/2+x,1/2-y,-z
1/2-x,1/2+y,-z
loop_
_atom_site_type_symbol
_atom_site_label
_atom_site_fract_x
_atom_site_fract_y
_atom_site_fract_z
Si Si1 0.640108 0.147468 0.721450
Si Si2 0.180834 0.752980 0.099999
Si Si3 0.733590 0.078720 0.388879
Si Si4 0.341146 0.623418 0.716143
Si Si5 0.073147 0.775266 0.492628
Si Si6 0.476182 0.920186 0.756127
Si Si7 0.704076 0.500000 0.000000
O O1 0.679025 0.126099 0.489324
O O2 0.593749 0.210115 0.657285
O O3 0.596799 0.081620 0.775432
O O4 0.675280 0.180773 0.944634
O O5 0.250000 0.750000 0.210830
O O6 0.119919 0.763474 0.264849
O O7 0.178977 0.817258 0.908286
O O8 0.792460 0.116827 0.502601
O O9 0.751598 0.057227 0.122493
O O10 0.725329 0.000000 0.500000
O O11 0.403761 0.651781 0.608786
O O12 0.338409 0.545765 0.827702
O O13 0.000000 0.775782 0.500000
O O14 0.500000 0.891760 0.500000
O O15 0.500000 0.000000 0.758782
O O16 0.500000 0.884086 0.000000
#
# Coordination Sequence:
#
# PCOD9324467 Si02
#       7
#     8   8   8   8   8   8   4
#     4  11  25  40  70 101 144 189 258 301 373 448
#     4  11  24  43  74 103 140 193 247 319 378 444
#     4  10  22  40  63 108 139 181 241 301 371 450
#     4  10  22  44  69 101 142 176 247 300 378 447
#     4  11  27  43  69 104 146 190 244 310 378 462
#     4  10  24  46  66  94 145 204 258 305 367 441
#     4  10  22  42  74 103 149 186 224 318 388 466
#
# _framework density 22.468513999999999
#
# number of rings (size 3 to 8) (size 9 to 14) (size 15 to 20)
#    0.000    1.538    1.538    1.385   10.769    1.846 
#    0.000    0.000    0.000   18.923    0.000    0.000 
#    0.000    0.000    0.000    0.000    0.000    0.000 
#
# Total GULP energy -144993.191260 kJ/mol
# GULP energy per Si atom -5576.661202 kJ/mol
# Density = 2.241737 g / cm^3
# Si number density = 22.468514 Si / 1000 Ang^3
#
#
#
# Elastic Constant Matrix: (Units=GPa)
#
#
# Indices 1 2 3 4 5 6 
#
# 1 188.0212 65.7013 54.3196 0.0000 0.0000 0.0000
# 2 65.7013 103.7698 31.4112 0.0000 0.0000 0.0000
# 3 54.3196 31.4112 114.8150 0.0000 0.0000 0.0000
# 4 0.0000 0.0000 0.0000 33.9983 0.0000 0.0000
# 5 0.0000 0.0000 0.0000 0.0000 24.9185 0.0000
# 6 0.0000 0.0000 0.0000 0.0000 0.0000 47.6363
#
#
#
# Elastic Compliance Matrix: (Units=1/GPa)
#
#
# Indices 1 2 3 4 5 6 
#
# 1 0.007398 -0.003952 -0.002419 0.000000 0.000000 0.000000
# 2 -0.003952 0.012618 -0.001582 0.000000 0.000000 0.000000
# 3 -0.002419 -0.001582 0.010287 0.000000 0.000000 0.000000
# 4 0.000000 0.000000 0.000000 0.029413 0.000000 0.000000
# 5 0.000000 0.000000 0.000000 0.000000 0.040131 0.000000
# 6 0.000000 0.000000 0.000000 0.000000 0.000000 0.020992
#
#
# Mechanical properties :
#
#
# Convention : Reuss Voigt Hill
#
# Bulk Modulus (GPa) = 69.46081 78.83004 74.14542
# Shear Modulus (GPa) = 35.32442 38.32223 36.82333
#
# Velocity S-wave (km/s) = 3.96937 4.13437 4.05271
# Velocity P-wave (km/s) = 7.21039 7.61259 7.41422
#
# Compressibility (1/GPa) = 0.01439661
#
# Stress axis : x y z
#
# Youngs Moduli (GPa) = 135.16476 79.25272 97.21006
#
# Poissons Ratio (x) = 0.31321 0.23515
# Poissons Ratio (y) = 0.53417 0.15381
# Poissons Ratio (z) = 0.32697 0.12540
#
# Static dielectric constant tensor:
#      x y z
#    x 1.851380 0.000000 0.000000 
#    y 0.000000 1.877960 0.000000 
#    z 0.000000 0.000000 1.943970 
# 
# From -- ./inp_files/6008.got.cif
#   From: 2010.05.17/outbox.cif.g08.bks.cpg/sg21_4_cif.got.tgz:6008.got - 2010.06.03 23:14:55.
