data_PCOD9324648
_publ_section_title
;
Structure prediction by ZEFSAII (Michael W. Deem and Ramdas Pophale) SiO2 
 PCOD9324648
Probable space group: C 2 2 2
;
_chemical_formula_sum "Si O2"
_cell_formula_units_Z 38
_cell_length_a 8.710868
_cell_length_b 23.084797
_cell_length_c 8.498221
_cell_angle_alpha 90.000000
_cell_angle_beta 90.000000
_cell_angle_gamma 90.000000
_cell_volume 1708.895529
_symmetry_space_group_name_H-M "C 2 2 2"
_symmetry_group_IT_number 21
_symmetry_cell_setting 'orthorhombic'
loop_
_space_group_symop_operation_xyz
x,y,z
-x,-y,z
x,-y,-z
-x,y,-z
1/2+x,1/2+y,z
1/2-x,1/2-y,z
1/2+x,1/2-y,-z
1/2-x,1/2+y,-z
loop_
_atom_site_type_symbol
_atom_site_label
_atom_site_fract_x
_atom_site_fract_y
_atom_site_fract_z
Si Si1 0.920167 0.775976 0.834468
Si Si2 0.000000 0.500000 0.500000
Si Si3 0.692787 0.603278 0.731767
Si Si4 0.521191 0.843823 0.189211
Si Si5 0.248061 0.080004 0.367883
Si Si6 0.500000 0.500000 0.793491
O O1 0.750000 0.750000 0.860544
O O2 0.903388 0.838009 0.755508
O O3 0.006138 0.722547 0.750886
O O4 0.000000 0.786414 0.000000
O O5 0.108180 0.462095 0.391863
O O6 0.871050 0.619197 0.762966
O O7 0.692307 0.591758 0.545240
O O8 0.626837 0.550595 0.842190
O O9 0.678696 0.869877 0.258849
O O10 0.500000 0.841185 0.000000
O O11 0.112779 0.044147 0.291232
#
# Coordination Sequence:
#
# PCOD9324648 Si02
#       6
#     8   2   8   8   8   4
#     4   9  21  41  65  90 127 169 216 274 335 392
#     4  12  20  38  74  84 136 174 214 262 336 398
#     4  11  21  40  65  92 125 170 216 269 329 397
#     4  10  22  43  68  93 127 174 223 268 331 399
#     4  12  21  41  68  96 126 174 219 268 334 397
#     4  12  25  40  63  94 133 166 207 274 343 382
#
# _framework density 22.236585000000002
#
# number of rings (size 3 to 8) (size 9 to 14) (size 15 to 20)
#    0.000    1.263    4.211    1.263    0.000    5.053 
#    0.000   21.053    0.000    0.000    0.000    0.000 
#    0.000    0.000    0.000    0.000    0.000    0.000 
#
# Total GULP energy -105857.799575 kJ/mol
# GULP energy per Si atom -5571.463136 kJ/mol
# Density = 2.218597 g / cm^3
# Si number density = 22.236585 Si / 1000 Ang^3
#
#
#
# Elastic Constant Matrix: (Units=GPa)
#
#
# Indices 1 2 3 4 5 6 
#
# 1 83.7043 43.4420 9.3175 0.0000 0.0000 0.0000
# 2 43.4420 144.2792 20.6609 0.0000 0.0000 0.0000
# 3 9.3175 20.6609 27.0138 0.0000 0.0000 0.0000
# 4 0.0000 0.0000 0.0000 41.3589 0.0000 0.0000
# 5 0.0000 0.0000 0.0000 0.0000 23.5302 0.0000
# 6 0.0000 0.0000 0.0000 0.0000 0.0000 43.8651
#
#
#
# Elastic Compliance Matrix: (Units=1/GPa)
#
#
# Indices 1 2 3 4 5 6 
#
# 1 0.014240 -0.004025 -0.001833 0.000000 0.000000 0.000000
# 2 -0.004025 0.008921 -0.005435 0.000000 0.000000 0.000000
# 3 -0.001833 -0.005435 0.041807 0.000000 0.000000 0.000000
# 4 0.000000 0.000000 0.000000 0.024179 0.000000 0.000000
# 5 0.000000 0.000000 0.000000 0.000000 0.042499 0.000000
# 6 0.000000 0.000000 0.000000 0.000000 0.000000 0.022797
#
#
# Mechanical properties :
#
#
# Convention : Reuss Voigt Hill
#
# Bulk Modulus (GPa) = 23.59483 44.64866 34.12174
# Shear Modulus (GPa) = 26.15664 33.85595 30.00630
#
# Velocity S-wave (km/s) = 3.43343 3.90620 3.67742
# Velocity P-wave (km/s) = 5.13340 6.36137 5.78009
#
# Compressibility (1/GPa) = 0.04238217
#
# Stress axis : x y z
#
# Youngs Moduli (GPa) = 70.22539 112.09226 23.91938
#
# Poissons Ratio (x) = 0.45118 0.04385
# Poissons Ratio (y) = 0.28266 0.13000
# Poissons Ratio (z) = 0.12873 0.60921
#
# Static dielectric constant tensor:
#      x y z
#    x 1.844060 0.000000 0.000000 
#    y 0.000000 1.891770 0.000000 
#    z 0.000000 0.000000 1.797650 
# 
# From -- ./inp_files/10985.got.cif
#   From: 2010.05.17/outbox.cif.g08.bks.cpg/sg21_6_cif.got.tgz:10985.got - 2010.06.03 23:14:55.
