data_PCOD9324292
_publ_section_title
;
Structure prediction by ZEFSAII (Michael W. Deem and Ramdas Pophale) SiO2 
 PCOD9324292
Probable space group: C 2 2 2
;
_chemical_formula_sum "Si O2"
_cell_formula_units_Z 58
_cell_length_a 26.267032
_cell_length_b 11.139112
_cell_length_c 9.696271
_cell_angle_alpha 90.000000
_cell_angle_beta 90.000000
_cell_angle_gamma 90.000000
_cell_volume 2837.045617
_symmetry_space_group_name_H-M "C 2 2 2"
_symmetry_group_IT_number 21
_symmetry_cell_setting 'orthorhombic'
loop_
_space_group_symop_operation_xyz
x,y,z
-x,-y,z
x,-y,-z
-x,y,-z
1/2+x,1/2+y,z
1/2-x,1/2-y,z
1/2+x,1/2-y,-z
1/2-x,1/2+y,-z
loop_
_atom_site_type_symbol
_atom_site_label
_atom_site_fract_x
_atom_site_fract_y
_atom_site_fract_z
Si Si1 0.080918 0.154645 0.675296
Si Si2 0.624826 0.736159 0.247429
Si Si3 0.561425 0.138986 0.510021
Si Si4 0.500000 0.500000 0.500000
Si Si5 0.681427 0.497191 0.350699
Si Si6 0.187412 0.633251 0.965032
Si Si7 0.443121 0.357157 0.992681
Si Si8 0.299805 0.612938 0.070045
O O1 0.082366 0.287846 0.618527
O O2 0.034908 0.082610 0.599433
O O3 0.131311 0.084333 0.633230
O O4 0.076451 0.161305 0.838419
O O5 0.587108 0.795330 0.358866
O O6 0.658806 0.626455 0.305985
O O7 0.589883 0.689397 0.120863
O O8 0.664578 0.829831 0.181634
O O9 0.500000 0.148938 0.500000
O O10 0.574780 0.000000 0.500000
O O11 0.707760 0.500000 0.500000
O O12 0.710582 0.431971 0.224932
O O13 0.248362 0.621972 0.979900
O O14 0.177276 0.753019 0.059191
O O15 0.167103 0.500000 0.000000
O O16 0.447115 0.500000 0.000000
O O17 0.500000 0.304133 0.000000
O O18 0.329667 0.500000 0.000000
#
# Coordination Sequence:
#
# PCOD9324292 Si02
#       8
#     8   8   8   2   8   8   8   8
#     4  12  22  36  61  96 135 182 231 286 353 414
#     4  12  23  43  66 102 137 181 240 291 344 426
#     4  11  25  44  64  90 143 203 236 276 350 426
#     4  12  20  36  60  88 148 180 222 290 352 416
#     4  12  23  38  67 104 131 174 226 296 362 417
#     4  10  23  42  73 101 129 181 226 288 361 423
#     4  11  23  34  59  99 137 175 231 297 347 396
#     4  10  21  43  74  97 133 172 228 288 363 422
#
# _framework density 20.443802000000002
#
# number of rings (size 3 to 8) (size 9 to 14) (size 15 to 20)
#    0.000    0.828    5.517    2.483    0.000    2.207 
#    0.000    0.000   12.138    2.483    0.000    0.000 
#    0.000    0.000    0.000    0.000    0.000    0.000 
#
# Total GULP energy -161800.672859 kJ/mol
# GULP energy per Si atom -5579.333547 kJ/mol
# Density = 2.039727 g / cm^3
# Si number density = 20.443802 Si / 1000 Ang^3
#
#
#
# Elastic Constant Matrix: (Units=GPa)
#
#
# Indices 1 2 3 4 5 6 
#
# 1 62.0957 11.7839 15.8640 0.0000 0.0000 0.0000
# 2 11.7839 171.2018 53.0924 0.0000 0.0000 0.0000
# 3 15.8640 53.0924 147.0306 0.0000 0.0000 0.0000
# 4 0.0000 0.0000 0.0000 22.8744 0.0000 0.0000
# 5 0.0000 0.0000 0.0000 0.0000 30.7076 0.0000
# 6 0.0000 0.0000 0.0000 0.0000 0.0000 20.3624
#
#
#
# Elastic Compliance Matrix: (Units=1/GPa)
#
#
# Indices 1 2 3 4 5 6 
#
# 1 0.016627 -0.000662 -0.001555 0.000000 0.000000 0.000000
# 2 -0.000662 0.006604 -0.002313 0.000000 0.000000 0.000000
# 3 -0.001555 -0.002313 0.007804 0.000000 0.000000 0.000000
# 4 0.000000 0.000000 0.000000 0.043717 0.000000 0.000000
# 5 0.000000 0.000000 0.000000 0.000000 0.032565 0.000000
# 6 0.000000 0.000000 0.000000 0.000000 0.000000 0.049110
#
#
# Mechanical properties :
#
#
# Convention : Reuss Voigt Hill
#
# Bulk Modulus (GPa) = 45.50677 60.20096 52.85386
# Shear Modulus (GPa) = 28.93293 34.76141 31.84717
#
# Velocity S-wave (km/s) = 3.76605 4.12799 3.95117
# Velocity P-wave (km/s) = 6.42017 7.22713 6.83557
#
# Compressibility (1/GPa) = 0.02197475
#
# Stress axis : x y z
#
# Youngs Moduli (GPa) = 60.14288 151.42301 128.13335
#
# Poissons Ratio (x) = 0.10028 0.19923
# Poissons Ratio (y) = 0.03983 0.29640
# Poissons Ratio (z) = 0.09351 0.35028
#
# Static dielectric constant tensor:
#      x y z
#    x 1.793080 0.000000 0.000000 
#    y 0.000000 1.750630 0.000000 
#    z 0.000000 0.000000 1.755530 
# 
# From -- ./inp_files/19169.got.cif
#   From: 2010.05.17/outbox.cif.g08.bks.cpg/sg21_10_cif.got.tgz:19169.got - 2010.06.03 23:14:55.
