data_PCOD9324113
_publ_section_title
;
Structure prediction by ZEFSAII (Michael W. Deem and Ramdas Pophale) SiO2 
 PCOD9324113
Probable space group: C 2 2 2
;
_chemical_formula_sum "Si O2"
_cell_formula_units_Z 40
_cell_length_a 18.447913
_cell_length_b 10.528818
_cell_length_c 8.697182
_cell_angle_alpha 90.000000
_cell_angle_beta 90.000000
_cell_angle_gamma 90.000000
_cell_volume 1689.294697
_symmetry_space_group_name_H-M "C 2 2 2"
_symmetry_group_IT_number 21
_symmetry_cell_setting 'orthorhombic'
loop_
_space_group_symop_operation_xyz
x,y,z
-x,-y,z
x,-y,-z
-x,y,-z
1/2+x,1/2+y,z
1/2-x,1/2-y,z
1/2+x,1/2-y,-z
1/2-x,1/2+y,-z
loop_
_atom_site_type_symbol
_atom_site_label
_atom_site_fract_x
_atom_site_fract_y
_atom_site_fract_z
Si Si1 0.086577 0.507700 0.689448
Si Si2 0.177379 0.878772 0.609153
Si Si3 0.914499 0.008138 0.172261
Si Si4 0.666076 0.248293 0.307298
Si Si5 0.209804 0.383024 0.121068
O O1 0.095365 0.500000 0.500000
O O2 0.126391 0.378550 0.741037
O O3 0.128548 0.610083 0.801196
O O4 0.000000 0.500000 0.716926
O O5 0.169789 0.763050 0.492952
O O6 0.243247 0.899672 0.724087
O O7 0.180602 0.000000 0.500000
O O8 0.109223 0.893547 0.719039
O O9 0.880542 0.135289 0.242717
O O10 0.000000 0.000000 0.167352
O O11 0.885482 0.000000 0.000000
O O12 0.750000 0.250000 0.261235
O O13 0.250000 0.250000 0.065407
O O14 0.216628 0.500000 0.000000
#
# Coordination Sequence:
#
# PCOD9324113 Si02
#       5
#     8   8   8   8   8
#     4  11  25  46  72 105 143 184 232 293 362 426
#     4  10  21  39  68 102 136 179 237 295 350 415
#     4  10  23  42  67 103 143 186 236 291 351 421
#     4  11  23  43  72 103 139 182 234 297 353 418
#     4  12  27  46  72 104 143 193 243 293 354 427
#
# _framework density 23.678521
#
# number of rings (size 3 to 8) (size 9 to 14) (size 15 to 20)
#    0.000    1.200    0.000    6.600    0.000   14.400 
#    0.000    3.000    0.000    0.000    0.000    0.000 
#    0.000    0.000    0.000    0.000    0.000    0.000 
#
# Total GULP energy -111574.032392 kJ/mol
# GULP energy per Si atom -5578.701620 kJ/mol
# Density = 2.362463 g / cm^3
# Si number density = 23.678521 Si / 1000 Ang^3
#
#
#
# Elastic Constant Matrix: (Units=GPa)
#
#
# Indices 1 2 3 4 5 6 
#
# 1 179.3572 58.4006 54.4177 0.0000 0.0000 0.0000
# 2 58.4006 149.5637 51.9283 0.0000 0.0000 0.0000
# 3 54.4177 51.9283 164.0235 0.0000 0.0000 0.0000
# 4 0.0000 0.0000 0.0000 -20.6414 0.0000 0.0000
# 5 0.0000 0.0000 0.0000 0.0000 26.2716 0.0000
# 6 0.0000 0.0000 0.0000 0.0000 0.0000 10.2382
#
#
#
# Elastic Compliance Matrix: (Units=1/GPa)
#
#
# Indices 1 2 3 4 5 6 
#
# 1 0.006731 -0.002082 -0.001574 0.000000 0.000000 0.000000
# 2 -0.002082 0.008156 -0.001891 0.000000 0.000000 0.000000
# 3 -0.001574 -0.001891 0.007218 0.000000 0.000000 0.000000
# 4 0.000000 0.000000 0.000000 -0.048446 0.000000 0.000000
# 5 0.000000 0.000000 0.000000 0.000000 0.038064 0.000000
# 6 0.000000 0.000000 0.000000 0.000000 0.000000 0.097673
#
#
# Mechanical properties :
#
#
# Convention : Reuss Voigt Hill
#
# Bulk Modulus (GPa) = 90.82664 91.38196 91.10430
# Shear Modulus (GPa) = 40.27086 25.05353 32.66219
#
# Velocity S-wave (km/s) = 4.12847 3.25633 3.71806
# Velocity P-wave (km/s) = 7.82095 7.26738 7.54924
#
# Compressibility (1/GPa) = 0.01100999
#
# Stress axis : x y z
#
# Youngs Moduli (GPa) = 148.56936 122.61448 138.54863
#
# Poissons Ratio (x) = 0.25525 0.21808
# Poissons Ratio (y) = 0.30928 0.26204
# Poissons Ratio (z) = 0.23385 0.23191
#
# Static dielectric constant tensor:
#      x y z
#    x 1.917000 0.000000 0.000000 
#    y 0.000000 2.050090 0.000000 
#    z 0.000000 0.000000 1.990710 
# 
# From -- ./inp_files/16109.got.cif
#   From: 2010.05.17/outbox.cif.g08.bks.cpg/sg21_9_cif.got.tgz:16109.got - 2010.06.03 23:14:55.
