data_PCOD9324611
_publ_section_title
;
Structure prediction by ZEFSAII (Michael W. Deem and Ramdas Pophale) SiO2 
 PCOD9324611
Probable space group: C 2 2 2
;
_chemical_formula_sum "Si O2"
_cell_formula_units_Z 22
_cell_length_a 30.999343
_cell_length_b 5.250299
_cell_length_c 5.568983
_cell_angle_alpha 90.000000
_cell_angle_beta 90.000000
_cell_angle_gamma 90.000000
_cell_volume 906.384392
_symmetry_space_group_name_H-M "C 2 2 2"
_symmetry_group_IT_number 21
_symmetry_cell_setting 'orthorhombic'
loop_
_space_group_symop_operation_xyz
x,y,z
-x,-y,z
x,-y,-z
-x,y,-z
1/2+x,1/2+y,z
1/2-x,1/2-y,z
1/2+x,1/2-y,-z
1/2-x,1/2+y,-z
loop_
_atom_site_type_symbol
_atom_site_label
_atom_site_fract_x
_atom_site_fract_y
_atom_site_fract_z
Si Si1 0.250000 0.250000 0.337245
Si Si2 0.934963 0.762283 0.348444
Si Si3 0.500000 0.000000 0.000000
Si Si4 0.156110 0.652346 0.757210
O O1 0.250187 0.500000 0.500000
O O2 0.204279 0.240795 0.202187
O O3 0.932056 0.500000 0.500000
O O4 0.885981 0.828171 0.268465
O O5 0.950566 0.000000 0.500000
O O6 0.968245 0.684475 0.145393
O O7 0.158749 0.500000 0.500000
O O8 0.146367 0.500000 0.000000
#
# Coordination Sequence:
#
# PCOD9324611 Si02
#       4
#     4   8   2   8
#     4  10  22  42  70 108 150 202 254 312 384 464
#     4  11  26  48  74 111 153 199 260 327 395 473
#     4  12  26  50  80 112 152 214 266 334 410 472
#     4  10  22  45  72 109 151 200 254 318 387 467
#
# _framework density 24.272264
#
# number of rings (size 3 to 8) (size 9 to 14) (size 15 to 20)
#    0.000    1.455    1.818    1.636    0.000   11.636 
#    0.000   10.909    0.000    0.000    0.000    0.000 
#    0.000    0.000    0.000    0.000    0.000    0.000 
#
# Total GULP energy -61481.569365 kJ/mol
# GULP energy per Si atom -5589.233579 kJ/mol
# Density = 2.421702 g / cm^3
# Si number density = 24.272264 Si / 1000 Ang^3
#
#
#
# Elastic Constant Matrix: (Units=GPa)
#
#
# Indices 1 2 3 4 5 6 
#
# 1 240.8805 29.9199 49.7131 0.0000 0.0000 0.0000
# 2 29.9199 126.7998 42.5294 0.0000 0.0000 0.0000
# 3 49.7131 42.5294 117.5764 0.0000 0.0000 0.0000
# 4 0.0000 0.0000 0.0000 54.4471 0.0000 0.0000
# 5 0.0000 0.0000 0.0000 0.0000 128.3742 0.0000
# 6 0.0000 0.0000 0.0000 0.0000 0.0000 0.1115
#
#
#
# Elastic Compliance Matrix: (Units=1/GPa)
#
#
# Indices 1 2 3 4 5 6 
#
# 1 0.004575 -0.000490 -0.001757 0.000000 0.000000 0.000000
# 2 -0.000490 0.009028 -0.003058 0.000000 0.000000 0.000000
# 3 -0.001757 -0.003058 0.010354 0.000000 0.000000 0.000000
# 4 0.000000 0.000000 0.000000 0.018366 0.000000 0.000000
# 5 0.000000 0.000000 0.000000 0.000000 0.007790 0.000000
# 6 0.000000 0.000000 0.000000 0.000000 0.000000 8.970997
#
#
# Mechanical properties :
#
#
# Convention : Reuss Voigt Hill
#
# Bulk Modulus (GPa) = 74.92857 81.06460 77.99658
# Shear Modulus (GPa) = 0.55333 60.79285 30.67309
#
# Velocity S-wave (km/s) = 0.47798 5.01005 3.55873
# Velocity P-wave (km/s) = 5.58942 8.18156 7.00641
#
# Compressibility (1/GPa) = 0.01334604
#
# Stress axis : x y z
#
# Youngs Moduli (GPa) = 218.58199 110.76799 96.57875
#
# Poissons Ratio (x) = 0.05430 0.16969
# Poissons Ratio (y) = 0.10715 0.29536
# Poissons Ratio (z) = 0.38406 0.33876
#
# Static dielectric constant tensor:
#      x y z
#    x 1.990450 0.000000 0.000000 
#    y 0.000000 1.870210 0.000000 
#    z 0.000000 0.000000 2.231190 
# 
# From -- ./inp_files/754.got.cif
#   From: 2010.05.17/outbox.cif.g08.bks.cpg/sg21_1_cif.got.tgz:754.got - 2010.06.03 23:14:55.
