data_PCOD9324139
_publ_section_title
;
Structure prediction by ZEFSAII (Michael W. Deem and Ramdas Pophale) SiO2 
 PCOD9324139
Probable space group: C 2 2 2
;
_chemical_formula_sum "Si O2"
_cell_formula_units_Z 40
_cell_length_a 16.084595
_cell_length_b 8.296468
_cell_length_c 14.743291
_cell_angle_alpha 90.000000
_cell_angle_beta 90.000000
_cell_angle_gamma 90.000000
_cell_volume 1967.423299
_symmetry_space_group_name_H-M "C 2 2 2"
_symmetry_group_IT_number 21
_symmetry_cell_setting 'orthorhombic'
loop_
_space_group_symop_operation_xyz
x,y,z
-x,-y,z
x,-y,-z
-x,y,-z
1/2+x,1/2+y,z
1/2-x,1/2-y,z
1/2+x,1/2-y,-z
1/2-x,1/2+y,-z
loop_
_atom_site_type_symbol
_atom_site_label
_atom_site_fract_x
_atom_site_fract_y
_atom_site_fract_z
Si Si1 0.327040 0.879501 0.585132
Si Si2 0.407790 0.432555 0.405549
Si Si3 0.274207 0.062853 0.102259
Si Si4 0.175722 0.131212 0.749253
Si Si5 0.404602 0.045458 0.758859
O O1 0.250000 0.750000 0.588748
O O2 0.405390 0.758067 0.581665
O O3 0.321100 0.000000 0.500000
O O4 0.347482 0.978295 0.676197
O O5 0.500000 0.500000 0.393703
O O6 0.373712 0.500000 0.500000
O O7 0.352813 0.501172 0.323939
O O8 0.250000 0.250000 0.106262
O O9 0.208833 0.958036 0.161489
O O10 0.362018 0.030713 0.152044
O O11 0.275542 0.000000 0.000000
O O12 0.250000 0.250000 0.717553
O O13 0.103308 0.261049 0.765380
O O14 0.500000 0.000000 0.746996
#
# Coordination Sequence:
#
# PCOD9324139 Si02
#       5
#     8   8   8   8   8
#     4  12  25  41  62  91 127 173 220 264 312 378
#     4  11  23  39  59  87 124 165 207 261 318 371
#     4  11  23  43  67  92 123 164 211 264 321 383
#     4  10  21  40  63  89 120 162 209 256 310 377
#     4  11  23  40  65  96 128 165 209 267 326 381
#
# _framework density 20.331160000000001
#
# number of rings (size 3 to 8) (size 9 to 14) (size 15 to 20)
#    0.000    1.000    0.000    9.000    0.000    5.600 
#    0.000    0.000    0.000    4.200    0.000    0.000 
#    0.000    0.000    0.000    0.000    0.000    0.000 
#
# Total GULP energy -111725.097689 kJ/mol
# GULP energy per Si atom -5586.254884 kJ/mol
# Density = 2.028489 g / cm^3
# Si number density = 20.331160 Si / 1000 Ang^3
#
#
#
# Elastic Constant Matrix: (Units=GPa)
#
#
# Indices 1 2 3 4 5 6 
#
# 1 117.1809 59.9334 66.8856 0.0000 0.0000 0.0000
# 2 59.9334 161.1449 59.9694 0.0000 0.0000 0.0000
# 3 66.8856 59.9694 168.9079 0.0000 0.0000 0.0000
# 4 0.0000 0.0000 0.0000 46.2007 0.0000 0.0000
# 5 0.0000 0.0000 0.0000 0.0000 17.0895 0.0000
# 6 0.0000 0.0000 0.0000 0.0000 0.0000 29.8849
#
#
#
# Elastic Compliance Matrix: (Units=1/GPa)
#
#
# Indices 1 2 3 4 5 6 
#
# 1 0.012295 -0.003181 -0.003739 0.000000 0.000000 0.000000
# 2 -0.003181 0.007974 -0.001571 0.000000 0.000000 0.000000
# 3 -0.003739 -0.001571 0.007959 0.000000 0.000000 0.000000
# 4 0.000000 0.000000 0.000000 0.021645 0.000000 0.000000
# 5 0.000000 0.000000 0.000000 0.000000 0.058515 0.000000
# 6 0.000000 0.000000 0.000000 0.000000 0.000000 0.033462
#
#
# Mechanical properties :
#
#
# Convention : Reuss Voigt Hill
#
# Bulk Modulus (GPa) = 88.93502 91.20116 90.06809
# Shear Modulus (GPa) = 30.75389 35.99805 33.37597
#
# Velocity S-wave (km/s) = 3.89350 4.21240 4.05608
# Velocity P-wave (km/s) = 8.00316 8.28337 8.14447
#
# Compressibility (1/GPa) = 0.01124416
#
# Stress axis : x y z
#
# Youngs Moduli (GPa) = 81.33194 125.41533 125.64508
#
# Poissons Ratio (x) = 0.39899 0.46982
# Poissons Ratio (y) = 0.25874 0.19741
# Poissons Ratio (z) = 0.30412 0.19705
#
# Static dielectric constant tensor:
#      x y z
#    x 1.801440 0.000000 0.000000 
#    y 0.000000 1.734650 0.000000 
#    z 0.000000 0.000000 1.703610 
# 
# From -- ./inp_files/25813.got.cif
#   From: 2010.05.17/outbox.cif.g08.bks.cpg/sg21_13_cif.got.tgz:25813.got - 2010.06.03 23:14:55.
