data_PCOD9324241
_publ_section_title
;
Structure prediction by ZEFSAII (Michael W. Deem and Ramdas Pophale) SiO2 
 PCOD9324241
Probable space group: C 2 2 2
;
_chemical_formula_sum "Si O2"
_cell_formula_units_Z 48
_cell_length_a 16.293725
_cell_length_b 16.670683
_cell_length_c 8.175183
_cell_angle_alpha 90.000000
_cell_angle_beta 90.000000
_cell_angle_gamma 90.000000
_cell_volume 2220.604720
_symmetry_space_group_name_H-M "C 2 2 2"
_symmetry_group_IT_number 21
_symmetry_cell_setting 'orthorhombic'
loop_
_space_group_symop_operation_xyz
x,y,z
-x,-y,z
x,-y,-z
-x,y,-z
1/2+x,1/2+y,z
1/2-x,1/2-y,z
1/2+x,1/2-y,-z
1/2-x,1/2+y,-z
loop_
_atom_site_type_symbol
_atom_site_label
_atom_site_fract_x
_atom_site_fract_y
_atom_site_fract_z
Si Si1 0.182593 0.151715 0.218083
Si Si2 0.975204 0.653833 0.812349
Si Si3 0.147171 0.316454 0.351138
Si Si4 0.161676 0.568939 0.365946
Si Si5 0.329641 0.522313 0.192726
Si Si6 0.582642 0.673032 0.897344
O O1 0.152312 0.220978 0.338397
O O2 0.281351 0.150811 0.230341
O O3 0.148618 0.064622 0.265487
O O4 0.152441 0.178240 0.038250
O O5 0.914288 0.585547 0.751586
O O6 0.932350 0.742304 0.809242
O O7 0.057360 0.656606 0.704272
O O8 0.000000 0.642080 0.000000
O O9 0.169983 0.350841 0.526420
O O10 0.146495 0.500000 0.500000
O O11 0.243518 0.549276 0.267618
O O12 0.392699 0.595626 0.207750
O O13 0.321309 0.500000 0.000000
O O14 0.500000 0.655892 0.000000
#
# Coordination Sequence:
#
# PCOD9324241 Si02
#       6
#     8   8   8   8   8   8
#     4  10  21  41  72  99 143 186 229 291 360 411
#     4  11  25  45  72 105 139 184 245 293 347 429
#     4  11  23  43  69  97 146 189 229 292 355 425
#     4  12  27  48  68 104 145 189 242 289 362 426
#     4  10  24  43  73 108 140 182 242 296 353 418
#     4  10  21  43  72 114 135 176 247 296 351 420
#
# _framework density 21.615735000000001
#
# number of rings (size 3 to 8) (size 9 to 14) (size 15 to 20)
#    0.000    1.333    5.000    0.500    4.667    7.667 
#    0.000    0.833    0.000    0.000    0.000    0.000 
#    0.000    0.000    0.000    0.000    0.000    0.000 
#
# Total GULP energy -134116.493271 kJ/mol
# GULP energy per Si atom -5588.187220 kJ/mol
# Density = 2.156654 g / cm^3
# Si number density = 21.615735 Si / 1000 Ang^3
#
#
#
# Elastic Constant Matrix: (Units=GPa)
#
#
# Indices 1 2 3 4 5 6 
#
# 1 70.9151 14.4977 6.0052 0.0000 0.0000 0.0000
# 2 14.4977 79.8362 19.9118 0.0000 0.0000 0.0000
# 3 6.0052 19.9118 17.9633 0.0000 0.0000 0.0000
# 4 0.0000 0.0000 0.0000 37.3172 0.0000 0.0000
# 5 0.0000 0.0000 0.0000 0.0000 -2.4729 0.0000
# 6 0.0000 0.0000 0.0000 0.0000 0.0000 22.3373
#
#
#
# Elastic Compliance Matrix: (Units=1/GPa)
#
#
# Indices 1 2 3 4 5 6 
#
# 1 0.014740 -0.002001 -0.002710 0.000000 0.000000 0.000000
# 2 -0.002001 0.017583 -0.018822 0.000000 0.000000 0.000000
# 3 -0.002710 -0.018822 0.077438 0.000000 0.000000 0.000000
# 4 0.000000 0.000000 0.000000 0.026797 0.000000 0.000000
# 5 0.000000 0.000000 0.000000 0.000000 -0.404382 0.000000
# 6 0.000000 0.000000 0.000000 0.000000 0.000000 0.044768
#
#
# Mechanical properties :
#
#
# Convention : Reuss Voigt Hill
#
# Bulk Modulus (GPa) = 15.94976 27.72711 21.83843
# Shear Modulus (GPa) = -32.23902 19.98963 -6.12469
#
# Velocity S-wave (km/s) = -3.86613 3.04431 -1.68511
# Velocity P-wave (km/s) = 3.54041 5.02117 2.51770
#
# Compressibility (1/GPa) = 0.06269688
#
# Stress axis : x y z
#
# Youngs Moduli (GPa) = 67.84320 56.87232 12.91354
#
# Poissons Ratio (x) = 0.11379 0.03499
# Poissons Ratio (y) = 0.13574 0.24305
# Poissons Ratio (z) = 0.18384 1.07043
#
# Static dielectric constant tensor:
#      x y z
#    x 1.789880 0.000000 0.000000 
#    y 0.000000 1.841750 0.000000 
#    z 0.000000 0.000000 1.804190 
# 
# From -- ./inp_files/15010.got.cif
#   From: 2010.05.17/outbox.cif.g08.bks.cpg/sg21_8_cif.got.tgz:15010.got - 2010.06.03 23:14:55.
