data_PCOD9324004
_publ_section_title
;
Structure prediction by ZEFSAII (Michael W. Deem and Ramdas Pophale) SiO2 
 PCOD9324004
Probable space group: C 2 2 2
;
_chemical_formula_sum "Si O2"
_cell_formula_units_Z 58
_cell_length_a 10.308272
_cell_length_b 10.536474
_cell_length_c 28.673194
_cell_angle_alpha 90.000000
_cell_angle_beta 90.000000
_cell_angle_gamma 90.000000
_cell_volume 3114.277030
_symmetry_space_group_name_H-M "C 2 2 2"
_symmetry_group_IT_number 21
_symmetry_cell_setting 'orthorhombic'
loop_
_space_group_symop_operation_xyz
x,y,z
-x,-y,z
x,-y,-z
-x,y,-z
1/2+x,1/2+y,z
1/2-x,1/2-y,z
1/2+x,1/2-y,-z
1/2-x,1/2+y,-z
loop_
_atom_site_type_symbol
_atom_site_label
_atom_site_fract_x
_atom_site_fract_y
_atom_site_fract_z
Si Si1 0.645733 0.357939 0.869949
Si Si2 0.628869 0.657507 0.722104
Si Si3 0.952831 0.707958 0.343093
Si Si4 0.000000 0.500000 0.500000
Si Si5 0.794845 0.049094 0.646769
Si Si6 0.854025 0.141997 0.982140
Si Si7 0.643149 0.362038 0.168566
Si Si8 0.836505 0.369743 0.420762
O O1 0.750000 0.250000 0.855541
O O2 0.642844 0.361042 0.926057
O O3 0.680835 0.500143 0.852313
O O4 0.499340 0.329595 0.852057
O O5 0.750000 0.750000 0.714673
O O6 0.508797 0.742414 0.705601
O O7 0.645948 0.541510 0.686306
O O8 0.625957 0.620220 0.775801
O O9 0.885741 0.832669 0.364346
O O10 0.842266 0.604602 0.335593
O O11 0.063116 0.661565 0.378571
O O12 0.912994 0.417273 0.465365
O O13 0.760388 0.973354 0.600489
O O14 0.750000 0.250000 0.996699
O O15 0.000000 0.170427 0.000000
O O16 0.819983 0.000000 0.000000
O O17 0.750000 0.250000 0.160731
O O18 0.750000 0.250000 0.431830
#
# Coordination Sequence:
#
# PCOD9324004 Si02
#       8
#     8   8   8   2   8   8   8   8
#     4  10  23  41  61  89 133 173 213 274 329 384
#     4  11  22  38  61  92 122 159 200 253 299 349
#     4  11  22  37  63  91 119 153 191 239 299 350
#     4  12  28  44  68  88 124 164 188 244 312 372
#     4  11  22  37  63  91 119 153 191 239 299 350
#     4  10  21  38  62  93 126 167 219 273 334 391
#     4  10  23  40  60  87 128 173 219 261 318 387
#     4  12  24  44  66  90 122 154 194 244 296 366
#
# _framework density 18.623904
#
# number of rings (size 3 to 8) (size 9 to 14) (size 15 to 20)
#    0.000    1.241    4.138    2.069    3.862    5.241 
#    0.000    5.517    0.000    0.000    0.000    0.000 
#    0.000    0.000    0.000    0.000    0.000    0.000 
#
# Total GULP energy -161924.687439 kJ/mol
# GULP energy per Si atom -5583.609912 kJ/mol
# Density = 1.858152 g / cm^3
# Si number density = 18.623904 Si / 1000 Ang^3
#
#
#
# Elastic Constant Matrix: (Units=GPa)
#
#
# Indices 1 2 3 4 5 6 
#
# 1 100.1662 72.4912 32.0806 0.0000 0.0000 0.0000
# 2 72.4912 124.7085 42.0361 0.0000 0.0000 0.0000
# 3 32.0806 42.0361 81.9081 0.0000 0.0000 0.0000
# 4 0.0000 0.0000 0.0000 41.8079 0.0000 0.0000
# 5 0.0000 0.0000 0.0000 0.0000 15.6487 0.0000
# 6 0.0000 0.0000 0.0000 0.0000 0.0000 40.5376
#
#
#
# Elastic Compliance Matrix: (Units=1/GPa)
#
#
# Indices 1 2 3 4 5 6 
#
# 1 0.017493 -0.009503 -0.001974 0.000000 0.000000 0.000000
# 2 -0.009503 0.014858 -0.003903 0.000000 0.000000 0.000000
# 3 -0.001974 -0.003903 0.014985 0.000000 0.000000 0.000000
# 4 0.000000 0.000000 0.000000 0.023919 0.000000 0.000000
# 5 0.000000 0.000000 0.000000 0.000000 0.063903 0.000000
# 6 0.000000 0.000000 0.000000 0.000000 0.000000 0.024668
#
#
# Mechanical properties :
#
#
# Convention : Reuss Voigt Hill
#
# Bulk Modulus (GPa) = 60.33121 66.66650 63.49886
# Shear Modulus (GPa) = 25.49535 30.27718 27.88626
#
# Velocity S-wave (km/s) = 3.70396 4.03639 3.87374
# Velocity P-wave (km/s) = 7.12441 7.58928 7.36052
#
# Compressibility (1/GPa) = 0.01657517
#
# Stress axis : x y z
#
# Youngs Moduli (GPa) = 57.16520 67.30196 66.73139
#
# Poissons Ratio (x) = 0.63957 0.13176
# Poissons Ratio (y) = 0.54324 0.26049
# Poissons Ratio (z) = 0.11287 0.26271
#
# Static dielectric constant tensor:
#      x y z
#    x 1.558630 0.000000 0.000000 
#    y 0.000000 1.657780 0.000000 
#    z 0.000000 0.000000 1.660310 
# 
# From -- ./inp_files/39267.got.cif
#   From: 2010.05.17/outbox.cif.g08.bks.cpg/sg21_20_cif.got.tgz:39267.got - 2010.06.03 23:14:55.
