data_PCOD9324071
_publ_section_title
;
Structure prediction by ZEFSAII (Michael W. Deem and Ramdas Pophale) SiO2 
 PCOD9324071
Probable space group: C 2 2 2
;
_chemical_formula_sum "Si O2"
_cell_formula_units_Z 40
_cell_length_a 13.317782
_cell_length_b 16.030304
_cell_length_c 8.390892
_cell_angle_alpha 90.000000
_cell_angle_beta 90.000000
_cell_angle_gamma 90.000000
_cell_volume 1791.355541
_symmetry_space_group_name_H-M "C 2 2 2"
_symmetry_group_IT_number 21
_symmetry_cell_setting 'orthorhombic'
loop_
_space_group_symop_operation_xyz
x,y,z
-x,-y,z
x,-y,-z
-x,y,-z
1/2+x,1/2+y,z
1/2-x,1/2-y,z
1/2+x,1/2-y,-z
1/2-x,1/2+y,-z
loop_
_atom_site_type_symbol
_atom_site_label
_atom_site_fract_x
_atom_site_fract_y
_atom_site_fract_z
Si Si1 0.505790 0.230034 0.686141
Si Si2 0.708252 0.159487 0.776251
Si Si3 0.280848 0.510726 0.184797
Si Si4 0.105744 0.615515 0.092794
Si Si5 0.965727 0.911185 0.685447
O O1 0.500000 0.242385 0.500000
O O2 0.597737 0.166197 0.704899
O O3 0.415716 0.184328 0.774562
O O4 0.509270 0.324736 0.755308
O O5 0.750000 0.250000 0.737976
O O6 0.776294 0.080378 0.732607
O O7 0.684900 0.150269 0.963973
O O8 0.163784 0.538018 0.170001
O O9 0.346538 0.578340 0.280353
O O10 0.315780 0.500000 0.000000
O O11 0.000000 0.599471 0.000000
O O12 0.000000 0.913530 0.500000
O O13 0.000000 0.000000 0.757663
#
# Coordination Sequence:
#
# PCOD9324071 Si02
#       5
#     8   8   8   8   8
#     4  10  22  41  61  92 127 174 208 272 332 400
#     4  10  21  39  62  91 124 162 215 270 330 389
#     4  10  22  39  67  97 124 176 222 271 335 407
#     4   9  21  40  65  91 131 164 219 279 334 392
#     4  10  22  42  61  89 137 172 216 269 335 394
#
# _framework density 22.329459
#
# number of rings (size 3 to 8) (size 9 to 14) (size 15 to 20)
#    0.000    2.200    0.000    1.200    5.600    9.600 
#   18.000    1.000    0.000    0.000    0.000    0.000 
#    0.000    0.000    0.000    0.000    0.000    0.000 
#
# Total GULP energy -111365.809917 kJ/mol
# GULP energy per Si atom -5568.290496 kJ/mol
# Density = 2.227864 g / cm^3
# Si number density = 22.329459 Si / 1000 Ang^3
#
#
#
# Elastic Constant Matrix: (Units=GPa)
#
#
# Indices 1 2 3 4 5 6 
#
# 1 59.0082 7.0613 12.3117 0.0000 0.0000 0.0000
# 2 7.0613 99.8403 19.9060 0.0000 0.0000 0.0000
# 3 12.3117 19.9060 46.0921 0.0000 0.0000 0.0000
# 4 0.0000 0.0000 0.0000 20.8903 0.0000 0.0000
# 5 0.0000 0.0000 0.0000 0.0000 13.3957 0.0000
# 6 0.0000 0.0000 0.0000 0.0000 0.0000 31.1870
#
#
#
# Elastic Compliance Matrix: (Units=1/GPa)
#
#
# Indices 1 2 3 4 5 6 
#
# 1 0.017958 -0.000343 -0.004648 0.000000 0.000000 0.000000
# 2 -0.000343 0.010966 -0.004644 0.000000 0.000000 0.000000
# 3 -0.004648 -0.004644 0.024943 0.000000 0.000000 0.000000
# 4 0.000000 0.000000 0.000000 0.047869 0.000000 0.000000
# 5 0.000000 0.000000 0.000000 0.000000 0.074651 0.000000
# 6 0.000000 0.000000 0.000000 0.000000 0.000000 0.032065
#
#
# Mechanical properties :
#
#
# Convention : Reuss Voigt Hill
#
# Bulk Modulus (GPa) = 28.90596 31.49986 30.20291
# Shear Modulus (GPa) = 20.89815 24.13870 22.51843
#
# Velocity S-wave (km/s) = 3.06257 3.29146 3.17908
# Velocity P-wave (km/s) = 5.04768 5.34625 5.19911
#
# Compressibility (1/GPa) = 0.03459494
#
# Stress axis : x y z
#
# Youngs Moduli (GPa) = 55.68622 91.18887 40.09122
#
# Poissons Ratio (x) = 0.03130 0.18636
# Poissons Ratio (y) = 0.01912 0.18620
# Poissons Ratio (z) = 0.25886 0.42351
#
# Static dielectric constant tensor:
#      x y z
#    x 2.098380 0.000000 0.000000 
#    y 0.000000 1.930850 0.000000 
#    z 0.000000 0.000000 1.844940 
# 
# From -- ./inp_files/12718.got.cif
#   From: 2010.05.17/outbox.cif.g08.bks.cpg/sg21_7_cif.got.tgz:12718.got - 2010.06.03 23:14:55.
