data_PCOD9324014
_publ_section_title
;
Structure prediction by ZEFSAII (Michael W. Deem and Ramdas Pophale) SiO2 
 PCOD9324014
Probable space group: C 2 2 2
;
_chemical_formula_sum "Si O2"
_cell_formula_units_Z 60
_cell_length_a 11.661368
_cell_length_b 17.853466
_cell_length_c 13.322064
_cell_angle_alpha 90.000000
_cell_angle_beta 90.000000
_cell_angle_gamma 90.000000
_cell_volume 2773.598266
_symmetry_space_group_name_H-M "C 2 2 2"
_symmetry_group_IT_number 21
_symmetry_cell_setting 'orthorhombic'
loop_
_space_group_symop_operation_xyz
x,y,z
-x,-y,z
x,-y,-z
-x,y,-z
1/2+x,1/2+y,z
1/2-x,1/2-y,z
1/2+x,1/2-y,-z
1/2-x,1/2+y,-z
loop_
_atom_site_type_symbol
_atom_site_label
_atom_site_fract_x
_atom_site_fract_y
_atom_site_fract_z
Si Si1 0.148564 0.048753 0.737895
Si Si2 0.656278 0.134372 0.171807
Si Si3 0.931051 0.885403 0.189515
Si Si4 0.750000 0.750000 0.676057
Si Si5 0.230786 0.083507 0.029026
Si Si6 0.243500 0.837283 0.655641
Si Si7 0.920653 0.574263 0.202405
Si Si8 0.372362 0.373684 0.540158
O O1 0.277879 0.067634 0.767033
O O2 0.127890 0.058848 0.620016
O O3 0.066315 0.109036 0.794583
O O4 0.112327 0.967998 0.775507
O O5 0.674452 0.202404 0.247160
O O6 0.521952 0.125922 0.160097
O O7 0.717168 0.128871 0.063948
O O8 0.875744 0.874846 0.081153
O O9 0.863614 0.834308 0.267092
O O10 0.675591 0.695339 0.606231
O O11 0.330848 0.067252 0.110638
O O12 0.189591 0.000000 0.000000
O O13 0.250000 0.750000 0.625424
O O14 0.348539 0.881259 0.710842
O O15 0.208443 0.882215 0.556043
O O16 0.000000 0.500000 0.227658
O O17 0.500000 0.360559 0.500000
#
# Coordination Sequence:
#
# PCOD9324014 Si02
#       8
#     8   8   8   4   8   8   8   8
#     4  10  21  38  63  94 129 169 218 286 334 391
#     4  11  22  39  62  96 131 170 225 280 335 416
#     4  10  21  39  61  95 132 166 220 283 335 399
#     4  10  26  40  64  94 130 182 220 284 340 416
#     4  11  20  39  68  94 124 174 232 272 353 412
#     4  11  24  42  67 103 134 180 229 281 344 420
#     4  11  23  41  72  99 135 178 229 293 340 413
#     4  11  22  42  69  90 131 179 230 272 351 426
#
# _framework density 21.632549000000001
#
# number of rings (size 3 to 8) (size 9 to 14) (size 15 to 20)
#    0.000    1.333    4.667    1.200    1.867    1.067 
#    4.800    2.000    5.867    6.400    0.000    0.000 
#    0.000    0.000    0.000    0.000    0.000    0.000 
#
# Total GULP energy -167346.671208 kJ/mol
# GULP energy per Si atom -5578.222374 kJ/mol
# Density = 2.158331 g / cm^3
# Si number density = 21.632549 Si / 1000 Ang^3
#
#
#
# Elastic Constant Matrix: (Units=GPa)
#
#
# Indices 1 2 3 4 5 6 
#
# 1 101.0937 0.6904 42.3797 0.0000 0.0000 0.0000
# 2 0.6904 30.5835 13.7858 0.0000 0.0000 0.0000
# 3 42.3797 13.7858 146.1086 0.0000 0.0000 0.0000
# 4 0.0000 0.0000 0.0000 31.0341 0.0000 0.0000
# 5 0.0000 0.0000 0.0000 0.0000 30.3763 0.0000
# 6 0.0000 0.0000 0.0000 0.0000 0.0000 15.2121
#
#
#
# Elastic Compliance Matrix: (Units=1/GPa)
#
#
# Indices 1 2 3 4 5 6 
#
# 1 0.011309 0.001278 -0.003401 0.000000 0.000000 0.000000
# 2 0.001278 0.034294 -0.003606 0.000000 0.000000 0.000000
# 3 -0.003401 -0.003606 0.008171 0.000000 0.000000 0.000000
# 4 0.000000 0.000000 0.000000 0.032223 0.000000 0.000000
# 5 0.000000 0.000000 0.000000 0.000000 0.032920 0.000000
# 6 0.000000 0.000000 0.000000 0.000000 0.000000 0.065737
#
#
# Mechanical properties :
#
#
# Convention : Reuss Voigt Hill
#
# Bulk Modulus (GPa) = 23.63238 43.49973 33.56605
# Shear Modulus (GPa) = 23.78490 30.05317 26.91904
#
# Velocity S-wave (km/s) = 3.31946 3.73132 3.53140
# Velocity P-wave (km/s) = 5.06359 6.22220 5.67255
#
# Compressibility (1/GPa) = 0.04231483
#
# Stress axis : x y z
#
# Youngs Moduli (GPa) = 88.42745 29.15955 122.38577
#
# Poissons Ratio (x) = -0.03725 0.41620
# Poissons Ratio (y) = -0.11298 0.44136
# Poissons Ratio (z) = 0.30072 0.10516
#
# Static dielectric constant tensor:
#      x y z
#    x 1.802690 0.000000 0.000000 
#    y 0.000000 1.978410 0.000000 
#    z 0.000000 0.000000 1.788420 
# 
# From -- ./inp_files/24285.got.cif
#   From: 2010.05.17/outbox.cif.g08.bks.cpg/sg21_13_cif.got.tgz:24285.got - 2010.06.03 23:14:55.
