data_PCOD9324729
_publ_section_title
;
Structure prediction by ZEFSAII (Michael W. Deem and Ramdas Pophale) SiO2 
 PCOD9324729
Probable space group: C 2 2 2
;
_chemical_formula_sum "Si O2"
_cell_formula_units_Z 18
_cell_length_a 27.268423
_cell_length_b 5.627235
_cell_length_c 4.991423
_cell_angle_alpha 90.000000
_cell_angle_beta 90.000000
_cell_angle_gamma 90.000000
_cell_volume 765.913017
_symmetry_space_group_name_H-M "C 2 2 2"
_symmetry_group_IT_number 21
_symmetry_cell_setting 'orthorhombic'
loop_
_space_group_symop_operation_xyz
x,y,z
-x,-y,z
x,-y,-z
-x,y,-z
1/2+x,1/2+y,z
1/2-x,1/2-y,z
1/2+x,1/2-y,-z
1/2-x,1/2+y,-z
loop_
_atom_site_type_symbol
_atom_site_label
_atom_site_fract_x
_atom_site_fract_y
_atom_site_fract_z
Si Si1 0.500000 0.000000 0.000000
Si Si2 0.579870 0.335169 0.746757
Si Si3 0.839356 0.500000 0.500000
Si Si4 0.250000 0.750000 0.370263
O O1 0.464428 0.836729 0.825005
O O2 0.565572 0.500000 0.500000
O O3 0.626266 0.180762 0.655774
O O4 0.591335 0.500000 0.000000
O O5 0.802671 0.363132 0.291090
O O6 0.268834 0.500000 0.500000
#
# Coordination Sequence:
#
# PCOD9324729 Si02
#       4
#     2   8   4   4
#     4  12  30  50  76 116 156 210 266 334 402 484
#     4  12  28  49  80 113 159 209 265 333 402 483
#     4  10  22  45  80 114 160 203 270 328 396 482
#     4   8  18  38  74 112 152 206 260 318 392 468
#
# _framework density 23.501363000000001
#
# number of rings (size 3 to 8) (size 9 to 14) (size 15 to 20)
#    1.333    0.000    0.000    4.667    0.000   13.333 
#    0.000    0.000   14.667    0.000    0.000    0.000 
#    0.000    0.000    0.000    0.000    0.000    0.000 
#
# Total GULP energy -50116.099313 kJ/mol
# GULP energy per Si atom -5568.455479 kJ/mol
# Density = 2.344787 g / cm^3
# Si number density = 23.501363 Si / 1000 Ang^3
#
#
#
# Elastic Constant Matrix: (Units=GPa)
#
#
# Indices 1 2 3 4 5 6 
#
# 1 221.5055 105.2642 70.9927 0.0000 0.0000 0.0000
# 2 105.2642 194.7849 86.9067 0.0000 0.0000 0.0000
# 3 70.9927 86.9067 135.0139 0.0000 0.0000 0.0000
# 4 0.0000 0.0000 0.0000 24.0360 0.0000 0.0000
# 5 0.0000 0.0000 0.0000 0.0000 -46.1840 0.0000
# 6 0.0000 0.0000 0.0000 0.0000 0.0000 -6.9331
#
#
#
# Elastic Compliance Matrix: (Units=1/GPa)
#
#
# Indices 1 2 3 4 5 6 
#
# 1 0.006304 -0.002705 -0.001574 0.000000 0.000000 0.000000
# 2 -0.002705 0.008363 -0.003961 0.000000 0.000000 0.000000
# 3 -0.001574 -0.003961 0.010784 0.000000 0.000000 0.000000
# 4 0.000000 0.000000 0.000000 0.041604 0.000000 0.000000
# 5 0.000000 0.000000 0.000000 0.000000 -0.021653 0.000000
# 6 0.000000 0.000000 0.000000 0.000000 0.000000 -0.144235
#
#
# Mechanical properties :
#
#
# Convention : Reuss Voigt Hill
#
# Bulk Modulus (GPa) = 111.45876 119.73685 115.59781
# Shear Modulus (GPa) = -63.00168 13.39316 -24.80426
#
# Velocity S-wave (km/s) = -5.18323 2.38982 -3.25228
# Velocity P-wave (km/s) = 3.42174 7.65993 5.93223
#
# Compressibility (1/GPa) = 0.00897193
#
# Stress axis : x y z
#
# Youngs Moduli (GPa) = 158.62075 119.57870 92.73205
#
# Poissons Ratio (x) = 0.32342 0.14596
# Poissons Ratio (y) = 0.42902 0.36729
# Poissons Ratio (z) = 0.24966 0.47362
#
# Static dielectric constant tensor:
#      x y z
#    x 1.870060 0.000000 0.000000 
#    y 0.000000 1.867450 0.000000 
#    z 0.000000 0.000000 2.021500 
# 
# From -- ./inp_files/6995.got.cif
#   From: 2010.05.17/outbox.cif.g08.bks.cpg/sg21_4_cif.got.tgz:6995.got - 2010.06.03 23:14:55.
