data_PCOD9324593
_publ_section_title
;
Structure prediction by ZEFSAII (Michael W. Deem and Ramdas Pophale) SiO2 
 PCOD9324593
Probable space group: C 2 2 2
;
_chemical_formula_sum "Si O2"
_cell_formula_units_Z 32
_cell_length_a 11.003598
_cell_length_b 10.173187
_cell_length_c 12.143668
_cell_angle_alpha 90.000000
_cell_angle_beta 90.000000
_cell_angle_gamma 90.000000
_cell_volume 1359.382356
_symmetry_space_group_name_H-M "C 2 2 2"
_symmetry_group_IT_number 21
_symmetry_cell_setting 'orthorhombic'
loop_
_space_group_symop_operation_xyz
x,y,z
-x,-y,z
x,-y,-z
-x,y,-z
1/2+x,1/2+y,z
1/2-x,1/2-y,z
1/2+x,1/2-y,-z
1/2-x,1/2+y,-z
loop_
_atom_site_type_symbol
_atom_site_label
_atom_site_fract_x
_atom_site_fract_y
_atom_site_fract_z
Si Si1 0.557475 0.816420 0.617837
Si Si2 0.750000 0.250000 0.105476
Si Si3 0.119207 0.808854 0.779503
Si Si4 0.000000 0.785921 0.000000
Si Si5 0.793051 0.069129 0.310626
O O1 0.500000 0.833451 0.500000
O O2 0.461469 0.798812 0.716448
O O3 0.657726 0.927142 0.641336
O O4 0.629522 0.676910 0.623398
O O5 0.625837 0.217033 0.040185
O O6 0.779617 0.129340 0.187461
O O7 0.250000 0.750000 0.808166
O O8 0.143951 0.929811 0.698081
O O9 0.049788 0.854337 0.889497
#
# Coordination Sequence:
#
# PCOD9324593 Si02
#       5
#     8   4   8   4   8
#     4  10  23  47  72  99 138 179 240 305 369 439
#     4  10  22  42  66  98 138 184 248 304 356 440
#     4  12  26  42  68 105 144 191 239 299 375 440
#     4  12  22  45  67 102 144 194 249 301 372 442
#     4  10  23  45  69 100 137 183 244 298 360 447
#
# _framework density 23.540101
#
# number of rings (size 3 to 8) (size 9 to 14) (size 15 to 20)
#    0.000    1.500    6.250    0.750    3.500    5.000 
#    0.000    2.500    0.000    0.000    0.000    0.000 
#    0.000    0.000    0.000    0.000    0.000    0.000 
#
# Total GULP energy -89411.071694 kJ/mol
# GULP energy per Si atom -5588.191981 kJ/mol
# Density = 2.348652 g / cm^3
# Si number density = 23.540101 Si / 1000 Ang^3
#
#
#
# Elastic Constant Matrix: (Units=GPa)
#
#
# Indices 1 2 3 4 5 6 
#
# 1 184.8670 19.8848 68.3208 0.0000 0.0000 0.0000
# 2 19.8848 58.2178 5.5054 0.0000 0.0000 0.0000
# 3 68.3208 5.5054 121.9622 0.0000 0.0000 0.0000
# 4 0.0000 0.0000 0.0000 -92.3458 0.0000 0.0000
# 5 0.0000 0.0000 0.0000 0.0000 52.7893 0.0000
# 6 0.0000 0.0000 0.0000 0.0000 0.0000 21.2652
#
#
#
# Elastic Compliance Matrix: (Units=1/GPa)
#
#
# Indices 1 2 3 4 5 6 
#
# 1 0.007056 -0.002045 -0.003860 0.000000 0.000000 0.000000
# 2 -0.002045 0.017843 0.000340 0.000000 0.000000 0.000000
# 3 -0.003860 0.000340 0.010346 0.000000 0.000000 0.000000
# 4 0.000000 0.000000 0.000000 -0.010829 0.000000 0.000000
# 5 0.000000 0.000000 0.000000 0.000000 0.018943 0.000000
# 6 0.000000 0.000000 0.000000 0.000000 0.000000 0.047025
#
#
# Mechanical properties :
#
#
# Convention : Reuss Voigt Hill
#
# Bulk Modulus (GPa) = 41.46763 61.38546 51.42654
# Shear Modulus (GPa) = 45.63980 14.43082 30.03531
#
# Velocity S-wave (km/s) = 4.40797 2.47863 3.57588
# Velocity P-wave (km/s) = 6.60007 5.85876 6.24043
#
# Compressibility (1/GPa) = 0.02411520
#
# Stress axis : x y z
#
# Youngs Moduli (GPa) = 141.72580 56.04381 96.65245
#
# Poissons Ratio (x) = 0.11461 0.37310
# Poissons Ratio (y) = 0.28982 -0.03287
# Poissons Ratio (z) = 0.54710 -0.01906
#
# Static dielectric constant tensor:
#      x y z
#    x 2.126690 0.000000 0.000000 
#    y 0.000000 1.905370 0.000000 
#    z 0.000000 0.000000 1.855960 
# 
# From -- ./inp_files/23458.got.cif
#   From: 2010.05.17/outbox.cif.g08.bks.cpg/sg21_12_cif.got.tgz:23458.got - 2010.06.03 23:14:55.
