data_PCOD9324543
_publ_section_title
;
Structure prediction by ZEFSAII (Michael W. Deem and Ramdas Pophale) SiO2 
 PCOD9324543
Probable space group: C 2 2 2
;
_chemical_formula_sum "Si O2"
_cell_formula_units_Z 48
_cell_length_a 26.147567
_cell_length_b 5.050617
_cell_length_c 16.695157
_cell_angle_alpha 90.000000
_cell_angle_beta 90.000000
_cell_angle_gamma 90.000000
_cell_volume 2204.784912
_symmetry_space_group_name_H-M "C 2 2 2"
_symmetry_group_IT_number 21
_symmetry_cell_setting 'orthorhombic'
loop_
_space_group_symop_operation_xyz
x,y,z
-x,-y,z
x,-y,-z
-x,y,-z
1/2+x,1/2+y,z
1/2-x,1/2-y,z
1/2+x,1/2-y,-z
1/2-x,1/2+y,-z
loop_
_atom_site_type_symbol
_atom_site_label
_atom_site_fract_x
_atom_site_fract_y
_atom_site_fract_z
Si Si1 0.582164 0.258247 0.554546
Si Si2 0.082187 0.047364 0.912434
Si Si3 0.500000 0.500000 0.218599
Si Si4 0.808797 0.349755 0.584755
Si Si5 0.000000 0.500000 0.674510
Si Si6 0.286565 0.003449 0.753945
Si Si7 0.148020 0.551823 0.912075
O O1 0.562294 0.500000 0.500000
O O2 0.640097 0.333021 0.582503
O O3 0.543586 0.147892 0.621787
O O4 0.587646 0.000000 0.500000
O O5 0.099426 0.352182 0.908018
O O6 0.046938 0.948549 0.840891
O O7 0.131487 0.857121 0.910300
O O8 0.058628 0.000000 0.000000
O O9 0.483140 0.753992 0.270410
O O10 0.808702 0.500000 0.500000
O O11 0.750000 0.250000 0.589471
O O12 0.816086 0.502461 0.668820
O O13 0.250000 0.250000 0.752144
O O14 0.250000 0.750000 0.758248
O O15 0.320132 0.008658 0.833304
O O16 0.172117 0.500000 0.000000
#
# Coordination Sequence:
#
# PCOD9324543 Si02
#       7
#     8   8   4   8   4   8   8
#     4  11  25  46  71  95 134 185 224 282 343 412
#     4  10  22  41  65  94 131 178 226 281 351 413
#     4  12  25  40  67  98 136 174 224 296 341 416
#     4  10  22  41  69 100 134 172 230 282 350 413
#     4  12  27  44  65 108 136 182 234 282 351 424
#     4  11  24  40  63  97 133 176 220 285 349 415
#     4  10  22  41  65  94 132 178 228 283 343 425
#
# _framework density 21.770831999999999
#
# number of rings (size 3 to 8) (size 9 to 14) (size 15 to 20)
#    0.000    1.333    0.000    4.500    4.667    5.333 
#    0.000    3.333    0.000    0.000    0.000    0.000 
#    0.000    0.000    0.000    0.000    0.000    0.000 
#
# Total GULP energy -133858.404971 kJ/mol
# GULP energy per Si atom -5577.433540 kJ/mol
# Density = 2.172128 g / cm^3
# Si number density = 21.770832 Si / 1000 Ang^3
#
#
#
# Elastic Constant Matrix: (Units=GPa)
#
#
# Indices 1 2 3 4 5 6 
#
# 1 75.2862 14.9220 60.2061 0.0000 0.0000 0.0000
# 2 14.9220 111.3574 29.8664 0.0000 0.0000 0.0000
# 3 60.2061 29.8664 186.3475 0.0000 0.0000 0.0000
# 4 0.0000 0.0000 0.0000 34.1508 0.0000 0.0000
# 5 0.0000 0.0000 0.0000 0.0000 55.2510 0.0000
# 6 0.0000 0.0000 0.0000 0.0000 0.0000 33.3844
#
#
#
# Elastic Compliance Matrix: (Units=1/GPa)
#
#
# Indices 1 2 3 4 5 6 
#
# 1 0.017994 -0.000890 -0.005671 0.000000 0.000000 0.000000
# 2 -0.000890 0.009427 -0.001223 0.000000 0.000000 0.000000
# 3 -0.005671 -0.001223 0.007395 0.000000 0.000000 0.000000
# 4 0.000000 0.000000 0.000000 0.029282 0.000000 0.000000
# 5 0.000000 0.000000 0.000000 0.000000 0.018099 0.000000
# 6 0.000000 0.000000 0.000000 0.000000 0.000000 0.029954
#
#
# Mechanical properties :
#
#
# Convention : Reuss Voigt Hill
#
# Bulk Modulus (GPa) = 51.95586 64.77558 58.36572
# Shear Modulus (GPa) = 37.27553 42.42369 39.84961
#
# Velocity S-wave (km/s) = 4.14234 4.41914 4.28297
# Velocity P-wave (km/s) = 6.84071 7.47371 7.16420
#
# Compressibility (1/GPa) = 0.01924711
#
# Stress axis : x y z
#
# Youngs Moduli (GPa) = 55.57362 106.07275 135.23400
#
# Poissons Ratio (x) = 0.09443 0.76691
# Poissons Ratio (y) = 0.04948 0.16544
# Poissons Ratio (z) = 0.31516 0.12976
#
# Static dielectric constant tensor:
#      x y z
#    x 1.856760 0.000000 0.000000 
#    y 0.000000 1.772220 0.000000 
#    z 0.000000 0.000000 1.797350 
# 
# From -- ./inp_files/33823.got.cif
#   From: 2010.05.17/outbox.cif.g08.bks.cpg/sg21_17_cif.got.tgz:33823.got - 2010.06.03 23:14:55.
