data_PCOD9324878
_publ_section_title
;
Structure prediction by ZEFSAII (Michael W. Deem and Ramdas Pophale) SiO2 
 PCOD9324878
Probable space group: C 2 2 2
;
_chemical_formula_sum "Si O2"
_cell_formula_units_Z 48
_cell_length_a 9.216812
_cell_length_b 12.461861
_cell_length_c 17.830704
_cell_angle_alpha 90.000000
_cell_angle_beta 90.000000
_cell_angle_gamma 90.000000
_cell_volume 2048.010234
_symmetry_space_group_name_H-M "C 2 2 2"
_symmetry_group_IT_number 21
_symmetry_cell_setting 'orthorhombic'
loop_
_space_group_symop_operation_xyz
x,y,z
-x,-y,z
x,-y,-z
-x,y,-z
1/2+x,1/2+y,z
1/2-x,1/2-y,z
1/2+x,1/2-y,-z
1/2-x,1/2+y,-z
loop_
_atom_site_type_symbol
_atom_site_label
_atom_site_fract_x
_atom_site_fract_y
_atom_site_fract_z
Si Si1 0.250000 0.750000 0.162999
Si Si2 0.841755 0.838523 0.390778
Si Si3 0.277671 0.577779 0.883259
Si Si4 0.168189 0.522791 0.717209
Si Si5 0.471720 0.227430 0.081286
Si Si6 0.000000 0.000000 0.000000
Si Si7 0.500000 0.500000 0.500000
Si Si8 0.087066 0.886678 0.285328
O O1 0.372665 0.806441 0.112823
O O2 0.147490 0.822293 0.214896
O O3 0.750000 0.750000 0.434468
O O4 0.721043 0.876809 0.330620
O O5 0.983880 0.818423 0.338965
O O6 0.900046 0.927225 0.447353
O O7 0.221311 0.537826 0.803018
O O8 0.385040 0.681189 0.873073
O O9 0.137350 0.628072 0.924856
O O10 0.371570 0.497859 0.933642
O O11 0.261517 0.427051 0.680147
O O12 0.000000 0.500000 0.716266
O O13 0.500000 0.281715 0.000000
O O14 0.000000 0.000000 0.270274
#
# Coordination Sequence:
#
# PCOD9324878 Si02
#       8
#     4   8   8   8   8   2   2   8
#     4  12  24  40  74  98 134 196 246 306 380 442
#     4  11  26  50  82 113 155 200 242 299 372 445
#     4  11  26  42  65  94 138 189 244 312 377 448
#     4  11  24  44  72 112 146 188 251 321 374 442
#     4  11  24  43  62  95 133 187 250 311 376 448
#     4  12  28  42  66  92 136 196 254 304 408 436
#     4  12  24  62  78 114 168 202 238 296 364 468
#     4  10  23  45  70 108 145 185 243 308 361 433
#
# _framework density 23.437381999999999
#
# number of rings (size 3 to 8) (size 9 to 14) (size 15 to 20)
#    0.000    1.000    3.333    4.000   12.833    1.333 
#    4.500    0.000    0.000    0.000    0.000    0.000 
#    0.000    0.000    0.000    0.000    0.000    0.000 
#
# Total GULP energy -133789.401001 kJ/mol
# GULP energy per Si atom -5574.558375 kJ/mol
# Density = 2.338404 g / cm^3
# Si number density = 23.437382 Si / 1000 Ang^3
#
#
#
# Elastic Constant Matrix: (Units=GPa)
#
#
# Indices 1 2 3 4 5 6 
#
# 1 227.4734 45.9191 67.3801 0.0000 0.0000 0.0000
# 2 45.9191 41.9797 27.2263 0.0000 0.0000 0.0000
# 3 67.3801 27.2263 88.0184 0.0000 0.0000 0.0000
# 4 0.0000 0.0000 0.0000 -129.9827 0.0000 0.0000
# 5 0.0000 0.0000 0.0000 0.0000 -8.7534 0.0000
# 6 0.0000 0.0000 0.0000 0.0000 0.0000 45.7095
#
#
#
# Elastic Compliance Matrix: (Units=1/GPa)
#
#
# Indices 1 2 3 4 5 6 
#
# 1 0.006363 -0.004755 -0.003400 0.000000 0.000000 0.000000
# 2 -0.004755 0.033352 -0.006677 0.000000 0.000000 0.000000
# 3 -0.003400 -0.006677 0.016030 0.000000 0.000000 0.000000
# 4 0.000000 0.000000 0.000000 -0.007693 0.000000 0.000000
# 5 0.000000 0.000000 0.000000 0.000000 -0.114242 0.000000
# 6 0.000000 0.000000 0.000000 0.000000 0.000000 0.021877
#
#
# Mechanical properties :
#
#
# Convention : Reuss Voigt Hill
#
# Bulk Modulus (GPa) = 38.34182 70.94693 54.64437
# Shear Modulus (GPa) = -839.63533 -4.14224 -421.88878
#
# Velocity S-wave (km/s) = -18.94793 -1.33086 -13.43122
# Velocity P-wave (km/s) = 21.50125 5.28914 14.73650
#
# Compressibility (1/GPa) = 0.02608119
#
# Stress axis : x y z
#
# Youngs Moduli (GPa) = 157.15332 29.98278 62.38477
#
# Poissons Ratio (x) = 0.14257 0.21213
# Poissons Ratio (y) = 0.74727 0.41652
# Poissons Ratio (z) = 0.53437 0.20018
#
# Static dielectric constant tensor:
#      x y z
#    x 1.861880 0.000000 0.000000 
#    y 0.000000 2.323680 0.000000 
#    z 0.000000 0.000000 1.875650 
# 
# From -- ./inp_files/35749.got.cif
#   From: 2010.05.17/outbox.cif.g08.bks.cpg/sg21_18_cif.got.tgz:35749.got - 2010.06.03 23:14:55.
