data_PCOD9324396
_publ_section_title
;
Structure prediction by ZEFSAII (Michael W. Deem and Ramdas Pophale) SiO2 
 PCOD9324396
Probable space group: C 2 2 2
;
_chemical_formula_sum "Si O2"
_cell_formula_units_Z 32
_cell_length_a 14.319734
_cell_length_b 8.685999
_cell_length_c 12.180949
_cell_angle_alpha 90.000000
_cell_angle_beta 90.000000
_cell_angle_gamma 90.000000
_cell_volume 1515.080995
_symmetry_space_group_name_H-M "C 2 2 2"
_symmetry_group_IT_number 21
_symmetry_cell_setting 'orthorhombic'
loop_
_space_group_symop_operation_xyz
x,y,z
-x,-y,z
x,-y,-z
-x,y,-z
1/2+x,1/2+y,z
1/2-x,1/2-y,z
1/2+x,1/2-y,-z
1/2-x,1/2+y,-z
loop_
_atom_site_type_symbol
_atom_site_label
_atom_site_fract_x
_atom_site_fract_y
_atom_site_fract_z
Si Si1 0.138281 0.546584 0.616751
Si Si2 0.000000 0.214588 0.500000
Si Si3 0.612151 0.487799 0.871709
Si Si4 0.857293 0.783128 0.674325
Si Si5 0.250000 0.250000 0.224361
O O1 0.182008 0.500000 0.500000
O O2 0.064751 0.674625 0.575824
O O3 0.103000 0.391970 0.676626
O O4 0.210830 0.619300 0.697634
O O5 0.925358 0.136852 0.416321
O O6 0.500000 0.500000 0.863474
O O7 0.643941 0.622381 0.787426
O O8 0.662924 0.328914 0.837066
O O9 0.636897 0.500000 0.000000
O O10 0.750000 0.750000 0.641175
#
# Coordination Sequence:
#
# PCOD9324396 Si02
#       5
#     8   4   8   8   4
#     4  10  22  38  62  95 137 174 221 276 352 432
#     4  10  23  40  65 102 145 178 223 292 359 448
#     4  11  27  48  69 101 138 181 244 305 349 416
#     4  11  21  43  68  97 138 184 227 288 354 422
#     4  12  24  40  70 100 128 186 236 282 366 424
#
# _framework density 21.120985000000001
#
# number of rings (size 3 to 8) (size 9 to 14) (size 15 to 20)
#    0.000    1.250    2.500    4.875    8.750    0.000 
#    0.000    6.875    0.000    3.000    0.000    0.000 
#    0.000    0.000    0.000    0.000    0.000    0.000 
#
# Total GULP energy -89113.464541 kJ/mol
# GULP energy per Si atom -5569.591534 kJ/mol
# Density = 2.107291 g / cm^3
# Si number density = 21.120985 Si / 1000 Ang^3
#
#
#
# Elastic Constant Matrix: (Units=GPa)
#
#
# Indices 1 2 3 4 5 6 
#
# 1 104.8186 8.7551 59.1236 0.0000 0.0000 0.0000
# 2 8.7551 70.1624 59.2512 0.0000 0.0000 0.0000
# 3 59.1236 59.2512 144.8281 0.0000 0.0000 0.0000
# 4 0.0000 0.0000 0.0000 26.3383 0.0000 0.0000
# 5 0.0000 0.0000 0.0000 0.0000 36.3593 0.0000
# 6 0.0000 0.0000 0.0000 0.0000 0.0000 26.0906
#
#
#
# Elastic Compliance Matrix: (Units=1/GPa)
#
#
# Indices 1 2 3 4 5 6 
#
# 1 0.013246 0.004452 -0.007229 0.000000 0.000000 0.000000
# 2 0.004452 0.023272 -0.011338 0.000000 0.000000 0.000000
# 3 -0.007229 -0.011338 0.014494 0.000000 0.000000 0.000000
# 4 0.000000 0.000000 0.000000 0.037968 0.000000 0.000000
# 5 0.000000 0.000000 0.000000 0.000000 0.027503 0.000000
# 6 0.000000 0.000000 0.000000 0.000000 0.000000 0.038328
#
#
# Mechanical properties :
#
#
# Convention : Reuss Voigt Hill
#
# Bulk Modulus (GPa) = 43.89474 63.78545 53.84010
# Shear Modulus (GPa) = 26.22807 30.60291 28.41549
#
# Velocity S-wave (km/s) = 3.52774 3.81062 3.67190
# Velocity P-wave (km/s) = 6.11727 7.04462 6.59726
#
# Compressibility (1/GPa) = 0.02278177
#
# Stress axis : x y z
#
# Youngs Moduli (GPa) = 75.49572 42.96982 68.99261
#
# Poissons Ratio (x) = -0.19128 0.49872
# Poissons Ratio (y) = -0.33607 0.78225
# Poissons Ratio (z) = 0.54573 0.48720
#
# Static dielectric constant tensor:
#      x y z
#    x 1.880630 0.000000 0.000000 
#    y 0.000000 1.891230 0.000000 
#    z 0.000000 0.000000 1.751220 
# 
# From -- ./inp_files/21992.got.cif
#   From: 2010.05.17/outbox.cif.g08.bks.cpg/sg21_11_cif.got.tgz:21992.got - 2010.06.03 23:14:55.
