data_PCOD9324974
_publ_section_title
;
Structure prediction by ZEFSAII (Michael W. Deem and Ramdas Pophale) SiO2 
 PCOD9324974
Probable space group: C 2 2 2
;
_chemical_formula_sum "Si O2"
_cell_formula_units_Z 36
_cell_length_a 14.677240
_cell_length_b 13.374723
_cell_length_c 9.045096
_cell_angle_alpha 90.000000
_cell_angle_beta 90.000000
_cell_angle_gamma 90.000000
_cell_volume 1775.588701
_symmetry_space_group_name_H-M "C 2 2 2"
_symmetry_group_IT_number 21
_symmetry_cell_setting 'orthorhombic'
loop_
_space_group_symop_operation_xyz
x,y,z
-x,-y,z
x,-y,-z
-x,y,-z
1/2+x,1/2+y,z
1/2-x,1/2-y,z
1/2+x,1/2-y,-z
1/2-x,1/2+y,-z
loop_
_atom_site_type_symbol
_atom_site_label
_atom_site_fract_x
_atom_site_fract_y
_atom_site_fract_z
Si Si1 0.586285 0.689562 0.907700
Si Si2 0.750000 0.750000 0.105107
Si Si3 0.659813 0.122827 0.642461
Si Si4 0.099741 0.790255 0.428106
Si Si5 0.691341 0.500000 0.500000
Si Si6 0.500000 0.500000 0.000000
Si Si7 0.500000 0.000000 0.500000
O O1 0.595721 0.733626 0.745353
O O2 0.500000 0.733544 0.000000
O O3 0.678175 0.694585 0.000714
O O4 0.558304 0.573078 0.897908
O O5 0.685748 0.818951 0.208578
O O6 0.658534 0.208000 0.515137
O O7 0.739943 0.042228 0.623384
O O8 0.565533 0.065315 0.607078
O O9 0.135437 0.903082 0.450591
O O10 0.000000 0.785704 0.500000
#
# Coordination Sequence:
#
# PCOD9324974 Si02
#       7
#     8   4   8   8   4   2   2
#     4  10  26  41  67  97 138 178 218 286 350 396
#     4  12  24  46  68  96 140 188 220 278 350 404
#     4  11  24  43  70  97 138 176 231 280 330 405
#     4  12  24  43  72  96 133 176 227 277 339 405
#     4  11  25  37  71 104 124 172 235 279 329 393
#     4   8  24  44  62  96 138 166 226 288 352 400
#     4  10  24  44  70 100 138 176 236 280 336 384
#
# _framework density 20.274965000000002
#
# number of rings (size 3 to 8) (size 9 to 14) (size 15 to 20)
#    0.667    0.444    3.333    1.667    9.333    0.000 
#    0.000    0.000    0.000    1.333    0.000    0.000 
#    0.000    0.000    0.000    0.000    0.000    0.000 
#
# Total GULP energy -100371.697728 kJ/mol
# GULP energy per Si atom -5576.205429 kJ/mol
# Density = 2.022882 g / cm^3
# Si number density = 20.274965 Si / 1000 Ang^3
#
#
#
# Elastic Constant Matrix: (Units=GPa)
#
#
# Indices 1 2 3 4 5 6 
#
# 1 126.9005 40.3932 49.8380 0.0000 0.0000 0.0000
# 2 40.3932 91.5811 27.3411 0.0000 0.0000 0.0000
# 3 49.8380 27.3411 125.6463 0.0000 0.0000 0.0000
# 4 0.0000 0.0000 0.0000 -58.7169 0.0000 0.0000
# 5 0.0000 0.0000 0.0000 0.0000 15.5962 0.0000
# 6 0.0000 0.0000 0.0000 0.0000 0.0000 34.7818
#
#
#
# Elastic Compliance Matrix: (Units=1/GPa)
#
#
# Indices 1 2 3 4 5 6 
#
# 1 0.010316 -0.003560 -0.003317 0.000000 0.000000 0.000000
# 2 -0.003560 0.012906 -0.001396 0.000000 0.000000 0.000000
# 3 -0.003317 -0.001396 0.009579 0.000000 0.000000 0.000000
# 4 0.000000 0.000000 0.000000 -0.017031 0.000000 0.000000
# 5 0.000000 0.000000 0.000000 0.000000 0.064118 0.000000
# 6 0.000000 0.000000 0.000000 0.000000 0.000000 0.028751
#
#
# Mechanical properties :
#
#
# Convention : Reuss Voigt Hill
#
# Bulk Modulus (GPa) = 61.52365 64.36364 62.94365
# Shear Modulus (GPa) = 38.28378 13.43593 25.85985
#
# Velocity S-wave (km/s) = 4.35009 2.57706 3.57523
# Velocity P-wave (km/s) = 7.45933 6.37725 6.93941
#
# Compressibility (1/GPa) = 0.01625391
#
# Stress axis : x y z
#
# Youngs Moduli (GPa) = 96.93608 77.48179 104.39996
#
# Poissons Ratio (x) = 0.27581 0.34633
# Poissons Ratio (y) = 0.34506 0.14579
# Poissons Ratio (z) = 0.32157 0.10820
#
# Static dielectric constant tensor:
#      x y z
#    x 1.773920 0.000000 0.000000 
#    y 0.000000 1.747680 0.000000 
#    z 0.000000 0.000000 1.701480 
# 
# From -- ./inp_files/14462.got.cif
#   From: 2010.05.17/outbox.cif.g08.bks.cpg/sg21_8_cif.got.tgz:14462.got - 2010.06.03 23:14:55.
