data_PCOD9324684
_publ_section_title
;
Structure prediction by ZEFSAII (Michael W. Deem and Ramdas Pophale) SiO2 
 PCOD9324684
Probable space group: C 2 2 2
;
_chemical_formula_sum "Si O2"
_cell_formula_units_Z 22
_cell_length_a 30.700644
_cell_length_b 4.956556
_cell_length_c 6.249428
_cell_angle_alpha 90.000000
_cell_angle_beta 90.000000
_cell_angle_gamma 90.000000
_cell_volume 950.972092
_symmetry_space_group_name_H-M "C 2 2 2"
_symmetry_group_IT_number 21
_symmetry_cell_setting 'orthorhombic'
loop_
_space_group_symop_operation_xyz
x,y,z
-x,-y,z
x,-y,-z
-x,y,-z
1/2+x,1/2+y,z
1/2-x,1/2-y,z
1/2+x,1/2-y,-z
1/2-x,1/2+y,-z
loop_
_atom_site_type_symbol
_atom_site_label
_atom_site_fract_x
_atom_site_fract_y
_atom_site_fract_z
Si Si1 0.659849 0.756093 0.348672
Si Si2 0.222482 0.000000 0.000000
Si Si3 0.500000 0.500000 0.000000
Si Si4 0.061446 0.257969 0.344431
O O1 0.655192 0.500000 0.500000
O O2 0.610925 0.819087 0.266940
O O3 0.674945 0.000000 0.500000
O O4 0.692622 0.663190 0.166359
O O5 0.250000 0.250000 0.899938
O O6 0.530262 0.685665 0.149480
O O7 0.048298 0.500000 0.500000
O O8 0.061607 0.000000 0.500000
#
# Coordination Sequence:
#
# PCOD9324684 Si02
#       4
#     8   4   2   8
#     4  10  22  44  68  93 135 183 224 274 336 406
#     4  12  25  40  66 105 138 171 228 286 341 410
#     4  12  24  42  72 100 144 182 218 298 354 372
#     4  10  24  43  66  99 135 180 234 275 332 415
#
# _framework density 23.134222000000001
#
# number of rings (size 3 to 8) (size 9 to 14) (size 15 to 20)
#    0.000    1.455    0.000    3.818    0.000    8.727 
#    0.000   10.909    0.000    0.000    0.000    0.000 
#    0.000    0.000    0.000    0.000    0.000    0.000 
#
# Total GULP energy -61569.778627 kJ/mol
# GULP energy per Si atom -5597.252602 kJ/mol
# Density = 2.308157 g / cm^3
# Si number density = 23.134222 Si / 1000 Ang^3
#
#
#
# Elastic Constant Matrix: (Units=GPa)
#
#
# Indices 1 2 3 4 5 6 
#
# 1 150.4667 62.4465 97.7173 0.0000 0.0000 0.0000
# 2 62.4465 189.9201 75.2827 0.0000 0.0000 0.0000
# 3 97.7173 75.2827 136.6087 0.0000 0.0000 0.0000
# 4 0.0000 0.0000 0.0000 42.5264 0.0000 0.0000
# 5 0.0000 0.0000 0.0000 0.0000 55.1533 0.0000
# 6 0.0000 0.0000 0.0000 0.0000 0.0000 -10.7246
#
#
#
# Elastic Compliance Matrix: (Units=1/GPa)
#
#
# Indices 1 2 3 4 5 6 
#
# 1 0.012489 -0.000723 -0.008535 0.000000 0.000000 0.000000
# 2 -0.000723 0.006779 -0.003218 0.000000 0.000000 0.000000
# 3 -0.008535 -0.003218 0.015199 0.000000 0.000000 0.000000
# 4 0.000000 0.000000 0.000000 0.023515 0.000000 0.000000
# 5 0.000000 0.000000 0.000000 0.000000 0.018131 0.000000
# 6 0.000000 0.000000 0.000000 0.000000 0.000000 -0.093243
#
#
# Mechanical properties :
#
#
# Convention : Reuss Voigt Hill
#
# Bulk Modulus (GPa) = 105.11200 105.32096 105.21648
# Shear Modulus (GPa) = 454.79842 33.49427 244.14634
#
# Velocity S-wave (km/s) = 14.03631 3.80916 10.28415
# Velocity P-wave (km/s) = 17.55634 8.06046 13.66009
#
# Compressibility (1/GPa) = 0.00951366
#
# Stress axis : x y z
#
# Youngs Moduli (GPa) = 80.07082 147.51589 65.79451
#
# Poissons Ratio (x) = 0.10669 0.56155
# Poissons Ratio (y) = 0.05791 0.21175
# Poissons Ratio (z) = 0.68339 0.47476
#
# Static dielectric constant tensor:
#      x y z
#    x 1.971130 0.000000 0.000000 
#    y 0.000000 1.803230 0.000000 
#    z 0.000000 0.000000 1.805250 
# 
# From -- ./inp_files/7617.got.cif
#   From: 2010.05.17/outbox.cif.g08.bks.cpg/sg21_4_cif.got.tgz:7617.got - 2010.06.03 23:14:55.
