data_PCOD9324812
_publ_section_title
;
Structure prediction by ZEFSAII (Michael W. Deem and Ramdas Pophale) SiO2 
 PCOD9324812
Probable space group: C 2 2 2
;
_chemical_formula_sum "Si O2"
_cell_formula_units_Z 56
_cell_length_a 21.840135
_cell_length_b 7.752381
_cell_length_c 14.854264
_cell_angle_alpha 90.000000
_cell_angle_beta 90.000000
_cell_angle_gamma 90.000000
_cell_volume 2515.020708
_symmetry_space_group_name_H-M "C 2 2 2"
_symmetry_group_IT_number 21
_symmetry_cell_setting 'orthorhombic'
loop_
_space_group_symop_operation_xyz
x,y,z
-x,-y,z
x,-y,-z
-x,y,-z
1/2+x,1/2+y,z
1/2-x,1/2-y,z
1/2+x,1/2-y,-z
1/2-x,1/2+y,-z
loop_
_atom_site_type_symbol
_atom_site_label
_atom_site_fract_x
_atom_site_fract_y
_atom_site_fract_z
Si Si1 0.635406 0.546499 0.833754
Si Si2 0.556426 0.764154 0.250567
Si Si3 0.064944 0.197850 0.465091
Si Si4 0.361170 0.914113 0.249173
Si Si5 0.973499 0.808023 0.910587
Si Si6 0.735913 0.047525 0.099886
Si Si7 0.688169 0.148424 0.438723
O O1 0.598355 0.385580 0.794385
O O2 0.639004 0.704500 0.762270
O O3 0.598713 0.654267 0.911127
O O4 0.698825 0.472581 0.870237
O O5 0.557482 0.716093 0.356666
O O6 0.496002 0.756802 0.186957
O O7 0.581918 0.957172 0.241156
O O8 0.128609 0.273034 0.507585
O O9 0.000000 0.275948 0.500000
O O10 0.065482 0.000000 0.500000
O O11 0.314671 0.984064 0.174250
O O12 0.337739 0.936593 0.349270
O O13 0.000000 0.000000 0.912725
O O14 0.000000 0.717604 0.000000
O O15 0.750000 0.250000 0.100970
O O16 0.716979 0.000000 0.000000
O O17 0.750000 0.250000 0.413673
O O18 0.714560 0.000000 0.500000
#
# Coordination Sequence:
#
# PCOD9324812 Si02
#       7
#     8   8   8   8   8   8   8
#     4  10  23  41  69  92 142 176 222 286 344 407
#     4  11  24  43  70 102 132 185 230 281 354 420
#     4  11  26  45  73 107 144 188 237 297 362 430
#     4  11  25  46  64 103 135 176 234 288 346 424
#     4   9  21  39  66 100 134 179 229 276 341 418
#     4  10  24  41  66 101 136 180 228 288 351 417
#     4  12  25  47  72 100 141 183 240 296 359 428
#
# _framework density 22.266217999999999
#
# number of rings (size 3 to 8) (size 9 to 14) (size 15 to 20)
#    0.000    1.429    1.429    2.571   14.000    3.143 
#    0.000    0.714    0.000    0.000    0.000    0.000 
#    0.000    0.000    0.000    0.000    0.000    0.000 
#
# Total GULP energy -155982.021454 kJ/mol
# GULP energy per Si atom -5570.786480 kJ/mol
# Density = 2.221554 g / cm^3
# Si number density = 22.266218 Si / 1000 Ang^3
#
#
#
# Elastic Constant Matrix: (Units=GPa)
#
#
# Indices 1 2 3 4 5 6 
#
# 1 83.2023 22.7649 33.7030 0.0000 0.0000 0.0000
# 2 22.7649 60.7316 26.1468 0.0000 0.0000 0.0000
# 3 33.7030 26.1468 149.2756 0.0000 0.0000 0.0000
# 4 0.0000 0.0000 0.0000 14.6691 0.0000 0.0000
# 5 0.0000 0.0000 0.0000 0.0000 24.7580 0.0000
# 6 0.0000 0.0000 0.0000 0.0000 0.0000 494.0354
#
#
#
# Elastic Compliance Matrix: (Units=1/GPa)
#
#
# Indices 1 2 3 4 5 6 
#
# 1 0.014178 -0.004258 -0.002455 0.000000 0.000000 0.000000
# 2 -0.004258 0.019087 -0.002382 0.000000 0.000000 0.000000
# 3 -0.002455 -0.002382 0.007671 0.000000 0.000000 0.000000
# 4 0.000000 0.000000 0.000000 0.068171 0.000000 0.000000
# 5 0.000000 0.000000 0.000000 0.000000 0.040391 0.000000
# 6 0.000000 0.000000 0.000000 0.000000 0.000000 0.002024
#
#
# Mechanical properties :
#
#
# Convention : Reuss Voigt Hill
#
# Bulk Modulus (GPa) = 43.96307 50.93766 47.45037
# Shear Modulus (GPa) = 28.20170 120.73215 74.46692
#
# Velocity S-wave (km/s) = 3.56275 7.37156 5.78934
# Velocity P-wave (km/s) = 6.05899 9.76624 8.12683
#
# Compressibility (1/GPa) = 0.02274636
#
# Stress axis : x y z
#
# Youngs Moduli (GPa) = 70.52964 52.39069 130.36743
#
# Poissons Ratio (x) = 0.22306 0.32011
# Poissons Ratio (y) = 0.30029 0.31054
# Poissons Ratio (z) = 0.17318 0.12480
#
# Static dielectric constant tensor:
#      x y z
#    x 1.961320 0.000000 0.000000 
#    y 0.000000 1.825000 0.000000 
#    z 0.000000 0.000000 1.143170 
# 
# From -- ./inp_files/33297.got.cif
#   From: 2010.05.17/outbox.cif.g08.bks.cpg/sg21_17_cif.got.tgz:33297.got - 2010.06.03 23:14:55.
