data_PCOD9324529
_publ_section_title
;
Structure prediction by ZEFSAII (Michael W. Deem and Ramdas Pophale) SiO2 
 PCOD9324529
Probable space group: C 2 2 2
;
_chemical_formula_sum "Si O2"
_cell_formula_units_Z 34
_cell_length_a 5.277080
_cell_length_b 14.656770
_cell_length_c 20.179307
_cell_angle_alpha 90.000000
_cell_angle_beta 90.000000
_cell_angle_gamma 90.000000
_cell_volume 1560.767447
_symmetry_space_group_name_H-M "C 2 2 2"
_symmetry_group_IT_number 21
_symmetry_cell_setting 'orthorhombic'
loop_
_space_group_symop_operation_xyz
x,y,z
-x,-y,z
x,-y,-z
-x,y,-z
1/2+x,1/2+y,z
1/2-x,1/2-y,z
1/2+x,1/2-y,-z
1/2-x,1/2+y,-z
loop_
_atom_site_type_symbol
_atom_site_label
_atom_site_fract_x
_atom_site_fract_y
_atom_site_fract_z
Si Si1 0.761912 0.358242 0.318948
Si Si2 0.761441 0.139705 0.598144
Si Si3 0.249088 0.357644 0.965372
Si Si4 0.246835 0.940759 0.173833
Si Si5 0.500000 0.000000 0.500000
O O1 0.750000 0.250000 0.310744
O O2 0.536478 0.381137 0.370623
O O3 0.721728 0.401266 0.247500
O O4 0.040395 0.377951 0.347677
O O5 0.750000 0.250000 0.580839
O O6 0.680085 0.070066 0.540693
O O7 0.250000 0.250000 0.978866
O O8 0.240231 0.370847 0.886777
O O9 0.500000 0.395608 0.000000
O O10 0.000000 0.396603 0.000000
O O11 0.500000 0.000000 0.171810
O O12 0.000000 0.000000 0.160643
#
# Coordination Sequence:
#
# PCOD9324529 Si02
#       5
#     8   8   8   8   2
#     4  10  23  46  68  93 133 175 224 278 326 397
#     4  10  25  45  71 104 136 179 229 280 341 414
#     4  10  22  41  63  89 126 175 222 265 325 399
#     4  12  25  38  64  98 130 170 217 276 336 395
#     4  12  28  46  80 104 144 190 218 298 352 428
#
# _framework density 21.784154000000001
#
# number of rings (size 3 to 8) (size 9 to 14) (size 15 to 20)
#    0.000    1.412    0.000    3.529    4.941    7.529 
#    0.000    9.412    0.000    0.000    0.000    0.000 
#    0.000    0.000    0.000    0.000    0.000    0.000 
#
# Total GULP energy -95083.915347 kJ/mol
# GULP energy per Si atom -5593.171491 kJ/mol
# Density = 2.173457 g / cm^3
# Si number density = 21.784154 Si / 1000 Ang^3
#
#
#
# Elastic Constant Matrix: (Units=GPa)
#
#
# Indices 1 2 3 4 5 6 
#
# 1 154.8063 35.9309 30.2028 0.0000 0.0000 0.0000
# 2 35.9309 74.7597 37.3203 0.0000 0.0000 0.0000
# 3 30.2028 37.3203 89.8005 0.0000 0.0000 0.0000
# 4 0.0000 0.0000 0.0000 54.1216 0.0000 0.0000
# 5 0.0000 0.0000 0.0000 0.0000 32.1427 0.0000
# 6 0.0000 0.0000 0.0000 0.0000 0.0000 3.8328
#
#
#
# Elastic Compliance Matrix: (Units=1/GPa)
#
#
# Indices 1 2 3 4 5 6 
#
# 1 0.007384 -0.002914 -0.001273 0.000000 0.000000 0.000000
# 2 -0.002914 0.018027 -0.006512 0.000000 0.000000 0.000000
# 3 -0.001273 -0.006512 0.014270 0.000000 0.000000 0.000000
# 4 0.000000 0.000000 0.000000 0.018477 0.000000 0.000000
# 5 0.000000 0.000000 0.000000 0.000000 0.031111 0.000000
# 6 0.000000 0.000000 0.000000 0.000000 0.000000 0.260909
#
#
# Mechanical properties :
#
#
# Convention : Reuss Voigt Hill
#
# Bulk Modulus (GPa) = 54.68956 58.47493 56.58225
# Shear Modulus (GPa) = 13.23903 32.41357 22.82630
#
# Velocity S-wave (km/s) = 2.46791 3.86157 3.24055
# Velocity P-wave (km/s) = 5.76892 6.83984 6.32708
#
# Compressibility (1/GPa) = 0.01828503
#
# Stress axis : x y z
#
# Youngs Moduli (GPa) = 135.42327 55.47107 70.07616
#
# Poissons Ratio (x) = 0.16163 0.08918
# Poissons Ratio (y) = 0.39458 0.45634
# Poissons Ratio (z) = 0.17235 0.36123
#
# Static dielectric constant tensor:
#      x y z
#    x 1.772600 0.000000 0.000000 
#    y 0.000000 1.796550 0.000000 
#    z 0.000000 0.000000 1.778780 
# 
# From -- ./inp_files/34494.got.cif
#   From: 2010.05.17/outbox.cif.g08.bks.cpg/sg21_18_cif.got.tgz:34494.got - 2010.06.03 23:14:55.
