data_PCOD9324485
_publ_section_title
;
Structure prediction by ZEFSAII (Michael W. Deem and Ramdas Pophale) SiO2 
 PCOD9324485
Probable space group: C 2 2 2
;
_chemical_formula_sum "Si O2"
_cell_formula_units_Z 32
_cell_length_a 19.455135
_cell_length_b 9.196642
_cell_length_c 7.566351
_cell_angle_alpha 90.000000
_cell_angle_beta 90.000000
_cell_angle_gamma 90.000000
_cell_volume 1353.785985
_symmetry_space_group_name_H-M "C 2 2 2"
_symmetry_group_IT_number 21
_symmetry_cell_setting 'orthorhombic'
loop_
_space_group_symop_operation_xyz
x,y,z
-x,-y,z
x,-y,-z
-x,y,-z
1/2+x,1/2+y,z
1/2-x,1/2-y,z
1/2+x,1/2-y,-z
1/2-x,1/2+y,-z
loop_
_atom_site_type_symbol
_atom_site_label
_atom_site_fract_x
_atom_site_fract_y
_atom_site_fract_z
Si Si1 0.168475 0.205049 0.223748
Si Si2 0.072132 0.950130 0.295869
Si Si3 0.895686 0.645671 0.569746
Si Si4 0.807553 0.363621 0.106839
O O1 0.250000 0.250000 0.232773
O O2 0.135972 0.274680 0.399314
O O3 0.138602 0.038855 0.221818
O O4 0.145750 0.281933 0.040233
O O5 0.070827 0.775543 0.315943
O O6 0.071093 0.000000 0.500000
O O7 0.000000 0.000000 0.212878
O O8 0.930992 0.500000 0.500000
O O9 0.840906 0.586967 0.711991
O O10 0.750000 0.250000 0.158616
O O11 0.778656 0.500000 0.000000
#
# Coordination Sequence:
#
# PCOD9324485 Si02
#       4
#     8   8   8   8
#     4  10  22  40  64  97 134 171 222 275 338 412
#     4   9  21  43  68  96 131 178 232 280 347 424
#     4  11  22  39  66  94 129 177 223 279 343 412
#     4  11  24  39  60  95 140 176 221 278 348 411
#
# _framework density 23.637414
#
# number of rings (size 3 to 8) (size 9 to 14) (size 15 to 20)
#    0.000    1.750    2.500    0.750    7.000    3.000 
#    0.000   12.500    0.000    1.500    0.000    0.000 
#    0.000    0.000    0.000    0.000    0.000    0.000 
#
# Total GULP energy -89104.211574 kJ/mol
# GULP energy per Si atom -5569.013223 kJ/mol
# Density = 2.358361 g / cm^3
# Si number density = 23.637414 Si / 1000 Ang^3
#
#
#
# Elastic Constant Matrix: (Units=GPa)
#
#
# Indices 1 2 3 4 5 6 
#
# 1 102.4325 72.0703 31.5983 0.0000 0.0000 0.0000
# 2 72.0703 206.8877 15.7528 0.0000 0.0000 0.0000
# 3 31.5983 15.7528 125.7979 0.0000 0.0000 0.0000
# 4 0.0000 0.0000 0.0000 41.0084 0.0000 0.0000
# 5 0.0000 0.0000 0.0000 0.0000 -9.5023 0.0000
# 6 0.0000 0.0000 0.0000 0.0000 0.0000 -1.8891
#
#
#
# Elastic Compliance Matrix: (Units=1/GPa)
#
#
# Indices 1 2 3 4 5 6 
#
# 1 0.013917 -0.004626 -0.002916 0.000000 0.000000 0.000000
# 2 -0.004626 0.006418 0.000358 0.000000 0.000000 0.000000
# 3 -0.002916 0.000358 0.008637 0.000000 0.000000 0.000000
# 4 0.000000 0.000000 0.000000 0.024385 0.000000 0.000000
# 5 0.000000 0.000000 0.000000 0.000000 -0.105238 0.000000
# 6 0.000000 0.000000 0.000000 0.000000 0.000000 -0.529365
#
#
# Mechanical properties :
#
#
# Convention : Reuss Voigt Hill
#
# Bulk Modulus (GPa) = 68.47685 74.88455 71.68070
# Shear Modulus (GPa) = -8.89664 26.96987 9.03662
#
# Velocity S-wave (km/s) = -1.94216 3.38151 1.95737
# Velocity P-wave (km/s) = 4.89932 6.85532 5.95813
#
# Compressibility (1/GPa) = 0.01460348
#
# Stress axis : x y z
#
# Youngs Moduli (GPa) = 71.85475 155.81818 115.78173
#
# Poissons Ratio (x) = 0.72081 0.33767
# Poissons Ratio (y) = 0.33240 -0.04149
# Poissons Ratio (z) = 0.20956 -0.05583
#
# Static dielectric constant tensor:
#      x y z
#    x 1.980930 0.000000 0.000000 
#    y 0.000000 2.013000 0.000000 
#    z 0.000000 0.000000 1.851110 
# 
# From -- ./inp_files/10761.got.cif
#   From: 2010.05.17/outbox.cif.g08.bks.cpg/sg21_6_cif.got.tgz:10761.got - 2010.06.03 23:14:55.
