data_PCOD9324855
_publ_section_title
;
Structure prediction by ZEFSAII (Michael W. Deem and Ramdas Pophale) SiO2 
 PCOD9324855
Probable space group: C 2 2 2
;
_chemical_formula_sum "Si O2"
_cell_formula_units_Z 56
_cell_length_a 19.601779
_cell_length_b 15.134744
_cell_length_c 8.737510
_cell_angle_alpha 90.000000
_cell_angle_beta 90.000000
_cell_angle_gamma 90.000000
_cell_volume 2592.138805
_symmetry_space_group_name_H-M "C 2 2 2"
_symmetry_group_IT_number 21
_symmetry_cell_setting 'orthorhombic'
loop_
_space_group_symop_operation_xyz
x,y,z
-x,-y,z
x,-y,-z
-x,y,-z
1/2+x,1/2+y,z
1/2-x,1/2-y,z
1/2+x,1/2-y,-z
1/2-x,1/2+y,-z
loop_
_atom_site_type_symbol
_atom_site_label
_atom_site_fract_x
_atom_site_fract_y
_atom_site_fract_z
Si Si1 0.055425 0.248123 0.628749
Si Si2 0.189159 0.044427 0.163907
Si Si3 0.933691 0.958801 0.668462
Si Si4 0.071387 0.638080 0.073890
Si Si5 0.339494 0.145042 0.446275
Si Si6 0.175752 0.750074 0.862778
Si Si7 0.833244 0.517948 0.715861
O O1 0.057012 0.145051 0.659651
O O2 0.047192 0.299813 0.786076
O O3 0.122986 0.282460 0.547510
O O4 0.000000 0.269035 0.500000
O O5 0.162835 0.145600 0.161288
O O6 0.136620 0.987123 0.259464
O O7 0.265949 0.031816 0.224656
O O8 0.189530 0.000000 0.000000
O O9 0.932459 0.000000 0.500000
O O10 0.000000 0.000000 0.750601
O O11 0.121642 0.566239 0.154984
O O12 0.118370 0.696807 0.958057
O O13 0.000000 0.605841 0.000000
O O14 0.314406 0.202109 0.301399
O O15 0.306453 0.087127 0.585673
O O16 0.376731 0.061806 0.361644
O O17 0.250000 0.750000 0.944774
#
# Coordination Sequence:
#
# PCOD9324855 Si02
#       7
#     8   8   8   8   8   8   8
#     4  11  22  45  67 100 144 179 238 293 355 434
#     4  12  26  45  71 101 146 189 232 298 363 438
#     4  11  24  42  69 105 140 185 234 296 358 436
#     4  11  26  45  75 106 144 190 237 301 366 440
#     4  10  23  43  73 100 136 182 236 296 354 426
#     4  12  24  44  73 107 142 186 236 296 364 438
#     4  10  24  48  69 105 142 182 240 297 361 430
#
# _framework density 21.603781000000001
#
# number of rings (size 3 to 8) (size 9 to 14) (size 15 to 20)
#    0.000    1.000    2.857    3.429    4.000    1.429 
#    0.000   15.714    0.000    0.000    0.000    0.000 
#    0.000    0.000    0.000    0.000    0.000    0.000 
#
# Total GULP energy -156079.238942 kJ/mol
# GULP energy per Si atom -5574.258534 kJ/mol
# Density = 2.155461 g / cm^3
# Si number density = 21.603781 Si / 1000 Ang^3
#
#
#
# Elastic Constant Matrix: (Units=GPa)
#
#
# Indices 1 2 3 4 5 6 
#
# 1 78.6519 21.7944 41.3906 0.0000 0.0000 0.0000
# 2 21.7944 113.0882 54.3913 0.0000 0.0000 0.0000
# 3 41.3906 54.3913 114.8340 0.0000 0.0000 0.0000
# 4 0.0000 0.0000 0.0000 28.2946 0.0000 0.0000
# 5 0.0000 0.0000 0.0000 0.0000 13.8656 0.0000
# 6 0.0000 0.0000 0.0000 0.0000 0.0000 72.7713
#
#
#
# Elastic Compliance Matrix: (Units=1/GPa)
#
#
# Indices 1 2 3 4 5 6 
#
# 1 0.015704 -0.000394 -0.005474 0.000000 0.000000 0.000000
# 2 -0.000394 0.011461 -0.005287 0.000000 0.000000 0.000000
# 3 -0.005474 -0.005287 0.013185 0.000000 0.000000 0.000000
# 4 0.000000 0.000000 0.000000 0.035342 0.000000 0.000000
# 5 0.000000 0.000000 0.000000 0.000000 0.072121 0.000000
# 6 0.000000 0.000000 0.000000 0.000000 0.000000 0.013742
#
#
# Mechanical properties :
#
#
# Convention : Reuss Voigt Hill
#
# Bulk Modulus (GPa) = 55.42658 60.19188 57.80923
# Shear Modulus (GPa) = 26.33272 35.58616 30.95944
#
# Velocity S-wave (km/s) = 3.49505 4.06300 3.78968
# Velocity P-wave (km/s) = 6.48065 7.06632 6.77981
#
# Compressibility (1/GPa) = 0.01804189
#
# Stress axis : x y z
#
# Youngs Moduli (GPa) = 63.67824 87.25043 75.84235
#
# Poissons Ratio (x) = 0.03436 0.41515
# Poissons Ratio (y) = 0.02507 0.40096
# Poissons Ratio (z) = 0.34856 0.46127
#
# Static dielectric constant tensor:
#      x y z
#    x 1.942660 0.000000 0.000000 
#    y 0.000000 1.801840 0.000000 
#    z 0.000000 0.000000 1.651270 
# 
# From -- ./inp_files/17720.got.cif
#   From: 2010.05.17/outbox.cif.g08.bks.cpg/sg21_9_cif.got.tgz:17720.got - 2010.06.03 23:14:55.
