data_PCOD9324662
_publ_section_title
;
Structure prediction by ZEFSAII (Michael W. Deem and Ramdas Pophale) SiO2 
 PCOD9324662
Probable space group: C 2 2 2
;
_chemical_formula_sum "Si O2"
_cell_formula_units_Z 16
_cell_length_a 11.837068
_cell_length_b 9.465891
_cell_length_c 6.138759
_cell_angle_alpha 90.000000
_cell_angle_beta 90.000000
_cell_angle_gamma 90.000000
_cell_volume 687.838096
_symmetry_space_group_name_H-M "C 2 2 2"
_symmetry_group_IT_number 21
_symmetry_cell_setting 'orthorhombic'
loop_
_space_group_symop_operation_xyz
x,y,z
-x,-y,z
x,-y,-z
-x,y,-z
1/2+x,1/2+y,z
1/2-x,1/2-y,z
1/2+x,1/2-y,-z
1/2-x,1/2+y,-z
loop_
_atom_site_type_symbol
_atom_site_label
_atom_site_fract_x
_atom_site_fract_y
_atom_site_fract_z
Si Si1 0.834168 0.631215 0.350498
Si Si2 0.169166 0.000000 0.000000
Si Si3 0.500000 0.266433 0.000000
O O1 0.868169 0.500000 0.500000
O O2 0.750000 0.750000 0.458213
O O3 0.747290 0.566434 0.179029
O O4 0.938603 0.686906 0.200470
O O5 0.093002 0.874129 0.094775
#
# Coordination Sequence:
#
# PCOD9324662 Si02
#       3
#     8   4   4
#     4  10  22  43  70  99 133 172 220 274 328 389
#     4   9  20  43  66  94 134 175 218 269 324 390
#     4   9  20  43  70  94 132 178 218 266 330 392
#
# _framework density 23.261289000000001
#
# number of rings (size 3 to 8) (size 9 to 14) (size 15 to 20)
#    0.000    2.500    0.000    0.000    0.000    7.000 
#    0.000   45.000    0.000    3.000    0.000    0.000 
#    0.000    0.000    0.000    0.000    0.000    0.000 
#
# Total GULP energy -44635.149481 kJ/mol
# GULP energy per Si atom -5579.393685 kJ/mol
# Density = 2.320835 g / cm^3
# Si number density = 23.261289 Si / 1000 Ang^3
#
#
#
# Elastic Constant Matrix: (Units=GPa)
#
#
# Indices 1 2 3 4 5 6 
#
# 1 166.1751 95.2233 63.7549 0.0000 0.0000 0.0000
# 2 95.2233 161.3546 65.2372 0.0000 0.0000 0.0000
# 3 63.7549 65.2372 41.2582 0.0000 0.0000 0.0000
# 4 0.0000 0.0000 0.0000 342.6312 0.0000 0.0000
# 5 0.0000 0.0000 0.0000 0.0000 40.0345 0.0000
# 6 0.0000 0.0000 0.0000 0.0000 0.0000 36.6279
#
#
#
# Elastic Compliance Matrix: (Units=1/GPa)
#
#
# Indices 1 2 3 4 5 6 
#
# 1 0.014898 0.001430 -0.025283 0.000000 0.000000 0.000000
# 2 0.001430 0.017319 -0.029594 0.000000 0.000000 0.000000
# 3 -0.025283 -0.029594 0.110100 0.000000 0.000000 0.000000
# 4 0.000000 0.000000 0.000000 0.002919 0.000000 0.000000
# 5 0.000000 0.000000 0.000000 0.000000 0.024978 0.000000
# 6 0.000000 0.000000 0.000000 0.000000 0.000000 0.027302
#
#
# Mechanical properties :
#
#
# Convention : Reuss Voigt Hill
#
# Bulk Modulus (GPa) = 28.22991 90.80207 59.51599
# Shear Modulus (GPa) = 15.81190 93.49689 54.65440
#
# Velocity S-wave (km/s) = 2.61003 6.34677 4.85251
# Velocity P-wave (km/s) = 4.60927 9.63478 7.55230
#
# Compressibility (1/GPa) = 0.03542343
#
# Stress axis : x y z
#
# Youngs Moduli (GPa) = 67.12091 57.74071 9.08266
#
# Poissons Ratio (x) = -0.08256 0.22964
# Poissons Ratio (y) = -0.09597 0.26879
# Poissons Ratio (z) = 1.69701 1.70877
#
# Static dielectric constant tensor:
#      x y z
#    x 1.815660 0.000000 0.000000 
#    y 0.000000 2.018990 0.000000 
#    z 0.000000 0.000000 1.747830 
# 
# From -- ./inp_files/837.got.cif
#   From: 2010.05.17/outbox.cif.g08.bks.cpg/sg21_1_cif.got.tgz:837.got - 2010.06.03 23:14:55.
