data_PCOD9324046
_publ_section_title
;
Structure prediction by ZEFSAII (Michael W. Deem and Ramdas Pophale) SiO2 
 PCOD9324046
Probable space group: C 2 2 2
;
_chemical_formula_sum "Si O2"
_cell_formula_units_Z 54
_cell_length_a 10.043736
_cell_length_b 16.633655
_cell_length_c 15.903172
_cell_angle_alpha 90.000000
_cell_angle_beta 90.000000
_cell_angle_gamma 90.000000
_cell_volume 2656.848156
_symmetry_space_group_name_H-M "C 2 2 2"
_symmetry_group_IT_number 21
_symmetry_cell_setting 'orthorhombic'
loop_
_space_group_symop_operation_xyz
x,y,z
-x,-y,z
x,-y,-z
-x,y,-z
1/2+x,1/2+y,z
1/2-x,1/2-y,z
1/2+x,1/2-y,-z
1/2-x,1/2+y,-z
loop_
_atom_site_type_symbol
_atom_site_label
_atom_site_fract_x
_atom_site_fract_y
_atom_site_fract_z
Si Si1 0.787188 0.040511 0.769599
Si Si2 0.837463 0.622258 0.380492
Si Si3 0.951383 0.202992 0.595165
Si Si4 0.105888 0.786008 0.089665
Si Si5 0.072286 0.883997 0.256345
Si Si6 0.000000 0.500000 0.500000
Si Si7 0.500000 0.855015 0.000000
Si Si8 0.714720 0.416781 0.964867
O O1 0.677283 0.079406 0.709940
O O2 0.777385 0.070862 0.865167
O O3 0.931439 0.070680 0.740032
O O4 0.803887 0.944691 0.756216
O O5 0.917742 0.705788 0.377773
O O6 0.686503 0.651208 0.403392
O O7 0.906430 0.558961 0.443744
O O8 0.000000 0.203187 0.500000
O O9 0.063042 0.168119 0.658952
O O10 0.250000 0.750000 0.109113
O O11 0.062679 0.835577 0.169713
O O12 0.011384 0.709420 0.075406
O O13 0.135768 0.842531 0.007348
O O14 0.633976 0.904794 0.004057
O O15 0.657976 0.500000 0.000000
#
# Coordination Sequence:
#
# PCOD9324046 Si02
#       8
#     8   8   8   8   8   2   4   8
#     4  10  22  40  64  95 122 165 210 264 320 372
#     4  10  24  44  66  97 130 166 214 257 328 392
#     4  10  22  45  70  94 125 172 211 263 321 388
#     4  10  21  39  56  92 123 166 214 259 312 372
#     4  10  21  40  63  94 124 156 215 264 313 377
#     4  12  24  48  66 100 134 162 212 274 324 392
#     4  10  23  36  57  84 122 172 208 254 313 374
#     4  11  21  40  62  85 127 168 212 258 311 374
#
# _framework density 20.324833999999999
#
# number of rings (size 3 to 8) (size 9 to 14) (size 15 to 20)
#    0.000    1.778    2.222    1.111    4.148    0.000 
#   13.333    0.000    0.000    0.000    0.000    0.000 
#    0.000    0.000    0.000    0.000    0.000    0.000 
#
# Total GULP energy -150491.830785 kJ/mol
# GULP energy per Si atom -5573.771511 kJ/mol
# Density = 2.027857 g / cm^3
# Si number density = 20.324834 Si / 1000 Ang^3
#
#
#
# Elastic Constant Matrix: (Units=GPa)
#
#
# Indices 1 2 3 4 5 6 
#
# 1 51.7024 29.0148 16.0331 0.0000 0.0000 0.0000
# 2 29.0148 106.8673 54.5614 0.0000 0.0000 0.0000
# 3 16.0331 54.5614 159.1324 0.0000 0.0000 0.0000
# 4 0.0000 0.0000 0.0000 -5.2724 0.0000 0.0000
# 5 0.0000 0.0000 0.0000 0.0000 18.7873 0.0000
# 6 0.0000 0.0000 0.0000 0.0000 0.0000 15.6065
#
#
#
# Elastic Compliance Matrix: (Units=1/GPa)
#
#
# Indices 1 2 3 4 5 6 
#
# 1 0.022824 -0.006089 -0.000212 0.000000 0.000000 0.000000
# 2 -0.006089 0.012967 -0.003833 0.000000 0.000000 0.000000
# 3 -0.000212 -0.003833 0.007620 0.000000 0.000000 0.000000
# 4 0.000000 0.000000 0.000000 -0.189668 0.000000 0.000000
# 5 0.000000 0.000000 0.000000 0.000000 0.053228 0.000000
# 6 0.000000 0.000000 0.000000 0.000000 0.000000 0.064076
#
#
# Mechanical properties :
#
#
# Convention : Reuss Voigt Hill
#
# Bulk Modulus (GPa) = 43.20698 57.43560 50.32129
# Shear Modulus (GPa) = -5140.90397 20.36380 -2560.27008
#
# Velocity S-wave (km/s) = -50.34741 3.16874 -35.53042
# Velocity P-wave (km/s) = 57.95266 6.45818 40.72348
#
# Compressibility (1/GPa) = 0.02314441
#
# Stress axis : x y z
#
# Youngs Moduli (GPa) = 43.81352 77.11769 131.24200
#
# Poissons Ratio (x) = 0.46953 0.02783
# Poissons Ratio (y) = 0.26676 0.50300
# Poissons Ratio (z) = 0.00929 0.29556
#
# Static dielectric constant tensor:
#      x y z
#    x 1.722450 0.000000 0.000000 
#    y 0.000000 1.774580 0.000000 
#    z 0.000000 0.000000 1.761410 
# 
# From -- ./inp_files/31643.got.cif
#   From: 2010.05.17/outbox.cif.g08.bks.cpg/sg21_16_cif.got.tgz:31643.got - 2010.06.03 23:14:55.
