data_PCOD9324253
_publ_section_title
;
Structure prediction by ZEFSAII (Michael W. Deem and Ramdas Pophale) SiO2 
 PCOD9324253
Probable space group: C 2 2 2
;
_chemical_formula_sum "Si O2"
_cell_formula_units_Z 56
_cell_length_a 9.328352
_cell_length_b 18.878012
_cell_length_c 16.754531
_cell_angle_alpha 90.000000
_cell_angle_beta 90.000000
_cell_angle_gamma 90.000000
_cell_volume 2950.485324
_symmetry_space_group_name_H-M "C 2 2 2"
_symmetry_group_IT_number 21
_symmetry_cell_setting 'orthorhombic'
loop_
_space_group_symop_operation_xyz
x,y,z
-x,-y,z
x,-y,-z
-x,y,-z
1/2+x,1/2+y,z
1/2-x,1/2-y,z
1/2+x,1/2-y,-z
1/2-x,1/2+y,-z
loop_
_atom_site_type_symbol
_atom_site_label
_atom_site_fract_x
_atom_site_fract_y
_atom_site_fract_z
Si Si1 0.363748 0.573085 0.453739
Si Si2 0.441353 0.577067 0.271078
Si Si3 0.223580 0.832374 0.700095
Si Si4 0.199332 0.424994 0.857735
Si Si5 0.334892 0.819771 0.518658
Si Si6 0.673054 0.175054 0.994341
Si Si7 0.140043 0.411539 0.159278
O O1 0.347714 0.500000 0.500000
O O2 0.500000 0.608677 0.500000
O O3 0.389350 0.562694 0.360983
O O4 0.222170 0.617164 0.465294
O O5 0.500000 0.500000 0.242497
O O6 0.561874 0.638369 0.284300
O O7 0.313434 0.596663 0.210344
O O8 0.250000 0.750000 0.723673
O O9 0.282900 0.836179 0.609369
O O10 0.311389 0.886095 0.754675
O O11 0.197578 0.510536 0.863548
O O12 0.032279 0.409803 0.839515
O O13 0.224980 0.381604 0.939245
O O14 0.500000 0.808852 0.500000
O O15 0.250000 0.750000 0.494596
O O16 0.750000 0.250000 0.005373
O O17 0.698920 0.142460 0.907019
O O18 0.500000 0.182795 0.000000
#
# Coordination Sequence:
#
# PCOD9324253 Si02
#       7
#     8   8   8   8   8   8   8
#     4  11  21  40  65  91 125 173 218 265 328 381
#     4  12  22  41  64  94 130 170 218 273 322 394
#     4  11  24  40  62  94 132 169 214 271 333 381
#     4  10  23  39  66  94 126 169 217 261 322 398
#     4  11  25  42  63  92 130 170 218 269 327 393
#     4  10  22  42  66  94 129 168 211 263 324 391
#     4  10  21  42  65  93 129 168 212 267 325 383
#
# _framework density 18.979928999999998
#
# number of rings (size 3 to 8) (size 9 to 14) (size 15 to 20)
#    0.000    1.286    4.286    1.286    4.000    5.429 
#    0.000    0.714    0.000    0.000    0.000    0.000 
#    0.000    0.000    0.000    0.000    0.000    0.000 
#
# Total GULP energy -156133.756649 kJ/mol
# GULP energy per Si atom -5576.205595 kJ/mol
# Density = 1.893673 g / cm^3
# Si number density = 18.979929 Si / 1000 Ang^3
#
#
#
# Elastic Constant Matrix: (Units=GPa)
#
#
# Indices 1 2 3 4 5 6 
#
# 1 105.1322 47.1947 33.7040 0.0000 0.0000 0.0000
# 2 47.1947 107.4974 21.4155 0.0000 0.0000 0.0000
# 3 33.7040 21.4155 56.8716 0.0000 0.0000 0.0000
# 4 0.0000 0.0000 0.0000 22.0608 0.0000 0.0000
# 5 0.0000 0.0000 0.0000 0.0000 33.9813 0.0000
# 6 0.0000 0.0000 0.0000 0.0000 0.0000 33.2268
#
#
#
# Elastic Compliance Matrix: (Units=1/GPa)
#
#
# Indices 1 2 3 4 5 6 
#
# 1 0.013664 -0.004741 -0.006312 0.000000 0.000000 0.000000
# 2 -0.004741 0.011702 -0.001597 0.000000 0.000000 0.000000
# 3 -0.006312 -0.001597 0.021926 0.000000 0.000000 0.000000
# 4 0.000000 0.000000 0.000000 0.045329 0.000000 0.000000
# 5 0.000000 0.000000 0.000000 0.000000 0.029428 0.000000
# 6 0.000000 0.000000 0.000000 0.000000 0.000000 0.030096
#
#
# Mechanical properties :
#
#
# Convention : Reuss Voigt Hill
#
# Bulk Modulus (GPa) = 45.47299 52.68105 49.07702
# Shear Modulus (GPa) = 27.05978 28.99959 28.02968
#
# Velocity S-wave (km/s) = 3.77995 3.91309 3.84709
# Velocity P-wave (km/s) = 6.56210 6.94498 6.75625
#
# Compressibility (1/GPa) = 0.02199108
#
# Stress axis : x y z
#
# Youngs Moduli (GPa) = 73.18557 85.45367 45.60882
#
# Poissons Ratio (x) = 0.40517 0.28790
# Poissons Ratio (y) = 0.34700 0.07282
# Poissons Ratio (z) = 0.46197 0.13644
#
# Static dielectric constant tensor:
#      x y z
#    x 1.717380 0.000000 0.000000 
#    y 0.000000 1.659780 0.000000 
#    z 0.000000 0.000000 1.638510 
# 
# From -- ./inp_files/30766.got.cif
#   From: 2010.05.17/outbox.cif.g08.bks.cpg/sg21_16_cif.got.tgz:30766.got - 2010.06.03 23:14:55.
