data_PCOD9324349
_publ_section_title
;
Structure prediction by ZEFSAII (Michael W. Deem and Ramdas Pophale) SiO2 
 PCOD9324349
Probable space group: C 2 2 2
;
_chemical_formula_sum "Si O2"
_cell_formula_units_Z 32
_cell_length_a 5.434328
_cell_length_b 17.111703
_cell_length_c 16.627747
_cell_angle_alpha 90.000000
_cell_angle_beta 90.000000
_cell_angle_gamma 90.000000
_cell_volume 1546.224282
_symmetry_space_group_name_H-M "C 2 2 2"
_symmetry_group_IT_number 21
_symmetry_cell_setting 'orthorhombic'
loop_
_space_group_symop_operation_xyz
x,y,z
-x,-y,z
x,-y,-z
-x,y,-z
1/2+x,1/2+y,z
1/2-x,1/2-y,z
1/2+x,1/2-y,-z
1/2-x,1/2+y,-z
loop_
_atom_site_type_symbol
_atom_site_label
_atom_site_fract_x
_atom_site_fract_y
_atom_site_fract_z
Si Si1 0.750748 0.450839 0.202687
Si Si2 0.395144 0.168015 0.673913
Si Si3 0.615308 0.329174 0.080284
Si Si4 0.500000 0.801930 0.500000
Si Si5 0.250000 0.750000 0.793231
O O1 0.500000 0.500000 0.192689
O O2 0.737570 0.398648 0.283489
O O3 0.777039 0.391819 0.127306
O O4 0.000000 0.500000 0.208135
O O5 0.250000 0.250000 0.670361
O O6 0.476044 0.150882 0.583155
O O7 0.615127 0.188693 0.734932
O O8 0.750000 0.250000 0.053252
O O9 0.427994 0.298138 0.148146
O O10 0.500000 0.364309 0.000000
O O11 0.250000 0.750000 0.508194
#
# Coordination Sequence:
#
# PCOD9324349 Si02
#       5
#     8   8   8   4   4
#     4  12  27  45  68  98 140 186 222 267 340 408
#     4  11  22  41  71  98 136 172 229 278 331 397
#     4  12  25  42  69 101 127 177 230 288 330 395
#     4  10  22  36  67 110 131 160 220 296 332 374
#     4  12  18  40  70  98 132 164 230 274 334 386
#
# _framework density 20.695575999999999
#
# number of rings (size 3 to 8) (size 9 to 14) (size 15 to 20)
#    0.000    0.500    7.500    1.500    0.000    0.500 
#    0.000    4.375    0.000    4.500    0.000    0.000 
#    0.000    0.000    0.000    0.000    0.000    0.000 
#
# Total GULP energy -89409.397881 kJ/mol
# GULP energy per Si atom -5588.087368 kJ/mol
# Density = 2.064847 g / cm^3
# Si number density = 20.695576 Si / 1000 Ang^3
#
#
#
# Elastic Constant Matrix: (Units=GPa)
#
#
# Indices 1 2 3 4 5 6 
#
# 1 72.5168 16.6587 12.9350 0.0000 0.0000 0.0000
# 2 16.6587 73.2102 22.6425 0.0000 0.0000 0.0000
# 3 12.9350 22.6425 161.5176 0.0000 0.0000 0.0000
# 4 0.0000 0.0000 0.0000 -19.1010 0.0000 0.0000
# 5 0.0000 0.0000 0.0000 0.0000 40.5743 0.0000
# 6 0.0000 0.0000 0.0000 0.0000 0.0000 35.0988
#
#
#
# Elastic Compliance Matrix: (Units=1/GPa)
#
#
# Indices 1 2 3 4 5 6 
#
# 1 0.014634 -0.003102 -0.000737 0.000000 0.000000 0.000000
# 2 -0.003102 0.014936 -0.001845 0.000000 0.000000 0.000000
# 3 -0.000737 -0.001845 0.006509 0.000000 0.000000 0.000000
# 4 0.000000 0.000000 0.000000 -0.052353 0.000000 0.000000
# 5 0.000000 0.000000 0.000000 0.000000 0.024646 0.000000
# 6 0.000000 0.000000 0.000000 0.000000 0.000000 0.028491
#
#
# Mechanical properties :
#
#
# Convention : Reuss Voigt Hill
#
# Bulk Modulus (GPa) = 40.46943 45.74634 43.10789
# Shear Modulus (GPa) = 88.54542 28.31498 58.43020
#
# Velocity S-wave (km/s) = 6.54810 3.70289 5.31926
# Velocity P-wave (km/s) = 8.76169 6.35879 7.65511
#
# Compressibility (1/GPa) = 0.02471001
#
# Stress axis : x y z
#
# Youngs Moduli (GPa) = 68.33412 66.95288 153.63332
#
# Poissons Ratio (x) = 0.20768 0.11324
# Poissons Ratio (y) = 0.21197 0.28351
# Poissons Ratio (z) = 0.05037 0.12355
#
# Static dielectric constant tensor:
#      x y z
#    x 1.808610 0.000000 0.000000 
#    y 0.000000 1.764830 0.000000 
#    z 0.000000 0.000000 1.725100 
# 
# From -- ./inp_files/28731.got.cif
#   From: 2010.05.17/outbox.cif.g08.bks.cpg/sg21_15_cif.got.tgz:28731.got - 2010.06.03 23:14:55.
