data_PCOD9324426
_publ_section_title
;
Structure prediction by ZEFSAII (Michael W. Deem and Ramdas Pophale) SiO2 
 PCOD9324426
Probable space group: C 2 2 2
;
_chemical_formula_sum "Si O2"
_cell_formula_units_Z 30
_cell_length_a 25.849410
_cell_length_b 11.304089
_cell_length_c 5.121041
_cell_angle_alpha 90.000000
_cell_angle_beta 90.000000
_cell_angle_gamma 90.000000
_cell_volume 1496.388824
_symmetry_space_group_name_H-M "C 2 2 2"
_symmetry_group_IT_number 21
_symmetry_cell_setting 'orthorhombic'
loop_
_space_group_symop_operation_xyz
x,y,z
-x,-y,z
x,-y,-z
-x,y,-z
1/2+x,1/2+y,z
1/2-x,1/2-y,z
1/2+x,1/2-y,-z
1/2-x,1/2+y,-z
loop_
_atom_site_type_symbol
_atom_site_label
_atom_site_fract_x
_atom_site_fract_y
_atom_site_fract_z
Si Si1 0.600300 0.117599 0.867783
Si Si2 0.000000 0.500000 0.000000
Si Si3 0.148026 0.000000 0.500000
Si Si4 0.750000 0.750000 0.820565
Si Si5 0.865241 0.749304 0.632682
Si Si6 0.778235 0.000000 0.000000
O O1 0.539882 0.082191 0.842665
O O2 0.620958 0.155257 0.589015
O O3 0.611047 0.216061 0.087193
O O4 0.624691 0.000000 0.000000
O O5 0.117154 0.879095 0.458210
O O6 0.184897 0.985886 0.750309
O O7 0.803112 0.754193 0.660234
O O8 0.748323 0.875187 0.974239
#
# Coordination Sequence:
#
# PCOD9324426 Si02
#       6
#     8   2   4   4   8   4
#     4  10  23  41  66  97 123 162 205 276 339 385
#     4   8  24  44  68 104 128 154 208 300 350 368
#     4  10  22  40  58  83 126 176 204 253 316 382
#     4  10  24  40  60  92 136 172 232 272 306 398
#     4  11  22  40  63  90 130 174 216 258 326 388
#     4  10  22  39  58  82 126 178 220 269 320 354
#
# _framework density 20.048262999999999
#
# number of rings (size 3 to 8) (size 9 to 14) (size 15 to 20)
#    0.800    1.067    0.000    4.000    1.867   11.733 
#   14.400    0.000    0.000    4.800    0.000    0.000 
#    0.000    0.000    0.000    0.000    0.000    0.000 
#
# Total GULP energy -83659.896042 kJ/mol
# GULP energy per Si atom -5577.326403 kJ/mol
# Density = 2.000263 g / cm^3
# Si number density = 20.048263 Si / 1000 Ang^3
#
#
#
# Elastic Constant Matrix: (Units=GPa)
#
#
# Indices 1 2 3 4 5 6 
#
# 1 88.6001 21.8764 24.7282 0.0000 0.0000 0.0000
# 2 21.8764 108.6306 2.4068 0.0000 0.0000 0.0000
# 3 24.7282 2.4068 94.7355 0.0000 0.0000 0.0000
# 4 0.0000 0.0000 0.0000 31.1575 0.0000 0.0000
# 5 0.0000 0.0000 0.0000 0.0000 29.7248 0.0000
# 6 0.0000 0.0000 0.0000 0.0000 0.0000 29.3427
#
#
#
# Elastic Compliance Matrix: (Units=1/GPa)
#
#
# Indices 1 2 3 4 5 6 
#
# 1 0.012823 -0.002510 -0.003283 0.000000 0.000000 0.000000
# 2 -0.002510 0.009702 0.000409 0.000000 0.000000 0.000000
# 3 -0.003283 0.000409 0.011402 0.000000 0.000000 0.000000
# 4 0.000000 0.000000 0.000000 0.032095 0.000000 0.000000
# 5 0.000000 0.000000 0.000000 0.000000 0.033642 0.000000
# 6 0.000000 0.000000 0.000000 0.000000 0.000000 0.034080
#
#
# Mechanical properties :
#
#
# Convention : Reuss Voigt Hill
#
# Bulk Modulus (GPa) = 43.18091 43.33211 43.25651
# Shear Modulus (GPa) = 32.84467 34.24199 33.54333
#
# Velocity S-wave (km/s) = 4.05196 4.13725 4.09483
# Velocity P-wave (km/s) = 6.59366 6.66958 6.63173
#
# Compressibility (1/GPa) = 0.02315838
#
# Stress axis : x y z
#
# Youngs Moduli (GPa) = 77.98704 103.07330 87.70141
#
# Poissons Ratio (x) = 0.25866 0.28795
# Poissons Ratio (y) = 0.19571 -0.03583
# Poissons Ratio (z) = 0.25605 -0.04211
#
# Static dielectric constant tensor:
#      x y z
#    x 1.690450 0.000000 0.000000 
#    y 0.000000 1.798580 0.000000 
#    z 0.000000 0.000000 1.683570 
# 
# From -- ./inp_files/2778.got.cif
#   From: 2010.05.17/outbox.cif.g08.bks.cpg/sg21_2_cif.got.tgz:2778.got - 2010.06.03 23:14:55.
