data_PCOD9324067
_publ_section_title
;
Structure prediction by ZEFSAII (Michael W. Deem and Ramdas Pophale) SiO2 
 PCOD9324067
Probable space group: C 2 2 2
;
_chemical_formula_sum "Si O2"
_cell_formula_units_Z 58
_cell_length_a 9.152211
_cell_length_b 28.540915
_cell_length_c 11.471522
_cell_angle_alpha 90.000000
_cell_angle_beta 90.000000
_cell_angle_gamma 90.000000
_cell_volume 2996.504668
_symmetry_space_group_name_H-M "C 2 2 2"
_symmetry_group_IT_number 21
_symmetry_cell_setting 'orthorhombic'
loop_
_space_group_symop_operation_xyz
x,y,z
-x,-y,z
x,-y,-z
-x,y,-z
1/2+x,1/2+y,z
1/2-x,1/2-y,z
1/2+x,1/2-y,-z
1/2-x,1/2+y,-z
loop_
_atom_site_type_symbol
_atom_site_label
_atom_site_fract_x
_atom_site_fract_y
_atom_site_fract_z
Si Si1 0.012439 0.334878 0.880004
Si Si2 0.989024 0.556709 0.635817
Si Si3 0.236142 0.694599 0.726450
Si Si4 0.500000 0.000000 0.000000
Si Si5 0.239940 0.874657 0.268331
Si Si6 0.169575 0.425557 0.147621
Si Si7 0.449757 0.626043 0.869190
Si Si8 0.326469 0.699741 0.472340
O O1 0.169840 0.349008 0.834745
O O2 0.926810 0.313735 0.771559
O O3 0.913896 0.380707 0.904250
O O4 0.000000 0.306317 0.000000
O O5 0.844103 0.582461 0.688231
O O6 0.000000 0.500000 0.643524
O O7 0.000000 0.569426 0.500000
O O8 0.122378 0.573970 0.717030
O O9 0.250000 0.750000 0.733033
O O10 0.354413 0.667152 0.806226
O O11 0.258564 0.680695 0.592883
O O12 0.398003 0.969466 0.916930
O O13 0.205828 0.837514 0.370795
O O14 0.086667 0.887709 0.210540
O O15 0.338372 0.417420 0.126371
O O16 0.500000 0.638695 0.000000
O O17 0.500000 0.705942 0.500000
O O18 0.250000 0.750000 0.446646
#
# Coordination Sequence:
#
# PCOD9324067 Si02
#       8
#     8   8   8   2   8   8   8   8
#     4  10  21  39  62  89 122 168 211 255 316 383
#     4  10  23  41  64  94 126 166 220 268 317 394
#     4  10  23  41  62  90 130 163 213 267 316 374
#     4  12  20  40  72  92 120 172 226 258 320 396
#     4  11  24  38  67  92 125 173 215 258 337 385
#     4  10  22  39  66  90 127 163 213 268 318 379
#     4  11  24  42  63  95 133 169 211 270 329 391
#     4  11  25  42  64  96 131 165 218 272 319 388
#
# _framework density 19.355885000000001
#
# number of rings (size 3 to 8) (size 9 to 14) (size 15 to 20)
#    0.000    1.517    2.759    1.655   11.586    0.552 
#    0.000    3.793    0.000    1.655    0.000    0.000 
#    0.000    0.000    0.000    0.000    0.000    0.000 
#
# Total GULP energy -161741.593633 kJ/mol
# GULP energy per Si atom -5577.296332 kJ/mol
# Density = 1.931183 g / cm^3
# Si number density = 19.355885 Si / 1000 Ang^3
#
#
#
# Elastic Constant Matrix: (Units=GPa)
#
#
# Indices 1 2 3 4 5 6 
#
# 1 120.2109 29.3941 41.1198 0.0000 0.0000 0.0000
# 2 29.3941 62.0281 26.3832 0.0000 0.0000 0.0000
# 3 41.1198 26.3832 131.4439 0.0000 0.0000 0.0000
# 4 0.0000 0.0000 0.0000 9.3034 0.0000 0.0000
# 5 0.0000 0.0000 0.0000 0.0000 27.4121 0.0000
# 6 0.0000 0.0000 0.0000 0.0000 0.0000 25.8257
#
#
#
# Elastic Compliance Matrix: (Units=1/GPa)
#
#
# Indices 1 2 3 4 5 6 
#
# 1 0.010053 -0.003746 -0.002393 0.000000 0.000000 0.000000
# 2 -0.003746 0.019023 -0.002646 0.000000 0.000000 0.000000
# 3 -0.002393 -0.002646 0.008888 0.000000 0.000000 0.000000
# 4 0.000000 0.000000 0.000000 0.107487 0.000000 0.000000
# 5 0.000000 0.000000 0.000000 0.000000 0.036480 0.000000
# 6 0.000000 0.000000 0.000000 0.000000 0.000000 0.038721
#
#
# Mechanical properties :
#
#
# Convention : Reuss Voigt Hill
#
# Bulk Modulus (GPa) = 49.03784 56.38634 52.71209
# Shear Modulus (GPa) = 20.40645 26.96063 23.68354
#
# Velocity S-wave (km/s) = 3.25048 3.73619 3.50177
# Velocity P-wave (km/s) = 6.28310 6.91425 6.60622
#
# Compressibility (1/GPa) = 0.02039241
#
# Stress axis : x y z
#
# Youngs Moduli (GPa) = 99.46959 52.56914 112.51658
#
# Poissons Ratio (x) = 0.19694 0.26926
# Poissons Ratio (y) = 0.37264 0.29775
# Poissons Ratio (z) = 0.23804 0.13911
#
# Static dielectric constant tensor:
#      x y z
#    x 1.600670 0.000000 0.000000 
#    y 0.000000 1.706970 0.000000 
#    z 0.000000 0.000000 1.749860 
# 
# From -- ./inp_files/23011.got.cif
#   From: 2010.05.17/outbox.cif.g08.bks.cpg/sg21_12_cif.got.tgz:23011.got - 2010.06.03 23:14:55.
