data_PCOD9324646
_publ_section_title
;
Structure prediction by ZEFSAII (Michael W. Deem and Ramdas Pophale) SiO2 
 PCOD9324646
Probable space group: C 2 2 2
;
_chemical_formula_sum "Si O2"
_cell_formula_units_Z 30
_cell_length_a 10.659005
_cell_length_b 22.406184
_cell_length_c 5.991869
_cell_angle_alpha 90.000000
_cell_angle_beta 90.000000
_cell_angle_gamma 90.000000
_cell_volume 1431.023856
_symmetry_space_group_name_H-M "C 2 2 2"
_symmetry_group_IT_number 21
_symmetry_cell_setting 'orthorhombic'
loop_
_space_group_symop_operation_xyz
x,y,z
-x,-y,z
x,-y,-z
-x,y,-z
1/2+x,1/2+y,z
1/2-x,1/2-y,z
1/2+x,1/2-y,-z
1/2-x,1/2+y,-z
loop_
_atom_site_type_symbol
_atom_site_label
_atom_site_fract_x
_atom_site_fract_y
_atom_site_fract_z
Si Si1 0.865559 0.289040 0.896154
Si Si2 0.668701 0.100496 0.178920
Si Si3 0.456327 0.430079 0.748926
Si Si4 0.500000 0.818591 0.500000
Si Si5 0.500000 0.000000 0.000000
O O1 0.750000 0.250000 0.974659
O O2 0.898767 0.281447 0.638352
O O3 0.833550 0.357783 0.956577
O O4 0.000000 0.273015 0.000000
O O5 0.807666 0.082324 0.247911
O O6 0.587455 0.140541 0.346170
O O7 0.589727 0.041422 0.142768
O O8 0.500000 0.500000 0.749898
O O9 0.500000 0.407161 0.500000
O O10 0.500000 0.407337 0.000000
#
# Coordination Sequence:
#
# PCOD9324646 Si02
#       5
#     8   8   8   4   2
#     4  10  23  47  69  98 136 178 240 300 359 429
#     4  11  24  41  67  98 138 182 229 289 357 431
#     4  10  23  41  61  94 141 183 230 279 346 425
#     4  10  22  43  68 104 128 178 243 288 366 420
#     4  12  20  42  70 100 142 184 224 290 360 434
#
# _framework density 20.964012
#
# number of rings (size 3 to 8) (size 9 to 14) (size 15 to 20)
#    0.000    1.600    4.000    1.600    3.733   10.133 
#    0.000    0.000    0.000    0.000    0.000    0.000 
#    0.000    0.000    0.000    0.000    0.000    0.000 
#
# Total GULP energy -83501.061672 kJ/mol
# GULP energy per Si atom -5566.737445 kJ/mol
# Density = 2.091630 g / cm^3
# Si number density = 20.964012 Si / 1000 Ang^3
#
#
#
# Elastic Constant Matrix: (Units=GPa)
#
#
# Indices 1 2 3 4 5 6 
#
# 1 197.4150 35.3205 39.5523 0.0000 0.0000 0.0000
# 2 35.3205 40.1022 -0.4466 0.0000 0.0000 0.0000
# 3 39.5523 -0.4466 100.8852 0.0000 0.0000 0.0000
# 4 0.0000 0.0000 0.0000 3.9362 0.0000 0.0000
# 5 0.0000 0.0000 0.0000 0.0000 27.0083 0.0000
# 6 0.0000 0.0000 0.0000 0.0000 0.0000 167.3437
#
#
#
# Elastic Compliance Matrix: (Units=1/GPa)
#
#
# Indices 1 2 3 4 5 6 
#
# 1 0.006645 -0.005882 -0.002631 0.000000 0.000000 0.000000
# 2 -0.005882 0.030144 0.002440 0.000000 0.000000 0.000000
# 3 -0.002631 0.002440 0.010955 0.000000 0.000000 0.000000
# 4 0.000000 0.000000 0.000000 0.254050 0.000000 0.000000
# 5 0.000000 0.000000 0.000000 0.000000 0.037026 0.000000
# 6 0.000000 0.000000 0.000000 0.000000 0.000000 0.005976
#
#
# Mechanical properties :
#
#
# Convention : Reuss Voigt Hill
#
# Bulk Modulus (GPa) = 28.09280 54.13941 41.11610
# Shear Modulus (GPa) = 13.55718 57.25605 35.40662
#
# Velocity S-wave (km/s) = 2.54577 5.23172 4.11411
# Velocity P-wave (km/s) = 4.69796 7.89782 6.49793
#
# Compressibility (1/GPa) = 0.03559631
#
# Stress axis : x y z
#
# Youngs Moduli (GPa) = 150.48867 33.17400 91.28548
#
# Poissons Ratio (x) = 0.19513 0.24019
# Poissons Ratio (y) = 0.88517 -0.22269
# Poissons Ratio (z) = 0.39597 -0.08093
#
# Static dielectric constant tensor:
#      x y z
#    x 1.751880 0.000000 0.000000 
#    y 0.000000 1.721640 0.000000 
#    z 0.000000 0.000000 1.910780 
# 
# From -- ./inp_files/2451.got.cif
#   From: 2010.05.17/outbox.cif.g08.bks.cpg/sg21_2_cif.got.tgz:2451.got - 2010.06.03 23:14:55.
