data_PCOD9324401
_publ_section_title
;
Structure prediction by ZEFSAII (Michael W. Deem and Ramdas Pophale) SiO2 
 PCOD9324401
Probable space group: C 2 2 2
;
_chemical_formula_sum "Si O2"
_cell_formula_units_Z 48
_cell_length_a 7.053614
_cell_length_b 24.942521
_cell_length_c 13.177047
_cell_angle_alpha 90.000000
_cell_angle_beta 90.000000
_cell_angle_gamma 90.000000
_cell_volume 2318.302648
_symmetry_space_group_name_H-M "C 2 2 2"
_symmetry_group_IT_number 21
_symmetry_cell_setting 'orthorhombic'
loop_
_space_group_symop_operation_xyz
x,y,z
-x,-y,z
x,-y,-z
-x,y,-z
1/2+x,1/2+y,z
1/2-x,1/2-y,z
1/2+x,1/2-y,-z
1/2-x,1/2+y,-z
loop_
_atom_site_type_symbol
_atom_site_label
_atom_site_fract_x
_atom_site_fract_y
_atom_site_fract_z
Si Si1 0.221111 0.808959 0.206384
Si Si2 0.017526 0.608152 0.888025
Si Si3 0.351024 0.154715 0.581011
Si Si4 0.398071 0.952302 0.298429
Si Si5 0.500000 0.408622 0.500000
Si Si6 0.500000 0.500000 0.662616
Si Si7 0.141775 0.807481 0.901887
O O1 0.250000 0.750000 0.161274
O O2 0.342825 0.852618 0.144676
O O3 0.293134 0.809904 0.322053
O O4 0.998108 0.817500 0.193306
O O5 0.008371 0.562104 0.804449
O O6 0.199998 0.646653 0.894515
O O7 0.000000 0.585274 0.000000
O O8 0.500000 0.177170 0.500000
O O9 0.422898 0.100583 0.635297
O O10 0.169439 0.131224 0.524968
O O11 0.500000 0.000000 0.355509
O O12 0.182186 0.973382 0.281449
O O13 0.556109 0.449724 0.590345
O O14 0.250000 0.750000 0.899713
O O15 0.000000 0.810386 0.000000
#
# Coordination Sequence:
#
# PCOD9324401 Si02
#       7
#     8   8   8   8   4   4   8
#     4  11  23  41  61  93 128 169 218 273 328 397
#     4  11  23  40  63  95 131 170 217 270 333 393
#     4  10  22  39  62  89 125 164 212 263 320 386
#     4  10  22  38  63  91 126 164 211 263 321 388
#     4   9  18  36  62  90 120 158 210 264 317 370
#     4   9  18  36  62  91 120 160 209 264 316 373
#     4  12  22  38  68  96 129 171 223 285 334 391
#
# _framework density 20.704802999999998
#
# number of rings (size 3 to 8) (size 9 to 14) (size 15 to 20)
#    0.000    1.500    3.333    2.000    0.000    8.667 
#    1.500    0.000    0.000    1.000    0.000    0.000 
#    0.000    0.000    0.000    0.000    0.000    0.000 
#
# Total GULP energy -133767.344355 kJ/mol
# GULP energy per Si atom -5573.639348 kJ/mol
# Density = 2.065768 g / cm^3
# Si number density = 20.704803 Si / 1000 Ang^3
#
#
#
# Elastic Constant Matrix: (Units=GPa)
#
#
# Indices 1 2 3 4 5 6 
#
# 1 78.9566 2.8689 39.6298 0.0000 0.0000 0.0000
# 2 2.8689 49.8846 -3.3322 0.0000 0.0000 0.0000
# 3 39.6298 -3.3322 100.2639 0.0000 0.0000 0.0000
# 4 0.0000 0.0000 0.0000 -0.7186 0.0000 0.0000
# 5 0.0000 0.0000 0.0000 0.0000 51.5284 0.0000
# 6 0.0000 0.0000 0.0000 0.0000 0.0000 25.2100
#
#
#
# Elastic Compliance Matrix: (Units=1/GPa)
#
#
# Indices 1 2 3 4 5 6 
#
# 1 0.015888 -0.001336 -0.006324 0.000000 0.000000 0.000000
# 2 -0.001336 0.020203 0.001200 0.000000 0.000000 0.000000
# 3 -0.006324 0.001200 0.012513 0.000000 0.000000 0.000000
# 4 0.000000 0.000000 0.000000 -1.391551 0.000000 0.000000
# 5 0.000000 0.000000 0.000000 0.000000 0.019407 0.000000
# 6 0.000000 0.000000 0.000000 0.000000 0.000000 0.039667
#
#
# Mechanical properties :
#
#
# Convention : Reuss Voigt Hill
#
# Bulk Modulus (GPa) = 28.02469 34.15977 31.09223
# Shear Modulus (GPa) = -3.97123 27.86652 11.94765
#
# Velocity S-wave (km/s) = -1.38643 3.67263 2.40479
# Velocity P-wave (km/s) = 3.31690 5.87525 4.77076
#
# Compressibility (1/GPa) = 0.03568282
#
# Stress axis : x y z
#
# Youngs Moduli (GPa) = 62.94066 49.49697 79.91546
#
# Poissons Ratio (x) = 0.06614 0.50540
# Poissons Ratio (y) = 0.08410 -0.09587
# Poissons Ratio (z) = 0.39805 -0.05938
#
# Static dielectric constant tensor:
#      x y z
#    x 1.866340 0.000000 0.000000 
#    y 0.000000 1.703510 0.000000 
#    z 0.000000 0.000000 1.796220 
# 
# From -- ./inp_files/29401.got.cif
#   From: 2010.05.17/outbox.cif.g08.bks.cpg/sg21_15_cif.got.tgz:29401.got - 2010.06.03 23:14:55.
