data_PCOD9324465
_publ_section_title
;
Structure prediction by ZEFSAII (Michael W. Deem and Ramdas Pophale) SiO2 
 PCOD9324465
Probable space group: C 2 2 2
;
_chemical_formula_sum "Si O2"
_cell_formula_units_Z 52
_cell_length_a 18.392763
_cell_length_b 23.363991
_cell_length_c 6.512761
_cell_angle_alpha 90.000000
_cell_angle_beta 90.000000
_cell_angle_gamma 90.000000
_cell_volume 2798.718033
_symmetry_space_group_name_H-M "C 2 2 2"
_symmetry_group_IT_number 21
_symmetry_cell_setting 'orthorhombic'
loop_
_space_group_symop_operation_xyz
x,y,z
-x,-y,z
x,-y,-z
-x,y,-z
1/2+x,1/2+y,z
1/2-x,1/2-y,z
1/2+x,1/2-y,-z
1/2-x,1/2+y,-z
loop_
_atom_site_type_symbol
_atom_site_label
_atom_site_fract_x
_atom_site_fract_y
_atom_site_fract_z
Si Si1 0.182234 0.810168 0.075621
Si Si2 0.391102 0.500000 0.000000
Si Si3 0.196252 0.657978 0.762918
Si Si4 0.404112 0.598737 0.281599
Si Si5 0.703827 0.553615 0.366246
Si Si6 0.000000 0.193336 0.500000
Si Si7 0.068339 0.729568 0.846820
Si Si8 0.250000 0.250000 0.557416
O O1 0.150087 0.871662 0.122338
O O2 0.193127 0.779874 0.292776
O O3 0.257493 0.819479 0.957779
O O4 0.126802 0.772537 0.947091
O O5 0.433138 0.544611 0.151212
O O6 0.338590 0.468984 0.166295
O O7 0.232617 0.597907 0.696749
O O8 0.111466 0.669979 0.808158
O O9 0.214704 0.701786 0.580893
O O10 0.357578 0.581248 0.482794
O O11 0.458784 0.648709 0.349643
O O12 0.732703 0.500000 0.500000
O O13 0.045569 0.236495 0.357990
O O14 0.000000 0.723166 0.000000
#
# Coordination Sequence:
#
# PCOD9324465 Si02
#       8
#     8   4   8   8   8   4   8   4
#     4  12  21  38  62  89 122 164 201 255 314 370
#     4  10  22  40  63  86 117 156 224 268 296 350
#     4  12  22  37  64  91 125 160 208 258 317 376
#     4  11  22  39  62  85 125 166 211 261 305 362
#     4  10  22  40  62  93 118 158 214 269 309 354
#     4  12  26  40  61  86 133 178 200 246 310 384
#     4  12  25  39  57  93 131 165 206 243 319 395
#     4  12  20  34  62  96 118 154 206 252 318 374
#
# _framework density 18.579934999999999
#
# number of rings (size 3 to 8) (size 9 to 14) (size 15 to 20)
#    0.000    0.615    7.692    1.846    0.000    0.000 
#    0.000    4.231    0.000    0.000    0.000    3.231 
#    0.000    0.000    0.000    0.000    0.000    0.000 
#
# Total GULP energy -145066.162270 kJ/mol
# GULP energy per Si atom -5579.467780 kJ/mol
# Density = 1.853765 g / cm^3
# Si number density = 18.579935 Si / 1000 Ang^3
#
#
#
# Elastic Constant Matrix: (Units=GPa)
#
#
# Indices 1 2 3 4 5 6 
#
# 1 73.0488 23.4211 26.2294 0.0000 0.0000 0.0000
# 2 23.4211 50.1510 18.5837 0.0000 0.0000 0.0000
# 3 26.2294 18.5837 79.0652 0.0000 0.0000 0.0000
# 4 0.0000 0.0000 0.0000 41.2160 0.0000 0.0000
# 5 0.0000 0.0000 0.0000 0.0000 30.9677 0.0000
# 6 0.0000 0.0000 0.0000 0.0000 0.0000 28.9963
#
#
#
# Elastic Compliance Matrix: (Units=1/GPa)
#
#
# Indices 1 2 3 4 5 6 
#
# 1 0.017288 -0.006516 -0.004204 0.000000 0.000000 0.000000
# 2 -0.006516 0.024298 -0.003549 0.000000 0.000000 0.000000
# 3 -0.004204 -0.003549 0.014877 0.000000 0.000000 0.000000
# 4 0.000000 0.000000 0.000000 0.024262 0.000000 0.000000
# 5 0.000000 0.000000 0.000000 0.000000 0.032292 0.000000
# 6 0.000000 0.000000 0.000000 0.000000 0.000000 0.034487
#
#
# Mechanical properties :
#
#
# Convention : Reuss Voigt Hill
#
# Bulk Modulus (GPa) = 35.81086 37.63705 36.72395
# Shear Modulus (GPa) = 26.97591 29.17138 28.07365
#
# Velocity S-wave (km/s) = 3.81449 3.96668 3.89133
# Velocity P-wave (km/s) = 6.22224 6.42497 6.32442
#
# Compressibility (1/GPa) = 0.02792449
#
# Stress axis : x y z
#
# Youngs Moduli (GPa) = 57.84335 41.15545 67.21970
#
# Poissons Ratio (x) = 0.26817 0.28257
# Poissons Ratio (y) = 0.37691 0.23859
# Poissons Ratio (z) = 0.24315 0.14608
#
# Static dielectric constant tensor:
#      x y z
#    x 1.706100 0.000000 0.000000 
#    y 0.000000 1.696430 0.000000 
#    z 0.000000 0.000000 1.664250 
# 
# From -- ./inp_files/5319.got.cif
#   From: 2010.05.17/outbox.cif.g08.bks.cpg/sg21_3_cif.got.tgz:5319.got - 2010.06.03 23:14:55.
