data_PCOD9324283
_publ_section_title
;
Structure prediction by ZEFSAII (Michael W. Deem and Ramdas Pophale) SiO2 
 PCOD9324283
Probable space group: C 2 2 2
;
_chemical_formula_sum "Si O2"
_cell_formula_units_Z 54
_cell_length_a 13.862104
_cell_length_b 11.858236
_cell_length_c 16.249805
_cell_angle_alpha 90.000000
_cell_angle_beta 90.000000
_cell_angle_gamma 90.000000
_cell_volume 2671.144582
_symmetry_space_group_name_H-M "C 2 2 2"
_symmetry_group_IT_number 21
_symmetry_cell_setting 'orthorhombic'
loop_
_space_group_symop_operation_xyz
x,y,z
-x,-y,z
x,-y,-z
-x,y,-z
1/2+x,1/2+y,z
1/2-x,1/2-y,z
1/2+x,1/2-y,-z
1/2-x,1/2+y,-z
loop_
_atom_site_type_symbol
_atom_site_label
_atom_site_fract_x
_atom_site_fract_y
_atom_site_fract_z
Si Si1 0.782098 0.043345 0.130074
Si Si2 0.000000 0.000000 0.500000
Si Si3 0.386376 0.321895 0.602703
Si Si4 0.325429 0.078879 0.581845
Si Si5 0.073404 0.795417 0.217897
Si Si6 0.250000 0.250000 0.992281
Si Si7 0.424483 0.345614 0.074616
Si Si8 0.609629 0.036100 0.237636
O O1 0.843687 0.117372 0.193746
O O2 0.751245 0.135874 0.062071
O O3 0.692279 0.987001 0.177825
O O4 0.857545 0.953121 0.094305
O O5 0.934603 0.916471 0.550026
O O6 0.383396 0.195600 0.565625
O O7 0.277767 0.370386 0.610785
O O8 0.446505 0.315205 0.686869
O O9 0.367693 0.021093 0.664898
O O10 0.321513 0.000000 0.500000
O O11 0.113452 0.668953 0.215943
O O12 0.986268 0.812694 0.154615
O O13 0.347579 0.252873 0.045008
O O14 0.500000 0.363896 0.000000
O O15 0.500000 0.000000 0.221150
#
# Coordination Sequence:
#
# PCOD9324283 Si02
#       8
#     8   2   8   8   8   4   8   8
#     4  12  23  44  68  96 132 179 228 281 334 408
#     4  12  24  40  66 112 128 168 220 298 356 400
#     4  10  23  40  69 101 136 176 226 285 355 413
#     4  10  21  43  69  95 134 183 225 281 343 427
#     4  11  23  44  69  97 134 182 228 278 335 421
#     4  12  26  42  68  98 138 170 222 288 330 396
#     4  12  27  44  71 102 131 183 233 278 340 408
#     4  11  24  42  67  99 136 180 226 274 356 403
#
# _framework density 20.216052000000001
#
# number of rings (size 3 to 8) (size 9 to 14) (size 15 to 20)
#    0.000    0.889    5.185    0.889    6.222    2.667 
#    0.000    0.000    0.000    0.000    0.000    0.000 
#    0.000    0.000    0.000    0.000    0.000    0.000 
#
# Total GULP energy -150720.324730 kJ/mol
# GULP energy per Si atom -5582.234249 kJ/mol
# Density = 2.017004 g / cm^3
# Si number density = 20.216052 Si / 1000 Ang^3
#
#
#
# Elastic Constant Matrix: (Units=GPa)
#
#
# Indices 1 2 3 4 5 6 
#
# 1 113.5635 17.8786 60.4274 0.0000 0.0000 0.0000
# 2 17.8786 60.8873 55.7911 0.0000 0.0000 0.0000
# 3 60.4274 55.7911 131.4722 0.0000 0.0000 0.0000
# 4 0.0000 0.0000 0.0000 24.7138 0.0000 0.0000
# 5 0.0000 0.0000 0.0000 0.0000 37.1897 0.0000
# 6 0.0000 0.0000 0.0000 0.0000 0.0000 28.9451
#
#
#
# Elastic Compliance Matrix: (Units=1/GPa)
#
#
# Indices 1 2 3 4 5 6 
#
# 1 0.011881 0.002479 -0.006513 0.000000 0.000000 0.000000
# 2 0.002479 0.027390 -0.012763 0.000000 0.000000 0.000000
# 3 -0.006513 -0.012763 0.016015 0.000000 0.000000 0.000000
# 4 0.000000 0.000000 0.000000 0.040463 0.000000 0.000000
# 5 0.000000 0.000000 0.000000 0.000000 0.026889 0.000000
# 6 0.000000 0.000000 0.000000 0.000000 0.000000 0.034548
#
#
# Mechanical properties :
#
#
# Convention : Reuss Voigt Hill
#
# Bulk Modulus (GPa) = 46.09602 63.79081 54.94342
# Shear Modulus (GPa) = 25.25113 29.62477 27.43795
#
# Velocity S-wave (km/s) = 3.53804 3.83222 3.68806
# Velocity P-wave (km/s) = 6.28821 7.15571 6.73594
#
# Compressibility (1/GPa) = 0.02169385
#
# Stress axis : x y z
#
# Youngs Moduli (GPa) = 84.16981 36.50927 62.43998
#
# Poissons Ratio (x) = -0.09050 0.40664
# Poissons Ratio (y) = -0.20865 0.79690
# Poissons Ratio (z) = 0.54816 0.46595
#
# Static dielectric constant tensor:
#      x y z
#    x 1.686640 0.000000 0.000000 
#    y 0.000000 1.711260 0.000000 
#    z 0.000000 0.000000 1.743930 
# 
# From -- ./inp_files/32357.got.cif
#   From: 2010.05.17/outbox.cif.g08.bks.cpg/sg21_17_cif.got.tgz:32357.got - 2010.06.03 23:14:55.
