data_PCOD9324914
_publ_section_title
;
Structure prediction by ZEFSAII (Michael W. Deem and Ramdas Pophale) SiO2 
 PCOD9324914
Probable space group: C 2 2 2
;
_chemical_formula_sum "Si O2"
_cell_formula_units_Z 36
_cell_length_a 21.927174
_cell_length_b 9.246208
_cell_length_c 8.522869
_cell_angle_alpha 90.000000
_cell_angle_beta 90.000000
_cell_angle_gamma 90.000000
_cell_volume 1727.953834
_symmetry_space_group_name_H-M "C 2 2 2"
_symmetry_group_IT_number 21
_symmetry_cell_setting 'orthorhombic'
loop_
_space_group_symop_operation_xyz
x,y,z
-x,-y,z
x,-y,-z
-x,y,-z
1/2+x,1/2+y,z
1/2-x,1/2-y,z
1/2+x,1/2-y,-z
1/2-x,1/2+y,-z
loop_
_atom_site_type_symbol
_atom_site_label
_atom_site_fract_x
_atom_site_fract_y
_atom_site_fract_z
Si Si1 0.500000 0.000000 0.000000
Si Si2 0.575028 0.732647 0.915027
Si Si3 0.190354 0.343305 0.070808
Si Si4 0.184823 0.337177 0.435070
Si Si5 0.932967 0.162775 0.438508
Si Si6 0.500000 0.500000 0.000000
O O1 0.542527 0.111238 0.092552
O O2 0.564617 0.656881 0.750033
O O3 0.548343 0.625653 0.049617
O O4 0.643312 0.763590 0.958466
O O5 0.250000 0.250000 0.073956
O O6 0.168667 0.350704 0.250495
O O7 0.201314 0.500000 0.000000
O O8 0.192501 0.500000 0.500000
O O9 0.250000 0.250000 0.453182
O O10 0.126288 0.257727 0.513868
O O11 0.000000 0.214510 0.500000
O O12 0.924715 0.000000 0.500000
#
# Coordination Sequence:
#
# PCOD9324914 Si02
#       6
#     2   8   8   8   8   2
#     4  10  24  42  68  98 136 178 230 272 352 402
#     4  11  24  43  69  98 140 178 229 285 337 418
#     4  11  26  44  68  98 131 177 232 284 342 410
#     4  11  26  46  69  97 136 182 228 284 352 421
#     4  11  26  43  68 103 140 180 228 283 346 413
#     4  10  24  38  68  98 132 186 214 276 340 398
#
# _framework density 20.833891000000001
#
# number of rings (size 3 to 8) (size 9 to 14) (size 15 to 20)
#    0.000    1.111    1.111    3.333   10.889    5.778 
#    0.000    0.000    0.000    0.000    0.000    0.000 
#    0.000    0.000    0.000    0.000    0.000    0.000 
#
# Total GULP energy -100321.396784 kJ/mol
# GULP energy per Si atom -5573.410932 kJ/mol
# Density = 2.078647 g / cm^3
# Si number density = 20.833891 Si / 1000 Ang^3
#
#
#
# Elastic Constant Matrix: (Units=GPa)
#
#
# Indices 1 2 3 4 5 6 
#
# 1 88.5357 42.8267 43.0882 0.0000 0.0000 0.0000
# 2 42.8267 140.3793 35.4909 0.0000 0.0000 0.0000
# 3 43.0882 35.4909 118.7170 0.0000 0.0000 0.0000
# 4 0.0000 0.0000 0.0000 41.7031 0.0000 0.0000
# 5 0.0000 0.0000 0.0000 0.0000 74.3312 0.0000
# 6 0.0000 0.0000 0.0000 0.0000 0.0000 24.6525
#
#
#
# Elastic Compliance Matrix: (Units=1/GPa)
#
#
# Indices 1 2 3 4 5 6 
#
# 1 0.015155 -0.003497 -0.004455 0.000000 0.000000 0.000000
# 2 -0.003497 0.008513 -0.001276 0.000000 0.000000 0.000000
# 3 -0.004455 -0.001276 0.010422 0.000000 0.000000 0.000000
# 4 0.000000 0.000000 0.000000 0.023979 0.000000 0.000000
# 5 0.000000 0.000000 0.000000 0.000000 0.013453 0.000000
# 6 0.000000 0.000000 0.000000 0.000000 0.000000 0.040564
#
#
# Mechanical properties :
#
#
# Convention : Reuss Voigt Hill
#
# Bulk Modulus (GPa) = 63.96361 65.60484 64.78422
# Shear Modulus (GPa) = 36.83188 43.21909 40.02548
#
# Velocity S-wave (km/s) = 4.20918 4.55957 4.38787
# Velocity P-wave (km/s) = 7.37505 7.69918 7.53885
#
# Compressibility (1/GPa) = 0.01563389
#
# Stress axis : x y z
#
# Youngs Moduli (GPa) = 65.98673 117.46789 95.95384
#
# Poissons Ratio (x) = 0.41079 0.42746
# Poissons Ratio (y) = 0.23076 0.12241
# Poissons Ratio (z) = 0.29396 0.14986
#
# Static dielectric constant tensor:
#      x y z
#    x 1.787940 0.000000 0.000000 
#    y 0.000000 1.655170 0.000000 
#    z 0.000000 0.000000 1.884880 
# 
# From -- ./inp_files/17202.got.cif
#   From: 2010.05.17/outbox.cif.g08.bks.cpg/sg21_9_cif.got.tgz:17202.got - 2010.06.03 23:14:55.
