data_PCOD9324818
_publ_section_title
;
Structure prediction by ZEFSAII (Michael W. Deem and Ramdas Pophale) SiO2 
 PCOD9324818
Probable space group: C 2 2 2
;
_chemical_formula_sum "Si O2"
_cell_formula_units_Z 32
_cell_length_a 17.147746
_cell_length_b 13.303756
_cell_length_c 5.422714
_cell_angle_alpha 90.000000
_cell_angle_beta 90.000000
_cell_angle_gamma 90.000000
_cell_volume 1237.080647
_symmetry_space_group_name_H-M "C 2 2 2"
_symmetry_group_IT_number 21
_symmetry_cell_setting 'orthorhombic'
loop_
_space_group_symop_operation_xyz
x,y,z
-x,-y,z
x,-y,-z
-x,y,-z
1/2+x,1/2+y,z
1/2-x,1/2-y,z
1/2+x,1/2-y,-z
1/2-x,1/2+y,-z
loop_
_atom_site_type_symbol
_atom_site_label
_atom_site_fract_x
_atom_site_fract_y
_atom_site_fract_z
Si Si1 0.464251 0.885778 0.749246
Si Si2 0.550925 0.369971 0.249257
Si Si3 0.314175 0.533576 0.754879
Si Si4 0.339629 0.748400 0.563730
O O1 0.500000 0.843378 0.500000
O O2 0.375612 0.845674 0.705849
O O3 0.500000 0.000000 0.750084
O O4 0.500000 0.844168 0.000000
O O5 0.500000 0.377468 0.500000
O O6 0.607980 0.465608 0.239084
O O7 0.611783 0.281399 0.320207
O O8 0.500000 0.364602 0.000000
O O9 0.273563 0.500000 0.500000
O O10 0.338643 0.649696 0.741476
O O11 0.269168 0.500000 0.000000
O O12 0.250000 0.750000 0.489725
#
# Coordination Sequence:
#
# PCOD9324818 Si02
#       4
#     8   8   8   8
#     4  10  24  49  74 106 144 215 273 320 383 496
#     4  11  24  44  74 108 150 200 258 325 400 482
#     4  10  23  42  65 107 148 195 246 320 403 465
#     4  11  26  48  76 122 164 209 269 346 418 489
#
# _framework density 25.867349000000001
#
# number of rings (size 3 to 8) (size 9 to 14) (size 15 to 20)
#    0.000    1.500    0.000    3.750    0.000   23.000 
#   18.000   15.000    0.000    0.000    0.000    0.000 
#    0.000    0.000    0.000    0.000    0.000    0.000 
#
# Total GULP energy -89215.779381 kJ/mol
# GULP energy per Si atom -5575.986211 kJ/mol
# Density = 2.580847 g / cm^3
# Si number density = 25.867349 Si / 1000 Ang^3
#
#
#
# Elastic Constant Matrix: (Units=GPa)
#
#
# Indices 1 2 3 4 5 6 
#
# 1 124.1889 36.3077 44.0925 0.0000 0.0000 0.0000
# 2 36.3077 148.0500 7.8952 0.0000 0.0000 0.0000
# 3 44.0925 7.8952 227.2974 0.0000 0.0000 0.0000
# 4 0.0000 0.0000 0.0000 21.7664 0.0000 0.0000
# 5 0.0000 0.0000 0.0000 0.0000 14.0594 0.0000
# 6 0.0000 0.0000 0.0000 0.0000 0.0000 30.7826
#
#
#
# Elastic Compliance Matrix: (Units=1/GPa)
#
#
# Indices 1 2 3 4 5 6 
#
# 1 0.009307 -0.002190 -0.001729 0.000000 0.000000 0.000000
# 2 -0.002190 0.007282 0.000172 0.000000 0.000000 0.000000
# 3 -0.001729 0.000172 0.004729 0.000000 0.000000 0.000000
# 4 0.000000 0.000000 0.000000 0.045942 0.000000 0.000000
# 5 0.000000 0.000000 0.000000 0.000000 0.071127 0.000000
# 6 0.000000 0.000000 0.000000 0.000000 0.000000 0.032486
#
#
# Mechanical properties :
#
#
# Convention : Reuss Voigt Hill
#
# Bulk Modulus (GPa) = 72.34330 75.12525 73.73428
# Shear Modulus (GPa) = 27.32604 40.73774 34.03189
#
# Velocity S-wave (km/s) = 3.25374 3.97277 3.63110
# Velocity P-wave (km/s) = 6.49181 7.08163 6.79312
#
# Compressibility (1/GPa) = 0.01382298
#
# Stress axis : x y z
#
# Youngs Moduli (GPa) = 107.45171 137.31727 211.46106
#
# Poissons Ratio (x) = 0.30074 0.36567
# Poissons Ratio (y) = 0.23533 -0.03635
# Poissons Ratio (z) = 0.18581 -0.02360
#
# Static dielectric constant tensor:
#      x y z
#    x 2.121420 0.000000 0.000000 
#    y 0.000000 3.587960 0.000000 
#    z 0.000000 0.000000 2.129040 
# 
# From -- ./inp_files/4604.got.cif
#   From: 2010.05.17/outbox.cif.g08.bks.cpg/sg21_3_cif.got.tgz:4604.got - 2010.06.03 23:14:55.
