data_PCOD9324597
_publ_section_title
;
Structure prediction by ZEFSAII (Michael W. Deem and Ramdas Pophale) SiO2 
 PCOD9324597
Probable space group: C 2 2 2
;
_chemical_formula_sum "Si O2"
_cell_formula_units_Z 40
_cell_length_a 12.491917
_cell_length_b 8.617873
_cell_length_c 17.878437
_cell_angle_alpha 90.000000
_cell_angle_beta 90.000000
_cell_angle_gamma 90.000000
_cell_volume 1924.680863
_symmetry_space_group_name_H-M "C 2 2 2"
_symmetry_group_IT_number 21
_symmetry_cell_setting 'orthorhombic'
loop_
_space_group_symop_operation_xyz
x,y,z
-x,-y,z
x,-y,-z
-x,y,-z
1/2+x,1/2+y,z
1/2-x,1/2-y,z
1/2+x,1/2-y,-z
1/2-x,1/2+y,-z
loop_
_atom_site_type_symbol
_atom_site_label
_atom_site_fract_x
_atom_site_fract_y
_atom_site_fract_z
Si Si1 0.364180 0.176558 0.738827
Si Si2 0.620995 0.754417 0.902564
Si Si3 0.806917 0.000000 0.500000
Si Si4 0.965039 0.823684 0.596336
Si Si5 0.500000 0.000000 0.000000
Si Si6 0.832560 0.618363 0.361343
Si Si7 0.500000 0.500000 0.000000
O O1 0.250000 0.250000 0.754272
O O2 0.420782 0.212033 0.817566
O O3 0.400789 0.275350 0.668506
O O4 0.360588 0.001694 0.705159
O O5 0.750000 0.750000 0.905957
O O6 0.576323 0.896228 0.949784
O O7 0.571946 0.604888 0.944394
O O8 0.884257 0.144306 0.474109
O O9 0.732780 0.036537 0.571019
O O10 0.061719 0.698801 0.603050
O O11 0.000000 0.000000 0.608750
O O12 0.750000 0.750000 0.333511
#
# Coordination Sequence:
#
# PCOD9324597 Si02
#       7
#     8   8   4   8   2   8   2
#     4  11  24  47  69 103 141 186 237 295 358 431
#     4  10  23  43  74 106 147 183 230 288 343 439
#     4  12  27  48  71  98 140 179 244 315 356 432
#     4  12  26  44  69  95 132 181 235 296 369 418
#     4  10  22  42  68 112 144 188 222 286 348 424
#     4  12  27  45  68  97 136 186 242 296 370 420
#     4  10  22  46  76 116 140 188 230 282 368 412
#
# _framework density 20.782668000000001
#
# number of rings (size 3 to 8) (size 9 to 14) (size 15 to 20)
#    0.000    0.800    4.000    1.500    7.000    0.000 
#    3.600    1.000    0.000    0.000    0.000    0.000 
#    0.000    0.000    0.000    0.000    0.000    0.000 
#
# Total GULP energy -111493.161540 kJ/mol
# GULP energy per Si atom -5574.658077 kJ/mol
# Density = 2.073537 g / cm^3
# Si number density = 20.782668 Si / 1000 Ang^3
#
#
#
# Elastic Constant Matrix: (Units=GPa)
#
#
# Indices 1 2 3 4 5 6 
#
# 1 93.9018 29.0293 42.9159 0.0000 0.0000 0.0000
# 2 29.0293 116.0106 80.3947 0.0000 0.0000 0.0000
# 3 42.9159 80.3947 161.2953 0.0000 0.0000 0.0000
# 4 0.0000 0.0000 0.0000 -286.8591 0.0000 0.0000
# 5 0.0000 0.0000 0.0000 0.0000 50.3218 0.0000
# 6 0.0000 0.0000 0.0000 0.0000 0.0000 7.7783
#
#
#
# Elastic Compliance Matrix: (Units=1/GPa)
#
#
# Indices 1 2 3 4 5 6 
#
# 1 0.012238 -0.001231 -0.002643 0.000000 0.000000 0.000000
# 2 -0.001231 0.013292 -0.006298 0.000000 0.000000 0.000000
# 3 -0.002643 -0.006298 0.010042 0.000000 0.000000 0.000000
# 4 0.000000 0.000000 0.000000 -0.003486 0.000000 0.000000
# 5 0.000000 0.000000 0.000000 0.000000 0.019872 0.000000
# 6 0.000000 0.000000 0.000000 0.000000 0.000000 0.128563
#
#
# Mechanical properties :
#
#
# Convention : Reuss Voigt Hill
#
# Bulk Modulus (GPa) = 65.66280 75.09862 70.38071
# Shear Modulus (GPa) = 24.27889 -31.16060 -3.44086
#
# Velocity S-wave (km/s) = 3.42164 -3.87635 -1.28811
# Velocity P-wave (km/s) = 6.87559 4.02229 5.63261
#
# Compressibility (1/GPa) = 0.01522932
#
# Stress axis : x y z
#
# Youngs Moduli (GPa) = 81.71483 75.23195 99.58276
#
# Poissons Ratio (x) = 0.09261 0.26315
# Poissons Ratio (y) = 0.10059 0.62715
# Poissons Ratio (z) = 0.21593 0.47379
#
# Static dielectric constant tensor:
#      x y z
#    x 1.781370 0.000000 0.000000 
#    y 0.000000 1.753960 0.000000 
#    z 0.000000 0.000000 1.854360 
# 
# From -- ./inp_files/36108.got.cif
#   From: 2010.05.17/outbox.cif.g08.bks.cpg/sg21_19_cif.got.tgz:36108.got - 2010.06.03 23:14:55.
