data_PCOD9324459
_publ_section_title
;
Structure prediction by ZEFSAII (Michael W. Deem and Ramdas Pophale) SiO2 
 PCOD9324459
Probable space group: C 2 2 2
;
_chemical_formula_sum "Si O2"
_cell_formula_units_Z 64
_cell_length_a 15.732338
_cell_length_b 17.019287
_cell_length_c 12.183118
_cell_angle_alpha 90.000000
_cell_angle_beta 90.000000
_cell_angle_gamma 90.000000
_cell_volume 3262.068533
_symmetry_space_group_name_H-M "C 2 2 2"
_symmetry_group_IT_number 21
_symmetry_cell_setting 'orthorhombic'
loop_
_space_group_symop_operation_xyz
x,y,z
-x,-y,z
x,-y,-z
-x,y,-z
1/2+x,1/2+y,z
1/2-x,1/2-y,z
1/2+x,1/2-y,-z
1/2-x,1/2+y,-z
loop_
_atom_site_type_symbol
_atom_site_label
_atom_site_fract_x
_atom_site_fract_y
_atom_site_fract_z
Si Si1 0.863538 0.412303 0.973274
Si Si2 0.383237 0.733048 0.259116
Si Si3 0.327796 0.311699 0.276729
Si Si4 0.904693 0.422721 0.548596
Si Si5 0.148367 0.750447 0.495322
Si Si6 0.543063 0.246341 0.892152
Si Si7 0.264336 0.873763 0.197051
Si Si8 0.708500 0.951741 0.257028
O O1 0.922003 0.338981 0.933704
O O2 0.805017 0.429000 0.869082
O O3 0.901673 0.500000 0.000000
O O4 0.807302 0.385660 0.077444
O O5 0.393427 0.713338 0.387121
O O6 0.468393 0.757847 0.197444
O O7 0.323196 0.809639 0.255887
O O8 0.329570 0.664372 0.198504
O O9 0.250000 0.250000 0.268046
O O10 0.375704 0.289905 0.389203
O O11 0.383855 0.296235 0.168652
O O12 0.284910 0.396105 0.294714
O O13 0.860156 0.500000 0.500000
O O14 0.873040 0.340435 0.506961
O O15 0.878324 0.430324 0.676504
O O16 0.000000 0.424804 0.500000
O O17 0.250000 0.750000 0.483753
O O18 0.500000 0.283540 0.000000
O O19 0.270288 0.956516 0.258985
#
# Coordination Sequence:
#
# PCOD9324459 Si02
#       8
#     8   8   8   8   8   8   8   8
#     4  10  22  40  61  93 130 169 213 264 329 406
#     4  11  24  40  64  95 133 169 218 273 336 403
#     4  11  23  41  66  93 125 176 227 268 328 408
#     4  11  24  38  60  99 135 166 205 272 340 400
#     4  11  21  40  61  90 127 171 218 256 315 398
#     4  12  25  40  63  96 126 172 218 279 334 394
#     4  10  22  42  64  92 128 178 215 267 332 404
#     4  11  22  42  66  91 129 171 222 268 328 401
#
# _framework density 19.619453
#
# number of rings (size 3 to 8) (size 9 to 14) (size 15 to 20)
#    0.000    1.125    6.250    0.750    5.250    0.250 
#    0.000    0.625    0.000    0.750    0.000    1.750 
#    0.000    0.000    0.000    0.000    0.000    0.000 
#
# Total GULP energy -178380.915036 kJ/mol
# GULP energy per Si atom -5574.403595 kJ/mol
# Density = 1.957480 g / cm^3
# Si number density = 19.619453 Si / 1000 Ang^3
#
#
#
# Elastic Constant Matrix: (Units=GPa)
#
#
# Indices 1 2 3 4 5 6 
#
# 1 68.6397 61.0540 37.9646 0.0000 0.0000 0.0000
# 2 61.0540 111.3745 32.1291 0.0000 0.0000 0.0000
# 3 37.9646 32.1291 132.3839 0.0000 0.0000 0.0000
# 4 0.0000 0.0000 0.0000 26.8756 0.0000 0.0000
# 5 0.0000 0.0000 0.0000 0.0000 30.0550 0.0000
# 6 0.0000 0.0000 0.0000 0.0000 0.0000 20.0108
#
#
#
# Elastic Compliance Matrix: (Units=1/GPa)
#
#
# Indices 1 2 3 4 5 6 
#
# 1 0.031440 -0.015736 -0.005197 0.000000 0.000000 0.000000
# 2 -0.015736 0.017530 0.000258 0.000000 0.000000 0.000000
# 3 -0.005197 0.000258 0.008982 0.000000 0.000000 0.000000
# 4 0.000000 0.000000 0.000000 0.037208 0.000000 0.000000
# 5 0.000000 0.000000 0.000000 0.000000 0.033272 0.000000
# 6 0.000000 0.000000 0.000000 0.000000 0.000000 0.049973
#
#
# Mechanical properties :
#
#
# Convention : Reuss Voigt Hill
#
# Bulk Modulus (GPa) = 60.23284 63.85484 62.04384
# Shear Modulus (GPa) = 22.19360 27.47164 24.83262
#
# Velocity S-wave (km/s) = 3.36699 3.74602 3.56155
# Velocity P-wave (km/s) = 6.77368 7.16432 6.97174
#
# Compressibility (1/GPa) = 0.01660224
#
# Stress axis : x y z
#
# Youngs Moduli (GPa) = 31.80635 57.04368 111.33852
#
# Poissons Ratio (x) = 0.89763 0.57866
# Poissons Ratio (y) = 0.50050 -0.02874
# Poissons Ratio (z) = 0.16531 -0.01472
#
# Static dielectric constant tensor:
#      x y z
#    x 1.702170 0.000000 0.000000 
#    y 0.000000 1.743190 0.000000 
#    z 0.000000 0.000000 1.748030 
# 
# From -- ./inp_files/25481.got.cif
#   From: 2010.05.17/outbox.cif.g08.bks.cpg/sg21_13_cif.got.tgz:25481.got - 2010.06.03 23:14:55.
