data_PCOD9324810
_publ_section_title
;
Structure prediction by ZEFSAII (Michael W. Deem and Ramdas Pophale) SiO2 
 PCOD9324810
Probable space group: C 2 2 2
;
_chemical_formula_sum "Si O2"
_cell_formula_units_Z 58
_cell_length_a 19.107475
_cell_length_b 16.509249
_cell_length_c 8.682118
_cell_angle_alpha 90.000000
_cell_angle_beta 90.000000
_cell_angle_gamma 90.000000
_cell_volume 2738.774666
_symmetry_space_group_name_H-M "C 2 2 2"
_symmetry_group_IT_number 21
_symmetry_cell_setting 'orthorhombic'
loop_
_space_group_symop_operation_xyz
x,y,z
-x,-y,z
x,-y,-z
-x,y,-z
1/2+x,1/2+y,z
1/2-x,1/2-y,z
1/2+x,1/2-y,-z
1/2-x,1/2+y,-z
loop_
_atom_site_type_symbol
_atom_site_label
_atom_site_fract_x
_atom_site_fract_y
_atom_site_fract_z
Si Si1 0.368582 0.455095 0.699773
Si Si2 0.500000 0.500000 0.500000
Si Si3 0.025650 0.414067 0.178445
Si Si4 0.327148 0.095274 0.041148
Si Si5 0.318324 0.707305 0.445445
Si Si6 0.311595 0.628919 0.765721
Si Si7 0.593552 0.201114 0.218423
Si Si8 0.079085 0.864775 0.023346
O O1 0.444054 0.456403 0.612672
O O2 0.326795 0.380876 0.628307
O O3 0.327676 0.539574 0.694883
O O4 0.382056 0.431646 0.875284
O O5 0.108305 0.401928 0.163272
O O6 0.000000 0.500000 0.244125
O O7 0.979058 0.344091 0.248887
O O8 0.000000 0.414475 0.000000
O O9 0.256921 0.127416 0.124534
O O10 0.354431 0.144456 0.888111
O O11 0.317646 0.000000 0.000000
O O12 0.250000 0.750000 0.382186
O O13 0.310773 0.691767 0.626059
O O14 0.377841 0.765870 0.380135
O O15 0.379229 0.647572 0.867667
O O16 0.580243 0.280702 0.116088
O O17 0.000000 0.890388 0.000000
#
# Coordination Sequence:
#
# PCOD9324810 Si02
#       8
#     8   2   8   8   8   8   8   8
#     4  11  24  45  70 102 136 192 237 296 360 438
#     4  12  20  44  78  96 140 188 242 288 360 428
#     4   9  15  35  63 106 137 176 229 286 358 421
#     4  11  21  36  73 109 144 180 235 303 356 431
#     4  11  27  46  65  94 145 196 235 290 364 436
#     4  12  26  44  67 104 143 188 246 290 370 428
#     4  10  23  41  68 100 144 186 235 289 364 435
#     4  11  24  41  69 105 142 178 237 301 355 427
#
# _framework density 21.177354999999999
#
# number of rings (size 3 to 8) (size 9 to 14) (size 15 to 20)
#    0.000    1.241    4.138    3.310    7.724    0.552 
#    0.000    0.000    0.000    0.000    0.000    1.931 
#    0.000    0.000    0.000    0.000    0.000    0.000 
#
# Total GULP energy -161923.952439 kJ/mol
# GULP energy per Si atom -5583.584567 kJ/mol
# Density = 2.112915 g / cm^3
# Si number density = 21.177355 Si / 1000 Ang^3
#
#
#
# Elastic Constant Matrix: (Units=GPa)
#
#
# Indices 1 2 3 4 5 6 
#
# 1 117.3769 29.6247 31.6932 0.0000 0.0000 0.0000
# 2 29.6247 89.4738 34.7219 0.0000 0.0000 0.0000
# 3 31.6932 34.7219 66.5216 0.0000 0.0000 0.0000
# 4 0.0000 0.0000 0.0000 -7.9395 0.0000 0.0000
# 5 0.0000 0.0000 0.0000 0.0000 121.0501 0.0000
# 6 0.0000 0.0000 0.0000 0.0000 0.0000 30.6169
#
#
#
# Elastic Compliance Matrix: (Units=1/GPa)
#
#
# Indices 1 2 3 4 5 6 
#
# 1 0.010012 -0.001836 -0.003812 0.000000 0.000000 0.000000
# 2 -0.001836 0.014352 -0.006617 0.000000 0.000000 0.000000
# 3 -0.003812 -0.006617 0.020303 0.000000 0.000000 0.000000
# 4 0.000000 0.000000 0.000000 -0.125953 0.000000 0.000000
# 5 0.000000 0.000000 0.000000 0.000000 0.008261 0.000000
# 6 0.000000 0.000000 0.000000 0.000000 0.000000 0.032662
#
#
# Mechanical properties :
#
#
# Convention : Reuss Voigt Hill
#
# Bulk Modulus (GPa) = 49.65731 51.71690 50.68710
# Shear Modulus (GPa) = -548.09717 40.56766 -253.76475
#
# Velocity S-wave (km/s) = -16.10511 4.38152 -10.95849
# Velocity P-wave (km/s) = 17.95366 7.07608 11.66754
#
# Compressibility (1/GPa) = 0.02013802
#
# Stress axis : x y z
#
# Youngs Moduli (GPa) = 99.87861 69.67694 49.25499
#
# Poissons Ratio (x) = 0.12791 0.18776
# Poissons Ratio (y) = 0.18335 0.32590
# Poissons Ratio (z) = 0.38073 0.46103
#
# Static dielectric constant tensor:
#      x y z
#    x 1.718430 0.000000 0.000000 
#    y 0.000000 1.791820 0.000000 
#    z 0.000000 0.000000 1.805550 
# 
# From -- ./inp_files/16703.got.cif
#   From: 2010.05.17/outbox.cif.g08.bks.cpg/sg21_9_cif.got.tgz:16703.got - 2010.06.03 23:14:55.
