data_PCOD9324056
_publ_section_title
;
Structure prediction by ZEFSAII (Michael W. Deem and Ramdas Pophale) SiO2 
 PCOD9324056
Probable space group: C 2 2 2
;
_chemical_formula_sum "Si O2"
_cell_formula_units_Z 40
_cell_length_a 15.119946
_cell_length_b 8.768338
_cell_length_c 13.746095
_cell_angle_alpha 90.000000
_cell_angle_beta 90.000000
_cell_angle_gamma 90.000000
_cell_volume 1822.413247
_symmetry_space_group_name_H-M "C 2 2 2"
_symmetry_group_IT_number 21
_symmetry_cell_setting 'orthorhombic'
loop_
_space_group_symop_operation_xyz
x,y,z
-x,-y,z
x,-y,-z
-x,y,-z
1/2+x,1/2+y,z
1/2-x,1/2-y,z
1/2+x,1/2-y,-z
1/2-x,1/2+y,-z
loop_
_atom_site_type_symbol
_atom_site_label
_atom_site_fract_x
_atom_site_fract_y
_atom_site_fract_z
Si Si1 0.507784 0.678563 0.631914
Si Si2 0.572419 0.395234 0.155821
Si Si3 0.850398 0.317384 0.514340
Si Si4 0.410876 0.934760 0.108702
Si Si5 0.763746 0.930331 0.109550
O O1 0.500000 0.500000 0.604390
O O2 0.530642 0.671600 0.745562
O O3 0.417102 0.765862 0.602411
O O4 0.591712 0.750506 0.575842
O O5 0.500000 0.500000 0.106614
O O6 0.595710 0.245290 0.097264
O O7 0.654524 0.506664 0.170781
O O8 0.845491 0.500000 0.500000
O O9 0.750000 0.250000 0.521284
O O10 0.500000 0.000000 0.154927
O O11 0.323465 0.997893 0.157350
O O12 0.409326 0.000000 0.000000
O O13 0.750000 0.750000 0.104023
O O14 0.775586 0.000000 0.000000
#
# Coordination Sequence:
#
# PCOD9324056 Si02
#       5
#     8   8   8   8   8
#     4  10  22  42  64  96 134 168 212 265 317 381
#     4  11  24  41  62  92 130 172 214 267 323 379
#     4  11  22  41  71 102 130 170 210 256 318 387
#     4  10  21  39  60  87 120 162 211 265 323 380
#     4  11  22  40  64  92 124 168 221 274 326 384
#
# _framework density 21.948920000000001
#
# number of rings (size 3 to 8) (size 9 to 14) (size 15 to 20)
#    0.000    1.400    0.000    7.800    0.000    5.200 
#    0.000   12.000    0.000    0.000    0.000    0.000 
#    0.000    0.000    0.000    0.000    0.000    0.000 
#
# Total GULP energy -111653.763865 kJ/mol
# GULP energy per Si atom -5582.688193 kJ/mol
# Density = 2.189896 g / cm^3
# Si number density = 21.948920 Si / 1000 Ang^3
#
#
#
# Elastic Constant Matrix: (Units=GPa)
#
#
# Indices 1 2 3 4 5 6 
#
# 1 221.0989 87.9757 18.9158 0.0000 0.0000 0.0000
# 2 87.9757 235.7750 27.3825 0.0000 0.0000 0.0000
# 3 18.9158 27.3825 75.1359 0.0000 0.0000 0.0000
# 4 0.0000 0.0000 0.0000 31.5731 0.0000 0.0000
# 5 0.0000 0.0000 0.0000 0.0000 16.4309 0.0000
# 6 0.0000 0.0000 0.0000 0.0000 0.0000 63.6019
#
#
#
# Elastic Compliance Matrix: (Units=1/GPa)
#
#
# Indices 1 2 3 4 5 6 
#
# 1 0.005341 -0.001918 -0.000646 0.000000 0.000000 0.000000
# 2 -0.001918 0.005118 -0.001382 0.000000 0.000000 0.000000
# 3 -0.000646 -0.001382 0.013975 0.000000 0.000000 0.000000
# 4 0.000000 0.000000 0.000000 0.031672 0.000000 0.000000
# 5 0.000000 0.000000 0.000000 0.000000 0.060861 0.000000
# 6 0.000000 0.000000 0.000000 0.000000 0.000000 0.015723
#
#
# Mechanical properties :
#
#
# Convention : Reuss Voigt Hill
#
# Bulk Modulus (GPa) = 60.45015 88.95088 74.70052
# Shear Modulus (GPa) = 34.22392 48.83690 41.53041
#
# Velocity S-wave (km/s) = 3.95302 4.72213 4.35459
# Velocity P-wave (km/s) = 6.95962 8.38723 7.70655
#
# Compressibility (1/GPa) = 0.01654256
#
# Stress axis : x y z
#
# Youngs Moduli (GPa) = 187.22058 195.40656 71.55385
#
# Poissons Ratio (x) = 0.37480 0.04620
# Poissons Ratio (y) = 0.35909 0.09890
# Poissons Ratio (z) = 0.12089 0.27008
#
# Static dielectric constant tensor:
#      x y z
#    x 1.580950 0.000000 0.000000 
#    y 0.000000 1.827780 0.000000 
#    z 0.000000 0.000000 1.844350 
# 
# From -- ./inp_files/32074.got.cif
#   From: 2010.05.17/outbox.cif.g08.bks.cpg/sg21_17_cif.got.tgz:32074.got - 2010.06.03 23:14:55.
