data_PCOD9324440
_publ_section_title
;
Structure prediction by ZEFSAII (Michael W. Deem and Ramdas Pophale) SiO2 
 PCOD9324440
Probable space group: C 2 2 2
;
_chemical_formula_sum "Si O2"
_cell_formula_units_Z 58
_cell_length_a 23.132818
_cell_length_b 9.206490
_cell_length_c 13.130449
_cell_angle_alpha 90.000000
_cell_angle_beta 90.000000
_cell_angle_gamma 90.000000
_cell_volume 2796.418741
_symmetry_space_group_name_H-M "C 2 2 2"
_symmetry_group_IT_number 21
_symmetry_cell_setting 'orthorhombic'
loop_
_space_group_symop_operation_xyz
x,y,z
-x,-y,z
x,-y,-z
-x,y,-z
1/2+x,1/2+y,z
1/2-x,1/2-y,z
1/2+x,1/2-y,-z
1/2-x,1/2+y,-z
loop_
_atom_site_type_symbol
_atom_site_label
_atom_site_fract_x
_atom_site_fract_y
_atom_site_fract_z
Si Si1 0.631411 0.069884 0.733364
Si Si2 0.924548 0.241046 0.018750
Si Si3 0.534877 0.275967 0.787628
Si Si4 0.417511 0.415687 0.779917
Si Si5 0.500000 0.000000 0.000000
Si Si6 0.695185 0.852131 0.059805
Si Si7 0.195703 0.337916 0.462309
Si Si8 0.681131 0.244630 0.312429
O O1 0.566984 0.128265 0.756424
O O2 0.671140 0.123151 0.826618
O O3 0.649677 0.140127 0.626008
O O4 0.648209 0.901014 0.724232
O O5 0.955993 0.212882 0.910869
O O6 0.858605 0.280123 0.997842
O O7 0.955537 0.391546 0.057377
O O8 0.922561 0.111658 0.098900
O O9 0.470074 0.306642 0.748223
O O10 0.568775 0.419887 0.750994
O O11 0.355391 0.371577 0.738623
O O12 0.750000 0.750000 0.060838
O O13 0.708661 0.000000 0.000000
O O14 0.213127 0.500000 0.500000
O O15 0.250000 0.250000 0.420028
O O16 0.176338 0.256058 0.564876
O O17 0.750000 0.250000 0.288533
#
# Coordination Sequence:
#
# PCOD9324440 Si02
#       8
#     8   8   8   8   2   8   8   8
#     4  10  22  39  62  85 116 156 200 244 294 364
#     4  11  22  36  61  82 116 156 206 248 288 349
#     4  10  23  38  58  88 117 157 202 239 299 358
#     4  11  22  39  59  84 122 156 195 252 298 352
#     4  12  20  36  62  88 108 154 222 250 288 340
#     4  11  24  37  52  84 121 156 188 229 288 349
#     4   9  19  38  60  87 114 149 197 249 299 355
#     4  10  23  39  62  89 117 149 196 250 306 358
#
# _framework density 20.740814
#
# number of rings (size 3 to 8) (size 9 to 14) (size 15 to 20)
#    0.000    1.655    2.069    1.655    1.931   11.586 
#    0.000    0.690    0.000    4.138    0.000    0.000 
#    0.000    0.000    0.000    0.000    0.000    0.000 
#
# Total GULP energy -161757.001665 kJ/mol
# GULP energy per Si atom -5577.827644 kJ/mol
# Density = 2.069361 g / cm^3
# Si number density = 20.740814 Si / 1000 Ang^3
#
#
#
# Elastic Constant Matrix: (Units=GPa)
#
#
# Indices 1 2 3 4 5 6 
#
# 1 94.6271 25.7780 17.6764 0.0000 0.0000 0.0000
# 2 25.7780 40.7340 5.2869 0.0000 0.0000 0.0000
# 3 17.6764 5.2869 31.1137 0.0000 0.0000 0.0000
# 4 0.0000 0.0000 0.0000 21.0537 0.0000 0.0000
# 5 0.0000 0.0000 0.0000 0.0000 11.5158 0.0000
# 6 0.0000 0.0000 0.0000 0.0000 0.0000 31.6143
#
#
#
# Elastic Compliance Matrix: (Units=1/GPa)
#
#
# Indices 1 2 3 4 5 6 
#
# 1 0.013973 -0.007989 -0.006581 0.000000 0.000000 0.000000
# 2 -0.007989 0.029670 -0.000503 0.000000 0.000000 0.000000
# 3 -0.006581 -0.000503 0.035965 0.000000 0.000000 0.000000
# 4 0.000000 0.000000 0.000000 0.047498 0.000000 0.000000
# 5 0.000000 0.000000 0.000000 0.000000 0.086837 0.000000
# 6 0.000000 0.000000 0.000000 0.000000 0.000000 0.031631
#
#
# Mechanical properties :
#
#
# Convention : Reuss Voigt Hill
#
# Bulk Modulus (GPa) = 20.21737 29.32861 24.77299
# Shear Modulus (GPa) = 17.11109 20.68565 18.89837
#
# Velocity S-wave (km/s) = 2.87539 3.16150 3.02183
# Velocity P-wave (km/s) = 4.55989 5.24385 4.91379
#
# Compressibility (1/GPa) = 0.04946243
#
# Stress axis : x y z
#
# Youngs Moduli (GPa) = 71.56433 33.70363 27.80515
#
# Poissons Ratio (x) = 0.26925 0.18299
# Poissons Ratio (y) = 0.57171 0.01399
# Poissons Ratio (z) = 0.47098 0.01696
#
# Static dielectric constant tensor:
#      x y z
#    x 1.755060 0.000000 0.000000 
#    y 0.000000 1.803640 0.000000 
#    z 0.000000 0.000000 1.767420 
# 
# From -- ./inp_files/33586.got.cif
#   From: 2010.05.17/outbox.cif.g08.bks.cpg/sg21_17_cif.got.tgz:33586.got - 2010.06.03 23:14:55.
