data_PCOD9324865
_publ_section_title
;
Structure prediction by ZEFSAII (Michael W. Deem and Ramdas Pophale) SiO2 
 PCOD9324865
Probable space group: C 2 2 2
;
_chemical_formula_sum "Si O2"
_cell_formula_units_Z 48
_cell_length_a 10.052697
_cell_length_b 17.800548
_cell_length_c 13.564347
_cell_angle_alpha 90.000000
_cell_angle_beta 90.000000
_cell_angle_gamma 90.000000
_cell_volume 2427.251937
_symmetry_space_group_name_H-M "C 2 2 2"
_symmetry_group_IT_number 21
_symmetry_cell_setting 'orthorhombic'
loop_
_space_group_symop_operation_xyz
x,y,z
-x,-y,z
x,-y,-z
-x,y,-z
1/2+x,1/2+y,z
1/2-x,1/2-y,z
1/2+x,1/2-y,-z
1/2-x,1/2+y,-z
loop_
_atom_site_type_symbol
_atom_site_label
_atom_site_fract_x
_atom_site_fract_y
_atom_site_fract_z
Si Si1 0.491644 0.912974 0.779136
Si Si2 0.597888 0.835645 0.585808
Si Si3 0.791647 0.581543 0.944744
Si Si4 0.100489 0.154803 0.584810
Si Si5 0.539988 0.586637 0.798136
Si Si6 0.265500 0.337866 0.140799
O O1 0.558663 0.866292 0.692328
O O2 0.575782 0.906999 0.880426
O O3 0.341648 0.884906 0.795672
O O4 0.500000 0.000000 0.751443
O O5 0.500000 0.861978 0.500000
O O6 0.746607 0.859788 0.558774
O O7 0.588783 0.745239 0.591558
O O8 0.667070 0.587712 0.870363
O O9 0.792772 0.500000 0.000000
O O10 0.773167 0.643654 0.028490
O O11 0.071984 0.119730 0.691023
O O12 0.000000 0.128357 0.500000
O O13 0.500000 0.500000 0.788983
O O14 0.414239 0.632523 0.840703
O O15 0.250000 0.250000 0.162909
#
# Coordination Sequence:
#
# PCOD9324865 Si02
#       6
#     8   8   8   8   8   8
#     4  12  24  44  71 100 138 181 230 289 346 418
#     4  10  23  44  69  97 133 177 226 285 350 414
#     4  12  24  46  69  99 140 185 234 285 353 406
#     4  10  23  44  69  97 133 177 226 285 350 414
#     4  12  24  44  71 100 138 181 230 289 346 418
#     4  12  28  42  67 105 141 183 232 288 348 416
#
# _framework density 19.775451
#
# number of rings (size 3 to 8) (size 9 to 14) (size 15 to 20)
#    0.000    0.667    5.000    2.000    2.333    4.667 
#    0.000    1.667    0.000    0.000    0.000    0.000 
#    0.000    0.000    0.000    0.000    0.000    0.000 
#
# Total GULP energy -134249.838571 kJ/mol
# GULP energy per Si atom -5593.743274 kJ/mol
# Density = 1.973044 g / cm^3
# Si number density = 19.775451 Si / 1000 Ang^3
#
#
#
# Elastic Constant Matrix: (Units=GPa)
#
#
# Indices 1 2 3 4 5 6 
#
# 1 60.1461 5.5521 22.4473 0.0000 0.0000 0.0000
# 2 5.5521 33.8163 1.6584 0.0000 0.0000 0.0000
# 3 22.4473 1.6584 94.8506 0.0000 0.0000 0.0000
# 4 0.0000 0.0000 0.0000 45.6354 0.0000 0.0000
# 5 0.0000 0.0000 0.0000 0.0000 36.7075 0.0000
# 6 0.0000 0.0000 0.0000 0.0000 0.0000 17.6166
#
#
#
# Elastic Compliance Matrix: (Units=1/GPa)
#
#
# Indices 1 2 3 4 5 6 
#
# 1 0.018503 -0.002826 -0.004329 0.000000 0.000000 0.000000
# 2 -0.002826 0.030028 0.000144 0.000000 0.000000 0.000000
# 3 -0.004329 0.000144 0.011565 0.000000 0.000000 0.000000
# 4 0.000000 0.000000 0.000000 0.021913 0.000000 0.000000
# 5 0.000000 0.000000 0.000000 0.000000 0.027242 0.000000
# 6 0.000000 0.000000 0.000000 0.000000 0.000000 0.056765
#
#
# Mechanical properties :
#
#
# Convention : Reuss Voigt Hill
#
# Bulk Modulus (GPa) = 21.70446 27.56986 24.63716
# Shear Modulus (GPa) = 25.58898 30.60225 28.09561
#
# Velocity S-wave (km/s) = 3.60109 3.93808 3.77335
# Velocity P-wave (km/s) = 5.31881 5.88640 5.60979
#
# Compressibility (1/GPa) = 0.04607348
#
# Stress axis : x y z
#
# Youngs Moduli (GPa) = 54.04584 33.30183 86.46787
#
# Poissons Ratio (x) = 0.09410 0.37436
# Poissons Ratio (y) = 0.15271 -0.01242
# Poissons Ratio (z) = 0.23399 -0.00478
#
# Static dielectric constant tensor:
#      x y z
#    x 1.687540 0.000000 0.000000 
#    y 0.000000 1.678370 0.000000 
#    z 0.000000 0.000000 1.679150 
# 
# From -- ./inp_files/30516.got.cif
#   From: 2010.05.17/outbox.cif.g08.bks.cpg/sg21_16_cif.got.tgz:30516.got - 2010.06.03 23:14:55.
