data_PCOD9324314
_publ_section_title
;
Structure prediction by ZEFSAII (Michael W. Deem and Ramdas Pophale) SiO2 
 PCOD9324314
Probable space group: C 2 2 2
;
_chemical_formula_sum "Si O2"
_cell_formula_units_Z 48
_cell_length_a 7.408952
_cell_length_b 18.742103
_cell_length_c 14.503995
_cell_angle_alpha 90.000000
_cell_angle_beta 90.000000
_cell_angle_gamma 90.000000
_cell_volume 2014.015195
_symmetry_space_group_name_H-M "C 2 2 2"
_symmetry_group_IT_number 21
_symmetry_cell_setting 'orthorhombic'
loop_
_space_group_symop_operation_xyz
x,y,z
-x,-y,z
x,-y,-z
-x,y,-z
1/2+x,1/2+y,z
1/2-x,1/2-y,z
1/2+x,1/2-y,-z
1/2-x,1/2+y,-z
loop_
_atom_site_type_symbol
_atom_site_label
_atom_site_fract_x
_atom_site_fract_y
_atom_site_fract_z
Si Si1 0.946757 0.285212 0.894000
Si Si2 0.292410 0.527621 0.096555
Si Si3 0.237106 0.078923 0.411319
Si Si4 0.802383 0.909872 0.609694
Si Si5 0.797546 0.406029 0.781598
Si Si6 0.611917 0.344469 0.201131
O O1 0.750000 0.250000 0.889657
O O2 0.919739 0.362409 0.850819
O O3 0.071173 0.235797 0.829486
O O4 0.000000 0.285443 0.000000
O O5 0.500000 0.500000 0.095271
O O6 0.206518 0.487207 0.183586
O O7 0.302242 0.611473 0.115666
O O8 0.214434 0.500000 0.000000
O O9 0.279671 0.112704 0.510643
O O10 0.344653 0.108844 0.324295
O O11 0.020979 0.089040 0.401099
O O12 0.256908 0.993334 0.394835
O O13 0.783664 0.865166 0.704249
O O14 0.589840 0.378780 0.789365
#
# Coordination Sequence:
#
# PCOD9324314 Si02
#       6
#     8   8   8   8   8   8
#     4  10  22  34  50  74 112 161 196 226 278 352
#     4   9  16  23  42  69 101 138 180 232 277 322
#     4   8  12  20  38  65 102 136 167 222 290 329
#     4   8  12  20  37  67 101 134 169 225 285 327
#     4   9  16  28  42  69 106 144 183 227 285 336
#     4   9  16  26  42  70 105 142 186 231 276 332
#
# _framework density 23.832988
#
# number of rings (size 3 to 8) (size 9 to 14) (size 15 to 20)
#    0.000    3.167    1.667    1.000    7.000    0.000 
#    0.000    0.000    0.000    0.500    0.000   12.833 
#    0.000    0.000    0.333    4.167    0.000    2.167 
#
# Total GULP energy -133851.443350 kJ/mol
# GULP energy per Si atom -5577.143473 kJ/mol
# Density = 2.377874 g / cm^3
# Si number density = 23.832988 Si / 1000 Ang^3
#
#
#
# Elastic Constant Matrix: (Units=GPa)
#
#
# Indices 1 2 3 4 5 6 
#
# 1 94.9536 -2.2089 15.7958 0.0000 0.0000 0.0000
# 2 -2.2089 41.5137 22.6780 0.0000 0.0000 0.0000
# 3 15.7958 22.6780 188.5552 0.0000 0.0000 0.0000
# 4 0.0000 0.0000 0.0000 24.7106 0.0000 0.0000
# 5 0.0000 0.0000 0.0000 0.0000 16.9473 0.0000
# 6 0.0000 0.0000 0.0000 0.0000 0.0000 -3.6869
#
#
#
# Elastic Compliance Matrix: (Units=1/GPa)
#
#
# Indices 1 2 3 4 5 6 
#
# 1 0.010730 0.001137 -0.001036 0.000000 0.000000 0.000000
# 2 0.001137 0.025903 -0.003211 0.000000 0.000000 0.000000
# 3 -0.001036 -0.003211 0.005776 0.000000 0.000000 0.000000
# 4 0.000000 0.000000 0.000000 0.040468 0.000000 0.000000
# 5 0.000000 0.000000 0.000000 0.000000 0.059006 0.000000
# 6 0.000000 0.000000 0.000000 0.000000 0.000000 -0.271230
#
#
# Mechanical properties :
#
#
# Convention : Reuss Voigt Hill
#
# Bulk Modulus (GPa) = 27.63171 44.17248 35.90210
# Shear Modulus (GPa) = -45.01925 26.84472 -9.08727
#
# Velocity S-wave (km/s) = -4.35092 3.35978 -1.95478
# Velocity P-wave (km/s) = 3.69074 5.79873 3.16257
#
# Compressibility (1/GPa) = 0.03619030
#
# Stress axis : x y z
#
# Youngs Moduli (GPa) = 93.19510 38.60582 173.11848
#
# Poissons Ratio (x) = -0.04388 0.17928
# Poissons Ratio (y) = -0.10593 0.55582
# Poissons Ratio (z) = 0.09651 0.12395
#
# Static dielectric constant tensor:
#      x y z
#    x 1.996890 0.000000 0.000000 
#    y 0.000000 1.856930 0.000000 
#    z 0.000000 0.000000 1.968850 
# 
# From -- ./inp_files/30459.got.cif
#   From: 2010.05.17/outbox.cif.g08.bks.cpg/sg21_16_cif.got.tgz:30459.got - 2010.06.03 23:14:55.
