data_PCOD9324748
_publ_section_title
;
Structure prediction by ZEFSAII (Michael W. Deem and Ramdas Pophale) SiO2 
 PCOD9324748
Probable space group: C 2 2 2
;
_chemical_formula_sum "Si O2"
_cell_formula_units_Z 28
_cell_length_a 5.337874
_cell_length_b 20.914642
_cell_length_c 10.964908
_cell_angle_alpha 90.000000
_cell_angle_beta 90.000000
_cell_angle_gamma 90.000000
_cell_volume 1224.119300
_symmetry_space_group_name_H-M "C 2 2 2"
_symmetry_group_IT_number 21
_symmetry_cell_setting 'orthorhombic'
loop_
_space_group_symop_operation_xyz
x,y,z
-x,-y,z
x,-y,-z
-x,y,-z
1/2+x,1/2+y,z
1/2-x,1/2-y,z
1/2+x,1/2-y,-z
1/2-x,1/2+y,-z
loop_
_atom_site_type_symbol
_atom_site_label
_atom_site_fract_x
_atom_site_fract_y
_atom_site_fract_z
Si Si1 0.500000 0.789499 0.500000
Si Si2 0.670083 0.391916 0.120558
Si Si3 0.681290 0.607575 0.614506
Si Si4 0.250000 0.750000 0.076695
Si Si5 0.500000 0.000000 0.000000
Si Si6 0.500000 0.000000 0.500000
O O1 0.750000 0.750000 0.460580
O O2 0.612918 0.835633 0.604162
O O3 0.550610 0.399636 0.254674
O O4 0.784193 0.320431 0.134322
O O5 0.850837 0.451171 0.088761
O O6 0.500000 0.391580 0.000000
O O7 0.500000 0.618779 0.500000
O O8 0.828406 0.543475 0.584361
O O9 0.500000 0.742616 0.000000
#
# Coordination Sequence:
#
# PCOD9324748 Si02
#       6
#     4   8   8   4   2   2
#     4  11  24  47  72 117 152 199 250 318 380 457
#     4  11  26  45  74 109 149 201 254 324 383 461
#     4  11  25  46  73 108 150 200 253 319 383 461
#     4  10  22  48  70 108 146 196 244 310 378 450
#     4  12  24  48  68 112 150 202 258 322 384 460
#     4  10  24  44  68 104 150 200 256 314 390 456
#
# _framework density 22.873588999999999
#
# number of rings (size 3 to 8) (size 9 to 14) (size 15 to 20)
#    0.000    1.143    2.857    1.714    2.000    9.143 
#    2.571    0.000    0.000    0.000    0.000    0.000 
#    0.000    0.000    0.000    0.000    0.000    0.000 
#
# Total GULP energy -78000.240779 kJ/mol
# GULP energy per Si atom -5571.445770 kJ/mol
# Density = 2.282153 g / cm^3
# Si number density = 22.873589 Si / 1000 Ang^3
#
#
#
# Elastic Constant Matrix: (Units=GPa)
#
#
# Indices 1 2 3 4 5 6 
#
# 1 100.1992 50.1854 54.5244 0.0000 0.0000 0.0000
# 2 50.1854 181.8688 44.7091 0.0000 0.0000 0.0000
# 3 54.5244 44.7091 201.7685 0.0000 0.0000 0.0000
# 4 0.0000 0.0000 0.0000 -19.7159 0.0000 0.0000
# 5 0.0000 0.0000 0.0000 0.0000 24.2372 0.0000
# 6 0.0000 0.0000 0.0000 0.0000 0.0000 52.3161
#
#
#
# Elastic Compliance Matrix: (Units=1/GPa)
#
#
# Indices 1 2 3 4 5 6 
#
# 1 0.012983 -0.002877 -0.002871 0.000000 0.000000 0.000000
# 2 -0.002877 0.006453 -0.000652 0.000000 0.000000 0.000000
# 3 -0.002871 -0.000652 0.005877 0.000000 0.000000 0.000000
# 4 0.000000 0.000000 0.000000 -0.050721 0.000000 0.000000
# 5 0.000000 0.000000 0.000000 0.000000 0.041259 0.000000
# 6 0.000000 0.000000 0.000000 0.000000 0.000000 0.019115
#
#
# Mechanical properties :
#
#
# Convention : Reuss Voigt Hill
#
# Bulk Modulus (GPa) = 79.92336 86.96381 83.44358
# Shear Modulus (GPa) = 96.27093 33.66200 64.96647
#
# Velocity S-wave (km/s) = 6.49458 3.84038 5.33517
# Velocity P-wave (km/s) = 9.55284 7.60043 8.63201
#
# Compressibility (1/GPa) = 0.01251199
#
# Stress axis : x y z
#
# Youngs Moduli (GPa) = 77.02185 154.97389 170.16673
#
# Poissons Ratio (x) = 0.44584 0.48856
# Poissons Ratio (y) = 0.22158 0.11102
# Poissons Ratio (z) = 0.22113 0.10111
#
# Static dielectric constant tensor:
#      x y z
#    x 1.871830 0.000000 0.000000 
#    y 0.000000 1.974990 0.000000 
#    z 0.000000 0.000000 1.876540 
# 
# From -- ./inp_files/20589.got.cif
#   From: 2010.05.17/outbox.cif.g08.bks.cpg/sg21_11_cif.got.tgz:20589.got - 2010.06.03 23:14:55.
