data_PCOD9324288
_publ_section_title
;
Structure prediction by ZEFSAII (Michael W. Deem and Ramdas Pophale) SiO2 
 PCOD9324288
Probable space group: C 2 2 2
;
_chemical_formula_sum "Si O2"
_cell_formula_units_Z 38
_cell_length_a 14.404823
_cell_length_b 5.077401
_cell_length_c 25.023902
_cell_angle_alpha 90.000000
_cell_angle_beta 90.000000
_cell_angle_gamma 90.000000
_cell_volume 1830.224738
_symmetry_space_group_name_H-M "C 2 2 2"
_symmetry_group_IT_number 21
_symmetry_cell_setting 'orthorhombic'
loop_
_space_group_symop_operation_xyz
x,y,z
-x,-y,z
x,-y,-z
-x,y,-z
1/2+x,1/2+y,z
1/2-x,1/2-y,z
1/2+x,1/2-y,-z
1/2-x,1/2+y,-z
loop_
_atom_site_type_symbol
_atom_site_label
_atom_site_fract_x
_atom_site_fract_y
_atom_site_fract_z
Si Si1 0.355509 0.333808 0.551095
Si Si2 0.500000 0.000000 0.815842
Si Si3 0.500000 0.000000 0.500000
Si Si4 0.182461 0.001401 0.331319
Si Si5 0.500000 0.500000 0.741648
Si Si6 0.803985 0.000000 0.000000
Si Si7 0.939988 0.737694 0.084761
O O1 0.386552 0.500000 0.500000
O O2 0.250000 0.250000 0.542003
O O3 0.425323 0.097416 0.544562
O O4 0.356080 0.470461 0.608237
O O5 0.519107 0.752823 0.778708
O O6 0.579683 0.099266 0.857930
O O7 0.250000 0.750000 0.320581
O O8 0.250000 0.250000 0.328092
O O9 0.093118 0.031916 0.293554
O O10 0.750000 0.750000 0.974681
O O11 0.862333 0.847492 0.045458
O O12 0.000000 0.500000 0.058614
O O13 0.000000 0.000000 0.096026
#
# Coordination Sequence:
#
# PCOD9324288 Si02
#       7
#     8   4   2   8   4   4   8
#     4  11  24  43  66  95 145 180 227 283 360 437
#     4  10  22  45  75 100 131 187 248 282 346 418
#     4  12  26  38  68 100 132 194 218 276 334 436
#     4  11  27  46  71 105 138 180 234 298 365 425
#     4  12  24  46  79 101 136 184 250 306 354 422
#     4  12  25  38  65 112 156 180 230 298 355 412
#     4  10  21  43  70  95 135 197 233 271 340 436
#
# _framework density 20.76248
#
# number of rings (size 3 to 8) (size 9 to 14) (size 15 to 20)
#    0.632    0.421    2.105    3.789    5.895    1.684 
#    0.000    4.211    0.000    0.000    0.000    0.000 
#    0.000    0.000    0.000    0.000    0.000    0.000 
#
# Total GULP energy -105797.240448 kJ/mol
# GULP energy per Si atom -5568.275813 kJ/mol
# Density = 2.071522 g / cm^3
# Si number density = 20.762480 Si / 1000 Ang^3
#
#
#
# Elastic Constant Matrix: (Units=GPa)
#
#
# Indices 1 2 3 4 5 6 
#
# 1 127.3020 57.2938 63.4148 0.0000 0.0000 0.0000
# 2 57.2938 149.2539 47.1443 0.0000 0.0000 0.0000
# 3 63.4148 47.1443 130.5972 0.0000 0.0000 0.0000
# 4 0.0000 0.0000 0.0000 75.8325 0.0000 0.0000
# 5 0.0000 0.0000 0.0000 0.0000 9.4532 0.0000
# 6 0.0000 0.0000 0.0000 0.0000 0.0000 72.3900
#
#
#
# Elastic Compliance Matrix: (Units=1/GPa)
#
#
# Indices 1 2 3 4 5 6 
#
# 1 0.011421 -0.002971 -0.004473 0.000000 0.000000 0.000000
# 2 -0.002971 0.008335 -0.001566 0.000000 0.000000 0.000000
# 3 -0.004473 -0.001566 0.010395 0.000000 0.000000 0.000000
# 4 0.000000 0.000000 0.000000 0.013187 0.000000 0.000000
# 5 0.000000 0.000000 0.000000 0.000000 0.105784 0.000000
# 6 0.000000 0.000000 0.000000 0.000000 0.000000 0.013814
#
#
# Mechanical properties :
#
#
# Convention : Reuss Voigt Hill
#
# Bulk Modulus (GPa) = 82.44280 82.53989 82.49134
# Shear Modulus (GPa) = 27.02710 47.48849 37.25780
#
# Velocity S-wave (km/s) = 3.61186 4.78768 4.24072
# Velocity P-wave (km/s) = 7.56226 8.39066 7.98721
#
# Compressibility (1/GPa) = 0.01212962
#
# Stress axis : x y z
#
# Youngs Moduli (GPa) = 87.55962 119.97240 96.20438
#
# Poissons Ratio (x) = 0.35646 0.43033
# Poissons Ratio (y) = 0.26016 0.15068
# Poissons Ratio (z) = 0.39166 0.18790
#
# Static dielectric constant tensor:
#      x y z
#    x 1.666280 0.000000 0.000000 
#    y 0.000000 1.994020 0.000000 
#    z 0.000000 0.000000 1.714980 
# 
# From -- ./inp_files/38712.got.cif
#   From: 2010.05.17/outbox.cif.g08.bks.cpg/sg21_20_cif.got.tgz:38712.got - 2010.06.03 23:14:55.
