data_PCOD9324122
_publ_section_title
;
Structure prediction by ZEFSAII (Michael W. Deem and Ramdas Pophale) SiO2 
 PCOD9324122
Probable space group: C 2 2 2
;
_chemical_formula_sum "Si O2"
_cell_formula_units_Z 48
_cell_length_a 16.678725
_cell_length_b 8.775318
_cell_length_c 16.133140
_cell_angle_alpha 90.000000
_cell_angle_beta 90.000000
_cell_angle_gamma 90.000000
_cell_volume 2361.264370
_symmetry_space_group_name_H-M "C 2 2 2"
_symmetry_group_IT_number 21
_symmetry_cell_setting 'orthorhombic'
loop_
_space_group_symop_operation_xyz
x,y,z
-x,-y,z
x,-y,-z
-x,y,-z
1/2+x,1/2+y,z
1/2-x,1/2-y,z
1/2+x,1/2-y,-z
1/2-x,1/2+y,-z
loop_
_atom_site_type_symbol
_atom_site_label
_atom_site_fract_x
_atom_site_fract_y
_atom_site_fract_z
Si Si1 0.698724 0.500000 0.000000
Si Si2 0.134792 0.521365 0.319531
Si Si3 0.637311 0.000000 0.500000
Si Si4 0.076408 0.769605 0.056990
Si Si5 0.500000 0.500000 0.183759
Si Si6 0.299120 0.091848 0.849243
Si Si7 0.000000 0.754545 0.500000
Si Si8 0.991967 0.754818 0.318880
O O1 0.644818 0.348090 0.001694
O O2 0.751889 0.501555 0.082041
O O3 0.177844 0.510340 0.409621
O O4 0.190698 0.516680 0.239799
O O5 0.071827 0.382438 0.318776
O O6 0.079303 0.673596 0.309065
O O7 0.577389 0.855939 0.502683
O O8 0.056104 0.904560 0.122113
O O9 0.114930 0.633454 0.109454
O O10 0.000000 0.733660 0.000000
O O11 0.468982 0.370973 0.246698
O O12 0.250000 0.250000 0.838914
O O13 0.993737 0.829525 0.410259
#
# Coordination Sequence:
#
# PCOD9324122 Si02
#       8
#     4   8   4   8   4   8   4   8
#     4  10  21  40  53  78 110 148 188 232 287 342
#     4   9  16  34  51  86 109 147 185 238 274 348
#     4   7  12  24  54  74 110 142 181 220 286 328
#     4  11  21  39  58  77 111 153 191 232 292 347
#     4  12  19  31  54  84 108 154 184 239 279 346
#     4  10  22  37  58  84 110 147 192 243 291 341
#     4   7  12  27  42  78 114 146 166 232 278 332
#     4   9  18  28  53  80 118 141 190 225 287 332
#
# _framework density 20.328091000000001
#
# number of rings (size 3 to 8) (size 9 to 14) (size 15 to 20)
#    0.000    2.500    3.333    2.000    0.000    1.667 
#    3.000    0.000    0.000    0.000   26.000    0.000 
#    0.000    0.000    0.000    0.000    0.000    0.000 
#
# Total GULP energy -133698.197725 kJ/mol
# GULP energy per Si atom -5570.758239 kJ/mol
# Density = 2.028182 g / cm^3
# Si number density = 20.328091 Si / 1000 Ang^3
#
#
#
# Elastic Constant Matrix: (Units=GPa)
#
#
# Indices 1 2 3 4 5 6 
#
# 1 48.4213 5.2600 56.3806 0.0000 0.0000 0.0000
# 2 5.2600 38.9192 24.4078 0.0000 0.0000 0.0000
# 3 56.3806 24.4078 197.1513 0.0000 0.0000 0.0000
# 4 0.0000 0.0000 0.0000 -27.3754 0.0000 0.0000
# 5 0.0000 0.0000 0.0000 0.0000 17.5412 0.0000
# 6 0.0000 0.0000 0.0000 0.0000 0.0000 9.8598
#
#
#
# Elastic Compliance Matrix: (Units=1/GPa)
#
#
# Indices 1 2 3 4 5 6 
#
# 1 0.031041 0.001487 -0.009061 0.000000 0.000000 0.000000
# 2 0.001487 0.027928 -0.003883 0.000000 0.000000 0.000000
# 3 -0.009061 -0.003883 0.008144 0.000000 0.000000 0.000000
# 4 0.000000 0.000000 0.000000 -0.036529 0.000000 0.000000
# 5 0.000000 0.000000 0.000000 0.000000 0.057008 0.000000
# 6 0.000000 0.000000 0.000000 0.000000 0.000000 0.101422
#
#
# Mechanical properties :
#
#
# Convention : Reuss Voigt Hill
#
# Bulk Modulus (GPa) = 22.62428 50.73206 36.67817
# Shear Modulus (GPa) = 22.05930 13.23470 17.64700
#
# Velocity S-wave (km/s) = 3.29776 2.55435 2.94957
# Velocity P-wave (km/s) = 5.06498 5.80606 5.44814
#
# Compressibility (1/GPa) = 0.04420029
#
# Stress axis : x y z
#
# Youngs Moduli (GPa) = 32.21538 35.80581 122.78614
#
# Poissons Ratio (x) = -0.05326 1.11258
# Poissons Ratio (y) = -0.04792 0.47677
# Poissons Ratio (z) = 0.29191 0.13903
#
# Static dielectric constant tensor:
#      x y z
#    x 1.744170 0.000000 0.000000 
#    y 0.000000 1.743160 0.000000 
#    z 0.000000 0.000000 1.777300 
# 
# From -- ./inp_files/32892.got.cif
#   From: 2010.05.17/outbox.cif.g08.bks.cpg/sg21_17_cif.got.tgz:32892.got - 2010.06.03 23:14:55.
