data_PCOD9324571
_publ_section_title
;
Structure prediction by ZEFSAII (Michael W. Deem and Ramdas Pophale) SiO2 
 PCOD9324571
Probable space group: C 2 2 2
;
_chemical_formula_sum "Si O2"
_cell_formula_units_Z 34
_cell_length_a 5.729366
_cell_length_b 30.906917
_cell_length_c 8.553992
_cell_angle_alpha 90.000000
_cell_angle_beta 90.000000
_cell_angle_gamma 90.000000
_cell_volume 1514.715579
_symmetry_space_group_name_H-M "C 2 2 2"
_symmetry_group_IT_number 21
_symmetry_cell_setting 'orthorhombic'
loop_
_space_group_symop_operation_xyz
x,y,z
-x,-y,z
x,-y,-z
-x,y,-z
1/2+x,1/2+y,z
1/2-x,1/2-y,z
1/2+x,1/2-y,-z
1/2-x,1/2+y,-z
loop_
_atom_site_type_symbol
_atom_site_label
_atom_site_fract_x
_atom_site_fract_y
_atom_site_fract_z
Si Si1 0.497066 0.266446 0.183287
Si Si2 0.332065 0.357253 0.759395
Si Si3 0.792416 0.071228 0.718676
Si Si4 0.000000 0.401885 0.000000
Si Si5 0.000000 0.366094 0.500000
Si Si6 0.500000 0.500000 0.500000
O O1 0.750000 0.250000 0.245374
O O2 0.499529 0.318369 0.195070
O O3 0.250000 0.250000 0.251040
O O4 0.500000 0.253247 0.000000
O O5 0.467995 0.401892 0.730486
O O6 0.191384 0.342656 0.604960
O O7 0.157548 0.369743 0.897296
O O8 0.629534 0.102656 0.619473
O O9 0.843591 0.028981 0.616786
O O10 0.665067 0.069259 0.886793
#
# Coordination Sequence:
#
# PCOD9324571 Si02
#       6
#     8   8   8   4   4   2
#     4  10  23  38  65 104 143 185 240 306 367 430
#     4  11  22  43  71 103 141 186 240 298 369 444
#     4  11  23  45  70 101 136 185 238 300 360 457
#     4  10  24  40  75 106 136 192 238 302 372 435
#     4  10  22  41  74  95 130 192 233 282 366 451
#     4  12  24  46  74  98 146 194 242 298 388 450
#
# _framework density 22.446456999999999
#
# number of rings (size 3 to 8) (size 9 to 14) (size 15 to 20)
#    0.000    1.412    2.353    2.118   11.529    0.471 
#    0.000    3.529    5.176    0.000    0.000    0.000 
#    0.000    0.000    0.000    0.000    0.000    0.000 
#
# Total GULP energy -94955.315886 kJ/mol
# GULP energy per Si atom -5585.606817 kJ/mol
# Density = 2.239537 g / cm^3
# Si number density = 22.446457 Si / 1000 Ang^3
#
#
#
# Elastic Constant Matrix: (Units=GPa)
#
#
# Indices 1 2 3 4 5 6 
#
# 1 127.6215 39.1663 48.4264 0.0000 0.0000 0.0000
# 2 39.1663 95.9137 29.1617 0.0000 0.0000 0.0000
# 3 48.4264 29.1617 105.9454 0.0000 0.0000 0.0000
# 4 0.0000 0.0000 0.0000 -1.9853 0.0000 0.0000
# 5 0.0000 0.0000 0.0000 0.0000 45.2579 0.0000
# 6 0.0000 0.0000 0.0000 0.0000 0.0000 62.7822
#
#
#
# Elastic Compliance Matrix: (Units=1/GPa)
#
#
# Indices 1 2 3 4 5 6 
#
# 1 0.010215 -0.003003 -0.003843 0.000000 0.000000 0.000000
# 2 -0.003003 0.012261 -0.002002 0.000000 0.000000 0.000000
# 3 -0.003843 -0.002002 0.011746 0.000000 0.000000 0.000000
# 4 0.000000 0.000000 0.000000 -0.503711 0.000000 0.000000
# 5 0.000000 0.000000 0.000000 0.000000 0.022096 0.000000
# 6 0.000000 0.000000 0.000000 0.000000 0.000000 0.015928
#
#
# Mechanical properties :
#
#
# Convention : Reuss Voigt Hill
#
# Bulk Modulus (GPa) = 60.50767 62.55437 61.53102
# Shear Modulus (GPa) = -12.24712 35.39274 11.57281
#
# Velocity S-wave (km/s) = -2.33837 3.97516 2.27309
# Velocity P-wave (km/s) = 4.44121 6.99985 5.86183
#
# Compressibility (1/GPa) = 0.01652683
#
# Stress axis : x y z
#
# Youngs Moduli (GPa) = 97.89095 81.55870 85.13239
#
# Poissons Ratio (x) = 0.24493 0.32714
# Poissons Ratio (y) = 0.29398 0.17045
# Poissons Ratio (z) = 0.37617 0.16330
#
# Static dielectric constant tensor:
#      x y z
#    x 1.858620 0.000000 0.000000 
#    y 0.000000 1.792220 0.000000 
#    z 0.000000 0.000000 1.815410 
# 
# From -- ./inp_files/9229.got.cif
#   From: 2010.05.17/outbox.cif.g08.bks.cpg/sg21_5_cif.got.tgz:9229.got - 2010.06.03 23:14:55.
