data_PCOD9324430
_publ_section_title
;
Structure prediction by ZEFSAII (Michael W. Deem and Ramdas Pophale) SiO2 
 PCOD9324430
Probable space group: C 2 2 2
;
_chemical_formula_sum "Si O2"
_cell_formula_units_Z 64
_cell_length_a 28.227965
_cell_length_b 10.012189
_cell_length_c 13.382528
_cell_angle_alpha 90.000000
_cell_angle_beta 90.000000
_cell_angle_gamma 90.000000
_cell_volume 3782.219855
_symmetry_space_group_name_H-M "C 2 2 2"
_symmetry_group_IT_number 21
_symmetry_cell_setting 'orthorhombic'
loop_
_space_group_symop_operation_xyz
x,y,z
-x,-y,z
x,-y,-z
-x,y,-z
1/2+x,1/2+y,z
1/2-x,1/2-y,z
1/2+x,1/2-y,-z
1/2-x,1/2+y,-z
loop_
_atom_site_type_symbol
_atom_site_label
_atom_site_fract_x
_atom_site_fract_y
_atom_site_fract_z
Si Si1 0.888397 0.264833 0.589334
Si Si2 0.346961 0.494898 0.303623
Si Si3 0.843082 0.491296 0.299912
Si Si4 0.506808 0.153081 0.620107
Si Si5 0.407070 0.745880 0.351203
Si Si6 0.194219 0.093709 0.093591
Si Si7 0.307248 0.904519 0.907194
Si Si8 0.249100 0.904062 0.405982
O O1 0.864343 0.132300 0.632695
O O2 0.858054 0.393548 0.621916
O O3 0.940711 0.290264 0.635707
O O4 0.894254 0.253259 0.469856
O O5 0.386304 0.609884 0.307833
O O6 0.333676 0.448299 0.192613
O O7 0.299886 0.558125 0.352594
O O8 0.881612 0.374097 0.303104
O O9 0.835930 0.555114 0.191334
O O10 0.793131 0.429190 0.333067
O O11 0.500000 0.149495 0.500000
O O12 0.463413 0.240221 0.660153
O O13 0.500000 0.000000 0.654954
O O14 0.250786 0.079867 0.113605
O O15 0.185025 0.248801 0.069387
O O16 0.182661 0.000000 0.000000
O O17 0.318846 0.000000 0.000000
O O18 0.250000 0.750000 0.437633
O O19 0.254526 0.000000 0.500000
#
# Coordination Sequence:
#
# PCOD9324430 Si02
#       8
#     8   8   8   8   8   8   8   8
#     4  11  22  38  59  84 121 156 195 241 285 345
#     4  12  24  38  55  85 121 156 194 237 290 346
#     4  12  22  36  58  84 116 156 195 233 287 346
#     4   9  18  35  58  83 112 152 199 247 287 330
#     4  11  22  36  57  88 118 156 198 235 286 344
#     4  10  22  40  58  79 112 151 194 249 293 334
#     4  10  22  39  59  82 108 149 200 248 287 335
#     4  12  26  37  52  80 122 166 200 231 276 344
#
# _framework density 16.921279999999999
#
# number of rings (size 3 to 8) (size 9 to 14) (size 15 to 20)
#    0.000    1.125    5.000    2.250    3.500    0.500 
#    0.000    1.875    0.000    0.000    0.000    5.250 
#    0.000    0.000    0.000    0.000    0.000    0.000 
#
# Total GULP energy -178774.805118 kJ/mol
# GULP energy per Si atom -5586.712660 kJ/mol
# Density = 1.688277 g / cm^3
# Si number density = 16.921280 Si / 1000 Ang^3
#
#
#
# Elastic Constant Matrix: (Units=GPa)
#
#
# Indices 1 2 3 4 5 6 
#
# 1 86.2007 35.1103 12.3897 0.0000 0.0000 0.0000
# 2 35.1103 127.9978 36.0081 0.0000 0.0000 0.0000
# 3 12.3897 36.0081 74.9248 0.0000 0.0000 0.0000
# 4 0.0000 0.0000 0.0000 30.9031 0.0000 0.0000
# 5 0.0000 0.0000 0.0000 0.0000 6.9097 0.0000
# 6 0.0000 0.0000 0.0000 0.0000 0.0000 25.4441
#
#
#
# Elastic Compliance Matrix: (Units=1/GPa)
#
#
# Indices 1 2 3 4 5 6 
#
# 1 0.013077 -0.003444 -0.000507 0.000000 0.000000 0.000000
# 2 -0.003444 0.009941 -0.004208 0.000000 0.000000 0.000000
# 3 -0.000507 -0.004208 0.015453 0.000000 0.000000 0.000000
# 4 0.000000 0.000000 0.000000 0.032359 0.000000 0.000000
# 5 0.000000 0.000000 0.000000 0.000000 0.144724 0.000000
# 6 0.000000 0.000000 0.000000 0.000000 0.000000 0.039302
#
#
# Mechanical properties :
#
#
# Convention : Reuss Voigt Hill
#
# Bulk Modulus (GPa) = 45.14302 50.68216 47.91259
# Shear Modulus (GPa) = 17.94953 26.35907 22.15430
#
# Velocity S-wave (km/s) = 3.26047 3.95111 3.62229
# Velocity P-wave (km/s) = 6.39613 7.12964 6.77282
#
# Compressibility (1/GPa) = 0.02215182
#
# Stress axis : x y z
#
# Youngs Moduli (GPa) = 76.47244 100.59118 64.71261
#
# Poissons Ratio (x) = 0.34647 0.03281
# Poissons Ratio (y) = 0.26339 0.27232
# Poissons Ratio (z) = 0.03878 0.42330
#
# Static dielectric constant tensor:
#      x y z
#    x 1.575660 0.000000 0.000000 
#    y 0.000000 1.565640 0.000000 
#    z 0.000000 0.000000 1.543640 
# 
# From -- ./inp_files/28110.got.cif
#   From: 2010.05.17/outbox.cif.g08.bks.cpg/sg21_15_cif.got.tgz:28110.got - 2010.06.03 23:14:55.
