data_PCOD9324212
_publ_section_title
;
Structure prediction by ZEFSAII (Michael W. Deem and Ramdas Pophale) SiO2 
 PCOD9324212
Probable space group: C 2 2 2
;
_chemical_formula_sum "Si O2"
_cell_formula_units_Z 34
_cell_length_a 4.935692
_cell_length_b 13.972658
_cell_length_c 23.666529
_cell_angle_alpha 90.000000
_cell_angle_beta 90.000000
_cell_angle_gamma 90.000000
_cell_volume 1632.155932
_symmetry_space_group_name_H-M "C 2 2 2"
_symmetry_group_IT_number 21
_symmetry_cell_setting 'orthorhombic'
loop_
_space_group_symop_operation_xyz
x,y,z
-x,-y,z
x,-y,-z
-x,y,-z
1/2+x,1/2+y,z
1/2-x,1/2-y,z
1/2+x,1/2-y,-z
1/2-x,1/2+y,-z
loop_
_atom_site_type_symbol
_atom_site_label
_atom_site_fract_x
_atom_site_fract_y
_atom_site_fract_z
Si Si1 0.750000 0.750000 0.958774
Si Si2 0.241652 0.067829 0.751394
Si Si3 0.500000 0.500000 0.500000
Si Si4 0.259030 0.568151 0.120454
Si Si5 0.000000 0.500000 0.580417
Si Si6 0.483287 0.187148 0.652239
O O1 0.788218 0.658221 0.919045
O O2 0.500000 0.734099 0.000000
O O3 0.171536 0.100491 0.815080
O O4 0.330378 0.148925 0.708165
O O5 0.500000 0.000000 0.756489
O O6 0.000000 0.000000 0.729740
O O7 0.734550 0.533896 0.544756
O O8 0.500000 0.500000 0.099853
O O9 0.000000 0.500000 0.121925
O O10 0.929818 0.407351 0.617821
O O11 0.750000 0.250000 0.663678
O O12 0.250000 0.250000 0.621647
#
# Coordination Sequence:
#
# PCOD9324212 Si02
#       6
#     4   8   2   8   4   8
#     4  12  26  42  64  94 122 170 222 270 322 388
#     4  10  21  41  65  95 135 175 211 268 330 400
#     4  10  24  46  76  86 128 196 208 278 334 358
#     4  10  23  43  64  92 128 167 215 267 327 386
#     4  11  24  48  66  98 136 166 233 272 320 392
#     4  12  25  40  68 104 135 175 215 269 339 394
#
# _framework density 20.831344000000001
#
# number of rings (size 3 to 8) (size 9 to 14) (size 15 to 20)
#    0.000    1.176    1.176    4.235    3.294    2.824 
#    2.118   11.765    0.000    0.000    0.000    0.000 
#    0.000    0.000    0.000    0.000    0.000    0.000 
#
# Total GULP energy -94812.334623 kJ/mol
# GULP energy per Si atom -5577.196154 kJ/mol
# Density = 2.078393 g / cm^3
# Si number density = 20.831344 Si / 1000 Ang^3
#
#
#
# Elastic Constant Matrix: (Units=GPa)
#
#
# Indices 1 2 3 4 5 6 
#
# 1 132.5520 36.7538 16.1341 0.0000 0.0000 0.0000
# 2 36.7538 127.5434 62.9689 0.0000 0.0000 0.0000
# 3 16.1341 62.9689 87.2075 0.0000 0.0000 0.0000
# 4 0.0000 0.0000 0.0000 27.3613 0.0000 0.0000
# 5 0.0000 0.0000 0.0000 0.0000 32.1890 0.0000
# 6 0.0000 0.0000 0.0000 0.0000 0.0000 38.5977
#
#
#
# Elastic Compliance Matrix: (Units=1/GPa)
#
#
# Indices 1 2 3 4 5 6 
#
# 1 0.008204 -0.002509 0.000294 0.000000 0.000000 0.000000
# 2 -0.002509 0.012951 -0.008887 0.000000 0.000000 0.000000
# 3 0.000294 -0.008887 0.017830 0.000000 0.000000 0.000000
# 4 0.000000 0.000000 0.000000 0.036548 0.000000 0.000000
# 5 0.000000 0.000000 0.000000 0.000000 0.031067 0.000000
# 6 0.000000 0.000000 0.000000 0.000000 0.000000 0.025908
#
#
# Mechanical properties :
#
#
# Convention : Reuss Voigt Hill
#
# Bulk Modulus (GPa) = 59.59512 64.33518 61.96515
# Shear Modulus (GPa) = 31.19024 35.05935 33.12480
#
# Velocity S-wave (km/s) = 3.87366 4.10690 3.99198
# Velocity P-wave (km/s) = 6.97693 7.31025 7.14553
#
# Compressibility (1/GPa) = 0.01677990
#
# Stress axis : x y z
#
# Youngs Moduli (GPa) = 121.88867 77.21227 56.08627
#
# Poissons Ratio (x) = 0.19375 -0.01649
# Poissons Ratio (y) = 0.30586 0.49846
# Poissons Ratio (z) = -0.03584 0.68621
#
# Static dielectric constant tensor:
#      x y z
#    x 1.699170 0.000000 0.000000 
#    y 0.000000 1.739910 0.000000 
#    z 0.000000 0.000000 1.793730 
# 
# From -- ./inp_files/38119.got.cif
#   From: 2010.05.17/outbox.cif.g08.bks.cpg/sg21_20_cif.got.tgz:38119.got - 2010.06.03 23:14:55.
