data_PCOD9324927
_publ_section_title
;
Structure prediction by ZEFSAII (Michael W. Deem and Ramdas Pophale) SiO2 
 PCOD9324927
Probable space group: C 2 2 2
;
_chemical_formula_sum "Si O2"
_cell_formula_units_Z 38
_cell_length_a 8.740407
_cell_length_b 16.776095
_cell_length_c 11.655688
_cell_angle_alpha 90.000000
_cell_angle_beta 90.000000
_cell_angle_gamma 90.000000
_cell_volume 1709.072345
_symmetry_space_group_name_H-M "C 2 2 2"
_symmetry_group_IT_number 21
_symmetry_cell_setting 'orthorhombic'
loop_
_space_group_symop_operation_xyz
x,y,z
-x,-y,z
x,-y,-z
-x,y,-z
1/2+x,1/2+y,z
1/2-x,1/2-y,z
1/2+x,1/2-y,-z
1/2-x,1/2+y,-z
loop_
_atom_site_type_symbol
_atom_site_label
_atom_site_fract_x
_atom_site_fract_y
_atom_site_fract_z
Si Si1 0.335410 0.500127 0.730665
Si Si2 0.851498 0.856868 0.574059
Si Si3 0.061189 0.611565 0.183570
Si Si4 0.750000 0.750000 0.780358
Si Si5 0.691939 0.837934 0.350530
Si Si6 0.000000 0.500000 0.000000
O O1 0.500000 0.500000 0.792703
O O2 0.356206 0.447639 0.615510
O O3 0.197613 0.451467 0.790882
O O4 0.296147 0.590420 0.698673
O O5 0.841424 0.806072 0.690535
O O6 0.710265 0.842039 0.487943
O O7 0.000000 0.835313 0.500000
O O8 0.143150 0.692676 0.145702
O O9 0.971069 0.637662 0.297694
O O10 0.950984 0.568228 0.093070
O O11 0.750000 0.750000 0.315001
#
# Coordination Sequence:
#
# PCOD9324927 Si02
#       6
#     8   8   8   4   8   2
#     4  11  23  41  66  98 142 188 234 284 353 444
#     4  11  21  36  63  99 149 187 220 272 358 438
#     4  11  26  48  73  97 137 187 248 309 365 418
#     4  10  24  40  68 104 138 176 236 288 354 442
#     4  12  23  40  67 106 141 188 230 282 354 447
#     4  12  24  56  74  90 136 194 250 324 360 390
#
# _framework density 22.234285
#
# number of rings (size 3 to 8) (size 9 to 14) (size 15 to 20)
#    0.000    0.842    5.263    1.895    2.947    2.526 
#    1.895    4.737    0.000    0.000    0.000    0.000 
#    0.000    0.000    0.000    0.000    0.000    0.000 
#
# Total GULP energy -105810.320283 kJ/mol
# GULP energy per Si atom -5568.964225 kJ/mol
# Density = 2.218368 g / cm^3
# Si number density = 22.234285 Si / 1000 Ang^3
#
#
#
# Elastic Constant Matrix: (Units=GPa)
#
#
# Indices 1 2 3 4 5 6 
#
# 1 85.7814 39.8617 7.6485 0.0000 0.0000 0.0000
# 2 39.8617 186.6768 22.2767 0.0000 0.0000 0.0000
# 3 7.6485 22.2767 39.0847 0.0000 0.0000 0.0000
# 4 0.0000 0.0000 0.0000 31.4205 0.0000 0.0000
# 5 0.0000 0.0000 0.0000 0.0000 -15.6579 0.0000
# 6 0.0000 0.0000 0.0000 0.0000 0.0000 43.9106
#
#
#
# Elastic Compliance Matrix: (Units=1/GPa)
#
#
# Indices 1 2 3 4 5 6 
#
# 1 0.012980 -0.002649 -0.001030 0.000000 0.000000 0.000000
# 2 -0.002649 0.006288 -0.003066 0.000000 0.000000 0.000000
# 3 -0.001030 -0.003066 0.027534 0.000000 0.000000 0.000000
# 4 0.000000 0.000000 0.000000 0.031826 0.000000 0.000000
# 5 0.000000 0.000000 0.000000 0.000000 -0.063866 0.000000
# 6 0.000000 0.000000 0.000000 0.000000 0.000000 0.022774
#
#
# Mechanical properties :
#
#
# Convention : Reuss Voigt Hill
#
# Bulk Modulus (GPa) = 30.01814 50.12404 40.07109
# Shear Modulus (GPa) = 80.47447 28.05171 54.26309
#
# Velocity S-wave (km/s) = 6.02266 3.55581 4.94552
# Velocity P-wave (km/s) = 7.86724 6.28100 7.11844
#
# Compressibility (1/GPa) = 0.03331319
#
# Stress axis : x y z
#
# Youngs Moduli (GPa) = 77.04006 159.02570 36.31815
#
# Poissons Ratio (x) = 0.42122 0.03742
# Poissons Ratio (y) = 0.20406 0.11134
# Poissons Ratio (z) = 0.07938 0.48753
#
# Static dielectric constant tensor:
#      x y z
#    x 2.029130 0.000000 0.000000 
#    y 0.000000 1.843340 0.000000 
#    z 0.000000 0.000000 1.819780 
# 
# From -- ./inp_files/22315.got.cif
#   From: 2010.05.17/outbox.cif.g08.bks.cpg/sg21_12_cif.got.tgz:22315.got - 2010.06.03 23:14:55.
