data_PCOD9324704
_publ_section_title
;
Structure prediction by ZEFSAII (Michael W. Deem and Ramdas Pophale) SiO2 
 PCOD9324704
Probable space group: C 2 2 2
;
_chemical_formula_sum "Si O2"
_cell_formula_units_Z 26
_cell_length_a 16.975763
_cell_length_b 11.770406
_cell_length_c 5.420207
_cell_angle_alpha 90.000000
_cell_angle_beta 90.000000
_cell_angle_gamma 90.000000
_cell_volume 1083.020356
_symmetry_space_group_name_H-M "C 2 2 2"
_symmetry_group_IT_number 21
_symmetry_cell_setting 'orthorhombic'
loop_
_space_group_symop_operation_xyz
x,y,z
-x,-y,z
x,-y,-z
-x,y,-z
1/2+x,1/2+y,z
1/2-x,1/2-y,z
1/2+x,1/2-y,-z
1/2-x,1/2+y,-z
loop_
_atom_site_type_symbol
_atom_site_label
_atom_site_fract_x
_atom_site_fract_y
_atom_site_fract_z
Si Si1 0.250000 0.250000 0.442125
Si Si2 0.870449 0.427859 0.752073
Si Si3 0.500000 0.500000 0.000000
Si Si4 0.116079 0.117230 0.654455
Si Si5 0.000000 0.687937 0.500000
O O1 0.191575 0.323702 0.269063
O O2 0.204654 0.159700 0.618063
O O3 0.858112 0.500000 0.500000
O O4 0.960202 0.383677 0.717559
O O5 0.859484 0.500000 0.000000
O O6 0.565156 0.586145 0.890937
O O7 0.069858 0.227925 0.567024
O O8 0.106115 0.000000 0.500000
#
# Coordination Sequence:
#
# PCOD9324704 Si02
#       5
#     4   8   2   8   4
#     4  10  26  50  76 110 160 204 262 324 414 462
#     4  11  26  49  75 114 157 207 258 328 392 478
#     4  12  22  40  88 102 158 206 258 336 386 468
#     4  11  22  48  71 116 150 201 262 329 388 479
#     4  10  22  44  76 108 152 202 256 316 396 472
#
# _framework density 24.006934000000001
#
# number of rings (size 3 to 8) (size 9 to 14) (size 15 to 20)
#    0.000    1.231    3.077    1.385    0.000    8.615 
#   11.077    0.000    3.385    0.000    0.000    0.000 
#    0.000    0.000    0.000    0.000    0.000    0.000 
#
# Total GULP energy -72425.573631 kJ/mol
# GULP energy per Si atom -5571.197972 kJ/mol
# Density = 2.395229 g / cm^3
# Si number density = 24.006934 Si / 1000 Ang^3
#
#
#
# Elastic Constant Matrix: (Units=GPa)
#
#
# Indices 1 2 3 4 5 6 
#
# 1 135.3879 61.6789 44.3013 0.0000 0.0000 0.0000
# 2 61.6789 140.3743 59.0831 0.0000 0.0000 0.0000
# 3 44.3013 59.0831 104.5322 0.0000 0.0000 0.0000
# 4 0.0000 0.0000 0.0000 20.2444 0.0000 0.0000
# 5 0.0000 0.0000 0.0000 0.0000 16.7880 0.0000
# 6 0.0000 0.0000 0.0000 0.0000 0.0000 73.6102
#
#
#
# Elastic Compliance Matrix: (Units=1/GPa)
#
#
# Indices 1 2 3 4 5 6 
#
# 1 0.009609 -0.003291 -0.002212 0.000000 0.000000 0.000000
# 2 -0.003291 0.010475 -0.004526 0.000000 0.000000 0.000000
# 3 -0.002212 -0.004526 0.013062 0.000000 0.000000 0.000000
# 4 0.000000 0.000000 0.000000 0.049396 0.000000 0.000000
# 5 0.000000 0.000000 0.000000 0.000000 0.059566 0.000000
# 6 0.000000 0.000000 0.000000 0.000000 0.000000 0.013585
#
#
# Mechanical properties :
#
#
# Convention : Reuss Voigt Hill
#
# Bulk Modulus (GPa) = 76.40638 78.93565 77.67102
# Shear Modulus (GPa) = 27.76005 36.47726 32.11866
#
# Velocity S-wave (km/s) = 3.40418 3.90224 3.66169
# Velocity P-wave (km/s) = 6.88093 7.29760 7.09233
#
# Compressibility (1/GPa) = 0.01308791
#
# Stress axis : x y z
#
# Youngs Moduli (GPa) = 104.06432 95.46789 76.55791
#
# Poissons Ratio (x) = 0.31420 0.16937
# Poissons Ratio (y) = 0.34249 0.34648
# Poissons Ratio (z) = 0.23023 0.43206
#
# Static dielectric constant tensor:
#      x y z
#    x 2.582470 0.000000 0.000000 
#    y 0.000000 1.968670 0.000000 
#    z 0.000000 0.000000 2.148010 
# 
# From -- ./inp_files/2124.got.cif
#   From: 2010.05.17/outbox.cif.g08.bks.cpg/sg21_2_cif.got.tgz:2124.got - 2010.06.03 23:14:55.
