data_PCOD9324581
_publ_section_title
;
Structure prediction by ZEFSAII (Michael W. Deem and Ramdas Pophale) SiO2 
 PCOD9324581
Probable space group: C 2 2 2
;
_chemical_formula_sum "Si O2"
_cell_formula_units_Z 32
_cell_length_a 11.805089
_cell_length_b 8.032538
_cell_length_c 16.498943
_cell_angle_alpha 90.000000
_cell_angle_beta 90.000000
_cell_angle_gamma 90.000000
_cell_volume 1564.509399
_symmetry_space_group_name_H-M "C 2 2 2"
_symmetry_group_IT_number 21
_symmetry_cell_setting 'orthorhombic'
loop_
_space_group_symop_operation_xyz
x,y,z
-x,-y,z
x,-y,-z
-x,y,-z
1/2+x,1/2+y,z
1/2-x,1/2-y,z
1/2+x,1/2-y,-z
1/2-x,1/2+y,-z
loop_
_atom_site_type_symbol
_atom_site_label
_atom_site_fract_x
_atom_site_fract_y
_atom_site_fract_z
Si Si1 0.329190 0.089883 0.418652
Si Si2 0.500000 0.000000 0.000000
Si Si3 0.500000 0.500000 0.000000
Si Si4 0.750000 0.250000 0.334452
Si Si5 0.999453 0.311396 0.276262
Si Si6 0.118452 0.240098 0.117841
O O1 0.250000 0.250000 0.436966
O O2 0.426262 0.163506 0.358613
O O3 0.373234 0.000000 0.500000
O O4 0.261932 0.932074 0.378514
O O5 0.424046 0.893487 0.937864
O O6 0.583654 0.406990 0.940293
O O7 0.627835 0.252049 0.290321
O O8 0.060171 0.214685 0.204842
O O9 0.000000 0.500000 0.243451
O O10 0.250000 0.250000 0.133385
#
# Coordination Sequence:
#
# PCOD9324581 Si02
#       6
#     8   2   2   4   8   8
#     4  11  23  44  69 100 137 181 230 291 346 409
#     4  10  22  42  64  92 130 176 212 270 350 398
#     4  10  26  38  64 108 132 174 228 282 334 430
#     4  10  24  44  66 100 138 184 228 286 346 410
#     4  10  23  42  69  98 134 182 226 282 343 414
#     4  11  22  43  66  97 133 174 221 277 341 405
#
# _framework density 20.453696999999998
#
# number of rings (size 3 to 8) (size 9 to 14) (size 15 to 20)
#    0.000    1.500    2.500    1.500    0.000   11.500 
#    9.000    1.250    0.000    0.000    0.000    0.000 
#    0.000    0.000    0.000    0.000    0.000    0.000 
#
# Total GULP energy -89085.307540 kJ/mol
# GULP energy per Si atom -5567.831721 kJ/mol
# Density = 2.040714 g / cm^3
# Si number density = 20.453697 Si / 1000 Ang^3
#
#
#
# Elastic Constant Matrix: (Units=GPa)
#
#
# Indices 1 2 3 4 5 6 
#
# 1 188.2380 62.3464 103.8997 0.0000 0.0000 0.0000
# 2 62.3464 84.0724 50.4979 0.0000 0.0000 0.0000
# 3 103.8997 50.4979 177.1072 0.0000 0.0000 0.0000
# 4 0.0000 0.0000 0.0000 29.7583 0.0000 0.0000
# 5 0.0000 0.0000 0.0000 0.0000 15.8127 0.0000
# 6 0.0000 0.0000 0.0000 0.0000 0.0000 33.8573
#
#
#
# Elastic Compliance Matrix: (Units=1/GPa)
#
#
# Indices 1 2 3 4 5 6 
#
# 1 0.008935 -0.004196 -0.004045 0.000000 0.000000 0.000000
# 2 -0.004196 0.016323 -0.002192 0.000000 0.000000 0.000000
# 3 -0.004045 -0.002192 0.008645 0.000000 0.000000 0.000000
# 4 0.000000 0.000000 0.000000 0.033604 0.000000 0.000000
# 5 0.000000 0.000000 0.000000 0.000000 0.063240 0.000000
# 6 0.000000 0.000000 0.000000 0.000000 0.000000 0.029536
#
#
# Mechanical properties :
#
#
# Convention : Reuss Voigt Hill
#
# Bulk Modulus (GPa) = 76.71705 98.10063 87.40884
# Shear Modulus (GPa) = 26.95474 31.39724 29.17599
#
# Velocity S-wave (km/s) = 3.63415 3.92221 3.78092
# Velocity P-wave (km/s) = 7.42957 8.28119 7.86691
#
# Compressibility (1/GPa) = 0.01303491
#
# Stress axis : x y z
#
# Youngs Moduli (GPa) = 111.91774 61.26213 115.67932
#
# Poissons Ratio (x) = 0.25708 0.46796
# Poissons Ratio (y) = 0.46964 0.25362
# Poissons Ratio (z) = 0.45274 0.13431
#
# Static dielectric constant tensor:
#      x y z
#    x 1.700270 0.000000 0.000000 
#    y 0.000000 1.781760 0.000000 
#    z 0.000000 0.000000 1.739580 
# 
# From -- ./inp_files/31201.got.cif
#   From: 2010.05.17/outbox.cif.g08.bks.cpg/sg21_16_cif.got.tgz:31201.got - 2010.06.03 23:14:55.
