data_PCOD9324473
_publ_section_title
;
Structure prediction by ZEFSAII (Michael W. Deem and Ramdas Pophale) SiO2 
 PCOD9324473
Probable space group: C 2 2 2
;
_chemical_formula_sum "Si O2"
_cell_formula_units_Z 56
_cell_length_a 21.411242
_cell_length_b 16.001783
_cell_length_c 7.361707
_cell_angle_alpha 90.000000
_cell_angle_beta 90.000000
_cell_angle_gamma 90.000000
_cell_volume 2522.253684
_symmetry_space_group_name_H-M "C 2 2 2"
_symmetry_group_IT_number 21
_symmetry_cell_setting 'orthorhombic'
loop_
_space_group_symop_operation_xyz
x,y,z
-x,-y,z
x,-y,-z
-x,y,-z
1/2+x,1/2+y,z
1/2-x,1/2-y,z
1/2+x,1/2-y,-z
1/2-x,1/2+y,-z
loop_
_atom_site_type_symbol
_atom_site_label
_atom_site_fract_x
_atom_site_fract_y
_atom_site_fract_z
Si Si1 0.481343 0.383270 0.300285
Si Si2 0.144161 0.404748 0.018201
Si Si3 0.687684 0.204420 0.317184
Si Si4 0.244125 0.347203 0.295704
Si Si5 0.641462 0.525501 0.290130
Si Si6 0.381514 0.648067 0.173644
Si Si7 0.063898 0.739661 0.885410
O O1 0.500000 0.408219 0.500000
O O2 0.425806 0.440277 0.225640
O O3 0.546668 0.379494 0.197145
O O4 0.452958 0.289771 0.294492
O O5 0.159944 0.362122 0.823978
O O6 0.126375 0.500000 0.000000
O O7 0.203141 0.394743 0.148444
O O8 0.091257 0.351432 0.119770
O O9 0.750000 0.250000 0.241018
O O10 0.709805 0.162180 0.506421
O O11 0.640671 0.284509 0.325588
O O12 0.250000 0.250000 0.240232
O O13 0.307524 0.401083 0.298293
O O14 0.633069 0.500000 0.500000
O O15 0.656789 0.438430 0.185331
O O16 0.384498 0.704298 0.993010
O O17 0.000000 0.736827 0.000000
#
# Coordination Sequence:
#
# PCOD9324473 Si02
#       7
#     8   8   8   8   8   8   8
#     4  11  22  37  65  94 131 165 218 263 330 407
#     4  11  25  42  68 100 129 173 228 286 328 394
#     4  10  23  43  66  90 135 177 223 274 334 397
#     4  11  25  43  65  92 134 183 226 267 335 404
#     4  12  23  37  61  96 134 174 214 273 327 398
#     4  10  22  40  63  93 130 176 212 269 334 397
#     4   9  22  45  66  94 131 174 217 271 343 403
#
# _framework density 22.202366000000001
#
# number of rings (size 3 to 8) (size 9 to 14) (size 15 to 20)
#    0.000    1.429    1.429    3.429    6.000    2.000 
#    0.000    2.143    0.000    0.000    0.000    0.000 
#    0.000    0.000    0.000    0.000    0.000    0.000 
#
# Total GULP energy -156351.171454 kJ/mol
# GULP energy per Si atom -5583.970409 kJ/mol
# Density = 2.215183 g / cm^3
# Si number density = 22.202366 Si / 1000 Ang^3
#
#
#
# Elastic Constant Matrix: (Units=GPa)
#
#
# Indices 1 2 3 4 5 6 
#
# 1 94.9795 59.7617 22.4097 0.0000 0.0000 0.0000
# 2 59.7617 198.0717 34.9610 0.0000 0.0000 0.0000
# 3 22.4097 34.9610 45.6173 0.0000 0.0000 0.0000
# 4 0.0000 0.0000 0.0000 22.0482 0.0000 0.0000
# 5 0.0000 0.0000 0.0000 0.0000 24.6305 0.0000
# 6 0.0000 0.0000 0.0000 0.0000 0.0000 25.9264
#
#
#
# Elastic Compliance Matrix: (Units=1/GPa)
#
#
# Indices 1 2 3 4 5 6 
#
# 1 0.013627 -0.003388 -0.004098 0.000000 0.000000 0.000000
# 2 -0.003388 0.006681 -0.003456 0.000000 0.000000 0.000000
# 3 -0.004098 -0.003456 0.026583 0.000000 0.000000 0.000000
# 4 0.000000 0.000000 0.000000 0.045355 0.000000 0.000000
# 5 0.000000 0.000000 0.000000 0.000000 0.040600 0.000000
# 6 0.000000 0.000000 0.000000 0.000000 0.000000 0.038571
#
#
# Mechanical properties :
#
#
# Convention : Reuss Voigt Hill
#
# Bulk Modulus (GPa) = 39.98758 63.65926 51.82342
# Shear Modulus (GPa) = 24.79709 29.29011 27.04360
#
# Velocity S-wave (km/s) = 3.34558 3.63607 3.49384
# Velocity P-wave (km/s) = 5.74225 6.80900 6.29825
#
# Compressibility (1/GPa) = 0.02500777
#
# Stress axis : x y z
#
# Youngs Moduli (GPa) = 73.38171 149.67914 37.61811
#
# Poissons Ratio (x) = 0.50717 0.15415
# Poissons Ratio (y) = 0.24864 0.13000
# Poissons Ratio (z) = 0.30070 0.51725
#
# Static dielectric constant tensor:
#      x y z
#    x 1.856530 0.000000 0.000000 
#    y 0.000000 1.870190 0.000000 
#    z 0.000000 0.000000 1.879450 
# 
# From -- ./inp_files/17719.got.cif
#   From: 2010.05.17/outbox.cif.g08.bks.cpg/sg21_9_cif.got.tgz:17719.got - 2010.06.03 23:14:55.
