data_PCOD9324769
_publ_section_title
;
Structure prediction by ZEFSAII (Michael W. Deem and Ramdas Pophale) SiO2 
 PCOD9324769
Probable space group: C 2 2 2
;
_chemical_formula_sum "Si O2"
_cell_formula_units_Z 40
_cell_length_a 26.166162
_cell_length_b 16.168767
_cell_length_c 5.201456
_cell_angle_alpha 90.000000
_cell_angle_beta 90.000000
_cell_angle_gamma 90.000000
_cell_volume 2200.603795
_symmetry_space_group_name_H-M "C 2 2 2"
_symmetry_group_IT_number 21
_symmetry_cell_setting 'orthorhombic'
loop_
_space_group_symop_operation_xyz
x,y,z
-x,-y,z
x,-y,-z
-x,y,-z
1/2+x,1/2+y,z
1/2-x,1/2-y,z
1/2+x,1/2-y,-z
1/2-x,1/2+y,-z
loop_
_atom_site_type_symbol
_atom_site_label
_atom_site_fract_x
_atom_site_fract_y
_atom_site_fract_z
Si Si1 0.195772 0.801244 0.973155
Si Si2 0.523224 0.905203 0.248328
Si Si3 0.200265 0.909626 0.455785
Si Si4 0.139406 0.645598 0.812393
Si Si5 0.317334 0.077555 0.666203
O O1 0.250000 0.750000 0.010753
O O2 0.203685 0.861051 0.726418
O O3 0.150193 0.737123 0.915686
O O4 0.180361 0.851350 0.228333
O O5 0.500000 0.865933 0.500000
O O6 0.583398 0.892378 0.232037
O O7 0.500000 0.000000 0.248547
O O8 0.500000 0.863910 0.000000
O O9 0.256801 0.928590 0.341832
O O10 0.175769 0.000000 0.500000
O O11 0.166652 0.648309 0.533809
O O12 0.163863 0.591140 0.045234
O O13 0.338287 0.000000 0.500000
#
# Coordination Sequence:
#
# PCOD9324769 Si02
#       5
#     8   8   8   8   8
#     4  12  21  37  56  84 119 151 204 257 299 357
#     4  10  23  39  54  75 110 153 202 249 287 337
#     4  11  22  38  54  80 120 160 192 246 302 364
#     4  12  23  35  57  81 108 159 204 252 301 340
#     4  11  22  32  51  81 112 150 206 240 286 355
#
# _framework density 18.176829999999999
#
# number of rings (size 3 to 8) (size 9 to 14) (size 15 to 20)
#    0.000    0.800    4.000    4.200    8.400    3.200 
#    0.000    0.000    0.000    0.000    0.000    0.000 
#    0.000   12.000    0.000    0.000    0.000    0.000 
#
# Total GULP energy -111387.005175 kJ/mol
# GULP energy per Si atom -5569.350259 kJ/mol
# Density = 1.813546 g / cm^3
# Si number density = 18.176830 Si / 1000 Ang^3
#
#
#
# Elastic Constant Matrix: (Units=GPa)
#
#
# Indices 1 2 3 4 5 6 
#
# 1 54.3968 8.2047 -3.1704 0.0000 0.0000 0.0000
# 2 8.2047 94.7415 16.0776 0.0000 0.0000 0.0000
# 3 -3.1704 16.0776 109.6631 0.0000 0.0000 0.0000
# 4 0.0000 0.0000 0.0000 -25.6202 0.0000 0.0000
# 5 0.0000 0.0000 0.0000 0.0000 20.2947 0.0000
# 6 0.0000 0.0000 0.0000 0.0000 0.0000 15.1866
#
#
#
# Elastic Compliance Matrix: (Units=1/GPa)
#
#
# Indices 1 2 3 4 5 6 
#
# 1 0.018695 -0.001754 0.000798 0.000000 0.000000 0.000000
# 2 -0.001754 0.010989 -0.001662 0.000000 0.000000 0.000000
# 3 0.000798 -0.001662 0.009386 0.000000 0.000000 0.000000
# 4 0.000000 0.000000 0.000000 -0.039032 0.000000 0.000000
# 5 0.000000 0.000000 0.000000 0.000000 0.049274 0.000000
# 6 0.000000 0.000000 0.000000 0.000000 0.000000 0.065848
#
#
# Mechanical properties :
#
#
# Convention : Reuss Voigt Hill
#
# Bulk Modulus (GPa) = 29.55774 33.44726 31.50250
# Shear Modulus (GPa) = 37.97280 17.81818 27.89549
#
# Velocity S-wave (km/s) = 4.57560 3.13432 3.92174
# Velocity P-wave (km/s) = 6.64916 5.61601 6.15431
#
# Compressibility (1/GPa) = 0.03383209
#
# Stress axis : x y z
#
# Youngs Moduli (GPa) = 53.49159 91.00037 106.54696
#
# Poissons Ratio (x) = 0.15964 -0.08499
# Poissons Ratio (y) = 0.09384 0.17706
# Poissons Ratio (z) = -0.04267 0.15122
#
# Static dielectric constant tensor:
#      x y z
#    x 1.690930 0.000000 0.000000 
#    y 0.000000 1.735360 0.000000 
#    z 0.000000 0.000000 1.691960 
# 
# From -- ./inp_files/3838.got.cif
#   From: 2010.05.17/outbox.cif.g08.bks.cpg/sg21_2_cif.got.tgz:3838.got - 2010.06.03 23:14:55.
