data_PCOD9324427
_publ_section_title
;
Structure prediction by ZEFSAII (Michael W. Deem and Ramdas Pophale) SiO2 
 PCOD9324427
Probable space group: C 2 2 2
;
_chemical_formula_sum "Si O2"
_cell_formula_units_Z 54
_cell_length_a 16.823978
_cell_length_b 5.124900
_cell_length_c 30.909476
_cell_angle_alpha 90.000000
_cell_angle_beta 90.000000
_cell_angle_gamma 90.000000
_cell_volume 2665.052262
_symmetry_space_group_name_H-M "C 2 2 2"
_symmetry_group_IT_number 21
_symmetry_cell_setting 'orthorhombic'
loop_
_space_group_symop_operation_xyz
x,y,z
-x,-y,z
x,-y,-z
-x,y,-z
1/2+x,1/2+y,z
1/2-x,1/2-y,z
1/2+x,1/2-y,-z
1/2-x,1/2+y,-z
loop_
_atom_site_type_symbol
_atom_site_label
_atom_site_fract_x
_atom_site_fract_y
_atom_site_fract_z
Si Si1 0.000000 0.500000 0.000000
Si Si2 0.750000 0.750000 0.970214
Si Si3 0.586374 0.622331 0.291343
Si Si4 0.444986 0.246232 0.830109
Si Si5 0.345548 0.750358 0.526820
Si Si6 0.839771 0.655297 0.747425
Si Si7 0.916733 0.826623 0.927563
Si Si8 0.053986 0.248966 0.389862
O O1 0.055899 0.346577 0.967591
O O2 0.824333 0.870974 0.942088
O O3 0.774090 0.500000 0.000000
O O4 0.500000 0.500000 0.276847
O O5 0.635019 0.354178 0.290473
O O6 0.578826 0.729301 0.339718
O O7 0.629090 0.859438 0.264181
O O8 0.500000 0.500000 0.828021
O O9 0.382314 0.241702 0.791766
O O10 0.410588 0.222322 0.878693
O O11 0.500000 0.000000 0.822739
O O12 0.373235 0.500000 0.500000
O O13 0.250000 0.750000 0.527241
O O14 0.375911 0.753803 0.575633
O O15 0.373578 0.000000 0.500000
O O16 0.750000 0.750000 0.754224
O O17 0.000000 0.000000 0.924732
O O18 0.000000 0.500000 0.395520
O O19 0.000000 0.000000 0.399122
#
# Coordination Sequence:
#
# PCOD9324427 Si02
#       8
#     2   4   8   8   8   8   8   8
#     4  12  18  44  68  90 134 172 230 276 322 416
#     4  12  26  44  68 102 136 178 224 278 342 394
#     4  11  23  44  67  93 129 175 216 265 331 402
#     4  11  24  43  67  95 127 174 217 258 331 394
#     4  10  22  39  58  85 125 169 207 255 325 390
#     4  12  25  41  67  99 131 167 215 275 329 390
#     4  11  25  42  69  99 134 180 226 278 337 407
#     4  11  23  39  63  93 121 160 218 270 316 378
#
# _framework density 20.262267000000001
#
# number of rings (size 3 to 8) (size 9 to 14) (size 15 to 20)
#    0.000    0.889    1.481    6.889    1.037    2.963 
#    0.000    1.481    0.000    0.000    0.000    0.000 
#    0.000    0.000    0.000    0.000    0.000    0.000 
#
# Total GULP energy -150307.153687 kJ/mol
# GULP energy per Si atom -5566.931618 kJ/mol
# Density = 2.021615 g / cm^3
# Si number density = 20.262267 Si / 1000 Ang^3
#
#
#
# Elastic Constant Matrix: (Units=GPa)
#
#
# Indices 1 2 3 4 5 6 
#
# 1 114.1943 37.9413 42.7282 0.0000 0.0000 0.0000
# 2 37.9413 135.0658 24.2906 0.0000 0.0000 0.0000
# 3 42.7282 24.2906 88.4230 0.0000 0.0000 0.0000
# 4 0.0000 0.0000 0.0000 32.2291 0.0000 0.0000
# 5 0.0000 0.0000 0.0000 0.0000 29.5025 0.0000
# 6 0.0000 0.0000 0.0000 0.0000 0.0000 17.7155
#
#
#
# Elastic Compliance Matrix: (Units=1/GPa)
#
#
# Indices 1 2 3 4 5 6 
#
# 1 0.011338 -0.002314 -0.004843 0.000000 0.000000 0.000000
# 2 -0.002314 0.008261 -0.001151 0.000000 0.000000 0.000000
# 3 -0.004843 -0.001151 0.013966 0.000000 0.000000 0.000000
# 4 0.000000 0.000000 0.000000 0.031028 0.000000 0.000000
# 5 0.000000 0.000000 0.000000 0.000000 0.033895 0.000000
# 6 0.000000 0.000000 0.000000 0.000000 0.000000 0.056448
#
#
# Mechanical properties :
#
#
# Convention : Reuss Voigt Hill
#
# Bulk Modulus (GPa) = 59.00347 60.84480 59.92413
# Shear Modulus (GPa) = 28.21649 31.40431 29.81040
#
# Velocity S-wave (km/s) = 3.73575 3.94114 3.83982
# Velocity P-wave (km/s) = 6.91310 7.12768 7.02121
#
# Compressibility (1/GPa) = 0.01694816
#
# Stress axis : x y z
#
# Youngs Moduli (GPa) = 88.19916 121.05308 71.60334
#
# Poissons Ratio (x) = 0.28011 0.34678
# Poissons Ratio (y) = 0.20409 0.08243
# Poissons Ratio (z) = 0.42716 0.13935
#
# Static dielectric constant tensor:
#      x y z
#    x 1.887620 0.000000 0.000000 
#    y 0.000000 1.740890 0.000000 
#    z 0.000000 0.000000 1.609970 
# 
# From -- ./inp_files/39607.got.cif
#   From: 2010.05.17/outbox.cif.g08.bks.cpg/sg21_20_cif.got.tgz:39607.got - 2010.06.03 23:14:55.
