data_PCOD9324681
_publ_section_title
;
Structure prediction by ZEFSAII (Michael W. Deem and Ramdas Pophale) SiO2 
 PCOD9324681
Probable space group: C 2 2 2
;
_chemical_formula_sum "Si O2"
_cell_formula_units_Z 64
_cell_length_a 12.241695
_cell_length_b 25.433391
_cell_length_c 11.679999
_cell_angle_alpha 90.000000
_cell_angle_beta 90.000000
_cell_angle_gamma 90.000000
_cell_volume 3636.542173
_symmetry_space_group_name_H-M "C 2 2 2"
_symmetry_group_IT_number 21
_symmetry_cell_setting 'orthorhombic'
loop_
_space_group_symop_operation_xyz
x,y,z
-x,-y,z
x,-y,-z
-x,y,-z
1/2+x,1/2+y,z
1/2-x,1/2-y,z
1/2+x,1/2-y,-z
1/2-x,1/2+y,-z
loop_
_atom_site_type_symbol
_atom_site_label
_atom_site_fract_x
_atom_site_fract_y
_atom_site_fract_z
Si Si1 0.633543 0.623987 0.249383
Si Si2 0.705525 0.803482 0.120390
Si Si3 0.975818 0.693505 0.807615
Si Si4 0.659741 0.322071 0.531546
Si Si5 0.259403 0.145515 0.894017
Si Si6 0.599583 0.793684 0.415854
Si Si7 0.082063 0.810571 0.270246
Si Si8 0.123508 0.939117 0.967949
O O1 0.741415 0.652627 0.201155
O O2 0.636802 0.627485 0.387821
O O3 0.526512 0.659727 0.226206
O O4 0.630023 0.572844 0.168644
O O5 0.750000 0.750000 0.171641
O O6 0.575843 0.800986 0.104169
O O7 0.754982 0.812075 0.995208
O O8 0.883434 0.652826 0.848106
O O9 0.923145 0.749573 0.769889
O O10 0.052131 0.679946 0.697938
O O11 0.621233 0.269023 0.598503
O O12 0.790619 0.316305 0.528593
O O13 0.604466 0.317927 0.406836
O O14 0.182172 0.160683 0.790419
O O15 0.213659 0.093382 0.958276
O O16 0.500000 0.798406 0.500000
O O17 0.000000 0.921624 0.000000
O O18 0.133805 0.000000 0.000000
#
# Coordination Sequence:
#
# PCOD9324681 Si02
#       8
#     8   8   8   8   8   8   8   8
#     4  11  20  35  58  84 114 153 201 241 298 360
#     4  11  20  35  51  75 118 165 201 232 279 352
#     4  12  21  34  50  78 126 166 200 233 282 351
#     4  11  21  32  50  80 122 162 205 236 282 344
#     4  11  25  35  54  87 110 153 197 255 299 361
#     4  11  19  31  47  73 115 174 206 227 264 340
#     4  12  21  34  51  84 128 162 195 241 287 355
#     4  10  22  44  68  85 108 147 198 265 327 373
#
# _framework density 17.599136999999999
#
# number of rings (size 3 to 8) (size 9 to 14) (size 15 to 20)
#    0.000    0.875    6.250    2.625    1.750    0.000 
#    0.000    0.000    0.000    6.750    0.000    0.000 
#    0.000    0.000    0.000    0.000    0.000    0.000 
#
# Total GULP energy -178136.854078 kJ/mol
# GULP energy per Si atom -5566.776690 kJ/mol
# Density = 1.755908 g / cm^3
# Si number density = 17.599137 Si / 1000 Ang^3
#
#
#
# Elastic Constant Matrix: (Units=GPa)
#
#
# Indices 1 2 3 4 5 6 
#
# 1 123.2796 27.6474 22.2530 0.0000 0.0000 0.0000
# 2 27.6474 61.2057 33.5377 0.0000 0.0000 0.0000
# 3 22.2530 33.5377 98.8946 0.0000 0.0000 0.0000
# 4 0.0000 0.0000 0.0000 17.7273 0.0000 0.0000
# 5 0.0000 0.0000 0.0000 0.0000 36.9683 0.0000
# 6 0.0000 0.0000 0.0000 0.0000 0.0000 17.2035
#
#
#
# Elastic Compliance Matrix: (Units=1/GPa)
#
#
# Indices 1 2 3 4 5 6 
#
# 1 0.009077 -0.003662 -0.000801 0.000000 0.000000 0.000000
# 2 -0.003662 0.021544 -0.006482 0.000000 0.000000 0.000000
# 3 -0.000801 -0.006482 0.012490 0.000000 0.000000 0.000000
# 4 0.000000 0.000000 0.000000 0.056410 0.000000 0.000000
# 5 0.000000 0.000000 0.000000 0.000000 0.027050 0.000000
# 6 0.000000 0.000000 0.000000 0.000000 0.000000 0.058128
#
#
# Mechanical properties :
#
#
# Convention : Reuss Voigt Hill
#
# Bulk Modulus (GPa) = 47.11966 50.02846 48.57406
# Shear Modulus (GPa) = 23.40126 27.70926 25.55526
#
# Velocity S-wave (km/s) = 3.65044 3.97226 3.81474
# Velocity P-wave (km/s) = 6.67829 7.03753 6.86026
#
# Compressibility (1/GPa) = 0.02122256
#
# Stress axis : x y z
#
# Youngs Moduli (GPa) = 110.16421 46.41597 80.06211
#
# Poissons Ratio (x) = 0.16995 0.06412
# Poissons Ratio (y) = 0.40337 0.51899
# Poissons Ratio (z) = 0.08822 0.30088
#
# Static dielectric constant tensor:
#      x y z
#    x 1.672450 0.000000 0.000000 
#    y 0.000000 1.578280 0.000000 
#    z 0.000000 0.000000 1.794890 
# 
# From -- ./inp_files/24390.got.cif
#   From: 2010.05.17/outbox.cif.g08.bks.cpg/sg21_13_cif.got.tgz:24390.got - 2010.06.03 23:14:55.
