data_PCOD9324859
_publ_section_title
;
Structure prediction by ZEFSAII (Michael W. Deem and Ramdas Pophale) SiO2 
 PCOD9324859
Probable space group: C 2 2 2
;
_chemical_formula_sum "Si O2"
_cell_formula_units_Z 32
_cell_length_a 7.215900
_cell_length_b 18.971405
_cell_length_c 11.435228
_cell_angle_alpha 90.000000
_cell_angle_beta 90.000000
_cell_angle_gamma 90.000000
_cell_volume 1565.434243
_symmetry_space_group_name_H-M "C 2 2 2"
_symmetry_group_IT_number 21
_symmetry_cell_setting 'orthorhombic'
loop_
_space_group_symop_operation_xyz
x,y,z
-x,-y,z
x,-y,-z
-x,y,-z
1/2+x,1/2+y,z
1/2-x,1/2-y,z
1/2+x,1/2-y,-z
1/2-x,1/2+y,-z
loop_
_atom_site_type_symbol
_atom_site_label
_atom_site_fract_x
_atom_site_fract_y
_atom_site_fract_z
Si Si1 0.077081 0.922081 0.759428
Si Si2 0.063450 0.578131 0.633423
Si Si3 0.211241 0.827667 0.956324
Si Si4 0.790334 0.331773 0.216656
O O1 0.215511 0.919416 0.649885
O O2 0.203006 0.891140 0.865051
O O3 0.896166 0.873721 0.750162
O O4 0.000000 0.000000 0.782112
O O5 0.000000 0.500000 0.673844
O O6 0.000000 0.585865 0.500000
O O7 0.957995 0.636328 0.710040
O O8 0.250000 0.750000 0.904089
O O9 0.323335 0.839301 0.076564
O O10 0.000000 0.822438 0.000000
O O11 0.750000 0.250000 0.238107
#
# Coordination Sequence:
#
# PCOD9324859 Si02
#       4
#     8   8   8   8
#     4  11  23  42  68  96 132 171 213 272 321 381
#     4  11  25  46  67  93 125 174 228 266 324 383
#     4   9  21  37  64  98 135 167 205 255 333 392
#     4  10  23  44  65 101 134 166 214 265 326 392
#
# _framework density 20.441611999999999
#
# number of rings (size 3 to 8) (size 9 to 14) (size 15 to 20)
#    0.000    1.750    2.500    0.000   10.500    5.500 
#    4.500    1.250    0.000    0.000    0.000    0.000 
#    0.000    0.000    0.000    0.000    0.000    0.000 
#
# Total GULP energy -89365.428307 kJ/mol
# GULP energy per Si atom -5585.339269 kJ/mol
# Density = 2.039509 g / cm^3
# Si number density = 20.441612 Si / 1000 Ang^3
#
#
#
# Elastic Constant Matrix: (Units=GPa)
#
#
# Indices 1 2 3 4 5 6 
#
# 1 83.9325 57.1082 35.8156 0.0000 0.0000 0.0000
# 2 57.1082 153.6602 59.0965 0.0000 0.0000 0.0000
# 3 35.8156 59.0965 71.8078 0.0000 0.0000 0.0000
# 4 0.0000 0.0000 0.0000 -44.1872 0.0000 0.0000
# 5 0.0000 0.0000 0.0000 0.0000 32.7785 0.0000
# 6 0.0000 0.0000 0.0000 0.0000 0.0000 38.2157
#
#
#
# Elastic Compliance Matrix: (Units=1/GPa)
#
#
# Indices 1 2 3 4 5 6 
#
# 1 0.017007 -0.004475 -0.004800 0.000000 0.000000 0.000000
# 2 -0.004475 0.010699 -0.006573 0.000000 0.000000 0.000000
# 3 -0.004800 -0.006573 0.021730 0.000000 0.000000 0.000000
# 4 0.000000 0.000000 0.000000 -0.022631 0.000000 0.000000
# 5 0.000000 0.000000 0.000000 0.000000 0.030508 0.000000
# 6 0.000000 0.000000 0.000000 0.000000 0.000000 0.026167
#
#
# Mechanical properties :
#
#
# Convention : Reuss Voigt Hill
#
# Bulk Modulus (GPa) = 56.36972 68.16010 62.26491
# Shear Modulus (GPa) = 41.29187 15.85341 28.57264
#
# Velocity S-wave (km/s) = 4.49931 2.78788 3.74273
# Velocity P-wave (km/s) = 7.39104 6.61659 7.01451
#
# Compressibility (1/GPa) = 0.01774002
#
# Stress axis : x y z
#
# Youngs Moduli (GPa) = 58.79850 93.46782 46.01980
#
# Poissons Ratio (x) = 0.41824 0.22090
# Poissons Ratio (y) = 0.26311 0.30249
# Poissons Ratio (z) = 0.28224 0.61438
#
# Static dielectric constant tensor:
#      x y z
#    x 1.920110 0.000000 0.000000 
#    y 0.000000 1.714100 0.000000 
#    z 0.000000 0.000000 1.766540 
# 
# From -- ./inp_files/21801.got.cif
#   From: 2010.05.17/outbox.cif.g08.bks.cpg/sg21_11_cif.got.tgz:21801.got - 2010.06.03 23:14:55.
