data_PCOD9324475
_publ_section_title
;
Structure prediction by ZEFSAII (Michael W. Deem and Ramdas Pophale) SiO2 
 PCOD9324475
Probable space group: C 2 2 2
;
_chemical_formula_sum "Si O2"
_cell_formula_units_Z 32
_cell_length_a 8.717954
_cell_length_b 11.173507
_cell_length_c 13.643209
_cell_angle_alpha 90.000000
_cell_angle_beta 90.000000
_cell_angle_gamma 90.000000
_cell_volume 1328.986626
_symmetry_space_group_name_H-M "C 2 2 2"
_symmetry_group_IT_number 21
_symmetry_cell_setting 'orthorhombic'
loop_
_space_group_symop_operation_xyz
x,y,z
-x,-y,z
x,-y,-z
-x,y,-z
1/2+x,1/2+y,z
1/2-x,1/2-y,z
1/2+x,1/2-y,-z
1/2-x,1/2+y,-z
loop_
_atom_site_type_symbol
_atom_site_label
_atom_site_fract_x
_atom_site_fract_y
_atom_site_fract_z
Si Si1 0.585009 0.308840 0.909274
Si Si2 0.589143 0.874336 0.789550
Si Si3 0.435792 0.863462 0.600878
Si Si4 0.842609 0.039019 0.714535
O O1 0.750000 0.250000 0.934213
O O2 0.458696 0.208737 0.878281
O O3 0.623043 0.388302 0.814089
O O4 0.500000 0.370501 0.000000
O O5 0.517533 0.808570 0.694885
O O6 0.500000 0.000000 0.805862
O O7 0.753799 0.921013 0.755485
O O8 0.500000 0.809450 0.500000
O O9 0.261390 0.886878 0.636623
O O10 0.500000 0.000000 0.598522
O O11 0.000000 0.000000 0.666518
#
# Coordination Sequence:
#
# PCOD9324475 Si02
#       4
#     8   8   8   8
#     4  12  25  42  63  98 135 181 233 281 338 410
#     4   9  19  40  64  88 130 175 219 271 338 401
#     4   8  15  34  65  92 119 171 219 260 337 410
#     4  10  22  40  63  98 135 174 220 287 338 408
#
# _framework density 24.078496999999999
#
# number of rings (size 3 to 8) (size 9 to 14) (size 15 to 20)
#    0.000    2.750    5.000    0.000    3.500    1.000 
#    0.000   10.000    0.000   27.000    0.000    0.000 
#    0.000    0.000    0.000    0.000    0.000    0.000 
#
# Total GULP energy -89208.209823 kJ/mol
# GULP energy per Si atom -5575.513114 kJ/mol
# Density = 2.402369 g / cm^3
# Si number density = 24.078497 Si / 1000 Ang^3
#
#
#
# Elastic Constant Matrix: (Units=GPa)
#
#
# Indices 1 2 3 4 5 6 
#
# 1 181.1217 48.2181 54.6089 0.0000 0.0000 0.0000
# 2 48.2181 59.2735 42.0354 0.0000 0.0000 0.0000
# 3 54.6089 42.0354 144.1262 0.0000 0.0000 0.0000
# 4 0.0000 0.0000 0.0000 -0.0922 0.0000 0.0000
# 5 0.0000 0.0000 0.0000 0.0000 24.2973 0.0000
# 6 0.0000 0.0000 0.0000 0.0000 0.0000 20.3112
#
#
#
# Elastic Compliance Matrix: (Units=1/GPa)
#
#
# Indices 1 2 3 4 5 6 
#
# 1 0.007233 -0.004968 -0.001292 0.000000 0.000000 0.000000
# 2 -0.004968 0.024683 -0.005317 0.000000 0.000000 0.000000
# 3 -0.001292 -0.005317 0.008978 0.000000 0.000000 0.000000
# 4 0.000000 0.000000 0.000000-10.849135 0.000000 0.000000
# 5 0.000000 0.000000 0.000000 0.000000 0.041157 0.000000
# 6 0.000000 0.000000 0.000000 0.000000 0.000000 0.049234
#
#
# Mechanical properties :
#
#
# Convention : Reuss Voigt Hill
#
# Bulk Modulus (GPa) = 56.36399 74.91623 65.64011
# Shear Modulus (GPa) = -0.46778 24.88053 12.20637
#
# Velocity S-wave (km/s) = -0.44124 3.21800 2.25398
# Velocity P-wave (km/s) = 4.81660 6.70733 5.83900
#
# Compressibility (1/GPa) = 0.01774182
#
# Stress axis : x y z
#
# Youngs Moduli (GPa) = 138.25161 40.51410 111.37885
#
# Poissons Ratio (x) = 0.20128 0.14386
# Poissons Ratio (y) = 0.68685 0.59215
# Poissons Ratio (z) = 0.17857 0.21539
#
# Static dielectric constant tensor:
#      x y z
#    x 2.003880 0.000000 0.000000 
#    y 0.000000 1.975990 0.000000 
#    z 0.000000 0.000000 2.028550 
# 
# From -- ./inp_files/29918.got.cif
#   From: 2010.05.17/outbox.cif.g08.bks.cpg/sg21_15_cif.got.tgz:29918.got - 2010.06.03 23:14:55.
