data_PCOD9324203
_publ_section_title
;
Structure prediction by ZEFSAII (Michael W. Deem and Ramdas Pophale) SiO2 
 PCOD9324203
Probable space group: C 2 2 2
;
_chemical_formula_sum "Si O2"
_cell_formula_units_Z 56
_cell_length_a 13.996715
_cell_length_b 14.484044
_cell_length_c 12.547111
_cell_angle_alpha 90.000000
_cell_angle_beta 90.000000
_cell_angle_gamma 90.000000
_cell_volume 2543.663717
_symmetry_space_group_name_H-M "C 2 2 2"
_symmetry_group_IT_number 21
_symmetry_cell_setting 'orthorhombic'
loop_
_space_group_symop_operation_xyz
x,y,z
-x,-y,z
x,-y,-z
-x,y,-z
1/2+x,1/2+y,z
1/2-x,1/2-y,z
1/2+x,1/2-y,-z
1/2-x,1/2+y,-z
loop_
_atom_site_type_symbol
_atom_site_label
_atom_site_fract_x
_atom_site_fract_y
_atom_site_fract_z
Si Si1 0.396112 0.802955 0.551363
Si Si2 0.696937 0.398454 0.549381
Si Si3 0.792967 0.409204 0.936151
Si Si4 0.552702 0.603007 0.883709
Si Si5 0.367432 0.586828 0.789408
Si Si6 0.413475 0.208242 0.914149
Si Si7 0.957023 0.403606 0.760295
O O1 0.500000 0.820735 0.500000
O O2 0.366968 0.695130 0.531357
O O3 0.304344 0.865668 0.517478
O O4 0.410084 0.835695 0.673856
O O5 0.674105 0.500000 0.500000
O O6 0.680954 0.414625 0.675550
O O7 0.705389 0.368441 0.871211
O O8 0.878151 0.428181 0.851038
O O9 0.762655 0.500000 0.000000
O O10 0.833237 0.344756 0.025276
O O11 0.470104 0.633523 0.799999
O O12 0.604731 0.514219 0.836163
O O13 0.620171 0.689805 0.887723
O O14 0.500000 0.591291 0.000000
O O15 0.457032 0.150581 0.817515
O O16 0.500000 0.217184 0.000000
O O17 0.000000 0.500000 0.715875
#
# Coordination Sequence:
#
# PCOD9324203 Si02
#       7
#     8   8   8   8   8   8   8
#     4  11  27  48  76 108 142 191 245 305 388 451
#     4  11  27  50  74 110 142 185 251 315 373 452
#     4  11  20  37  64  98 139 186 231 282 339 421
#     4  10  21  41  62  99 140 192 233 282 348 423
#     4  11  22  41  72  93 138 183 237 289 357 426
#     4   9  20  35  58  92 140 178 231 282 335 412
#     4  11  21  38  68  99 139 185 233 290 360 430
#
# _framework density 22.015488999999999
#
# number of rings (size 3 to 8) (size 9 to 14) (size 15 to 20)
#    0.000    1.429    2.857    2.571    2.000    3.714 
#    0.000    5.000    0.000    0.000    0.000    0.000 
#    0.000    0.000    0.000    0.000    0.000    0.000 
#
# Total GULP energy -156211.878156 kJ/mol
# GULP energy per Si atom -5578.995648 kJ/mol
# Density = 2.196538 g / cm^3
# Si number density = 22.015489 Si / 1000 Ang^3
#
#
#
# Elastic Constant Matrix: (Units=GPa)
#
#
# Indices 1 2 3 4 5 6 
#
# 1 90.9126 5.8119 16.4716 0.0000 0.0000 0.0000
# 2 5.8119 99.2748 12.2942 0.0000 0.0000 0.0000
# 3 16.4716 12.2942 56.9396 0.0000 0.0000 0.0000
# 4 0.0000 0.0000 0.0000 20.6605 0.0000 0.0000
# 5 0.0000 0.0000 0.0000 0.0000 33.9900 0.0000
# 6 0.0000 0.0000 0.0000 0.0000 0.0000 -3.5645
#
#
#
# Elastic Compliance Matrix: (Units=1/GPa)
#
#
# Indices 1 2 3 4 5 6 
#
# 1 0.011615 -0.000271 -0.003302 0.000000 0.000000 0.000000
# 2 -0.000271 0.010356 -0.002158 0.000000 0.000000 0.000000
# 3 -0.003302 -0.002158 0.018983 0.000000 0.000000 0.000000
# 4 0.000000 0.000000 0.000000 0.048402 0.000000 0.000000
# 5 0.000000 0.000000 0.000000 0.000000 0.029420 0.000000
# 6 0.000000 0.000000 0.000000 0.000000 0.000000 -0.280547
#
#
# Mechanical properties :
#
#
# Convention : Reuss Voigt Hill
#
# Bulk Modulus (GPa) = 33.90508 35.14249 34.52378
# Shear Modulus (GPa) = -35.59271 24.38717 -5.60277
#
# Velocity S-wave (km/s) = -4.02520 3.33186 -1.59701
# Velocity P-wave (km/s) = 2.48374 5.54969 3.50928
#
# Compressibility (1/GPa) = 0.02949411
#
# Stress axis : x y z
#
# Youngs Moduli (GPa) = 86.09498 96.56128 52.67756
#
# Poissons Ratio (x) = 0.02618 0.17392
# Poissons Ratio (y) = 0.02334 0.11366
# Poissons Ratio (z) = 0.28424 0.20834
#
# Static dielectric constant tensor:
#      x y z
#    x 1.863950 0.000000 0.000000 
#    y 0.000000 1.877080 0.000000 
#    z 0.000000 0.000000 1.802120 
# 
# From -- ./inp_files/25273.got.cif
#   From: 2010.05.17/outbox.cif.g08.bks.cpg/sg21_13_cif.got.tgz:25273.got - 2010.06.03 23:14:55.
