data_PCOD9324710
_publ_section_title
;
Structure prediction by ZEFSAII (Michael W. Deem and Ramdas Pophale) SiO2 
 PCOD9324710
Probable space group: C 2 2 2
;
_chemical_formula_sum "Si O2"
_cell_formula_units_Z 40
_cell_length_a 14.578005
_cell_length_b 7.130760
_cell_length_c 15.981470
_cell_angle_alpha 90.000000
_cell_angle_beta 90.000000
_cell_angle_gamma 90.000000
_cell_volume 1661.309844
_symmetry_space_group_name_H-M "C 2 2 2"
_symmetry_group_IT_number 21
_symmetry_cell_setting 'orthorhombic'
loop_
_space_group_symop_operation_xyz
x,y,z
-x,-y,z
x,-y,-z
-x,y,-z
1/2+x,1/2+y,z
1/2-x,1/2-y,z
1/2+x,1/2-y,-z
1/2-x,1/2+y,-z
loop_
_atom_site_type_symbol
_atom_site_label
_atom_site_fract_x
_atom_site_fract_y
_atom_site_fract_z
Si Si1 0.898188 0.771047 0.747865
Si Si2 0.250000 0.750000 0.829810
Si Si3 0.750000 0.750000 0.623674
Si Si4 0.670842 0.607335 0.922842
Si Si5 0.607042 0.775468 0.488174
Si Si6 0.601721 0.287905 0.701879
O O1 0.821270 0.665744 0.692589
O O2 0.883779 0.784837 0.848346
O O3 0.999040 0.716828 0.718131
O O4 0.891809 0.989706 0.719955
O O5 0.278423 0.566863 0.879647
O O6 0.334207 0.801808 0.770773
O O7 0.673983 0.679973 0.555816
O O8 0.750000 0.750000 0.952738
O O9 0.620698 0.500000 0.000000
O O10 0.500000 0.722464 0.500000
O O11 0.632141 0.740935 0.392564
O O12 0.614711 0.000000 0.500000
#
# Coordination Sequence:
#
# PCOD9324710 Si02
#       6
#     8   4   4   8   8   8
#     4  10  23  41  68  94 129 176 226 278 348 409
#     4  10  23  41  74  96 132 186 220 279 349 414
#     4  12  23  39  60  92 124 180 216 273 327 404
#     4  11  22  42  72 105 135 175 226 281 353 421
#     4  11  25  39  57  90 130 171 224 280 329 390
#     4  10  22  45  62  95 130 176 229 279 335 403
#
# _framework density 24.077387000000002
#
# number of rings (size 3 to 8) (size 9 to 14) (size 15 to 20)
#    0.000    1.400    4.000    0.600    8.400    0.000 
#    0.000    8.000    0.000    1.200    0.000    0.000 
#    0.000    0.000    0.000    0.000    0.000    0.000 
#
# Total GULP energy -111661.433999 kJ/mol
# GULP energy per Si atom -5583.071700 kJ/mol
# Density = 2.402259 g / cm^3
# Si number density = 24.077387 Si / 1000 Ang^3
#
#
#
# Elastic Constant Matrix: (Units=GPa)
#
#
# Indices 1 2 3 4 5 6 
#
# 1 145.4767 3.5409 49.6935 0.0000 0.0000 0.0000
# 2 3.5409 90.7884 21.4447 0.0000 0.0000 0.0000
# 3 49.6935 21.4447 179.5462 0.0000 0.0000 0.0000
# 4 0.0000 0.0000 0.0000 70.1874 0.0000 0.0000
# 5 0.0000 0.0000 0.0000 0.0000 23.2579 0.0000
# 6 0.0000 0.0000 0.0000 0.0000 0.0000 3.7882
#
#
#
# Elastic Compliance Matrix: (Units=1/GPa)
#
#
# Indices 1 2 3 4 5 6 
#
# 1 0.007595 0.000206 -0.002127 0.000000 0.000000 0.000000
# 2 0.000206 0.011340 -0.001411 0.000000 0.000000 0.000000
# 3 -0.002127 -0.001411 0.006327 0.000000 0.000000 0.000000
# 4 0.000000 0.000000 0.000000 0.014248 0.000000 0.000000
# 5 0.000000 0.000000 0.000000 0.000000 0.042996 0.000000
# 6 0.000000 0.000000 0.000000 0.000000 0.000000 0.263974
#
#
# Mechanical properties :
#
#
# Convention : Reuss Voigt Hill
#
# Bulk Modulus (GPa) = 53.76954 62.79664 58.28309
# Shear Modulus (GPa) = 13.91425 42.18885 28.05155
#
# Velocity S-wave (km/s) = 2.40656 4.19049 3.41700
# Velocity P-wave (km/s) = 5.48657 7.03928 6.31086
#
# Compressibility (1/GPa) = 0.01859789
#
# Stress axis : x y z
#
# Youngs Moduli (GPa) = 131.65793 88.18355 158.05702
#
# Poissons Ratio (x) = -0.01818 0.33616
# Poissons Ratio (y) = -0.02714 0.22309
# Poissons Ratio (z) = 0.28001 0.12447
#
# Static dielectric constant tensor:
#      x y z
#    x 1.755050 0.000000 0.000000 
#    y 0.000000 2.067350 0.000000 
#    z 0.000000 0.000000 1.931590 
# 
# From -- ./inp_files/30222.got.cif
#   From: 2010.05.17/outbox.cif.g08.bks.cpg/sg21_16_cif.got.tgz:30222.got - 2010.06.03 23:14:55.
