data_PCOD9324493
_publ_section_title
;
Structure prediction by ZEFSAII (Michael W. Deem and Ramdas Pophale) SiO2 
 PCOD9324493
Probable space group: C 2 2 2
;
_chemical_formula_sum "Si O2"
_cell_formula_units_Z 32
_cell_length_a 8.838897
_cell_length_b 12.896108
_cell_length_c 11.575163
_cell_angle_alpha 90.000000
_cell_angle_beta 90.000000
_cell_angle_gamma 90.000000
_cell_volume 1319.422391
_symmetry_space_group_name_H-M "C 2 2 2"
_symmetry_group_IT_number 21
_symmetry_cell_setting 'orthorhombic'
loop_
_space_group_symop_operation_xyz
x,y,z
-x,-y,z
x,-y,-z
-x,y,-z
1/2+x,1/2+y,z
1/2-x,1/2-y,z
1/2+x,1/2-y,-z
1/2-x,1/2+y,-z
loop_
_atom_site_type_symbol
_atom_site_label
_atom_site_fract_x
_atom_site_fract_y
_atom_site_fract_z
Si Si1 0.586535 0.394406 0.152106
Si Si2 0.582075 0.872727 0.376261
Si Si3 0.562764 0.851926 0.875269
Si Si4 0.079117 0.874621 0.617178
O O1 0.500000 0.500000 0.111130
O O2 0.540240 0.274721 0.121157
O O3 0.763875 0.390423 0.127149
O O4 0.542971 0.397058 0.285491
O O5 0.500000 0.897604 0.500000
O O6 0.505530 0.887899 0.249207
O O7 0.751556 0.918440 0.370226
O O8 0.596216 0.749196 0.381675
O O9 0.500000 0.886629 0.000000
O O10 0.000000 0.900252 0.500000
#
# Coordination Sequence:
#
# PCOD9324493 Si02
#       4
#     8   8   8   8
#     4  10  22  40  65  96 135 179 229 284 345 412
#     4   9  17  33  60  91 127 175 228 277 338 413
#     4  10  22  41  67  98 134 178 228 284 345 411
#     4   9  17  31  57  92 130 175 226 281 342 407
#
# _framework density 24.253036999999999
#
# number of rings (size 3 to 8) (size 9 to 14) (size 15 to 20)
#    0.000    2.500    0.000    1.500    0.000   15.000 
#    0.000    1.250    0.000   15.000    0.000    0.000 
#    0.000    0.000    0.000    0.000    0.000    0.000 
#
# Total GULP energy -89092.904348 kJ/mol
# GULP energy per Si atom -5568.306522 kJ/mol
# Density = 2.419784 g / cm^3
# Si number density = 24.253037 Si / 1000 Ang^3
#
#
#
# Elastic Constant Matrix: (Units=GPa)
#
#
# Indices 1 2 3 4 5 6 
#
# 1 142.5299 56.3010 129.9287 0.0000 0.0000 0.0000
# 2 56.3010 189.2245 30.7440 0.0000 0.0000 0.0000
# 3 129.9287 30.7440 292.2851 0.0000 0.0000 0.0000
# 4 0.0000 0.0000 0.0000 -84.2253 0.0000 0.0000
# 5 0.0000 0.0000 0.0000 0.0000 10.2312 0.0000
# 6 0.0000 0.0000 0.0000 0.0000 0.0000 20.2255
#
#
#
# Elastic Compliance Matrix: (Units=1/GPa)
#
#
# Indices 1 2 3 4 5 6 
#
# 1 0.013333 -0.003056 -0.005606 0.000000 0.000000 0.000000
# 2 -0.003056 0.006077 0.000719 0.000000 0.000000 0.000000
# 3 -0.005606 0.000719 0.005837 0.000000 0.000000 0.000000
# 4 0.000000 0.000000 0.000000 -0.011873 0.000000 0.000000
# 5 0.000000 0.000000 0.000000 0.000000 0.097740 0.000000
# 6 0.000000 0.000000 0.000000 0.000000 0.000000 0.049443
#
#
# Mechanical properties :
#
#
# Convention : Reuss Voigt Hill
#
# Bulk Modulus (GPa) = 106.80351 117.55409 112.17880
# Shear Modulus (GPa) = 27.84529 16.38401 22.11465
#
# Velocity S-wave (km/s) = 3.39206 2.60194 3.02293
# Velocity P-wave (km/s) = 7.71195 7.58959 7.65102
#
# Compressibility (1/GPa) = 0.00936299
#
# Stress axis : x y z
#
# Youngs Moduli (GPa) = 74.99998 164.54877 171.30729
#
# Poissons Ratio (x) = 0.50293 0.96027
# Poissons Ratio (y) = 0.22923 -0.12324
# Poissons Ratio (z) = 0.42042 -0.11838
#
# Static dielectric constant tensor:
#      x y z
#    x 1.892350 0.000000 0.000000 
#    y 0.000000 2.108790 0.000000 
#    z 0.000000 0.000000 1.934950 
# 
# From -- ./inp_files/21826.got.cif
#   From: 2010.05.17/outbox.cif.g08.bks.cpg/sg21_11_cif.got.tgz:21826.got - 2010.06.03 23:14:55.
