data_PCOD9324099
_publ_section_title
;
Structure prediction by ZEFSAII (Michael W. Deem and Ramdas Pophale) SiO2 
 PCOD9324099
Probable space group: C 2 2 2
;
_chemical_formula_sum "Si O2"
_cell_formula_units_Z 60
_cell_length_a 11.725267
_cell_length_b 22.422778
_cell_length_c 12.965715
_cell_angle_alpha 90.000000
_cell_angle_beta 90.000000
_cell_angle_gamma 90.000000
_cell_volume 3408.855792
_symmetry_space_group_name_H-M "C 2 2 2"
_symmetry_group_IT_number 21
_symmetry_cell_setting 'orthorhombic'
loop_
_space_group_symop_operation_xyz
x,y,z
-x,-y,z
x,-y,-z
-x,y,-z
1/2+x,1/2+y,z
1/2-x,1/2-y,z
1/2+x,1/2-y,-z
1/2-x,1/2+y,-z
loop_
_atom_site_type_symbol
_atom_site_label
_atom_site_fract_x
_atom_site_fract_y
_atom_site_fract_z
Si Si1 0.500000 0.500000 0.761903
Si Si2 0.132474 0.618617 0.807234
Si Si3 0.237733 0.000000 0.123132
Si Si4 0.132472 0.618616 0.192766
Si Si5 0.758412 0.820908 0.380201
Si Si6 0.000000 0.882935 0.620388
Si Si7 0.134832 0.708746 1.000000
Si Si8 0.258412 0.320908 0.619801
O O1 0.611073 0.500001 0.832421
O O2 0.500002 0.441110 0.691076
O O3 0.200282 0.559337 0.836958
O O4 0.179159 0.646110 0.701456
O O5 0.000001 0.603696 0.797714
O O6 0.143907 0.667206 0.898705
O O7 0.299721 0.940664 0.163041
O O8 0.239018 0.000000 0.000000
O O9 0.143906 0.667206 0.101293
O O10 0.179159 0.646109 0.298542
O O11 0.750000 0.750000 0.365578
O O12 0.887111 0.843759 0.361905
O O13 0.729211 0.833838 0.500001
O O14 0.000000 0.900983 0.500000
O O15 0.887111 0.843760 0.638096
O O16 0.250000 0.750000 0.000001
O O17 0.000000 0.733005 0.000000
O O18 0.250000 0.250000 0.634424
#
# Coordination Sequence:
#
# PCOD9324099 Si02
#       8
#     4   8   8   8   8   8   8   8
#     4  12  22  42  64  92 126 160 204 264 312 376
#     4  11  23  40  64  89 121 163 208 254 312 370
#     4  12  24  43  64  89 120 158 211 257 313 370
#     4  11  23  40  64  89 121 163 208 254 312 370
#     4  10  22  40  63  92 126 164 206 252 307 371
#     4  10  21  39  65  92 123 166 205 251 315 376
#     4  10  22  43  63  92 124 165 208 258 319 382
#     4  10  22  40  63  92 126 164 206 252 307 371
#
# _framework density 17.601215
#
# number of rings (size 3 to 8) (size 9 to 14) (size 15 to 20)
#    0.000    1.333    4.000    1.600    1.867    1.067 
#    4.800    0.667    0.000    1.600    0.000    0.000 
#    0.000    0.000    0.000    0.000    0.000    0.000 
#
# Total GULP energy -167503.831081 kJ/mol
# GULP energy per Si atom -5583.461036 kJ/mol
# Density = 1.756115 g / cm^3
# Si number density = 17.601215 Si / 1000 Ang^3
#
#
#
# Elastic Constant Matrix: (Units=GPa)
#
#
# Indices 1 2 3 4 5 6 
#
# 1 176.3644 88.0247 85.8819 0.0000 0.0000 0.0000
# 2 88.0247 125.6703 83.1003 0.0000 0.0000 0.0000
# 3 85.8819 83.1003 123.3338 0.0000 0.0000 0.0000
# 4 0.0000 0.0000 0.0000 50.5638 0.0000 0.0000
# 5 0.0000 0.0000 0.0000 0.0000 27.3466 0.0000
# 6 0.0000 0.0000 0.0000 0.0000 0.0000 36.8740
#
#
#
# Elastic Compliance Matrix: (Units=1/GPa)
#
#
# Indices 1 2 3 4 5 6 
#
# 1 0.009661 -0.004182 -0.003910 0.000000 0.000000 0.000000
# 2 -0.004182 0.016162 -0.007978 0.000000 0.000000 0.000000
# 3 -0.003910 -0.007978 0.016206 0.000000 0.000000 0.000000
# 4 0.000000 0.000000 0.000000 0.019777 0.000000 0.000000
# 5 0.000000 0.000000 0.000000 0.000000 0.036568 0.000000
# 6 0.000000 0.000000 0.000000 0.000000 0.000000 0.027119
#
#
# Mechanical properties :
#
#
# Convention : Reuss Voigt Hill
#
# Bulk Modulus (GPa) = 101.10873 104.37581 102.74227
# Shear Modulus (GPa) = 31.06991 34.18097 32.62544
#
# Velocity S-wave (km/s) = 4.20600 4.41156 4.31000
# Velocity P-wave (km/s) = 9.00867 9.24003 9.12508
#
# Compressibility (1/GPa) = 0.00989034
#
# Stress axis : x y z
#
# Youngs Moduli (GPa) = 103.50800 61.87538 61.70609
#
# Poissons Ratio (x) = 0.25874 0.24126
# Poissons Ratio (y) = 0.43283 0.49227
# Poissons Ratio (z) = 0.40471 0.49362
#
# Static dielectric constant tensor:
#      x y z
#    x 1.587010 0.000000 0.000000 
#    y 0.000000 1.565980 0.000000 
#    z 0.000000 0.000000 1.577430 
# 
# From -- ./inp_files/24304.got.cif
#   From: 2010.05.17/outbox.cif.g08.bks.cpg/sg21_13_cif.got.tgz:24304.got - 2010.06.03 23:14:55.
