data_PCOD9324277
_publ_section_title
;
Structure prediction by ZEFSAII (Michael W. Deem and Ramdas Pophale) SiO2 
 PCOD9324277
Probable space group: C 2 2 2
;
_chemical_formula_sum "Si O2"
_cell_formula_units_Z 58
_cell_length_a 17.447347
_cell_length_b 9.812342
_cell_length_c 15.968688
_cell_angle_alpha 90.000000
_cell_angle_beta 90.000000
_cell_angle_gamma 90.000000
_cell_volume 2733.828779
_symmetry_space_group_name_H-M "C 2 2 2"
_symmetry_group_IT_number 21
_symmetry_cell_setting 'orthorhombic'
loop_
_space_group_symop_operation_xyz
x,y,z
-x,-y,z
x,-y,-z
-x,y,-z
1/2+x,1/2+y,z
1/2-x,1/2-y,z
1/2+x,1/2-y,-z
1/2-x,1/2+y,-z
loop_
_atom_site_type_symbol
_atom_site_label
_atom_site_fract_x
_atom_site_fract_y
_atom_site_fract_z
Si Si1 0.500000 0.000000 0.500000
Si Si2 0.740297 0.910250 0.083833
Si Si3 0.167216 0.200744 0.558953
Si Si4 0.884342 0.928906 0.199335
Si Si5 0.034914 0.782493 0.190046
Si Si6 0.584521 0.964387 0.901229
Si Si7 0.489296 0.787491 0.375950
Si Si8 0.123803 0.897084 0.613631
O O1 0.535854 0.897820 0.430422
O O2 0.750000 0.750000 0.064839
O O3 0.811379 0.944770 0.142059
O O4 0.659289 0.952156 0.127197
O O5 0.744529 0.000000 0.000000
O O6 0.250000 0.250000 0.588248
O O7 0.096573 0.292647 0.588535
O O8 0.166810 0.185377 0.458639
O O9 0.144599 0.052808 0.595104
O O10 0.860102 0.868568 0.289210
O O11 0.951192 0.833900 0.159432
O O12 0.921508 0.077776 0.213555
O O13 0.085085 0.694509 0.125005
O O14 0.018976 0.701873 0.276454
O O15 0.500000 0.000000 0.867584
O O16 0.581840 0.000000 0.000000
O O17 0.534469 0.646994 0.394334
#
# Coordination Sequence:
#
# PCOD9324277 Si02
#       8
#     2   8   8   8   8   8   8   8
#     4  12  24  36  66  96 126 188 238 302 324 416
#     4  11  26  45  71 101 139 182 230 288 356 431
#     4  11  22  37  64  99 133 173 225 283 339 403
#     4  10  22  42  72 101 137 171 236 283 355 417
#     4  10  22  42  69 105 132 178 233 294 338 431
#     4  10  23  43  69  95 137 179 226 275 352 420
#     4  11  22  42  66  96 133 180 239 279 346 408
#     4  10  21  43  66  91 132 189 222 279 340 424
#
# _framework density 21.215665000000001
#
# number of rings (size 3 to 8) (size 9 to 14) (size 15 to 20)
#    0.000    1.517    2.759    1.241    4.828    3.862 
#    0.000    0.690    0.000    0.000    0.000    0.000 
#    0.000    0.000    0.000    0.000    0.000    0.000 
#
# Total GULP energy -161558.831816 kJ/mol
# GULP energy per Si atom -5570.994201 kJ/mol
# Density = 2.116738 g / cm^3
# Si number density = 21.215665 Si / 1000 Ang^3
#
#
#
# Elastic Constant Matrix: (Units=GPa)
#
#
# Indices 1 2 3 4 5 6 
#
# 1 156.9864 42.0894 45.4205 0.0000 0.0000 0.0000
# 2 42.0894 100.6990 36.5912 0.0000 0.0000 0.0000
# 3 45.4205 36.5912 83.2906 0.0000 0.0000 0.0000
# 4 0.0000 0.0000 0.0000 25.1701 0.0000 0.0000
# 5 0.0000 0.0000 0.0000 0.0000 1.8464 0.0000
# 6 0.0000 0.0000 0.0000 0.0000 0.0000 27.6269
#
#
#
# Elastic Compliance Matrix: (Units=1/GPa)
#
#
# Indices 1 2 3 4 5 6 
#
# 1 0.007910 -0.002069 -0.003404 0.000000 0.000000 0.000000
# 2 -0.002069 0.012358 -0.004301 0.000000 0.000000 0.000000
# 3 -0.003404 -0.004301 0.015752 0.000000 0.000000 0.000000
# 4 0.000000 0.000000 0.000000 0.039730 0.000000 0.000000
# 5 0.000000 0.000000 0.000000 0.000000 0.541595 0.000000
# 6 0.000000 0.000000 0.000000 0.000000 0.000000 0.036197
#
#
# Mechanical properties :
#
#
# Convention : Reuss Voigt Hill
#
# Bulk Modulus (GPa) = 60.71129 65.46424 63.08777
# Shear Modulus (GPa) = 7.36832 25.38703 16.37768
#
# Velocity S-wave (km/s) = 1.86564 3.46297 2.78143
# Velocity P-wave (km/s) = 5.77228 6.84931 6.33373
#
# Compressibility (1/GPa) = 0.01647140
#
# Stress axis : x y z
#
# Youngs Moduli (GPa) = 126.42753 80.91794 63.48335
#
# Poissons Ratio (x) = 0.16742 0.21612
# Poissons Ratio (y) = 0.26157 0.27304
# Poissons Ratio (z) = 0.43041 0.34802
#
# Static dielectric constant tensor:
#      x y z
#    x 1.787080 0.000000 0.000000 
#    y 0.000000 1.866190 0.000000 
#    z 0.000000 0.000000 1.773990 
# 
# From -- ./inp_files/36915.got.cif
#   From: 2010.05.17/outbox.cif.g08.bks.cpg/sg21_19_cif.got.tgz:36915.got - 2010.06.03 23:14:55.
