data_PCOD9324077
_publ_section_title
;
Structure prediction by ZEFSAII (Michael W. Deem and Ramdas Pophale) SiO2 
 PCOD9324077
Probable space group: C 2 2 2
;
_chemical_formula_sum "Si O2"
_cell_formula_units_Z 56
_cell_length_a 16.295862
_cell_length_b 11.916676
_cell_length_c 14.863345
_cell_angle_alpha 90.000000
_cell_angle_beta 90.000000
_cell_angle_gamma 90.000000
_cell_volume 2886.350237
_symmetry_space_group_name_H-M "C 2 2 2"
_symmetry_group_IT_number 21
_symmetry_cell_setting 'orthorhombic'
loop_
_space_group_symop_operation_xyz
x,y,z
-x,-y,z
x,-y,-z
-x,y,-z
1/2+x,1/2+y,z
1/2-x,1/2-y,z
1/2+x,1/2-y,-z
1/2-x,1/2+y,-z
loop_
_atom_site_type_symbol
_atom_site_label
_atom_site_fract_x
_atom_site_fract_y
_atom_site_fract_z
Si Si1 0.546866 0.117098 0.261411
Si Si2 0.738985 0.869592 0.706615
Si Si3 0.000765 0.220927 0.893571
Si Si4 0.632931 0.496662 0.607135
Si Si5 0.996062 0.185557 0.607762
Si Si6 0.818053 0.839453 0.088713
Si Si7 0.337564 0.598930 0.116547
O O1 0.644114 0.106062 0.276673
O O2 0.532231 0.175922 0.165146
O O3 0.511291 0.203919 0.335023
O O4 0.500000 0.000000 0.266270
O O5 0.750000 0.750000 0.655874
O O6 0.783654 0.971025 0.655759
O O7 0.790914 0.852917 0.798136
O O8 0.064441 0.119130 0.874681
O O9 0.906780 0.193739 0.872910
O O10 0.000000 0.244296 0.000000
O O11 0.643712 0.500000 0.500000
O O12 0.568167 0.596077 0.629469
O O13 0.588399 0.379792 0.629901
O O14 0.000000 0.205207 0.500000
O O15 0.750000 0.750000 0.117848
O O16 0.809105 0.970012 0.112988
O O17 0.818911 0.843001 0.979160
#
# Coordination Sequence:
#
# PCOD9324077 Si02
#       7
#     8   8   8   8   8   8   8
#     4  12  27  43  61  95 136 171 218 266 333 395
#     4  12  22  41  67  93 127 166 218 265 316 393
#     4  10  22  41  63  88 126 171 222 266 317 385
#     4   9  19  39  69 100 121 161 219 265 313 387
#     4   9  19  41  69  95 128 166 213 264 321 388
#     4  10  22  37  61  93 127 161 215 273 323 375
#     4  10  21  39  63  90 122 169 215 264 323 383
#
# _framework density 19.401665000000001
#
# number of rings (size 3 to 8) (size 9 to 14) (size 15 to 20)
#    0.000    1.714    2.857    1.714    6.000    2.286 
#    2.571    0.714    0.000    0.000    0.000    0.000 
#    0.000    0.000    0.000    0.000    0.000    0.000 
#
# Total GULP energy -156288.814441 kJ/mol
# GULP energy per Si atom -5581.743373 kJ/mol
# Density = 1.935751 g / cm^3
# Si number density = 19.401665 Si / 1000 Ang^3
#
#
#
# Elastic Constant Matrix: (Units=GPa)
#
#
# Indices 1 2 3 4 5 6 
#
# 1 143.1678 67.5226 34.6810 0.0000 0.0000 0.0000
# 2 67.5226 103.1384 38.6178 0.0000 0.0000 0.0000
# 3 34.6810 38.6178 60.6895 0.0000 0.0000 0.0000
# 4 0.0000 0.0000 0.0000 14.4149 0.0000 0.0000
# 5 0.0000 0.0000 0.0000 0.0000 12.5813 0.0000
# 6 0.0000 0.0000 0.0000 0.0000 0.0000 34.8913
#
#
#
# Elastic Compliance Matrix: (Units=1/GPa)
#
#
# Indices 1 2 3 4 5 6 
#
# 1 0.010304 -0.005961 -0.002095 0.000000 0.000000 0.000000
# 2 -0.005961 0.016177 -0.006887 0.000000 0.000000 0.000000
# 3 -0.002095 -0.006887 0.022057 0.000000 0.000000 0.000000
# 4 0.000000 0.000000 0.000000 0.069373 0.000000 0.000000
# 5 0.000000 0.000000 0.000000 0.000000 0.079483 0.000000
# 6 0.000000 0.000000 0.000000 0.000000 0.000000 0.028660
#
#
# Mechanical properties :
#
#
# Convention : Reuss Voigt Hill
#
# Bulk Modulus (GPa) = 53.61607 65.40426 59.51017
# Shear Modulus (GPa) = 19.07245 23.45579 21.26412
#
# Velocity S-wave (km/s) = 3.13873 3.48078 3.31417
# Velocity P-wave (km/s) = 6.38986 7.06670 6.73679
#
# Compressibility (1/GPa) = 0.01865112
#
# Stress axis : x y z
#
# Youngs Moduli (GPa) = 97.05139 61.81516 45.33740
#
# Poissons Ratio (x) = 0.36850 0.09497
# Poissons Ratio (y) = 0.57856 0.31225
# Poissons Ratio (z) = 0.20330 0.42574
#
# Static dielectric constant tensor:
#      x y z
#    x 1.675750 0.000000 0.000000 
#    y 0.000000 1.677890 0.000000 
#    z 0.000000 0.000000 1.692520 
# 
# From -- ./inp_files/31619.got.cif
#   From: 2010.05.17/outbox.cif.g08.bks.cpg/sg21_16_cif.got.tgz:31619.got - 2010.06.03 23:14:55.
