data_PCOD9324094
_publ_section_title
;
Structure prediction by ZEFSAII (Michael W. Deem and Ramdas Pophale) SiO2 
 PCOD9324094
Probable space group: C 2 2 2
;
_chemical_formula_sum "Si O2"
_cell_formula_units_Z 34
_cell_length_a 14.415121
_cell_length_b 5.266398
_cell_length_c 18.293743
_cell_angle_alpha 90.000000
_cell_angle_beta 90.000000
_cell_angle_gamma 90.000000
_cell_volume 1388.783484
_symmetry_space_group_name_H-M "C 2 2 2"
_symmetry_group_IT_number 21
_symmetry_cell_setting 'orthorhombic'
loop_
_space_group_symop_operation_xyz
x,y,z
-x,-y,z
x,-y,-z
-x,y,-z
1/2+x,1/2+y,z
1/2-x,1/2-y,z
1/2+x,1/2-y,-z
1/2-x,1/2+y,-z
loop_
_atom_site_type_symbol
_atom_site_label
_atom_site_fract_x
_atom_site_fract_y
_atom_site_fract_z
Si Si1 0.349123 0.363246 0.424504
Si Si2 0.390840 0.454025 0.724400
Si Si3 0.862148 0.745916 0.044371
Si Si4 0.106428 0.446981 0.206553
Si Si5 0.500000 0.000000 0.500000
O O1 0.329790 0.500000 0.500000
O O2 0.250000 0.250000 0.402173
O O3 0.378209 0.565786 0.362211
O O4 0.432313 0.168209 0.446933
O O5 0.500000 0.500000 0.739419
O O6 0.350808 0.728850 0.744296
O O7 0.353740 0.225563 0.774909
O O8 0.750000 0.750000 0.046717
O O9 0.892745 0.680998 0.126467
O O10 0.892085 0.500000 0.000000
O O11 0.890856 0.000000 0.000000
O O12 0.000000 0.500000 0.226392
#
# Coordination Sequence:
#
# PCOD9324094 Si02
#       5
#     8   8   8   8   2
#     4  12  27  47  74 110 144 201 263 316 391 469
#     4  10  23  42  70  96 141 185 232 299 376 433
#     4  10  21  39  64  94 132 177 226 288 356 426
#     4  10  22  41  66  99 134 183 229 290 363 438
#     4  12  26  48  80 100 160 196 252 348 378 446
#
# _framework density 24.481857999999999
#
# number of rings (size 3 to 8) (size 9 to 14) (size 15 to 20)
#    0.000    1.412    1.176    3.176    8.235    1.412 
#    0.000    3.529    0.000    0.000    0.000    0.000 
#    0.000    0.000    0.000    0.000    0.000    0.000 
#
# Total GULP energy -94890.707431 kJ/mol
# GULP energy per Si atom -5581.806319 kJ/mol
# Density = 2.442614 g / cm^3
# Si number density = 24.481858 Si / 1000 Ang^3
#
#
#
# Elastic Constant Matrix: (Units=GPa)
#
#
# Indices 1 2 3 4 5 6 
#
# 1 103.7820 31.7840 -43.5786 0.0000 0.0000 0.0000
# 2 31.7840 188.5814 61.8506 0.0000 0.0000 0.0000
# 3 -43.5786 61.8506 76.4085 0.0000 0.0000 0.0000
# 4 0.0000 0.0000 0.0000 41.0502 0.0000 0.0000
# 5 0.0000 0.0000 0.0000 0.0000 24.1618 0.0000
# 6 0.0000 0.0000 0.0000 0.0000 0.0000 -25.8386
#
#
#
# Elastic Compliance Matrix: (Units=1/GPa)
#
#
# Indices 1 2 3 4 5 6 
#
# 1 0.021523 -0.010420 0.020710 0.000000 0.000000 0.000000
# 2 -0.010420 0.012264 -0.015870 0.000000 0.000000 0.000000
# 3 0.020710 -0.015870 0.037746 0.000000 0.000000 0.000000
# 4 0.000000 0.000000 0.000000 0.024360 0.000000 0.000000
# 5 0.000000 0.000000 0.000000 0.000000 0.041388 0.000000
# 6 0.000000 0.000000 0.000000 0.000000 0.000000 -0.038702
#
#
# Mechanical properties :
#
#
# Convention : Reuss Voigt Hill
#
# Bulk Modulus (GPa) = 16.56377 52.09818 34.33098
# Shear Modulus (GPa) = 38.50175 29.12242 33.81209
#
# Velocity S-wave (km/s) = 3.96999 3.45273 3.72036
# Velocity P-wave (km/s) = 5.27208 6.10095 5.70160
#
# Compressibility (1/GPa) = 0.06037272
#
# Stress axis : x y z
#
# Youngs Moduli (GPa) = 46.46165 81.53872 26.49287
#
# Poissons Ratio (x) = 0.84964 -0.54867
# Poissons Ratio (y) = 0.48413 0.42045
# Poissons Ratio (z) = -0.96223 1.29405
#
# Static dielectric constant tensor:
#      x y z
#    x 2.054120 0.000000 0.000000 
#    y 0.000000 2.082490 0.000000 
#    z 0.000000 0.000000 2.141820 
# 
# From -- ./inp_files/36446.got.cif
#   From: 2010.05.17/outbox.cif.g08.bks.cpg/sg21_19_cif.got.tgz:36446.got - 2010.06.03 23:14:55.
