data_PCOD9324006
_publ_section_title
;
Structure prediction by ZEFSAII (Michael W. Deem and Ramdas Pophale) SiO2 
 PCOD9324006
Probable space group: C 2 2 2
;
_chemical_formula_sum "Si O2"
_cell_formula_units_Z 64
_cell_length_a 24.812361
_cell_length_b 11.777452
_cell_length_c 10.675111
_cell_angle_alpha 90.000000
_cell_angle_beta 90.000000
_cell_angle_gamma 90.000000
_cell_volume 3119.549158
_symmetry_space_group_name_H-M "C 2 2 2"
_symmetry_group_IT_number 21
_symmetry_cell_setting 'orthorhombic'
loop_
_space_group_symop_operation_xyz
x,y,z
-x,-y,z
x,-y,-z
-x,y,-z
1/2+x,1/2+y,z
1/2-x,1/2-y,z
1/2+x,1/2-y,-z
1/2-x,1/2+y,-z
loop_
_atom_site_type_symbol
_atom_site_label
_atom_site_fract_x
_atom_site_fract_y
_atom_site_fract_z
Si Si1 0.601772 0.760404 0.277607
Si Si2 0.372290 0.993037 0.352642
Si Si3 0.611138 0.253152 0.235185
Si Si4 0.255551 0.540344 0.332296
Si Si5 0.703312 0.339015 0.809686
Si Si6 0.500061 0.363977 0.848423
Si Si7 0.346947 0.371196 0.514137
Si Si8 0.790975 0.846575 0.922354
O O1 0.648930 0.730966 0.181469
O O2 0.549285 0.696683 0.225614
O O3 0.627788 0.707999 0.405741
O O4 0.600675 0.895511 0.292761
O O5 0.387914 0.879184 0.276417
O O6 0.306401 0.994067 0.350255
O O7 0.387225 0.000000 0.500000
O O8 0.553477 0.300927 0.197403
O O9 0.629981 0.318551 0.358873
O O10 0.653750 0.291543 0.128514
O O11 0.293003 0.431085 0.301326
O O12 0.283126 0.612959 0.443588
O O13 0.261511 0.604782 0.200544
O O14 0.750000 0.250000 0.781474
O O15 0.704114 0.404631 0.941126
O O16 0.500000 0.500000 0.822024
O O17 0.500000 0.351882 0.000000
O O18 0.367453 0.500000 0.500000
O O19 0.750000 0.750000 0.964589
#
# Coordination Sequence:
#
# PCOD9324006 Si02
#       8
#     8   8   8   8   8   8   8   8
#     4  12  25  45  67 105 138 184 245 287 359 426
#     4  12  25  44  67  99 146 192 230 288 350 433
#     4  11  24  46  69 100 135 185 235 282 362 418
#     4  11  22  38  63  97 140 186 232 278 358 422
#     4  11  22  37  61  96 141 179 227 290 351 418
#     4  11  27  52  79 103 136 179 234 308 369 429
#     4  11  22  39  66 100 136 176 225 289 339 412
#     4  10  21  38  62  96 137 180 228 288 348 425
#
# _framework density 20.515785999999999
#
# number of rings (size 3 to 8) (size 9 to 14) (size 15 to 20)
#    0.000    0.875    5.000    2.250    1.750    1.000 
#    2.250    5.000    0.000    0.000    0.000    0.000 
#    0.000    0.000    0.000    0.000    0.000    0.000 
#
# Total GULP energy -178305.343762 kJ/mol
# GULP energy per Si atom -5572.041993 kJ/mol
# Density = 2.046909 g / cm^3
# Si number density = 20.515786 Si / 1000 Ang^3
#
#
#
# Elastic Constant Matrix: (Units=GPa)
#
#
# Indices 1 2 3 4 5 6 
#
# 1 129.2409 37.5437 10.3201 0.0000 0.0000 0.0000
# 2 37.5437 116.5860 25.1886 0.0000 0.0000 0.0000
# 3 10.3201 25.1886 107.5758 0.0000 0.0000 0.0000
# 4 0.0000 0.0000 0.0000 90.9836 0.0000 0.0000
# 5 0.0000 0.0000 0.0000 0.0000 31.6349 0.0000
# 6 0.0000 0.0000 0.0000 0.0000 0.0000 27.2749
#
#
#
# Elastic Compliance Matrix: (Units=1/GPa)
#
#
# Indices 1 2 3 4 5 6 
#
# 1 0.008539 -0.002710 -0.000185 0.000000 0.000000 0.000000
# 2 -0.002710 0.009894 -0.002057 0.000000 0.000000 0.000000
# 3 -0.000185 -0.002057 0.009795 0.000000 0.000000 0.000000
# 4 0.000000 0.000000 0.000000 0.010991 0.000000 0.000000
# 5 0.000000 0.000000 0.000000 0.000000 0.031611 0.000000
# 6 0.000000 0.000000 0.000000 0.000000 0.000000 0.036664
#
#
# Mechanical properties :
#
#
# Convention : Reuss Voigt Hill
#
# Bulk Modulus (GPa) = 54.56720 55.50083 55.03401
# Shear Modulus (GPa) = 40.48388 48.66871 44.57630
#
# Velocity S-wave (km/s) = 4.44701 4.87587 4.66637
# Velocity P-wave (km/s) = 7.28171 7.66878 7.47775
#
# Compressibility (1/GPa) = 0.01832603
#
# Stress axis : x y z
#
# Youngs Moduli (GPa) = 117.10311 101.06696 102.09210
#
# Poissons Ratio (x) = 0.27389 0.01885
# Poissons Ratio (y) = 0.31735 0.20998
# Poissons Ratio (z) = 0.02163 0.20787
#
# Static dielectric constant tensor:
#      x y z
#    x 1.723120 0.000000 0.000000 
#    y 0.000000 1.783610 0.000000 
#    z 0.000000 0.000000 1.564130 
# 
# From -- ./inp_files/27507.got.cif
#   From: 2010.05.17/outbox.cif.g08.bks.cpg/sg21_14_cif.got.tgz:27507.got - 2010.06.03 23:14:55.
