data_PCOD9324937
_publ_section_title
;
Structure prediction by ZEFSAII (Michael W. Deem and Ramdas Pophale) SiO2 
 PCOD9324937
Probable space group: C 2 2 2
;
_chemical_formula_sum "Si O2"
_cell_formula_units_Z 24
_cell_length_a 7.779941
_cell_length_b 15.259803
_cell_length_c 8.556541
_cell_angle_alpha 90.000000
_cell_angle_beta 90.000000
_cell_angle_gamma 90.000000
_cell_volume 1015.835688
_symmetry_space_group_name_H-M "C 2 2 2"
_symmetry_group_IT_number 21
_symmetry_cell_setting 'orthorhombic'
loop_
_space_group_symop_operation_xyz
x,y,z
-x,-y,z
x,-y,-z
-x,y,-z
1/2+x,1/2+y,z
1/2-x,1/2-y,z
1/2+x,1/2-y,-z
1/2-x,1/2+y,-z
loop_
_atom_site_type_symbol
_atom_site_label
_atom_site_fract_x
_atom_site_fract_y
_atom_site_fract_z
Si Si1 0.101676 0.847615 0.709607
Si Si2 0.760033 0.088519 0.400101
Si Si3 0.454478 0.148979 0.179588
O O1 0.185447 0.842357 0.535588
O O2 0.261691 0.887179 0.802841
O O3 0.055462 0.752279 0.776387
O O4 0.930300 0.905121 0.705562
O O5 0.591578 0.108316 0.300077
O O6 0.745915 0.000000 0.500000
O O7 0.500000 0.138481 0.000000
#
# Coordination Sequence:
#
# PCOD9324937 Si02
#       3
#     8   8   8
#     4  10  24  41  74 106 142 197 257 311 362 452
#     4  11  25  46  75 106 145 196 257 310 373 458
#     4  11  26  43  74 112 151 195 251 320 379 442
#
# _framework density 23.625869999999999
#
# number of rings (size 3 to 8) (size 9 to 14) (size 15 to 20)
#    0.000    1.333    0.000    4.000   28.000    4.000 
#    0.000    3.333    7.333    0.000    0.000    0.000 
#    0.000    0.000    0.000    0.000    0.000    0.000 
#
# Total GULP energy -67106.585970 kJ/mol
# GULP energy per Si atom -5592.215498 kJ/mol
# Density = 2.357210 g / cm^3
# Si number density = 23.625870 Si / 1000 Ang^3
#
#
#
# Elastic Constant Matrix: (Units=GPa)
#
#
# Indices 1 2 3 4 5 6 
#
# 1 244.4187 69.6422 82.6455 0.0000 0.0000 0.0000
# 2 69.6422 87.2704 28.4171 0.0000 0.0000 0.0000
# 3 82.6455 28.4171 109.6865 0.0000 0.0000 0.0000
# 4 0.0000 0.0000 0.0000 -24.1237 0.0000 0.0000
# 5 0.0000 0.0000 0.0000 0.0000 42.9067 0.0000
# 6 0.0000 0.0000 0.0000 0.0000 0.0000 29.1571
#
#
#
# Elastic Compliance Matrix: (Units=1/GPa)
#
#
# Indices 1 2 3 4 5 6 
#
# 1 0.006534 -0.003944 -0.003902 0.000000 0.000000 0.000000
# 2 -0.003944 0.014895 -0.000887 0.000000 0.000000 0.000000
# 3 -0.003902 -0.000887 0.012287 0.000000 0.000000 0.000000
# 4 0.000000 0.000000 0.000000 -0.041453 0.000000 0.000000
# 5 0.000000 0.000000 0.000000 0.000000 0.023306 0.000000
# 6 0.000000 0.000000 0.000000 0.000000 0.000000 0.034297
#
#
# Mechanical properties :
#
#
# Convention : Reuss Voigt Hill
#
# Bulk Modulus (GPa) = 61.53836 89.19835 75.36836
# Shear Modulus (GPa) = 68.72985 26.96606 47.84796
#
# Velocity S-wave (km/s) = 5.39945 3.38209 4.50514
# Velocity P-wave (km/s) = 8.06075 7.28614 7.68322
#
# Compressibility (1/GPa) = 0.01625003
#
# Stress axis : x y z
#
# Youngs Moduli (GPa) = 153.03686 67.13722 81.38995
#
# Poissons Ratio (x) = 0.26479 0.31756
# Poissons Ratio (y) = 0.60358 0.07221
# Poissons Ratio (z) = 0.59710 0.05957
#
# Static dielectric constant tensor:
#      x y z
#    x 1.945910 0.000000 0.000000 
#    y 0.000000 1.939870 0.000000 
#    z 0.000000 0.000000 1.926240 
# 
# From -- ./inp_files/9990.got.cif
#   From: 2010.05.17/outbox.cif.g08.bks.cpg/sg21_5_cif.got.tgz:9990.got - 2010.06.03 23:14:55.
