data_PCOD9324270
_publ_section_title
;
Structure prediction by ZEFSAII (Michael W. Deem and Ramdas Pophale) SiO2 
 PCOD9324270
Probable space group: C 2 2 2
;
_chemical_formula_sum "Si O2"
_cell_formula_units_Z 26
_cell_length_a 24.796698
_cell_length_b 7.097188
_cell_length_c 6.340740
_cell_angle_alpha 90.000000
_cell_angle_beta 90.000000
_cell_angle_gamma 90.000000
_cell_volume 1115.886717
_symmetry_space_group_name_H-M "C 2 2 2"
_symmetry_group_IT_number 21
_symmetry_cell_setting 'orthorhombic'
loop_
_space_group_symop_operation_xyz
x,y,z
-x,-y,z
x,-y,-z
-x,y,-z
1/2+x,1/2+y,z
1/2-x,1/2-y,z
1/2+x,1/2-y,-z
1/2-x,1/2+y,-z
loop_
_atom_site_type_symbol
_atom_site_label
_atom_site_fract_x
_atom_site_fract_y
_atom_site_fract_z
Si Si1 0.000000 0.500000 0.500000
Si Si2 0.646875 0.195199 0.128160
Si Si3 0.750000 0.250000 0.850349
Si Si4 0.533909 0.687179 0.799786
Si Si5 0.798559 0.500000 0.500000
O O1 0.034604 0.356350 0.635816
O O2 0.595995 0.332977 0.137877
O O3 0.665099 0.146221 0.367487
O O4 0.697858 0.271473 0.997007
O O5 0.632115 0.000000 0.000000
O O6 0.762499 0.417037 0.687586
O O7 0.500000 0.500000 0.735293
O O8 0.500000 0.755533 0.000000
#
# Coordination Sequence:
#
# PCOD9324270 Si02
#       5
#     2   8   4   8   4
#     4  12  22  44  80 100 148 196 246 308 370 448
#     4  10  21  42  72  99 147 198 244 308 375 441
#     4  10  22  42  70 108 142 194 242 304 376 446
#     4  11  25  46  70 109 147 196 252 304 370 442
#     4  10  21  42  70 107 141 196 243 298 384 438
#
# _framework density 23.299855000000001
#
# number of rings (size 3 to 8) (size 9 to 14) (size 15 to 20)
#    0.000    1.538    0.000    4.615    0.000    2.462 
#   27.692    0.000    0.000    0.000    0.000    0.000 
#    0.000    0.000    0.000    0.000    0.000    0.000 
#
# Total GULP energy -72605.364081 kJ/mol
# GULP energy per Si atom -5585.028006 kJ/mol
# Density = 2.324682 g / cm^3
# Si number density = 23.299855 Si / 1000 Ang^3
#
#
#
# Elastic Constant Matrix: (Units=GPa)
#
#
# Indices 1 2 3 4 5 6 
#
# 1 222.1174 73.9190 84.4148 0.0000 0.0000 0.0000
# 2 73.9190 128.5507 50.1327 0.0000 0.0000 0.0000
# 3 84.4148 50.1327 152.9417 0.0000 0.0000 0.0000
# 4 0.0000 0.0000 0.0000 57.0750 0.0000 0.0000
# 5 0.0000 0.0000 0.0000 0.0000 20.6416 0.0000
# 6 0.0000 0.0000 0.0000 0.0000 0.0000 14.4287
#
#
#
# Elastic Compliance Matrix: (Units=1/GPa)
#
#
# Indices 1 2 3 4 5 6 
#
# 1 0.006392 -0.002637 -0.002664 0.000000 0.000000 0.000000
# 2 -0.002637 0.010007 -0.001825 0.000000 0.000000 0.000000
# 3 -0.002664 -0.001825 0.008607 0.000000 0.000000 0.000000
# 4 0.000000 0.000000 0.000000 0.017521 0.000000 0.000000
# 5 0.000000 0.000000 0.000000 0.000000 0.048446 0.000000
# 6 0.000000 0.000000 0.000000 0.000000 0.000000 0.069306
#
#
# Mechanical properties :
#
#
# Convention : Reuss Voigt Hill
#
# Bulk Modulus (GPa) = 92.97886 102.28254 97.63070
# Shear Modulus (GPa) = 28.07196 38.10530 33.08863
#
# Velocity S-wave (km/s) = 3.47481 4.04843 3.77254
# Velocity P-wave (km/s) = 7.48939 8.11460 7.80826
#
# Compressibility (1/GPa) = 0.01075513
#
# Stress axis : x y z
#
# Youngs Moduli (GPa) = 156.44773 99.93181 116.18719
#
# Poissons Ratio (x) = 0.26349 0.30949
# Poissons Ratio (y) = 0.41250 0.21202
# Poissons Ratio (z) = 0.41673 0.18236
#
# Static dielectric constant tensor:
#      x y z
#    x 1.872640 0.000000 0.000000 
#    y 0.000000 1.950840 0.000000 
#    z 0.000000 0.000000 1.902080 
# 
# From -- ./inp_files/6335.got.cif
#   From: 2010.05.17/outbox.cif.g08.bks.cpg/sg21_4_cif.got.tgz:6335.got - 2010.06.03 23:14:55.
