data_PCOD9324216
_publ_section_title
;
Structure prediction by ZEFSAII (Michael W. Deem and Ramdas Pophale) SiO2 
 PCOD9324216
Probable space group: C 2 2 2
;
_chemical_formula_sum "Si O2"
_cell_formula_units_Z 40
_cell_length_a 27.446987
_cell_length_b 8.304253
_cell_length_c 8.108868
_cell_angle_alpha 90.000000
_cell_angle_beta 90.000000
_cell_angle_gamma 90.000000
_cell_volume 1848.227720
_symmetry_space_group_name_H-M "C 2 2 2"
_symmetry_group_IT_number 21
_symmetry_cell_setting 'orthorhombic'
loop_
_space_group_symop_operation_xyz
x,y,z
-x,-y,z
x,-y,-z
-x,y,-z
1/2+x,1/2+y,z
1/2-x,1/2-y,z
1/2+x,1/2-y,-z
1/2-x,1/2+y,-z
loop_
_atom_site_type_symbol
_atom_site_label
_atom_site_fract_x
_atom_site_fract_y
_atom_site_fract_z
Si Si1 0.605566 0.684980 0.054937
Si Si2 0.987750 0.688100 0.192804
Si Si3 0.193613 0.262681 0.275928
Si Si4 0.084945 0.229947 0.694912
Si Si5 0.359567 0.000000 0.500000
Si Si6 0.148819 0.000000 0.500000
O O1 0.567956 0.754181 0.192491
O O2 0.659094 0.711768 0.125255
O O3 0.595112 0.500000 0.000000
O O4 0.598950 0.778197 0.881941
O O5 0.026629 0.784290 0.301866
O O6 0.000000 0.500000 0.225182
O O7 0.000000 0.718664 0.000000
O O8 0.250000 0.250000 0.233460
O O9 0.174510 0.429609 0.354559
O O10 0.182146 0.136095 0.421538
O O11 0.105045 0.364418 0.572802
O O12 0.113764 0.071684 0.640391
#
# Coordination Sequence:
#
# PCOD9324216 Si02
#       6
#     8   8   8   8   4   4
#     4  11  22  42  68 100 133 170 221 273 324 394
#     4   9  19  36  64  92 125 167 208 255 320 384
#     4  11  23  43  65  94 129 174 222 277 336 385
#     4  10  21  41  66  93 131 172 212 267 324 394
#     4  10  23  42  67  96 130 174 220 278 324 398
#     4  10  21  42  63  92 134 170 218 264 330 394
#
# _framework density 21.642354999999998
#
# number of rings (size 3 to 8) (size 9 to 14) (size 15 to 20)
#    0.000    1.800    2.000    1.800    0.000    6.000 
#    3.600   11.500    0.000    0.000    0.000    0.000 
#    0.000    0.000    0.000    0.000    0.000    0.000 
#
# Total GULP energy -111711.166631 kJ/mol
# GULP energy per Si atom -5585.558332 kJ/mol
# Density = 2.159310 g / cm^3
# Si number density = 21.642355 Si / 1000 Ang^3
#
#
#
# Elastic Constant Matrix: (Units=GPa)
#
#
# Indices 1 2 3 4 5 6 
#
# 1 192.3798 33.6560 38.3241 0.0000 0.0000 0.0000
# 2 33.6560 57.8090 2.1272 0.0000 0.0000 0.0000
# 3 38.3241 2.1272 50.5152 0.0000 0.0000 0.0000
# 4 0.0000 0.0000 0.0000 23.4462 0.0000 0.0000
# 5 0.0000 0.0000 0.0000 0.0000 34.8021 0.0000
# 6 0.0000 0.0000 0.0000 0.0000 0.0000 18.5004
#
#
#
# Elastic Compliance Matrix: (Units=1/GPa)
#
#
# Indices 1 2 3 4 5 6 
#
# 1 0.006872 -0.003815 -0.005053 0.000000 0.000000 0.000000
# 2 -0.003815 0.019443 0.002075 0.000000 0.000000 0.000000
# 3 -0.005053 0.002075 0.023542 0.000000 0.000000 0.000000
# 4 0.000000 0.000000 0.000000 0.042651 0.000000 0.000000
# 5 0.000000 0.000000 0.000000 0.000000 0.028734 0.000000
# 6 0.000000 0.000000 0.000000 0.000000 0.000000 0.054053
#
#
# Mechanical properties :
#
#
# Convention : Reuss Voigt Hill
#
# Bulk Modulus (GPa) = 27.56916 49.87984 38.72450
# Shear Modulus (GPa) = 24.87929 30.45618 27.66773
#
# Velocity S-wave (km/s) = 3.39420 3.75540 3.57936
# Velocity P-wave (km/s) = 5.30349 6.47313 5.91728
#
# Compressibility (1/GPa) = 0.03627241
#
# Stress axis : x y z
#
# Youngs Moduli (GPa) = 145.51696 51.43244 42.47710
#
# Poissons Ratio (x) = 0.19621 0.21463
# Poissons Ratio (y) = 0.55514 -0.08816
# Poissons Ratio (z) = 0.73529 -0.10675
#
# Static dielectric constant tensor:
#      x y z
#    x 1.789130 0.000000 0.000000 
#    y 0.000000 1.858790 0.000000 
#    z 0.000000 0.000000 1.800570 
# 
# From -- ./inp_files/18984.got.cif
#   From: 2010.05.17/outbox.cif.g08.bks.cpg/sg21_10_cif.got.tgz:18984.got - 2010.06.03 23:14:55.
