data_PCOD9324894
_publ_section_title
;
Structure prediction by ZEFSAII (Michael W. Deem and Ramdas Pophale) SiO2 
 PCOD9324894
Probable space group: C 2 2 2
;
_chemical_formula_sum "Si O2"
_cell_formula_units_Z 32
_cell_length_a 9.715840
_cell_length_b 10.081374
_cell_length_c 12.981690
_cell_angle_alpha 90.000000
_cell_angle_beta 90.000000
_cell_angle_gamma 90.000000
_cell_volume 1271.543771
_symmetry_space_group_name_H-M "C 2 2 2"
_symmetry_group_IT_number 21
_symmetry_cell_setting 'orthorhombic'
loop_
_space_group_symop_operation_xyz
x,y,z
-x,-y,z
x,-y,-z
-x,y,-z
1/2+x,1/2+y,z
1/2-x,1/2-y,z
1/2+x,1/2-y,-z
1/2-x,1/2+y,-z
loop_
_atom_site_type_symbol
_atom_site_label
_atom_site_fract_x
_atom_site_fract_y
_atom_site_fract_z
Si Si1 0.188760 0.535265 0.750000
Si Si2 0.973934 0.200373 0.750000
Si Si3 0.187941 0.881344 0.074974
Si Si4 0.312059 0.381344 0.574975
O O1 0.074553 0.647747 0.750000
O O2 0.336192 0.612128 0.750001
O O3 0.195984 0.442634 0.849798
O O4 0.195985 0.442633 0.650203
O O5 0.064790 0.163263 0.849774
O O6 0.064789 0.163263 0.650226
O O7 0.250000 0.750000 0.021692
O O8 0.151047 0.000000 0.000000
O O9 0.348953 0.500000 0.500000
O O10 0.250000 0.250000 0.521693
#
# Coordination Sequence:
#
# PCOD9324894 Si02
#       4
#     8   8   8   8
#     4  10  23  46  73 109 135 192 250 288 365 431
#     4  10  23  46  78  98 145 192 237 303 360 426
#     4  11  25  45  71 108 147 189 243 298 355 434
#     4  11  25  45  71 108 147 189 243 298 355 434
#
# _framework density 25.166260000000001
#
# number of rings (size 3 to 8) (size 9 to 14) (size 15 to 20)
#    0.000    1.500    0.000    6.000    7.000    8.000 
#    0.000    2.500    0.000    0.000    0.000    0.000 
#    0.000    0.000    0.000    0.000    0.000    0.000 
#
# Total GULP energy -89771.583025 kJ/mol
# GULP energy per Si atom -5610.723939 kJ/mol
# Density = 2.510898 g / cm^3
# Si number density = 25.166260 Si / 1000 Ang^3
#
#
#
# Elastic Constant Matrix: (Units=GPa)
#
#
# Indices 1 2 3 4 5 6 
#
# 1 142.4078 84.5056 49.7801 0.0000 0.0000 0.0000
# 2 84.5056 239.9470 73.3164 0.0000 0.0000 0.0000
# 3 49.7801 73.3164 98.3670 0.0000 0.0000 0.0000
# 4 0.0000 0.0000 0.0000 49.1104 0.0000 0.0000
# 5 0.0000 0.0000 0.0000 0.0000 -0.6201 0.0000
# 6 0.0000 0.0000 0.0000 0.0000 0.0000 55.5541
#
#
#
# Elastic Compliance Matrix: (Units=1/GPa)
#
#
# Indices 1 2 3 4 5 6 
#
# 1 0.009516 -0.002434 -0.003001 0.000000 0.000000 0.000000
# 2 -0.002434 0.006019 -0.003255 0.000000 0.000000 0.000000
# 3 -0.003001 -0.003255 0.014111 0.000000 0.000000 0.000000
# 4 0.000000 0.000000 0.000000 0.020362 0.000000 0.000000
# 5 0.000000 0.000000 0.000000 0.000000 -1.612619 0.000000
# 6 0.000000 0.000000 0.000000 0.000000 0.000000 0.018000
#
#
# Mechanical properties :
#
#
# Convention : Reuss Voigt Hill
#
# Bulk Modulus (GPa) = 81.52914 99.54733 90.53823
# Shear Modulus (GPa) = -3.28269 39.01685 17.86708
#
# Velocity S-wave (km/s) = -1.14334 3.94174 2.66740
# Velocity P-wave (km/s) = 5.54288 7.76905 6.74840
#
# Compressibility (1/GPa) = 0.01226555
#
# Stress axis : x y z
#
# Youngs Moduli (GPa) = 105.08959 166.13180 70.86894
#
# Poissons Ratio (x) = 0.40440 0.21269
# Poissons Ratio (y) = 0.25581 0.23064
# Poissons Ratio (z) = 0.31540 0.54068
#
# Static dielectric constant tensor:
#      x y z
#    x 2.002720 0.000000 0.000000 
#    y 0.000000 1.992050 0.000000 
#    z 0.000000 0.000000 1.979510 
# 
# From -- ./inp_files/31169.got.cif
#   From: 2010.05.17/outbox.cif.g08.bks.cpg/sg21_16_cif.got.tgz:31169.got - 2010.06.03 23:14:55.
