data_PCOD9324383
_publ_section_title
;
Structure prediction by ZEFSAII (Michael W. Deem and Ramdas Pophale) SiO2 
 PCOD9324383
Probable space group: C 2 2 2
;
_chemical_formula_sum "Si O2"
_cell_formula_units_Z 48
_cell_length_a 14.231927
_cell_length_b 28.261183
_cell_length_c 5.262214
_cell_angle_alpha 90.000000
_cell_angle_beta 90.000000
_cell_angle_gamma 90.000000
_cell_volume 2116.520847
_symmetry_space_group_name_H-M "C 2 2 2"
_symmetry_group_IT_number 21
_symmetry_cell_setting 'orthorhombic'
loop_
_space_group_symop_operation_xyz
x,y,z
-x,-y,z
x,-y,-z
-x,y,-z
1/2+x,1/2+y,z
1/2-x,1/2-y,z
1/2+x,1/2-y,-z
1/2-x,1/2+y,-z
loop_
_atom_site_type_symbol
_atom_site_label
_atom_site_fract_x
_atom_site_fract_y
_atom_site_fract_z
Si Si1 0.500000 0.742219 0.000000
Si Si2 0.857693 0.693240 0.259328
Si Si3 0.317582 0.625321 0.763079
Si Si4 0.750000 0.250000 0.354285
Si Si5 0.803531 0.529706 0.237433
Si Si6 0.885393 0.168271 0.252702
Si Si7 0.000000 0.566494 0.000000
Si Si8 0.000000 0.619945 0.500000
O O1 0.587172 0.777415 0.046689
O O2 0.470782 0.705107 0.217455
O O3 0.763147 0.665076 0.211062
O O4 0.833389 0.732071 0.466762
O O5 0.924424 0.653613 0.373159
O O6 0.261001 0.576201 0.732363
O O7 0.375454 0.639685 0.512935
O O8 0.378237 0.631803 0.017676
O O9 0.794608 0.203674 0.230572
O O10 0.808438 0.500000 0.500000
O O11 0.909912 0.542869 0.141049
O O12 0.763947 0.500000 0.000000
O O13 0.041490 0.592732 0.252293
#
# Coordination Sequence:
#
# PCOD9324383 Si02
#       8
#     4   8   8   4   8   8   4   4
#     4  12  23  42  65 106 136 186 236 291 324 385
#     4  11  23  38  62  89 136 180 230 268 325 389
#     4  11  25  44  66  93 131 182 218 273 344 403
#     4  10  22  38  58  92 132 184 230 284 324 380
#     4  12  26  46  70  99 134 174 229 286 345 414
#     4  11  24  41  65  92 135 173 228 275 333 394
#     4  12  26  42  65  94 132 174 216 267 336 389
#     4  12  24  38  61  92 128 184 224 264 313 408
#
# _framework density 22.678726999999999
#
# number of rings (size 3 to 8) (size 9 to 14) (size 15 to 20)
#    0.000    0.667    1.667    6.750    4.667    3.333 
#    0.000    0.000    0.000    0.000    0.000    8.750 
#    0.000    0.000    0.000    0.000    0.000    0.000 
#
# Total GULP energy -134002.240079 kJ/mol
# GULP energy per Si atom -5583.426670 kJ/mol
# Density = 2.262711 g / cm^3
# Si number density = 22.678727 Si / 1000 Ang^3
#
#
#
# Elastic Constant Matrix: (Units=GPa)
#
#
# Indices 1 2 3 4 5 6 
#
# 1 30.4065 16.9702 23.0046 0.0000 0.0000 0.0000
# 2 16.9702 121.4766 85.2340 0.0000 0.0000 0.0000
# 3 23.0046 85.2340 179.2096 0.0000 0.0000 0.0000
# 4 0.0000 0.0000 0.0000 48.9245 0.0000 0.0000
# 5 0.0000 0.0000 0.0000 0.0000 34.8787 0.0000
# 6 0.0000 0.0000 0.0000 0.0000 0.0000 25.4816
#
#
#
# Elastic Compliance Matrix: (Units=1/GPa)
#
#
# Indices 1 2 3 4 5 6 
#
# 1 0.037031 -0.002758 -0.003442 0.000000 0.000000 0.000000
# 2 -0.002758 0.012561 -0.005620 0.000000 0.000000 0.000000
# 3 -0.003442 -0.005620 0.008695 0.000000 0.000000 0.000000
# 4 0.000000 0.000000 0.000000 0.020440 0.000000 0.000000
# 5 0.000000 0.000000 0.000000 0.000000 0.028671 0.000000
# 6 0.000000 0.000000 0.000000 0.000000 0.000000 0.039244
#
#
# Mechanical properties :
#
#
# Convention : Reuss Voigt Hill
#
# Bulk Modulus (GPa) = 28.86290 64.61225 46.73757
# Shear Modulus (GPa) = 27.49833 35.58258 31.54045
#
# Velocity S-wave (km/s) = 3.48590 3.96534 3.73332
# Velocity P-wave (km/s) = 5.38112 7.03685 6.26394
#
# Compressibility (1/GPa) = 0.03464656
#
# Stress axis : x y z
#
# Youngs Moduli (GPa) = 27.00437 79.61445 115.01250
#
# Poissons Ratio (x) = 0.21961 0.39583
# Poissons Ratio (y) = 0.07449 0.64635
# Poissons Ratio (z) = 0.09294 0.44742
#
# Static dielectric constant tensor:
#      x y z
#    x 1.844240 0.000000 0.000000 
#    y 0.000000 1.852570 0.000000 
#    z 0.000000 0.000000 1.825290 
# 
# From -- ./inp_files/4182.got.cif
#   From: 2010.05.17/outbox.cif.g08.bks.cpg/sg21_3_cif.got.tgz:4182.got - 2010.06.03 23:14:55.
