data_PCOD9324312
_publ_section_title
;
Structure prediction by ZEFSAII (Michael W. Deem and Ramdas Pophale) SiO2 
 PCOD9324312
Probable space group: C 2 2 2
;
_chemical_formula_sum "Si O2"
_cell_formula_units_Z 64
_cell_length_a 11.398288
_cell_length_b 31.329777
_cell_length_c 8.030575
_cell_angle_alpha 90.000000
_cell_angle_beta 90.000000
_cell_angle_gamma 90.000000
_cell_volume 2867.765080
_symmetry_space_group_name_H-M "C 2 2 2"
_symmetry_group_IT_number 21
_symmetry_cell_setting 'orthorhombic'
loop_
_space_group_symop_operation_xyz
x,y,z
-x,-y,z
x,-y,-z
-x,y,-z
1/2+x,1/2+y,z
1/2-x,1/2-y,z
1/2+x,1/2-y,-z
1/2-x,1/2+y,-z
loop_
_atom_site_type_symbol
_atom_site_label
_atom_site_fract_x
_atom_site_fract_y
_atom_site_fract_z
Si Si1 0.234972 0.200513 0.619627
Si Si2 0.655209 0.299622 0.768916
Si Si3 0.539007 0.454562 0.805906
Si Si4 0.535453 0.057781 0.191099
Si Si5 0.530658 0.362665 0.305290
Si Si6 0.402833 0.208026 0.139410
Si Si7 0.697810 0.983188 0.193430
Si Si8 0.460347 0.143511 0.670250
O O1 0.250000 0.250000 0.674545
O O2 0.200006 0.201546 0.422944
O O3 0.141274 0.169378 0.711004
O O4 0.357641 0.176877 0.642055
O O5 0.575073 0.340405 0.794792
O O6 0.584133 0.255723 0.790476
O O7 0.765052 0.297610 0.894172
O O8 0.500000 0.500000 0.731471
O O9 0.473259 0.412753 0.736314
O O10 0.679784 0.458332 0.779511
O O11 0.500000 0.454834 0.000000
O O12 0.405220 0.048374 0.259210
O O13 0.572440 0.106403 0.203763
O O14 0.639200 0.027789 0.260332
O O15 0.500000 0.047229 0.000000
O O16 0.500000 0.359880 0.500000
O O17 0.431036 0.170988 0.268311
O O18 0.500000 0.202274 0.000000
O O19 0.712074 0.000000 0.000000
O O20 0.500000 0.121631 0.500000
#
# Coordination Sequence:
#
# PCOD9324312 Si02
#       8
#     8   8   8   8   8   8   8   8
#     4  11  21  42  70  96 133 187 229 278 339 434
#     4  10  21  46  67  89 138 174 221 277 349 409
#     4  11  23  40  66  94 132 177 229 287 349 414
#     4   9  21  37  65  95 124 167 220 282 337 412
#     4  10  25  42  67  97 133 181 228 271 352 416
#     4  11  23  42  66  96 129 174 223 281 340 401
#     4   9  18  40  64  88 127 172 218 273 350 406
#     4  12  23  38  65  98 136 169 226 274 351 414
#
# _framework density 22.317032000000001
#
# number of rings (size 3 to 8) (size 9 to 14) (size 15 to 20)
#    0.000    1.625    3.750    1.875    3.500    1.750 
#    9.000    1.250    2.750    0.000    0.000    0.000 
#    0.000    0.000    0.000    0.000    0.000    0.000 
#
# Total GULP energy -178144.221224 kJ/mol
# GULP energy per Si atom -5567.006913 kJ/mol
# Density = 2.226624 g / cm^3
# Si number density = 22.317032 Si / 1000 Ang^3
#
#
#
# Elastic Constant Matrix: (Units=GPa)
#
#
# Indices 1 2 3 4 5 6 
#
# 1 71.5699 34.1270 7.5725 0.0000 0.0000 0.0000
# 2 34.1270 144.5651 11.8780 0.0000 0.0000 0.0000
# 3 7.5725 11.8780 21.5587 0.0000 0.0000 0.0000
# 4 0.0000 0.0000 0.0000 53.9796 0.0000 0.0000
# 5 0.0000 0.0000 0.0000 0.0000 24.1622 0.0000
# 6 0.0000 0.0000 0.0000 0.0000 0.0000 20.2340
#
#
#
# Elastic Compliance Matrix: (Units=1/GPa)
#
#
# Indices 1 2 3 4 5 6 
#
# 1 0.016023 -0.003478 -0.003712 0.000000 0.000000 0.000000
# 2 -0.003478 0.008000 -0.003186 0.000000 0.000000 0.000000
# 3 -0.003712 -0.003186 0.049444 0.000000 0.000000 0.000000
# 4 0.000000 0.000000 0.000000 0.018525 0.000000 0.000000
# 5 0.000000 0.000000 0.000000 0.000000 0.041387 0.000000
# 6 0.000000 0.000000 0.000000 0.000000 0.000000 0.049422
#
#
# Mechanical properties :
#
#
# Convention : Reuss Voigt Hill
#
# Bulk Modulus (GPa) = 18.96967 38.31652 28.64310
# Shear Modulus (GPa) = 22.61156 31.94957 27.28057
#
# Velocity S-wave (km/s) = 3.18653 3.78778 3.50009
# Velocity P-wave (km/s) = 4.69651 6.02795 5.40340
#
# Compressibility (1/GPa) = 0.05271574
#
# Stress axis : x y z
#
# Youngs Moduli (GPa) = 62.40889 124.99958 20.22480
#
# Poissons Ratio (x) = 0.43470 0.07508
# Poissons Ratio (y) = 0.21703 0.06444
# Poissons Ratio (z) = 0.23167 0.39827
#
# Static dielectric constant tensor:
#      x y z
#    x 1.871770 0.000000 0.000000 
#    y 0.000000 1.814300 0.000000 
#    z 0.000000 0.000000 1.978970 
# 
# From -- ./inp_files/13685.got.cif
#   From: 2010.05.17/outbox.cif.g08.bks.cpg/sg21_7_cif.got.tgz:13685.got - 2010.06.03 23:14:55.
