data_PCOD9324400
_publ_section_title
;
Structure prediction by ZEFSAII (Michael W. Deem and Ramdas Pophale) SiO2 
 PCOD9324400
Probable space group: C 2 2 2
;
_chemical_formula_sum "Si O2"
_cell_formula_units_Z 56
_cell_length_a 15.515742
_cell_length_b 11.515368
_cell_length_c 14.803536
_cell_angle_alpha 90.000000
_cell_angle_beta 90.000000
_cell_angle_gamma 90.000000
_cell_volume 2644.940063
_symmetry_space_group_name_H-M "C 2 2 2"
_symmetry_group_IT_number 21
_symmetry_cell_setting 'orthorhombic'
loop_
_space_group_symop_operation_xyz
x,y,z
-x,-y,z
x,-y,-z
-x,y,-z
1/2+x,1/2+y,z
1/2-x,1/2-y,z
1/2+x,1/2-y,-z
1/2-x,1/2+y,-z
loop_
_atom_site_type_symbol
_atom_site_label
_atom_site_fract_x
_atom_site_fract_y
_atom_site_fract_z
Si Si1 0.452844 0.123099 0.297483
Si Si2 0.699539 0.139276 0.838735
Si Si3 0.118437 0.287865 0.783710
Si Si4 0.341255 0.387301 0.543600
Si Si5 0.144800 0.364864 0.481222
Si Si6 0.595365 0.863180 0.986123
Si Si7 0.280229 0.574650 0.255226
O O1 0.389117 0.113748 0.213059
O O2 0.528229 0.209464 0.267094
O O3 0.394779 0.157248 0.382486
O O4 0.500000 0.000000 0.312841
O O5 0.750000 0.250000 0.802401
O O6 0.668778 0.167376 0.940858
O O7 0.760565 0.033356 0.808849
O O8 0.188304 0.362234 0.727953
O O9 0.157539 0.161764 0.796476
O O10 0.116309 0.343081 0.882303
O O11 0.387285 0.500000 0.500000
O O12 0.248388 0.374329 0.492219
O O13 0.378878 0.254885 0.536528
O O14 0.321031 0.570471 0.354633
O O15 0.115039 0.500000 0.500000
O O16 0.500000 0.809370 0.000000
O O17 0.587664 0.000000 0.000000
#
# Coordination Sequence:
#
# PCOD9324400 Si02
#       7
#     8   8   8   8   8   8   8
#     4  12  24  41  66 104 138 176 233 301 353 406
#     4  12  26  41  72 105 139 185 239 291 348 440
#     4  11  23  42  68  97 139 180 224 290 352 426
#     4  10  22  42  65  96 141 190 224 298 369 423
#     4  10  22  38  63 100 135 176 238 295 351 425
#     4  11  21  41  66 103 141 177 226 292 359 404
#     4  11  24  44  68  98 138 186 235 280 362 432
#
# _framework density 21.172502999999999
#
# number of rings (size 3 to 8) (size 9 to 14) (size 15 to 20)
#    0.000    1.000    4.286    3.429    8.000    0.286 
#    0.000    0.714    0.000    1.714    0.000    0.000 
#    0.000    0.000    0.000    0.000    0.000    0.000 
#
# Total GULP energy -156076.770276 kJ/mol
# GULP energy per Si atom -5574.170367 kJ/mol
# Density = 2.112431 g / cm^3
# Si number density = 21.172503 Si / 1000 Ang^3
#
#
#
# Elastic Constant Matrix: (Units=GPa)
#
#
# Indices 1 2 3 4 5 6 
#
# 1 52.2973 27.5689 24.2950 0.0000 0.0000 0.0000
# 2 27.5689 120.2143 14.5619 0.0000 0.0000 0.0000
# 3 24.2950 14.5619 115.0713 0.0000 0.0000 0.0000
# 4 0.0000 0.0000 0.0000 16.6290 0.0000 0.0000
# 5 0.0000 0.0000 0.0000 0.0000 73.9995 0.0000
# 6 0.0000 0.0000 0.0000 0.0000 0.0000 12.0096
#
#
#
# Elastic Compliance Matrix: (Units=1/GPa)
#
#
# Indices 1 2 3 4 5 6 
#
# 1 0.023753 -0.004915 -0.004393 0.000000 0.000000 0.000000
# 2 -0.004915 0.009465 -0.000160 0.000000 0.000000 0.000000
# 3 -0.004393 -0.000160 0.009638 0.000000 0.000000 0.000000
# 4 0.000000 0.000000 0.000000 0.060136 0.000000 0.000000
# 5 0.000000 0.000000 0.000000 0.000000 0.013514 0.000000
# 6 0.000000 0.000000 0.000000 0.000000 0.000000 0.083267
#
#
# Mechanical properties :
#
#
# Convention : Reuss Voigt Hill
#
# Bulk Modulus (GPa) = 41.80628 46.71496 44.26062
# Shear Modulus (GPa) = 22.05723 35.27140 28.66431
#
# Velocity S-wave (km/s) = 3.23117 4.08598 3.68346
# Velocity P-wave (km/s) = 5.80595 6.66124 6.24825
#
# Compressibility (1/GPa) = 0.02391985
#
# Stress axis : x y z
#
# Youngs Moduli (GPa) = 42.09925 105.65138 103.75577
#
# Poissons Ratio (x) = 0.51930 0.45580
# Poissons Ratio (y) = 0.20693 0.01660
# Poissons Ratio (z) = 0.18494 0.01691
#
# Static dielectric constant tensor:
#      x y z
#    x 1.787070 0.000000 0.000000 
#    y 0.000000 1.694690 0.000000 
#    z 0.000000 0.000000 1.821210 
# 
# From -- ./inp_files/32327.got.cif
#   From: 2010.05.17/outbox.cif.g08.bks.cpg/sg21_17_cif.got.tgz:32327.got - 2010.06.03 23:14:55.
