data_PCOD9324393
_publ_section_title
;
Structure prediction by ZEFSAII (Michael W. Deem and Ramdas Pophale) SiO2 
 PCOD9324393
Probable space group: C 2 2 2
;
_chemical_formula_sum "Si O2"
_cell_formula_units_Z 30
_cell_length_a 8.851698
_cell_length_b 13.061759
_cell_length_c 13.543600
_cell_angle_alpha 90.000000
_cell_angle_beta 90.000000
_cell_angle_gamma 90.000000
_cell_volume 1565.894049
_symmetry_space_group_name_H-M "C 2 2 2"
_symmetry_group_IT_number 21
_symmetry_cell_setting 'orthorhombic'
loop_
_space_group_symop_operation_xyz
x,y,z
-x,-y,z
x,-y,-z
-x,y,-z
1/2+x,1/2+y,z
1/2-x,1/2-y,z
1/2+x,1/2-y,-z
1/2-x,1/2+y,-z
loop_
_atom_site_type_symbol
_atom_site_label
_atom_site_fract_x
_atom_site_fract_y
_atom_site_fract_z
Si Si1 0.748657 0.500000 0.500000
Si Si2 0.000000 0.000000 0.000000
Si Si3 0.589775 0.304024 0.094298
Si Si4 0.929372 0.275210 0.297444
Si Si5 0.500000 0.000000 0.334166
Si Si6 0.000000 0.174984 0.500000
O O1 0.643300 0.599544 0.508597
O O2 0.855679 0.512608 0.405688
O O3 0.902896 0.924053 0.932112
O O4 0.750000 0.250000 0.098097
O O5 0.516144 0.286772 0.201182
O O6 0.500000 0.260280 0.000000
O O7 0.750000 0.250000 0.308287
O O8 0.003964 0.242323 0.400907
O O9 0.964955 0.394504 0.278272
#
# Coordination Sequence:
#
# PCOD9324393 Si02
#       6
#     4   2   8   8   4   4
#     4  10  22  38  62  88 130 176 220 252 320 386
#     4   8  20  44  70  92 128 164 202 284 314 386
#     4   9  21  47  67  95 127 167 215 270 323 381
#     4  11  23  42  64  91 136 170 216 269 319 387
#     4  11  22  40  59  92 126 174 211 267 318 370
#     4  11  22  39  60  96 130 173 214 261 320 388
#
# _framework density 19.158384000000002
#
# number of rings (size 3 to 8) (size 9 to 14) (size 15 to 20)
#    0.800    1.067    2.667    1.600    0.000    2.133 
#   14.400    0.000    0.000    0.000    0.000    0.000 
#    0.000    0.000    0.000    0.000    0.000    0.000 
#
# Total GULP energy -83588.038922 kJ/mol
# GULP energy per Si atom -5572.535928 kJ/mol
# Density = 1.911478 g / cm^3
# Si number density = 19.158384 Si / 1000 Ang^3
#
#
#
# Elastic Constant Matrix: (Units=GPa)
#
#
# Indices 1 2 3 4 5 6 
#
# 1 57.4307 23.2519 11.4119 0.0000 0.0000 0.0000
# 2 23.2519 147.7106 46.2006 0.0000 0.0000 0.0000
# 3 11.4119 46.2006 141.3854 0.0000 0.0000 0.0000
# 4 0.0000 0.0000 0.0000 103.0059 0.0000 0.0000
# 5 0.0000 0.0000 0.0000 0.0000 4.9397 0.0000
# 6 0.0000 0.0000 0.0000 0.0000 0.0000 21.9864
#
#
#
# Elastic Compliance Matrix: (Units=1/GPa)
#
#
# Indices 1 2 3 4 5 6 
#
# 1 0.018644 -0.002745 -0.000608 0.000000 0.000000 0.000000
# 2 -0.002745 0.007945 -0.002375 0.000000 0.000000 0.000000
# 3 -0.000608 -0.002375 0.007898 0.000000 0.000000 0.000000
# 4 0.000000 0.000000 0.000000 0.009708 0.000000 0.000000
# 5 0.000000 0.000000 0.000000 0.000000 0.202442 0.000000
# 6 0.000000 0.000000 0.000000 0.000000 0.000000 0.045483
#
#
# Mechanical properties :
#
#
# Convention : Reuss Voigt Hill
#
# Bulk Modulus (GPa) = 43.41704 56.47282 49.94493
# Shear Modulus (GPa) = 16.06415 43.69721 29.88068
#
# Velocity S-wave (km/s) = 2.89881 4.78100 3.95355
# Velocity P-wave (km/s) = 5.82370 7.74713 6.85323
#
# Compressibility (1/GPa) = 0.02303243
#
# Stress axis : x y z
#
# Youngs Moduli (GPa) = 53.63548 125.86884 126.61623
#
# Poissons Ratio (x) = 0.34548 0.07698
# Poissons Ratio (y) = 0.14722 0.30066
# Poissons Ratio (z) = 0.03261 0.29889
#
# Static dielectric constant tensor:
#      x y z
#    x 1.630480 0.000000 0.000000 
#    y 0.000000 1.684850 0.000000 
#    z 0.000000 0.000000 1.694210 
# 
# From -- ./inp_files/29887.got.cif
#   From: 2010.05.17/outbox.cif.g08.bks.cpg/sg21_15_cif.got.tgz:29887.got - 2010.06.03 23:14:55.
