data_PCOD9324637
_publ_section_title
;
Structure prediction by ZEFSAII (Michael W. Deem and Ramdas Pophale) SiO2 
 PCOD9324637
Probable space group: C 2 2 2
;
_chemical_formula_sum "Si O2"
_cell_formula_units_Z 40
_cell_length_a 11.438428
_cell_length_b 15.189568
_cell_length_c 10.234241
_cell_angle_alpha 90.000000
_cell_angle_beta 90.000000
_cell_angle_gamma 90.000000
_cell_volume 1778.145950
_symmetry_space_group_name_H-M "C 2 2 2"
_symmetry_group_IT_number 21
_symmetry_cell_setting 'orthorhombic'
loop_
_space_group_symop_operation_xyz
x,y,z
-x,-y,z
x,-y,-z
-x,y,-z
1/2+x,1/2+y,z
1/2-x,1/2-y,z
1/2+x,1/2-y,-z
1/2-x,1/2+y,-z
loop_
_atom_site_type_symbol
_atom_site_label
_atom_site_fract_x
_atom_site_fract_y
_atom_site_fract_z
Si Si1 0.372382 0.196925 0.034411
Si Si2 0.120923 0.284979 0.521422
Si Si3 0.865696 0.003037 0.343221
Si Si4 0.173208 0.609699 0.235941
Si Si5 0.852961 0.586399 0.290294
O O1 0.250000 0.250000 0.047516
O O2 0.344954 0.131527 0.913701
O O3 0.500000 0.240033 0.000000
O O4 0.391394 0.143410 0.167812
O O5 0.250000 0.250000 0.487738
O O6 0.127173 0.314023 0.671327
O O7 0.109795 0.368910 0.424735
O O8 0.000000 0.231173 0.500000
O O9 0.806438 0.089827 0.281015
O O10 0.849481 0.000000 0.500000
O O11 0.789269 0.921911 0.289387
O O12 0.000000 0.000000 0.311579
O O13 0.117285 0.516408 0.275355
#
# Coordination Sequence:
#
# PCOD9324637 Si02
#       5
#     8   8   8   8   8
#     4  12  27  45  66  94 138 181 218 275 337 399
#     4  12  25  41  64  96 134 173 214 269 329 391
#     4   9  18  37  66 101 135 165 208 271 335 386
#     4  10  22  43  66 100 124 167 228 275 324 382
#     4  10  22  43  66 100 124 167 228 275 324 382
#
# _framework density 22.495342000000001
#
# number of rings (size 3 to 8) (size 9 to 14) (size 15 to 20)
#    1.200    0.200    2.000    3.600    0.000    8.000 
#    0.000    1.000    0.000    0.000    0.000    0.000 
#    0.000    0.000    0.000    0.000    0.000    0.000 
#
# Total GULP energy -111540.945927 kJ/mol
# GULP energy per Si atom -5577.047296 kJ/mol
# Density = 2.244414 g / cm^3
# Si number density = 22.495342 Si / 1000 Ang^3
#
#
#
# Elastic Constant Matrix: (Units=GPa)
#
#
# Indices 1 2 3 4 5 6 
#
# 1 190.1199 14.6478 6.9420 0.0000 0.0000 0.0000
# 2 14.6478 44.3238 13.5280 0.0000 0.0000 0.0000
# 3 6.9420 13.5280 98.7660 0.0000 0.0000 0.0000
# 4 0.0000 0.0000 0.0000 25.3983 0.0000 0.0000
# 5 0.0000 0.0000 0.0000 0.0000 27.6119 0.0000
# 6 0.0000 0.0000 0.0000 0.0000 0.0000 18.4666
#
#
#
# Elastic Compliance Matrix: (Units=1/GPa)
#
#
# Indices 1 2 3 4 5 6 
#
# 1 0.005399 -0.001741 -0.000141 0.000000 0.000000 0.000000
# 2 -0.001741 0.024107 -0.003180 0.000000 0.000000 0.000000
# 3 -0.000141 -0.003180 0.010570 0.000000 0.000000 0.000000
# 4 0.000000 0.000000 0.000000 0.039373 0.000000 0.000000
# 5 0.000000 0.000000 0.000000 0.000000 0.036216 0.000000
# 6 0.000000 0.000000 0.000000 0.000000 0.000000 0.054152
#
#
# Mechanical properties :
#
#
# Convention : Reuss Voigt Hill
#
# Bulk Modulus (GPa) = 33.38562 44.82727 39.10644
# Shear Modulus (GPa) = 26.32612 34.16815 30.24713
#
# Velocity S-wave (km/s) = 3.42466 3.90153 3.67085
# Velocity P-wave (km/s) = 5.52369 6.34559 5.94885
#
# Compressibility (1/GPa) = 0.02995301
#
# Stress axis : x y z
#
# Youngs Moduli (GPa) = 185.21467 41.48149 94.60419
#
# Poissons Ratio (x) = 0.07223 0.01334
# Poissons Ratio (y) = 0.32250 0.30080
# Poissons Ratio (z) = 0.02611 0.13189
#
# Static dielectric constant tensor:
#      x y z
#    x 2.003830 0.000000 0.000000 
#    y 0.000000 1.858860 0.000000 
#    z 0.000000 0.000000 1.745300 
# 
# From -- ./inp_files/23801.got.cif
#   From: 2010.05.17/outbox.cif.g08.bks.cpg/sg21_12_cif.got.tgz:23801.got - 2010.06.03 23:14:55.
