data_PCOD9324348
_publ_section_title
;
Structure prediction by ZEFSAII (Michael W. Deem and Ramdas Pophale) SiO2 
 PCOD9324348
Probable space group: C 2 2 2
;
_chemical_formula_sum "Si O2"
_cell_formula_units_Z 24
_cell_length_a 19.687728
_cell_length_b 5.287981
_cell_length_c 10.633744
_cell_angle_alpha 90.000000
_cell_angle_beta 90.000000
_cell_angle_gamma 90.000000
_cell_volume 1107.061346
_symmetry_space_group_name_H-M "C 2 2 2"
_symmetry_group_IT_number 21
_symmetry_cell_setting 'orthorhombic'
loop_
_space_group_symop_operation_xyz
x,y,z
-x,-y,z
x,-y,-z
-x,y,-z
1/2+x,1/2+y,z
1/2-x,1/2-y,z
1/2+x,1/2-y,-z
1/2-x,1/2+y,-z
loop_
_atom_site_type_symbol
_atom_site_label
_atom_site_fract_x
_atom_site_fract_y
_atom_site_fract_z
Si Si1 0.897113 0.165048 0.373857
Si Si2 0.500000 0.000000 0.750769
Si Si3 0.077951 0.106225 0.130228
Si Si4 0.793151 0.500000 0.500000
O O1 0.842730 0.387449 0.393866
O O2 0.969051 0.292223 0.341960
O O3 0.898137 0.000000 0.500000
O O4 0.882690 0.998335 0.250917
O O5 0.560459 0.101628 0.840313
O O6 0.000000 0.000000 0.131196
O O7 0.106906 0.000000 0.000000
O O8 0.750000 0.250000 0.537506
#
# Coordination Sequence:
#
# PCOD9324348 Si02
#       4
#     8   4   8   4
#     4  11  23  39  62 100 128 169 212 270 322 387
#     4  10  22  36  64  98 140 166 212 256 336 382
#     4   9  20  36  57  93 136 174 204 250 319 396
#     4  12  26  45  66  93 126 168 224 276 328 376
#
# _framework density 21.679017000000002
#
# number of rings (size 3 to 8) (size 9 to 14) (size 15 to 20)
#    0.000    1.667    1.667    2.000    0.000   26.667 
#    0.000    0.000    0.000    0.000   17.333    0.000 
#    0.000    0.000    0.000    0.000    0.000    0.000 
#
# Total GULP energy -66890.236372 kJ/mol
# GULP energy per Si atom -5574.186364 kJ/mol
# Density = 2.162967 g / cm^3
# Si number density = 21.679017 Si / 1000 Ang^3
#
#
#
# Elastic Constant Matrix: (Units=GPa)
#
#
# Indices 1 2 3 4 5 6 
#
# 1 36.7385 27.9265 36.4177 0.0000 0.0000 0.0000
# 2 27.9265 127.0541 76.2284 0.0000 0.0000 0.0000
# 3 36.4177 76.2284 205.8380 0.0000 0.0000 0.0000
# 4 0.0000 0.0000 0.0000 19.6314 0.0000 0.0000
# 5 0.0000 0.0000 0.0000 0.0000 2.3711 0.0000
# 6 0.0000 0.0000 0.0000 0.0000 0.0000 48.1551
#
#
#
# Elastic Compliance Matrix: (Units=1/GPa)
#
#
# Indices 1 2 3 4 5 6 
#
# 1 0.035479 -0.005184 -0.004357 0.000000 0.000000 0.000000
# 2 -0.005184 0.010876 -0.003111 0.000000 0.000000 0.000000
# 3 -0.004357 -0.003111 0.006781 0.000000 0.000000 0.000000
# 4 0.000000 0.000000 0.000000 0.050939 0.000000 0.000000
# 5 0.000000 0.000000 0.000000 0.000000 0.421748 0.000000
# 6 0.000000 0.000000 0.000000 0.000000 0.000000 0.020766
#
#
# Mechanical properties :
#
#
# Convention : Reuss Voigt Hill
#
# Bulk Modulus (GPa) = 35.92901 72.30842 54.11872
# Shear Modulus (GPa) = 8.60330 29.30205 18.95268
#
# Velocity S-wave (km/s) = 1.99427 3.68044 2.95996
# Velocity P-wave (km/s) = 4.68102 7.17547 6.05803
#
# Compressibility (1/GPa) = 0.02783266
#
# Stress axis : x y z
#
# Youngs Moduli (GPa) = 28.18539 91.94177 147.46882
#
# Poissons Ratio (x) = 0.47664 0.64257
# Poissons Ratio (y) = 0.14612 0.45873
# Poissons Ratio (z) = 0.12281 0.28600
#
# Static dielectric constant tensor:
#      x y z
#    x 1.837960 0.000000 0.000000 
#    y 0.000000 2.039800 0.000000 
#    z 0.000000 0.000000 1.838840 
# 
# From -- ./inp_files/18758.got.cif
#   From: 2010.05.17/outbox.cif.g08.bks.cpg/sg21_10_cif.got.tgz:18758.got - 2010.06.03 23:14:55.
