data_PCOD9324505
_publ_section_title
;
Structure prediction by ZEFSAII (Michael W. Deem and Ramdas Pophale) SiO2 
 PCOD9324505
Probable space group: C 2 2 2
;
_chemical_formula_sum "Si O2"
_cell_formula_units_Z 64
_cell_length_a 9.521826
_cell_length_b 22.618561
_cell_length_c 14.498119
_cell_angle_alpha 90.000000
_cell_angle_beta 90.000000
_cell_angle_gamma 90.000000
_cell_volume 3122.459921
_symmetry_space_group_name_H-M "C 2 2 2"
_symmetry_group_IT_number 21
_symmetry_cell_setting 'orthorhombic'
loop_
_space_group_symop_operation_xyz
x,y,z
-x,-y,z
x,-y,-z
-x,y,-z
1/2+x,1/2+y,z
1/2-x,1/2-y,z
1/2+x,1/2-y,-z
1/2-x,1/2+y,-z
loop_
_atom_site_type_symbol
_atom_site_label
_atom_site_fract_x
_atom_site_fract_y
_atom_site_fract_z
Si Si1 0.710131 0.912852 0.769626
Si Si2 0.042807 0.065769 0.894215
Si Si3 0.150194 0.303172 0.325524
Si Si4 0.335997 0.483337 0.358652
Si Si5 0.672263 0.190509 0.350253
Si Si6 0.154413 0.597589 0.518102
Si Si7 0.463812 0.931078 0.898747
Si Si8 0.799476 0.887426 0.197659
O O1 0.740011 0.847528 0.732019
O O2 0.550652 0.912108 0.806893
O O3 0.799109 0.927093 0.861056
O O4 0.751646 0.961324 0.690143
O O5 0.952156 0.116858 0.846143
O O6 0.000000 0.000000 0.860045
O O7 0.000000 0.067116 0.000000
O O8 0.250000 0.250000 0.358136
O O9 0.148939 0.356659 0.397736
O O10 0.223702 0.328999 0.233995
O O11 0.985070 0.289797 0.320930
O O12 0.500000 0.500000 0.373234
O O13 0.265424 0.451238 0.447636
O O14 0.323798 0.432313 0.281795
O O15 0.750000 0.250000 0.377152
O O16 0.678041 0.141740 0.432028
O O17 0.000000 0.570804 0.500000
O O18 0.302548 0.918780 0.875722
O O19 0.500000 0.000000 0.903843
O O20 0.500000 0.905242 0.000000
#
# Coordination Sequence:
#
# PCOD9324505 Si02
#       8
#     8   8   8   8   8   8   8   8
#     4  12  22  39  62  97 136 170 216 268 316 389
#     4  11  21  37  62  95 136 174 210 260 324 390
#     4  10  22  40  67  89 118 165 215 265 323 383
#     4  11  21  39  66  97 138 173 207 256 327 392
#     4  11  25  43  66  93 121 165 222 274 322 379
#     4   9  22  44  66  96 131 168 211 268 324 385
#     4  11  21  34  59  96 133 173 215 264 325 390
#     4  11  19  37  60  92 131 167 211 263 317 386
#
# _framework density 20.496662000000001
#
# number of rings (size 3 to 8) (size 9 to 14) (size 15 to 20)
#    0.000    1.250    5.000    1.125    1.750    2.500 
#    0.000    5.000    0.000    4.500    0.000    0.000 
#    0.000    0.000    0.000    0.000    0.000    0.000 
#
# Total GULP energy -178360.781203 kJ/mol
# GULP energy per Si atom -5573.774413 kJ/mol
# Density = 2.045001 g / cm^3
# Si number density = 20.496662 Si / 1000 Ang^3
#
#
#
# Elastic Constant Matrix: (Units=GPa)
#
#
# Indices 1 2 3 4 5 6 
#
# 1 102.0095 44.5165 21.7677 0.0000 0.0000 0.0000
# 2 44.5165 66.1884 36.6534 0.0000 0.0000 0.0000
# 3 21.7677 36.6534 51.2214 0.0000 0.0000 0.0000
# 4 0.0000 0.0000 0.0000 -10.9641 0.0000 0.0000
# 5 0.0000 0.0000 0.0000 0.0000 -10.9468 0.0000
# 6 0.0000 0.0000 0.0000 0.0000 0.0000 17.9251
#
#
#
# Elastic Compliance Matrix: (Units=1/GPa)
#
#
# Indices 1 2 3 4 5 6 
#
# 1 0.013928 -0.010087 0.001299 0.000000 0.000000 0.000000
# 2 -0.010087 0.032330 -0.018849 0.000000 0.000000 0.000000
# 3 0.001299 -0.018849 0.032459 0.000000 0.000000 0.000000
# 4 0.000000 0.000000 0.000000 -0.091207 0.000000 0.000000
# 5 0.000000 0.000000 0.000000 0.000000 -0.091351 0.000000
# 6 0.000000 0.000000 0.000000 0.000000 0.000000 0.055788
#
#
# Mechanical properties :
#
#
# Convention : Reuss Voigt Hill
#
# Bulk Modulus (GPa) = 42.65430 47.25493 44.95462
# Shear Modulus (GPa) = 332.57881 6.96828 169.77354
#
# Velocity S-wave (km/s) = 12.75195 1.84583 9.11096
# Velocity P-wave (km/s) = 15.41661 5.25812 11.51780
#
# Compressibility (1/GPa) = 0.02344429
#
# Stress axis : x y z
#
# Youngs Moduli (GPa) = 71.79991 30.93074 30.80822
#
# Poissons Ratio (x) = 0.31199 -0.04002
# Poissons Ratio (y) = 0.72422 0.58069
# Poissons Ratio (z) = -0.09327 0.58300
#
# Static dielectric constant tensor:
#      x y z
#    x 1.743430 0.000000 0.000000 
#    y 0.000000 1.728390 0.000000 
#    z 0.000000 0.000000 1.799760 
# 
# From -- ./inp_files/30910.got.cif
#   From: 2010.05.17/outbox.cif.g08.bks.cpg/sg21_16_cif.got.tgz:30910.got - 2010.06.03 23:14:55.
