data_PCOD9324697
_publ_section_title
;
Structure prediction by ZEFSAII (Michael W. Deem and Ramdas Pophale) SiO2 
 PCOD9324697
Probable space group: C 2 2 2
;
_chemical_formula_sum "Si O2"
_cell_formula_units_Z 48
_cell_length_a 7.377391
_cell_length_b 15.775249
_cell_length_c 19.014935
_cell_angle_alpha 90.000000
_cell_angle_beta 90.000000
_cell_angle_gamma 90.000000
_cell_volume 2212.961558
_symmetry_space_group_name_H-M "C 2 2 2"
_symmetry_group_IT_number 21
_symmetry_cell_setting 'orthorhombic'
loop_
_space_group_symop_operation_xyz
x,y,z
-x,-y,z
x,-y,-z
-x,y,-z
1/2+x,1/2+y,z
1/2-x,1/2-y,z
1/2+x,1/2-y,-z
1/2-x,1/2+y,-z
loop_
_atom_site_type_symbol
_atom_site_label
_atom_site_fract_x
_atom_site_fract_y
_atom_site_fract_z
Si Si1 0.711623 0.409187 0.978381
Si Si2 0.897260 0.179026 0.848680
Si Si3 0.000000 0.500000 0.674352
Si Si4 0.456393 0.348483 0.419258
Si Si5 0.615240 0.571308 0.280218
Si Si6 0.523419 0.156550 0.580890
Si Si7 0.750000 0.750000 0.928406
O O1 0.690174 0.396566 0.895129
O O2 0.787936 0.500000 0.000000
O O3 0.500000 0.407096 0.000000
O O4 0.796823 0.329405 0.020178
O O5 0.750000 0.250000 0.858742
O O6 0.900250 0.153946 0.767488
O O7 0.085664 0.214567 0.880380
O O8 0.820806 0.463241 0.712380
O O9 0.058316 0.418378 0.627435
O O10 0.500000 0.375103 0.500000
O O11 0.491246 0.409512 0.353616
O O12 0.538042 0.253996 0.409455
O O13 0.239671 0.341822 0.410175
O O14 0.500000 0.500000 0.241444
O O15 0.500000 0.133675 0.500000
#
# Coordination Sequence:
#
# PCOD9324697 Si02
#       7
#     8   8   4   8   8   8   4
#     4   9  19  39  71 100 138 175 221 280 332 409
#     4  11  25  44  69  98 139 179 221 284 342 410
#     4  10  23  42  64  88 137 168 224 276 336 412
#     4   9  20  39  62  88 126 167 225 281 339 408
#     4  11  27  44  64  96 134 180 229 280 346 407
#     4   9  18  35  62  91 117 161 215 282 344 397
#     4  10  22  44  72 104 134 178 232 276 348 410
#
# _framework density 21.690390000000001
#
# number of rings (size 3 to 8) (size 9 to 14) (size 15 to 20)
#    0.000    2.167    0.833    0.250   11.667    1.667 
#    0.000    0.833    0.000    0.000    0.000    0.000 
#    0.000    0.000    0.000    0.000    0.000    0.000 
#
# Total GULP energy -133709.652468 kJ/mol
# GULP energy per Si atom -5571.235520 kJ/mol
# Density = 2.164102 g / cm^3
# Si number density = 21.690390 Si / 1000 Ang^3
#
#
#
# Elastic Constant Matrix: (Units=GPa)
#
#
# Indices 1 2 3 4 5 6 
#
# 1 100.0773 29.1282 28.9648 0.0000 0.0000 0.0000
# 2 29.1282 106.4667 49.9032 0.0000 0.0000 0.0000
# 3 28.9648 49.9032 99.0334 0.0000 0.0000 0.0000
# 4 0.0000 0.0000 0.0000 52.6202 0.0000 0.0000
# 5 0.0000 0.0000 0.0000 0.0000 30.5523 0.0000
# 6 0.0000 0.0000 0.0000 0.0000 0.0000 21.8615
#
#
#
# Elastic Compliance Matrix: (Units=1/GPa)
#
#
# Indices 1 2 3 4 5 6 
#
# 1 0.011235 -0.002008 -0.002274 0.000000 0.000000 0.000000
# 2 -0.002008 0.012656 -0.005790 0.000000 0.000000 0.000000
# 3 -0.002274 -0.005790 0.013680 0.000000 0.000000 0.000000
# 4 0.000000 0.000000 0.000000 0.019004 0.000000 0.000000
# 5 0.000000 0.000000 0.000000 0.000000 0.032731 0.000000
# 6 0.000000 0.000000 0.000000 0.000000 0.000000 0.045743
#
#
# Mechanical properties :
#
#
# Convention : Reuss Voigt Hill
#
# Bulk Modulus (GPa) = 57.38230 57.95220 57.66725
# Shear Modulus (GPa) = 31.05556 34.17887 32.61722
#
# Velocity S-wave (km/s) = 3.78797 3.97389 3.88205
# Velocity P-wave (km/s) = 6.75605 6.91604 6.83652
#
# Compressibility (1/GPa) = 0.01742698
#
# Stress axis : x y z
#
# Youngs Moduli (GPa) = 89.00865 79.01475 73.09728
#
# Poissons Ratio (x) = 0.15864 0.16624
# Poissons Ratio (y) = 0.17871 0.42324
# Poissons Ratio (z) = 0.20242 0.45750
#
# Static dielectric constant tensor:
#      x y z
#    x 1.669630 0.000000 0.000000 
#    y 0.000000 1.812360 0.000000 
#    z 0.000000 0.000000 1.875210 
# 
# From -- ./inp_files/35713.got.cif
#   From: 2010.05.17/outbox.cif.g08.bks.cpg/sg21_18_cif.got.tgz:35713.got - 2010.06.03 23:14:55.
