data_PCOD9324991
_publ_section_title
;
Structure prediction by ZEFSAII (Michael W. Deem and Ramdas Pophale) SiO2 
 PCOD9324991
Probable space group: C 2 2 2
;
_chemical_formula_sum "Si O2"
_cell_formula_units_Z 48
_cell_length_a 5.902875
_cell_length_b 14.460896
_cell_length_c 25.319289
_cell_angle_alpha 90.000000
_cell_angle_beta 90.000000
_cell_angle_gamma 90.000000
_cell_volume 2161.276321
_symmetry_space_group_name_H-M "C 2 2 2"
_symmetry_group_IT_number 21
_symmetry_cell_setting 'orthorhombic'
loop_
_space_group_symop_operation_xyz
x,y,z
-x,-y,z
x,-y,-z
-x,y,-z
1/2+x,1/2+y,z
1/2-x,1/2-y,z
1/2+x,1/2-y,-z
1/2-x,1/2+y,-z
loop_
_atom_site_type_symbol
_atom_site_label
_atom_site_fract_x
_atom_site_fract_y
_atom_site_fract_z
Si Si1 0.000000 0.500000 0.000000
Si Si2 0.680455 0.645678 0.954859
Si Si3 0.165516 0.643012 0.548908
Si Si4 0.645850 0.852207 0.238715
Si Si5 0.270778 0.144445 0.833823
Si Si6 0.500000 0.500000 0.765096
Si Si7 0.000000 0.000000 0.500000
Si Si8 0.506191 0.198846 0.345054
O O1 0.132706 0.431240 0.962721
O O2 0.750000 0.750000 0.968800
O O3 0.655679 0.646031 0.891807
O O4 0.500000 0.620474 0.000000
O O5 0.250000 0.750000 0.546621
O O6 0.359644 0.568615 0.538115
O O7 0.000000 0.630136 0.500000
O O8 0.037487 0.633676 0.604667
O O9 0.750000 0.750000 0.230837
O O10 0.531937 0.878253 0.182242
O O11 0.468179 0.843809 0.286772
O O12 0.819881 0.929763 0.260206
O O13 0.250000 0.250000 0.814683
O O14 0.135317 0.070888 0.801115
O O15 0.750000 0.250000 0.355261
O O16 0.250000 0.250000 0.341587
#
# Coordination Sequence:
#
# PCOD9324991 Si02
#       8
#     2   8   8   8   8   4   2   8
#     4  12  26  44  76  96 140 180 226 292 358 428
#     4  11  26  48  70 103 143 183 236 299 364 447
#     4  11  23  45  74 107 155 206 260 325 391 462
#     4  11  24  47  73 109 150 189 256 310 382 457
#     4  11  25  47  73 101 146 188 240 303 371 448
#     4  12  26  43  75 108 142 193 241 302 372 462
#     4  12  26  42  72 116 156 200 280 312 394 480
#     4  10  24  44  80 110 152 207 260 324 392 461
#
# _framework density 22.209098000000001
#
# number of rings (size 3 to 8) (size 9 to 14) (size 15 to 20)
#    0.000    1.000    3.333    2.000    9.333    0.667 
#    0.000    3.333    0.000    0.000    0.000    0.000 
#    0.000    0.000    0.000    0.000    0.000    0.000 
#
# Total GULP energy -133601.666136 kJ/mol
# GULP energy per Si atom -5566.736089 kJ/mol
# Density = 2.215855 g / cm^3
# Si number density = 22.209098 Si / 1000 Ang^3
#
#
#
# Elastic Constant Matrix: (Units=GPa)
#
#
# Indices 1 2 3 4 5 6 
#
# 1 94.0660 43.1912 42.8368 0.0000 0.0000 0.0000
# 2 43.1912 137.4052 25.6917 0.0000 0.0000 0.0000
# 3 42.8368 25.6917 118.7897 0.0000 0.0000 0.0000
# 4 0.0000 0.0000 0.0000 -21.4714 0.0000 0.0000
# 5 0.0000 0.0000 0.0000 0.0000 4.7457 0.0000
# 6 0.0000 0.0000 0.0000 0.0000 0.0000 45.8588
#
#
#
# Elastic Compliance Matrix: (Units=1/GPa)
#
#
# Indices 1 2 3 4 5 6 
#
# 1 0.014308 -0.003682 -0.004363 0.000000 0.000000 0.000000
# 2 -0.003682 0.008532 -0.000518 0.000000 0.000000 0.000000
# 3 -0.004363 -0.000518 0.010104 0.000000 0.000000 0.000000
# 4 0.000000 0.000000 0.000000 -0.046574 0.000000 0.000000
# 5 0.000000 0.000000 0.000000 0.000000 0.210716 0.000000
# 6 0.000000 0.000000 0.000000 0.000000 0.000000 0.021806
#
#
# Mechanical properties :
#
#
# Convention : Reuss Voigt Hill
#
# Bulk Modulus (GPa) = 63.21785 63.74449 63.48117
# Shear Modulus (GPa) = 20.72190 21.72937 21.22563
#
# Velocity S-wave (km/s) = 3.05788 3.13133 3.09482
# Velocity P-wave (km/s) = 6.40267 6.46822 6.43553
#
# Compressibility (1/GPa) = 0.01581832
#
# Stress axis : x y z
#
# Youngs Moduli (GPa) = 69.88884 117.20818 98.97364
#
# Poissons Ratio (x) = 0.43153 0.43187
# Poissons Ratio (y) = 0.25731 0.05123
# Poissons Ratio (z) = 0.30496 0.06066
#
# Static dielectric constant tensor:
#      x y z
#    x 2.010560 0.000000 0.000000 
#    y 0.000000 2.180650 0.000000 
#    z 0.000000 0.000000 1.657660 
# 
# From -- ./inp_files/39097.got.cif
#   From: 2010.05.17/outbox.cif.g08.bks.cpg/sg21_20_cif.got.tgz:39097.got - 2010.06.03 23:14:55.
