data_PCOD9324667
_publ_section_title
;
Structure prediction by ZEFSAII (Michael W. Deem and Ramdas Pophale) SiO2 
 PCOD9324667
Probable space group: C 2 2 2
;
_chemical_formula_sum "Si O2"
_cell_formula_units_Z 32
_cell_length_a 22.809241
_cell_length_b 10.836179
_cell_length_c 5.377131
_cell_angle_alpha 90.000000
_cell_angle_beta 90.000000
_cell_angle_gamma 90.000000
_cell_volume 1329.038682
_symmetry_space_group_name_H-M "C 2 2 2"
_symmetry_group_IT_number 21
_symmetry_cell_setting 'orthorhombic'
loop_
_space_group_symop_operation_xyz
x,y,z
-x,-y,z
x,-y,-z
-x,y,-z
1/2+x,1/2+y,z
1/2-x,1/2-y,z
1/2+x,1/2-y,-z
1/2-x,1/2+y,-z
loop_
_atom_site_type_symbol
_atom_site_label
_atom_site_fract_x
_atom_site_fract_y
_atom_site_fract_z
Si Si1 0.383769 0.662398 0.244455
Si Si2 0.098215 0.695736 0.756940
Si Si3 0.834197 0.500000 0.500000
Si Si4 0.756003 0.111877 0.174202
Si Si5 0.000000 0.819263 0.000000
O O1 0.387596 0.720506 0.516554
O O2 0.324039 0.585135 0.240023
O O3 0.447580 0.611638 0.151443
O O4 0.375105 0.760073 0.019238
O O5 0.122236 0.561833 0.696390
O O6 0.030466 0.726606 0.804759
O O7 0.788891 0.396512 0.403630
O O8 0.750000 0.250000 0.069782
O O9 0.737222 0.000000 0.000000
#
# Coordination Sequence:
#
# PCOD9324667 Si02
#       5
#     8   8   4   8   4
#     4  10  22  45  72 106 149 198 260 317 387 461
#     4  10  22  43  72 109 150 204 255 326 387 473
#     4  12  26  40  75 110 161 202 262 322 406 476
#     4  12  27  47  77 112 161 209 263 327 396 482
#     4   8  22  42  80  98 156 190 270 306 400 454
#
# _framework density 24.077553999999999
#
# number of rings (size 3 to 8) (size 9 to 14) (size 15 to 20)
#    1.500    0.000    2.500    2.250    3.500    1.000 
#    0.000    4.375    0.000    0.000    0.000    0.000 
#    0.000    0.000    0.000    0.000    0.000    0.000 
#
# Total GULP energy -89109.318873 kJ/mol
# GULP energy per Si atom -5569.332430 kJ/mol
# Density = 2.402275 g / cm^3
# Si number density = 24.077554 Si / 1000 Ang^3
#
#
#
# Elastic Constant Matrix: (Units=GPa)
#
#
# Indices 1 2 3 4 5 6 
#
# 1 139.4238 13.3782 9.3319 0.0000 0.0000 0.0000
# 2 13.3782 74.7110 22.0758 0.0000 0.0000 0.0000
# 3 9.3319 22.0758 95.8091 0.0000 0.0000 0.0000
# 4 0.0000 0.0000 0.0000 33.8000 0.0000 0.0000
# 5 0.0000 0.0000 0.0000 0.0000 21.2231 0.0000
# 6 0.0000 0.0000 0.0000 0.0000 0.0000 20.7225
#
#
#
# Elastic Compliance Matrix: (Units=1/GPa)
#
#
# Indices 1 2 3 4 5 6 
#
# 1 0.007315 -0.001180 -0.000441 0.000000 0.000000 0.000000
# 2 -0.001180 0.014553 -0.003238 0.000000 0.000000 0.000000
# 3 -0.000441 -0.003238 0.011227 0.000000 0.000000 0.000000
# 4 0.000000 0.000000 0.000000 0.029586 0.000000 0.000000
# 5 0.000000 0.000000 0.000000 0.000000 0.047118 0.000000
# 6 0.000000 0.000000 0.000000 0.000000 0.000000 0.048257
#
#
# Mechanical properties :
#
#
# Convention : Reuss Voigt Hill
#
# Bulk Modulus (GPa) = 42.77668 44.39066 43.58367
# Shear Modulus (GPa) = 28.47943 32.82632 30.65287
#
# Velocity S-wave (km/s) = 3.44295 3.69637 3.57191
# Velocity P-wave (km/s) = 5.79741 6.05757 5.92892
#
# Compressibility (1/GPa) = 0.02337722
#
# Stress axis : x y z
#
# Youngs Moduli (GPa) = 136.70415 68.71429 89.07494
#
# Poissons Ratio (x) = 0.08106 0.03925
# Poissons Ratio (y) = 0.16127 0.28845
# Poissons Ratio (z) = 0.06024 0.22252
#
# Static dielectric constant tensor:
#      x y z
#    x 1.991790 0.000000 0.000000 
#    y 0.000000 1.989890 0.000000 
#    z 0.000000 0.000000 2.055750 
# 
# From -- ./inp_files/6508.got.cif
#   From: 2010.05.17/outbox.cif.g08.bks.cpg/sg21_4_cif.got.tgz:6508.got - 2010.06.03 23:14:55.
