data_PCOD9324176
_publ_section_title
;
Structure prediction by ZEFSAII (Michael W. Deem and Ramdas Pophale) SiO2 
 PCOD9324176
Probable space group: C 2 2 2
;
_chemical_formula_sum "Si O2"
_cell_formula_units_Z 38
_cell_length_a 9.240437
_cell_length_b 11.799047
_cell_length_c 17.711518
_cell_angle_alpha 90.000000
_cell_angle_beta 90.000000
_cell_angle_gamma 90.000000
_cell_volume 1931.057592
_symmetry_space_group_name_H-M "C 2 2 2"
_symmetry_group_IT_number 21
_symmetry_cell_setting 'orthorhombic'
loop_
_space_group_symop_operation_xyz
x,y,z
-x,-y,z
x,-y,-z
-x,y,-z
1/2+x,1/2+y,z
1/2-x,1/2-y,z
1/2+x,1/2-y,-z
1/2-x,1/2+y,-z
loop_
_atom_site_type_symbol
_atom_site_label
_atom_site_fract_x
_atom_site_fract_y
_atom_site_fract_z
Si Si1 0.621874 0.657651 0.631641
Si Si2 0.477507 0.815637 0.756673
Si Si3 0.757597 0.492170 0.246584
Si Si4 0.500000 0.500000 0.126198
Si Si5 0.421083 0.262092 0.071990
Si Si6 0.500000 0.500000 0.500000
O O1 0.750000 0.750000 0.617071
O O2 0.513630 0.725297 0.690189
O O3 0.676385 0.552574 0.680942
O O4 0.574842 0.592414 0.556149
O O5 0.613906 0.900838 0.762711
O O6 0.458283 0.775388 0.842640
O O7 0.333464 0.887680 0.740541
O O8 0.643098 0.490945 0.178727
O O9 0.475252 0.390219 0.076868
O O10 0.250000 0.250000 0.061365
O O11 0.500000 0.205336 0.000000
#
# Coordination Sequence:
#
# PCOD9324176 Si02
#       6
#     8   8   8   4   8   2
#     4  10  23  42  67  95 134 171 215 271 325 395
#     4  10  22  43  67  91 127 175 223 265 334 389
#     4  10  21  40  68  95 121 171 222 271 318 399
#     4  12  22  40  63  93 126 160 224 278 322 389
#     4  12  27  42  62  96 132 177 223 281 336 386
#     4  12  26  40  62 108 130 172 212 264 332 400
#
# _framework density 19.678336000000002
#
# number of rings (size 3 to 8) (size 9 to 14) (size 15 to 20)
#    0.000    1.263    4.211    0.947    2.947    1.684 
#    0.000    2.105    0.000    0.000    0.000    0.000 
#    0.000    0.000    0.000    0.000    0.000    0.000 
#
# Total GULP energy -105881.727016 kJ/mol
# GULP energy per Si atom -5572.722475 kJ/mol
# Density = 1.963355 g / cm^3
# Si number density = 19.678336 Si / 1000 Ang^3
#
#
#
# Elastic Constant Matrix: (Units=GPa)
#
#
# Indices 1 2 3 4 5 6 
#
# 1 108.9614 46.0306 72.7309 0.0000 0.0000 0.0000
# 2 46.0306 109.8178 77.9962 0.0000 0.0000 0.0000
# 3 72.7309 77.9962 174.3301 0.0000 0.0000 0.0000
# 4 0.0000 0.0000 0.0000 -2.2825 0.0000 0.0000
# 5 0.0000 0.0000 0.0000 0.0000 24.2421 0.0000
# 6 0.0000 0.0000 0.0000 0.0000 0.0000 32.1677
#
#
#
# Elastic Compliance Matrix: (Units=1/GPa)
#
#
# Indices 1 2 3 4 5 6 
#
# 1 0.013125 -0.002363 -0.004419 0.000000 0.000000 0.000000
# 2 -0.002363 0.013773 -0.005176 0.000000 0.000000 0.000000
# 3 -0.004419 -0.005176 0.009895 0.000000 0.000000 0.000000
# 4 0.000000 0.000000 0.000000 -0.438112 0.000000 0.000000
# 5 0.000000 0.000000 0.000000 0.000000 0.041251 0.000000
# 6 0.000000 0.000000 0.000000 0.000000 0.000000 0.031087
#
#
# Mechanical properties :
#
#
# Convention : Reuss Voigt Hill
#
# Bulk Modulus (GPa) = 77.65343 87.40273 82.52808
# Shear Modulus (GPa) = -16.62384 23.91556 3.64586
#
# Velocity S-wave (km/s) = -2.90966 3.48993 1.36263
# Velocity P-wave (km/s) = 5.31591 7.79433 6.67123
#
# Compressibility (1/GPa) = 0.01287773
#
# Stress axis : x y z
#
# Youngs Moduli (GPa) = 76.18878 72.60694 101.05657
#
# Poissons Ratio (x) = 0.17160 0.44652
# Poissons Ratio (y) = 0.18006 0.52307
# Poissons Ratio (z) = 0.33664 0.37582
#
# Static dielectric constant tensor:
#      x y z
#    x 1.744700 0.000000 0.000000 
#    y 0.000000 1.720330 0.000000 
#    z 0.000000 0.000000 1.789520 
# 
# From -- ./inp_files/35503.got.cif
#   From: 2010.05.17/outbox.cif.g08.bks.cpg/sg21_18_cif.got.tgz:35503.got - 2010.06.03 23:14:55.
