data_PCOD9324705
_publ_section_title
;
Structure prediction by ZEFSAII (Michael W. Deem and Ramdas Pophale) SiO2 
 PCOD9324705
Probable space group: C 2 2 2
;
_chemical_formula_sum "Si O2"
_cell_formula_units_Z 20
_cell_length_a 19.275407
_cell_length_b 5.154275
_cell_length_c 8.074387
_cell_angle_alpha 90.000000
_cell_angle_beta 90.000000
_cell_angle_gamma 90.000000
_cell_volume 802.196391
_symmetry_space_group_name_H-M "C 2 2 2"
_symmetry_group_IT_number 21
_symmetry_cell_setting 'orthorhombic'
loop_
_space_group_symop_operation_xyz
x,y,z
-x,-y,z
x,-y,-z
-x,y,-z
1/2+x,1/2+y,z
1/2-x,1/2-y,z
1/2+x,1/2-y,-z
1/2-x,1/2+y,-z
loop_
_atom_site_type_symbol
_atom_site_label
_atom_site_fract_x
_atom_site_fract_y
_atom_site_fract_z
Si Si1 0.895477 0.258167 0.752436
Si Si2 0.700178 0.500000 0.500000
Si Si3 0.000000 0.500000 0.500000
Si Si4 0.500000 0.000000 0.000000
Si Si5 0.295984 0.000000 0.000000
O O1 0.947424 0.334680 0.607460
O O2 0.950686 0.295453 0.902602
O O3 0.838949 0.451311 0.831795
O O4 0.849087 0.035740 0.663907
O O5 0.750000 0.750000 0.510304
O O6 0.250000 0.250000 0.976964
#
# Coordination Sequence:
#
# PCOD9324705 Si02
#       5
#     8   4   2   2   4
#     4  10  23  45  76 111 152 198 254 312 378 450
#     4  12  27  47  80 117 155 200 254 318 382 452
#     4  10  22  44  76 112 150 200 252 314 376 448
#     4   8  20  50  80 112 152 202 256 314 380 450
#     4  11  26  47  74 107 152 201 250 310 378 453
#
# _framework density 24.931550000000001
#
# number of rings (size 3 to 8) (size 9 to 14) (size 15 to 20)
#    0.000    1.600    0.000    2.400    0.000   13.600 
#    0.000    8.000    0.000   22.800    0.000    0.000 
#    0.000    0.000    0.000    0.000    0.000    0.000 
#
# Total GULP energy -55687.030868 kJ/mol
# GULP energy per Si atom -5568.703087 kJ/mol
# Density = 2.487480 g / cm^3
# Si number density = 24.931550 Si / 1000 Ang^3
#
#
#
# Elastic Constant Matrix: (Units=GPa)
#
#
# Indices 1 2 3 4 5 6 
#
# 1 195.6948 99.9469 81.9609 0.0000 0.0000 0.0000
# 2 99.9469 149.3389 66.4609 0.0000 0.0000 0.0000
# 3 81.9609 66.4609 130.3651 0.0000 0.0000 0.0000
# 4 0.0000 0.0000 0.0000 31.6858 0.0000 0.0000
# 5 0.0000 0.0000 0.0000 0.0000 6767.6224 0.0000
# 6 0.0000 0.0000 0.0000 0.0000 0.0000 19.7667
#
#
#
# Elastic Compliance Matrix: (Units=1/GPa)
#
#
# Indices 1 2 3 4 5 6 
#
# 1 0.008706 -0.004386 -0.003238 0.000000 0.000000 0.000000
# 2 -0.004386 0.010871 -0.002785 0.000000 0.000000 0.000000
# 3 -0.003238 -0.002785 0.011126 0.000000 0.000000 0.000000
# 4 0.000000 0.000000 0.000000 0.031560 0.000000 0.000000
# 5 0.000000 0.000000 0.000000 0.000000 0.000148 0.000000
# 6 0.000000 0.000000 0.000000 0.000000 0.000000 0.050590
#
#
# Mechanical properties :
#
#
# Convention : Reuss Voigt Hill
#
# Bulk Modulus (GPa) = 101.14693 108.01515 104.58104
# Shear Modulus (GPa) = 36.46675 1378.95032 707.70853
#
# Velocity S-wave (km/s) = 3.82864 23.54348 16.86644
# Velocity P-wave (km/s) = 7.75903 27.97283 20.52659
#
# Compressibility (1/GPa) = 0.00988661
#
# Stress axis : x y z
#
# Youngs Moduli (GPa) = 114.86553 91.99131 89.88096
#
# Poissons Ratio (x) = 0.40344 0.29099
# Poissons Ratio (y) = 0.50376 0.25028
# Poissons Ratio (z) = 0.37188 0.25616
#
# Static dielectric constant tensor:
#      x y z
#    x 2.019220 0.000000 0.000000 
#    y 0.000000 1.389870 0.000000 
#    z 0.000000 0.000000 2.034120 
# 
# From -- ./inp_files/15655.got.cif
#   From: 2010.05.17/outbox.cif.g08.bks.cpg/sg21_8_cif.got.tgz:15655.got - 2010.06.03 23:14:55.
