data_PCOD9324422
_publ_section_title
;
Structure prediction by ZEFSAII (Michael W. Deem and Ramdas Pophale) SiO2 
 PCOD9324422
Probable space group: C 2 2 2
;
_chemical_formula_sum "Si O2"
_cell_formula_units_Z 32
_cell_length_a 8.678981
_cell_length_b 30.049276
_cell_length_c 5.332731
_cell_angle_alpha 90.000000
_cell_angle_beta 90.000000
_cell_angle_gamma 90.000000
_cell_volume 1390.760756
_symmetry_space_group_name_H-M "C 2 2 2"
_symmetry_group_IT_number 21
_symmetry_cell_setting 'orthorhombic'
loop_
_space_group_symop_operation_xyz
x,y,z
-x,-y,z
x,-y,-z
-x,y,-z
1/2+x,1/2+y,z
1/2-x,1/2-y,z
1/2+x,1/2-y,-z
1/2-x,1/2+y,-z
loop_
_atom_site_type_symbol
_atom_site_label
_atom_site_fract_x
_atom_site_fract_y
_atom_site_fract_z
Si Si1 0.401177 0.341444 0.753916
Si Si2 0.676360 0.793314 0.424091
Si Si3 0.178233 0.481035 0.253341
Si Si4 0.672775 0.882610 0.097466
O O1 0.500000 0.351676 0.500000
O O2 0.283297 0.303433 0.664864
O O3 0.500000 0.328482 0.000000
O O4 0.293182 0.380361 0.867464
O O5 0.500000 0.786071 0.500000
O O6 0.750000 0.750000 0.297787
O O7 0.688128 0.837963 0.260121
O O8 0.253675 0.500000 0.500000
O O9 0.186857 0.428010 0.250432
O O10 0.000000 0.500000 0.252591
O O11 0.248432 0.500000 0.000000
O O12 0.500000 0.882688 0.000000
#
# Coordination Sequence:
#
# PCOD9324422 Si02
#       4
#     8   8   8   8
#     4  12  27  50  76 113 158 212 261 325 408 477
#     4  12  28  49  79 116 158 211 279 336 399 481
#     4  10  22  38  72 118 160 182 254 337 398 455
#     4  12  25  47  82 120 157 211 269 339 406 476
#
# _framework density 23.008990000000001
#
# number of rings (size 3 to 8) (size 9 to 14) (size 15 to 20)
#    0.000    0.500    7.500    0.750    7.000    1.000 
#    4.500    0.000    0.000    0.750    6.500    0.000 
#    0.000    0.000    0.000    0.000    0.000    0.000 
#
# Total GULP energy -89413.437964 kJ/mol
# GULP energy per Si atom -5588.339873 kJ/mol
# Density = 2.295662 g / cm^3
# Si number density = 23.008990 Si / 1000 Ang^3
#
#
#
# Elastic Constant Matrix: (Units=GPa)
#
#
# Indices 1 2 3 4 5 6 
#
# 1 135.3823 41.3877 62.5519 0.0000 0.0000 0.0000
# 2 41.3877 210.5863 77.2544 0.0000 0.0000 0.0000
# 3 62.5519 77.2544 185.7943 0.0000 0.0000 0.0000
# 4 0.0000 0.0000 0.0000 51.4761 0.0000 0.0000
# 5 0.0000 0.0000 0.0000 0.0000 -7.3349 0.0000
# 6 0.0000 0.0000 0.0000 0.0000 0.0000 17.1000
#
#
#
# Elastic Compliance Matrix: (Units=1/GPa)
#
#
# Indices 1 2 3 4 5 6 
#
# 1 0.008850 -0.000763 -0.002662 0.000000 0.000000 0.000000
# 2 -0.000763 0.005669 -0.002101 0.000000 0.000000 0.000000
# 3 -0.002662 -0.002101 0.007152 0.000000 0.000000 0.000000
# 4 0.000000 0.000000 0.000000 0.019426 0.000000 0.000000
# 5 0.000000 0.000000 0.000000 0.000000 -0.136334 0.000000
# 6 0.000000 0.000000 0.000000 0.000000 0.000000 0.058479
#
#
# Mechanical properties :
#
#
# Convention : Reuss Voigt Hill
#
# Bulk Modulus (GPa) = 94.16239 99.35011 96.75625
# Shear Modulus (GPa) = -225.56770 35.61950 -94.97410
#
# Velocity S-wave (km/s) = -9.91198 3.93882 -6.43168
# Velocity P-wave (km/s) = 9.48597 7.99739 3.60730
#
# Compressibility (1/GPa) = 0.01061995
#
# Stress axis : x y z
#
# Youngs Moduli (GPa) = 112.99764 176.39487 139.82004
#
# Poissons Ratio (x) = 0.13452 0.37225
# Poissons Ratio (y) = 0.08617 0.29369
# Poissons Ratio (z) = 0.30084 0.37052
#
# Static dielectric constant tensor:
#      x y z
#    x 1.884770 0.000000 0.000000 
#    y 0.000000 1.906390 0.000000 
#    z 0.000000 0.000000 1.910510 
# 
# From -- ./inp_files/1463.got.cif
#   From: 2010.05.17/outbox.cif.g08.bks.cpg/sg21_1_cif.got.tgz:1463.got - 2010.06.03 23:14:55.
