data_PCOD9324986
_publ_section_title
;
Structure prediction by ZEFSAII (Michael W. Deem and Ramdas Pophale) SiO2 
 PCOD9324986
Probable space group: C 2 2 2
;
_chemical_formula_sum "Si O2"
_cell_formula_units_Z 28
_cell_length_a 5.426847
_cell_length_b 7.763682
_cell_length_c 26.928000
_cell_angle_alpha 90.000000
_cell_angle_beta 90.000000
_cell_angle_gamma 90.000000
_cell_volume 1134.538961
_symmetry_space_group_name_H-M "C 2 2 2"
_symmetry_group_IT_number 21
_symmetry_cell_setting 'orthorhombic'
loop_
_space_group_symop_operation_xyz
x,y,z
-x,-y,z
x,-y,-z
-x,y,-z
1/2+x,1/2+y,z
1/2-x,1/2-y,z
1/2+x,1/2-y,-z
1/2-x,1/2+y,-z
loop_
_atom_site_type_symbol
_atom_site_label
_atom_site_fract_x
_atom_site_fract_y
_atom_site_fract_z
Si Si1 0.000000 0.000000 0.209518
Si Si2 0.000000 0.500000 0.000000
Si Si3 0.000000 0.000000 0.500000
Si Si4 0.750000 0.250000 0.276417
Si Si5 0.250000 0.250000 0.075832
Si Si6 0.500000 0.000000 0.854030
Si Si7 0.750000 0.250000 0.576654
Si Si8 0.000000 0.500000 0.651193
O O1 0.968608 0.173784 0.242471
O O2 0.249715 0.996717 0.177504
O O3 0.192740 0.600176 0.964397
O O4 0.847386 0.888692 0.461685
O O5 0.809836 0.411876 0.311418
O O6 0.038276 0.322104 0.113858
O O7 0.570751 0.153596 0.614292
#
# Coordination Sequence:
#
# PCOD9324986 Si02
#       8
#     4   2   2   4   4   4   4   4
#     4  12  26  47  76 109 150 195 252 309 374 444
#     4  10  24  44  74 108 152 196 250 306 372 450
#     4  12  24  42  68 100 136 184 236 300 364 436
#     4  12  26  45  73 106 146 194 247 305 370 442
#     4  10  24  46  74 110 150 196 248 306 374 444
#     4  11  25  47  76 112 150 198 248 311 373 445
#     4  12  24  43  67  98 138 182 239 299 366 438
#     4  12  25  45  69 102 142 190 241 301 365 440
#
# _framework density 24.679625999999999
#
# number of rings (size 3 to 8) (size 9 to 14) (size 15 to 20)
#    0.000    0.571    0.000    7.714    0.000    7.429 
#    0.000    0.000    0.000    0.000    0.000    0.000 
#    0.000    0.000    0.000    0.000    0.000    0.000 
#
# Total GULP energy -77992.423630 kJ/mol
# GULP energy per Si atom -5570.887402 kJ/mol
# Density = 2.462345 g / cm^3
# Si number density = 24.679626 Si / 1000 Ang^3
#
#
#
# Elastic Constant Matrix: (Units=GPa)
#
#
# Indices 1 2 3 4 5 6 
#
# 1 141.6097 60.6215 98.2451 0.0000 0.0000 0.0000
# 2 60.6215 98.8392 60.0327 0.0000 0.0000 0.0000
# 3 98.2451 60.0327 176.9699 0.0000 0.0000 0.0000
# 4 0.0000 0.0000 0.0000 90.9251 0.0000 0.0000
# 5 0.0000 0.0000 0.0000 0.0000 169.3522 0.0000
# 6 0.0000 0.0000 0.0000 0.0000 0.0000 53.8435
#
#
#
# Elastic Compliance Matrix: (Units=1/GPa)
#
#
# Indices 1 2 3 4 5 6 
#
# 1 0.012891 -0.004484 -0.005635 0.000000 0.000000 0.000000
# 2 -0.004484 0.014302 -0.002363 0.000000 0.000000 0.000000
# 3 -0.005635 -0.002363 0.009581 0.000000 0.000000 0.000000
# 4 0.000000 0.000000 0.000000 0.010998 0.000000 0.000000
# 5 0.000000 0.000000 0.000000 0.000000 0.005905 0.000000
# 6 0.000000 0.000000 0.000000 0.000000 0.000000 0.018572
#
#
# Mechanical properties :
#
#
# Convention : Reuss Voigt Hill
#
# Bulk Modulus (GPa) = 84.66996 95.02416 89.84706
# Shear Modulus (GPa) = 49.43204 76.05879 62.74541
#
# Velocity S-wave (km/s) = 4.48029 5.55746 5.04769
# Velocity P-wave (km/s) = 7.81960 8.93125 8.39384
#
# Compressibility (1/GPa) = 0.01181056
#
# Stress axis : x y z
#
# Youngs Moduli (GPa) = 77.57555 69.91836 104.37706
#
# Poissons Ratio (x) = 0.31348 0.58820
# Poissons Ratio (y) = 0.34781 0.24661
# Poissons Ratio (z) = 0.43717 0.16520
#
# Static dielectric constant tensor:
#      x y z
#    x 1.952420 0.000000 0.000000 
#    y 0.000000 1.951300 0.000000 
#    z 0.000000 0.000000 2.017620 
# 
# From -- ./inp_files/38950.got.cif
#   From: 2010.05.17/outbox.cif.g08.bks.cpg/sg21_20_cif.got.tgz:38950.got - 2010.06.03 23:14:55.
