data_PCOD9324012
_publ_section_title
;
Structure prediction by ZEFSAII (Michael W. Deem and Ramdas Pophale) SiO2 
 PCOD9324012
Probable space group: C 2 2 2
;
_chemical_formula_sum "Si O2"
_cell_formula_units_Z 48
_cell_length_a 6.920579
_cell_length_b 23.280219
_cell_length_c 11.805812
_cell_angle_alpha 90.000000
_cell_angle_beta 90.000000
_cell_angle_gamma 90.000000
_cell_volume 1902.065004
_symmetry_space_group_name_H-M "C 2 2 2"
_symmetry_group_IT_number 21
_symmetry_cell_setting 'orthorhombic'
loop_
_space_group_symop_operation_xyz
x,y,z
-x,-y,z
x,-y,-z
-x,y,-z
1/2+x,1/2+y,z
1/2-x,1/2-y,z
1/2+x,1/2-y,-z
1/2-x,1/2+y,-z
loop_
_atom_site_type_symbol
_atom_site_label
_atom_site_fract_x
_atom_site_fract_y
_atom_site_fract_z
Si Si1 0.803954 0.049233 0.092283
Si Si2 0.842848 0.904568 0.240175
Si Si3 0.738317 0.684319 0.405767
Si Si4 0.463771 0.850777 0.115079
Si Si5 0.322329 0.149063 0.641289
Si Si6 0.293952 0.016377 0.665960
O O1 0.676140 0.102308 0.058539
O O2 0.695284 0.022588 0.198949
O O3 0.998213 0.073913 0.852245
O O4 0.811199 0.000000 0.000000
O O5 0.896370 0.850562 0.319001
O O6 0.650043 0.881941 0.174713
O O7 0.827880 0.957326 0.332505
O O8 0.750000 0.750000 0.369615
O O9 0.710608 0.682276 0.541357
O O10 0.948951 0.654823 0.389578
O O11 0.337057 0.831157 0.226228
O O12 0.500000 0.812899 0.000000
O O13 0.256938 0.082011 0.630554
O O14 0.500000 0.000000 0.618413
#
# Coordination Sequence:
#
# PCOD9324012 Si02
#       6
#     8   8   8   8   8   8
#     4  11  24  35  59 102 148 185 238 271 348 458
#     4  11  23  41  63 105 142 190 235 292 367 437
#     4  10  21  44  71  96 131 187 245 312 361 422
#     4  10  21  38  63  93 146 187 228 286 359 429
#     4   9  21  40  64 104 123 183 247 280 371 442
#     4  11  19  38  59  90 144 176 216 289 351 436
#
# _framework density 25.235728999999999
#
# number of rings (size 3 to 8) (size 9 to 14) (size 15 to 20)
#    0.000    1.667    5.000    1.500    0.000    7.333 
#   12.000    0.000    0.000    8.000   17.333    0.000 
#    0.000    0.000    0.000    0.000    0.000    0.000 
#
# Total GULP energy -133625.872596 kJ/mol
# GULP energy per Si atom -5567.744691 kJ/mol
# Density = 2.517829 g / cm^3
# Si number density = 25.235729 Si / 1000 Ang^3
#
#
#
# Elastic Constant Matrix: (Units=GPa)
#
#
# Indices 1 2 3 4 5 6 
#
# 1 91.2809 10.7416 22.1022 0.0000 0.0000 0.0000
# 2 10.7416 123.8857 40.4511 0.0000 0.0000 0.0000
# 3 22.1022 40.4511 179.2608 0.0000 0.0000 0.0000
# 4 0.0000 0.0000 0.0000 68.1933 0.0000 0.0000
# 5 0.0000 0.0000 0.0000 0.0000 31.8597 0.0000
# 6 0.0000 0.0000 0.0000 0.0000 0.0000 1.9713
#
#
#
# Elastic Compliance Matrix: (Units=1/GPa)
#
#
# Indices 1 2 3 4 5 6 
#
# 1 0.011329 -0.000568 -0.001269 0.000000 0.000000 0.000000
# 2 -0.000568 0.008742 -0.001903 0.000000 0.000000 0.000000
# 3 -0.001269 -0.001903 0.006164 0.000000 0.000000 0.000000
# 4 0.000000 0.000000 0.000000 0.014664 0.000000 0.000000
# 5 0.000000 0.000000 0.000000 0.000000 0.031388 0.000000
# 6 0.000000 0.000000 0.000000 0.000000 0.000000 0.507278
#
#
# Mechanical properties :
#
#
# Convention : Reuss Voigt Hill
#
# Bulk Modulus (GPa) = 53.31339 60.11304 56.71321
# Shear Modulus (GPa) = 8.42749 41.81371 25.12060
#
# Velocity S-wave (km/s) = 1.82941 4.07495 3.15848
# Velocity P-wave (km/s) = 5.06304 6.78326 5.98527
#
# Compressibility (1/GPa) = 0.01875701
#
# Stress axis : x y z
#
# Youngs Moduli (GPa) = 88.26729 114.38385 162.22573
#
# Poissons Ratio (x) = 0.06498 0.20581
# Poissons Ratio (y) = 0.05014 0.30867
# Poissons Ratio (z) = 0.11198 0.21764
#
# Static dielectric constant tensor:
#      x y z
#    x 2.195000 0.000000 0.000000 
#    y 0.000000 1.994200 0.000000 
#    z 0.000000 0.000000 2.134590 
# 
# From -- ./inp_files/24325.got.cif
#   From: 2010.05.17/outbox.cif.g08.bks.cpg/sg21_13_cif.got.tgz:24325.got - 2010.06.03 23:14:55.
