data_PCOD9324406
_publ_section_title
;
Structure prediction by ZEFSAII (Michael W. Deem and Ramdas Pophale) SiO2 
 PCOD9324406
Probable space group: C 2 2 2
;
_chemical_formula_sum "Si O2"
_cell_formula_units_Z 64
_cell_length_a 16.670481
_cell_length_b 11.049002
_cell_length_c 15.314946
_cell_angle_alpha 90.000000
_cell_angle_beta 90.000000
_cell_angle_gamma 90.000000
_cell_volume 2820.893258
_symmetry_space_group_name_H-M "C 2 2 2"
_symmetry_group_IT_number 21
_symmetry_cell_setting 'orthorhombic'
loop_
_space_group_symop_operation_xyz
x,y,z
-x,-y,z
x,-y,-z
-x,y,-z
1/2+x,1/2+y,z
1/2-x,1/2-y,z
1/2+x,1/2-y,-z
1/2-x,1/2+y,-z
loop_
_atom_site_type_symbol
_atom_site_label
_atom_site_fract_x
_atom_site_fract_y
_atom_site_fract_z
Si Si1 0.445110 0.606468 0.323235
Si Si2 0.340885 0.287330 0.933184
Si Si3 0.673972 0.036349 0.748532
Si Si4 0.106033 0.278228 0.120350
Si Si5 0.344749 0.491052 0.174871
Si Si6 0.339660 0.883517 0.548900
Si Si7 0.944998 0.325672 0.214668
Si Si8 0.342154 0.634792 0.480627
O O1 0.500000 0.500000 0.364110
O O2 0.413627 0.540782 0.237097
O O3 0.478272 0.735227 0.289707
O O4 0.369795 0.647733 0.381645
O O5 0.250000 0.250000 0.948094
O O6 0.344634 0.429809 0.912958
O O7 0.373732 0.230247 0.843827
O O8 0.387596 0.236895 0.016692
O O9 0.662971 0.128561 0.829117
O O10 0.762025 0.986258 0.772022
O O11 0.673923 0.093716 0.651580
O O12 0.597811 0.945423 0.749362
O O13 0.132832 0.147085 0.156169
O O14 0.019165 0.327621 0.148403
O O15 0.376878 0.750526 0.532506
O O16 0.252410 0.871932 0.501571
O O17 0.378278 0.000000 0.500000
O O18 0.372216 0.500000 0.500000
#
# Coordination Sequence:
#
# PCOD9324406 Si02
#       8
#     8   8   8   8   8   8   8   8
#     4  11  23  42  70  99 146 187 243 314 384 453
#     4  11  23  45  71 105 145 187 252 310 369 443
#     4  12  25  43  75  99 150 193 256 311 368 468
#     4  12  26  42  69 104 149 197 241 309 374 446
#     4  11  23  42  70 106 139 194 252 307 369 445
#     4  10  22  41  67 105 139 187 246 313 381 454
#     4  11  25  47  68 106 143 201 242 298 381 450
#     4  10  22  38  64 101 143 175 240 308 386 446
#
# _framework density 22.687849
#
# number of rings (size 3 to 8) (size 9 to 14) (size 15 to 20)
#    0.000    1.000    2.500    4.500    5.250    1.750 
#    0.000    2.500    0.000    4.500    0.000    0.000 
#    0.000    0.000    0.000    0.000    0.000    0.000 
#
# Total GULP energy -178458.551385 kJ/mol
# GULP energy per Si atom -5576.829731 kJ/mol
# Density = 2.263621 g / cm^3
# Si number density = 22.687849 Si / 1000 Ang^3
#
#
#
# Elastic Constant Matrix: (Units=GPa)
#
#
# Indices 1 2 3 4 5 6 
#
# 1 73.6536 16.2044 20.0566 0.0000 0.0000 0.0000
# 2 16.2044 118.2111 32.3432 0.0000 0.0000 0.0000
# 3 20.0566 32.3432 97.7569 0.0000 0.0000 0.0000
# 4 0.0000 0.0000 0.0000 52.3706 0.0000 0.0000
# 5 0.0000 0.0000 0.0000 0.0000 44.7766 0.0000
# 6 0.0000 0.0000 0.0000 0.0000 0.0000 18.2849
#
#
#
# Elastic Compliance Matrix: (Units=1/GPa)
#
#
# Indices 1 2 3 4 5 6 
#
# 1 0.014559 -0.001296 -0.002558 0.000000 0.000000 0.000000
# 2 -0.001296 0.009417 -0.002850 0.000000 0.000000 0.000000
# 3 -0.002558 -0.002850 0.011697 0.000000 0.000000 0.000000
# 4 0.000000 0.000000 0.000000 0.019095 0.000000 0.000000
# 5 0.000000 0.000000 0.000000 0.000000 0.022333 0.000000
# 6 0.000000 0.000000 0.000000 0.000000 0.000000 0.054690
#
#
# Mechanical properties :
#
#
# Convention : Reuss Voigt Hill
#
# Bulk Modulus (GPa) = 44.91317 47.42557 46.16937
# Shear Modulus (GPa) = 32.76114 37.82090 35.29102
#
# Velocity S-wave (km/s) = 3.80412 4.08733 3.94827
# Velocity P-wave (km/s) = 6.25573 6.57449 6.41709
#
# Compressibility (1/GPa) = 0.02226518
#
# Stress axis : x y z
#
# Youngs Moduli (GPa) = 68.68697 106.19354 85.49064
#
# Poissons Ratio (x) = 0.13760 0.21871
# Poissons Ratio (y) = 0.08900 0.24362
# Poissons Ratio (z) = 0.17572 0.30262
#
# Static dielectric constant tensor:
#      x y z
#    x 1.862660 0.000000 0.000000 
#    y 0.000000 1.988360 0.000000 
#    z 0.000000 0.000000 1.844220 
# 
# From -- ./inp_files/32988.got.cif
#   From: 2010.05.17/outbox.cif.g08.bks.cpg/sg21_17_cif.got.tgz:32988.got - 2010.06.03 23:14:55.
