data_PCOD9324869
_publ_section_title
;
Structure prediction by ZEFSAII (Michael W. Deem and Ramdas Pophale) SiO2 
 PCOD9324869
Probable space group: C 2 2 2
;
_chemical_formula_sum "Si O2"
_cell_formula_units_Z 30
_cell_length_a 5.100792
_cell_length_b 14.251829
_cell_length_c 17.541462
_cell_angle_alpha 90.000000
_cell_angle_beta 90.000000
_cell_angle_gamma 90.000000
_cell_volume 1275.187374
_symmetry_space_group_name_H-M "C 2 2 2"
_symmetry_group_IT_number 21
_symmetry_cell_setting 'orthorhombic'
loop_
_space_group_symop_operation_xyz
x,y,z
-x,-y,z
x,-y,-z
-x,y,-z
1/2+x,1/2+y,z
1/2-x,1/2-y,z
1/2+x,1/2-y,-z
1/2-x,1/2+y,-z
loop_
_atom_site_type_symbol
_atom_site_label
_atom_site_fract_x
_atom_site_fract_y
_atom_site_fract_z
Si Si1 0.491784 0.613464 0.672118
Si Si2 0.500000 0.500000 0.000000
Si Si3 0.492980 0.110819 0.761787
Si Si4 0.250000 0.750000 0.548426
Si Si5 0.867269 0.348394 0.920166
O O1 0.500000 0.500000 0.660199
O O2 0.285952 0.638941 0.738929
O O3 0.378509 0.667942 0.599681
O O4 0.775195 0.644994 0.702668
O O5 0.672826 0.433114 0.944427
O O6 0.441106 0.126153 0.850848
O O7 0.500000 0.000000 0.751255
O O8 0.500000 0.786233 0.500000
O O9 0.750000 0.250000 0.894811
O O10 0.000000 0.327002 0.000000
#
# Coordination Sequence:
#
# PCOD9324869 Si02
#       5
#     8   2   8   4   8
#     4  10  24  47  72 111 147 193 245 300 375 446
#     4  12  26  48  72  96 160 192 276 320 386 434
#     4  10  23  44  74 102 149 197 250 314 372 437
#     4  12  26  48  78 116 152 190 244 300 378 464
#     4  12  27  46  69 106 147 205 261 319 385 442
#
# _framework density 23.525953000000001
#
# number of rings (size 3 to 8) (size 9 to 14) (size 15 to 20)
#    0.000    1.067    1.333    3.600   11.200    0.533 
#    0.000    1.333    0.000    0.000    0.000    0.000 
#    0.000    0.000    0.000    0.000    0.000    0.000 
#
# Total GULP energy -83845.388078 kJ/mol
# GULP energy per Si atom -5589.692539 kJ/mol
# Density = 2.347241 g / cm^3
# Si number density = 23.525953 Si / 1000 Ang^3
#
#
#
# Elastic Constant Matrix: (Units=GPa)
#
#
# Indices 1 2 3 4 5 6 
#
# 1 101.6438 33.0327 46.8906 0.0000 0.0000 0.0000
# 2 33.0327 145.7375 40.2687 0.0000 0.0000 0.0000
# 3 46.8906 40.2687 131.2901 0.0000 0.0000 0.0000
# 4 0.0000 0.0000 0.0000 16.4917 0.0000 0.0000
# 5 0.0000 0.0000 0.0000 0.0000 55.9964 0.0000
# 6 0.0000 0.0000 0.0000 0.0000 0.0000 12.3180
#
#
#
# Elastic Compliance Matrix: (Units=1/GPa)
#
#
# Indices 1 2 3 4 5 6 
#
# 1 0.012152 -0.001699 -0.003819 0.000000 0.000000 0.000000
# 2 -0.001699 0.007735 -0.001765 0.000000 0.000000 0.000000
# 3 -0.003819 -0.001765 0.009522 0.000000 0.000000 0.000000
# 4 0.000000 0.000000 0.000000 0.060637 0.000000 0.000000
# 5 0.000000 0.000000 0.000000 0.000000 0.017858 0.000000
# 6 0.000000 0.000000 0.000000 0.000000 0.000000 0.081182
#
#
# Mechanical properties :
#
#
# Convention : Reuss Voigt Hill
#
# Bulk Modulus (GPa) = 67.37769 68.78393 68.08081
# Shear Modulus (GPa) = 23.96921 34.19316 29.08118
#
# Velocity S-wave (km/s) = 3.19539 3.81651 3.51968
# Velocity P-wave (km/s) = 6.50507 6.98011 6.74677
#
# Compressibility (1/GPa) = 0.01484171
#
# Stress axis : x y z
#
# Youngs Moduli (GPa) = 82.28886 129.28918 105.01777
#
# Poissons Ratio (x) = 0.21969 0.40107
# Poissons Ratio (y) = 0.13982 0.18540
# Poissons Ratio (z) = 0.31427 0.22825
#
# Static dielectric constant tensor:
#      x y z
#    x 1.983260 0.000000 0.000000 
#    y 0.000000 1.560800 0.000000 
#    z 0.000000 0.000000 1.849130 
# 
# From -- ./inp_files/34342.got.cif
#   From: 2010.05.17/outbox.cif.g08.bks.cpg/sg21_18_cif.got.tgz:34342.got - 2010.06.03 23:14:55.
