data_PCOD9324359
_publ_section_title
;
Structure prediction by ZEFSAII (Michael W. Deem and Ramdas Pophale) SiO2 
 PCOD9324359
Probable space group: C 2 2 2
;
_chemical_formula_sum "Si O2"
_cell_formula_units_Z 30
_cell_length_a 30.292353
_cell_length_b 5.602440
_cell_length_c 7.691650
_cell_angle_alpha 90.000000
_cell_angle_beta 90.000000
_cell_angle_gamma 90.000000
_cell_volume 1305.358306
_symmetry_space_group_name_H-M "C 2 2 2"
_symmetry_group_IT_number 21
_symmetry_cell_setting 'orthorhombic'
loop_
_space_group_symop_operation_xyz
x,y,z
-x,-y,z
x,-y,-z
-x,y,-z
1/2+x,1/2+y,z
1/2-x,1/2-y,z
1/2+x,1/2-y,-z
1/2-x,1/2+y,-z
loop_
_atom_site_type_symbol
_atom_site_label
_atom_site_fract_x
_atom_site_fract_y
_atom_site_fract_z
Si Si1 0.455897 0.852622 0.262341
Si Si2 0.369750 0.111673 0.304884
Si Si3 0.092361 0.000000 0.500000
Si Si4 0.000000 0.000000 0.000000
Si Si5 0.227039 0.500682 0.713146
O O1 0.439579 0.702752 0.427576
O O2 0.469158 0.665521 0.116233
O O3 0.500000 0.000000 0.294453
O O4 0.413950 0.015662 0.215747
O O5 0.377059 0.391542 0.347686
O O6 0.323694 0.028921 0.226546
O O7 0.368437 0.000000 0.500000
O O8 0.227550 0.500000 0.500000
O O9 0.250000 0.750000 0.766014
O O10 0.250000 0.250000 0.766325
#
# Coordination Sequence:
#
# PCOD9324359 Si02
#       5
#     8   8   4   2   8
#     4  11  24  40  58  86 120 155 207 250 307 372
#     4   9  20  33  54  83 122 158 203 237 305 364
#     4  10  22  37  62  88 124 162 196 254 307 374
#     4  12  26  42  60  78 120 158 206 252 312 364
#     4   9  18  29  50  80 123 165 200 242 301 363
#
# _framework density 22.982195000000001
#
# number of rings (size 3 to 8) (size 9 to 14) (size 15 to 20)
#    0.000    2.133    0.000    2.000   13.067   12.800 
#    0.000    0.000    0.000    0.000    0.000    0.000 
#   16.000    0.000    0.000    0.000    0.000    0.000 
#
# Total GULP energy -83789.261811 kJ/mol
# GULP energy per Si atom -5585.950787 kJ/mol
# Density = 2.292989 g / cm^3
# Si number density = 22.982195 Si / 1000 Ang^3
#
#
#
# Elastic Constant Matrix: (Units=GPa)
#
#
# Indices 1 2 3 4 5 6 
#
# 1 236.4316 114.3056 21.2478 0.0000 0.0000 0.0000
# 2 114.3056 165.3386 15.7640 0.0000 0.0000 0.0000
# 3 21.2478 15.7640 37.4625 0.0000 0.0000 0.0000
# 4 0.0000 0.0000 0.0000 18.1994 0.0000 0.0000
# 5 0.0000 0.0000 0.0000 0.0000 -9.5246 0.0000
# 6 0.0000 0.0000 0.0000 0.0000 0.0000 23.8172
#
#
#
# Elastic Compliance Matrix: (Units=1/GPa)
#
#
# Indices 1 2 3 4 5 6 
#
# 1 0.006475 -0.004299 -0.001864 0.000000 0.000000 0.000000
# 2 -0.004299 0.009155 -0.001414 0.000000 0.000000 0.000000
# 3 -0.001864 -0.001414 0.028345 0.000000 0.000000 0.000000
# 4 0.000000 0.000000 0.000000 0.054947 0.000000 0.000000
# 5 0.000000 0.000000 0.000000 0.000000 -0.104991 0.000000
# 6 0.000000 0.000000 0.000000 0.000000 0.000000 0.041986
#
#
# Mechanical properties :
#
#
# Convention : Reuss Voigt Hill
#
# Bulk Modulus (GPa) = 34.69532 82.42972 58.56252
# Shear Modulus (GPa) = 82.39977 25.69275 54.04626
#
# Velocity S-wave (km/s) = 5.99430 3.34719 4.85465
# Velocity P-wave (km/s) = 7.93966 7.13322 7.54722
#
# Compressibility (1/GPa) = 0.02882234
#
# Stress axis : x y z
#
# Youngs Moduli (GPa) = 154.42865 109.22810 35.27898
#
# Poissons Ratio (x) = 0.46958 0.06575
# Poissons Ratio (y) = 0.66390 0.04989
# Poissons Ratio (z) = 0.28781 0.15446
#
# Static dielectric constant tensor:
#      x y z
#    x 1.974180 0.000000 0.000000 
#    y 0.000000 1.969260 0.000000 
#    z 0.000000 0.000000 1.908560 
# 
# From -- ./inp_files/19337.got.cif
#   From: 2010.05.17/outbox.cif.g08.bks.cpg/sg21_10_cif.got.tgz:19337.got - 2010.06.03 23:14:55.
