data_PCOD9324050
_publ_section_title
;
Structure prediction by ZEFSAII (Michael W. Deem and Ramdas Pophale) SiO2 
 PCOD9324050
Probable space group: C 2 2 2
;
_chemical_formula_sum "Si O2"
_cell_formula_units_Z 34
_cell_length_a 26.487271
_cell_length_b 5.371591
_cell_length_c 13.858202
_cell_angle_alpha 90.000000
_cell_angle_beta 90.000000
_cell_angle_gamma 90.000000
_cell_volume 1971.728164
_symmetry_space_group_name_H-M "C 2 2 2"
_symmetry_group_IT_number 21
_symmetry_cell_setting 'orthorhombic'
loop_
_space_group_symop_operation_xyz
x,y,z
-x,-y,z
x,-y,-z
-x,y,-z
1/2+x,1/2+y,z
1/2-x,1/2-y,z
1/2+x,1/2-y,-z
1/2-x,1/2+y,-z
loop_
_atom_site_type_symbol
_atom_site_label
_atom_site_fract_x
_atom_site_fract_y
_atom_site_fract_z
Si Si1 0.891655 0.995118 0.797471
Si Si2 0.217640 0.000097 0.885979
Si Si3 0.000000 0.500000 0.500000
Si Si4 0.554953 0.606014 0.394161
Si Si5 0.940235 0.506439 0.115243
O O1 0.904792 0.038963 0.685437
O O2 0.917455 0.233607 0.848302
O O3 0.832831 0.997988 0.823287
O O4 0.914752 0.734982 0.835861
O O5 0.250000 0.250000 0.868836
O O6 0.250000 0.750000 0.868629
O O7 0.203415 0.000000 0.000000
O O8 0.039490 0.382935 0.423270
O O9 0.500000 0.500000 0.362917
O O10 0.566965 0.500000 0.500000
O O11 0.000000 0.500000 0.135415
O O12 0.932707 0.500000 0.000000
#
# Coordination Sequence:
#
# PCOD9324050 Si02
#       5
#     8   8   2   8   8
#     4  12  23  36  62  84 113 158 198 237 292 347
#     4  10  21  39  59  81 111 148 197 251 292 336
#     4   8  18  36  56  78 126 156 186 248 278 344
#     4   9  20  35  56  85 118 151 196 233 287 344
#     4  11  23  36  52  84 124 155 186 227 283 358
#
# _framework density 17.243756000000001
#
# number of rings (size 3 to 8) (size 9 to 14) (size 15 to 20)
#    0.000    1.882    0.000    5.647    8.235    3.765 
#    0.000    0.000    0.000    1.412    0.000    0.000 
#    0.000    0.000    0.000    0.000    0.000    0.000 
#
# Total GULP energy -94738.474261 kJ/mol
# GULP energy per Si atom -5572.851427 kJ/mol
# Density = 1.720451 g / cm^3
# Si number density = 17.243756 Si / 1000 Ang^3
#
#
#
# Elastic Constant Matrix: (Units=GPa)
#
#
# Indices 1 2 3 4 5 6 
#
# 1 105.7567 25.5418 72.7415 0.0000 0.0000 0.0000
# 2 25.5418 86.5277 23.4182 0.0000 0.0000 0.0000
# 3 72.7415 23.4182 88.3127 0.0000 0.0000 0.0000
# 4 0.0000 0.0000 0.0000 64.8484 0.0000 0.0000
# 5 0.0000 0.0000 0.0000 0.0000 33.5106 0.0000
# 6 0.0000 0.0000 0.0000 0.0000 0.0000 23.9082
#
#
#
# Elastic Compliance Matrix: (Units=1/GPa)
#
#
# Indices 1 2 3 4 5 6 
#
# 1 0.022049 -0.001716 -0.017706 0.000000 0.000000 0.000000
# 2 -0.001716 0.012584 -0.001923 0.000000 0.000000 0.000000
# 3 -0.017706 -0.001923 0.026417 0.000000 0.000000 0.000000
# 4 0.000000 0.000000 0.000000 0.015421 0.000000 0.000000
# 5 0.000000 0.000000 0.000000 0.000000 0.029841 0.000000
# 6 0.000000 0.000000 0.000000 0.000000 0.000000 0.041827
#
#
# Mechanical properties :
#
#
# Convention : Reuss Voigt Hill
#
# Bulk Modulus (GPa) = 54.46876 58.22222 56.34549
# Shear Modulus (GPa) = 25.38721 35.04649 30.21685
#
# Velocity S-wave (km/s) = 3.84116 4.51312 4.19063
# Velocity P-wave (km/s) = 7.16441 7.80995 7.49413
#
# Compressibility (1/GPa) = 0.01835915
#
# Stress axis : x y z
#
# Youngs Moduli (GPa) = 45.35421 79.46494 37.85386
#
# Poissons Ratio (x) = 0.13640 0.67024
# Poissons Ratio (y) = 0.07785 0.07280
# Poissons Ratio (z) = 0.80304 0.15282
#
# Static dielectric constant tensor:
#      x y z
#    x 1.543650 0.000000 0.000000 
#    y 0.000000 1.699330 0.000000 
#    z 0.000000 0.000000 1.578720 
# 
# From -- ./inp_files/20984.got.cif
#   From: 2010.05.17/outbox.cif.g08.bks.cpg/sg21_11_cif.got.tgz:20984.got - 2010.06.03 23:14:55.
