data_PCOD9324421
_publ_section_title
;
Structure prediction by ZEFSAII (Michael W. Deem and Ramdas Pophale) SiO2 
 PCOD9324421
Probable space group: C 2 2 2
;
_chemical_formula_sum "Si O2"
_cell_formula_units_Z 48
_cell_length_a 8.681380
_cell_length_b 28.187666
_cell_length_c 9.315798
_cell_angle_alpha 90.000000
_cell_angle_beta 90.000000
_cell_angle_gamma 90.000000
_cell_volume 2279.648805
_symmetry_space_group_name_H-M "C 2 2 2"
_symmetry_group_IT_number 21
_symmetry_cell_setting 'orthorhombic'
loop_
_space_group_symop_operation_xyz
x,y,z
-x,-y,z
x,-y,-z
-x,y,-z
1/2+x,1/2+y,z
1/2-x,1/2-y,z
1/2+x,1/2-y,-z
1/2-x,1/2+y,-z
loop_
_atom_site_type_symbol
_atom_site_label
_atom_site_fract_x
_atom_site_fract_y
_atom_site_fract_z
Si Si1 0.279727 0.122415 0.749316
Si Si2 0.994343 0.944812 0.827040
Si Si3 0.272346 0.119565 0.243246
Si Si4 0.500000 0.116793 0.500000
Si Si5 0.116395 0.214292 0.124686
Si Si6 0.609468 0.284830 0.366621
Si Si7 0.500000 0.880094 0.000000
O O1 0.163329 0.081715 0.792783
O O2 0.386515 0.099493 0.625630
O O3 0.184505 0.166836 0.689947
O O4 0.380193 0.142033 0.884602
O O5 0.132561 0.917367 0.745805
O O6 0.000000 0.000000 0.788656
O O7 0.000000 0.940956 0.000000
O O8 0.367179 0.134472 0.386153
O O9 0.198149 0.167781 0.184793
O O10 0.384017 0.097828 0.118354
O O11 0.250000 0.250000 0.077831
O O12 0.005314 0.236412 0.246350
O O13 0.000000 0.200451 0.000000
O O14 0.500000 0.294401 0.500000
O O15 0.750000 0.250000 0.401677
#
# Coordination Sequence:
#
# PCOD9324421 Si02
#       7
#     8   8   8   4   8   8   4
#     4  11  23  45  68 102 135 184 223 288 339 411
#     4  11  23  45  76 104 133 180 237 286 343 414
#     4  11  22  45  66 100 136 182 222 284 339 411
#     4  10  26  40  71  96 138 180 216 270 357 404
#     4  12  26  42  64  98 137 177 231 286 341 403
#     4  12  27  44  66  97 138 185 233 277 337 415
#     4  10  22  38  71  94 132 174 224 272 353 402
#
# _framework density 21.055875
#
# number of rings (size 3 to 8) (size 9 to 14) (size 15 to 20)
#    0.000    0.833    3.333    3.500    7.000    0.000 
#    0.000    6.667    0.000    0.000    0.000    0.000 
#    0.000    0.000    0.000    0.000    0.000    0.000 
#
# Total GULP energy -133681.895827 kJ/mol
# GULP energy per Si atom -5570.078993 kJ/mol
# Density = 2.100795 g / cm^3
# Si number density = 21.055875 Si / 1000 Ang^3
#
#
#
# Elastic Constant Matrix: (Units=GPa)
#
#
# Indices 1 2 3 4 5 6 
#
# 1 155.7788 59.7541 70.5265 0.0000 0.0000 0.0000
# 2 59.7541 115.4497 25.8068 0.0000 0.0000 0.0000
# 3 70.5265 25.8068 130.2098 0.0000 0.0000 0.0000
# 4 0.0000 0.0000 0.0000 -30.8619 0.0000 0.0000
# 5 0.0000 0.0000 0.0000 0.0000 65.4769 0.0000
# 6 0.0000 0.0000 0.0000 0.0000 0.0000 -40.9441
#
#
#
# Elastic Compliance Matrix: (Units=1/GPa)
#
#
# Indices 1 2 3 4 5 6 
#
# 1 0.010143 -0.004208 -0.004660 0.000000 0.000000 0.000000
# 2 -0.004208 0.010809 0.000137 0.000000 0.000000 0.000000
# 3 -0.004660 0.000137 0.010177 0.000000 0.000000 0.000000
# 4 0.000000 0.000000 0.000000 -0.032402 0.000000 0.000000
# 5 0.000000 0.000000 0.000000 0.000000 0.015273 0.000000
# 6 0.000000 0.000000 0.000000 0.000000 0.000000 -0.024424
#
#
# Mechanical properties :
#
#
# Convention : Reuss Voigt Hill
#
# Bulk Modulus (GPa) = 73.16929 79.29036 76.22983
# Shear Modulus (GPa) = 431.25740 15.09089 223.17414
#
# Velocity S-wave (km/s) = 14.32691 2.68004 10.30638
# Velocity P-wave (km/s) = 17.56434 6.87864 13.33832
#
# Compressibility (1/GPa) = 0.01366694
#
# Stress axis : x y z
#
# Youngs Moduli (GPa) = 98.58720 92.51320 98.26319
#
# Poissons Ratio (x) = 0.38932 0.45790
# Poissons Ratio (y) = 0.41488 -0.01347
# Poissons Ratio (z) = 0.45941 -0.01268
#
# Static dielectric constant tensor:
#      x y z
#    x 1.787480 0.000000 0.000000 
#    y 0.000000 1.718580 0.000000 
#    z 0.000000 0.000000 1.843850 
# 
# From -- ./inp_files/11595.got.cif
#   From: 2010.05.17/outbox.cif.g08.bks.cpg/sg21_6_cif.got.tgz:11595.got - 2010.06.03 23:14:55.
