data_PCOD9324831
_publ_section_title
;
Structure prediction by ZEFSAII (Michael W. Deem and Ramdas Pophale) SiO2 
 PCOD9324831
Probable space group: C 2 2 2
;
_chemical_formula_sum "Si O2"
_cell_formula_units_Z 18
_cell_length_a 5.259579
_cell_length_b 28.987860
_cell_length_c 5.083045
_cell_angle_alpha 90.000000
_cell_angle_beta 90.000000
_cell_angle_gamma 90.000000
_cell_volume 774.981066
_symmetry_space_group_name_H-M "C 2 2 2"
_symmetry_group_IT_number 21
_symmetry_cell_setting 'orthorhombic'
loop_
_space_group_symop_operation_xyz
x,y,z
-x,-y,z
x,-y,-z
-x,y,-z
1/2+x,1/2+y,z
1/2-x,1/2-y,z
1/2+x,1/2-y,-z
1/2-x,1/2+y,-z
loop_
_atom_site_type_symbol
_atom_site_label
_atom_site_fract_x
_atom_site_fract_y
_atom_site_fract_z
Si Si1 0.000000 0.219482 0.500000
Si Si2 0.253150 0.412707 0.665743
Si Si3 0.500000 0.500000 0.500000
Si Si4 0.000000 0.845057 0.000000
O O1 0.750000 0.250000 0.448551
O O2 0.946817 0.188440 0.756176
O O3 0.500000 0.397065 0.500000
O O4 0.322359 0.467120 0.680303
O O5 0.275820 0.380881 0.920325
O O6 0.000000 0.406678 0.500000
#
# Coordination Sequence:
#
# PCOD9324831 Si02
#       4
#     4   8   2   4
#     4  12  29  50  78 107 150 193 254 322 391 464
#     4  10  23  42  74 105 154 197 251 305 367 455
#     4   8  20  46  62 114 146 206 242 310 368 438
#     4  12  26  51  74 116 146 204 250 319 388 454
#
# _framework density 23.226376999999999
#
# number of rings (size 3 to 8) (size 9 to 14) (size 15 to 20)
#    1.333    0.000    2.222    2.000    3.111    6.222 
#    0.000    0.000    9.778    0.000    0.000    0.000 
#    0.000    0.000    0.000    0.000    0.000    0.000 
#
# Total GULP energy -50187.715666 kJ/mol
# GULP energy per Si atom -5576.412852 kJ/mol
# Density = 2.317351 g / cm^3
# Si number density = 23.226377 Si / 1000 Ang^3
#
#
#
# Elastic Constant Matrix: (Units=GPa)
#
#
# Indices 1 2 3 4 5 6 
#
# 1 194.9874 62.5790 56.4602 0.0000 0.0000 0.0000
# 2 62.5790 172.7908 80.2986 0.0000 0.0000 0.0000
# 3 56.4602 80.2986 139.2919 0.0000 0.0000 0.0000
# 4 0.0000 0.0000 0.0000 38.7244 0.0000 0.0000
# 5 0.0000 0.0000 0.0000 0.0000 29.0390 0.0000
# 6 0.0000 0.0000 0.0000 0.0000 0.0000 -45.5481
#
#
#
# Elastic Compliance Matrix: (Units=1/GPa)
#
#
# Indices 1 2 3 4 5 6 
#
# 1 0.006062 -0.001439 -0.001627 0.000000 0.000000 0.000000
# 2 -0.001439 0.008247 -0.004171 0.000000 0.000000 0.000000
# 3 -0.001627 -0.004171 0.010243 0.000000 0.000000 0.000000
# 4 0.000000 0.000000 0.000000 0.025824 0.000000 0.000000
# 5 0.000000 0.000000 0.000000 0.000000 0.034436 0.000000
# 6 0.000000 0.000000 0.000000 0.000000 0.000000 -0.021955
#
#
# Mechanical properties :
#
#
# Convention : Reuss Voigt Hill
#
# Bulk Modulus (GPa) = 99.23504 100.63841 99.93672
# Shear Modulus (GPa) = 61.96543 24.95854 43.46198
#
# Velocity S-wave (km/s) = 5.17077 3.28163 4.33047
# Velocity P-wave (km/s) = 8.85816 7.60146 8.25376
#
# Compressibility (1/GPa) = 0.01007709
#
# Stress axis : x y z
#
# Youngs Moduli (GPa) = 164.97267 121.26023 97.62592
#
# Poissons Ratio (x) = 0.17450 0.15888
# Poissons Ratio (y) = 0.23740 0.40717
# Poissons Ratio (z) = 0.26848 0.50575
#
# Static dielectric constant tensor:
#      x y z
#    x 1.764940 0.000000 0.000000 
#    y 0.000000 1.949840 0.000000 
#    z 0.000000 0.000000 2.025260 
# 
# From -- ./inp_files/668.got.cif
#   From: 2010.05.17/outbox.cif.g08.bks.cpg/sg21_1_cif.got.tgz:668.got - 2010.06.03 23:14:55.
