data_PCOD9324928
_publ_section_title
;
Structure prediction by ZEFSAII (Michael W. Deem and Ramdas Pophale) SiO2 
 PCOD9324928
Probable space group: C 2 2 2
;
_chemical_formula_sum "Si O2"
_cell_formula_units_Z 48
_cell_length_a 16.041442
_cell_length_b 18.126990
_cell_length_c 8.123985
_cell_angle_alpha 90.000000
_cell_angle_beta 90.000000
_cell_angle_gamma 90.000000
_cell_volume 2362.317207
_symmetry_space_group_name_H-M "C 2 2 2"
_symmetry_group_IT_number 21
_symmetry_cell_setting 'orthorhombic'
loop_
_space_group_symop_operation_xyz
x,y,z
-x,-y,z
x,-y,-z
-x,y,-z
1/2+x,1/2+y,z
1/2-x,1/2-y,z
1/2+x,1/2-y,-z
1/2-x,1/2+y,-z
loop_
_atom_site_type_symbol
_atom_site_label
_atom_site_fract_x
_atom_site_fract_y
_atom_site_fract_z
Si Si1 0.750000 0.750000 0.850572
Si Si2 0.296115 0.063266 0.144457
Si Si3 0.095719 0.301488 0.058075
Si Si4 0.175475 0.863385 0.367927
Si Si5 0.649864 0.672176 0.284067
Si Si6 0.724842 0.000000 0.500000
Si Si7 0.507341 0.587877 0.809065
O O1 0.761786 0.825195 0.754290
O O2 0.838273 0.737177 0.936776
O O3 0.372178 0.115230 0.087013
O O4 0.220924 0.124566 0.182847
O O5 0.315729 0.027864 0.325980
O O6 0.277697 0.000000 0.000000
O O7 0.115828 0.248908 0.212681
O O8 0.000000 0.298381 0.000000
O O9 0.171341 0.812272 0.527923
O O10 0.090405 0.882268 0.275037
O O11 0.215170 0.936469 0.437674
O O12 0.571549 0.618046 0.286798
O O13 0.500000 0.500000 0.807361
O O14 0.500000 0.612369 0.000000
#
# Coordination Sequence:
#
# PCOD9324928 Si02
#       7
#     4   8   8   8   8   4   8
#     4  12  24  42  72  96 140 180 234 286 344 432
#     4  11  24  44  74 101 139 185 242 295 355 416
#     4  12  26  46  71 104 138 187 237 288 359 428
#     4  11  24  40  63 101 136 182 227 287 353 414
#     4  11  23  41  68  98 142 180 230 287 356 427
#     4  10  24  40  71 103 136 186 246 290 352 422
#     4  11  23  36  62  98 141 178 223 276 342 423
#
# _framework density 20.319030999999999
#
# number of rings (size 3 to 8) (size 9 to 14) (size 15 to 20)
#    0.000    0.833    1.667    6.000    9.333    1.000 
#    0.000    0.000    0.000    6.000    0.000    0.000 
#    0.000    0.000    0.000    0.000    0.000    0.000 
#
# Total GULP energy -133770.579816 kJ/mol
# GULP energy per Si atom -5573.774159 kJ/mol
# Density = 2.027278 g / cm^3
# Si number density = 20.319031 Si / 1000 Ang^3
#
#
#
# Elastic Constant Matrix: (Units=GPa)
#
#
# Indices 1 2 3 4 5 6 
#
# 1 88.8218 34.3619 37.6491 0.0000 0.0000 0.0000
# 2 34.3619 72.2017 35.1479 0.0000 0.0000 0.0000
# 3 37.6491 35.1479 100.9303 0.0000 0.0000 0.0000
# 4 0.0000 0.0000 0.0000 -16.4460 0.0000 0.0000
# 5 0.0000 0.0000 0.0000 0.0000 43.1602 0.0000
# 6 0.0000 0.0000 0.0000 0.0000 0.0000 16.1255
#
#
#
# Elastic Compliance Matrix: (Units=1/GPa)
#
#
# Indices 1 2 3 4 5 6 
#
# 1 0.014871 -0.005270 -0.003712 0.000000 0.000000 0.000000
# 2 -0.005270 0.018545 -0.004492 0.000000 0.000000 0.000000
# 3 -0.003712 -0.004492 0.012857 0.000000 0.000000 0.000000
# 4 0.000000 0.000000 0.000000 -0.060805 0.000000 0.000000
# 5 0.000000 0.000000 0.000000 0.000000 0.023170 0.000000
# 6 0.000000 0.000000 0.000000 0.000000 0.000000 0.062014
#
#
# Mechanical properties :
#
#
# Convention : Reuss Voigt Hill
#
# Bulk Modulus (GPa) = 51.74901 52.91906 52.33403
# Shear Modulus (GPa) = 48.05824 18.88760 33.47292
#
# Velocity S-wave (km/s) = 4.86859 3.05216 4.06318
# Velocity P-wave (km/s) = 7.55829 6.20657 6.91554
#
# Compressibility (1/GPa) = 0.01932404
#
# Stress axis : x y z
#
# Youngs Moduli (GPa) = 67.24638 53.92254 77.78014
#
# Poissons Ratio (x) = 0.28419 0.28870
# Poissons Ratio (y) = 0.35441 0.34940
# Poissons Ratio (z) = 0.24960 0.24223
#
# Static dielectric constant tensor:
#      x y z
#    x 1.912330 0.000000 0.000000 
#    y 0.000000 1.799930 0.000000 
#    z 0.000000 0.000000 2.212140 
# 
# From -- ./inp_files/15017.got.cif
#   From: 2010.05.17/outbox.cif.g08.bks.cpg/sg21_8_cif.got.tgz:15017.got - 2010.06.03 23:14:55.
