data_PCOD9324776
_publ_section_title
;
Structure prediction by ZEFSAII (Michael W. Deem and Ramdas Pophale) SiO2 
 PCOD9324776
Probable space group: C 2 2 2
;
_chemical_formula_sum "Si O2"
_cell_formula_units_Z 40
_cell_length_a 10.265363
_cell_length_b 21.018434
_cell_length_c 8.630737
_cell_angle_alpha 90.000000
_cell_angle_beta 90.000000
_cell_angle_gamma 90.000000
_cell_volume 1862.183823
_symmetry_space_group_name_H-M "C 2 2 2"
_symmetry_group_IT_number 21
_symmetry_cell_setting 'orthorhombic'
loop_
_space_group_symop_operation_xyz
x,y,z
-x,-y,z
x,-y,-z
-x,y,-z
1/2+x,1/2+y,z
1/2-x,1/2-y,z
1/2+x,1/2-y,-z
1/2-x,1/2+y,-z
loop_
_atom_site_type_symbol
_atom_site_label
_atom_site_fract_x
_atom_site_fract_y
_atom_site_fract_z
Si Si1 0.174630 0.434924 0.406546
Si Si2 0.448496 0.114472 0.823569
Si Si3 0.111456 0.122069 0.623481
Si Si4 0.702205 0.519599 0.830521
Si Si5 0.607625 0.762702 0.631113
O O1 0.141892 0.500000 0.500000
O O2 0.251644 0.389726 0.527688
O O3 0.275138 0.459016 0.277208
O O4 0.055270 0.406484 0.307047
O O5 0.338999 0.059539 0.834469
O O6 0.395880 0.182208 0.759556
O O7 0.500000 0.121197 0.000000
O O8 0.105494 0.068020 0.750627
O O9 0.086598 0.191399 0.695724
O O10 0.000000 0.112395 0.500000
O O11 0.665970 0.500000 0.000000
O O12 0.500000 0.775434 0.500000
O O13 0.750000 0.750000 0.557678
#
# Coordination Sequence:
#
# PCOD9324776 Si02
#       5
#     8   8   8   8   8
#     4  10  23  39  68 106 133 177 225 286 344 399
#     4  12  24  41  67 104 142 168 223 289 358 408
#     4  10  23  45  68  97 137 182 243 272 326 417
#     4  11  22  40  68 101 141 173 214 286 362 401
#     4  11  23  44  70  98 135 186 232 289 334 406
#
# _framework density 21.480156999999998
#
# number of rings (size 3 to 8) (size 9 to 14) (size 15 to 20)
#    0.000    1.200    4.000    1.800    2.800    6.000 
#    0.000   11.000    0.000    0.000    0.000    0.000 
#    0.000    0.000    0.000    0.000    0.000    0.000 
#
# Total GULP energy -111687.526607 kJ/mol
# GULP energy per Si atom -5584.376330 kJ/mol
# Density = 2.143127 g / cm^3
# Si number density = 21.480157 Si / 1000 Ang^3
#
#
#
# Elastic Constant Matrix: (Units=GPa)
#
#
# Indices 1 2 3 4 5 6 
#
# 1 89.3006 17.6296 22.4918 0.0000 0.0000 0.0000
# 2 17.6296 122.3101 59.2243 0.0000 0.0000 0.0000
# 3 22.4918 59.2243 102.6670 0.0000 0.0000 0.0000
# 4 0.0000 0.0000 0.0000 22.6338 0.0000 0.0000
# 5 0.0000 0.0000 0.0000 0.0000 25.4641 0.0000
# 6 0.0000 0.0000 0.0000 0.0000 0.0000 28.4113
#
#
#
# Elastic Compliance Matrix: (Units=1/GPa)
#
#
# Indices 1 2 3 4 5 6 
#
# 1 0.011887 -0.000628 -0.002242 0.000000 0.000000 0.000000
# 2 -0.000628 0.011378 -0.006426 0.000000 0.000000 0.000000
# 3 -0.002242 -0.006426 0.013938 0.000000 0.000000 0.000000
# 4 0.000000 0.000000 0.000000 0.044182 0.000000 0.000000
# 5 0.000000 0.000000 0.000000 0.000000 0.039271 0.000000
# 6 0.000000 0.000000 0.000000 0.000000 0.000000 0.035197
#
#
# Mechanical properties :
#
#
# Convention : Reuss Voigt Hill
#
# Bulk Modulus (GPa) = 53.72985 56.99655 55.36320
# Shear Modulus (GPa) = 27.67813 29.63065 28.65439
#
# Velocity S-wave (km/s) = 3.59352 3.71811 3.65635
# Velocity P-wave (km/s) = 6.50276 6.71004 6.60721
#
# Compressibility (1/GPa) = 0.01861163
#
# Stress axis : x y z
#
# Youngs Moduli (GPa) = 84.12739 87.88920 71.74502
#
# Poissons Ratio (x) = 0.05517 0.16085
# Poissons Ratio (y) = 0.05281 0.46103
# Poissons Ratio (z) = 0.18861 0.56477
#
# Static dielectric constant tensor:
#      x y z
#    x 1.871720 0.000000 0.000000 
#    y 0.000000 1.814880 0.000000 
#    z 0.000000 0.000000 1.738190 
# 
# From -- ./inp_files/13056.got.cif
#   From: 2010.05.17/outbox.cif.g08.bks.cpg/sg21_7_cif.got.tgz:13056.got - 2010.06.03 23:14:55.
