data_PCOD9324185
_publ_section_title
;
Structure prediction by ZEFSAII (Michael W. Deem and Ramdas Pophale) SiO2 
 PCOD9324185
Probable space group: C 2 2 2
;
_chemical_formula_sum "Si O2"
_cell_formula_units_Z 58
_cell_length_a 26.765753
_cell_length_b 12.105725
_cell_length_c 8.633698
_cell_angle_alpha 90.000000
_cell_angle_beta 90.000000
_cell_angle_gamma 90.000000
_cell_volume 2797.480856
_symmetry_space_group_name_H-M "C 2 2 2"
_symmetry_group_IT_number 21
_symmetry_cell_setting 'orthorhombic'
loop_
_space_group_symop_operation_xyz
x,y,z
-x,-y,z
x,-y,-z
-x,y,-z
1/2+x,1/2+y,z
1/2-x,1/2-y,z
1/2+x,1/2-y,-z
1/2-x,1/2+y,-z
loop_
_atom_site_type_symbol
_atom_site_label
_atom_site_fract_x
_atom_site_fract_y
_atom_site_fract_z
Si Si1 0.216828 0.917885 0.856060
Si Si2 0.403307 0.869538 0.115025
Si Si3 0.887628 0.034658 0.818262
Si Si4 0.500000 0.000000 0.000000
Si Si5 0.947671 0.774048 0.316131
Si Si6 0.937658 0.172559 0.324307
Si Si7 0.675869 0.172468 0.839032
Si Si8 0.602348 0.936281 0.341783
O O1 0.169901 0.966054 0.759351
O O2 0.274609 0.901647 0.815349
O O3 0.196160 0.793680 0.881414
O O4 0.218289 0.000000 0.000000
O O5 0.408699 0.758679 0.214729
O O6 0.383810 0.966996 0.224578
O O7 0.364389 0.855899 0.974008
O O8 0.458884 0.914934 0.073642
O O9 0.912384 0.154837 0.795952
O O10 0.919253 0.948719 0.718451
O O11 0.889181 0.000000 0.000000
O O12 0.932542 0.799042 0.494213
O O13 0.944489 0.641201 0.298014
O O14 0.003719 0.814189 0.290576
O O15 0.646103 0.154345 0.677852
O O16 0.594221 0.000000 0.500000
#
# Coordination Sequence:
#
# PCOD9324185 Si02
#       8
#     8   8   8   2   8   8   8   8
#     4  10  21  40  70 101 129 176 222 287 360 399
#     4  12  23  39  61  96 129 171 225 278 335 397
#     4  11  23  42  68  97 130 174 231 284 336 408
#     4  12  24  36  62  96 134 172 226 296 322 406
#     4  11  24  44  60  95 139 185 221 272 347 412
#     4  11  25  40  64  94 136 184 222 273 342 419
#     4  11  23  43  69  97 138 171 230 293 340 412
#     4  12  23  43  64  89 134 177 222 271 338 410
#
# _framework density 20.732939999999999
#
# number of rings (size 3 to 8) (size 9 to 14) (size 15 to 20)
#    0.000    0.828    4.138    4.138    0.000    2.207 
#    0.000    1.379    0.000    3.310    0.000    0.000 
#    0.000    0.000    0.000    0.000    0.000    0.000 
#
# Total GULP energy -161633.819164 kJ/mol
# GULP energy per Si atom -5573.579971 kJ/mol
# Density = 2.068575 g / cm^3
# Si number density = 20.732940 Si / 1000 Ang^3
#
#
#
# Elastic Constant Matrix: (Units=GPa)
#
#
# Indices 1 2 3 4 5 6 
#
# 1 140.7721 27.2605 27.2312 0.0000 0.0000 0.0000
# 2 27.2605 108.2200 18.9598 0.0000 0.0000 0.0000
# 3 27.2312 18.9598 37.8170 0.0000 0.0000 0.0000
# 4 0.0000 0.0000 0.0000 42.6983 0.0000 0.0000
# 5 0.0000 0.0000 0.0000 0.0000 17.2610 0.0000
# 6 0.0000 0.0000 0.0000 0.0000 0.0000 35.5592
#
#
#
# Elastic Compliance Matrix: (Units=1/GPa)
#
#
# Indices 1 2 3 4 5 6 
#
# 1 0.008383 -0.001156 -0.005457 0.000000 0.000000 0.000000
# 2 -0.001156 0.010290 -0.004327 0.000000 0.000000 0.000000
# 3 -0.005457 -0.004327 0.032542 0.000000 0.000000 0.000000
# 4 0.000000 0.000000 0.000000 0.023420 0.000000 0.000000
# 5 0.000000 0.000000 0.000000 0.000000 0.057934 0.000000
# 6 0.000000 0.000000 0.000000 0.000000 0.000000 0.028122
#
#
# Mechanical properties :
#
#
# Convention : Reuss Voigt Hill
#
# Bulk Modulus (GPa) = 34.08798 48.19023 41.13910
# Shear Modulus (GPa) = 25.99455 33.32756 29.66105
#
# Velocity S-wave (km/s) = 3.54472 4.01367 3.78646
# Velocity P-wave (km/s) = 5.76459 6.69128 6.24515
#
# Compressibility (1/GPa) = 0.02933585
#
# Stress axis : x y z
#
# Youngs Moduli (GPa) = 119.28763 97.18605 30.72965
#
# Poissons Ratio (x) = 0.11231 0.16770
# Poissons Ratio (y) = 0.13785 0.13295
# Poissons Ratio (z) = 0.65097 0.42048
#
# Static dielectric constant tensor:
#      x y z
#    x 1.786900 0.000000 0.000000 
#    y 0.000000 1.812060 0.000000 
#    z 0.000000 0.000000 1.788810 
# 
# From -- ./inp_files/19186.got.cif
#   From: 2010.05.17/outbox.cif.g08.bks.cpg/sg21_10_cif.got.tgz:19186.got - 2010.06.03 23:14:55.
