data_PCOD9324299
_publ_section_title
;
Structure prediction by ZEFSAII (Michael W. Deem and Ramdas Pophale) SiO2 
 PCOD9324299
Probable space group: C 2 2 2
;
_chemical_formula_sum "Si O2"
_cell_formula_units_Z 58
_cell_length_a 16.073978
_cell_length_b 10.140835
_cell_length_c 17.739095
_cell_angle_alpha 90.000000
_cell_angle_beta 90.000000
_cell_angle_gamma 90.000000
_cell_volume 2891.535613
_symmetry_space_group_name_H-M "C 2 2 2"
_symmetry_group_IT_number 21
_symmetry_cell_setting 'orthorhombic'
loop_
_space_group_symop_operation_xyz
x,y,z
-x,-y,z
x,-y,-z
-x,y,-z
1/2+x,1/2+y,z
1/2-x,1/2-y,z
1/2+x,1/2-y,-z
1/2-x,1/2+y,-z
loop_
_atom_site_type_symbol
_atom_site_label
_atom_site_fract_x
_atom_site_fract_y
_atom_site_fract_z
Si Si1 0.156749 0.961643 0.757677
Si Si2 0.843931 0.519333 0.735271
Si Si3 0.500000 0.000000 0.000000
Si Si4 0.672483 0.436913 0.079968
Si Si5 0.576488 0.769744 0.334419
Si Si6 0.135872 0.629321 0.102760
Si Si7 0.121038 0.222703 0.657671
Si Si8 0.899134 0.153143 0.506218
O O1 0.110122 0.834991 0.726182
O O2 0.256016 0.949079 0.749423
O O3 0.141368 0.984972 0.846313
O O4 0.133062 0.089119 0.706197
O O5 0.899599 0.416522 0.689981
O O6 0.880536 0.571703 0.814078
O O7 0.829256 0.654655 0.690811
O O8 0.561250 0.086100 0.050341
O O9 0.773598 0.429886 0.080867
O O10 0.644914 0.286590 0.095610
O O11 0.646463 0.500000 0.000000
O O12 0.477270 0.755866 0.337666
O O13 0.616734 0.724750 0.414485
O O14 0.139044 0.213283 0.569049
O O15 0.000000 0.156261 0.500000
O O16 0.875046 0.000000 0.500000
#
# Coordination Sequence:
#
# PCOD9324299 Si02
#       8
#     8   8   2   8   8   8   8   8
#     4  11  22  41  65  90 122 170 211 251 315 380
#     4  11  24  41  60  91 134 165 199 260 319 380
#     4  12  24  40  66 100 120 160 208 274 320 360
#     4  10  21  44  65  89 122 174 211 249 309 399
#     4  11  23  39  64  96 123 161 217 265 305 369
#     4  10  23  41  65  91 130 166 205 255 327 372
#     4  11  21  40  67  89 121 171 212 256 313 378
#     4   9  18  36  62  90 125 163 208 260 318 373
#
# _framework density 20.058544000000001
#
# number of rings (size 3 to 8) (size 9 to 14) (size 15 to 20)
#    0.000    1.517    3.448    1.655    1.931    1.655 
#    2.483    6.552    0.000    0.000    0.000    0.000 
#    0.000    0.000    0.000    0.000    0.000    0.000 
#
# Total GULP energy -161937.573455 kJ/mol
# GULP energy per Si atom -5584.054257 kJ/mol
# Density = 2.001289 g / cm^3
# Si number density = 20.058544 Si / 1000 Ang^3
#
#
#
# Elastic Constant Matrix: (Units=GPa)
#
#
# Indices 1 2 3 4 5 6 
#
# 1 46.6227 11.8804 21.1427 0.0000 0.0000 0.0000
# 2 11.8804 84.2815 48.0209 0.0000 0.0000 0.0000
# 3 21.1427 48.0209 162.9416 0.0000 0.0000 0.0000
# 4 0.0000 0.0000 0.0000 42.9040 0.0000 0.0000
# 5 0.0000 0.0000 0.0000 0.0000 6.5492 0.0000
# 6 0.0000 0.0000 0.0000 0.0000 0.0000 24.2139
#
#
#
# Elastic Compliance Matrix: (Units=1/GPa)
#
#
# Indices 1 2 3 4 5 6 
#
# 1 0.023029 -0.001855 -0.002441 0.000000 0.000000 0.000000
# 2 -0.001855 0.014409 -0.004006 0.000000 0.000000 0.000000
# 3 -0.002441 -0.004006 0.007634 0.000000 0.000000 0.000000
# 4 0.000000 0.000000 0.000000 0.023308 0.000000 0.000000
# 5 0.000000 0.000000 0.000000 0.000000 0.152689 0.000000
# 6 0.000000 0.000000 0.000000 0.000000 0.000000 0.041299
#
#
# Mechanical properties :
#
#
# Convention : Reuss Voigt Hill
#
# Bulk Modulus (GPa) = 35.12782 50.65931 42.89356
# Shear Modulus (GPa) = 17.33333 28.92021 23.12677
#
# Velocity S-wave (km/s) = 2.94281 3.80121 3.39922
# Velocity P-wave (km/s) = 5.39421 6.67654 6.06934
#
# Compressibility (1/GPa) = 0.02846746
#
# Stress axis : x y z
#
# Youngs Moduli (GPa) = 43.42425 69.40178 130.98436
#
# Poissons Ratio (x) = 0.12875 0.31978
# Poissons Ratio (y) = 0.08056 0.52469
# Poissons Ratio (z) = 0.10602 0.27801
#
# Static dielectric constant tensor:
#      x y z
#    x 1.709890 0.000000 0.000000 
#    y 0.000000 1.685970 0.000000 
#    z 0.000000 0.000000 1.800860 
# 
# From -- ./inp_files/36914.got.cif
#   From: 2010.05.17/outbox.cif.g08.bks.cpg/sg21_19_cif.got.tgz:36914.got - 2010.06.03 23:14:55.
