data_PCOD9324439
_publ_section_title
;
Structure prediction by ZEFSAII (Michael W. Deem and Ramdas Pophale) SiO2 
 PCOD9324439
Probable space group: C 2 2 2
;
_chemical_formula_sum "Si O2"
_cell_formula_units_Z 60
_cell_length_a 21.299414
_cell_length_b 25.133058
_cell_length_c 5.128867
_cell_angle_alpha 90.000000
_cell_angle_beta 90.000000
_cell_angle_gamma 90.000000
_cell_volume 2745.582043
_symmetry_space_group_name_H-M "C 2 2 2"
_symmetry_group_IT_number 21
_symmetry_cell_setting 'orthorhombic'
loop_
_space_group_symop_operation_xyz
x,y,z
-x,-y,z
x,-y,-z
-x,y,-z
1/2+x,1/2+y,z
1/2-x,1/2-y,z
1/2+x,1/2-y,-z
1/2-x,1/2+y,-z
loop_
_atom_site_type_symbol
_atom_site_label
_atom_site_fract_x
_atom_site_fract_y
_atom_site_fract_z
Si Si1 0.913754 0.943210 0.871810
Si Si2 0.189256 0.362522 0.767771
Si Si3 0.257709 0.811541 0.716385
Si Si4 0.427832 0.757545 0.004775
Si Si5 0.500000 0.378789 0.500000
Si Si6 0.221333 0.035541 0.737865
Si Si7 0.119896 0.845223 0.772713
Si Si8 0.572605 0.169426 0.495579
O O1 0.972105 0.917553 0.721281
O O2 0.851849 0.949245 0.691353
O O3 0.890565 0.900532 0.082302
O O4 0.926796 0.000000 0.000000
O O5 0.211370 0.317292 0.565323
O O6 0.234258 0.413500 0.754991
O O7 0.120596 0.373097 0.636216
O O8 0.201657 0.340417 0.058540
O O9 0.250000 0.750000 0.785563
O O10 0.190648 0.840296 0.679110
O O11 0.387047 0.705618 0.959974
O O12 0.417998 0.801595 0.775892
O O13 0.500000 0.739694 0.000000
O O14 0.419605 0.783861 0.283464
O O15 0.560226 0.343616 0.579244
O O16 0.243443 0.000000 0.500000
O O17 0.222508 0.000000 0.000000
O O18 0.500000 0.150843 0.500000
#
# Coordination Sequence:
#
# PCOD9324439 Si02
#       8
#     8   8   8   8   4   8   8   8
#     4  11  27  46  62  90 124 171 232 290 341 396
#     4  12  23  44  68 100 132 176 222 278 340 407
#     4  12  26  43  68  99 138 178 227 283 339 404
#     4  10  22  39  61  91 134 177 219 257 321 398
#     4  12  28  43  66  90 126 178 226 286 351 394
#     4  11  25  46  71  96 129 176 230 287 340 403
#     4  12  26  43  62  94 128 177 225 284 339 399
#     4  10  22  40  67 100 135 173 212 263 325 409
#
# _framework density 21.853287999999999
#
# number of rings (size 3 to 8) (size 9 to 14) (size 15 to 20)
#    0.000    0.800    1.333    5.600   10.267    1.600 
#    0.000    0.000    0.000    0.400    0.000    0.933 
#    0.000    0.000    0.000    0.000    0.000    0.000 
#
# Total GULP energy -167723.077890 kJ/mol
# GULP energy per Si atom -5590.769263 kJ/mol
# Density = 2.180355 g / cm^3
# Si number density = 21.853288 Si / 1000 Ang^3
#
#
#
# Elastic Constant Matrix: (Units=GPa)
#
#
# Indices 1 2 3 4 5 6 
#
# 1 144.3787 29.8805 26.1206 0.0000 0.0000 0.0000
# 2 29.8805 52.9915 10.4142 0.0000 0.0000 0.0000
# 3 26.1206 10.4142 72.1273 0.0000 0.0000 0.0000
# 4 0.0000 0.0000 0.0000 31.6247 0.0000 0.0000
# 5 0.0000 0.0000 0.0000 0.0000 39.4297 0.0000
# 6 0.0000 0.0000 0.0000 0.0000 0.0000 25.3570
#
#
#
# Elastic Compliance Matrix: (Units=1/GPa)
#
#
# Indices 1 2 3 4 5 6 
#
# 1 0.008218 -0.004167 -0.002375 0.000000 0.000000 0.000000
# 2 -0.004167 0.021535 -0.001600 0.000000 0.000000 0.000000
# 3 -0.002375 -0.001600 0.014955 0.000000 0.000000 0.000000
# 4 0.000000 0.000000 0.000000 0.031621 0.000000 0.000000
# 5 0.000000 0.000000 0.000000 0.000000 0.025362 0.000000
# 6 0.000000 0.000000 0.000000 0.000000 0.000000 0.039437
#
#
# Mechanical properties :
#
#
# Convention : Reuss Voigt Hill
#
# Bulk Modulus (GPa) = 35.18065 44.70313 39.94189
# Shear Modulus (GPa) = 29.96030 32.82108 31.39069
#
# Velocity S-wave (km/s) = 3.70668 3.87962 3.79414
# Velocity P-wave (km/s) = 5.86966 6.36938 6.12462
#
# Compressibility (1/GPa) = 0.02842471
#
# Stress axis : x y z
#
# Youngs Moduli (GPa) = 121.67951 46.43532 66.86578
#
# Poissons Ratio (x) = 0.19352 0.15877
# Poissons Ratio (y) = 0.50709 0.10700
# Poissons Ratio (z) = 0.28893 0.07431
#
# Static dielectric constant tensor:
#      x y z
#    x 1.930240 0.000000 0.000000 
#    y 0.000000 1.696470 0.000000 
#    z 0.000000 0.000000 1.841310 
# 
# From -- ./inp_files/6112.got.cif
#   From: 2010.05.17/outbox.cif.g08.bks.cpg/sg21_4_cif.got.tgz:6112.got - 2010.06.03 23:14:55.
