data_PCOD9324657
_publ_section_title
;
Structure prediction by ZEFSAII (Michael W. Deem and Ramdas Pophale) SiO2 
 PCOD9324657
Probable space group: C 2 2 2
;
_chemical_formula_sum "Si O2"
_cell_formula_units_Z 24
_cell_length_a 15.339006
_cell_length_b 8.395152
_cell_length_c 7.331776
_cell_angle_alpha 90.000000
_cell_angle_beta 90.000000
_cell_angle_gamma 90.000000
_cell_volume 944.136894
_symmetry_space_group_name_H-M "C 2 2 2"
_symmetry_group_IT_number 21
_symmetry_cell_setting 'orthorhombic'
loop_
_space_group_symop_operation_xyz
x,y,z
-x,-y,z
x,-y,-z
-x,y,-z
1/2+x,1/2+y,z
1/2-x,1/2-y,z
1/2+x,1/2-y,-z
1/2-x,1/2+y,-z
loop_
_atom_site_type_symbol
_atom_site_label
_atom_site_fract_x
_atom_site_fract_y
_atom_site_fract_z
Si Si1 0.358159 0.952036 0.308157
Si Si2 0.226563 0.000000 0.000000
Si Si3 0.000000 0.219981 0.500000
Si Si4 0.423768 0.716328 0.849273
O O1 0.285757 0.921514 0.157465
O O2 0.429892 0.825225 0.380111
O O3 0.314194 0.000000 0.500000
O O4 0.406533 0.897795 0.786613
O O5 0.162745 0.133550 0.079979
O O6 0.947125 0.134268 0.657611
O O7 0.500000 0.705278 0.000000
#
# Coordination Sequence:
#
# PCOD9324657 Si02
#       4
#     8   4   4   8
#     4  10  22  43  69  97 127 174 234 283 327 391
#     4  12  25  40  65 104 144 174 212 282 352 400
#     4  10  23  46  75  96 123 180 239 278 325 398
#     4  11  23  42  68  97 135 181 223 273 337 406
#
# _framework density 25.420044000000001
#
# number of rings (size 3 to 8) (size 9 to 14) (size 15 to 20)
#    0.000    1.333    0.000    8.000    0.000    4.000 
#    0.000   15.000    0.000    0.000    0.000    0.000 
#    0.000    0.000    0.000    0.000    0.000    0.000 
#
# Total GULP energy -67120.755958 kJ/mol
# GULP energy per Si atom -5593.396330 kJ/mol
# Density = 2.536219 g / cm^3
# Si number density = 25.420044 Si / 1000 Ang^3
#
#
#
# Elastic Constant Matrix: (Units=GPa)
#
#
# Indices 1 2 3 4 5 6 
#
# 1 177.3099 50.5642 127.2502 0.0000 0.0000 0.0000
# 2 50.5642 61.1881 34.6845 0.0000 0.0000 0.0000
# 3 127.2502 34.6845 259.2047 0.0000 0.0000 0.0000
# 4 0.0000 0.0000 0.0000 23.7078 0.0000 0.0000
# 5 0.0000 0.0000 0.0000 0.0000 71.0866 0.0000
# 6 0.0000 0.0000 0.0000 0.0000 0.0000 25.7329
#
#
#
# Elastic Compliance Matrix: (Units=1/GPa)
#
#
# Indices 1 2 3 4 5 6 
#
# 1 0.010532 -0.006246 -0.004335 0.000000 0.000000 0.000000
# 2 -0.006246 0.021389 0.000204 0.000000 0.000000 0.000000
# 3 -0.004335 0.000204 0.005959 0.000000 0.000000 0.000000
# 4 0.000000 0.000000 0.000000 0.042180 0.000000 0.000000
# 5 0.000000 0.000000 0.000000 0.000000 0.014067 0.000000
# 6 0.000000 0.000000 0.000000 0.000000 0.000000 0.038861
#
#
# Mechanical properties :
#
#
# Convention : Reuss Voigt Hill
#
# Bulk Modulus (GPa) = 58.38901 102.52229 80.45565
# Shear Modulus (GPa) = 31.35791 43.11905 37.23848
#
# Velocity S-wave (km/s) = 3.51606 4.12304 3.83159
# Velocity P-wave (km/s) = 6.28515 7.94259 7.16198
#
# Compressibility (1/GPa) = 0.01712651
#
# Stress axis : x y z
#
# Youngs Moduli (GPa) = 94.94960 46.75314 167.82586
#
# Poissons Ratio (x) = 0.29203 0.72745
# Poissons Ratio (y) = 0.59308 -0.03430
# Poissons Ratio (z) = 0.41157 -0.00955
#
# Static dielectric constant tensor:
#      x y z
#    x 2.024870 0.000000 0.000000 
#    y 0.000000 2.185360 0.000000 
#    z 0.000000 0.000000 2.003600 
# 
# From -- ./inp_files/2258.got.cif
#   From: 2010.05.17/outbox.cif.g08.bks.cpg/sg21_2_cif.got.tgz:2258.got - 2010.06.03 23:14:55.
