data_PCOD9324730
_publ_section_title
;
Structure prediction by ZEFSAII (Michael W. Deem and Ramdas Pophale) SiO2 
 PCOD9324730
Probable space group: C 2 2 2
;
_chemical_formula_sum "Si O2"
_cell_formula_units_Z 38
_cell_length_a 16.578123
_cell_length_b 9.482417
_cell_length_c 12.270572
_cell_angle_alpha 90.000000
_cell_angle_beta 90.000000
_cell_angle_gamma 90.000000
_cell_volume 1928.942205
_symmetry_space_group_name_H-M "C 2 2 2"
_symmetry_group_IT_number 21
_symmetry_cell_setting 'orthorhombic'
loop_
_space_group_symop_operation_xyz
x,y,z
-x,-y,z
x,-y,-z
-x,y,-z
1/2+x,1/2+y,z
1/2-x,1/2-y,z
1/2+x,1/2-y,-z
1/2-x,1/2+y,-z
loop_
_atom_site_type_symbol
_atom_site_label
_atom_site_fract_x
_atom_site_fract_y
_atom_site_fract_z
Si Si1 0.750000 0.750000 0.248206
Si Si2 0.500000 0.000000 0.000000
Si Si3 0.888634 0.574159 0.614803
Si Si4 0.579469 0.840937 0.195268
Si Si5 0.793561 0.969858 0.625503
Si Si6 0.458624 0.355273 0.677315
O O1 0.669740 0.784506 0.183025
O O2 0.772520 0.879315 0.324994
O O3 0.448832 0.094576 0.082282
O O4 0.896670 0.500000 0.500000
O O5 0.913772 0.466672 0.712522
O O6 0.793082 0.607859 0.627059
O O7 0.940399 0.716230 0.607017
O O8 0.518268 0.716273 0.233396
O O9 0.819322 0.000000 0.500000
O O10 0.865956 0.904253 0.696411
O O11 0.500000 0.500000 0.637103
#
# Coordination Sequence:
#
# PCOD9324730 Si02
#       6
#     4   2   8   8   8   8
#     4  10  22  46  60  98 136 178 224 272 338 402
#     4  12  24  52  72  92 124 182 238 270 356 412
#     4  10  23  42  66  96 143 190 218 255 335 416
#     4  11  24  45  70  94 135 179 221 282 336 416
#     4  10  23  36  64  95 148 182 219 260 329 404
#     4  12  23  39  63 107 133 172 229 283 327 378
#
# _framework density 19.699916000000002
#
# number of rings (size 3 to 8) (size 9 to 14) (size 15 to 20)
#    0.000    1.263    4.211    0.632    8.842    3.789 
#    0.000    4.737    0.000    0.000    0.000    0.000 
#    0.000    0.000    0.000    0.000    0.000    0.000 
#
# Total GULP energy -105884.625824 kJ/mol
# GULP energy per Si atom -5572.875043 kJ/mol
# Density = 1.965508 g / cm^3
# Si number density = 19.699916 Si / 1000 Ang^3
#
#
#
# Elastic Constant Matrix: (Units=GPa)
#
#
# Indices 1 2 3 4 5 6 
#
# 1 182.0629 73.8425 69.9831 0.0000 0.0000 0.0000
# 2 73.8425 132.3566 50.4482 0.0000 0.0000 0.0000
# 3 69.9831 50.4482 107.3907 0.0000 0.0000 0.0000
# 4 0.0000 0.0000 0.0000 14.6708 0.0000 0.0000
# 5 0.0000 0.0000 0.0000 0.0000 -36.5232 0.0000
# 6 0.0000 0.0000 0.0000 0.0000 0.0000 44.0730
#
#
#
# Elastic Compliance Matrix: (Units=1/GPa)
#
#
# Indices 1 2 3 4 5 6 
#
# 1 0.008264 -0.003116 -0.003922 0.000000 0.000000 0.000000
# 2 -0.003116 0.010378 -0.002845 0.000000 0.000000 0.000000
# 3 -0.003922 -0.002845 0.013204 0.000000 0.000000 0.000000
# 4 0.000000 0.000000 0.000000 0.068163 0.000000 0.000000
# 5 0.000000 0.000000 0.000000 0.000000 -0.027380 0.000000
# 6 0.000000 0.000000 0.000000 0.000000 0.000000 0.022690
#
#
# Mechanical properties :
#
#
# Convention : Reuss Voigt Hill
#
# Bulk Modulus (GPa) = 82.77246 90.03976 86.40611
# Shear Modulus (GPa) = 41.97849 19.61322 30.79586
#
# Velocity S-wave (km/s) = 4.62117 3.15873 3.95808
# Velocity P-wave (km/s) = 8.40128 7.68820 8.05264
#
# Compressibility (1/GPa) = 0.01208131
#
# Stress axis : x y z
#
# Youngs Moduli (GPa) = 121.01141 96.35887 75.73622
#
# Poissons Ratio (x) = 0.30022 0.29700
# Poissons Ratio (y) = 0.37703 0.21545
# Poissons Ratio (z) = 0.47455 0.27412
#
# Static dielectric constant tensor:
#      x y z
#    x 1.792280 0.000000 0.000000 
#    y 0.000000 1.847900 0.000000 
#    z 0.000000 0.000000 1.831310 
# 
# From -- ./inp_files/25872.got.cif
#   From: 2010.05.17/outbox.cif.g08.bks.cpg/sg21_13_cif.got.tgz:25872.got - 2010.06.03 23:14:55.
