data_PCOD9324507
_publ_section_title
;
Structure prediction by ZEFSAII (Michael W. Deem and Ramdas Pophale) SiO2 
 PCOD9324507
Probable space group: C 2 2 2
;
_chemical_formula_sum "Si O2"
_cell_formula_units_Z 32
_cell_length_a 6.570716
_cell_length_b 28.564652
_cell_length_c 6.924469
_cell_angle_alpha 90.000000
_cell_angle_beta 90.000000
_cell_angle_gamma 90.000000
_cell_volume 1299.655082
_symmetry_space_group_name_H-M "C 2 2 2"
_symmetry_group_IT_number 21
_symmetry_cell_setting 'orthorhombic'
loop_
_space_group_symop_operation_xyz
x,y,z
-x,-y,z
x,-y,-z
-x,y,-z
1/2+x,1/2+y,z
1/2-x,1/2-y,z
1/2+x,1/2-y,-z
1/2-x,1/2+y,-z
loop_
_atom_site_type_symbol
_atom_site_label
_atom_site_fract_x
_atom_site_fract_y
_atom_site_fract_z
Si Si1 0.735523 0.197451 0.442415
Si Si2 0.067029 0.610885 0.278261
Si Si3 0.428216 0.450397 0.779616
Si Si4 0.626983 0.357611 0.801505
O O1 0.500000 0.196957 0.500000
O O2 0.750000 0.250000 0.365460
O O3 0.729015 0.154099 0.294759
O O4 0.141158 0.184278 0.359067
O O5 0.866271 0.628328 0.164822
O O6 0.000000 0.601885 0.500000
O O7 0.192313 0.564806 0.219534
O O8 0.500000 0.500000 0.699509
O O9 0.551277 0.405767 0.702050
O O10 0.500000 0.451195 0.000000
O O11 0.500000 0.348645 0.000000
#
# Coordination Sequence:
#
# PCOD9324507 Si02
#       4
#     8   8   8   8
#     4   9  20  37  66  90 125 177 226 276 348 402
#     4   9  21  41  64  98 132 174 224 282 338 402
#     4  10  22  40  67  97 132 180 224 272 346 405
#     4   9  20  39  64  93 133 174 218 283 333 397
#
# _framework density 24.621917
#
# number of rings (size 3 to 8) (size 9 to 14) (size 15 to 20)
#    0.000    3.250    0.000    0.000    3.500    8.000 
#    0.000   20.000   33.000    0.000    0.000    0.000 
#    0.000    0.000    0.000    0.000    0.000    0.000 
#
# Total GULP energy -89109.783920 kJ/mol
# GULP energy per Si atom -5569.361495 kJ/mol
# Density = 2.456588 g / cm^3
# Si number density = 24.621917 Si / 1000 Ang^3
#
#
#
# Elastic Constant Matrix: (Units=GPa)
#
#
# Indices 1 2 3 4 5 6 
#
# 1 106.5889 52.8982 80.2723 0.0000 0.0000 0.0000
# 2 52.8982 170.0443 27.9679 0.0000 0.0000 0.0000
# 3 80.2723 27.9679 145.9582 0.0000 0.0000 0.0000
# 4 0.0000 0.0000 0.0000 32.5305 0.0000 0.0000
# 5 0.0000 0.0000 0.0000 0.0000 62.4605 0.0000
# 6 0.0000 0.0000 0.0000 0.0000 0.0000 90.3100
#
#
#
# Elastic Compliance Matrix: (Units=1/GPa)
#
#
# Indices 1 2 3 4 5 6 
#
# 1 0.018555 -0.004227 -0.009394 0.000000 0.000000 0.000000
# 2 -0.004227 0.007035 0.000977 0.000000 0.000000 0.000000
# 3 -0.009394 0.000977 0.011831 0.000000 0.000000 0.000000
# 4 0.000000 0.000000 0.000000 0.030740 0.000000 0.000000
# 5 0.000000 0.000000 0.000000 0.000000 0.016010 0.000000
# 6 0.000000 0.000000 0.000000 0.000000 0.000000 0.011073
#
#
# Mechanical properties :
#
#
# Convention : Reuss Voigt Hill
#
# Bulk Modulus (GPa) = 82.43359 82.76313 82.59836
# Shear Modulus (GPa) = 40.13580 54.49040 47.31310
#
# Velocity S-wave (km/s) = 4.04181 4.70945 4.38834
# Velocity P-wave (km/s) = 7.43869 7.95352 7.70041
#
# Compressibility (1/GPa) = 0.01213098
#
# Stress axis : x y z
#
# Youngs Moduli (GPa) = 53.89509 142.14405 84.52520
#
# Poissons Ratio (x) = 0.60083 0.79407
# Poissons Ratio (y) = 0.22781 -0.08255
# Poissons Ratio (z) = 0.50632 -0.13882
#
# Static dielectric constant tensor:
#      x y z
#    x 2.130790 0.000000 0.000000 
#    y 0.000000 2.131230 0.000000 
#    z 0.000000 0.000000 1.603060 
# 
# From -- ./inp_files/9020.got.cif
#   From: 2010.05.17/outbox.cif.g08.bks.cpg/sg21_5_cif.got.tgz:9020.got - 2010.06.03 23:14:55.
