data_PCOD9324339
_publ_section_title
;
Structure prediction by ZEFSAII (Michael W. Deem and Ramdas Pophale) SiO2 
 PCOD9324339
Probable space group: C 2 2 2
;
_chemical_formula_sum "Si O2"
_cell_formula_units_Z 30
_cell_length_a 5.097594
_cell_length_b 24.007227
_cell_length_c 12.395893
_cell_angle_alpha 90.000000
_cell_angle_beta 90.000000
_cell_angle_gamma 90.000000
_cell_volume 1516.998183
_symmetry_space_group_name_H-M "C 2 2 2"
_symmetry_group_IT_number 21
_symmetry_cell_setting 'orthorhombic'
loop_
_space_group_symop_operation_xyz
x,y,z
-x,-y,z
x,-y,-z
-x,y,-z
1/2+x,1/2+y,z
1/2-x,1/2-y,z
1/2+x,1/2-y,-z
1/2-x,1/2+y,-z
loop_
_atom_site_type_symbol
_atom_site_label
_atom_site_fract_x
_atom_site_fract_y
_atom_site_fract_z
Si Si1 0.093598 0.942549 0.300609
Si Si2 0.912917 0.631331 0.292113
Si Si3 0.747139 0.817044 0.067413
Si Si4 0.000000 0.000000 0.500000
Si Si5 0.000000 0.290558 0.500000
O O1 0.329904 0.904675 0.258943
O O2 0.828605 0.908524 0.321091
O O3 0.175614 0.964049 0.419213
O O4 0.000000 0.000000 0.241771
O O5 0.797874 0.664286 0.189449
O O6 0.982626 0.671144 0.392704
O O7 0.750000 0.750000 0.067353
O O8 0.500000 0.837115 0.000000
O O9 0.000000 0.836196 0.000000
O O10 0.750000 0.250000 0.494233
#
# Coordination Sequence:
#
# PCOD9324339 Si02
#       5
#     8   8   8   2   4
#     4  10  22  36  61  90 125 160 218 260 308 378
#     4  12  22  40  64  91 128 171 208 267 329 383
#     4  10  22  40  64  91 121 165 220 268 311 377
#     4   8  20  36  56  86 126 162 210 250 292 380
#     4  12  26  39  57  94 137 172 209 256 336 410
#
# _framework density 19.775894999999998
#
# number of rings (size 3 to 8) (size 9 to 14) (size 15 to 20)
#    0.800    0.533    0.000    6.400    0.000    4.267 
#    0.000    0.000    0.000   12.000    0.000    0.000 
#    0.000    0.000    0.000    0.000    0.000    0.000 
#
# Total GULP energy -83594.803429 kJ/mol
# GULP energy per Si atom -5572.986895 kJ/mol
# Density = 1.973088 g / cm^3
# Si number density = 19.775895 Si / 1000 Ang^3
#
#
#
# Elastic Constant Matrix: (Units=GPa)
#
#
# Indices 1 2 3 4 5 6 
#
# 1 169.2966 67.9942 32.8101 0.0000 0.0000 0.0000
# 2 67.9942 86.4767 37.0727 0.0000 0.0000 0.0000
# 3 32.8101 37.0727 112.5761 0.0000 0.0000 0.0000
# 4 0.0000 0.0000 0.0000 26.4095 0.0000 0.0000
# 5 0.0000 0.0000 0.0000 0.0000 13.8531 0.0000
# 6 0.0000 0.0000 0.0000 0.0000 0.0000 23.4525
#
#
#
# Elastic Compliance Matrix: (Units=1/GPa)
#
#
# Indices 1 2 3 4 5 6 
#
# 1 0.008643 -0.006656 -0.000327 0.000000 0.000000 0.000000
# 2 -0.006656 0.018590 -0.004182 0.000000 0.000000 0.000000
# 3 -0.000327 -0.004182 0.010355 0.000000 0.000000 0.000000
# 4 0.000000 0.000000 0.000000 0.037865 0.000000 0.000000
# 5 0.000000 0.000000 0.000000 0.000000 0.072186 0.000000
# 6 0.000000 0.000000 0.000000 0.000000 0.000000 0.042639
#
#
# Mechanical properties :
#
#
# Convention : Reuss Voigt Hill
#
# Bulk Modulus (GPa) = 65.53701 71.56703 68.55202
# Shear Modulus (GPa) = 22.96786 28.10785 25.53786
#
# Velocity S-wave (km/s) = 3.41164 3.77413 3.59745
# Velocity P-wave (km/s) = 6.98075 7.43368 7.21077
#
# Compressibility (1/GPa) = 0.01525855
#
# Stress axis : x y z
#
# Youngs Moduli (GPa) = 115.69604 53.79273 96.56724
#
# Poissons Ratio (x) = 0.35803 0.03160
# Poissons Ratio (y) = 0.77004 0.40385
# Poissons Ratio (z) = 0.03786 0.22497
#
# Static dielectric constant tensor:
#      x y z
#    x 1.594580 0.000000 0.000000 
#    y 0.000000 1.805000 0.000000 
#    z 0.000000 0.000000 1.798390 
# 
# From -- ./inp_files/20563.got.cif
#   From: 2010.05.17/outbox.cif.g08.bks.cpg/sg21_11_cif.got.tgz:20563.got - 2010.06.03 23:14:55.
