data_PCOD9324282
_publ_section_title
;
Structure prediction by ZEFSAII (Michael W. Deem and Ramdas Pophale) SiO2 
 PCOD9324282
Probable space group: C 2 2 2
;
_chemical_formula_sum "Si O2"
_cell_formula_units_Z 48
_cell_length_a 8.534420
_cell_length_b 16.850740
_cell_length_c 16.181928
_cell_angle_alpha 90.000000
_cell_angle_beta 90.000000
_cell_angle_gamma 90.000000
_cell_volume 2327.143980
_symmetry_space_group_name_H-M "C 2 2 2"
_symmetry_group_IT_number 21
_symmetry_cell_setting 'orthorhombic'
loop_
_space_group_symop_operation_xyz
x,y,z
-x,-y,z
x,-y,-z
-x,y,-z
1/2+x,1/2+y,z
1/2-x,1/2-y,z
1/2+x,1/2-y,-z
1/2-x,1/2+y,-z
loop_
_atom_site_type_symbol
_atom_site_label
_atom_site_fract_x
_atom_site_fract_y
_atom_site_fract_z
Si Si1 0.120587 0.934398 0.854707
Si Si2 0.066564 0.237560 0.408903
Si Si3 0.852744 0.325792 0.276976
Si Si4 0.308279 0.839628 0.995462
Si Si5 0.634269 0.943891 0.858344
Si Si6 0.959897 0.908930 0.687520
O O1 0.029641 0.891253 0.779989
O O2 0.251975 0.992634 0.815510
O O3 0.214103 0.877950 0.917906
O O4 0.000000 0.000000 0.891989
O O5 0.250000 0.250000 0.407490
O O6 0.037756 0.148225 0.378696
O O7 0.000000 0.251044 0.500000
O O8 0.974160 0.292779 0.343352
O O9 0.750000 0.250000 0.246272
O O10 0.928152 0.376732 0.203438
O O11 0.721950 0.384213 0.314740
O O12 0.250000 0.750000 0.005669
O O13 0.271490 0.896871 0.072131
O O14 0.500000 0.838961 0.000000
O O15 0.500000 0.000000 0.895498
O O16 0.000000 0.000000 0.672057
#
# Coordination Sequence:
#
# PCOD9324282 Si02
#       6
#     8   8   8   8   8   8
#     4  11  24  45  72  99 136 186 239 294 366 423
#     4  11  25  44  72 105 144 188 230 291 363 427
#     4  10  22  42  69  98 141 176 233 288 353 430
#     4  12  29  45  64  99 141 185 243 302 356 419
#     4  12  24  43  68  97 141 183 237 304 358 415
#     4  10  21  43  69 103 133 180 233 287 353 428
#
# _framework density 20.626141000000001
#
# number of rings (size 3 to 8) (size 9 to 14) (size 15 to 20)
#    0.000    1.000    5.000    2.500    4.667    4.333 
#    0.000    0.000    0.000    1.500    0.000    0.000 
#    0.000    0.000    0.000    0.000    0.000    0.000 
#
# Total GULP energy -133909.963120 kJ/mol
# GULP energy per Si atom -5579.581797 kJ/mol
# Density = 2.057919 g / cm^3
# Si number density = 20.626141 Si / 1000 Ang^3
#
#
#
# Elastic Constant Matrix: (Units=GPa)
#
#
# Indices 1 2 3 4 5 6 
#
# 1 103.6533 47.1289 31.3928 0.0000 0.0000 0.0000
# 2 47.1289 129.6526 48.8759 0.0000 0.0000 0.0000
# 3 31.3928 48.8759 102.8402 0.0000 0.0000 0.0000
# 4 0.0000 0.0000 0.0000 16.7419 0.0000 0.0000
# 5 0.0000 0.0000 0.0000 0.0000 32.3484 0.0000
# 6 0.0000 0.0000 0.0000 0.0000 0.0000 41.6068
#
#
#
# Elastic Compliance Matrix: (Units=1/GPa)
#
#
# Indices 1 2 3 4 5 6 
#
# 1 0.011859 -0.003589 -0.001914 0.000000 0.000000 0.000000
# 2 -0.003589 0.010483 -0.003886 0.000000 0.000000 0.000000
# 3 -0.001914 -0.003886 0.012155 0.000000 0.000000 0.000000
# 4 0.000000 0.000000 0.000000 0.059730 0.000000 0.000000
# 5 0.000000 0.000000 0.000000 0.000000 0.030913 0.000000
# 6 0.000000 0.000000 0.000000 0.000000 0.000000 0.024035
#
#
# Mechanical properties :
#
#
# Convention : Reuss Voigt Hill
#
# Bulk Modulus (GPa) = 63.62390 65.66012 64.64201
# Shear Modulus (GPa) = 28.86933 32.05601 30.46267
#
# Velocity S-wave (km/s) = 3.74525 3.94654 3.84721
# Velocity P-wave (km/s) = 7.04384 7.25737 7.15140
#
# Compressibility (1/GPa) = 0.01571736
#
# Stress axis : x y z
#
# Youngs Moduli (GPa) = 84.32232 95.39568 82.26917
#
# Poissons Ratio (x) = 0.34239 0.15749
# Poissons Ratio (y) = 0.30265 0.31973
# Poissons Ratio (z) = 0.16142 0.37074
#
# Static dielectric constant tensor:
#      x y z
#    x 1.836520 0.000000 0.000000 
#    y 0.000000 1.726230 0.000000 
#    z 0.000000 0.000000 1.742010 
# 
# From -- ./inp_files/35687.got.cif
#   From: 2010.05.17/outbox.cif.g08.bks.cpg/sg21_18_cif.got.tgz:35687.got - 2010.06.03 23:14:55.
