data_PCOD9324373
_publ_section_title
;
Structure prediction by ZEFSAII (Michael W. Deem and Ramdas Pophale) SiO2 
 PCOD9324373
Probable space group: C 2 2 2
;
_chemical_formula_sum "Si O2"
_cell_formula_units_Z 40
_cell_length_a 11.312396
_cell_length_b 21.239454
_cell_length_c 7.734974
_cell_angle_alpha 90.000000
_cell_angle_beta 90.000000
_cell_angle_gamma 90.000000
_cell_volume 1858.475353
_symmetry_space_group_name_H-M "C 2 2 2"
_symmetry_group_IT_number 21
_symmetry_cell_setting 'orthorhombic'
loop_
_space_group_symop_operation_xyz
x,y,z
-x,-y,z
x,-y,-z
-x,y,-z
1/2+x,1/2+y,z
1/2-x,1/2-y,z
1/2+x,1/2-y,-z
1/2-x,1/2+y,-z
loop_
_atom_site_type_symbol
_atom_site_label
_atom_site_fract_x
_atom_site_fract_y
_atom_site_fract_z
Si Si1 0.150078 0.195993 0.050168
Si Si2 0.257397 0.145746 0.714999
Si Si3 0.639700 0.008070 0.205803
Si Si4 0.227059 0.620607 0.663941
Si Si5 0.995308 0.693348 0.192949
O O1 0.250000 0.250000 0.045319
O O2 0.190553 0.142286 0.180343
O O3 0.048471 0.236203 0.148622
O O4 0.162625 0.164379 0.860664
O O5 0.219525 0.143603 0.516584
O O6 0.373236 0.190492 0.733494
O O7 0.311764 0.076603 0.749196
O O8 0.702899 0.953131 0.314195
O O9 0.500000 0.000000 0.240255
O O10 0.657309 0.000000 0.000000
O O11 0.101041 0.656367 0.695226
O O12 0.000000 0.661881 0.000000
#
# Coordination Sequence:
#
# PCOD9324373 Si02
#       5
#     8   8   8   8   8
#     4  10  22  38  53  78 119 155 196 237 276 350
#     4  12  22  37  59  85 117 156 188 241 296 341
#     4  11  20  33  57  81 117 153 185 233 301 365
#     4  11  22  36  54  88 116 149 196 232 288 357
#     4  11  20  39  56  77 119 156 190 235 280 346
#
# _framework density 21.523019999999999
#
# number of rings (size 3 to 8) (size 9 to 14) (size 15 to 20)
#    0.000    1.000    8.000    1.200    0.000    3.200 
#    3.600    0.000    0.000    0.000    0.000    2.800 
#    0.000    3.200    0.000    0.000    0.000    0.000 
#
# Total GULP energy -111631.316205 kJ/mol
# GULP energy per Si atom -5581.565810 kJ/mol
# Density = 2.147403 g / cm^3
# Si number density = 21.523020 Si / 1000 Ang^3
#
#
#
# Elastic Constant Matrix: (Units=GPa)
#
#
# Indices 1 2 3 4 5 6 
#
# 1 45.2563 48.3120 21.6294 0.0000 0.0000 0.0000
# 2 48.3120 121.2476 35.5628 0.0000 0.0000 0.0000
# 3 21.6294 35.5628 150.6799 0.0000 0.0000 0.0000
# 4 0.0000 0.0000 0.0000 22.1705 0.0000 0.0000
# 5 0.0000 0.0000 0.0000 0.0000 11.7087 0.0000
# 6 0.0000 0.0000 0.0000 0.0000 0.0000 27.0989
#
#
#
# Elastic Compliance Matrix: (Units=1/GPa)
#
#
# Indices 1 2 3 4 5 6 
#
# 1 0.039048 -0.014950 -0.002077 0.000000 0.000000 0.000000
# 2 -0.014950 0.014585 -0.001296 0.000000 0.000000 0.000000
# 3 -0.002077 -0.001296 0.007241 0.000000 0.000000 0.000000
# 4 0.000000 0.000000 0.000000 0.045105 0.000000 0.000000
# 5 0.000000 0.000000 0.000000 0.000000 0.085406 0.000000
# 6 0.000000 0.000000 0.000000 0.000000 0.000000 0.036902
#
#
# Mechanical properties :
#
#
# Convention : Reuss Voigt Hill
#
# Bulk Modulus (GPa) = 41.27501 58.68802 49.98152
# Shear Modulus (GPa) = 18.31444 26.30760 22.31102
#
# Velocity S-wave (km/s) = 2.92022 3.49993 3.22314
# Velocity P-wave (km/s) = 5.53074 6.60753 6.09297
#
# Compressibility (1/GPa) = 0.02422773
#
# Stress axis : x y z
#
# Youngs Moduli (GPa) = 25.60929 68.56507 138.10964
#
# Poissons Ratio (x) = 1.02504 0.28682
# Poissons Ratio (y) = 0.38286 0.17902
# Poissons Ratio (z) = 0.05319 0.08888
#
# Static dielectric constant tensor:
#      x y z
#    x 2.009020 0.000000 0.000000 
#    y 0.000000 1.784920 0.000000 
#    z 0.000000 0.000000 1.842750 
# 
# From -- ./inp_files/15075.got.cif
#   From: 2010.05.17/outbox.cif.g08.bks.cpg/sg21_8_cif.got.tgz:15075.got - 2010.06.03 23:14:55.
