data_PCOD9324987
_publ_section_title
;
Structure prediction by ZEFSAII (Michael W. Deem and Ramdas Pophale) SiO2 
 PCOD9324987
Probable space group: C 2 2 2
;
_chemical_formula_sum "Si O2"
_cell_formula_units_Z 20
_cell_length_a 7.970743
_cell_length_b 5.179119
_cell_length_c 19.355445
_cell_angle_alpha 90.000000
_cell_angle_beta 90.000000
_cell_angle_gamma 90.000000
_cell_volume 799.020380
_symmetry_space_group_name_H-M "C 2 2 2"
_symmetry_group_IT_number 21
_symmetry_cell_setting 'orthorhombic'
loop_
_space_group_symop_operation_xyz
x,y,z
-x,-y,z
x,-y,-z
-x,y,-z
1/2+x,1/2+y,z
1/2-x,1/2-y,z
1/2+x,1/2-y,-z
1/2-x,1/2+y,-z
loop_
_atom_site_type_symbol
_atom_site_label
_atom_site_fract_x
_atom_site_fract_y
_atom_site_fract_z
Si Si1 0.500000 0.000000 0.296861
Si Si2 0.000000 0.500000 0.000000
Si Si3 0.250000 0.750000 0.395437
Si Si4 0.500000 0.500000 0.201164
Si Si5 0.750000 0.750000 0.105119
Si Si6 0.000000 0.500000 0.500000
O O1 0.328002 0.963758 0.342073
O O2 0.501942 0.749431 0.249410
O O3 0.891451 0.337903 0.947144
O O4 0.397623 0.801081 0.451407
O O5 0.664261 0.534442 0.153385
#
# Coordination Sequence:
#
# PCOD9324987 Si02
#       6
#     4   2   4   4   4   2
#     4  11  25  47  76 113 151 199 250 314 378 451
#     4  12  26  48  74 110 150 200 252 312 376 448
#     4  10  24  46  74 110 152 198 254 312 378 450
#     4  12  26  47  78 111 152 198 252 312 380 450
#     4  12  26  46  76 110 152 200 254 314 378 452
#     4  10  24  44  74 108 152 202 256 316 380 450
#
# _framework density 25.030650000000001
#
# number of rings (size 3 to 8) (size 9 to 14) (size 15 to 20)
#    0.000    0.800    0.000    6.000    0.000   10.400 
#    0.000    0.000    0.000    0.000    0.000    0.000 
#    0.000    0.000    0.000    0.000    0.000    0.000 
#
# Total GULP energy -55732.298147 kJ/mol
# GULP energy per Si atom -5573.229815 kJ/mol
# Density = 2.497368 g / cm^3
# Si number density = 25.030650 Si / 1000 Ang^3
#
#
#
# Elastic Constant Matrix: (Units=GPa)
#
#
# Indices 1 2 3 4 5 6 
#
# 1 144.7151 86.5903 92.1505 0.0000 0.0000 0.0000
# 2 86.5903 179.5238 114.0259 0.0000 0.0000 0.0000
# 3 92.1505 114.0259 207.0245 0.0000 0.0000 0.0000
# 4 0.0000 0.0000 0.0000 -139.9021 0.0000 0.0000
# 5 0.0000 0.0000 0.0000 0.0000 103.2888 0.0000
# 6 0.0000 0.0000 0.0000 0.0000 0.0000 54.6687
#
#
#
# Elastic Compliance Matrix: (Units=1/GPa)
#
#
# Indices 1 2 3 4 5 6 
#
# 1 0.010788 -0.003312 -0.002978 0.000000 0.000000 0.000000
# 2 -0.003312 0.009584 -0.003805 0.000000 0.000000 0.000000
# 3 -0.002978 -0.003805 0.008251 0.000000 0.000000 0.000000
# 4 0.000000 0.000000 0.000000 -0.007148 0.000000 0.000000
# 5 0.000000 0.000000 0.000000 0.000000 0.009682 0.000000
# 6 0.000000 0.000000 0.000000 0.000000 0.000000 0.018292
#
#
# Mechanical properties :
#
#
# Convention : Reuss Voigt Hill
#
# Bulk Modulus (GPa) = 118.55618 124.08852 121.32235
# Shear Modulus (GPa) = 69.01309 19.51088 44.26199
#
# Velocity S-wave (km/s) = 5.25655 2.79494 4.20969
# Velocity P-wave (km/s) = 9.18199 7.75228 8.49726
#
# Compressibility (1/GPa) = 0.00843482
#
# Stress axis : x y z
#
# Youngs Moduli (GPa) = 92.69516 104.33635 121.19279
#
# Poissons Ratio (x) = 0.34558 0.36088
# Poissons Ratio (y) = 0.30702 0.46110
# Poissons Ratio (z) = 0.27602 0.39696
#
# Static dielectric constant tensor:
#      x y z
#    x 1.942940 0.000000 0.000000 
#    y 0.000000 1.931380 0.000000 
#    z 0.000000 0.000000 1.975440 
# 
# From -- ./inp_files/34157.got.cif
#   From: 2010.05.17/outbox.cif.g08.bks.cpg/sg21_18_cif.got.tgz:34157.got - 2010.06.03 23:14:55.
