data_PCOD9324918
_publ_section_title
;
Structure prediction by ZEFSAII (Michael W. Deem and Ramdas Pophale) SiO2 
 PCOD9324918
Probable space group: C 2 2 2
;
_chemical_formula_sum "Si O2"
_cell_formula_units_Z 40
_cell_length_a 6.777440
_cell_length_b 26.488872
_cell_length_c 9.065685
_cell_angle_alpha 90.000000
_cell_angle_beta 90.000000
_cell_angle_gamma 90.000000
_cell_volume 1627.532880
_symmetry_space_group_name_H-M "C 2 2 2"
_symmetry_group_IT_number 21
_symmetry_cell_setting 'orthorhombic'
loop_
_space_group_symop_operation_xyz
x,y,z
-x,-y,z
x,-y,-z
-x,y,-z
1/2+x,1/2+y,z
1/2-x,1/2-y,z
1/2+x,1/2-y,-z
1/2-x,1/2+y,-z
loop_
_atom_site_type_symbol
_atom_site_label
_atom_site_fract_x
_atom_site_fract_y
_atom_site_fract_z
Si Si1 0.810090 0.629828 0.652416
Si Si2 0.394686 0.922477 0.848929
Si Si3 0.925753 0.835206 0.164660
Si Si4 0.216019 0.050280 0.429941
Si Si5 0.527719 0.760058 0.670849
O O1 0.597714 0.640385 0.730876
O O2 0.788072 0.605033 0.490784
O O3 0.950465 0.679225 0.665763
O O4 0.917760 0.587431 0.746344
O O5 0.262378 0.871437 0.863312
O O6 0.248023 0.954742 0.745299
O O7 0.500000 0.938661 0.000000
O O8 0.897302 0.781103 0.242452
O O9 0.000000 0.825374 0.000000
O O10 0.000000 0.050835 0.500000
O O11 0.304740 0.000000 0.500000
O O12 0.500000 0.744799 0.500000
O O13 0.750000 0.750000 0.726381
#
# Coordination Sequence:
#
# PCOD9324918 Si02
#       5
#     8   8   8   8   8
#     4  11  24  45  70 104 146 198 263 321 392 469
#     4  12  25  43  77 106 147 202 254 324 405 475
#     4  11  24  45  66 101 155 198 255 321 391 485
#     4  11  25  48  81 113 152 204 265 342 417 485
#     4  10  24  39  63  99 140 198 254 316 379 458
#
# _framework density 24.577075000000001
#
# number of rings (size 3 to 8) (size 9 to 14) (size 15 to 20)
#    0.000    1.000    4.000    1.800    8.400    2.400 
#    3.600    2.000    0.000    3.600    0.000    0.000 
#    0.000    0.000    0.000    0.000    0.000    0.000 
#
# Total GULP energy -111400.870584 kJ/mol
# GULP energy per Si atom -5570.043529 kJ/mol
# Density = 2.452114 g / cm^3
# Si number density = 24.577075 Si / 1000 Ang^3
#
#
#
# Elastic Constant Matrix: (Units=GPa)
#
#
# Indices 1 2 3 4 5 6 
#
# 1 101.7378 27.3483 25.1712 0.0000 0.0000 0.0000
# 2 27.3483 122.9873 45.7491 0.0000 0.0000 0.0000
# 3 25.1712 45.7491 180.8507 0.0000 0.0000 0.0000
# 4 0.0000 0.0000 0.0000 -133.2925 0.0000 0.0000
# 5 0.0000 0.0000 0.0000 0.0000 36.8509 0.0000
# 6 0.0000 0.0000 0.0000 0.0000 0.0000 -113.6759
#
#
#
# Elastic Compliance Matrix: (Units=1/GPa)
#
#
# Indices 1 2 3 4 5 6 
#
# 1 0.010606 -0.001997 -0.000971 0.000000 0.000000 0.000000
# 2 -0.001997 0.009352 -0.002088 0.000000 0.000000 0.000000
# 3 -0.000971 -0.002088 0.006193 0.000000 0.000000 0.000000
# 4 0.000000 0.000000 0.000000 -0.007502 0.000000 0.000000
# 5 0.000000 0.000000 0.000000 0.000000 0.027136 0.000000
# 6 0.000000 0.000000 0.000000 0.000000 0.000000 -0.008797
#
#
# Mechanical properties :
#
#
# Convention : Reuss Voigt Hill
#
# Bulk Modulus (GPa) = 62.34896 66.90144 64.62520
# Shear Modulus (GPa) = 95.33642 -21.53634 36.90004
#
# Velocity S-wave (km/s) = 6.23498 -2.96341 3.87900
# Velocity P-wave (km/s) = 8.78961 3.94602 6.81279
#
# Compressibility (1/GPa) = 0.01603876
#
# Stress axis : x y z
#
# Youngs Moduli (GPa) = 94.28341 106.93325 161.48133
#
# Poissons Ratio (x) = 0.21358 0.15679
# Poissons Ratio (y) = 0.18831 0.33712
# Poissons Ratio (z) = 0.09155 0.22324
#
# Static dielectric constant tensor:
#      x y z
#    x 2.161320 0.000000 0.000000 
#    y 0.000000 2.007460 0.000000 
#    z 0.000000 0.000000 1.980670 
# 
# From -- ./inp_files/10900.got.cif
#   From: 2010.05.17/outbox.cif.g08.bks.cpg/sg21_6_cif.got.tgz:10900.got - 2010.06.03 23:14:55.
