data_PCOD9324900
_publ_section_title
;
Structure prediction by ZEFSAII (Michael W. Deem and Ramdas Pophale) SiO2 
 PCOD9324900
Probable space group: C 2 2 2
;
_chemical_formula_sum "Si O2"
_cell_formula_units_Z 18
_cell_length_a 8.764433
_cell_length_b 6.703871
_cell_length_c 12.793922
_cell_angle_alpha 90.000000
_cell_angle_beta 90.000000
_cell_angle_gamma 90.000000
_cell_volume 751.714925
_symmetry_space_group_name_H-M "C 2 2 2"
_symmetry_group_IT_number 21
_symmetry_cell_setting 'orthorhombic'
loop_
_space_group_symop_operation_xyz
x,y,z
-x,-y,z
x,-y,-z
-x,y,-z
1/2+x,1/2+y,z
1/2-x,1/2-y,z
1/2+x,1/2-y,-z
1/2-x,1/2+y,-z
loop_
_atom_site_type_symbol
_atom_site_label
_atom_site_fract_x
_atom_site_fract_y
_atom_site_fract_z
Si Si1 0.070999 0.776517 0.392999
Si Si2 0.422512 0.281119 0.184272
Si Si3 0.500000 0.000000 0.000000
O O1 0.250000 0.750000 0.404704
O O2 0.000000 0.697131 0.500000
O O3 0.028892 0.701648 0.277756
O O4 0.000000 0.000000 0.387743
O O5 0.500000 0.500000 0.160070
O O6 0.250000 0.250000 0.227158
O O7 0.416942 0.148575 0.079808
#
# Coordination Sequence:
#
# PCOD9324900 Si02
#       3
#     8   8   2
#     4  10  23  47  78 113 154 196 247 312 384 458
#     4  11  28  49  77 112 156 203 261 318 385 455
#     4  12  30  44  84 102 160 204 268 318 380 450
#
# _framework density 23.945246000000001
#
# number of rings (size 3 to 8) (size 9 to 14) (size 15 to 20)
#    0.000    1.333    0.000    2.000   18.667    0.000 
#    0.000    0.000    0.000    0.000    0.000    0.000 
#    0.000    0.000    0.000    0.000    0.000    0.000 
#
# Total GULP energy -50128.853825 kJ/mol
# GULP energy per Si atom -5569.872647 kJ/mol
# Density = 2.389075 g / cm^3
# Si number density = 23.945246 Si / 1000 Ang^3
#
#
#
# Elastic Constant Matrix: (Units=GPa)
#
#
# Indices 1 2 3 4 5 6 
#
# 1 230.4099 37.2989 53.0583 0.0000 0.0000 0.0000
# 2 37.2989 189.9449 16.8667 0.0000 0.0000 0.0000
# 3 53.0583 16.8667 179.4944 0.0000 0.0000 0.0000
# 4 0.0000 0.0000 0.0000 252.6854 0.0000 0.0000
# 5 0.0000 0.0000 0.0000 0.0000 29.5680 0.0000
# 6 0.0000 0.0000 0.0000 0.0000 0.0000 25.3681
#
#
#
# Elastic Compliance Matrix: (Units=1/GPa)
#
#
# Indices 1 2 3 4 5 6 
#
# 1 0.004781 -0.000820 -0.001336 0.000000 0.000000 0.000000
# 2 -0.000820 0.005450 -0.000270 0.000000 0.000000 0.000000
# 3 -0.001336 -0.000270 0.005991 0.000000 0.000000 0.000000
# 4 0.000000 0.000000 0.000000 0.003957 0.000000 0.000000
# 5 0.000000 0.000000 0.000000 0.000000 0.033820 0.000000
# 6 0.000000 0.000000 0.000000 0.000000 0.000000 0.039420
#
#
# Mechanical properties :
#
#
# Convention : Reuss Voigt Hill
#
# Bulk Modulus (GPa) = 87.95057 90.47743 89.21400
# Shear Modulus (GPa) = 48.99045 94.36601 71.67823
#
# Velocity S-wave (km/s) = 4.52811 6.28448 5.47715
# Velocity P-wave (km/s) = 8.00924 9.51455 8.79416
#
# Compressibility (1/GPa) = 0.01137002
#
# Stress axis : x y z
#
# Youngs Moduli (GPa) = 209.18267 183.49732 166.90374
#
# Poissons Ratio (x) = 0.15049 0.22299
# Poissons Ratio (y) = 0.17155 0.04501
# Poissons Ratio (z) = 0.27948 0.04948
#
# Static dielectric constant tensor:
#      x y z
#    x 1.696930 0.000000 0.000000 
#    y 0.000000 2.093050 0.000000 
#    z 0.000000 0.000000 1.921930 
# 
# From -- ./inp_files/21484.got.cif
#   From: 2010.05.17/outbox.cif.g08.bks.cpg/sg21_11_cif.got.tgz:21484.got - 2010.06.03 23:14:55.
