data_PCOD9324186
_publ_section_title
;
Structure prediction by ZEFSAII (Michael W. Deem and Ramdas Pophale) SiO2 
 PCOD9324186
Probable space group: C 2 2 2
;
_chemical_formula_sum "Si O2"
_cell_formula_units_Z 64
_cell_length_a 9.514687
_cell_length_b 30.322347
_cell_length_c 11.883245
_cell_angle_alpha 90.000000
_cell_angle_beta 90.000000
_cell_angle_gamma 90.000000
_cell_volume 3428.406980
_symmetry_space_group_name_H-M "C 2 2 2"
_symmetry_group_IT_number 21
_symmetry_cell_setting 'orthorhombic'
loop_
_space_group_symop_operation_xyz
x,y,z
-x,-y,z
x,-y,-z
-x,y,-z
1/2+x,1/2+y,z
1/2-x,1/2-y,z
1/2+x,1/2-y,-z
1/2-x,1/2+y,-z
loop_
_atom_site_type_symbol
_atom_site_label
_atom_site_fract_x
_atom_site_fract_y
_atom_site_fract_z
Si Si1 0.336494 0.155046 0.513547
Si Si2 0.773033 0.110592 0.267351
Si Si3 0.011484 0.052583 0.367010
Si Si4 0.489363 0.680169 0.756328
Si Si5 0.022843 0.632493 0.133177
Si Si6 0.755176 0.116325 0.727574
Si Si7 0.367345 0.277020 0.448326
Si Si8 0.414474 0.765485 0.116981
O O1 0.500000 0.162220 0.500000
O O2 0.306237 0.123636 0.617889
O O3 0.288584 0.135590 0.393936
O O4 0.239544 0.198380 0.532114
O O5 0.879227 0.072105 0.299751
O O6 0.656494 0.104279 0.173032
O O7 0.872523 0.151199 0.230997
O O8 0.000000 0.066400 0.500000
O O9 0.149153 0.073996 0.307006
O O10 0.000000 0.000000 0.364079
O O11 0.357273 0.650664 0.794225
O O12 0.450461 0.687768 0.626185
O O13 0.512776 0.728240 0.806417
O O14 0.886256 0.614877 0.199316
O O15 0.061215 0.684309 0.161304
O O16 0.000000 0.630550 0.000000
O O17 0.500000 0.252055 0.500000
O O18 0.250000 0.250000 0.378002
O O19 0.250000 0.750000 0.105814
O O20 0.500000 0.763789 0.000000
#
# Coordination Sequence:
#
# PCOD9324186 Si02
#       8
#     8   8   8   8   8   8   8   8
#     4  11  20  34  55  84 119 161 196 239 315 366
#     4  11  20  40  62  87 126 163 197 252 315 378
#     4  10  21  40  70 103 130 156 196 251 318 395
#     4  10  23  35  55  78 115 163 202 250 313 359
#     4  11  25  41  62  90 123 170 221 265 306 360
#     4  10  22  37  62  91 127 161 202 254 314 383
#     4  11  23  33  46  74 111 154 206 248 290 368
#     4  11  25  40  57  82 117 162 228 279 311 339
#
# _framework density 18.667560999999999
#
# number of rings (size 3 to 8) (size 9 to 14) (size 15 to 20)
#    0.000    1.375    5.000    0.375    7.000    1.500 
#    0.000    2.500    0.000    4.500    0.000    0.000 
#    0.000    0.000    0.000    0.000    0.000    0.000 
#
# Total GULP energy -178233.495661 kJ/mol
# GULP energy per Si atom -5569.796739 kJ/mol
# Density = 1.862507 g / cm^3
# Si number density = 18.667561 Si / 1000 Ang^3
#
#
#
# Elastic Constant Matrix: (Units=GPa)
#
#
# Indices 1 2 3 4 5 6 
#
# 1 173.2745 45.6991 38.4106 0.0000 0.0000 0.0000
# 2 45.6991 76.3562 25.5703 0.0000 0.0000 0.0000
# 3 38.4106 25.5703 60.4929 0.0000 0.0000 0.0000
# 4 0.0000 0.0000 0.0000 21.2442 0.0000 0.0000
# 5 0.0000 0.0000 0.0000 0.0000 27.7435 0.0000
# 6 0.0000 0.0000 0.0000 0.0000 0.0000 9.2058
#
#
#
# Elastic Compliance Matrix: (Units=1/GPa)
#
#
# Indices 1 2 3 4 5 6 
#
# 1 0.007372 -0.003314 -0.003280 0.000000 0.000000 0.000000
# 2 -0.003314 0.016746 -0.004974 0.000000 0.000000 0.000000
# 3 -0.003280 -0.004974 0.020716 0.000000 0.000000 0.000000
# 4 0.000000 0.000000 0.000000 0.047072 0.000000 0.000000
# 5 0.000000 0.000000 0.000000 0.000000 0.036045 0.000000
# 6 0.000000 0.000000 0.000000 0.000000 0.000000 0.108627
#
#
# Mechanical properties :
#
#
# Convention : Reuss Voigt Hill
#
# Bulk Modulus (GPa) = 46.08828 58.83151 52.45989
# Shear Modulus (GPa) = 18.73033 25.00161 21.86597
#
# Velocity S-wave (km/s) = 3.17103 3.66363 3.42619
# Velocity P-wave (km/s) = 6.17655 7.03420 6.61928
#
# Compressibility (1/GPa) = 0.02169749
#
# Stress axis : x y z
#
# Youngs Moduli (GPa) = 135.64204 59.71724 48.27098
#
# Poissons Ratio (x) = 0.19789 0.15835
# Poissons Ratio (y) = 0.44949 0.24011
# Poissons Ratio (z) = 0.44496 0.29705
#
# Static dielectric constant tensor:
#      x y z
#    x 1.695640 0.000000 0.000000 
#    y 0.000000 1.695020 0.000000 
#    z 0.000000 0.000000 1.673720 
# 
# From -- ./inp_files/23147.got.cif
#   From: 2010.05.17/outbox.cif.g08.bks.cpg/sg21_12_cif.got.tgz:23147.got - 2010.06.03 23:14:55.
