data_PCOD9324291
_publ_section_title
;
Structure prediction by ZEFSAII (Michael W. Deem and Ramdas Pophale) SiO2 
 PCOD9324291
Probable space group: C 2 2 2
;
_chemical_formula_sum "Si O2"
_cell_formula_units_Z 54
_cell_length_a 13.576392
_cell_length_b 14.473473
_cell_length_c 12.096288
_cell_angle_alpha 90.000000
_cell_angle_beta 90.000000
_cell_angle_gamma 90.000000
_cell_volume 2376.890872
_symmetry_space_group_name_H-M "C 2 2 2"
_symmetry_group_IT_number 21
_symmetry_cell_setting 'orthorhombic'
loop_
_space_group_symop_operation_xyz
x,y,z
-x,-y,z
x,-y,-z
-x,y,-z
1/2+x,1/2+y,z
1/2-x,1/2-y,z
1/2+x,1/2-y,-z
1/2-x,1/2+y,-z
loop_
_atom_site_type_symbol
_atom_site_label
_atom_site_fract_x
_atom_site_fract_y
_atom_site_fract_z
Si Si1 0.500000 0.282630 0.500000
Si Si2 0.152320 0.986947 0.162553
Si Si3 0.500000 0.500000 0.000000
Si Si4 0.364004 0.569695 0.600698
Si Si5 0.570442 0.863068 0.650711
Si Si6 0.180614 0.660977 0.132669
Si Si7 0.353752 0.933627 0.657792
Si Si8 0.786878 0.353416 0.886423
O O1 0.562136 0.346006 0.583995
O O2 0.419866 0.224183 0.570665
O O3 0.245884 0.921267 0.166100
O O4 0.120209 0.015794 0.284492
O O5 0.190713 0.081073 0.104167
O O6 0.067201 0.944929 0.086909
O O7 0.378577 0.500000 0.500000
O O8 0.248673 0.598714 0.604696
O O9 0.593825 0.836250 0.777706
O O10 0.457553 0.890324 0.625871
O O11 0.633095 0.956851 0.633520
O O12 0.250000 0.750000 0.140192
O O13 0.156347 0.647653 0.003175
O O14 0.344185 0.901692 0.785989
O O15 0.750000 0.250000 0.859919
#
# Coordination Sequence:
#
# PCOD9324291 Si02
#       8
#     4   8   2   8   8   8   8   8
#     4  12  31  47  74 116 146 194 270 317 381 460
#     4  11  24  46  73 107 150 196 245 307 383 446
#     4  12  24  40  82 104 150 198 244 310 384 464
#     4  11  27  50  76 106 155 204 254 322 381 451
#     4  11  26  46  74 108 145 193 257 311 379 456
#     4  11  23  44  73 109 152 195 248 311 374 453
#     4  10  25  47  77 106 149 200 248 313 385 458
#     4  10  21  43  72 110 148 193 243 301 383 446
#
# _framework density 22.718753
#
# number of rings (size 3 to 8) (size 9 to 14) (size 15 to 20)
#    0.000    1.185    4.444    0.222   10.370    1.185 
#    0.000    1.481    0.000    0.000    0.000    0.000 
#    0.000    0.000    0.000    0.000    0.000    0.000 
#
# Total GULP energy -150761.239873 kJ/mol
# GULP energy per Si atom -5583.749625 kJ/mol
# Density = 2.266704 g / cm^3
# Si number density = 22.718753 Si / 1000 Ang^3
#
#
#
# Elastic Constant Matrix: (Units=GPa)
#
#
# Indices 1 2 3 4 5 6 
#
# 1 84.4996 17.5046 27.6113 0.0000 0.0000 0.0000
# 2 17.5046 109.2805 45.6526 0.0000 0.0000 0.0000
# 3 27.6113 45.6526 143.5462 0.0000 0.0000 0.0000
# 4 0.0000 0.0000 0.0000 32.0066 0.0000 0.0000
# 5 0.0000 0.0000 0.0000 0.0000 40.1537 0.0000
# 6 0.0000 0.0000 0.0000 0.0000 0.0000 20.5824
#
#
#
# Elastic Compliance Matrix: (Units=1/GPa)
#
#
# Indices 1 2 3 4 5 6 
#
# 1 0.012757 -0.001174 -0.002080 0.000000 0.000000 0.000000
# 2 -0.001174 0.010661 -0.003165 0.000000 0.000000 0.000000
# 3 -0.002080 -0.003165 0.008373 0.000000 0.000000 0.000000
# 4 0.000000 0.000000 0.000000 0.031244 0.000000 0.000000
# 5 0.000000 0.000000 0.000000 0.000000 0.024904 0.000000
# 6 0.000000 0.000000 0.000000 0.000000 0.000000 0.048585
#
#
# Mechanical properties :
#
#
# Convention : Reuss Voigt Hill
#
# Bulk Modulus (GPa) = 52.76342 57.65147 55.20744
# Shear Modulus (GPa) = 32.11698 34.98574 33.55136
#
# Velocity S-wave (km/s) = 3.76397 3.92848 3.84710
# Velocity P-wave (km/s) = 6.49346 6.78296 6.63978
#
# Compressibility (1/GPa) = 0.01895253
#
# Stress axis : x y z
#
# Youngs Moduli (GPa) = 78.38550 93.80044 119.43103
#
# Poissons Ratio (x) = 0.11016 0.24847
# Poissons Ratio (y) = 0.09205 0.37796
# Poissons Ratio (z) = 0.16307 0.29685
#
# Static dielectric constant tensor:
#      x y z
#    x 1.856660 0.000000 0.000000 
#    y 0.000000 1.907220 0.000000 
#    z 0.000000 0.000000 1.898090 
# 
# From -- ./inp_files/25332.got.cif
#   From: 2010.05.17/outbox.cif.g08.bks.cpg/sg21_13_cif.got.tgz:25332.got - 2010.06.03 23:14:55.
