data_PCOD9324425
_publ_section_title
;
Structure prediction by ZEFSAII (Michael W. Deem and Ramdas Pophale) SiO2 
 PCOD9324425
Probable space group: C 2 2 2
;
_chemical_formula_sum "Si O2"
_cell_formula_units_Z 42
_cell_length_a 10.273885
_cell_length_b 10.273878
_cell_length_c 21.088693
_cell_angle_alpha 90.000000
_cell_angle_beta 90.000000
_cell_angle_gamma 90.000000
_cell_volume 2225.967243
_symmetry_space_group_name_H-M "C 2 2 2"
_symmetry_group_IT_number 21
_symmetry_cell_setting 'orthorhombic'
loop_
_space_group_symop_operation_xyz
x,y,z
-x,-y,z
x,-y,-z
-x,y,-z
1/2+x,1/2+y,z
1/2-x,1/2-y,z
1/2+x,1/2-y,-z
1/2-x,1/2+y,-z
loop_
_atom_site_type_symbol
_atom_site_label
_atom_site_fract_x
_atom_site_fract_y
_atom_site_fract_z
Si Si1 0.492530 0.216198 0.281472
Si Si2 0.138601 0.138601 0.821123
Si Si3 0.139644 0.860356 0.387504
Si Si4 0.000000 0.000000 0.500000
Si Si5 0.138797 0.861203 0.030777
Si Si6 0.216198 0.492530 0.281472
O O1 0.520055 0.302957 0.219582
O O2 0.526055 0.298686 0.343910
O O3 0.603391 0.103391 0.280206
O O4 0.356216 0.143784 0.282309
O O5 0.250000 0.250000 0.819498
O O6 0.197044 0.020055 0.780418
O O7 0.114377 0.114377 0.894485
O O8 0.250000 0.750000 0.395655
O O9 0.201314 0.973945 0.343910
O O10 0.087154 0.912846 0.453345
O O11 0.250000 0.750000 0.023292
O O12 0.000000 0.821995 0.000000
O O13 0.178005 0.000000 0.000000
#
# Coordination Sequence:
#
# PCOD9324425 Si02
#       6
#     8   8   8   2   8   8
#     4   8  14  29  55  81 103 130 169 221 275 319
#     4   8  15  29  51  79 107 138 179 226 276 327
#     4   9  20  36  51  73 104 135 169 210 258 311
#     4  12  24  36  52  72 104 144 174 204 244 304
#     4  10  22  39  57  81 118 159 197 238 285 343
#     4   8  14  29  55  81 103 130 169 221 275 319
#
# _framework density 18.868200000000002
#
# number of rings (size 3 to 8) (size 9 to 14) (size 15 to 20)
#    0.000    3.238    0.000    2.286    0.000    3.429 
#    0.000   11.429    0.000    0.000    0.000    0.000 
#    0.000    0.000    0.000    0.000    0.000    0.000 
#
# Total GULP energy -117131.886301 kJ/mol
# GULP energy per Si atom -5577.708871 kJ/mol
# Density = 1.882526 g / cm^3
# Si number density = 18.868200 Si / 1000 Ang^3
#
#
#
# Elastic Constant Matrix: (Units=GPa)
#
#
# Indices 1 2 3 4 5 6 
#
# 1 102.7289 87.4701 77.6942 0.0000 0.0000 0.0000
# 2 87.4701 102.7285 77.6941 0.0000 0.0000 0.0000
# 3 77.6942 77.6941 200.6644 0.0000 0.0000 0.0000
# 4 0.0000 0.0000 0.0000 15.2995 0.0000 0.0000
# 5 0.0000 0.0000 0.0000 0.0000 15.2995 0.0000
# 6 0.0000 0.0000 0.0000 0.0000 0.0000 54.8762
#
#
#
# Elastic Compliance Matrix: (Units=1/GPa)
#
#
# Indices 1 2 3 4 5 6 
#
# 1 0.036613 -0.028923 -0.002978 0.000000 0.000000 0.000000
# 2 -0.028923 0.036613 -0.002978 0.000000 0.000000 0.000000
# 3 -0.002978 -0.002978 0.007289 0.000000 0.000000 0.000000
# 4 0.000000 0.000000 0.000000 0.065362 0.000000 0.000000
# 5 0.000000 0.000000 0.000000 0.000000 0.065362 0.000000
# 6 0.000000 0.000000 0.000000 0.000000 0.000000 0.018223
#
#
# Mechanical properties :
#
#
# Convention : Reuss Voigt Hill
#
# Bulk Modulus (GPa) = 92.94131 99.09318 96.01725
# Shear Modulus (GPa) = 16.51227 27.97925 22.24576
#
# Velocity S-wave (km/s) = 2.96148 3.85499 3.43739
# Velocity P-wave (km/s) = 7.81402 8.51160 8.17026
#
# Compressibility (1/GPa) = 0.01075948
#
# Stress axis : x y z
#
# Youngs Moduli (GPa) = 27.31248 27.31236 137.18985
#
# Poissons Ratio (x) = 0.78996 0.40849
# Poissons Ratio (y) = 0.78996 0.40849
# Poissons Ratio (z) = 0.08132 0.08132
#
# Static dielectric constant tensor:
#      x y z
#    x 1.673940 0.000000 0.000000 
#    y 0.000000 1.673940 0.000000 
#    z 0.000000 0.000000 1.608720 
# 
# From -- ./inp_files/36123.got.cif
#   From: 2010.05.17/outbox.cif.g08.bks.cpg/sg21_19_cif.got.tgz:36123.got - 2010.06.03 23:14:55.
