data_PCOD9324630
_publ_section_title
;
Structure prediction by ZEFSAII (Michael W. Deem and Ramdas Pophale) SiO2 
 PCOD9324630
Probable space group: C 2 2 2
;
_chemical_formula_sum "Si O2"
_cell_formula_units_Z 28
_cell_length_a 15.144037
_cell_length_b 4.898982
_cell_length_c 16.104104
_cell_angle_alpha 90.000000
_cell_angle_beta 90.000000
_cell_angle_gamma 90.000000
_cell_volume 1194.769348
_symmetry_space_group_name_H-M "C 2 2 2"
_symmetry_group_IT_number 21
_symmetry_cell_setting 'orthorhombic'
loop_
_space_group_symop_operation_xyz
x,y,z
-x,-y,z
x,-y,-z
-x,y,-z
1/2+x,1/2+y,z
1/2-x,1/2-y,z
1/2+x,1/2-y,-z
1/2-x,1/2+y,-z
loop_
_atom_site_type_symbol
_atom_site_label
_atom_site_fract_x
_atom_site_fract_y
_atom_site_fract_z
Si Si1 0.000000 0.500000 0.000000
Si Si2 0.250000 0.750000 0.629669
Si Si3 0.750000 0.250000 0.251147
Si Si4 0.911484 0.868824 0.859988
Si Si5 0.885628 0.500000 0.500000
Si Si6 0.000000 0.000000 0.500000
Si Si7 0.809585 0.000000 0.000000
O O1 0.055741 0.683533 0.063402
O O2 0.271725 0.503116 0.690089
O O3 0.172612 0.643408 0.570031
O O4 0.840429 0.277936 0.198104
O O5 0.859643 0.091545 0.915672
O O6 0.000000 0.000000 0.820447
O O7 0.937619 0.762709 0.540532
O O8 0.750000 0.250000 0.027301
#
# Coordination Sequence:
#
# PCOD9324630 Si02
#       7
#     2   4   4   8   4   2   4
#     4  12  24  48  74 106 142 224 274 318 392 468
#     4  12  27  54  79 114 148 222 246 326 399 500
#     4  12  31  46  73 116 164 200 268 332 427 452
#     4  12  27  44  71 106 152 206 269 332 391 476
#     4  11  23  50  87 109 164 192 280 303 397 508
#     4  10  22  42  82 134 136 188 244 352 358 458
#     4  12  24  42  74  98 132 200 267 315 371 463
#
# _framework density 23.435483999999999
#
# number of rings (size 3 to 8) (size 9 to 14) (size 15 to 20)
#    0.000    0.286    4.286    4.286    6.000    0.000 
#   15.429    0.000    0.000    0.000    0.000    0.000 
#    0.000    0.000    0.000    0.000    0.000    0.000 
#
# Total GULP energy -78062.449570 kJ/mol
# GULP energy per Si atom -5575.889255 kJ/mol
# Density = 2.338214 g / cm^3
# Si number density = 23.435484 Si / 1000 Ang^3
#
#
#
# Elastic Constant Matrix: (Units=GPa)
#
#
# Indices 1 2 3 4 5 6 
#
# 1 143.8530 49.9940 56.4545 0.0000 0.0000 0.0000
# 2 49.9940 152.9828 45.8463 0.0000 0.0000 0.0000
# 3 56.4545 45.8463 102.0428 0.0000 0.0000 0.0000
# 4 0.0000 0.0000 0.0000 36.0307 0.0000 0.0000
# 5 0.0000 0.0000 0.0000 0.0000 -8.3121 0.0000
# 6 0.0000 0.0000 0.0000 0.0000 0.0000 52.3841
#
#
#
# Elastic Compliance Matrix: (Units=1/GPa)
#
#
# Indices 1 2 3 4 5 6 
#
# 1 0.009256 -0.001722 -0.004347 0.000000 0.000000 0.000000
# 2 -0.001722 0.007874 -0.002585 0.000000 0.000000 0.000000
# 3 -0.004347 -0.002585 0.013366 0.000000 0.000000 0.000000
# 4 0.000000 0.000000 0.000000 0.027754 0.000000 0.000000
# 5 0.000000 0.000000 0.000000 0.000000 -0.120307 0.000000
# 6 0.000000 0.000000 0.000000 0.000000 0.000000 0.019090
#
#
# Mechanical properties :
#
#
# Convention : Reuss Voigt Hill
#
# Bulk Modulus (GPa) = 75.82662 78.16313 76.99487
# Shear Modulus (GPa) = -235.16047 32.45948 -101.35049
#
# Velocity S-wave (km/s) = -10.02804 3.72567 -6.58335
# Velocity P-wave (km/s) = 10.08248 7.20641 4.98618
#
# Compressibility (1/GPa) = 0.01318798
#
# Stress axis : x y z
#
# Youngs Moduli (GPa) = 108.03764 126.99824 74.81532
#
# Poissons Ratio (x) = 0.21870 0.32523
# Poissons Ratio (y) = 0.18605 0.19340
# Poissons Ratio (z) = 0.46966 0.32829
#
# Static dielectric constant tensor:
#      x y z
#    x 2.435980 0.000000 0.000000 
#    y 0.000000 1.946610 0.000000 
#    z 0.000000 0.000000 1.841230 
# 
# From -- ./inp_files/28602.got.cif
#   From: 2010.05.17/outbox.cif.g08.bks.cpg/sg21_15_cif.got.tgz:28602.got - 2010.06.03 23:14:55.
