data_PCOD9324194
_publ_section_title
;
Structure prediction by ZEFSAII (Michael W. Deem and Ramdas Pophale) SiO2 
 PCOD9324194
Probable space group: C 2 2 2
;
_chemical_formula_sum "Si O2"
_cell_formula_units_Z 28
_cell_length_a 5.746102
_cell_length_b 14.676948
_cell_length_c 14.246754
_cell_angle_alpha 90.000000
_cell_angle_beta 90.000000
_cell_angle_gamma 90.000000
_cell_volume 1201.503421
_symmetry_space_group_name_H-M "C 2 2 2"
_symmetry_group_IT_number 21
_symmetry_cell_setting 'orthorhombic'
loop_
_space_group_symop_operation_xyz
x,y,z
-x,-y,z
x,-y,-z
-x,y,-z
1/2+x,1/2+y,z
1/2-x,1/2-y,z
1/2+x,1/2-y,-z
1/2-x,1/2+y,-z
loop_
_atom_site_type_symbol
_atom_site_label
_atom_site_fract_x
_atom_site_fract_y
_atom_site_fract_z
Si Si1 0.896198 0.599241 0.734369
Si Si2 0.756956 0.105729 0.465472
Si Si3 0.250000 0.250000 0.225828
Si Si4 0.116262 0.842264 0.090886
O O1 0.724718 0.611184 0.647300
O O2 0.789125 0.605996 0.838789
O O3 0.000000 0.500000 0.722468
O O4 0.084431 0.679338 0.722193
O O5 0.500000 0.138704 0.500000
O O6 0.000000 0.147925 0.500000
O O7 0.758514 0.000000 0.500000
O O8 0.412023 0.310658 0.159324
O O9 0.250000 0.750000 0.058478
O O10 0.000000 0.887135 0.000000
#
# Coordination Sequence:
#
# PCOD9324194 Si02
#       4
#     8   8   4   8
#     4  11  24  43  73 111 144 198 259 316 383 481
#     4  10  21  40  72 106 141 197 255 303 393 457
#     4  10  24  42  72 100 144 192 250 310 386 446
#     4  10  21  42  73  97 143 197 244 308 386 452
#
# _framework density 23.304136
#
# number of rings (size 3 to 8) (size 9 to 14) (size 15 to 20)
#    0.000    1.714    4.286    0.000    4.000    1.143 
#    0.000    4.286    9.429    0.000    0.000    0.000 
#    0.000    0.000    0.000    0.000    0.000    0.000 
#
# Total GULP energy -78199.910793 kJ/mol
# GULP energy per Si atom -5585.707914 kJ/mol
# Density = 2.325109 g / cm^3
# Si number density = 23.304136 Si / 1000 Ang^3
#
#
#
# Elastic Constant Matrix: (Units=GPa)
#
#
# Indices 1 2 3 4 5 6 
#
# 1 133.5793 26.7342 49.8821 0.0000 0.0000 0.0000
# 2 26.7342 80.7277 47.9755 0.0000 0.0000 0.0000
# 3 49.8821 47.9755 139.3316 0.0000 0.0000 0.0000
# 4 0.0000 0.0000 0.0000 26.6256 0.0000 0.0000
# 5 0.0000 0.0000 0.0000 0.0000 37.9741 0.0000
# 6 0.0000 0.0000 0.0000 0.0000 0.0000 -12.4616
#
#
#
# Elastic Compliance Matrix: (Units=1/GPa)
#
#
# Indices 1 2 3 4 5 6 
#
# 1 0.008749 -0.001302 -0.002684 0.000000 0.000000 0.000000
# 2 -0.001302 0.015768 -0.004963 0.000000 0.000000 0.000000
# 3 -0.002684 -0.004963 0.009847 0.000000 0.000000 0.000000
# 4 0.000000 0.000000 0.000000 0.037558 0.000000 0.000000
# 5 0.000000 0.000000 0.000000 0.000000 0.026334 0.000000
# 6 0.000000 0.000000 0.000000 0.000000 0.000000 -0.080246
#
#
# Mechanical properties :
#
#
# Convention : Reuss Voigt Hill
#
# Bulk Modulus (GPa) = 60.73332 66.98026 63.85679
# Shear Modulus (GPa) = 120.78321 25.69740 73.24031
#
# Velocity S-wave (km/s) = 7.20705 3.32429 5.61215
# Velocity P-wave (km/s) = 9.76592 6.59839 8.33403
#
# Compressibility (1/GPa) = 0.01646543
#
# Stress axis : x y z
#
# Youngs Moduli (GPa) = 114.29809 63.41895 101.55513
#
# Poissons Ratio (x) = 0.08260 0.27255
# Poissons Ratio (y) = 0.14887 0.50403
# Poissons Ratio (z) = 0.30675 0.31475
#
# Static dielectric constant tensor:
#      x y z
#    x 1.900030 0.000000 0.000000 
#    y 0.000000 1.837790 0.000000 
#    z 0.000000 0.000000 1.850520 
# 
# From -- ./inp_files/28548.got.cif
#   From: 2010.05.17/outbox.cif.g08.bks.cpg/sg21_15_cif.got.tgz:28548.got - 2010.06.03 23:14:55.
