data_PCOD9324535
_publ_section_title
;
Structure prediction by ZEFSAII (Michael W. Deem and Ramdas Pophale) SiO2 
 PCOD9324535
Probable space group: C 2 2 2
;
_chemical_formula_sum "Si O2"
_cell_formula_units_Z 58
_cell_length_a 14.240693
_cell_length_b 18.468455
_cell_length_c 11.554950
_cell_angle_alpha 90.000000
_cell_angle_beta 90.000000
_cell_angle_gamma 90.000000
_cell_volume 3038.993423
_symmetry_space_group_name_H-M "C 2 2 2"
_symmetry_group_IT_number 21
_symmetry_cell_setting 'orthorhombic'
loop_
_space_group_symop_operation_xyz
x,y,z
-x,-y,z
x,-y,-z
-x,y,-z
1/2+x,1/2+y,z
1/2-x,1/2-y,z
1/2+x,1/2-y,-z
1/2-x,1/2+y,-z
loop_
_atom_site_type_symbol
_atom_site_label
_atom_site_fract_x
_atom_site_fract_y
_atom_site_fract_z
Si Si1 0.598214 0.004652 0.702277
Si Si2 0.000000 0.000000 0.000000
Si Si3 0.988809 0.792299 0.138909
Si Si4 0.631056 0.589660 0.827444
Si Si5 0.303279 0.481407 0.373122
Si Si6 0.599658 0.854714 0.140687
Si Si7 0.667411 0.072563 0.076094
Si Si8 0.290757 0.676186 0.741366
O O1 0.693011 0.998339 0.631502
O O2 0.592189 0.080937 0.768476
O O3 0.500000 0.000000 0.638184
O O4 0.610773 0.949547 0.809771
O O5 0.933732 0.048275 0.080234
O O6 0.976221 0.707121 0.162390
O O7 0.889278 0.819567 0.190316
O O8 0.073528 0.836795 0.197481
O O9 0.000000 0.800835 0.000000
O O10 0.647627 0.533099 0.722354
O O11 0.732986 0.604235 0.883480
O O12 0.341067 0.500000 0.500000
O O13 0.302656 0.396444 0.336214
O O14 0.707609 0.831029 0.164941
O O15 0.605020 0.880111 0.008912
O O16 0.688623 0.000000 0.000000
O O17 0.250000 0.750000 0.678899
#
# Coordination Sequence:
#
# PCOD9324535 Si02
#       8
#     8   2   8   8   8   8   8   8
#     4   9  19  33  57  86 111 145 194 256 299 352
#     4  12  20  32  58  80 122 148 194 234 296 368
#     4  11  21  31  51  82 120 159 195 228 286 364
#     4  11  21  33  55  87 118 157 195 247 296 356
#     4  10  22  41  64  85 113 152 206 256 299 347
#     4   9  19  31  51  78 119 160 188 231 291 363
#     4   9  17  31  51  80 119 153 193 232 299 355
#     4   9  19  38  57  82 114 153 197 240 295 353
#
# _framework density 19.085267999999999
#
# number of rings (size 3 to 8) (size 9 to 14) (size 15 to 20)
#    0.000    2.207    1.379    2.483    1.931    2.207 
#    0.000    3.103    3.034    0.000    0.000    0.000 
#    0.000    0.000    0.000    0.000    0.000    0.000 
#
# Total GULP energy -161515.667093 kJ/mol
# GULP energy per Si atom -5569.505762 kJ/mol
# Density = 1.904183 g / cm^3
# Si number density = 19.085268 Si / 1000 Ang^3
#
#
#
# Elastic Constant Matrix: (Units=GPa)
#
#
# Indices 1 2 3 4 5 6 
#
# 1 109.2913 37.2998 15.9009 0.0000 0.0000 0.0000
# 2 37.2998 103.6097 35.5211 0.0000 0.0000 0.0000
# 3 15.9009 35.5211 86.9934 0.0000 0.0000 0.0000
# 4 0.0000 0.0000 0.0000 17.1589 0.0000 0.0000
# 5 0.0000 0.0000 0.0000 0.0000 1.1862 0.0000
# 6 0.0000 0.0000 0.0000 0.0000 0.0000 38.3221
#
#
#
# Elastic Compliance Matrix: (Units=1/GPa)
#
#
# Indices 1 2 3 4 5 6 
#
# 1 0.010446 -0.003611 -0.000435 0.000000 0.000000 0.000000
# 2 -0.003611 0.012471 -0.004432 0.000000 0.000000 0.000000
# 3 -0.000435 -0.004432 0.013384 0.000000 0.000000 0.000000
# 4 0.000000 0.000000 0.000000 0.058279 0.000000 0.000000
# 5 0.000000 0.000000 0.000000 0.000000 0.843042 0.000000
# 6 0.000000 0.000000 0.000000 0.000000 0.000000 0.026095
#
#
# Mechanical properties :
#
#
# Convention : Reuss Voigt Hill
#
# Bulk Modulus (GPa) = 51.69374 53.03753 52.36563
# Shear Modulus (GPa) = 5.06523 25.41161 15.23842
#
# Velocity S-wave (km/s) = 1.63088 3.65290 2.82873
# Velocity P-wave (km/s) = 5.53993 6.75586 6.17788
#
# Compressibility (1/GPa) = 0.01934470
#
# Stress axis : x y z
#
# Youngs Moduli (GPa) = 95.73372 80.18454 74.71438
#
# Poissons Ratio (x) = 0.28958 0.03248
# Poissons Ratio (y) = 0.34574 0.33114
# Poissons Ratio (z) = 0.04161 0.35539
#
# Static dielectric constant tensor:
#      x y z
#    x 1.656650 0.000000 0.000000 
#    y 0.000000 1.759330 0.000000 
#    z 0.000000 0.000000 1.639090 
# 
# From -- ./inp_files/25445.got.cif
#   From: 2010.05.17/outbox.cif.g08.bks.cpg/sg21_13_cif.got.tgz:25445.got - 2010.06.03 23:14:55.
