data_PCOD9324851
_publ_section_title
;
Structure prediction by ZEFSAII (Michael W. Deem and Ramdas Pophale) SiO2 
 PCOD9324851
Probable space group: C 2 2 2
;
_chemical_formula_sum "Si O2"
_cell_formula_units_Z 48
_cell_length_a 8.847063
_cell_length_b 14.704437
_cell_length_c 16.776947
_cell_angle_alpha 90.000000
_cell_angle_beta 90.000000
_cell_angle_gamma 90.000000
_cell_volume 2182.531163
_symmetry_space_group_name_H-M "C 2 2 2"
_symmetry_group_IT_number 21
_symmetry_cell_setting 'orthorhombic'
loop_
_space_group_symop_operation_xyz
x,y,z
-x,-y,z
x,-y,-z
-x,y,-z
1/2+x,1/2+y,z
1/2-x,1/2-y,z
1/2+x,1/2-y,-z
1/2-x,1/2+y,-z
loop_
_atom_site_type_symbol
_atom_site_label
_atom_site_fract_x
_atom_site_fract_y
_atom_site_fract_z
Si Si1 0.067229 0.256719 0.586088
Si Si2 0.322013 0.656789 0.011431
Si Si3 0.908910 0.407179 0.289164
Si Si4 0.451908 0.398208 0.699281
Si Si5 0.697548 0.352245 0.824108
Si Si6 0.653407 0.032643 0.131042
O O1 0.250000 0.250000 0.579459
O O2 0.026383 0.332147 0.651972
O O3 0.002877 0.165141 0.625547
O O4 0.000000 0.275941 0.500000
O O5 0.250000 0.750000 0.043038
O O6 0.269991 0.576133 0.069589
O O7 0.500000 0.663088 0.000000
O O8 0.274722 0.647055 0.919532
O O9 0.728847 0.399420 0.300614
O O10 0.912853 0.393068 0.193617
O O11 0.000000 0.500000 0.306542
O O12 0.500000 0.500000 0.685568
O O13 0.534157 0.364903 0.781230
O O14 0.750000 0.250000 0.798470
O O15 0.776021 0.452487 0.812647
O O16 0.500000 0.000000 0.089387
#
# Coordination Sequence:
#
# PCOD9324851 Si02
#       6
#     8   8   8   8   8   8
#     4  10  25  46  71 105 143 187 233 296 369 438
#     4  11  27  44  72 104 147 197 250 313 372 430
#     4  10  23  43  70 104 136 183 238 288 362 435
#     4  11  23  43  71 101 138 182 236 295 356 439
#     4  11  26  43  68 105 142 189 247 296 372 434
#     4  11  25  45  74 104 145 192 247 309 370 433
#
# _framework density 21.992813999999999
#
# number of rings (size 3 to 8) (size 9 to 14) (size 15 to 20)
#    0.000    1.333    1.667    1.500    9.333    6.000 
#    0.000    3.333    0.000    0.000    0.000    0.000 
#    0.000    0.000    0.000    0.000    0.000    0.000 
#
# Total GULP energy -133709.087626 kJ/mol
# GULP energy per Si atom -5571.211984 kJ/mol
# Density = 2.194276 g / cm^3
# Si number density = 21.992814 Si / 1000 Ang^3
#
#
#
# Elastic Constant Matrix: (Units=GPa)
#
#
# Indices 1 2 3 4 5 6 
#
# 1 102.3084 53.3889 26.9407 0.0000 0.0000 0.0000
# 2 53.3889 142.3269 64.6823 0.0000 0.0000 0.0000
# 3 26.9407 64.6823 117.7919 0.0000 0.0000 0.0000
# 4 0.0000 0.0000 0.0000 43.0073 0.0000 0.0000
# 5 0.0000 0.0000 0.0000 0.0000 50.9696 0.0000
# 6 0.0000 0.0000 0.0000 0.0000 0.0000 24.5689
#
#
#
# Elastic Compliance Matrix: (Units=1/GPa)
#
#
# Indices 1 2 3 4 5 6 
#
# 1 0.012165 -0.004396 -0.000368 0.000000 0.000000 0.000000
# 2 -0.004396 0.010951 -0.005008 0.000000 0.000000 0.000000
# 3 -0.000368 -0.005008 0.011324 0.000000 0.000000 0.000000
# 4 0.000000 0.000000 0.000000 0.023252 0.000000 0.000000
# 5 0.000000 0.000000 0.000000 0.000000 0.019620 0.000000
# 6 0.000000 0.000000 0.000000 0.000000 0.000000 0.040702
#
#
# Mechanical properties :
#
#
# Convention : Reuss Voigt Hill
#
# Bulk Modulus (GPa) = 67.13516 72.49456 69.81486
# Shear Modulus (GPa) = 35.08192 38.20354 36.64273
#
# Velocity S-wave (km/s) = 3.99827 4.17237 4.08625
# Velocity P-wave (km/s) = 7.20466 7.49973 7.35367
#
# Compressibility (1/GPa) = 0.01489532
#
# Stress axis : x y z
#
# Youngs Moduli (GPa) = 82.20036 91.31553 88.30904
#
# Poissons Ratio (x) = 0.40142 0.03254
# Poissons Ratio (y) = 0.36135 0.44226
# Poissons Ratio (z) = 0.03029 0.45731
#
# Static dielectric constant tensor:
#      x y z
#    x 1.877310 0.000000 0.000000 
#    y 0.000000 1.902720 0.000000 
#    z 0.000000 0.000000 1.849410 
# 
# From -- ./inp_files/35707.got.cif
#   From: 2010.05.17/outbox.cif.g08.bks.cpg/sg21_18_cif.got.tgz:35707.got - 2010.06.03 23:14:55.
