data_PCOD9324023
_publ_section_title
;
Structure prediction by ZEFSAII (Michael W. Deem and Ramdas Pophale) SiO2 
 PCOD9324023
Probable space group: C 2 2 2
;
_chemical_formula_sum "Si O2"
_cell_formula_units_Z 34
_cell_length_a 16.490223
_cell_length_b 8.866727
_cell_length_c 9.517643
_cell_angle_alpha 90.000000
_cell_angle_beta 90.000000
_cell_angle_gamma 90.000000
_cell_volume 1391.615561
_symmetry_space_group_name_H-M "C 2 2 2"
_symmetry_group_IT_number 21
_symmetry_cell_setting 'orthorhombic'
loop_
_space_group_symop_operation_xyz
x,y,z
-x,-y,z
x,-y,-z
-x,y,-z
1/2+x,1/2+y,z
1/2-x,1/2-y,z
1/2+x,1/2-y,-z
1/2-x,1/2+y,-z
loop_
_atom_site_type_symbol
_atom_site_label
_atom_site_fract_x
_atom_site_fract_y
_atom_site_fract_z
Si Si1 0.377761 0.032226 0.715621
Si Si2 0.000000 0.500000 0.500000
Si Si3 0.713932 0.410571 0.756098
Si Si4 0.616946 0.677224 0.884085
Si Si5 0.440267 0.288928 0.204122
O O1 0.290390 0.969802 0.668421
O O2 0.428211 0.889892 0.776089
O O3 0.435846 0.093439 0.592616
O O4 0.361218 0.155353 0.833997
O O5 0.750000 0.250000 0.818379
O O6 0.685144 0.555986 0.846109
O O7 0.626986 0.361140 0.693084
O O8 0.531863 0.654325 0.800219
O O9 0.593228 0.676056 0.047143
#
# Coordination Sequence:
#
# PCOD9324023 Si02
#       5
#     8   2   8   8   8
#     4  11  23  41  68  92 131 183 232 287 341 399
#     4  12  24  48  70  90 130 184 244 296 336 400
#     4  10  23  38  59 100 138 173 215 274 341 417
#     4  11  20  38  67 101 138 179 215 269 352 428
#     4  10  21  38  64 102 142 173 216 273 345 428
#
# _framework density 24.432036
#
# number of rings (size 3 to 8) (size 9 to 14) (size 15 to 20)
#    0.000    1.412    2.353    2.824    0.000   13.176 
#    0.000    7.059    0.000    5.647    0.000    0.000 
#    0.000    0.000    0.000    0.000    0.000    0.000 
#
# Total GULP energy -94643.084845 kJ/mol
# GULP energy per Si atom -5567.240285 kJ/mol
# Density = 2.437643 g / cm^3
# Si number density = 24.432036 Si / 1000 Ang^3
#
#
#
# Elastic Constant Matrix: (Units=GPa)
#
#
# Indices 1 2 3 4 5 6 
#
# 1 222.9590 45.2697 31.5583 0.0000 0.0000 0.0000
# 2 45.2697 105.5783 14.9953 0.0000 0.0000 0.0000
# 3 31.5583 14.9953 38.8122 0.0000 0.0000 0.0000
# 4 0.0000 0.0000 0.0000 10.5600 0.0000 0.0000
# 5 0.0000 0.0000 0.0000 0.0000 26.5830 0.0000
# 6 0.0000 0.0000 0.0000 0.0000 0.0000 52.3129
#
#
#
# Elastic Compliance Matrix: (Units=1/GPa)
#
#
# Indices 1 2 3 4 5 6 
#
# 1 0.005367 -0.001779 -0.003676 0.000000 0.000000 0.000000
# 2 -0.001779 0.010611 -0.002653 0.000000 0.000000 0.000000
# 3 -0.003676 -0.002653 0.029779 0.000000 0.000000 0.000000
# 4 0.000000 0.000000 0.000000 0.094697 0.000000 0.000000
# 5 0.000000 0.000000 0.000000 0.000000 0.037618 0.000000
# 6 0.000000 0.000000 0.000000 0.000000 0.000000 0.019116
#
#
# Mechanical properties :
#
#
# Convention : Reuss Voigt Hill
#
# Bulk Modulus (GPa) = 33.85212 61.22179 47.53695
# Shear Modulus (GPa) = 22.39626 36.25960 29.32793
#
# Velocity S-wave (km/s) = 3.03095 3.85658 3.46842
# Velocity P-wave (km/s) = 5.11220 6.70398 5.96146
#
# Compressibility (1/GPa) = 0.02954025
#
# Stress axis : x y z
#
# Youngs Moduli (GPa) = 186.33442 94.23940 33.58026
#
# Poissons Ratio (x) = 0.16765 0.12345
# Poissons Ratio (y) = 0.33148 0.08910
# Poissons Ratio (z) = 0.68503 0.25004
#
# Static dielectric constant tensor:
#      x y z
#    x 2.007920 0.000000 0.000000 
#    y 0.000000 2.045890 0.000000 
#    z 0.000000 0.000000 2.005880 
# 
# From -- ./inp_files/25753.got.cif
#   From: 2010.05.17/outbox.cif.g08.bks.cpg/sg21_13_cif.got.tgz:25753.got - 2010.06.03 23:14:55.
