data_PCOD9324364
_publ_section_title
;
Structure prediction by ZEFSAII (Michael W. Deem and Ramdas Pophale) SiO2 
 PCOD9324364
Probable space group: C 2 2 2
;
_chemical_formula_sum "Si O2"
_cell_formula_units_Z 58
_cell_length_a 7.043425
_cell_length_b 29.599452
_cell_length_c 11.719134
_cell_angle_alpha 90.000000
_cell_angle_beta 90.000000
_cell_angle_gamma 90.000000
_cell_volume 2443.222872
_symmetry_space_group_name_H-M "C 2 2 2"
_symmetry_group_IT_number 21
_symmetry_cell_setting 'orthorhombic'
loop_
_space_group_symop_operation_xyz
x,y,z
-x,-y,z
x,-y,-z
-x,y,-z
1/2+x,1/2+y,z
1/2-x,1/2-y,z
1/2+x,1/2-y,-z
1/2-x,1/2+y,-z
loop_
_atom_site_type_symbol
_atom_site_label
_atom_site_fract_x
_atom_site_fract_y
_atom_site_fract_z
Si Si1 0.768460 0.907605 0.750310
Si Si2 0.249588 0.400439 0.250958
Si Si3 0.515400 0.852943 0.636427
Si Si4 0.530235 0.248064 0.636699
Si Si5 0.287267 0.072988 0.012970
Si Si6 0.500000 0.500000 0.000000
Si Si7 0.226001 0.502537 0.630761
Si Si8 0.492792 0.650906 0.362735
O O1 0.506729 0.897091 0.727797
O O2 0.763102 0.909413 0.887988
O O3 0.755751 0.866796 0.650039
O O4 0.786134 0.958156 0.699926
O O5 0.243543 0.356533 0.342000
O O6 0.268108 0.450188 0.308876
O O7 0.493341 0.389341 0.261762
O O8 0.226564 0.392008 0.115312
O O9 0.500000 0.859161 0.500000
O O10 0.537128 0.800746 0.677292
O O11 0.500000 0.247236 0.500000
O O12 0.750000 0.250000 0.660341
O O13 0.462889 0.297191 0.675493
O O14 0.500000 0.055003 0.000000
O O15 0.146343 0.033977 0.057845
O O16 0.295254 0.500000 0.500000
O O17 0.000000 0.500000 0.624926
O O18 0.500000 0.646304 0.500000
#
# Coordination Sequence:
#
# PCOD9324364 Si02
#       8
#     8   8   8   8   8   2   8   8
#     4  12  25  41  63  96 134 181 227 282 339 413
#     4  12  23  41  65  92 134 182 221 278 339 407
#     4  11  21  38  66  93 128 171 220 277 348 409
#     4  10  22  37  63  98 132 170 221 284 352 424
#     4  12  25  46  68 100 138 187 245 287 342 412
#     4  12  26  44  72  94 130 176 238 308 336 380
#     4  11  21  35  58  91 124 166 215 261 326 401
#     4  11  24  41  65 100 139 172 223 293 360 412
#
# _framework density 23.739135999999998
#
# number of rings (size 3 to 8) (size 9 to 14) (size 15 to 20)
#    0.000    0.690    4.138    4.345    5.793    0.552 
#    0.000    1.379    0.000    4.966    0.000    0.000 
#    0.000    0.000    0.000    0.000    0.000    0.000 
#
# Total GULP energy -161636.420480 kJ/mol
# GULP energy per Si atom -5573.669672 kJ/mol
# Density = 2.368510 g / cm^3
# Si number density = 23.739136 Si / 1000 Ang^3
#
#
#
# Elastic Constant Matrix: (Units=GPa)
#
#
# Indices 1 2 3 4 5 6 
#
# 1 205.2367 47.6930 65.7632 0.0000 0.0000 0.0000
# 2 47.6930 178.0229 105.1786 0.0000 0.0000 0.0000
# 3 65.7632 105.1786 191.6152 0.0000 0.0000 0.0000
# 4 0.0000 0.0000 0.0000 -5.5843 0.0000 0.0000
# 5 0.0000 0.0000 0.0000 0.0000 45.8320 0.0000
# 6 0.0000 0.0000 0.0000 0.0000 0.0000 62.6811
#
#
#
# Elastic Compliance Matrix: (Units=1/GPa)
#
#
# Indices 1 2 3 4 5 6 
#
# 1 0.005508 -0.000531 -0.001599 0.000000 0.000000 0.000000
# 2 -0.000531 0.008364 -0.004409 0.000000 0.000000 0.000000
# 3 -0.001599 -0.004409 0.008188 0.000000 0.000000 0.000000
# 4 0.000000 0.000000 0.000000 -0.179075 0.000000 0.000000
# 5 0.000000 0.000000 0.000000 0.000000 0.021819 0.000000
# 6 0.000000 0.000000 0.000000 0.000000 0.000000 0.015954
#
#
# Mechanical properties :
#
#
# Convention : Reuss Voigt Hill
#
# Bulk Modulus (GPa) = 111.32961 112.46048 111.89505
# Shear Modulus (GPa) = -48.46377 44.33510 -2.06434
#
# Velocity S-wave (km/s) = -4.52321 4.32626 -0.93353
# Velocity P-wave (km/s) = 4.44068 8.51068 6.78790
#
# Compressibility (1/GPa) = 0.00898234
#
# Stress axis : x y z
#
# Youngs Moduli (GPa) = 181.54875 119.55383 122.13407
#
# Poissons Ratio (x) = 0.06348 0.19529
# Poissons Ratio (y) = 0.09639 0.53850
# Poissons Ratio (z) = 0.29029 0.52712
#
# Static dielectric constant tensor:
#      x y z
#    x 3.230500 0.000000 0.000000 
#    y 0.000000 1.834030 0.000000 
#    z 0.000000 0.000000 1.760500 
# 
# From -- ./inp_files/23113.got.cif
#   From: 2010.05.17/outbox.cif.g08.bks.cpg/sg21_12_cif.got.tgz:23113.got - 2010.06.03 23:14:55.
