data_PCOD9324303
_publ_section_title
;
Structure prediction by ZEFSAII (Michael W. Deem and Ramdas Pophale) SiO2 
 PCOD9324303
Probable space group: C 2 2 2
;
_chemical_formula_sum "Si O2"
_cell_formula_units_Z 58
_cell_length_a 13.654442
_cell_length_b 18.845642
_cell_length_c 10.474890
_cell_angle_alpha 90.000000
_cell_angle_beta 90.000000
_cell_angle_gamma 90.000000
_cell_volume 2695.469145
_symmetry_space_group_name_H-M "C 2 2 2"
_symmetry_group_IT_number 21
_symmetry_cell_setting 'orthorhombic'
loop_
_space_group_symop_operation_xyz
x,y,z
-x,-y,z
x,-y,-z
-x,y,-z
1/2+x,1/2+y,z
1/2-x,1/2-y,z
1/2+x,1/2-y,-z
1/2-x,1/2+y,-z
loop_
_atom_site_type_symbol
_atom_site_label
_atom_site_fract_x
_atom_site_fract_y
_atom_site_fract_z
Si Si1 0.200456 0.406840 0.730200
Si Si2 0.003985 0.353162 0.354912
Si Si3 0.944958 0.189998 0.668638
Si Si4 0.398158 0.624753 0.139540
Si Si5 0.692111 0.319000 0.906647
Si Si6 0.329294 0.422784 0.475485
Si Si7 0.000000 0.000000 0.000000
Si Si8 0.687682 0.068413 0.769211
O O1 0.100866 0.364143 0.710990
O O2 0.285863 0.374656 0.816083
O O3 0.254801 0.411400 0.592393
O O4 0.173686 0.484483 0.785771
O O5 0.000000 0.382737 0.500000
O O6 0.027431 0.269930 0.364757
O O7 0.088715 0.392931 0.276049
O O8 0.856866 0.196488 0.770557
O O9 0.903046 0.141427 0.554142
O O10 0.032265 0.152356 0.747968
O O11 0.393120 0.667191 0.007528
O O12 0.434269 0.547634 0.093751
O O13 0.750000 0.250000 0.947764
O O14 0.761229 0.387577 0.883161
O O15 0.377350 0.500000 0.500000
O O16 0.263819 0.428543 0.348674
#
# Coordination Sequence:
#
# PCOD9324303 Si02
#       8
#     8   8   8   8   8   8   2   8
#     4  11  25  42  69 102 137 173 226 285 336 400
#     4  12  25  43  68 100 140 182 223 271 338 416
#     4  11  25  45  66 100 136 180 226 273 345 405
#     4  12  27  44  69 101 132 176 228 285 337 404
#     4  11  22  45  72  95 136 180 227 281 335 405
#     4   9  21  41  68  98 133 174 217 277 335 400
#     4  12  24  48  72  94 134 180 222 280 350 408
#     4  10  21  44  70  99 131 178 227 271 340 405
#
# _framework density 21.517589000000001
#
# number of rings (size 3 to 8) (size 9 to 14) (size 15 to 20)
#    0.000    1.103    4.138    1.241    7.724    0.552 
#    0.000    2.759    0.000    1.655    0.000    0.000 
#    0.000    0.000    0.000    0.000    0.000    0.000 
#
# Total GULP energy -162074.169459 kJ/mol
# GULP energy per Si atom -5588.764464 kJ/mol
# Density = 2.146861 g / cm^3
# Si number density = 21.517589 Si / 1000 Ang^3
#
#
#
# Elastic Constant Matrix: (Units=GPa)
#
#
# Indices 1 2 3 4 5 6 
#
# 1 115.2032 41.5009 -2.0690 0.0000 0.0000 0.0000
# 2 41.5009 96.4453 4.7524 0.0000 0.0000 0.0000
# 3 -2.0690 4.7524 36.5379 0.0000 0.0000 0.0000
# 4 0.0000 0.0000 0.0000 5.0862 0.0000 0.0000
# 5 0.0000 0.0000 0.0000 0.0000 31.6845 0.0000
# 6 0.0000 0.0000 0.0000 0.0000 0.0000 28.2400
#
#
#
# Elastic Compliance Matrix: (Units=1/GPa)
#
#
# Indices 1 2 3 4 5 6 
#
# 1 0.010322 -0.004499 0.001170 0.000000 0.000000 0.000000
# 2 -0.004499 0.012397 -0.001867 0.000000 0.000000 0.000000
# 3 0.001170 -0.001867 0.027678 0.000000 0.000000 0.000000
# 4 0.000000 0.000000 0.000000 0.196610 0.000000 0.000000
# 5 0.000000 0.000000 0.000000 0.000000 0.031561 0.000000
# 6 0.000000 0.000000 0.000000 0.000000 0.000000 0.035411
#
#
# Mechanical properties :
#
#
# Convention : Reuss Voigt Hill
#
# Bulk Modulus (GPa) = 24.99804 37.39503 31.19654
# Shear Modulus (GPa) = 14.80576 26.60227 20.70402
#
# Velocity S-wave (km/s) = 2.62597 3.51993 3.10528
# Velocity P-wave (km/s) = 4.56476 5.82549 5.23323
#
# Compressibility (1/GPa) = 0.04000314
#
# Stress axis : x y z
#
# Youngs Moduli (GPa) = 96.87893 80.66690 36.12989
#
# Poissons Ratio (x) = 0.36295 -0.04226
# Poissons Ratio (y) = 0.43589 0.06746
# Poissons Ratio (z) = -0.11332 0.15062
#
# Static dielectric constant tensor:
#      x y z
#    x 1.810460 0.000000 0.000000 
#    y 0.000000 1.797750 0.000000 
#    z 0.000000 0.000000 1.803500 
# 
# From -- ./inp_files/25460.got.cif
#   From: 2010.05.17/outbox.cif.g08.bks.cpg/sg21_13_cif.got.tgz:25460.got - 2010.06.03 23:14:55.
