data_PCOD9324664
_publ_section_title
;
Structure prediction by ZEFSAII (Michael W. Deem and Ramdas Pophale) SiO2 
 PCOD9324664
Probable space group: C 2 2 2
;
_chemical_formula_sum "Si O2"
_cell_formula_units_Z 26
_cell_length_a 14.088412
_cell_length_b 5.449610
_cell_length_c 15.615233
_cell_angle_alpha 90.000000
_cell_angle_beta 90.000000
_cell_angle_gamma 90.000000
_cell_volume 1198.880608
_symmetry_space_group_name_H-M "C 2 2 2"
_symmetry_group_IT_number 21
_symmetry_cell_setting 'orthorhombic'
loop_
_space_group_symop_operation_xyz
x,y,z
-x,-y,z
x,-y,-z
-x,y,-z
1/2+x,1/2+y,z
1/2-x,1/2-y,z
1/2+x,1/2-y,-z
1/2-x,1/2+y,-z
loop_
_atom_site_type_symbol
_atom_site_label
_atom_site_fract_x
_atom_site_fract_y
_atom_site_fract_z
Si Si1 0.294973 0.999277 0.601996
Si Si2 0.000000 0.500000 0.000000
Si Si3 0.000000 0.500000 0.676076
Si Si4 0.000000 0.000000 0.214957
Si Si5 0.849625 0.855781 0.912641
O O1 0.250000 0.750000 0.638367
O O2 0.276954 0.000000 0.500000
O O3 0.250000 0.250000 0.637600
O O4 0.405897 0.992996 0.619603
O O5 0.929139 0.658393 0.941312
O O6 0.994529 0.749879 0.731111
O O7 0.905890 0.983626 0.156064
O O8 0.750000 0.750000 0.880139
O O9 0.826640 0.000000 0.000000
#
# Coordination Sequence:
#
# PCOD9324664 Si02
#       5
#     8   2   4   4   8
#     4  10  22  43  72 102 133 175 229 274 316 388
#     4  12  20  44  68  94 124 150 234 282 334 392
#     4  12  26  44  67  97 142 184 208 274 336 402
#     4  12  27  44  65  98 142 172 222 272 337 412
#     4  12  25  42  69  92 122 175 223 285 335 391
#
# _framework density 21.686896999999998
#
# number of rings (size 3 to 8) (size 9 to 14) (size 15 to 20)
#    0.000    0.615    4.615    3.231    0.000    3.692 
#    0.000    9.231    0.000    0.000    0.000    0.000 
#    0.000    0.000    0.000    0.000    0.000    0.000 
#
# Total GULP energy -72728.318268 kJ/mol
# GULP energy per Si atom -5594.486021 kJ/mol
# Density = 2.163754 g / cm^3
# Si number density = 21.686897 Si / 1000 Ang^3
#
#
#
# Elastic Constant Matrix: (Units=GPa)
#
#
# Indices 1 2 3 4 5 6 
#
# 1 144.9610 43.8498 -37.0932 0.0000 0.0000 0.0000
# 2 43.8498 146.7000 14.6148 0.0000 0.0000 0.0000
# 3 -37.0932 14.6148 -22.3497 0.0000 0.0000 0.0000
# 4 0.0000 0.0000 0.0000 -25.6101 0.0000 0.0000
# 5 0.0000 0.0000 0.0000 0.0000 -35.1063 0.0000
# 6 0.0000 0.0000 0.0000 0.0000 0.0000 44.5240
#
#
#
# Elastic Compliance Matrix: (Units=1/GPa)
#
#
# Indices 1 2 3 4 5 6 
#
# 1 0.004900 -0.000614 -0.008535 0.000000 0.000000 0.000000
# 2 -0.000614 0.006477 0.005255 0.000000 0.000000 0.000000
# 3 -0.008535 0.005255 -0.027142 0.000000 0.000000 0.000000
# 4 0.000000 0.000000 0.000000 -0.039047 0.000000 0.000000
# 5 0.000000 0.000000 0.000000 0.000000 -0.028485 0.000000
# 6 0.000000 0.000000 0.000000 0.000000 0.000000 0.022460
#
#
# Mechanical properties :
#
#
# Convention : Reuss Voigt Hill
#
# Bulk Modulus (GPa) = -42.45716 34.67268 -3.89224
# Shear Modulus (GPa) = -82.10226 13.29085 -34.40570
#
# Velocity S-wave (km/s) = -6.15956 2.47827 -3.98738
# Velocity P-wave (km/s) = 8.37895 4.92053 4.79558
#
# Compressibility (1/GPa) = -0.02355315
#
# Stress axis : x y z
#
# Youngs Moduli (GPa) = 204.06653 154.39787 -36.84341
#
# Poissons Ratio (x) = 0.09488 -0.31445
# Poissons Ratio (y) = 0.12540 0.19362
# Poissons Ratio (z) = 1.74167 -0.81138
#
# Static dielectric constant tensor:
#      x y z
#    x 1.963850 0.000000 0.000000 
#    y 0.000000 1.844970 0.000000 
#    z 0.000000 0.000000 1.797790 
# 
# From -- ./inp_files/31895.got.cif
#   From: 2010.05.17/outbox.cif.g08.bks.cpg/sg21_16_cif.got.tgz:31895.got - 2010.06.03 23:14:55.
