data_PCOD9324298
_publ_section_title
;
Structure prediction by ZEFSAII (Michael W. Deem and Ramdas Pophale) SiO2 
 PCOD9324298
Probable space group: C 2 2 2
;
_chemical_formula_sum "Si O2"
_cell_formula_units_Z 48
_cell_length_a 5.835543
_cell_length_b 14.006878
_cell_length_c 27.139401
_cell_angle_alpha 90.000000
_cell_angle_beta 90.000000
_cell_angle_gamma 90.000000
_cell_volume 2218.313272
_symmetry_space_group_name_H-M "C 2 2 2"
_symmetry_group_IT_number 21
_symmetry_cell_setting 'orthorhombic'
loop_
_space_group_symop_operation_xyz
x,y,z
-x,-y,z
x,-y,-z
-x,y,-z
1/2+x,1/2+y,z
1/2-x,1/2-y,z
1/2+x,1/2-y,-z
1/2-x,1/2+y,-z
loop_
_atom_site_type_symbol
_atom_site_label
_atom_site_fract_x
_atom_site_fract_y
_atom_site_fract_z
Si Si1 0.866167 0.647144 0.603078
Si Si2 0.250000 0.750000 0.972997
Si Si3 0.859513 0.401877 0.696744
Si Si4 0.107276 0.900186 0.900990
Si Si5 0.000000 0.000000 0.361946
Si Si6 0.130883 0.649398 0.810131
Si Si7 0.500000 0.805767 0.500000
Si Si8 0.750000 0.250000 0.139365
O O1 0.750000 0.750000 0.599743
O O2 0.690957 0.558331 0.608194
O O3 0.013441 0.653781 0.653113
O O4 0.998755 0.636971 0.551487
O O5 0.269423 0.846313 0.939725
O O6 0.500000 0.741574 0.000000
O O7 0.612810 0.422962 0.674235
O O8 0.847869 0.368303 0.752483
O O9 0.000000 0.500000 0.699253
O O10 0.243102 0.918599 0.849301
O O11 0.917002 0.817503 0.891888
O O12 0.000000 0.000000 0.917623
O O13 0.250000 0.750000 0.820052
O O14 0.874033 0.671948 0.826087
O O15 0.250000 0.750000 0.501672
#
# Coordination Sequence:
#
# PCOD9324298 Si02
#       8
#     8   4   8   8   4   8   4   4
#     4  10  24  43  71  94 135 184 240 302 370 442
#     4  12  27  54  80 108 158 194 249 330 368 442
#     4  10  24  39  60 101 138 184 238 294 363 443
#     4  11  25  46  73 107 140 196 244 301 372 449
#     4  10  24  44  63  96 144 180 243 302 366 448
#     4  10  23  38  67  99 141 187 241 296 364 436
#     4  10  24  44  75 105 130 184 248 306 376 453
#     4  10  21  44  64 102 150 182 243 306 360 432
#
# _framework density 21.638059999999999
#
# number of rings (size 3 to 8) (size 9 to 14) (size 15 to 20)
#    0.000    1.667    2.500    0.500   11.667    3.000 
#    0.000    7.083    0.000    0.000    0.000    0.000 
#    0.000    0.000    0.000    0.000    0.000    0.000 
#
# Total GULP energy -133738.155820 kJ/mol
# GULP energy per Si atom -5572.423159 kJ/mol
# Density = 2.158881 g / cm^3
# Si number density = 21.638060 Si / 1000 Ang^3
#
#
#
# Elastic Constant Matrix: (Units=GPa)
#
#
# Indices 1 2 3 4 5 6 
#
# 1 87.0293 16.0041 46.0440 0.0000 0.0000 0.0000
# 2 16.0041 77.2509 37.5679 0.0000 0.0000 0.0000
# 3 46.0440 37.5679 141.8944 0.0000 0.0000 0.0000
# 4 0.0000 0.0000 0.0000 157.2260 0.0000 0.0000
# 5 0.0000 0.0000 0.0000 0.0000 37.8343 0.0000
# 6 0.0000 0.0000 0.0000 0.0000 0.0000 27.5434
#
#
#
# Elastic Compliance Matrix: (Units=1/GPa)
#
#
# Indices 1 2 3 4 5 6 
#
# 1 0.013914 -0.000788 -0.004306 0.000000 0.000000 0.000000
# 2 -0.000788 0.014903 -0.003690 0.000000 0.000000 0.000000
# 3 -0.004306 -0.003690 0.009422 0.000000 0.000000 0.000000
# 4 0.000000 0.000000 0.000000 0.006360 0.000000 0.000000
# 5 0.000000 0.000000 0.000000 0.000000 0.026431 0.000000
# 6 0.000000 0.000000 0.000000 0.000000 0.000000 0.036306
#
#
# Mechanical properties :
#
#
# Convention : Reuss Voigt Hill
#
# Bulk Modulus (GPa) = 48.38100 56.15630 52.26865
# Shear Modulus (GPa) = 37.93805 58.29131 48.11468
#
# Velocity S-wave (km/s) = 4.19179 5.19593 4.72064
# Velocity P-wave (km/s) = 6.77022 7.87438 7.34308
#
# Compressibility (1/GPa) = 0.02066927
#
# Stress axis : x y z
#
# Youngs Moduli (GPa) = 71.87210 67.10267 106.13759
#
# Poissons Ratio (x) = 0.05290 0.45705
# Poissons Ratio (y) = 0.05666 0.39162
# Poissons Ratio (z) = 0.30949 0.24759
#
# Static dielectric constant tensor:
#      x y z
#    x 1.917270 0.000000 0.000000 
#    y 0.000000 1.773100 0.000000 
#    z 0.000000 0.000000 1.857000 
# 
# From -- ./inp_files/39479.got.cif
#   From: 2010.05.17/outbox.cif.g08.bks.cpg/sg21_20_cif.got.tgz:39479.got - 2010.06.03 23:14:55.
