data_PCOD9324860
_publ_section_title
;
Structure prediction by ZEFSAII (Michael W. Deem and Ramdas Pophale) SiO2 
 PCOD9324860
Probable space group: C 2 2 2
;
_chemical_formula_sum "Si O2"
_cell_formula_units_Z 54
_cell_length_a 13.581209
_cell_length_b 15.298419
_cell_length_c 12.369699
_cell_angle_alpha 90.000000
_cell_angle_beta 90.000000
_cell_angle_gamma 90.000000
_cell_volume 2570.065050
_symmetry_space_group_name_H-M "C 2 2 2"
_symmetry_group_IT_number 21
_symmetry_cell_setting 'orthorhombic'
loop_
_space_group_symop_operation_xyz
x,y,z
-x,-y,z
x,-y,-z
-x,y,-z
1/2+x,1/2+y,z
1/2-x,1/2-y,z
1/2+x,1/2-y,-z
1/2-x,1/2+y,-z
loop_
_atom_site_type_symbol
_atom_site_label
_atom_site_fract_x
_atom_site_fract_y
_atom_site_fract_z
Si Si1 0.183397 0.166489 0.260000
Si Si2 0.530114 0.738039 0.702060
Si Si3 0.500000 0.000000 0.000000
Si Si4 0.392620 0.079292 0.795745
Si Si5 0.885111 0.099057 0.968667
Si Si6 0.000000 0.680178 0.500000
Si Si7 0.694527 0.662927 0.824638
Si Si8 0.842404 0.446362 0.608966
O O1 0.250000 0.250000 0.229748
O O2 0.146709 0.116892 0.152778
O O3 0.249611 0.394859 0.337066
O O4 0.082290 0.207305 0.306099
O O5 0.551919 0.829302 0.766263
O O6 0.562734 0.760946 0.581402
O O7 0.593947 0.662728 0.758464
O O8 0.566946 0.947897 0.913453
O O9 0.275215 0.090869 0.804076
O O10 0.394178 0.007952 0.699598
O O11 0.829487 0.163897 0.049392
O O12 0.000000 0.110212 0.000000
O O13 0.859748 0.000000 0.000000
O O14 0.074243 0.620755 0.568074
O O15 0.750000 0.750000 0.789235
O O16 0.814252 0.500000 0.500000
#
# Coordination Sequence:
#
# PCOD9324860 Si02
#       8
#     8   8   2   8   8   4   8   8
#     4  12  26  44  74 112 146 188 258 313 369 442
#     4  11  24  46  70 103 142 193 248 304 374 441
#     4  12  28  40  70 108 154 176 246 322 360 452
#     4  11  26  45  72 107 143 193 244 307 379 454
#     4  11  23  42  70  97 144 194 233 293 369 447
#     4  12  23  44  74  98 141 192 238 306 377 432
#     4  10  23  44  66 100 138 186 235 296 366 445
#     4  12  26  46  75 109 146 195 250 310 379 456
#
# _framework density 21.011142
#
# number of rings (size 3 to 8) (size 9 to 14) (size 15 to 20)
#    0.000    0.741    4.444    2.444    3.111    3.556 
#    2.667    0.000    0.000    0.889    0.000    0.000 
#    0.000    0.000    0.000    0.000    0.000    0.000 
#
# Total GULP energy -150658.761136 kJ/mol
# GULP energy per Si atom -5579.954116 kJ/mol
# Density = 2.096332 g / cm^3
# Si number density = 21.011142 Si / 1000 Ang^3
#
#
#
# Elastic Constant Matrix: (Units=GPa)
#
#
# Indices 1 2 3 4 5 6 
#
# 1 138.6017 54.6207 56.5535 0.0000 0.0000 0.0000
# 2 54.6207 69.1548 56.7353 0.0000 0.0000 0.0000
# 3 56.5535 56.7353 162.2113 0.0000 0.0000 0.0000
# 4 0.0000 0.0000 0.0000 36.2081 0.0000 0.0000
# 5 0.0000 0.0000 0.0000 0.0000 35.1543 0.0000
# 6 0.0000 0.0000 0.0000 0.0000 0.0000 27.7799
#
#
#
# Elastic Compliance Matrix: (Units=1/GPa)
#
#
# Indices 1 2 3 4 5 6 
#
# 1 0.010608 -0.007495 -0.001077 0.000000 0.000000 0.000000
# 2 -0.007495 0.025575 -0.006332 0.000000 0.000000 0.000000
# 3 -0.001077 -0.006332 0.008755 0.000000 0.000000 0.000000
# 4 0.000000 0.000000 0.000000 0.027618 0.000000 0.000000
# 5 0.000000 0.000000 0.000000 0.000000 0.028446 0.000000
# 6 0.000000 0.000000 0.000000 0.000000 0.000000 0.035997
#
#
# Mechanical properties :
#
#
# Convention : Reuss Voigt Hill
#
# Bulk Modulus (GPa) = 66.09406 78.42074 72.25740
# Shear Modulus (GPa) = 29.09499 33.29901 31.19700
#
# Velocity S-wave (km/s) = 3.72525 3.98531 3.85747
# Velocity P-wave (km/s) = 7.07307 7.65384 7.36918
#
# Compressibility (1/GPa) = 0.01512995
#
# Stress axis : x y z
#
# Youngs Moduli (GPa) = 94.26845 39.10060 114.22080
#
# Poissons Ratio (x) = 0.29306 0.12301
# Poissons Ratio (y) = 0.70655 0.72326
# Poissons Ratio (z) = 0.10152 0.24759
#
# Static dielectric constant tensor:
#      x y z
#    x 1.807360 0.000000 0.000000 
#    y 0.000000 1.843560 0.000000 
#    z 0.000000 0.000000 1.762490 
# 
# From -- ./inp_files/25309.got.cif
#   From: 2010.05.17/outbox.cif.g08.bks.cpg/sg21_13_cif.got.tgz:25309.got - 2010.06.03 23:14:55.
