data_PCOD9324295
_publ_section_title
;
Structure prediction by ZEFSAII (Michael W. Deem and Ramdas Pophale) SiO2 
 PCOD9324295
Probable space group: C 2 2 2
;
_chemical_formula_sum "Si O2"
_cell_formula_units_Z 38
_cell_length_a 9.314617
_cell_length_b 22.190380
_cell_length_c 7.169285
_cell_angle_alpha 90.000000
_cell_angle_beta 90.000000
_cell_angle_gamma 90.000000
_cell_volume 1481.854580
_symmetry_space_group_name_H-M "C 2 2 2"
_symmetry_group_IT_number 21
_symmetry_cell_setting 'orthorhombic'
loop_
_space_group_symop_operation_xyz
x,y,z
-x,-y,z
x,-y,-z
-x,y,-z
1/2+x,1/2+y,z
1/2-x,1/2-y,z
1/2+x,1/2-y,-z
1/2-x,1/2+y,-z
loop_
_atom_site_type_symbol
_atom_site_label
_atom_site_fract_x
_atom_site_fract_y
_atom_site_fract_z
Si Si1 0.915594 0.821926 0.305960
Si Si2 0.700654 0.096650 0.532473
Si Si3 0.000000 0.500000 0.500000
Si Si4 0.631226 0.111069 0.119442
Si Si5 0.086866 0.939347 0.232123
Si Si6 0.000000 0.273149 0.000000
O O1 0.744778 0.653808 0.353543
O O2 0.000000 0.809189 0.500000
O O3 0.988807 0.880767 0.216547
O O4 0.942729 0.767672 0.167062
O O5 0.615577 0.115326 0.344392
O O6 0.842195 0.067037 0.438552
O O7 0.609721 0.041657 0.616335
O O8 0.775861 0.072884 0.099066
O O9 0.500000 0.085270 0.000000
O O10 0.628024 0.180942 0.058577
O O11 0.000000 0.000000 0.205866
#
# Coordination Sequence:
#
# PCOD9324295 Si02
#       6
#     8   8   2   8   8   4
#     4  10  21  43  77 116 152 212 275 337 419 489
#     4   9  21  39  69 114 155 203 279 328 431 498
#     4  12  20  40  68 100 164 208 258 358 410 498
#     4   8  20  43  69 109 165 217 272 338 425 488
#     4   9  18  39  76 109 156 205 269 345 417 498
#     4  10  22  46  75 105 178 214 272 344 402 498
#
# _framework density 25.643540999999999
#
# number of rings (size 3 to 8) (size 9 to 14) (size 15 to 20)
#    1.895    0.842    0.000    1.263    0.000    3.789 
#    5.684    1.053    9.263    0.000    0.000    0.000 
#    0.000    0.000    0.000    0.000    0.000    0.000 
#
# Total GULP energy -106068.946317 kJ/mol
# GULP energy per Si atom -5582.576122 kJ/mol
# Density = 2.558518 g / cm^3
# Si number density = 25.643541 Si / 1000 Ang^3
#
#
#
# Elastic Constant Matrix: (Units=GPa)
#
#
# Indices 1 2 3 4 5 6 
#
# 1 131.4857 80.9595 61.9571 0.0000 0.0000 0.0000
# 2 80.9595 177.2074 69.4152 0.0000 0.0000 0.0000
# 3 61.9571 69.4152 137.9089 0.0000 0.0000 0.0000
# 4 0.0000 0.0000 0.0000 -8.5295 0.0000 0.0000
# 5 0.0000 0.0000 0.0000 0.0000 49.2621 0.0000
# 6 0.0000 0.0000 0.0000 0.0000 0.0000 30.7211
#
#
#
# Elastic Compliance Matrix: (Units=1/GPa)
#
#
# Indices 1 2 3 4 5 6 
#
# 1 0.011596 -0.004057 -0.003168 0.000000 0.000000 0.000000
# 2 -0.004057 0.008448 -0.002430 0.000000 0.000000 0.000000
# 3 -0.003168 -0.002430 0.009897 0.000000 0.000000 0.000000
# 4 0.000000 0.000000 0.000000 -0.117241 0.000000 0.000000
# 5 0.000000 0.000000 0.000000 0.000000 0.020300 0.000000
# 6 0.000000 0.000000 0.000000 0.000000 0.000000 0.032551
#
#
# Mechanical properties :
#
#
# Convention : Reuss Voigt Hill
#
# Bulk Modulus (GPa) = 94.04742 96.80729 95.42736
# Shear Modulus (GPa) = -431.19505 29.90874 -200.64315
#
# Velocity S-wave (km/s) = -12.98132 3.41886 -8.85511
# Velocity P-wave (km/s) = 13.70882 7.30875 8.20103
#
# Compressibility (1/GPa) = 0.01063293
#
# Stress axis : x y z
#
# Youngs Moduli (GPa) = 86.23682 118.36602 101.03833
#
# Poissons Ratio (x) = 0.48021 0.32005
# Poissons Ratio (y) = 0.34986 0.24550
# Poissons Ratio (z) = 0.27316 0.28760
#
# Static dielectric constant tensor:
#      x y z
#    x 2.136680 0.000000 0.000000 
#    y 0.000000 1.983370 0.000000 
#    z 0.000000 0.000000 2.083820 
# 
# From -- ./inp_files/12777.got.cif
#   From: 2010.05.17/outbox.cif.g08.bks.cpg/sg21_7_cif.got.tgz:12777.got - 2010.06.03 23:14:55.
