data_PCOD9324483
_publ_section_title
;
Structure prediction by ZEFSAII (Michael W. Deem and Ramdas Pophale) SiO2 
 PCOD9324483
Probable space group: C 2 2 2
;
_chemical_formula_sum "Si O2"
_cell_formula_units_Z 56
_cell_length_a 20.843956
_cell_length_b 7.674421
_cell_length_c 17.190285
_cell_angle_alpha 90.000000
_cell_angle_beta 90.000000
_cell_angle_gamma 90.000000
_cell_volume 2749.848988
_symmetry_space_group_name_H-M "C 2 2 2"
_symmetry_group_IT_number 21
_symmetry_cell_setting 'orthorhombic'
loop_
_space_group_symop_operation_xyz
x,y,z
-x,-y,z
x,-y,-z
-x,y,-z
1/2+x,1/2+y,z
1/2-x,1/2-y,z
1/2+x,1/2-y,-z
1/2-x,1/2+y,-z
loop_
_atom_site_type_symbol
_atom_site_label
_atom_site_fract_x
_atom_site_fract_y
_atom_site_fract_z
Si Si1 0.656926 0.536886 0.276703
Si Si2 0.953476 0.160544 0.191047
Si Si3 0.250493 0.458862 0.410199
Si Si4 0.000000 0.500000 0.731542
Si Si5 0.137490 0.557863 0.696091
Si Si6 0.574732 0.701560 0.979216
Si Si7 0.327039 0.000000 0.000000
Si Si8 0.269569 0.049722 0.831775
O O1 0.598319 0.414944 0.251460
O O2 0.695211 0.468797 0.352313
O O3 0.635872 0.732508 0.297250
O O4 0.709074 0.550727 0.206709
O O5 0.995574 0.323416 0.218528
O O6 0.917690 0.217677 0.113267
O O7 0.000000 0.000000 0.170221
O O8 0.258884 0.500000 0.500000
O O9 0.250000 0.250000 0.401479
O O10 0.182791 0.509930 0.372648
O O11 0.934486 0.502320 0.684972
O O12 0.169457 0.492253 0.776749
O O13 0.625630 0.835313 0.013980
O O14 0.586774 0.500000 0.000000
O O15 0.500000 0.741310 0.000000
O O16 0.284869 0.017319 0.921968
O O17 0.250000 0.250000 0.822339
#
# Coordination Sequence:
#
# PCOD9324483 Si02
#       8
#     8   8   8   4   8   8   4   8
#     4  10  22  44  66  94 131 167 217 270 323 382
#     4  12  24  42  66  94 129 168 217 271 320 389
#     4   9  20  39  67  98 130 171 212 258 317 381
#     4  12  24  38  68  98 126 172 218 258 330 381
#     4  10  22  40  64  96 128 169 216 267 317 390
#     4  11  25  42  61  90 124 173 221 265 329 386
#     4  12  27  42  62  90 127 162 222 282 320 392
#     4  11  24  43  59  91 123 168 217 270 333 385
#
# _framework density 20.364754999999999
#
# number of rings (size 3 to 8) (size 9 to 14) (size 15 to 20)
#    0.000    1.286    2.857    4.071    6.000    4.571 
#    5.143    0.357    0.000    0.429    0.000    0.000 
#    0.000    0.000    0.000    0.000    0.000    0.000 
#
# Total GULP energy -156516.696878 kJ/mol
# GULP energy per Si atom -5589.882031 kJ/mol
# Density = 2.031840 g / cm^3
# Si number density = 20.364755 Si / 1000 Ang^3
#
#
#
# Elastic Constant Matrix: (Units=GPa)
#
#
# Indices 1 2 3 4 5 6 
#
# 1 64.0420 8.3679 18.6435 0.0000 0.0000 0.0000
# 2 8.3679 66.8578 -3.8345 0.0000 0.0000 0.0000
# 3 18.6435 -3.8345 98.0581 0.0000 0.0000 0.0000
# 4 0.0000 0.0000 0.0000 25.2907 0.0000 0.0000
# 5 0.0000 0.0000 0.0000 0.0000 12.6573 0.0000
# 6 0.0000 0.0000 0.0000 0.0000 0.0000 32.4019
#
#
#
# Elastic Compliance Matrix: (Units=1/GPa)
#
#
# Indices 1 2 3 4 5 6 
#
# 1 0.016876 -0.002301 -0.003299 0.000000 0.000000 0.000000
# 2 -0.002301 0.015305 0.001036 0.000000 0.000000 0.000000
# 3 -0.003299 0.001036 0.010866 0.000000 0.000000 0.000000
# 4 0.000000 0.000000 0.000000 0.039540 0.000000 0.000000
# 5 0.000000 0.000000 0.000000 0.000000 0.079006 0.000000
# 6 0.000000 0.000000 0.000000 0.000000 0.000000 0.030862
#
#
# Mechanical properties :
#
#
# Convention : Reuss Voigt Hill
#
# Bulk Modulus (GPa) = 29.48262 30.59018 30.03640
# Shear Modulus (GPa) = 23.48654 27.78872 25.63763
#
# Velocity S-wave (km/s) = 3.39970 3.69799 3.55198
# Velocity P-wave (km/s) = 5.46986 5.76951 5.62168
#
# Compressibility (1/GPa) = 0.03391829
#
# Stress axis : x y z
#
# Youngs Moduli (GPa) = 59.25686 65.33991 92.03283
#
# Poissons Ratio (x) = 0.15037 0.30357
# Poissons Ratio (y) = 0.13637 -0.09535
# Poissons Ratio (z) = 0.19546 -0.06769
#
# Static dielectric constant tensor:
#      x y z
#    x 1.758550 0.000000 0.000000 
#    y 0.000000 1.753310 0.000000 
#    z 0.000000 0.000000 1.720590 
# 
# From -- ./inp_files/33338.got.cif
#   From: 2010.05.17/outbox.cif.g08.bks.cpg/sg21_17_cif.got.tgz:33338.got - 2010.06.03 23:14:55.
