data_PCOD9324688
_publ_section_title
;
Structure prediction by ZEFSAII (Michael W. Deem and Ramdas Pophale) SiO2 
 PCOD9324688
Probable space group: C 2 2 2
;
_chemical_formula_sum "Si O2"
_cell_formula_units_Z 64
_cell_length_a 16.871270
_cell_length_b 19.235376
_cell_length_c 9.265293
_cell_angle_alpha 90.000000
_cell_angle_beta 90.000000
_cell_angle_gamma 90.000000
_cell_volume 3006.821268
_symmetry_space_group_name_H-M "C 2 2 2"
_symmetry_group_IT_number 21
_symmetry_cell_setting 'orthorhombic'
loop_
_space_group_symop_operation_xyz
x,y,z
-x,-y,z
x,-y,-z
-x,y,-z
1/2+x,1/2+y,z
1/2-x,1/2-y,z
1/2+x,1/2-y,-z
1/2-x,1/2+y,-z
loop_
_atom_site_type_symbol
_atom_site_label
_atom_site_fract_x
_atom_site_fract_y
_atom_site_fract_z
Si Si1 0.583849 0.993819 0.713610
Si Si2 0.968346 0.858794 0.345599
Si Si3 0.906642 0.328462 0.978051
Si Si4 0.926189 0.195819 0.112329
Si Si5 0.843265 0.737030 0.321769
Si Si6 0.784029 0.440489 0.899148
Si Si7 0.914869 0.375918 0.493077
Si Si8 0.883954 0.928278 0.084758
O O1 0.661476 0.019495 0.789401
O O2 0.574300 0.055959 0.595553
O O3 0.500000 0.000000 0.796369
O O4 0.596863 0.915645 0.657184
O O5 0.894460 0.805275 0.361892
O O6 0.944379 0.912477 0.216662
O O7 0.000000 0.885310 0.500000
O O8 0.040428 0.817011 0.269822
O O9 0.887674 0.295274 0.819675
O O10 0.844046 0.390550 0.982294
O O11 0.884047 0.269204 0.093200
O O12 0.000000 0.348067 0.000000
O O13 0.884049 0.130057 0.041551
O O14 0.000000 0.204492 0.000000
O O15 0.750000 0.750000 0.293174
O O16 0.851947 0.677354 0.444148
O O17 0.701765 0.412763 0.839923
O O18 0.750692 0.500000 0.000000
O O19 0.000000 0.338648 0.500000
O O20 0.902948 0.000000 0.000000
#
# Coordination Sequence:
#
# PCOD9324688 Si02
#       8
#     8   8   8   8   8   8   8   8
#     4   9  19  35  56  86 122 174 222 260 316 394
#     4  11  23  43  71 102 131 166 234 283 323 416
#     4  11  21  36  61  94 128 174 219 265 324 385
#     4   9  19  40  65  94 130 170 217 274 331 397
#     4  12  22  38  66  96 130 176 221 270 340 401
#     4  11  24  36  60  97 133 177 227 274 318 403
#     4   9  19  36  58  84 124 176 219 257 326 395
#     4  10  22  44  69  97 136 176 216 280 357 390
#
# _framework density 21.284936999999999
#
# number of rings (size 3 to 8) (size 9 to 14) (size 15 to 20)
#    0.000    1.750    5.000    1.875    1.750    2.250 
#    2.250    3.750    0.000    0.000    0.000    0.000 
#    0.000    0.000    0.000    0.000    0.000    0.000 
#
# Total GULP energy -178151.319148 kJ/mol
# GULP energy per Si atom -5567.228723 kJ/mol
# Density = 2.123649 g / cm^3
# Si number density = 21.284937 Si / 1000 Ang^3
#
#
#
# Elastic Constant Matrix: (Units=GPa)
#
#
# Indices 1 2 3 4 5 6 
#
# 1 99.8644 29.5108 36.5684 0.0000 0.0000 0.0000
# 2 29.5108 101.2109 26.6733 0.0000 0.0000 0.0000
# 3 36.5684 26.6733 78.6846 0.0000 0.0000 0.0000
# 4 0.0000 0.0000 0.0000 1.0331 0.0000 0.0000
# 5 0.0000 0.0000 0.0000 0.0000 -311.2927 0.0000
# 6 0.0000 0.0000 0.0000 0.0000 0.0000 18.4741
#
#
#
# Elastic Compliance Matrix: (Units=1/GPa)
#
#
# Indices 1 2 3 4 5 6 
#
# 1 0.012548 -0.002330 -0.005042 0.000000 0.000000 0.000000
# 2 -0.002330 0.011282 -0.002742 0.000000 0.000000 0.000000
# 3 -0.005042 -0.002742 0.015982 0.000000 0.000000 0.000000
# 4 0.000000 0.000000 0.000000 0.967950 0.000000 0.000000
# 5 0.000000 0.000000 0.000000 0.000000 -0.003212 0.000000
# 6 0.000000 0.000000 0.000000 0.000000 0.000000 0.054130
#
#
# Mechanical properties :
#
#
# Convention : Reuss Voigt Hill
#
# Bulk Modulus (GPa) = 51.05981 51.69609 51.37795
# Shear Modulus (GPa) = 4.60644 -45.88995 -20.64175
#
# Velocity S-wave (km/s) = 1.47271 -4.64829 -3.11751
# Velocity P-wave (km/s) = 5.18966 2.11388 3.35143
#
# Compressibility (1/GPa) = 0.01958488
#
# Stress axis : x y z
#
# Youngs Moduli (GPa) = 79.69145 88.63436 62.57193
#
# Poissons Ratio (x) = 0.20652 0.31549
# Poissons Ratio (y) = 0.18569 0.17155
# Poissons Ratio (z) = 0.40180 0.24301
#
# Static dielectric constant tensor:
#      x y z
#    x 2.066960 0.000000 0.000000 
#    y 0.000000 2.618190 0.000000 
#    z 0.000000 0.000000 1.766210 
# 
# From -- ./inp_files/16855.got.cif
#   From: 2010.05.17/outbox.cif.g08.bks.cpg/sg21_9_cif.got.tgz:16855.got - 2010.06.03 23:14:55.
