data_PCOD9324795
_publ_section_title
;
Structure prediction by ZEFSAII (Michael W. Deem and Ramdas Pophale) SiO2 
 PCOD9324795
Probable space group: C 2 2 2
;
_chemical_formula_sum "Si O2"
_cell_formula_units_Z 48
_cell_length_a 17.186965
_cell_length_b 14.045898
_cell_length_c 8.820946
_cell_angle_alpha 90.000000
_cell_angle_beta 90.000000
_cell_angle_gamma 90.000000
_cell_volume 2129.432442
_symmetry_space_group_name_H-M "C 2 2 2"
_symmetry_group_IT_number 21
_symmetry_cell_setting 'orthorhombic'
loop_
_space_group_symop_operation_xyz
x,y,z
-x,-y,z
x,-y,-z
-x,y,-z
1/2+x,1/2+y,z
1/2-x,1/2-y,z
1/2+x,1/2-y,-z
1/2-x,1/2+y,-z
loop_
_atom_site_type_symbol
_atom_site_label
_atom_site_fract_x
_atom_site_fract_y
_atom_site_fract_z
Si Si1 0.407463 0.981884 0.669731
Si Si2 0.830095 0.891234 0.690759
Si Si3 0.002845 0.143266 0.828990
Si Si4 0.375407 0.788785 0.828998
Si Si5 0.852570 0.109492 0.658512
Si Si6 0.304155 0.093318 0.903922
O O1 0.368922 0.051057 0.791701
O O2 0.500000 0.000000 0.674329
O O3 0.379209 0.000000 0.500000
O O4 0.382537 0.875044 0.712080
O O5 0.836423 0.862274 0.514717
O O6 0.761011 0.859928 0.798995
O O7 0.910870 0.862447 0.768096
O O8 0.817938 0.006188 0.687169
O O9 0.962710 0.246739 0.844346
O O10 0.943810 0.096432 0.706203
O O11 0.000000 0.103199 0.000000
O O12 0.170864 0.803824 0.767872
O O13 0.341050 0.832134 0.980493
O O14 0.275210 0.000000 0.000000
#
# Coordination Sequence:
#
# PCOD9324795 Si02
#       6
#     8   8   8   8   8   8
#     4  10  23  42  75  98 132 195 251 300 368 443
#     4  11  22  43  72 108 143 203 230 308 387 455
#     4  10  23  40  72 103 146 186 240 295 360 462
#     4   9  23  46  67 103 141 184 244 306 356 444
#     4   9  23  41  73 103 150 186 250 295 379 461
#     4  10  24  43  74  99 146 187 245 304 383 440
#
# _framework density 22.541218000000001
#
# number of rings (size 3 to 8) (size 9 to 14) (size 15 to 20)
#    1.000    1.167    0.000    1.000    7.000    7.000 
#    0.000    7.500    3.667    0.000    0.000    0.000 
#    0.000    0.000    0.000    0.000    0.000    0.000 
#
# Total GULP energy -134054.065219 kJ/mol
# GULP energy per Si atom -5585.586051 kJ/mol
# Density = 2.248991 g / cm^3
# Si number density = 22.541218 Si / 1000 Ang^3
#
#
#
# Elastic Constant Matrix: (Units=GPa)
#
#
# Indices 1 2 3 4 5 6 
#
# 1 60.3306 26.8975 41.1699 0.0000 0.0000 0.0000
# 2 26.8975 123.0080 64.7461 0.0000 0.0000 0.0000
# 3 41.1699 64.7461 173.3069 0.0000 0.0000 0.0000
# 4 0.0000 0.0000 0.0000 30.8660 0.0000 0.0000
# 5 0.0000 0.0000 0.0000 0.0000 28.4466 0.0000
# 6 0.0000 0.0000 0.0000 0.0000 0.0000 29.9349
#
#
#
# Elastic Compliance Matrix: (Units=1/GPa)
#
#
# Indices 1 2 3 4 5 6 
#
# 1 0.020322 -0.002368 -0.003943 0.000000 0.000000 0.000000
# 2 -0.002368 0.010395 -0.003321 0.000000 0.000000 0.000000
# 3 -0.003943 -0.003321 0.007947 0.000000 0.000000 0.000000
# 4 0.000000 0.000000 0.000000 0.032398 0.000000 0.000000
# 5 0.000000 0.000000 0.000000 0.000000 0.035154 0.000000
# 6 0.000000 0.000000 0.000000 0.000000 0.000000 0.033406
#
#
# Mechanical properties :
#
#
# Convention : Reuss Voigt Hill
#
# Bulk Modulus (GPa) = 51.54532 69.14139 60.34335
# Shear Modulus (GPa) = 30.23826 32.77162 31.50494
#
# Velocity S-wave (km/s) = 3.66658 3.81708 3.74258
# Velocity P-wave (km/s) = 6.39076 7.08285 6.74568
#
# Compressibility (1/GPa) = 0.01940040
#
# Stress axis : x y z
#
# Youngs Moduli (GPa) = 49.20829 96.19561 125.82660
#
# Poissons Ratio (x) = 0.22783 0.49610
# Poissons Ratio (y) = 0.11654 0.41788
# Poissons Ratio (z) = 0.19402 0.31947
#
# Static dielectric constant tensor:
#      x y z
#    x 1.849700 0.000000 0.000000 
#    y 0.000000 1.860590 0.000000 
#    z 0.000000 0.000000 1.805220 
# 
# From -- ./inp_files/15002.got.cif
#   From: 2010.05.17/outbox.cif.g08.bks.cpg/sg21_8_cif.got.tgz:15002.got - 2010.06.03 23:14:55.
