data_PCOD9324266
_publ_section_title
;
Structure prediction by ZEFSAII (Michael W. Deem and Ramdas Pophale) SiO2 
 PCOD9324266
Probable space group: C 2 2 2
;
_chemical_formula_sum "Si O2"
_cell_formula_units_Z 54
_cell_length_a 16.309928
_cell_length_b 10.475972
_cell_length_c 15.401469
_cell_angle_alpha 90.000000
_cell_angle_beta 90.000000
_cell_angle_gamma 90.000000
_cell_volume 2631.531172
_symmetry_space_group_name_H-M "C 2 2 2"
_symmetry_group_IT_number 21
_symmetry_cell_setting 'orthorhombic'
loop_
_space_group_symop_operation_xyz
x,y,z
-x,-y,z
x,-y,-z
-x,y,-z
1/2+x,1/2+y,z
1/2-x,1/2-y,z
1/2+x,1/2-y,-z
1/2-x,1/2+y,-z
loop_
_atom_site_type_symbol
_atom_site_label
_atom_site_fract_x
_atom_site_fract_y
_atom_site_fract_z
Si Si1 0.604077 0.339319 0.856214
Si Si2 0.764924 0.403938 0.423971
Si Si3 0.900268 0.350254 0.989216
Si Si4 0.750000 0.750000 0.898529
Si Si5 0.456090 0.880319 0.407646
Si Si6 0.700462 0.542778 0.768494
Si Si7 0.527560 0.634109 0.707907
Si Si8 0.000000 0.000000 0.000000
O O1 0.619522 0.200421 0.893629
O O2 0.682296 0.409576 0.815634
O O3 0.539917 0.332925 0.778598
O O4 0.559844 0.419917 0.934786
O O5 0.733479 0.500000 0.500000
O O6 0.750000 0.250000 0.435997
O O7 0.862363 0.415098 0.421156
O O8 0.733308 0.450883 0.329729
O O9 0.884252 0.500000 0.000000
O O10 0.834747 0.268647 0.047119
O O11 0.000000 0.331673 0.000000
O O12 0.749703 0.629249 0.834807
O O13 0.500000 0.864314 0.500000
O O14 0.461733 0.749042 0.356984
O O15 0.500000 0.000000 0.361706
O O16 0.611008 0.607403 0.758900
O O17 0.500000 0.500000 0.665220
#
# Coordination Sequence:
#
# PCOD9324266 Si02
#       8
#     8   8   8   4   8   8   8   2
#     4  11  22  41  68 104 138 189 243 289 354 428
#     4  12  25  47  73 103 143 184 238 301 369 437
#     4  11  26  46  68 107 148 189 244 302 364 427
#     4  12  24  44  74  98 142 198 234 302 364 430
#     4  11  23  46  70  99 140 189 235 282 366 443
#     4  11  22  43  72 101 142 183 244 293 366 431
#     4  10  21  42  69 109 136 181 243 298 351 426
#     4  12  16  36  74  92 134 180 238 286 332 424
#
# _framework density 20.520371999999998
#
# number of rings (size 3 to 8) (size 9 to 14) (size 15 to 20)
#    0.000    0.889    6.667    1.778    2.074    2.667 
#    8.000    0.000    0.000    0.000    0.000    0.000 
#    0.000    0.000    0.000    0.000    0.000    0.000 
#
# Total GULP energy -150629.881923 kJ/mol
# GULP energy per Si atom -5578.884516 kJ/mol
# Density = 2.047367 g / cm^3
# Si number density = 20.520372 Si / 1000 Ang^3
#
#
#
# Elastic Constant Matrix: (Units=GPa)
#
#
# Indices 1 2 3 4 5 6 
#
# 1 74.1480 15.7891 25.1584 0.0000 0.0000 0.0000
# 2 15.7891 130.6389 55.4880 0.0000 0.0000 0.0000
# 3 25.1584 55.4880 87.5697 0.0000 0.0000 0.0000
# 4 0.0000 0.0000 0.0000 -442.7707 0.0000 0.0000
# 5 0.0000 0.0000 0.0000 0.0000 70.5441 0.0000
# 6 0.0000 0.0000 0.0000 0.0000 0.0000 47.6084
#
#
#
# Elastic Compliance Matrix: (Units=1/GPa)
#
#
# Indices 1 2 3 4 5 6 
#
# 1 0.014943 0.000024 -0.004308 0.000000 0.000000 0.000000
# 2 0.000024 0.010474 -0.006643 0.000000 0.000000 0.000000
# 3 -0.004308 -0.006643 0.016867 0.000000 0.000000 0.000000
# 4 0.000000 0.000000 0.000000 -0.002259 0.000000 0.000000
# 5 0.000000 0.000000 0.000000 0.000000 0.014176 0.000000
# 6 0.000000 0.000000 0.000000 0.000000 0.000000 0.021005
#
#
# Mechanical properties :
#
#
# Convention : Reuss Voigt Hill
#
# Bulk Modulus (GPa) = 48.95232 53.91417 51.43325
# Shear Modulus (GPa) = 48.13709 -51.86222 -1.86257
#
# Velocity S-wave (km/s) = 4.84862 -5.03273 -0.95375
# Velocity P-wave (km/s) = 7.43322 2.72776 4.88938
#
# Compressibility (1/GPa) = 0.02042804
#
# Stress axis : x y z
#
# Youngs Moduli (GPa) = 66.91983 95.47893 59.28834
#
# Poissons Ratio (x) = -0.00228 0.25543
# Poissons Ratio (y) = -0.00160 0.39387
# Poissons Ratio (z) = 0.28831 0.63430
#
# Static dielectric constant tensor:
#      x y z
#    x 1.967400 0.000000 0.000000 
#    y 0.000000 1.814940 0.000000 
#    z 0.000000 0.000000 1.688790 
# 
# From -- ./inp_files/32365.got.cif
#   From: 2010.05.17/outbox.cif.g08.bks.cpg/sg21_17_cif.got.tgz:32365.got - 2010.06.03 23:14:55.
