data_PCOD9324376
_publ_section_title
;
Structure prediction by ZEFSAII (Michael W. Deem and Ramdas Pophale) SiO2 
 PCOD9324376
Probable space group: C 2 2 2
;
_chemical_formula_sum "Si O2"
_cell_formula_units_Z 56
_cell_length_a 16.541818
_cell_length_b 31.442922
_cell_length_c 5.347367
_cell_angle_alpha 90.000000
_cell_angle_beta 90.000000
_cell_angle_gamma 90.000000
_cell_volume 2781.289064
_symmetry_space_group_name_H-M "C 2 2 2"
_symmetry_group_IT_number 21
_symmetry_cell_setting 'orthorhombic'
loop_
_space_group_symop_operation_xyz
x,y,z
-x,-y,z
x,-y,-z
-x,y,-z
1/2+x,1/2+y,z
1/2-x,1/2-y,z
1/2+x,1/2-y,-z
1/2-x,1/2+y,-z
loop_
_atom_site_type_symbol
_atom_site_label
_atom_site_fract_x
_atom_site_fract_y
_atom_site_fract_z
Si Si1 0.206165 0.625484 0.187990
Si Si2 0.805995 0.951892 0.969483
Si Si3 0.149051 0.841576 0.478620
Si Si4 0.592917 0.814784 0.580114
Si Si5 0.264892 0.796935 0.819239
Si Si6 0.408226 0.569344 0.532824
Si Si7 0.946756 0.772968 0.757053
O O1 0.271168 0.631882 0.407400
O O2 0.121134 0.640132 0.303737
O O3 0.232013 0.581848 0.055432
O O4 0.223942 0.664829 0.007788
O O5 0.862206 0.943917 0.213071
O O6 0.859390 0.945400 0.716382
O O7 0.776357 0.000000 0.000000
O O8 0.181896 0.807645 0.673582
O O9 0.089478 0.879046 0.552951
O O10 0.112930 0.812811 0.260447
O O11 0.500000 0.818722 0.500000
O O12 0.657706 0.800827 0.367360
O O13 0.593667 0.773710 0.762366
O O14 0.250000 0.750000 0.922774
O O15 0.500000 0.553795 0.500000
O O16 0.000000 0.774859 0.500000
O O17 0.000000 0.777262 0.000000
#
# Coordination Sequence:
#
# PCOD9324376 Si02
#       7
#     8   8   8   8   8   8   8
#     4  10  24  37  62  88 121 163 214 266 320 386
#     4  11  24  44  66  93 127 165 216 270 325 392
#     4  10  22  38  54  87 129 169 216 259 307 372
#     4  10  24  39  57  89 126 164 214 268 325 378
#     4  11  21  37  62  87 126 169 216 265 315 378
#     4  11  23  40  64  94 134 171 213 265 321 378
#     4  11  25  37  56  86 128 176 218 255 308 369
#
# _framework density 20.134547000000001
#
# number of rings (size 3 to 8) (size 9 to 14) (size 15 to 20)
#    0.000    1.429    2.857    1.286    8.000    4.000 
#    0.000    0.000    0.000    0.000    0.000    3.000 
#    0.000    0.000    0.000    0.000    0.000    0.000 
#
# Total GULP energy -156188.044819 kJ/mol
# GULP energy per Si atom -5578.144458 kJ/mol
# Density = 2.008872 g / cm^3
# Si number density = 20.134547 Si / 1000 Ang^3
#
#
#
# Elastic Constant Matrix: (Units=GPa)
#
#
# Indices 1 2 3 4 5 6 
#
# 1 94.2760 50.1316 27.4876 0.0000 0.0000 0.0000
# 2 50.1316 159.4086 21.8455 0.0000 0.0000 0.0000
# 3 27.4876 21.8455 86.3536 0.0000 0.0000 0.0000
# 4 0.0000 0.0000 0.0000 15.3275 0.0000 0.0000
# 5 0.0000 0.0000 0.0000 0.0000 35.0225 0.0000
# 6 0.0000 0.0000 0.0000 0.0000 0.0000 13.6284
#
#
#
# Elastic Compliance Matrix: (Units=1/GPa)
#
#
# Indices 1 2 3 4 5 6 
#
# 1 0.013622 -0.003822 -0.003369 0.000000 0.000000 0.000000
# 2 -0.003822 0.007571 -0.000699 0.000000 0.000000 0.000000
# 3 -0.003369 -0.000699 0.012829 0.000000 0.000000 0.000000
# 4 0.000000 0.000000 0.000000 0.065242 0.000000 0.000000
# 5 0.000000 0.000000 0.000000 0.000000 0.028553 0.000000
# 6 0.000000 0.000000 0.000000 0.000000 0.000000 0.073376
#
#
# Mechanical properties :
#
#
# Convention : Reuss Voigt Hill
#
# Bulk Modulus (GPa) = 54.81712 59.88528 57.35120
# Shear Modulus (GPa) = 22.41608 28.83393 25.62501
#
# Velocity S-wave (km/s) = 3.34026 3.78837 3.57135
# Velocity P-wave (km/s) = 6.49314 6.99591 6.74921
#
# Compressibility (1/GPa) = 0.01824248
#
# Stress axis : x y z
#
# Youngs Moduli (GPa) = 73.41102 132.08388 77.94547
#
# Poissons Ratio (x) = 0.50485 0.26261
# Poissons Ratio (y) = 0.28059 0.05445
# Poissons Ratio (z) = 0.24733 0.09228
#
# Static dielectric constant tensor:
#      x y z
#    x 1.772740 0.000000 0.000000 
#    y 0.000000 1.772840 0.000000 
#    z 0.000000 0.000000 1.817510 
# 
# From -- ./inp_files/4296.got.cif
#   From: 2010.05.17/outbox.cif.g08.bks.cpg/sg21_3_cif.got.tgz:4296.got - 2010.06.03 23:14:55.
