data_PCOD9324658
_publ_section_title
;
Structure prediction by ZEFSAII (Michael W. Deem and Ramdas Pophale) SiO2 
 PCOD9324658
Probable space group: C 2 2 2
;
_chemical_formula_sum "Si O2"
_cell_formula_units_Z 52
_cell_length_a 12.673358
_cell_length_b 9.609779
_cell_length_c 20.524669
_cell_angle_alpha 90.000000
_cell_angle_beta 90.000000
_cell_angle_gamma 90.000000
_cell_volume 2499.661868
_symmetry_space_group_name_H-M "C 2 2 2"
_symmetry_group_IT_number 21
_symmetry_cell_setting 'orthorhombic'
loop_
_space_group_symop_operation_xyz
x,y,z
-x,-y,z
x,-y,-z
-x,y,-z
1/2+x,1/2+y,z
1/2-x,1/2-y,z
1/2+x,1/2-y,-z
1/2-x,1/2+y,-z
loop_
_atom_site_type_symbol
_atom_site_label
_atom_site_fract_x
_atom_site_fract_y
_atom_site_fract_z
Si Si1 0.505998 0.267535 0.628921
Si Si2 0.331726 0.502151 0.346918
Si Si3 0.215443 0.502956 0.212277
Si Si4 0.750000 0.750000 0.884881
Si Si5 0.750000 0.250000 0.879555
Si Si6 0.670629 0.128373 0.451787
Si Si7 0.000000 0.500000 0.282710
Si Si8 0.376936 0.654638 0.998748
O O1 0.418495 0.374649 0.657137
O O2 0.609157 0.366780 0.621853
O O3 0.439715 0.199721 0.569174
O O4 0.529743 0.135026 0.674138
O O5 0.289592 0.475374 0.274617
O O6 0.234926 0.562055 0.390176
O O7 0.255513 0.621304 0.163723
O O8 0.211076 0.369248 0.167611
O O9 0.100907 0.540360 0.240212
O O10 0.656089 0.741270 0.937607
O O11 0.657740 0.284601 0.930086
O O12 0.750000 0.250000 0.476828
O O13 0.654865 0.000000 0.500000
O O14 0.326567 0.500000 0.000000
O O15 0.500000 0.641858 0.000000
#
# Coordination Sequence:
#
# PCOD9324658 Si02
#       8
#     8   8   8   4   4   8   4   8
#     4  10  22  43  69  99 132 183 226 273 345 413
#     4  10  22  46  71  95 140 185 220 284 346 414
#     4  12  24  41  65  99 137 169 224 279 347 408
#     4  11  24  42  68  96 127 182 218 282 337 414
#     4  11  24  42  62 100 125 174 216 278 337 400
#     4  10  22  44  71  99 139 186 233 283 346 415
#     4  12  24  38  63 103 138 168 220 284 346 406
#     4  10  22  45  65  89 131 175 227 271 329 408
#
# _framework density 20.802813
#
# number of rings (size 3 to 8) (size 9 to 14) (size 15 to 20)
#    0.000    1.385    3.077    1.846    3.231    1.231 
#    6.923   10.385    0.000    0.000    0.000    0.000 
#    0.000    0.000    0.000    0.000    0.000    0.000 
#
# Total GULP energy -145144.792842 kJ/mol
# GULP energy per Si atom -5582.492032 kJ/mol
# Density = 2.075547 g / cm^3
# Si number density = 20.802813 Si / 1000 Ang^3
#
#
#
# Elastic Constant Matrix: (Units=GPa)
#
#
# Indices 1 2 3 4 5 6 
#
# 1 70.2657 12.5221 33.7232 0.0000 0.0000 0.0000
# 2 12.5221 111.0807 41.5963 0.0000 0.0000 0.0000
# 3 33.7232 41.5963 93.1683 0.0000 0.0000 0.0000
# 4 0.0000 0.0000 0.0000 83.5195 0.0000 0.0000
# 5 0.0000 0.0000 0.0000 0.0000 78.3798 0.0000
# 6 0.0000 0.0000 0.0000 0.0000 0.0000 24.9081
#
#
#
# Elastic Compliance Matrix: (Units=1/GPa)
#
#
# Indices 1 2 3 4 5 6 
#
# 1 0.017244 0.000472 -0.006453 0.000000 0.000000 0.000000
# 2 0.000472 0.010823 -0.005003 0.000000 0.000000 0.000000
# 3 -0.006453 -0.005003 0.015303 0.000000 0.000000 0.000000
# 4 0.000000 0.000000 0.000000 0.011973 0.000000 0.000000
# 5 0.000000 0.000000 0.000000 0.000000 0.012758 0.000000
# 6 0.000000 0.000000 0.000000 0.000000 0.000000 0.040148
#
#
# Mechanical properties :
#
#
# Convention : Reuss Voigt Hill
#
# Bulk Modulus (GPa) = 46.72215 50.02198 48.37206
# Shear Modulus (GPa) = 36.40344 49.80634 43.10489
#
# Velocity S-wave (km/s) = 4.18775 4.89838 4.55694
# Velocity P-wave (km/s) = 6.77431 7.48933 7.14078
#
# Compressibility (1/GPa) = 0.02140312
#
# Stress axis : x y z
#
# Youngs Moduli (GPa) = 57.98986 92.39882 65.34879
#
# Poissons Ratio (x) = -0.04365 0.42167
# Poissons Ratio (y) = -0.02739 0.32693
# Poissons Ratio (z) = 0.37419 0.46226
#
# Static dielectric constant tensor:
#      x y z
#    x 1.467710 0.000000 0.000000 
#    y 0.000000 1.769550 0.000000 
#    z 0.000000 0.000000 1.703040 
# 
# From -- ./inp_files/37574.got.cif
#   From: 2010.05.17/outbox.cif.g08.bks.cpg/sg21_19_cif.got.tgz:37574.got - 2010.06.03 23:14:55.
