data_PCOD9324054
_publ_section_title
;
Structure prediction by ZEFSAII (Michael W. Deem and Ramdas Pophale) SiO2 
 PCOD9324054
Probable space group: C 2 2 2
;
_chemical_formula_sum "Si O2"
_cell_formula_units_Z 38
_cell_length_a 35.689160
_cell_length_b 5.324324
_cell_length_c 12.339544
_cell_angle_alpha 90.000000
_cell_angle_beta 90.000000
_cell_angle_gamma 90.000000
_cell_volume 2344.768186
_symmetry_space_group_name_H-M "C 2 2 2"
_symmetry_group_IT_number 21
_symmetry_cell_setting 'orthorhombic'
loop_
_space_group_symop_operation_xyz
x,y,z
-x,-y,z
x,-y,-z
-x,y,-z
1/2+x,1/2+y,z
1/2-x,1/2-y,z
1/2+x,1/2-y,-z
1/2-x,1/2+y,-z
loop_
_atom_site_type_symbol
_atom_site_label
_atom_site_fract_x
_atom_site_fract_y
_atom_site_fract_z
Si Si1 0.000000 0.000000 0.500000
Si Si2 0.538043 0.108469 0.622876
Si Si3 0.726395 0.499763 0.129606
Si Si4 0.121507 0.487103 0.368038
Si Si5 0.774587 0.000000 0.500000
Si Si6 0.333870 0.483529 0.692554
O O1 0.970606 0.108457 0.589091
O O2 0.500000 0.000000 0.675949
O O3 0.537997 0.000000 0.500000
O O4 0.578315 0.046736 0.668870
O O5 0.750000 0.750000 0.158674
O O6 0.687430 0.494656 0.193277
O O7 0.750000 0.250000 0.158217
O O8 0.720905 0.500000 0.000000
O O9 0.122509 0.500000 0.500000
O O10 0.144136 0.240750 0.331659
O O11 0.139741 0.741110 0.322227
O O12 0.750000 0.750000 0.484804
O O13 0.801167 0.038718 0.396889
#
# Coordination Sequence:
#
# PCOD9324054 Si02
#       6
#     2   8   8   8   4   8
#     4   8  14  26  44  62  88 136 188 212 218 276
#     4   8  17  27  44  65  93 137 180 202 237 286
#     4  10  21  39  60  76  95 129 174 223 263 298
#     4  11  21  33  48  72 110 142 166 203 253 303
#     4  12  22  33  48  66  97 136 165 196 240 304
#     4  12  22  35  50  76 104 133 170 208 258 305
#
# _framework density 16.206291
#
# number of rings (size 3 to 8) (size 9 to 14) (size 15 to 20)
#    0.000    1.895    2.105    3.789    8.842    0.000 
#    0.000    0.000    0.000    0.000    0.000    0.000 
#    0.000    5.053    0.000    0.000    0.000    0.000 
#
# Total GULP energy -105769.652284 kJ/mol
# GULP energy per Si atom -5566.823804 kJ/mol
# Density = 1.616941 g / cm^3
# Si number density = 16.206291 Si / 1000 Ang^3
#
#
#
# Elastic Constant Matrix: (Units=GPa)
#
#
# Indices 1 2 3 4 5 6 
#
# 1 146.7236 72.3622 33.9825 0.0000 0.0000 0.0000
# 2 72.3622 125.6242 22.9573 0.0000 0.0000 0.0000
# 3 33.9825 22.9573 31.3941 0.0000 0.0000 0.0000
# 4 0.0000 0.0000 0.0000 6.4898 0.0000 0.0000
# 5 0.0000 0.0000 0.0000 0.0000 17.6750 0.0000
# 6 0.0000 0.0000 0.0000 0.0000 0.0000 43.0302
#
#
#
# Elastic Compliance Matrix: (Units=1/GPa)
#
#
# Indices 1 2 3 4 5 6 
#
# 1 0.011211 -0.004894 -0.008556 0.000000 0.000000 0.000000
# 2 -0.004894 0.011325 -0.002984 0.000000 0.000000 0.000000
# 3 -0.008556 -0.002984 0.043297 0.000000 0.000000 0.000000
# 4 0.000000 0.000000 0.000000 0.154087 0.000000 0.000000
# 5 0.000000 0.000000 0.000000 0.000000 0.056577 0.000000
# 6 0.000000 0.000000 0.000000 0.000000 0.000000 0.023239
#
#
# Mechanical properties :
#
#
# Convention : Reuss Voigt Hill
#
# Bulk Modulus (GPa) = 30.33608 62.48287 46.40948
# Shear Modulus (GPa) = 14.55213 25.06834 19.81023
#
# Velocity S-wave (km/s) = 2.99980 3.93724 3.50005
# Velocity P-wave (km/s) = 5.54597 7.70114 6.71064
#
# Compressibility (1/GPa) = 0.03296405
#
# Stress axis : x y z
#
# Youngs Moduli (GPa) = 89.19813 88.30324 23.09639
#
# Poissons Ratio (x) = 0.43217 0.19762
# Poissons Ratio (y) = 0.43655 0.06891
# Poissons Ratio (z) = 0.76322 0.26346
#
# Static dielectric constant tensor:
#      x y z
#    x 1.592070 0.000000 0.000000 
#    y 0.000000 1.135380 0.000000 
#    z 0.000000 0.000000 1.516750 
# 
# From -- ./inp_files/27961.got.cif
#   From: 2010.05.17/outbox.cif.g08.bks.cpg/sg21_14_cif.got.tgz:27961.got - 2010.06.03 23:14:55.
