data_PCOD9324939
_publ_section_title
;
Structure prediction by ZEFSAII (Michael W. Deem and Ramdas Pophale) SiO2 
 PCOD9324939
Probable space group: C 2 2 2
;
_chemical_formula_sum "Si O2"
_cell_formula_units_Z 28
_cell_length_a 11.810096
_cell_length_b 21.984820
_cell_length_c 4.945578
_cell_angle_alpha 90.000000
_cell_angle_beta 90.000000
_cell_angle_gamma 90.000000
_cell_volume 1284.083891
_symmetry_space_group_name_H-M "C 2 2 2"
_symmetry_group_IT_number 21
_symmetry_cell_setting 'orthorhombic'
loop_
_space_group_symop_operation_xyz
x,y,z
-x,-y,z
x,-y,-z
-x,y,-z
1/2+x,1/2+y,z
1/2-x,1/2-y,z
1/2+x,1/2-y,-z
1/2-x,1/2+y,-z
loop_
_atom_site_type_symbol
_atom_site_label
_atom_site_fract_x
_atom_site_fract_y
_atom_site_fract_z
Si Si1 0.378526 0.878671 0.645542
Si Si2 0.078604 0.913702 0.236838
Si Si3 0.740376 0.000000 0.500000
Si Si4 0.236246 0.678828 0.144631
O O1 0.500000 0.877140 0.500000
O O2 0.334785 0.948384 0.643221
O O3 0.301110 0.837735 0.448157
O O4 0.355419 0.851044 0.940914
O O5 0.176313 0.961673 0.309024
O O6 0.143414 0.854861 0.120244
O O7 0.000000 0.902771 0.500000
O O8 0.000000 0.936097 0.000000
O O9 0.250000 0.750000 0.100002
#
# Coordination Sequence:
#
# PCOD9324939 Si02
#       4
#     8   8   4   8
#     4  11  24  43  67  94 125 170 212 262 321 376
#     4  11  24  41  65  96 128 169 209 260 325 382
#     4  10  24  42  64  94 130 160 210 266 314 382
#     4  11  25  44  64  94 131 166 215 266 311 379
#
# _framework density 21.805430999999999
#
# number of rings (size 3 to 8) (size 9 to 14) (size 15 to 20)
#    0.000    1.143    0.000    6.000    0.000   17.143 
#    0.000    5.714    0.000    0.000    0.000    0.000 
#    0.000    0.000    0.000    0.000    0.000    0.000 
#
# Total GULP energy -78289.106723 kJ/mol
# GULP energy per Si atom -5592.079052 kJ/mol
# Density = 2.175580 g / cm^3
# Si number density = 21.805431 Si / 1000 Ang^3
#
#
#
# Elastic Constant Matrix: (Units=GPa)
#
#
# Indices 1 2 3 4 5 6 
#
# 1 88.0191 40.9475 2.9759 0.0000 0.0000 0.0000
# 2 40.9475 186.0995 19.2957 0.0000 0.0000 0.0000
# 3 2.9759 19.2957 90.3486 0.0000 0.0000 0.0000
# 4 0.0000 0.0000 0.0000 14.4743 0.0000 0.0000
# 5 0.0000 0.0000 0.0000 0.0000 32.4778 0.0000
# 6 0.0000 0.0000 0.0000 0.0000 0.0000 7.4609
#
#
#
# Elastic Compliance Matrix: (Units=1/GPa)
#
#
# Indices 1 2 3 4 5 6 
#
# 1 0.012660 -0.002804 0.000182 0.000000 0.000000 0.000000
# 2 -0.002804 0.006116 -0.001214 0.000000 0.000000 0.000000
# 3 0.000182 -0.001214 0.011321 0.000000 0.000000 0.000000
# 4 0.000000 0.000000 0.000000 0.069088 0.000000 0.000000
# 5 0.000000 0.000000 0.000000 0.000000 0.030790 0.000000
# 6 0.000000 0.000000 0.000000 0.000000 0.000000 0.134032
#
#
# Mechanical properties :
#
#
# Convention : Reuss Voigt Hill
#
# Bulk Modulus (GPa) = 44.59336 54.54505 49.56921
# Shear Modulus (GPa) = 17.91116 30.96581 24.43848
#
# Velocity S-wave (km/s) = 2.86913 3.77250 3.35140
# Velocity P-wave (km/s) = 5.60989 6.63660 6.14473
#
# Compressibility (1/GPa) = 0.02242486
#
# Stress axis : x y z
#
# Youngs Moduli (GPa) = 78.99120 163.49546 88.32756
#
# Poissons Ratio (x) = 0.45850 -0.01607
# Poissons Ratio (y) = 0.22152 0.10722
# Poissons Ratio (z) = -0.01437 0.19847
#
# Static dielectric constant tensor:
#      x y z
#    x 1.737780 0.000000 0.000000 
#    y 0.000000 1.786390 0.000000 
#    z 0.000000 0.000000 1.793320 
# 
# From -- ./inp_files/2305.got.cif
#   From: 2010.05.17/outbox.cif.g08.bks.cpg/sg21_2_cif.got.tgz:2305.got - 2010.06.03 23:14:55.
