data_PCOD9324160
_publ_section_title
;
Structure prediction by ZEFSAII (Michael W. Deem and Ramdas Pophale) SiO2 
 PCOD9324160
Probable space group: C 2 2 2
;
_chemical_formula_sum "Si O2"
_cell_formula_units_Z 38
_cell_length_a 5.256370
_cell_length_b 24.411681
_cell_length_c 11.798037
_cell_angle_alpha 90.000000
_cell_angle_beta 90.000000
_cell_angle_gamma 90.000000
_cell_volume 1513.886680
_symmetry_space_group_name_H-M "C 2 2 2"
_symmetry_group_IT_number 21
_symmetry_cell_setting 'orthorhombic'
loop_
_space_group_symop_operation_xyz
x,y,z
-x,-y,z
x,-y,-z
-x,y,-z
1/2+x,1/2+y,z
1/2-x,1/2-y,z
1/2+x,1/2-y,-z
1/2-x,1/2+y,-z
loop_
_atom_site_type_symbol
_atom_site_label
_atom_site_fract_x
_atom_site_fract_y
_atom_site_fract_z
Si Si1 0.461521 0.434852 0.132755
Si Si2 0.100580 0.825806 0.240775
Si Si3 0.500000 0.500000 0.500000
Si Si4 0.250000 0.250000 0.948339
Si Si5 0.923188 0.322891 0.622321
Si Si6 0.863853 0.442321 0.672557
O O1 0.500000 0.500000 0.150817
O O2 0.614588 0.390121 0.206109
O O3 0.192620 0.427507 0.196173
O O4 0.500000 0.424611 0.000000
O O5 0.081815 0.793564 0.123717
O O6 0.364176 0.804015 0.290715
O O7 0.861767 0.816650 0.326806
O O8 0.635391 0.458398 0.587427
O O9 0.500000 0.218645 0.000000
O O10 0.976981 0.388096 0.619415
O O11 0.000000 0.299746 0.500000
O O12 0.000000 0.500000 0.672395
#
# Coordination Sequence:
#
# PCOD9324160 Si02
#       6
#     8   8   2   4   8   8
#     4  10  21  40  65  94 143 183 226 287 360 436
#     4  11  25  45  70 107 139 185 246 298 366 441
#     4  12  22  36  62  90 132 180 258 282 350 412
#     4  12  26  50  82 106 142 188 254 322 372 432
#     4  11  24  41  69 101 145 186 235 297 372 439
#     4  11  23  37  62  94 135 191 245 294 349 434
#
# _framework density 25.100954999999999
#
# number of rings (size 3 to 8) (size 9 to 14) (size 15 to 20)
#    0.000    1.053    1.053    5.368    8.842    1.684 
#    0.000   12.632    0.000    0.000    0.000    0.000 
#    0.000    0.000    0.000    0.000    0.000    0.000 
#
# Total GULP energy -105884.729492 kJ/mol
# GULP energy per Si atom -5572.880500 kJ/mol
# Density = 2.504382 g / cm^3
# Si number density = 25.100955 Si / 1000 Ang^3
#
#
#
# Elastic Constant Matrix: (Units=GPa)
#
#
# Indices 1 2 3 4 5 6 
#
# 1 104.9645 1.1280 48.8809 0.0000 0.0000 0.0000
# 2 1.1280 82.1710 5.4428 0.0000 0.0000 0.0000
# 3 48.8809 5.4428 146.6760 0.0000 0.0000 0.0000
# 4 0.0000 0.0000 0.0000 15.4879 0.0000 0.0000
# 5 0.0000 0.0000 0.0000 0.0000 19.2557 0.0000
# 6 0.0000 0.0000 0.0000 0.0000 0.0000 -155.4286
#
#
#
# Elastic Compliance Matrix: (Units=1/GPa)
#
#
# Indices 1 2 3 4 5 6 
#
# 1 0.011278 0.000094 -0.003762 0.000000 0.000000 0.000000
# 2 0.000094 0.012201 -0.000484 0.000000 0.000000 0.000000
# 3 -0.003762 -0.000484 0.008089 0.000000 0.000000 0.000000
# 4 0.000000 0.000000 0.000000 0.064567 0.000000 0.000000
# 5 0.000000 0.000000 0.000000 0.000000 0.051933 0.000000
# 6 0.000000 0.000000 0.000000 0.000000 0.000000 -0.006434
#
#
# Mechanical properties :
#
#
# Convention : Reuss Voigt Hill
#
# Bulk Modulus (GPa) = 42.98432 49.41279 46.19855
# Shear Modulus (GPa) = 31.70744 -5.57969 13.06387
#
# Velocity S-wave (km/s) = 3.55800 -1.49256 2.28382
# Velocity P-wave (km/s) = 5.83446 4.09366 5.03979
#
# Compressibility (1/GPa) = 0.02326430
#
# Stress axis : x y z
#
# Youngs Moduli (GPa) = 88.66877 81.96377 123.61825
#
# Poissons Ratio (x) = -0.00773 0.46505
# Poissons Ratio (y) = -0.00837 0.05985
# Poissons Ratio (z) = 0.33357 0.03969
#
# Static dielectric constant tensor:
#      x y z
#    x 2.209500 0.000000 0.000000 
#    y 0.000000 2.150500 0.000000 
#    z 0.000000 0.000000 2.665560 
# 
# From -- ./inp_files/21226.got.cif
#   From: 2010.05.17/outbox.cif.g08.bks.cpg/sg21_11_cif.got.tgz:21226.got - 2010.06.03 23:14:55.
