data_PCOD9324690
_publ_section_title
;
Structure prediction by ZEFSAII (Michael W. Deem and Ramdas Pophale) SiO2 
 PCOD9324690
Probable space group: C 2 2 2
;
_chemical_formula_sum "Si O2"
_cell_formula_units_Z 32
_cell_length_a 20.157842
_cell_length_b 5.913408
_cell_length_c 12.735033
_cell_angle_alpha 90.000000
_cell_angle_beta 90.000000
_cell_angle_gamma 90.000000
_cell_volume 1518.035598
_symmetry_space_group_name_H-M "C 2 2 2"
_symmetry_group_IT_number 21
_symmetry_cell_setting 'orthorhombic'
loop_
_space_group_symop_operation_xyz
x,y,z
-x,-y,z
x,-y,-z
-x,y,-z
1/2+x,1/2+y,z
1/2-x,1/2-y,z
1/2+x,1/2-y,-z
1/2-x,1/2+y,-z
loop_
_atom_site_type_symbol
_atom_site_label
_atom_site_fract_x
_atom_site_fract_y
_atom_site_fract_z
Si Si1 0.370631 0.720354 0.789642
Si Si2 0.685723 0.614180 0.609446
Si Si3 0.000000 0.000000 0.203082
Si Si4 0.250000 0.250000 0.055591
Si Si5 0.435047 0.114659 0.652882
O O1 0.339126 0.555795 0.700258
O O2 0.434970 0.610820 0.847633
O O3 0.314580 0.775778 0.872128
O O4 0.397455 0.937413 0.727393
O O5 0.705434 0.500000 0.500000
O O6 0.750000 0.750000 0.648549
O O7 0.622108 0.772240 0.583677
O O8 0.032502 0.809393 0.276164
O O9 0.256836 0.500000 0.000000
O O10 0.500000 0.000000 0.605054
#
# Coordination Sequence:
#
# PCOD9324690 Si02
#       5
#     8   8   4   4   8
#     4  10  22  44  70  94 137 179 220 297 342 420
#     4  11  25  38  63  98 136 180 232 277 346 421
#     4   8  18  38  72  96 128 178 222 272 364 406
#     4  12  30  46  74 106 136 184 242 292 362 424
#     4   9  19  40  67  94 130 180 223 277 350 413
#
# _framework density 21.079874
#
# number of rings (size 3 to 8) (size 9 to 14) (size 15 to 20)
#    0.000    2.000    0.000    1.500   14.000    0.000 
#    0.000   29.375    0.000    0.000    0.000    0.000 
#    0.000    0.000    0.000    0.000    0.000    0.000 
#
# Total GULP energy -89211.217180 kJ/mol
# GULP energy per Si atom -5575.701074 kJ/mol
# Density = 2.103189 g / cm^3
# Si number density = 21.079874 Si / 1000 Ang^3
#
#
#
# Elastic Constant Matrix: (Units=GPa)
#
#
# Indices 1 2 3 4 5 6 
#
# 1 154.2540 58.2353 35.3277 0.0000 0.0000 0.0000
# 2 58.2353 126.1543 38.2822 0.0000 0.0000 0.0000
# 3 35.3277 38.2822 57.2340 0.0000 0.0000 0.0000
# 4 0.0000 0.0000 0.0000 -71.0139 0.0000 0.0000
# 5 0.0000 0.0000 0.0000 0.0000 -62.0912 0.0000
# 6 0.0000 0.0000 0.0000 0.0000 0.0000 62.3295
#
#
#
# Elastic Compliance Matrix: (Units=1/GPa)
#
#
# Indices 1 2 3 4 5 6 
#
# 1 0.008296 -0.002855 -0.003211 0.000000 0.000000 0.000000
# 2 -0.002855 0.010928 -0.005547 0.000000 0.000000 0.000000
# 3 -0.003211 -0.005547 0.023164 0.000000 0.000000 0.000000
# 4 0.000000 0.000000 0.000000 -0.014082 0.000000 0.000000
# 5 0.000000 0.000000 0.000000 0.000000 -0.016105 0.000000
# 6 0.000000 0.000000 0.000000 0.000000 0.000000 0.016044
#
#
# Mechanical properties :
#
#
# Convention : Reuss Voigt Hill
#
# Bulk Modulus (GPa) = 52.18673 66.81477 59.50075
# Shear Modulus (GPa) = 86.41628 -0.43531 42.99048
#
# Velocity S-wave (km/s) = 6.40966 -0.45492 4.52088
# Velocity P-wave (km/s) = 8.92125 5.61149 7.45243
#
# Compressibility (1/GPa) = 0.01916196
#
# Stress axis : x y z
#
# Youngs Moduli (GPa) = 120.53785 91.50677 43.16967
#
# Poissons Ratio (x) = 0.26128 0.13862
# Poissons Ratio (y) = 0.34417 0.23947
# Poissons Ratio (z) = 0.38705 0.50760
#
# Static dielectric constant tensor:
#      x y z
#    x 1.834670 0.000000 0.000000 
#    y 0.000000 1.829440 0.000000 
#    z 0.000000 0.000000 1.686120 
# 
# From -- ./inp_files/32541.got.cif
#   From: 2010.05.17/outbox.cif.g08.bks.cpg/sg21_17_cif.got.tgz:32541.got - 2010.06.03 23:14:55.
