data_PCOD9324661
_publ_section_title
;
Structure prediction by ZEFSAII (Michael W. Deem and Ramdas Pophale) SiO2 
 PCOD9324661
Probable space group: C 2 2 2
;
_chemical_formula_sum "Si O2"
_cell_formula_units_Z 44
_cell_length_a 17.601398
_cell_length_b 7.956694
_cell_length_c 14.442632
_cell_angle_alpha 90.000000
_cell_angle_beta 90.000000
_cell_angle_gamma 90.000000
_cell_volume 2022.675271
_symmetry_space_group_name_H-M "C 2 2 2"
_symmetry_group_IT_number 21
_symmetry_cell_setting 'orthorhombic'
loop_
_space_group_symop_operation_xyz
x,y,z
-x,-y,z
x,-y,-z
-x,y,-z
1/2+x,1/2+y,z
1/2-x,1/2-y,z
1/2+x,1/2-y,-z
1/2-x,1/2+y,-z
loop_
_atom_site_type_symbol
_atom_site_label
_atom_site_fract_x
_atom_site_fract_y
_atom_site_fract_z
Si Si1 0.885220 0.771099 0.876457
Si Si2 0.750000 0.750000 0.730849
Si Si3 0.101714 0.714039 0.732174
Si Si4 0.750000 0.250000 0.851695
Si Si5 0.215632 0.000000 0.000000
Si Si6 0.000000 0.500000 0.128215
Si Si7 0.713649 0.062890 0.604561
Si Si8 0.000000 0.000000 0.239509
O O1 0.823381 0.726050 0.797186
O O2 0.837699 0.857532 0.957114
O O3 0.938630 0.624346 0.916807
O O4 0.941635 0.902253 0.827087
O O5 0.746044 0.582062 0.667018
O O6 0.176163 0.773401 0.788890
O O7 0.131725 0.595377 0.651106
O O8 0.050457 0.870635 0.702051
O O9 0.051071 0.614315 0.804938
O O10 0.760285 0.412554 0.916847
O O11 0.750000 0.250000 0.605368
O O12 0.710472 0.000000 0.500000
#
# Coordination Sequence:
#
# PCOD9324661 Si02
#       8
#     8   4   8   4   4   4   8   4
#     4  11  23  44  68  98 136 186 229 297 347 430
#     4  12  23  45  78 104 142 192 238 293 371 422
#     4  11  22  46  68  99 135 184 229 285 361 423
#     4  12  25  43  68  96 134 186 230 297 335 422
#     4  12  26  41  68 103 140 174 256 292 350 403
#     4  10  24  40  70  94 134 180 228 276 365 423
#     4  12  24  42  73 113 145 178 242 303 354 432
#     4  10  22  43  70  95 132 188 228 276 365 427
#
# _framework density 21.753368999999999
#
# number of rings (size 3 to 8) (size 9 to 14) (size 15 to 20)
#    0.000    0.727    5.455    2.727    2.545    0.364 
#    0.000    1.364    0.000    1.091    0.000    0.000 
#    0.000    0.000    0.000    0.000    0.000    0.000 
#
# Total GULP energy -123025.256180 kJ/mol
# GULP energy per Si atom -5592.057099 kJ/mol
# Density = 2.170386 g / cm^3
# Si number density = 21.753369 Si / 1000 Ang^3
#
#
#
# Elastic Constant Matrix: (Units=GPa)
#
#
# Indices 1 2 3 4 5 6 
#
# 1 104.3923 43.2898 35.6244 0.0000 0.0000 0.0000
# 2 43.2898 131.8712 47.0915 0.0000 0.0000 0.0000
# 3 35.6244 47.0915 105.4335 0.0000 0.0000 0.0000
# 4 0.0000 0.0000 0.0000 57.7933 0.0000 0.0000
# 5 0.0000 0.0000 0.0000 0.0000 16.2747 0.0000
# 6 0.0000 0.0000 0.0000 0.0000 0.0000 63.3014
#
#
#
# Elastic Compliance Matrix: (Units=1/GPa)
#
#
# Indices 1 2 3 4 5 6 
#
# 1 0.011683 -0.002886 -0.002659 0.000000 0.000000 0.000000
# 2 -0.002886 0.009735 -0.003373 0.000000 0.000000 0.000000
# 3 -0.002659 -0.003373 0.011890 0.000000 0.000000 0.000000
# 4 0.000000 0.000000 0.000000 0.017303 0.000000 0.000000
# 5 0.000000 0.000000 0.000000 0.000000 0.061445 0.000000
# 6 0.000000 0.000000 0.000000 0.000000 0.000000 0.015797
#
#
# Mechanical properties :
#
#
# Convention : Reuss Voigt Hill
#
# Bulk Modulus (GPa) = 64.62987 65.96760 65.29873
# Shear Modulus (GPa) = 33.14642 41.85330 37.49986
#
# Velocity S-wave (km/s) = 3.90774 4.39109 4.15645
# Velocity P-wave (km/s) = 7.08063 7.48999 7.28819
#
# Compressibility (1/GPa) = 0.01547272
#
# Stress axis : x y z
#
# Youngs Moduli (GPa) = 85.59256 102.72181 84.10777
#
# Poissons Ratio (x) = 0.29644 0.22361
# Poissons Ratio (y) = 0.24701 0.28370
# Poissons Ratio (z) = 0.22756 0.34648
#
# Static dielectric constant tensor:
#      x y z
#    x 1.762330 0.000000 0.000000 
#    y 0.000000 1.869710 0.000000 
#    z 0.000000 0.000000 1.754450 
# 
# From -- ./inp_files/30445.got.cif
#   From: 2010.05.17/outbox.cif.g08.bks.cpg/sg21_16_cif.got.tgz:30445.got - 2010.06.03 23:14:55.
