data_PCOD9324177
_publ_section_title
;
Structure prediction by ZEFSAII (Michael W. Deem and Ramdas Pophale) SiO2 
 PCOD9324177
Probable space group: C 2 2 2
;
_chemical_formula_sum "Si O2"
_cell_formula_units_Z 56
_cell_length_a 16.143988
_cell_length_b 13.169848
_cell_length_c 11.700968
_cell_angle_alpha 90.000000
_cell_angle_beta 90.000000
_cell_angle_gamma 90.000000
_cell_volume 2487.788067
_symmetry_space_group_name_H-M "C 2 2 2"
_symmetry_group_IT_number 21
_symmetry_cell_setting 'orthorhombic'
loop_
_space_group_symop_operation_xyz
x,y,z
-x,-y,z
x,-y,-z
-x,y,-z
1/2+x,1/2+y,z
1/2-x,1/2-y,z
1/2+x,1/2-y,-z
1/2-x,1/2+y,-z
loop_
_atom_site_type_symbol
_atom_site_label
_atom_site_fract_x
_atom_site_fract_y
_atom_site_fract_z
Si Si1 0.998898 0.120650 0.732775
Si Si2 0.680966 0.338288 0.840034
Si Si3 0.722079 0.003739 0.697484
Si Si4 0.935219 0.581547 0.832611
Si Si5 0.411521 0.707320 0.060312
Si Si6 0.038251 0.691842 0.388415
Si Si7 0.286266 0.145645 0.517981
O O1 0.073445 0.149438 0.820828
O O2 0.014469 0.191194 0.624197
O O3 0.910322 0.162576 0.781123
O O4 0.000000 0.000000 0.716517
O O5 0.750000 0.250000 0.817830
O O6 0.719268 0.439438 0.785900
O O7 0.658769 0.332925 0.975114
O O8 0.695099 0.079234 0.594034
O O9 0.643883 0.968957 0.772347
O O10 0.762971 0.916089 0.616958
O O11 0.905140 0.672030 0.915224
O O12 0.984221 0.637353 0.729170
O O13 0.000000 0.500000 0.879304
O O14 0.500000 0.691623 0.000000
O O15 0.134300 0.678236 0.410195
O O16 0.000000 0.642594 0.500000
O O17 0.250000 0.250000 0.474280
#
# Coordination Sequence:
#
# PCOD9324177 Si02
#       7
#     8   8   8   8   8   8   8
#     4  10  24  46  70  96 136 186 236 286 346 426
#     4  11  25  44  71  99 135 174 240 291 347 416
#     4  10  23  40  66 104 132 185 223 279 356 414
#     4  10  21  40  68  96 138 172 228 281 342 418
#     4   9  22  45  65  94 129 179 224 287 345 396
#     4  10  22  38  66 100 136 182 224 278 347 425
#     4  10  22  40  66  98 144 179 223 283 344 415
#
# _framework density 22.509955999999999
#
# number of rings (size 3 to 8) (size 9 to 14) (size 15 to 20)
#    0.000    2.000    0.000    1.286   12.000    4.571 
#    5.143    1.429    0.000    0.000    0.000    0.000 
#    0.000    0.000    0.000    0.000    0.000    0.000 
#
# Total GULP energy -156107.158105 kJ/mol
# GULP energy per Si atom -5575.255647 kJ/mol
# Density = 2.245872 g / cm^3
# Si number density = 22.509956 Si / 1000 Ang^3
#
#
#
# Elastic Constant Matrix: (Units=GPa)
#
#
# Indices 1 2 3 4 5 6 
#
# 1 53.8775 21.8093 27.4217 0.0000 0.0000 0.0000
# 2 21.8093 81.2408 29.4486 0.0000 0.0000 0.0000
# 3 27.4217 29.4486 102.5235 0.0000 0.0000 0.0000
# 4 0.0000 0.0000 0.0000 15.0104 0.0000 0.0000
# 5 0.0000 0.0000 0.0000 0.0000 -12.8754 0.0000
# 6 0.0000 0.0000 0.0000 0.0000 0.0000 22.3402
#
#
#
# Elastic Compliance Matrix: (Units=1/GPa)
#
#
# Indices 1 2 3 4 5 6 
#
# 1 0.022792 -0.004363 -0.004843 0.000000 0.000000 0.000000
# 2 -0.004363 0.014575 -0.003019 0.000000 0.000000 0.000000
# 3 -0.004843 -0.003019 0.011916 0.000000 0.000000 0.000000
# 4 0.000000 0.000000 0.000000 0.066620 0.000000 0.000000
# 5 0.000000 0.000000 0.000000 0.000000 -0.077668 0.000000
# 6 0.000000 0.000000 0.000000 0.000000 0.000000 0.044762
#
#
# Mechanical properties :
#
#
# Convention : Reuss Voigt Hill
#
# Bulk Modulus (GPa) = 40.27011 43.88900 42.07955
# Shear Modulus (GPa) = 43.20558 15.49253 29.34906
#
# Velocity S-wave (km/s) = 4.38585 2.62630 3.61477
# Velocity P-wave (km/s) = 6.60123 5.36065 6.01302
#
# Compressibility (1/GPa) = 0.02483232
#
# Stress axis : x y z
#
# Youngs Moduli (GPa) = 43.87599 68.61126 83.91756
#
# Poissons Ratio (x) = 0.29935 0.40639
# Poissons Ratio (y) = 0.19143 0.25339
# Poissons Ratio (z) = 0.21248 0.20717
#
# Static dielectric constant tensor:
#      x y z
#    x 1.854120 0.000000 0.000000 
#    y 0.000000 1.957170 0.000000 
#    z 0.000000 0.000000 1.874590 
# 
# From -- ./inp_files/25307.got.cif
#   From: 2010.05.17/outbox.cif.g08.bks.cpg/sg21_13_cif.got.tgz:25307.got - 2010.06.03 23:14:55.
