data_PCOD9324274
_publ_section_title
;
Structure prediction by ZEFSAII (Michael W. Deem and Ramdas Pophale) SiO2 
 PCOD9324274
Probable space group: C 2 2 2
;
_chemical_formula_sum "Si O2"
_cell_formula_units_Z 34
_cell_length_a 20.604181
_cell_length_b 7.616527
_cell_length_c 10.260989
_cell_angle_alpha 90.000000
_cell_angle_beta 90.000000
_cell_angle_gamma 90.000000
_cell_volume 1610.280613
_symmetry_space_group_name_H-M "C 2 2 2"
_symmetry_group_IT_number 21
_symmetry_cell_setting 'orthorhombic'
loop_
_space_group_symop_operation_xyz
x,y,z
-x,-y,z
x,-y,-z
-x,y,-z
1/2+x,1/2+y,z
1/2-x,1/2-y,z
1/2+x,1/2-y,-z
1/2-x,1/2+y,-z
loop_
_atom_site_type_symbol
_atom_site_label
_atom_site_fract_x
_atom_site_fract_y
_atom_site_fract_z
Si Si1 0.926616 0.697082 0.449952
Si Si2 0.679162 0.000000 0.000000
Si Si3 0.728088 0.544754 0.226012
Si Si4 0.101514 0.788332 0.844298
Si Si5 0.500000 0.500000 0.000000
Si Si6 0.822053 0.000000 0.500000
O O1 0.914503 0.500000 0.500000
O O2 0.918745 0.702556 0.293131
O O3 0.871031 0.833523 0.495092
O O4 0.000000 0.745214 0.500000
O O5 0.725917 0.048637 0.121768
O O6 0.634761 0.847260 0.057045
O O7 0.750000 0.750000 0.228512
O O8 0.654024 0.557562 0.179707
O O9 0.723657 0.483405 0.373814
O O10 0.040908 0.875293 0.908852
#
# Coordination Sequence:
#
# PCOD9324274 Si02
#       6
#     8   4   8   8   2   4
#     4  10  23  43  66 104 144 182 239 292 351 435
#     4  10  21  47  68  91 145 178 232 288 348 420
#     4   9  20  43  64  99 134 175 232 280 339 432
#     4  10  24  43  67 101 137 181 235 287 357 426
#     4  12  26  42  70 100 142 178 244 296 356 446
#     4  10  21  42  72  98 138 185 230 290 368 406
#
# _framework density 21.114331
#
# number of rings (size 3 to 8) (size 9 to 14) (size 15 to 20)
#    0.000    2.118    0.000    1.059    6.588    4.235 
#   31.765    0.000    0.000    0.000    0.000    0.000 
#    0.000    0.000    0.000    0.000    0.000    0.000 
#
# Total GULP energy -94967.469335 kJ/mol
# GULP energy per Si atom -5586.321726 kJ/mol
# Density = 2.106627 g / cm^3
# Si number density = 21.114331 Si / 1000 Ang^3
#
#
#
# Elastic Constant Matrix: (Units=GPa)
#
#
# Indices 1 2 3 4 5 6 
#
# 1 110.7757 41.5506 90.7427 0.0000 0.0000 0.0000
# 2 41.5506 83.3657 74.0961 0.0000 0.0000 0.0000
# 3 90.7427 74.0961 204.9309 0.0000 0.0000 0.0000
# 4 0.0000 0.0000 0.0000 21.9115 0.0000 0.0000
# 5 0.0000 0.0000 0.0000 0.0000 51.4927 0.0000
# 6 0.0000 0.0000 0.0000 0.0000 0.0000 27.0137
#
#
#
# Elastic Compliance Matrix: (Units=1/GPa)
#
#
# Indices 1 2 3 4 5 6 
#
# 1 0.014442 -0.002231 -0.005588 0.000000 0.000000 0.000000
# 2 -0.002231 0.018020 -0.005528 0.000000 0.000000 0.000000
# 3 -0.005588 -0.005528 0.009353 0.000000 0.000000 0.000000
# 4 0.000000 0.000000 0.000000 0.045638 0.000000 0.000000
# 5 0.000000 0.000000 0.000000 0.000000 0.019420 0.000000
# 6 0.000000 0.000000 0.000000 0.000000 0.000000 0.037018
#
#
# Mechanical properties :
#
#
# Convention : Reuss Voigt Hill
#
# Bulk Modulus (GPa) = 66.13314 90.20568 78.16941
# Shear Modulus (GPa) = 28.46976 32.92912 30.69944
#
# Velocity S-wave (km/s) = 3.67599 3.95341 3.81722
# Velocity P-wave (km/s) = 7.02898 7.97838 7.51868
#
# Compressibility (1/GPa) = 0.01512101
#
# Stress axis : x y z
#
# Youngs Moduli (GPa) = 69.24467 55.49270 106.92236
#
# Poissons Ratio (x) = 0.12382 0.59747
# Poissons Ratio (y) = 0.15450 0.59102
# Poissons Ratio (z) = 0.38693 0.30674
#
# Static dielectric constant tensor:
#      x y z
#    x 1.788030 0.000000 0.000000 
#    y 0.000000 1.755970 0.000000 
#    z 0.000000 0.000000 1.775050 
# 
# From -- ./inp_files/17207.got.cif
#   From: 2010.05.17/outbox.cif.g08.bks.cpg/sg21_9_cif.got.tgz:17207.got - 2010.06.03 23:14:55.
