data_PCOD9324057
_publ_section_title
;
Structure prediction by ZEFSAII (Michael W. Deem and Ramdas Pophale) SiO2 
 PCOD9324057
Probable space group: C 2 2 2
;
_chemical_formula_sum "Si O2"
_cell_formula_units_Z 44
_cell_length_a 28.530173
_cell_length_b 5.052888
_cell_length_c 13.442012
_cell_angle_alpha 90.000000
_cell_angle_beta 90.000000
_cell_angle_gamma 90.000000
_cell_volume 1937.797342
_symmetry_space_group_name_H-M "C 2 2 2"
_symmetry_group_IT_number 21
_symmetry_cell_setting 'orthorhombic'
loop_
_space_group_symop_operation_xyz
x,y,z
-x,-y,z
x,-y,-z
-x,y,-z
1/2+x,1/2+y,z
1/2-x,1/2-y,z
1/2+x,1/2-y,-z
1/2-x,1/2+y,-z
loop_
_atom_site_type_symbol
_atom_site_label
_atom_site_fract_x
_atom_site_fract_y
_atom_site_fract_z
Si Si1 0.947552 0.581237 0.371101
Si Si2 0.282704 0.997717 0.616378
Si Si3 0.135797 0.220705 0.691456
Si Si4 0.889723 0.000000 0.500000
Si Si5 0.049244 0.364774 0.143971
Si Si6 0.106827 0.113982 0.902217
O O1 0.915160 0.331771 0.341199
O O2 0.922997 0.768980 0.452705
O O3 0.951057 0.707692 0.261405
O O4 0.000000 0.500000 0.397377
O O5 0.250000 0.250000 0.632980
O O6 0.327998 0.038165 0.685229
O O7 0.297454 0.000000 0.500000
O O8 0.250000 0.750000 0.636627
O O9 0.144859 0.048021 0.593487
O O10 0.134317 0.082395 0.797584
O O11 0.087822 0.584835 0.109873
O O12 0.000000 0.500000 0.120392
O O13 0.062853 0.086803 0.098022
O O14 0.133119 0.000000 0.000000
#
# Coordination Sequence:
#
# PCOD9324057 Si02
#       6
#     8   8   8   4   8   8
#     4  10  23  39  58  90 131 183 235 280 337 411
#     4  10  23  40  66  98 136 169 213 268 341 415
#     4  11  25  40  63  97 134 178 225 279 340 408
#     4  12  22  39  66  84 140 184 242 280 343 410
#     4  10  21  39  60  87 125 172 232 295 343 390
#     4  11  23  40  62  92 127 172 228 283 342 399
#
# _framework density 22.706189999999999
#
# number of rings (size 3 to 8) (size 9 to 14) (size 15 to 20)
#    0.000    1.455    1.818    2.727    6.364    5.091 
#    0.000    0.000    0.000    0.000    0.000    6.364 
#    0.000    0.000    0.000    0.000    0.000    0.000 
#
# Total GULP energy -122793.887243 kJ/mol
# GULP energy per Si atom -5581.540329 kJ/mol
# Density = 2.265451 g / cm^3
# Si number density = 22.706190 Si / 1000 Ang^3
#
#
#
# Elastic Constant Matrix: (Units=GPa)
#
#
# Indices 1 2 3 4 5 6 
#
# 1 71.3408 24.1559 32.8093 0.0000 0.0000 0.0000
# 2 24.1559 105.5854 50.3936 0.0000 0.0000 0.0000
# 3 32.8093 50.3936 217.3887 0.0000 0.0000 0.0000
# 4 0.0000 0.0000 0.0000 40.0207 0.0000 0.0000
# 5 0.0000 0.0000 0.0000 0.0000 -0.7946 0.0000
# 6 0.0000 0.0000 0.0000 0.0000 0.0000 27.2497
#
#
#
# Elastic Compliance Matrix: (Units=1/GPa)
#
#
# Indices 1 2 3 4 5 6 
#
# 1 0.015755 -0.002777 -0.001734 0.000000 0.000000 0.000000
# 2 -0.002777 0.011139 -0.002163 0.000000 0.000000 0.000000
# 3 -0.001734 -0.002163 0.005363 0.000000 0.000000 0.000000
# 4 0.000000 0.000000 0.000000 0.024987 0.000000 0.000000
# 5 0.000000 0.000000 0.000000 0.000000 -1.258424 0.000000
# 6 0.000000 0.000000 0.000000 0.000000 0.000000 0.036698
#
#
# Mechanical properties :
#
#
# Convention : Reuss Voigt Hill
#
# Bulk Modulus (GPa) = 52.88491 67.67028 60.27760
# Shear Modulus (GPa) = -4.36746 32.42555 14.02905
#
# Velocity S-wave (km/s) = -1.38839 3.78305 2.48836
# Velocity P-wave (km/s) = 4.55756 6.99637 5.90426
#
# Compressibility (1/GPa) = 0.01890899
#
# Stress axis : x y z
#
# Youngs Moduli (GPa) = 63.47210 89.77762 186.45626
#
# Poissons Ratio (x) = 0.24929 0.32334
# Poissons Ratio (y) = 0.17625 0.40330
# Poissons Ratio (z) = 0.11007 0.19419
#
# Static dielectric constant tensor:
#      x y z
#    x 1.882580 0.000000 0.000000 
#    y 0.000000 1.995640 0.000000 
#    z 0.000000 0.000000 2.067230 
# 
# From -- ./inp_files/33744.got.cif
#   From: 2010.05.17/outbox.cif.g08.bks.cpg/sg21_17_cif.got.tgz:33744.got - 2010.06.03 23:14:55.
