data_PCOD9324618
_publ_section_title
;
Structure prediction by ZEFSAII (Michael W. Deem and Ramdas Pophale) SiO2 
 PCOD9324618
Probable space group: C 2 2 2
;
_chemical_formula_sum "Si O2"
_cell_formula_units_Z 52
_cell_length_a 17.873155
_cell_length_b 29.079252
_cell_length_c 5.115259
_cell_angle_alpha 90.000000
_cell_angle_beta 90.000000
_cell_angle_gamma 90.000000
_cell_volume 2658.594371
_symmetry_space_group_name_H-M "C 2 2 2"
_symmetry_group_IT_number 21
_symmetry_cell_setting 'orthorhombic'
loop_
_space_group_symop_operation_xyz
x,y,z
-x,-y,z
x,-y,-z
-x,y,-z
1/2+x,1/2+y,z
1/2-x,1/2-y,z
1/2+x,1/2-y,-z
1/2-x,1/2+y,-z
loop_
_atom_site_type_symbol
_atom_site_label
_atom_site_fract_x
_atom_site_fract_y
_atom_site_fract_z
Si Si1 0.173644 0.778355 0.161980
Si Si2 0.321831 0.660840 0.649949
Si Si3 0.000000 0.000000 0.000000
Si Si4 0.344792 0.855928 0.466803
Si Si5 0.414802 0.952697 0.394228
Si Si6 0.500000 0.000000 0.000000
Si Si7 0.588432 0.191566 0.967988
Si Si8 0.048371 0.090324 0.240453
O O1 0.250000 0.750000 0.225544
O O2 0.147455 0.804784 0.423326
O O3 0.190563 0.812680 0.922679
O O4 0.113275 0.742870 0.046382
O O5 0.242359 0.646340 0.531157
O O6 0.375985 0.618114 0.711065
O O7 0.050820 0.035924 0.164407
O O8 0.372493 0.907997 0.477331
O O9 0.386280 0.823775 0.679483
O O10 0.367064 0.839023 0.179074
O O11 0.500000 0.951167 0.500000
O O12 0.380120 0.000000 0.500000
O O13 0.437230 0.962858 0.097967
O O14 0.500000 0.185106 0.000000
O O15 0.000000 0.093886 0.500000
O O16 0.000000 0.111127 0.000000
#
# Coordination Sequence:
#
# PCOD9324618 Si02
#       8
#     8   8   2   8   8   2   8   8
#     4  12  23  45  66  91 138 184 220 286 347 401
#     4  12  24  42  72  98 134 180 228 274 350 418
#     4   8  22  44  74 102 148 176 220 308 346 432
#     4  12  24  41  65  95 133 168 218 277 322 409
#     4   9  20  36  59  86 121 170 211 264 327 378
#     4   8  18  36  60  84 118 176 214 266 326 372
#     4  12  26  41  65  97 127 175 227 269 333 393
#     4  10  22  42  72 104 135 181 228 284 355 420
#
# _framework density 19.559207000000001
#
# number of rings (size 3 to 8) (size 9 to 14) (size 15 to 20)
#    0.462    0.769    3.077    3.923    5.385    1.846 
#    0.000    1.538    0.000    0.000    0.000    0.000 
#    0.000    0.000    0.000    0.000    0.000    0.000 
#
# Total GULP energy -144876.866580 kJ/mol
# GULP energy per Si atom -5572.187176 kJ/mol
# Density = 1.951469 g / cm^3
# Si number density = 19.559207 Si / 1000 Ang^3
#
#
#
# Elastic Constant Matrix: (Units=GPa)
#
#
# Indices 1 2 3 4 5 6 
#
# 1 84.5295 37.6697 -0.2261 0.0000 0.0000 0.0000
# 2 37.6697 114.5735 15.8630 0.0000 0.0000 0.0000
# 3 -0.2261 15.8630 74.4880 0.0000 0.0000 0.0000
# 4 0.0000 0.0000 0.0000 -8.4810 0.0000 0.0000
# 5 0.0000 0.0000 0.0000 0.0000 26.8347 0.0000
# 6 0.0000 0.0000 0.0000 0.0000 0.0000 51.6838
#
#
#
# Elastic Compliance Matrix: (Units=1/GPa)
#
#
# Indices 1 2 3 4 5 6 
#
# 1 0.013940 -0.004729 0.001049 0.000000 0.000000 0.000000
# 2 -0.004729 0.010597 -0.002271 0.000000 0.000000 0.000000
# 3 0.001049 -0.002271 0.013912 0.000000 0.000000 0.000000
# 4 0.000000 0.000000 0.000000 -0.117910 0.000000 0.000000
# 5 0.000000 0.000000 0.000000 0.000000 0.037265 0.000000
# 6 0.000000 0.000000 0.000000 0.000000 0.000000 0.019348
#
#
# Mechanical properties :
#
#
# Convention : Reuss Voigt Hill
#
# Bulk Modulus (GPa) = 37.66702 42.24491 39.95596
# Shear Modulus (GPa) = -2384.33713 28.69313 -1177.82200
#
# Velocity S-wave (km/s) = -34.95257 3.83428 -24.56604
# Velocity P-wave (km/s) = 40.11994 6.42244 28.00323
#
# Compressibility (1/GPa) = 0.02654843
#
# Stress axis : x y z
#
# Youngs Moduli (GPa) = 71.73477 94.36512 71.88131
#
# Poissons Ratio (x) = 0.44621 -0.07543
# Poissons Ratio (y) = 0.33920 0.16325
# Poissons Ratio (z) = -0.07527 0.21431
#
# Static dielectric constant tensor:
#      x y z
#    x 1.654650 0.000000 0.000000 
#    y 0.000000 1.691420 0.000000 
#    z 0.000000 0.000000 2.082360 
# 
# From -- ./inp_files/5321.got.cif
#   From: 2010.05.17/outbox.cif.g08.bks.cpg/sg21_3_cif.got.tgz:5321.got - 2010.06.03 23:14:55.
