data_PCOD9324782
_publ_section_title
;
Structure prediction by ZEFSAII (Michael W. Deem and Ramdas Pophale) SiO2 
 PCOD9324782
Probable space group: C 2 2 2
;
_chemical_formula_sum "Si O2"
_cell_formula_units_Z 28
_cell_length_a 7.979138
_cell_length_b 12.792573
_cell_length_c 11.011319
_cell_angle_alpha 90.000000
_cell_angle_beta 90.000000
_cell_angle_gamma 90.000000
_cell_volume 1123.966131
_symmetry_space_group_name_H-M "C 2 2 2"
_symmetry_group_IT_number 21
_symmetry_cell_setting 'orthorhombic'
loop_
_space_group_symop_operation_xyz
x,y,z
-x,-y,z
x,-y,-z
-x,y,-z
1/2+x,1/2+y,z
1/2-x,1/2-y,z
1/2+x,1/2-y,-z
1/2-x,1/2+y,-z
loop_
_atom_site_type_symbol
_atom_site_label
_atom_site_fract_x
_atom_site_fract_y
_atom_site_fract_z
Si Si1 0.274496 0.964874 0.638061
Si Si2 0.500000 0.500000 0.000000
Si Si3 0.904514 0.829392 0.192987
Si Si4 0.000000 0.500000 0.000000
Si Si5 0.098769 0.366087 0.779911
O O1 0.130182 0.885452 0.678077
O O2 0.437188 0.904183 0.696069
O O3 0.290184 0.000000 0.500000
O O4 0.256320 0.074398 0.708747
O O5 0.408335 0.580747 0.908456
O O6 0.750000 0.750000 0.165148
O O7 0.066000 0.754769 0.197200
O O8 0.095509 0.576244 0.091145
#
# Coordination Sequence:
#
# PCOD9324782 Si02
#       5
#     8   2   8   2   8
#     4   9  18  36  59  86 117 151 194 236 281 342
#     4  12  26  42  58  88 120 148 194 244 288 344
#     4  10  23  40  60  87 117 151 193 238 286 343
#     4   8  14  26  54  86 108 142 186 220 280 338
#     4   9  17  33  61  89 115 153 189 235 288 338
#
# _framework density 24.91178
#
# number of rings (size 3 to 8) (size 9 to 14) (size 15 to 20)
#    0.000    2.857    0.000    2.571    0.000   12.571 
#    0.000   15.000    0.000    0.000    0.000    0.000 
#    0.000    0.000    0.000    0.000    0.000    0.000 
#
# Total GULP energy -78148.721743 kJ/mol
# GULP energy per Si atom -5582.051553 kJ/mol
# Density = 2.485508 g / cm^3
# Si number density = 24.911780 Si / 1000 Ang^3
#
#
#
# Elastic Constant Matrix: (Units=GPa)
#
#
# Indices 1 2 3 4 5 6 
#
# 1 64.1139 41.0779 8.2973 0.0000 0.0000 0.0000
# 2 41.0779 214.1385 77.5715 0.0000 0.0000 0.0000
# 3 8.2973 77.5715 203.1015 0.0000 0.0000 0.0000
# 4 0.0000 0.0000 0.0000 27.0656 0.0000 0.0000
# 5 0.0000 0.0000 0.0000 0.0000 10.1678 0.0000
# 6 0.0000 0.0000 0.0000 0.0000 0.0000 54.7715
#
#
#
# Elastic Compliance Matrix: (Units=1/GPa)
#
#
# Indices 1 2 3 4 5 6 
#
# 1 0.017861 -0.003670 0.000672 0.000000 0.000000 0.000000
# 2 -0.003670 0.006174 -0.002208 0.000000 0.000000 0.000000
# 3 0.000672 -0.002208 0.005740 0.000000 0.000000 0.000000
# 4 0.000000 0.000000 0.000000 0.036947 0.000000 0.000000
# 5 0.000000 0.000000 0.000000 0.000000 0.098349 0.000000
# 6 0.000000 0.000000 0.000000 0.000000 0.000000 0.018258
#
#
# Mechanical properties :
#
#
# Convention : Reuss Voigt Hill
#
# Bulk Modulus (GPa) = 51.64496 81.69416 66.66956
# Shear Modulus (GPa) = 24.97565 42.02812 33.50189
#
# Velocity S-wave (km/s) = 3.16976 4.11186 3.67116
# Velocity P-wave (km/s) = 5.84574 7.44364 6.69255
#
# Compressibility (1/GPa) = 0.01936297
#
# Stress axis : x y z
#
# Youngs Moduli (GPa) = 55.98637 161.97756 174.23055
#
# Poissons Ratio (x) = 0.59442 -0.11707
# Poissons Ratio (y) = 0.20546 0.38471
# Poissons Ratio (z) = -0.03762 0.35765
#
# Static dielectric constant tensor:
#      x y z
#    x 2.241980 0.000000 0.000000 
#    y 0.000000 1.970950 0.000000 
#    z 0.000000 0.000000 1.895630 
# 
# From -- ./inp_files/23383.got.cif
#   From: 2010.05.17/outbox.cif.g08.bks.cpg/sg21_12_cif.got.tgz:23383.got - 2010.06.03 23:14:55.
