data_PCOD9324542
_publ_section_title
;
Structure prediction by ZEFSAII (Michael W. Deem and Ramdas Pophale) SiO2 
 PCOD9324542
Probable space group: C 2 2 2
;
_chemical_formula_sum "Si O2"
_cell_formula_units_Z 32
_cell_length_a 4.831146
_cell_length_b 33.297185
_cell_length_c 9.046851
_cell_angle_alpha 90.000000
_cell_angle_beta 90.000000
_cell_angle_gamma 90.000000
_cell_volume 1455.308678
_symmetry_space_group_name_H-M "C 2 2 2"
_symmetry_group_IT_number 21
_symmetry_cell_setting 'orthorhombic'
loop_
_space_group_symop_operation_xyz
x,y,z
-x,-y,z
x,-y,-z
-x,y,-z
1/2+x,1/2+y,z
1/2-x,1/2-y,z
1/2+x,1/2-y,-z
1/2-x,1/2+y,-z
loop_
_atom_site_type_symbol
_atom_site_label
_atom_site_fract_x
_atom_site_fract_y
_atom_site_fract_z
Si Si1 0.003713 0.780306 0.842293
Si Si2 0.744031 0.161972 0.598944
Si Si3 0.052189 0.419134 0.669993
Si Si4 0.442660 0.546999 0.829276
O O1 0.250000 0.750000 0.871225
O O2 0.101622 0.808873 0.711616
O O3 0.750000 0.750000 0.807710
O O4 0.000000 0.803532 0.000000
O O5 0.500000 0.182429 0.500000
O O6 0.570050 0.126084 0.674419
O O7 0.000000 0.145797 0.500000
O O8 0.869809 0.444695 0.782833
O O9 0.000000 0.432015 0.500000
O O10 0.363430 0.426220 0.722831
O O11 0.500000 0.500000 0.806371
O O12 0.500000 0.556889 0.000000
#
# Coordination Sequence:
#
# PCOD9324542 Si02
#       4
#     8   8   8   8
#     4  10  22  41  65  94 127 165 212 263 315 377
#     4  11  23  41  64  94 131 167 211 265 317 378
#     4  11  23  41  64  93 128 167 212 262 317 378
#     4  11  24  42  64  93 128 166 213 265 317 379
#
# _framework density 21.988461000000001
#
# number of rings (size 3 to 8) (size 9 to 14) (size 15 to 20)
#    0.000    1.250    0.000    6.750    0.000    8.000 
#    0.000   10.000    0.000    0.000    0.000    0.000 
#    0.000    0.000    0.000    0.000    0.000    0.000 
#
# Total GULP energy -89341.005338 kJ/mol
# GULP energy per Si atom -5583.812834 kJ/mol
# Density = 2.193841 g / cm^3
# Si number density = 21.988461 Si / 1000 Ang^3
#
#
#
# Elastic Constant Matrix: (Units=GPa)
#
#
# Indices 1 2 3 4 5 6 
#
# 1 103.8931 6.2470 20.5125 0.0000 0.0000 0.0000
# 2 6.2470 54.8693 55.2537 0.0000 0.0000 0.0000
# 3 20.5125 55.2537 115.8157 0.0000 0.0000 0.0000
# 4 0.0000 0.0000 0.0000 39.7801 0.0000 0.0000
# 5 0.0000 0.0000 0.0000 0.0000 40.1103 0.0000
# 6 0.0000 0.0000 0.0000 0.0000 0.0000 26.7845
#
#
#
# Elastic Compliance Matrix: (Units=1/GPa)
#
#
# Indices 1 2 3 4 5 6 
#
# 1 0.010018 0.001244 -0.002368 0.000000 0.000000 0.000000
# 2 0.001244 0.035231 -0.017029 0.000000 0.000000 0.000000
# 3 -0.002368 -0.017029 0.017178 0.000000 0.000000 0.000000
# 4 0.000000 0.000000 0.000000 0.025138 0.000000 0.000000
# 5 0.000000 0.000000 0.000000 0.000000 0.024931 0.000000
# 6 0.000000 0.000000 0.000000 0.000000 0.000000 0.037335
#
#
# Mechanical properties :
#
#
# Convention : Reuss Voigt Hill
#
# Bulk Modulus (GPa) = 38.28183 48.73383 43.50783
# Shear Modulus (GPa) = 25.66157 34.17266 29.91712
#
# Velocity S-wave (km/s) = 3.41991 3.94651 3.69261
# Velocity P-wave (km/s) = 5.74823 6.55576 6.16523
#
# Compressibility (1/GPa) = 0.02612205
#
# Stress axis : x y z
#
# Youngs Moduli (GPa) = 99.82069 28.38380 58.21473
#
# Poissons Ratio (x) = -0.03530 0.13783
# Poissons Ratio (y) = -0.12414 0.99131
# Poissons Ratio (z) = 0.23634 0.48333
#
# Static dielectric constant tensor:
#      x y z
#    x 1.771810 0.000000 0.000000 
#    y 0.000000 1.786900 0.000000 
#    z 0.000000 0.000000 1.919350 
# 
# From -- ./inp_files/9175.got.cif
#   From: 2010.05.17/outbox.cif.g08.bks.cpg/sg21_5_cif.got.tgz:9175.got - 2010.06.03 23:14:55.
