data_PCOD9324935
_publ_section_title
;
Structure prediction by ZEFSAII (Michael W. Deem and Ramdas Pophale) SiO2 
 PCOD9324935
Probable space group: C 2 2 2
;
_chemical_formula_sum "Si O2"
_cell_formula_units_Z 32
_cell_length_a 20.806536
_cell_length_b 5.635783
_cell_length_c 13.347704
_cell_angle_alpha 90.000000
_cell_angle_beta 90.000000
_cell_angle_gamma 90.000000
_cell_volume 1565.166746
_symmetry_space_group_name_H-M "C 2 2 2"
_symmetry_group_IT_number 21
_symmetry_cell_setting 'orthorhombic'
loop_
_space_group_symop_operation_xyz
x,y,z
-x,-y,z
x,-y,-z
-x,y,-z
1/2+x,1/2+y,z
1/2-x,1/2-y,z
1/2+x,1/2-y,-z
1/2-x,1/2+y,-z
loop_
_atom_site_type_symbol
_atom_site_label
_atom_site_fract_x
_atom_site_fract_y
_atom_site_fract_z
Si Si1 0.064419 0.872961 0.787115
Si Si2 0.177198 0.249424 0.061567
Si Si3 0.250000 0.250000 0.558301
Si Si4 0.500000 0.000000 0.641942
Si Si5 0.110343 0.166059 0.599020
O O1 0.117644 0.777256 0.862999
O O2 0.039917 0.665351 0.716118
O O3 0.095962 0.046811 0.705571
O O4 0.000000 0.000000 0.831576
O O5 0.250000 0.250000 0.106567
O O6 0.170914 0.500000 0.000000
O O7 0.174931 0.000000 0.000000
O O8 0.254895 0.500000 0.500000
O O9 0.181281 0.273446 0.611052
O O10 0.551849 0.845063 0.583929
O O11 0.109647 0.000000 0.500000
#
# Coordination Sequence:
#
# PCOD9324935 Si02
#       5
#     8   8   4   4   8
#     4  10  24  43  64 103 135 176 226 280 343 409
#     4  10  24  47  73 102 133 175 229 283 348 414
#     4  10  24  44  62  94 132 178 240 280 330 394
#     4  10  24  41  65  96 138 178 231 274 341 406
#     4  10  24  43  64  97 138 182 232 279 334 407
#
# _framework density 20.445105999999999
#
# number of rings (size 3 to 8) (size 9 to 14) (size 15 to 20)
#    0.000    2.000    0.000    0.000   14.000    8.000 
#    4.500    0.000    0.000    0.000    0.000    0.000 
#    0.000    0.000    0.000    0.000    0.000    0.000 
#
# Total GULP energy -89163.002002 kJ/mol
# GULP energy per Si atom -5572.687625 kJ/mol
# Density = 2.039857 g / cm^3
# Si number density = 20.445106 Si / 1000 Ang^3
#
#
#
# Elastic Constant Matrix: (Units=GPa)
#
#
# Indices 1 2 3 4 5 6 
#
# 1 244.3376 72.3694 80.7146 0.0000 0.0000 0.0000
# 2 72.3694 112.7119 32.5096 0.0000 0.0000 0.0000
# 3 80.7146 32.5096 57.9089 0.0000 0.0000 0.0000
# 4 0.0000 0.0000 0.0000 37.2659 0.0000 0.0000
# 5 0.0000 0.0000 0.0000 0.0000 50.6690 0.0000
# 6 0.0000 0.0000 0.0000 0.0000 0.0000 6.3745
#
#
#
# Elastic Compliance Matrix: (Units=1/GPa)
#
#
# Indices 1 2 3 4 5 6 
#
# 1 0.008059 -0.002308 -0.009937 0.000000 0.000000 0.000000
# 2 -0.002308 0.011248 -0.003097 0.000000 0.000000 0.000000
# 3 -0.009937 -0.003097 0.032857 0.000000 0.000000 0.000000
# 4 0.000000 0.000000 0.000000 0.026834 0.000000 0.000000
# 5 0.000000 0.000000 0.000000 0.000000 0.019736 0.000000
# 6 0.000000 0.000000 0.000000 0.000000 0.000000 0.156875
#
#
# Mechanical properties :
#
#
# Convention : Reuss Voigt Hill
#
# Bulk Modulus (GPa) = 46.55574 87.34950 66.95262
# Shear Modulus (GPa) = 17.03851 34.15286 25.59569
#
# Velocity S-wave (km/s) = 2.88996 4.09157 3.54209
# Velocity P-wave (km/s) = 5.82721 8.07081 7.03897
#
# Compressibility (1/GPa) = 0.02147963
#
# Stress axis : x y z
#
# Youngs Moduli (GPa) = 124.08590 88.90833 30.43473
#
# Poissons Ratio (x) = 0.20523 0.30242
# Poissons Ratio (y) = 0.28643 0.09425
# Poissons Ratio (z) = 1.23302 0.27534
#
# Static dielectric constant tensor:
#      x y z
#    x 1.643460 0.000000 0.000000 
#    y 0.000000 1.732360 0.000000 
#    z 0.000000 0.000000 1.719170 
# 
# From -- ./inp_files/26470.got.cif
#   From: 2010.05.17/outbox.cif.g08.bks.cpg/sg21_14_cif.got.tgz:26470.got - 2010.06.03 23:14:55.
