data_PCOD9324912
_publ_section_title
;
Structure prediction by ZEFSAII (Michael W. Deem and Ramdas Pophale) SiO2 
 PCOD9324912
Probable space group: C 2 2 2
;
_chemical_formula_sum "Si O2"
_cell_formula_units_Z 48
_cell_length_a 17.816237
_cell_length_b 10.774050
_cell_length_c 13.328534
_cell_angle_alpha 90.000000
_cell_angle_beta 90.000000
_cell_angle_gamma 90.000000
_cell_volume 2558.452463
_symmetry_space_group_name_H-M "C 2 2 2"
_symmetry_group_IT_number 21
_symmetry_cell_setting 'orthorhombic'
loop_
_space_group_symop_operation_xyz
x,y,z
-x,-y,z
x,-y,-z
-x,y,-z
1/2+x,1/2+y,z
1/2-x,1/2-y,z
1/2+x,1/2-y,-z
1/2-x,1/2+y,-z
loop_
_atom_site_type_symbol
_atom_site_label
_atom_site_fract_x
_atom_site_fract_y
_atom_site_fract_z
Si Si1 0.660838 0.251454 0.302469
Si Si2 0.909773 0.855238 0.115128
Si Si3 0.909773 0.144762 0.115128
Si Si4 0.414018 0.500000 0.618982
Si Si5 0.339162 0.251454 0.302469
Si Si6 0.689401 0.137522 0.500000
O O1 0.750000 0.250000 0.285904
O O2 0.622285 0.255474 0.193628
O O3 0.630689 0.379862 0.347546
O O4 0.646052 0.155728 0.394268
O O5 0.877715 0.755474 0.193627
O O6 1.000000 0.851770 0.119352
O O7 0.887740 1.000000 0.138677
O O8 0.886957 0.831532 1.000000
O O9 0.500000 0.500000 0.658893
O O10 0.419112 0.500000 0.500000
O O11 0.369311 0.620138 0.652455
O O12 0.250000 0.250000 0.285904
O O13 0.353948 0.155728 0.394268
O O14 0.750000 0.250000 0.500000
O O15 0.723560 0.000000 0.500000
#
# Coordination Sequence:
#
# PCOD9324912 Si02
#       6
#     8   8   8   8   8   8
#     4  11  22  32  60  89 132 159 212 255 324 361
#     4   9  18  35  60  89 122 165 219 271 313 368
#     4   9  18  35  60  89 122 165 219 271 313 368
#     4  11  22  38  61  93 124 171 219 254 299 388
#     4  11  22  32  60  89 132 159 212 255 324 361
#     4  10  24  38  58  87 131 169 205 253 321 379
#
# _framework density 18.761341000000002
#
# number of rings (size 3 to 8) (size 9 to 14) (size 15 to 20)
#    0.000    1.833    3.333    2.000    9.333    0.667 
#    0.000    0.000    0.000    9.000    0.000    2.333 
#    0.000    0.000    0.000    0.000    0.000    0.000 
#
# Total GULP energy -133632.586051 kJ/mol
# GULP energy per Si atom -5568.024419 kJ/mol
# Density = 1.871864 g / cm^3
# Si number density = 18.761341 Si / 1000 Ang^3
#
#
#
# Elastic Constant Matrix: (Units=GPa)
#
#
# Indices 1 2 3 4 5 6 
#
# 1 74.7137 28.7705 26.8474 0.0000 0.0000 0.0000
# 2 28.7705 83.7692 26.1540 0.0000 0.0000 0.0000
# 3 26.8474 26.1540 170.6254 0.0000 0.0000 0.0000
# 4 0.0000 0.0000 0.0000 -453.7418 0.0000 0.0000
# 5 0.0000 0.0000 0.0000 0.0000 37.9419 0.0000
# 6 0.0000 0.0000 0.0000 0.0000 0.0000 27.6272
#
#
#
# Elastic Compliance Matrix: (Units=1/GPa)
#
#
# Indices 1 2 3 4 5 6 
#
# 1 0.015906 -0.004917 -0.001749 0.000000 0.000000 0.000000
# 2 -0.004917 0.014057 -0.001381 0.000000 0.000000 0.000000
# 3 -0.001749 -0.001381 0.006348 0.000000 0.000000 0.000000
# 4 0.000000 0.000000 0.000000 -0.002204 0.000000 0.000000
# 5 0.000000 0.000000 0.000000 0.000000 0.026356 0.000000
# 6 0.000000 0.000000 0.000000 0.000000 0.000000 0.036196
#
#
# Mechanical properties :
#
#
# Convention : Reuss Voigt Hill
#
# Bulk Modulus (GPa) = 49.46282 54.73912 52.10097
# Shear Modulus (GPa) = 41.84335 -61.14543 -9.65104
#
# Velocity S-wave (km/s) = 4.72772 -5.71506 -2.27052
# Velocity P-wave (km/s) = 7.49822 3.78277 4.57788
#
# Compressibility (1/GPa) = 0.02021720
#
# Stress axis : x y z
#
# Youngs Moduli (GPa) = 62.86796 71.13652 157.53703
#
# Poissons Ratio (x) = 0.34977 0.27555
# Poissons Ratio (y) = 0.30912 0.21758
# Poissons Ratio (z) = 0.10996 0.09825
#
# Static dielectric constant tensor:
#      x y z
#    x 1.637390 0.000000 0.000000 
#    y 0.000000 1.634250 0.000000 
#    z 0.000000 0.000000 1.769890 
# 
# From -- ./inp_files/32900.got.cif
#   From: 2010.05.17/outbox.cif.g08.bks.cpg/sg21_17_cif.got.tgz:32900.got - 2010.06.03 23:14:55.
