data_PCOD9324774
_publ_section_title
;
Structure prediction by ZEFSAII (Michael W. Deem and Ramdas Pophale) SiO2 
 PCOD9324774
Probable space group: C 2 2 2
;
_chemical_formula_sum "Si O2"
_cell_formula_units_Z 64
_cell_length_a 15.325145
_cell_length_b 9.602436
_cell_length_c 22.977600
_cell_angle_alpha 90.000000
_cell_angle_beta 90.000000
_cell_angle_gamma 90.000000
_cell_volume 3381.354298
_symmetry_space_group_name_H-M "C 2 2 2"
_symmetry_group_IT_number 21
_symmetry_cell_setting 'orthorhombic'
loop_
_space_group_symop_operation_xyz
x,y,z
-x,-y,z
x,-y,-z
-x,y,-z
1/2+x,1/2+y,z
1/2-x,1/2-y,z
1/2+x,1/2-y,-z
1/2-x,1/2+y,-z
loop_
_atom_site_type_symbol
_atom_site_label
_atom_site_fract_x
_atom_site_fract_y
_atom_site_fract_z
Si Si1 0.090703 0.582027 0.353773
Si Si2 0.002469 0.168577 0.067905
Si Si3 0.750251 0.414802 0.440736
Si Si4 0.345816 0.291192 0.850143
Si Si5 0.848971 0.721236 0.154328
Si Si6 0.909801 0.917908 0.646113
Si Si7 0.102834 0.030194 0.227052
Si Si8 0.398193 0.037995 0.776077
O O1 0.162897 0.555928 0.402929
O O2 0.075439 0.750169 0.349601
O O3 0.128180 0.531216 0.291352
O O4 0.000000 0.500000 0.364258
O O5 0.915066 0.220238 0.098890
O O6 0.083244 0.233265 0.104071
O O7 0.000000 0.000000 0.072884
O O8 0.000000 0.204616 0.000000
O O9 0.749236 0.500000 0.500000
O O10 0.750000 0.250000 0.453424
O O11 0.664611 0.443430 0.401651
O O12 0.250000 0.250000 0.868767
O O13 0.346746 0.443011 0.821694
O O14 0.379134 0.192063 0.798405
O O15 0.750000 0.750000 0.136709
O O16 0.855861 0.564506 0.177129
O O17 0.875793 0.811692 0.211526
O O18 0.877376 0.977518 0.708363
O O19 0.000000 0.000000 0.633424
O O20 0.000000 0.000000 0.218278
O O21 0.500000 0.000000 0.777087
#
# Coordination Sequence:
#
# PCOD9324774 Si02
#       8
#     8   8   8   8   8   8   8   8
#     4  10  23  40  62  95 129 164 208 260 316 372
#     4  11  24  46  66  85 123 172 216 252 301 381
#     4  10  24  46  65  89 129 173 216 257 308 376
#     4  12  22  37  66  93 119 164 206 252 310 377
#     4  12  24  39  62  95 127 162 203 263 314 370
#     4  10  23  39  64  94 126 167 211 260 305 376
#     4  11  20  40  62  90 131 162 207 251 313 377
#     4  11  22  38  60  94 133 158 193 259 329 369
#
# _framework density 18.927326000000001
#
# number of rings (size 3 to 8) (size 9 to 14) (size 15 to 20)
#    0.000    1.125    5.000    0.750    8.750    2.000 
#    0.000    3.750    0.000    0.000    0.000    0.000 
#    0.000    0.000    0.000    0.000    0.000    0.000 
#
# Total GULP energy -178743.720259 kJ/mol
# GULP energy per Si atom -5585.741258 kJ/mol
# Density = 1.888425 g / cm^3
# Si number density = 18.927326 Si / 1000 Ang^3
#
#
#
# Elastic Constant Matrix: (Units=GPa)
#
#
# Indices 1 2 3 4 5 6 
#
# 1 132.5994 20.0666 78.2499 0.0000 0.0000 0.0000
# 2 20.0666 39.1038 33.2487 0.0000 0.0000 0.0000
# 3 78.2499 33.2487 156.5403 0.0000 0.0000 0.0000
# 4 0.0000 0.0000 0.0000 40.8578 0.0000 0.0000
# 5 0.0000 0.0000 0.0000 0.0000 -14.4516 0.0000
# 6 0.0000 0.0000 0.0000 0.0000 0.0000 32.4483
#
#
#
# Elastic Compliance Matrix: (Units=1/GPa)
#
#
# Indices 1 2 3 4 5 6 
#
# 1 0.010740 -0.001155 -0.005123 0.000000 0.000000 0.000000
# 2 -0.001155 0.031333 -0.006078 0.000000 0.000000 0.000000
# 3 -0.005123 -0.006078 0.010240 0.000000 0.000000 0.000000
# 4 0.000000 0.000000 0.000000 0.024475 0.000000 0.000000
# 5 0.000000 0.000000 0.000000 0.000000 -0.069196 0.000000
# 6 0.000000 0.000000 0.000000 0.000000 0.000000 0.030818
#
#
# Mechanical properties :
#
#
# Convention : Reuss Voigt Hill
#
# Bulk Modulus (GPa) = 36.23050 65.70819 50.96935
# Shear Modulus (GPa) = 69.13523 24.88278 47.00900
#
# Velocity S-wave (km/s) = 6.05029 3.62974 4.98904
# Velocity P-wave (km/s) = 8.24569 7.23589 7.75724
#
# Compressibility (1/GPa) = 0.02760105
#
# Stress axis : x y z
#
# Youngs Moduli (GPa) = 93.11381 31.91477 97.65764
#
# Poissons Ratio (x) = 0.03687 0.50030
# Poissons Ratio (y) = 0.10757 0.59353
# Poissons Ratio (z) = 0.47702 0.19397
#
# Static dielectric constant tensor:
#      x y z
#    x 1.702050 0.000000 0.000000 
#    y 0.000000 1.609440 0.000000 
#    z 0.000000 0.000000 1.627620 
# 
# From -- ./inp_files/38762.got.cif
#   From: 2010.05.17/outbox.cif.g08.bks.cpg/sg21_20_cif.got.tgz:38762.got - 2010.06.03 23:14:55.
