data_PCOD9324211
_publ_section_title
;
Structure prediction by ZEFSAII (Michael W. Deem and Ramdas Pophale) SiO2 
 PCOD9324211
Probable space group: C 2 2 2
;
_chemical_formula_sum "Si O2"
_cell_formula_units_Z 58
_cell_length_a 26.391198
_cell_length_b 18.075189
_cell_length_c 6.071480
_cell_angle_alpha 90.000000
_cell_angle_beta 90.000000
_cell_angle_gamma 90.000000
_cell_volume 2896.253161
_symmetry_space_group_name_H-M "C 2 2 2"
_symmetry_group_IT_number 21
_symmetry_cell_setting 'orthorhombic'
loop_
_space_group_symop_operation_xyz
x,y,z
-x,-y,z
x,-y,-z
-x,y,-z
1/2+x,1/2+y,z
1/2-x,1/2-y,z
1/2+x,1/2-y,-z
1/2-x,1/2+y,-z
loop_
_atom_site_type_symbol
_atom_site_label
_atom_site_fract_x
_atom_site_fract_y
_atom_site_fract_z
Si Si1 0.553254 0.783761 0.928452
Si Si2 0.814625 0.080173 0.908872
Si Si3 0.214974 0.462420 0.257396
Si Si4 0.500000 0.500000 0.000000
Si Si5 0.150361 0.320736 0.152472
Si Si6 0.600753 0.275987 0.464896
Si Si7 0.428705 0.372137 0.183591
Si Si8 0.201603 0.213131 0.812372
O O1 0.601141 0.832290 0.000496
O O2 0.557302 0.700799 0.038638
O O3 0.500000 0.815402 0.000000
O O4 0.560421 0.770282 0.672127
O O5 0.772601 0.068289 0.722693
O O6 0.868846 0.113949 0.852554
O O7 0.787767 0.133071 0.087185
O O8 0.826534 0.000000 0.000000
O O9 0.204532 0.500000 0.500000
O O10 0.176930 0.394183 0.232909
O O11 0.213574 0.500000 0.000000
O O12 0.463064 0.442905 0.130572
O O13 0.126788 0.273420 0.349374
O O14 0.188653 0.269568 0.012052
O O15 0.570954 0.345208 0.564988
O O16 0.649145 0.296392 0.317140
O O17 0.250000 0.250000 0.693028
#
# Coordination Sequence:
#
# PCOD9324211 Si02
#       8
#     8   8   8   2   8   8   8   8
#     4  10  21  41  65  95 130 160 224 286 339 401
#     4  11  22  40  61  95 139 175 224 282 342 402
#     4  11  27  45  69 102 142 184 224 285 357 432
#     4  12  24  44  66  80 142 184 234 290 334 412
#     4  10  22  40  66  99 128 175 225 276 346 412
#     4  10  22  37  68  94 126 172 227 286 334 403
#     4  11  22  40  61  90 127 181 229 282 333 392
#     4  11  21  39  64  95 136 172 228 282 342 412
#
# _framework density 20.025874000000002
#
# number of rings (size 3 to 8) (size 9 to 14) (size 15 to 20)
#    0.000    1.379    6.897    0.000    3.862    6.069 
#    0.000    2.759    0.000    0.414    0.000    0.000 
#    0.000    0.000    0.000    0.000    0.000    0.000 
#
# Total GULP energy -161530.387374 kJ/mol
# GULP energy per Si atom -5570.013358 kJ/mol
# Density = 1.998029 g / cm^3
# Si number density = 20.025874 Si / 1000 Ang^3
#
#
#
# Elastic Constant Matrix: (Units=GPa)
#
#
# Indices 1 2 3 4 5 6 
#
# 1 101.0064 32.6772 20.6365 0.0000 0.0000 0.0000
# 2 32.6772 66.5682 28.4536 0.0000 0.0000 0.0000
# 3 20.6365 28.4536 80.6774 0.0000 0.0000 0.0000
# 4 0.0000 0.0000 0.0000 24.8041 0.0000 0.0000
# 5 0.0000 0.0000 0.0000 0.0000 11.3110 0.0000
# 6 0.0000 0.0000 0.0000 0.0000 0.0000 34.0755
#
#
#
# Elastic Compliance Matrix: (Units=1/GPa)
#
#
# Indices 1 2 3 4 5 6 
#
# 1 0.011860 -0.005328 -0.001154 0.000000 0.000000 0.000000
# 2 -0.005328 0.020083 -0.005720 0.000000 0.000000 0.000000
# 3 -0.001154 -0.005720 0.014708 0.000000 0.000000 0.000000
# 4 0.000000 0.000000 0.000000 0.040316 0.000000 0.000000
# 5 0.000000 0.000000 0.000000 0.000000 0.088410 0.000000
# 6 0.000000 0.000000 0.000000 0.000000 0.000000 0.029347
#
#
# Mechanical properties :
#
#
# Convention : Reuss Voigt Hill
#
# Bulk Modulus (GPa) = 44.95413 45.75406 45.35410
# Shear Modulus (GPa) = 21.13778 25.13709 23.13744
#
# Velocity S-wave (km/s) = 3.25241 3.54677 3.40277
# Velocity P-wave (km/s) = 6.04987 6.29840 6.17539
#
# Compressibility (1/GPa) = 0.02224490
#
# Stress axis : x y z
#
# Youngs Moduli (GPa) = 84.31652 49.79403 67.99191
#
# Poissons Ratio (x) = 0.26533 0.07849
# Poissons Ratio (y) = 0.44928 0.38890
# Poissons Ratio (z) = 0.09734 0.28482
#
# Static dielectric constant tensor:
#      x y z
#    x 1.755830 0.000000 0.000000 
#    y 0.000000 1.685840 0.000000 
#    z 0.000000 0.000000 1.851630 
# 
# From -- ./inp_files/7491.got.cif
#   From: 2010.05.17/outbox.cif.g08.bks.cpg/sg21_4_cif.got.tgz:7491.got - 2010.06.03 23:14:55.
