data_PCOD9324592
_publ_section_title
;
Structure prediction by ZEFSAII (Michael W. Deem and Ramdas Pophale) SiO2 
 PCOD9324592
Probable space group: C 2 2 2
;
_chemical_formula_sum "Si O2"
_cell_formula_units_Z 42
_cell_length_a 18.481181
_cell_length_b 8.886946
_cell_length_c 11.199446
_cell_angle_alpha 90.000000
_cell_angle_beta 90.000000
_cell_angle_gamma 90.000000
_cell_volume 1839.411095
_symmetry_space_group_name_H-M "C 2 2 2"
_symmetry_group_IT_number 21
_symmetry_cell_setting 'orthorhombic'
loop_
_space_group_symop_operation_xyz
x,y,z
-x,-y,z
x,-y,-z
-x,y,-z
1/2+x,1/2+y,z
1/2-x,1/2-y,z
1/2+x,1/2-y,-z
1/2-x,1/2+y,-z
loop_
_atom_site_type_symbol
_atom_site_label
_atom_site_fract_x
_atom_site_fract_y
_atom_site_fract_z
Si Si1 0.000000 0.500000 0.500000
Si Si2 0.311658 0.921237 0.818173
Si Si3 0.832483 0.707678 0.697008
Si Si4 0.867568 0.310416 0.569942
Si Si5 0.417740 0.514491 0.666231
Si Si6 0.352922 0.382589 0.103572
O O1 0.053676 0.607917 0.574960
O O2 0.320272 0.852639 0.684567
O O3 0.343433 0.798103 0.910327
O O4 0.227025 0.933834 0.849593
O O5 0.349462 0.081801 0.796363
O O6 0.750000 0.750000 0.719562
O O7 0.836998 0.648490 0.560227
O O8 0.882117 0.853917 0.692689
O O9 0.878259 0.130680 0.577594
O O10 0.500000 0.500000 0.630434
O O11 0.411424 0.599128 0.792924
O O12 0.370346 0.500000 0.000000
#
# Coordination Sequence:
#
# PCOD9324592 Si02
#       6
#     2   8   8   8   8   8
#     4  12  20  40  66  92 146 196 240 268 360 444
#     4  10  22  42  66  98 132 173 236 291 352 420
#     4  12  23  38  67 102 144 183 235 279 347 427
#     4  11  24  38  64  99 139 192 224 281 341 430
#     4  11  25  42  63  98 145 186 233 284 353 428
#     4  10  23  44  69  95 128 175 232 313 369 407
#
# _framework density 22.833393999999998
#
# number of rings (size 3 to 8) (size 9 to 14) (size 15 to 20)
#    0.000    1.143    3.810    1.714    5.333    5.714 
#    0.000    0.000    0.000    0.000    0.000    2.667 
#    0.000    0.000    0.000    0.000    0.000    0.000 
#
# Total GULP energy -117247.663135 kJ/mol
# GULP energy per Si atom -5583.222054 kJ/mol
# Density = 2.278142 g / cm^3
# Si number density = 22.833394 Si / 1000 Ang^3
#
#
#
# Elastic Constant Matrix: (Units=GPa)
#
#
# Indices 1 2 3 4 5 6 
#
# 1 42.5821 23.4481 3.0191 0.0000 0.0000 0.0000
# 2 23.4481 159.0158 27.5749 0.0000 0.0000 0.0000
# 3 3.0191 27.5749 75.5105 0.0000 0.0000 0.0000
# 4 0.0000 0.0000 0.0000 47.0838 0.0000 0.0000
# 5 0.0000 0.0000 0.0000 0.0000 -6.1909 0.0000
# 6 0.0000 0.0000 0.0000 0.0000 0.0000 40.6433
#
#
#
# Elastic Compliance Matrix: (Units=1/GPa)
#
#
# Indices 1 2 3 4 5 6 
#
# 1 0.025570 -0.003836 0.000379 0.000000 0.000000 0.000000
# 2 -0.003836 0.007289 -0.002509 0.000000 0.000000 0.000000
# 3 0.000379 -0.002509 0.014144 0.000000 0.000000 0.000000
# 4 0.000000 0.000000 0.000000 0.021239 0.000000 0.000000
# 5 0.000000 0.000000 0.000000 0.000000 -0.161527 0.000000
# 6 0.000000 0.000000 0.000000 0.000000 0.000000 0.024604
#
#
# Mechanical properties :
#
#
# Convention : Reuss Voigt Hill
#
# Bulk Modulus (GPa) = 28.51371 42.79918 35.65645
# Shear Modulus (GPa) = -110.96599 31.17833 -39.89383
#
# Velocity S-wave (km/s) = -6.97880 3.69924 -4.18445
# Velocity P-wave (km/s) = 7.24040 6.08528 2.77423
#
# Compressibility (1/GPa) = 0.03507085
#
# Stress axis : x y z
#
# Youngs Moduli (GPa) = 39.10899 137.18641 70.70073
#
# Poissons Ratio (x) = 0.52626 -0.02676
# Poissons Ratio (y) = 0.15003 0.17736
# Poissons Ratio (z) = -0.01480 0.34414
#
# Static dielectric constant tensor:
#      x y z
#    x 1.854400 0.000000 0.000000 
#    y 0.000000 2.038320 0.000000 
#    z 0.000000 0.000000 1.876140 
# 
# From -- ./inp_files/27279.got.cif
#   From: 2010.05.17/outbox.cif.g08.bks.cpg/sg21_14_cif.got.tgz:27279.got - 2010.06.03 23:14:55.
