data_PCOD9324965
_publ_section_title
;
Structure prediction by ZEFSAII (Michael W. Deem and Ramdas Pophale) SiO2 
 PCOD9324965
Probable space group: C 2 2 2
;
_chemical_formula_sum "Si O2"
_cell_formula_units_Z 58
_cell_length_a 18.145106
_cell_length_b 17.183505
_cell_length_c 9.637228
_cell_angle_alpha 90.000000
_cell_angle_beta 90.000000
_cell_angle_gamma 90.000000
_cell_volume 3004.854150
_symmetry_space_group_name_H-M "C 2 2 2"
_symmetry_group_IT_number 21
_symmetry_cell_setting 'orthorhombic'
loop_
_space_group_symop_operation_xyz
x,y,z
-x,-y,z
x,-y,-z
-x,y,-z
1/2+x,1/2+y,z
1/2-x,1/2-y,z
1/2+x,1/2-y,-z
1/2-x,1/2+y,-z
loop_
_atom_site_type_symbol
_atom_site_label
_atom_site_fract_x
_atom_site_fract_y
_atom_site_fract_z
Si Si1 0.726628 0.041128 0.863570
Si Si2 0.000000 0.500000 0.500000
Si Si3 0.137757 0.428896 0.404593
Si Si4 0.585377 0.330818 0.240582
Si Si5 0.162187 0.738887 0.472088
Si Si6 0.911877 0.831449 0.280006
Si Si7 0.145527 0.004983 0.665394
Si Si8 0.685174 0.311072 0.974003
O O1 0.670215 0.071751 0.748607
O O2 0.783352 0.991575 0.767286
O O3 0.773378 0.110519 0.929908
O O4 0.694096 0.000000 0.000000
O O5 0.051425 0.447373 0.404966
O O6 0.168159 0.500000 0.500000
O O7 0.150414 0.349533 0.484466
O O8 0.627991 0.264567 0.326873
O O9 0.497722 0.318510 0.247915
O O10 0.600778 0.416191 0.305954
O O11 0.624864 0.327641 0.091768
O O12 0.250000 0.750000 0.476064
O O13 0.117877 0.793421 0.579244
O O14 0.895491 0.924442 0.291711
O O15 0.861758 0.790763 0.162658
O O16 0.161467 0.000000 0.500000
O O17 0.750000 0.250000 0.009630
#
# Coordination Sequence:
#
# PCOD9324965 Si02
#       8
#     8   2   8   8   8   8   8   8
#     4  11  22  40  69  95 125 175 217 276 325 401
#     4   8  24  44  70  96 132 178 220 288 336 412
#     4  10  24  43  70  95 134 171 227 280 343 397
#     4  12  25  38  66  99 135 172 219 275 335 404
#     4  12  25  42  65 101 129 176 225 279 338 396
#     4  11  24  40  67  92 136 176 213 273 340 406
#     4  11  22  40  63  99 137 168 219 263 329 406
#     4  11  24  45  60  92 133 172 226 268 331 400
#
# _framework density 19.302102000000001
#
# number of rings (size 3 to 8) (size 9 to 14) (size 15 to 20)
#    0.414    0.552    2.759    4.966    3.862    1.655 
#    0.000    1.724    0.000    0.000    0.000    0.000 
#    0.000    0.000    0.000    0.000    0.000    0.000 
#
# Total GULP energy -161777.076820 kJ/mol
# GULP energy per Si atom -5578.519890 kJ/mol
# Density = 1.925817 g / cm^3
# Si number density = 19.302102 Si / 1000 Ang^3
#
#
#
# Elastic Constant Matrix: (Units=GPa)
#
#
# Indices 1 2 3 4 5 6 
#
# 1 111.3954 16.6400 12.4343 0.0000 0.0000 0.0000
# 2 16.6400 72.9422 0.3715 0.0000 0.0000 0.0000
# 3 12.4343 0.3715 96.7260 0.0000 0.0000 0.0000
# 4 0.0000 0.0000 0.0000 26.1210 0.0000 0.0000
# 5 0.0000 0.0000 0.0000 0.0000 545.9732 0.0000
# 6 0.0000 0.0000 0.0000 0.0000 0.0000 18.7426
#
#
#
# Elastic Compliance Matrix: (Units=1/GPa)
#
#
# Indices 1 2 3 4 5 6 
#
# 1 0.009432 -0.002146 -0.001204 0.000000 0.000000 0.000000
# 2 -0.002146 0.014198 0.000221 0.000000 0.000000 0.000000
# 3 -0.001204 0.000221 0.010492 0.000000 0.000000 0.000000
# 4 0.000000 0.000000 0.000000 0.038283 0.000000 0.000000
# 5 0.000000 0.000000 0.000000 0.000000 0.001832 0.000000
# 6 0.000000 0.000000 0.000000 0.000000 0.000000 0.053355
#
#
# Mechanical properties :
#
#
# Convention : Reuss Voigt Hill
#
# Bulk Modulus (GPa) = 35.88705 37.77278 36.82991
# Shear Modulus (GPa) = 34.93154 134.94188 84.93671
#
# Velocity S-wave (km/s) = 4.25870 8.37032 6.64074
# Velocity P-wave (km/s) = 6.54330 10.63146 8.82731
#
# Compressibility (1/GPa) = 0.02786520
#
# Stress axis : x y z
#
# Youngs Moduli (GPa) = 106.02266 70.43336 95.30670
#
# Poissons Ratio (x) = 0.15112 0.11477
# Poissons Ratio (y) = 0.22748 -0.02109
# Poissons Ratio (z) = 0.12768 -0.01559
#
# Static dielectric constant tensor:
#      x y z
#    x 1.685590 0.000000 0.000000 
#    y 0.000000 1.659860 0.000000 
#    z 0.000000 0.000000 1.696550 
# 
# From -- ./inp_files/16695.got.cif
#   From: 2010.05.17/outbox.cif.g08.bks.cpg/sg21_9_cif.got.tgz:16695.got - 2010.06.03 23:14:55.
