data_PCOD9324184
_publ_section_title
;
Structure prediction by ZEFSAII (Michael W. Deem and Ramdas Pophale) SiO2 
 PCOD9324184
Probable space group: C 2 2 2
;
_chemical_formula_sum "Si O2"
_cell_formula_units_Z 34
_cell_length_a 10.865810
_cell_length_b 16.542989
_cell_length_c 8.212691
_cell_angle_alpha 90.000000
_cell_angle_beta 90.000000
_cell_angle_gamma 90.000000
_cell_volume 1476.255643
_symmetry_space_group_name_H-M "C 2 2 2"
_symmetry_group_IT_number 21
_symmetry_cell_setting 'orthorhombic'
loop_
_space_group_symop_operation_xyz
x,y,z
-x,-y,z
x,-y,-z
-x,y,-z
1/2+x,1/2+y,z
1/2-x,1/2-y,z
1/2+x,1/2-y,-z
1/2-x,1/2+y,-z
loop_
_atom_site_type_symbol
_atom_site_label
_atom_site_fract_x
_atom_site_fract_y
_atom_site_fract_z
Si Si1 0.892001 0.549249 0.826648
Si Si2 0.633479 0.299951 0.921574
Si Si3 0.941454 0.328099 0.675643
Si Si4 0.500000 0.500000 0.500000
Si Si5 0.206902 0.060688 0.276789
O O1 0.954716 0.636313 0.804197
O O2 0.762288 0.529373 0.747274
O O3 0.000000 0.500000 0.733849
O O4 0.884407 0.500000 0.000000
O O5 0.750000 0.250000 0.995732
O O6 0.608917 0.254401 0.750851
O O7 0.673710 0.391821 0.888700
O O8 0.500000 0.299325 0.000000
O O9 0.000000 0.319621 0.500000
O O10 0.822113 0.386163 0.661567
O O11 0.589166 0.553837 0.388835
#
# Coordination Sequence:
#
# PCOD9324184 Si02
#       5
#     8   8   8   2   8
#     4   9  19  35  66  95 123 163 220 277 322 383
#     4  10  24  44  67  96 137 174 223 283 335 405
#     4  10  21  40  69  98 123 171 232 279 322 393
#     4  12  24  40  60  88 140 188 204 274 356 396
#     4  10  23  40  60  91 139 166 219 274 333 401
#
# _framework density 23.031243
#
# number of rings (size 3 to 8) (size 9 to 14) (size 15 to 20)
#    0.000    2.118    0.000    1.412   11.529    5.176 
#    4.235    0.000    0.000    0.000    0.000    0.000 
#    0.000    0.000    0.000    0.000    0.000    0.000 
#
# Total GULP energy -94645.702733 kJ/mol
# GULP energy per Si atom -5567.394278 kJ/mol
# Density = 2.297882 g / cm^3
# Si number density = 23.031243 Si / 1000 Ang^3
#
#
#
# Elastic Constant Matrix: (Units=GPa)
#
#
# Indices 1 2 3 4 5 6 
#
# 1 189.5281 40.8069 52.6615 0.0000 0.0000 0.0000
# 2 40.8069 69.8723 8.6218 0.0000 0.0000 0.0000
# 3 52.6615 8.6218 54.6713 0.0000 0.0000 0.0000
# 4 0.0000 0.0000 0.0000 7.8112 0.0000 0.0000
# 5 0.0000 0.0000 0.0000 0.0000 49.5970 0.0000
# 6 0.0000 0.0000 0.0000 0.0000 0.0000 28.1281
#
#
#
# Elastic Compliance Matrix: (Units=1/GPa)
#
#
# Indices 1 2 3 4 5 6 
#
# 1 0.008105 -0.003845 -0.007200 0.000000 0.000000 0.000000
# 2 -0.003845 0.016420 0.001114 0.000000 0.000000 0.000000
# 3 -0.007200 0.001114 0.025051 0.000000 0.000000 0.000000
# 4 0.000000 0.000000 0.000000 0.128021 0.000000 0.000000
# 5 0.000000 0.000000 0.000000 0.000000 0.020162 0.000000
# 6 0.000000 0.000000 0.000000 0.000000 0.000000 0.035552
#
#
# Mechanical properties :
#
#
# Convention : Reuss Voigt Hill
#
# Bulk Modulus (GPa) = 33.65496 57.58356 45.61926
# Shear Modulus (GPa) = 19.00574 31.23936 25.12255
#
# Velocity S-wave (km/s) = 2.87577 3.68692 3.30631
# Velocity P-wave (km/s) = 5.06668 6.57123 5.86738
#
# Compressibility (1/GPa) = 0.02971330
#
# Stress axis : x y z
#
# Youngs Moduli (GPa) = 123.38374 60.90187 39.91823
#
# Poissons Ratio (x) = 0.23416 0.28743
# Poissons Ratio (y) = 0.47440 -0.04447
# Poissons Ratio (z) = 0.88842 -0.06785
#
# Static dielectric constant tensor:
#      x y z
#    x 1.864670 0.000000 0.000000 
#    y 0.000000 1.945270 0.000000 
#    z 0.000000 0.000000 1.968020 
# 
# From -- ./inp_files/10575.got.cif
#   From: 2010.05.17/outbox.cif.g08.bks.cpg/sg21_6_cif.got.tgz:10575.got - 2010.06.03 23:14:55.
