data_PCOD9324923
_publ_section_title
;
Structure prediction by ZEFSAII (Michael W. Deem and Ramdas Pophale) SiO2 
 PCOD9324923
Probable space group: C 2 2 2
;
_chemical_formula_sum "Si O2"
_cell_formula_units_Z 38
_cell_length_a 31.681224
_cell_length_b 11.608914
_cell_length_c 5.143791
_cell_angle_alpha 90.000000
_cell_angle_beta 90.000000
_cell_angle_gamma 90.000000
_cell_volume 1891.807140
_symmetry_space_group_name_H-M "C 2 2 2"
_symmetry_group_IT_number 21
_symmetry_cell_setting 'orthorhombic'
loop_
_space_group_symop_operation_xyz
x,y,z
-x,-y,z
x,-y,-z
-x,y,-z
1/2+x,1/2+y,z
1/2-x,1/2-y,z
1/2+x,1/2-y,-z
1/2-x,1/2+y,-z
loop_
_atom_site_type_symbol
_atom_site_label
_atom_site_fract_x
_atom_site_fract_y
_atom_site_fract_z
Si Si1 0.833562 0.876779 0.361986
Si Si2 0.000000 0.500000 0.500000
Si Si3 0.627672 0.269183 0.131340
Si Si4 0.750000 0.750000 0.474943
Si Si5 0.307927 0.072469 0.756241
Si Si6 0.953074 0.373891 0.110888
O O1 0.862672 0.814891 0.579612
O O2 0.789009 0.809640 0.328884
O O3 0.825538 0.000000 0.500000
O O4 0.856490 0.860068 0.085051
O O5 0.034655 0.592751 0.401020
O O6 0.655509 0.152567 0.125877
O O7 0.580341 0.226094 0.082754
O O8 0.729020 0.846894 0.652128
O O9 0.321836 0.000000 0.500000
O O10 0.292069 0.000000 0.000000
O O11 0.939420 0.500000 0.000000
O O12 0.000000 0.351396 0.000000
#
# Coordination Sequence:
#
# PCOD9324923 Si02
#       6
#     8   2   8   4   8   8
#     4  11  25  43  63  88 121 162 212 264 304 370
#     4   8  18  32  60  94 130 168 182 256 302 376
#     4  11  24  39  64  89 122 165 203 247 319 370
#     4  10  24  40  62  86 116 164 206 252 318 354
#     4  11  23  37  57  89 121 157 201 255 305 372
#     4   9  20  35  59  95 129 160 200 245 312 370
#
# _framework density 20.086614000000001
#
# number of rings (size 3 to 8) (size 9 to 14) (size 15 to 20)
#    0.000    1.895    0.000    4.421    7.368   10.947 
#    0.000    0.000    0.000    3.789    0.000    0.000 
#    0.000    0.000    0.000    0.000    0.000    0.000 
#
# Total GULP energy -105773.349895 kJ/mol
# GULP energy per Si atom -5567.018416 kJ/mol
# Density = 2.004090 g / cm^3
# Si number density = 20.086614 Si / 1000 Ang^3
#
#
#
# Elastic Constant Matrix: (Units=GPa)
#
#
# Indices 1 2 3 4 5 6 
#
# 1 70.8170 25.8247 13.3189 0.0000 0.0000 0.0000
# 2 25.8247 71.8579 12.5256 0.0000 0.0000 0.0000
# 3 13.3189 12.5256 62.7252 0.0000 0.0000 0.0000
# 4 0.0000 0.0000 0.0000 33.1256 0.0000 0.0000
# 5 0.0000 0.0000 0.0000 0.0000 7.6817 0.0000
# 6 0.0000 0.0000 0.0000 0.0000 0.0000 22.5149
#
#
#
# Elastic Compliance Matrix: (Units=1/GPa)
#
#
# Indices 1 2 3 4 5 6 
#
# 1 0.016597 -0.005543 -0.002417 0.000000 0.000000 0.000000
# 2 -0.005543 0.016270 -0.002072 0.000000 0.000000 0.000000
# 3 -0.002417 -0.002072 0.016870 0.000000 0.000000 0.000000
# 4 0.000000 0.000000 0.000000 0.030188 0.000000 0.000000
# 5 0.000000 0.000000 0.000000 0.000000 0.130180 0.000000
# 6 0.000000 0.000000 0.000000 0.000000 0.000000 0.044415
#
#
# Mechanical properties :
#
#
# Convention : Reuss Voigt Hill
#
# Bulk Modulus (GPa) = 33.70247 34.30427 34.00337
# Shear Modulus (GPa) = 17.57627 22.91316 20.24472
#
# Velocity S-wave (km/s) = 2.96129 3.38112 3.17814
# Velocity P-wave (km/s) = 5.33922 5.68840 5.51657
#
# Compressibility (1/GPa) = 0.02967142
#
# Stress axis : x y z
#
# Youngs Moduli (GPa) = 60.25182 61.46391 59.27846
#
# Poissons Ratio (x) = 0.34072 0.14329
# Poissons Ratio (y) = 0.33400 0.12281
# Poissons Ratio (z) = 0.14564 0.12734
#
# Static dielectric constant tensor:
#      x y z
#    x 1.692400 0.000000 0.000000 
#    y 0.000000 1.769900 0.000000 
#    z 0.000000 0.000000 1.820400 
# 
# From -- ./inp_files/7168.got.cif
#   From: 2010.05.17/outbox.cif.g08.bks.cpg/sg21_4_cif.got.tgz:7168.got - 2010.06.03 23:14:55.
