data_PCOD9324896
_publ_section_title
;
Structure prediction by ZEFSAII (Michael W. Deem and Ramdas Pophale) SiO2 
 PCOD9324896
Probable space group: C 2 2 2
;
_chemical_formula_sum "Si O2"
_cell_formula_units_Z 30
_cell_length_a 16.219393
_cell_length_b 13.119420
_cell_length_c 5.720300
_cell_angle_alpha 90.000000
_cell_angle_beta 90.000000
_cell_angle_gamma 90.000000
_cell_volume 1217.217082
_symmetry_space_group_name_H-M "C 2 2 2"
_symmetry_group_IT_number 21
_symmetry_cell_setting 'orthorhombic'
loop_
_space_group_symop_operation_xyz
x,y,z
-x,-y,z
x,-y,-z
-x,y,-z
1/2+x,1/2+y,z
1/2-x,1/2-y,z
1/2+x,1/2-y,-z
1/2-x,1/2+y,-z
loop_
_atom_site_type_symbol
_atom_site_label
_atom_site_fract_x
_atom_site_fract_y
_atom_site_fract_z
Si Si1 0.186995 0.613653 0.255240
Si Si2 0.000000 0.000000 0.500000
Si Si3 0.376118 0.120069 0.254739
Si Si4 0.500000 0.233630 0.000000
Si Si5 0.624758 0.400418 0.161642
O O1 0.145636 0.500575 0.262058
O O2 0.153248 0.663838 0.495030
O O3 0.285641 0.616699 0.269168
O O4 0.169864 0.649330 0.989080
O O5 0.059485 0.070694 0.644472
O O6 0.469661 0.156715 0.204301
O O7 0.576822 0.309838 0.033026
O O8 0.633707 0.500000 0.000000
#
# Coordination Sequence:
#
# PCOD9324896 Si02
#       5
#     8   2   8   4   8
#     4  10  23  48  78  98 147 210 249 286 390 475
#     4  12  22  40  76 102 152 208 250 308 410 472
#     4  10  23  46  75 109 143 196 249 314 368 463
#     4  12  27  45  72 122 156 178 264 343 389 432
#     4  12  24  47  72 110 151 212 252 321 395 475
#
# _framework density 24.646388000000002
#
# number of rings (size 3 to 8) (size 9 to 14) (size 15 to 20)
#    0.000    1.067    5.333    1.600    0.000    6.400 
#    0.000    8.000    0.000    0.000    0.000    0.000 
#    0.000    0.000    0.000    0.000    0.000    0.000 
#
# Total GULP energy -83689.594306 kJ/mol
# GULP energy per Si atom -5579.306287 kJ/mol
# Density = 2.459029 g / cm^3
# Si number density = 24.646388 Si / 1000 Ang^3
#
#
#
# Elastic Constant Matrix: (Units=GPa)
#
#
# Indices 1 2 3 4 5 6 
#
# 1 120.3898 66.7123 68.1868 0.0000 0.0000 0.0000
# 2 66.7123 102.3848 13.2975 0.0000 0.0000 0.0000
# 3 68.1868 13.2975 196.9591 0.0000 0.0000 0.0000
# 4 0.0000 0.0000 0.0000 23.4672 0.0000 0.0000
# 5 0.0000 0.0000 0.0000 0.0000 74.1391 0.0000
# 6 0.0000 0.0000 0.0000 0.0000 0.0000 -45.1590
#
#
#
# Elastic Compliance Matrix: (Units=1/GPa)
#
#
# Indices 1 2 3 4 5 6 
#
# 1 0.017014 -0.010413 -0.005187 0.000000 0.000000 0.000000
# 2 -0.010413 0.016226 0.002509 0.000000 0.000000 0.000000
# 3 -0.005187 0.002509 0.006704 0.000000 0.000000 0.000000
# 4 0.000000 0.000000 0.000000 0.042613 0.000000 0.000000
# 5 0.000000 0.000000 0.000000 0.000000 0.013488 0.000000
# 6 0.000000 0.000000 0.000000 0.000000 0.000000 -0.022144
#
#
# Mechanical properties :
#
#
# Convention : Reuss Voigt Hill
#
# Bulk Modulus (GPa) = 72.66026 79.56965 76.11495
# Shear Modulus (GPa) = 47.76949 28.59194 38.18071
#
# Velocity S-wave (km/s) = 4.40727 3.40970 3.94018
# Velocity P-wave (km/s) = 7.44606 6.91780 7.18679
#
# Compressibility (1/GPa) = 0.01376268
#
# Stress axis : x y z
#
# Youngs Moduli (GPa) = 58.77397 61.63014 149.17307
#
# Poissons Ratio (x) = 0.64173 0.77381
# Poissons Ratio (y) = 0.61199 -0.37433
# Poissons Ratio (z) = 0.30488 -0.15465
#
# Static dielectric constant tensor:
#      x y z
#    x 1.968610 0.000000 0.000000 
#    y 0.000000 2.024280 0.000000 
#    z 0.000000 0.000000 1.973900 
# 
# From -- ./inp_files/4618.got.cif
#   From: 2010.05.17/outbox.cif.g08.bks.cpg/sg21_3_cif.got.tgz:4618.got - 2010.06.03 23:14:55.
