data_PCOD9324492
_publ_section_title
;
Structure prediction by ZEFSAII (Michael W. Deem and Ramdas Pophale) SiO2 
 PCOD9324492
Probable space group: C 2 2 2
;
_chemical_formula_sum "Si O2"
_cell_formula_units_Z 40
_cell_length_a 9.512260
_cell_length_b 16.398500
_cell_length_c 11.646515
_cell_angle_alpha 90.000000
_cell_angle_beta 90.000000
_cell_angle_gamma 90.000000
_cell_volume 1816.702555
_symmetry_space_group_name_H-M "C 2 2 2"
_symmetry_group_IT_number 21
_symmetry_cell_setting 'orthorhombic'
loop_
_space_group_symop_operation_xyz
x,y,z
-x,-y,z
x,-y,-z
-x,y,-z
1/2+x,1/2+y,z
1/2-x,1/2-y,z
1/2+x,1/2-y,-z
1/2-x,1/2+y,-z
loop_
_atom_site_type_symbol
_atom_site_label
_atom_site_fract_x
_atom_site_fract_y
_atom_site_fract_z
Si Si1 0.456939 0.093879 0.126460
Si Si2 0.170885 0.662426 0.504512
Si Si3 0.705491 0.844183 0.745479
Si Si4 0.712928 0.345382 0.745016
Si Si5 0.538825 0.594947 0.872150
O O1 0.545074 0.146520 0.216545
O O2 0.295406 0.107339 0.154853
O O3 0.500000 0.000000 0.139569
O O4 0.500000 0.120719 0.000000
O O5 0.250000 0.750000 0.504048
O O6 0.216872 0.622486 0.384179
O O7 0.228784 0.623651 0.622217
O O8 0.000000 0.670444 0.500000
O O9 0.750000 0.750000 0.747478
O O10 0.800286 0.891258 0.837547
O O11 0.750000 0.250000 0.753305
O O12 0.550804 0.359854 0.773124
O O13 0.500000 0.500000 0.868592
O O14 0.500000 0.625871 0.000000
#
# Coordination Sequence:
#
# PCOD9324492 Si02
#       5
#     8   8   8   8   8
#     4  11  23  40  61  88 126 169 206 253 320 375
#     4  10  22  40  65  96 130 164 204 262 324 372
#     4  11  23  40  66  94 124 161 213 264 307 372
#     4  11  23  40  66  94 124 161 213 264 307 372
#     4  11  25  44  63  90 132 173 208 257 322 379
#
# _framework density 22.017913
#
# number of rings (size 3 to 8) (size 9 to 14) (size 15 to 20)
#    0.000    1.200    2.000    3.600    8.400    8.000 
#    0.000    6.000    0.000    0.000    0.000    0.000 
#    0.000    0.000    0.000    0.000    0.000    0.000 
#
# Total GULP energy -111762.112466 kJ/mol
# GULP energy per Si atom -5588.105623 kJ/mol
# Density = 2.196780 g / cm^3
# Si number density = 22.017913 Si / 1000 Ang^3
#
#
#
# Elastic Constant Matrix: (Units=GPa)
#
#
# Indices 1 2 3 4 5 6 
#
# 1 75.6017 -6.9985 11.1199 0.0000 0.0000 0.0000
# 2 -6.9985 34.8158 9.5411 0.0000 0.0000 0.0000
# 3 11.1199 9.5411 134.8882 0.0000 0.0000 0.0000
# 4 0.0000 0.0000 0.0000 27.0751 0.0000 0.0000
# 5 0.0000 0.0000 0.0000 0.0000 38.3786 0.0000
# 6 0.0000 0.0000 0.0000 0.0000 0.0000 36.4589
#
#
#
# Elastic Compliance Matrix: (Units=1/GPa)
#
#
# Indices 1 2 3 4 5 6 
#
# 1 0.013716 0.003128 -0.001352 0.000000 0.000000 0.000000
# 2 0.003128 0.030004 -0.002380 0.000000 0.000000 0.000000
# 3 -0.001352 -0.002380 0.007693 0.000000 0.000000 0.000000
# 4 0.000000 0.000000 0.000000 0.036934 0.000000 0.000000
# 5 0.000000 0.000000 0.000000 0.000000 0.026056 0.000000
# 6 0.000000 0.000000 0.000000 0.000000 0.000000 0.027428
#
#
# Mechanical properties :
#
#
# Convention : Reuss Voigt Hill
#
# Bulk Modulus (GPa) = 19.91891 30.29228 25.10560
# Shear Modulus (GPa) = 31.29410 35.82540 33.55975
#
# Velocity S-wave (km/s) = 3.77411 4.03811 3.90834
# Velocity P-wave (km/s) = 5.29699 5.96068 5.63861
#
# Compressibility (1/GPa) = 0.05020355
#
# Stress axis : x y z
#
# Youngs Moduli (GPa) = 72.90980 33.32941 129.98244
#
# Poissons Ratio (x) = -0.10424 0.17572
# Poissons Ratio (y) = -0.22803 0.30937
# Poissons Ratio (z) = 0.09857 0.07933
#
# Static dielectric constant tensor:
#      x y z
#    x 1.735870 0.000000 0.000000 
#    y 0.000000 1.781670 0.000000 
#    z 0.000000 0.000000 1.849190 
# 
# From -- ./inp_files/22265.got.cif
#   From: 2010.05.17/outbox.cif.g08.bks.cpg/sg21_12_cif.got.tgz:22265.got - 2010.06.03 23:14:55.
