data_PCOD9324620
_publ_section_title
;
Structure prediction by ZEFSAII (Michael W. Deem and Ramdas Pophale) SiO2 
 PCOD9324620
Probable space group: C 2 2 2
;
_chemical_formula_sum "Si O2"
_cell_formula_units_Z 56
_cell_length_a 29.513038
_cell_length_b 5.981061
_cell_length_c 14.351421
_cell_angle_alpha 90.000000
_cell_angle_beta 90.000000
_cell_angle_gamma 90.000000
_cell_volume 2533.302510
_symmetry_space_group_name_H-M "C 2 2 2"
_symmetry_group_IT_number 21
_symmetry_cell_setting 'orthorhombic'
loop_
_space_group_symop_operation_xyz
x,y,z
-x,-y,z
x,-y,-z
-x,y,-z
1/2+x,1/2+y,z
1/2-x,1/2-y,z
1/2+x,1/2-y,-z
1/2-x,1/2+y,-z
loop_
_atom_site_type_symbol
_atom_site_label
_atom_site_fract_x
_atom_site_fract_y
_atom_site_fract_z
Si Si1 0.954577 0.713246 0.558993
Si Si2 0.329031 0.565151 0.094630
Si Si3 0.453131 0.095175 0.772706
Si Si4 0.638245 0.798811 0.235090
Si Si5 0.362790 0.544163 0.401129
Si Si6 0.078158 0.245932 0.955541
Si Si7 0.701611 0.813052 0.728249
O O1 0.936983 0.500000 0.500000
O O2 0.964679 0.662902 0.667051
O O3 0.913167 0.878013 0.574291
O O4 0.000000 0.771245 0.500000
O O5 0.355380 0.362354 0.146502
O O6 0.367627 0.735963 0.059181
O O7 0.300518 0.669730 0.177141
O O8 0.303704 0.500000 0.000000
O O9 0.440611 0.275281 0.850157
O O10 0.500000 0.000000 0.810276
O O11 0.408461 0.937939 0.772265
O O12 0.635019 0.661732 0.330950
O O13 0.684290 0.943255 0.243405
O O14 0.339470 0.500000 0.500000
O O15 0.337010 0.732063 0.342850
O O16 0.067242 0.500000 0.000000
O O17 0.066019 0.000000 0.000000
O O18 0.750000 0.750000 0.686022
#
# Coordination Sequence:
#
# PCOD9324620 Si02
#       7
#     8   8   8   8   8   8   8
#     4  11  22  42  68 106 148 186 252 315 384 468
#     4  10  22  42  72 106 140 194 243 305 388 440
#     4  12  22  42  73 103 147 200 242 314 389 447
#     4  11  23  47  71  98 155 190 245 307 378 470
#     4  11  25  43  70 102 141 197 241 301 387 448
#     4  11  24  45  73 106 150 208 269 317 382 464
#     4  11  25  47  72 106 144 190 243 312 374 461
#
# _framework density 22.105533000000001
#
# number of rings (size 3 to 8) (size 9 to 14) (size 15 to 20)
#    0.000    1.000    4.286    3.429    0.000    2.857 
#    5.143    8.571    0.000    0.000    0.000    0.000 
#    0.000    0.000    0.000    0.000    0.000    0.000 
#
# Total GULP energy -156015.479534 kJ/mol
# GULP energy per Si atom -5571.981412 kJ/mol
# Density = 2.205522 g / cm^3
# Si number density = 22.105533 Si / 1000 Ang^3
#
#
#
# Elastic Constant Matrix: (Units=GPa)
#
#
# Indices 1 2 3 4 5 6 
#
# 1 89.1659 28.8640 5.0121 0.0000 0.0000 0.0000
# 2 28.8640 87.9881 36.9726 0.0000 0.0000 0.0000
# 3 5.0121 36.9726 133.4776 0.0000 0.0000 0.0000
# 4 0.0000 0.0000 0.0000 12.7152 0.0000 0.0000
# 5 0.0000 0.0000 0.0000 0.0000 -5.1144 0.0000
# 6 0.0000 0.0000 0.0000 0.0000 0.0000 11.1117
#
#
#
# Elastic Compliance Matrix: (Units=1/GPa)
#
#
# Indices 1 2 3 4 5 6 
#
# 1 0.012615 -0.004458 0.000761 0.000000 0.000000 0.000000
# 2 -0.004458 0.014438 -0.003832 0.000000 0.000000 0.000000
# 3 0.000761 -0.003832 0.008525 0.000000 0.000000 0.000000
# 4 0.000000 0.000000 0.000000 0.078646 0.000000 0.000000
# 5 0.000000 0.000000 0.000000 0.000000 -0.195528 0.000000
# 6 0.000000 0.000000 0.000000 0.000000 0.000000 0.089995
#
#
# Mechanical properties :
#
#
# Convention : Reuss Voigt Hill
#
# Bulk Modulus (GPa) = 48.73239 50.25876 49.49557
# Shear Modulus (GPa) = 163.45687 19.72804 91.59246
#
# Velocity S-wave (km/s) = 8.60839 2.99063 6.44392
# Velocity P-wave (km/s) = 10.99541 5.89155 8.82070
#
# Compressibility (1/GPa) = 0.02052023
#
# Stress axis : x y z
#
# Youngs Moduli (GPa) = 79.26782 69.26259 117.30624
#
# Poissons Ratio (x) = 0.30879 -0.08929
# Poissons Ratio (y) = 0.35340 0.44949
# Poissons Ratio (z) = -0.06034 0.26540
#
# Static dielectric constant tensor:
#      x y z
#    x 1.829510 0.000000 0.000000 
#    y 0.000000 2.096440 0.000000 
#    z 0.000000 0.000000 1.835190 
# 
# From -- ./inp_files/34023.got.cif
#   From: 2010.05.17/outbox.cif.g08.bks.cpg/sg21_18_cif.got.tgz:34023.got - 2010.06.03 23:14:55.
