data_PCOD9324031
_publ_section_title
;
Structure prediction by ZEFSAII (Michael W. Deem and Ramdas Pophale) SiO2 
 PCOD9324031
Probable space group: C 2 2 2
;
_chemical_formula_sum "Si O2"
_cell_formula_units_Z 52
_cell_length_a 25.141734
_cell_length_b 11.253454
_cell_length_c 8.615906
_cell_angle_alpha 90.000000
_cell_angle_beta 90.000000
_cell_angle_gamma 90.000000
_cell_volume 2437.709891
_symmetry_space_group_name_H-M "C 2 2 2"
_symmetry_group_IT_number 21
_symmetry_cell_setting 'orthorhombic'
loop_
_space_group_symop_operation_xyz
x,y,z
-x,-y,z
x,-y,-z
-x,y,-z
1/2+x,1/2+y,z
1/2-x,1/2-y,z
1/2+x,1/2-y,-z
1/2-x,1/2+y,-z
loop_
_atom_site_type_symbol
_atom_site_label
_atom_site_fract_x
_atom_site_fract_y
_atom_site_fract_z
Si Si1 0.053470 0.795740 0.067652
Si Si2 0.885377 0.388618 0.588529
Si Si3 0.351189 0.757683 0.279529
Si Si4 0.308244 0.506440 0.678731
Si Si5 0.801799 0.513562 0.821366
Si Si6 0.500000 0.500000 0.724605
Si Si7 0.589681 0.340684 0.730905
O O1 0.095825 0.727534 0.173899
O O2 0.031266 0.904272 0.170554
O O3 0.082580 0.846828 0.915960
O O4 0.000000 0.733410 0.000000
O O5 0.911417 0.500000 0.500000
O O6 0.861933 0.305568 0.452248
O O7 0.841233 0.444384 0.703775
O O8 0.919397 0.295687 0.685534
O O9 0.334691 0.620449 0.280082
O O10 0.306634 0.846614 0.215989
O O11 0.289434 0.500000 0.500000
O O12 0.257796 0.528733 0.787131
O O13 0.352775 0.607462 0.692427
O O14 0.817012 0.500000 0.000000
O O15 0.545584 0.421608 0.646106
#
# Coordination Sequence:
#
# PCOD9324031 Si02
#       7
#     8   8   8   8   8   4   8
#     4  10  21  38  66 101 136 173 221 290 357 408
#     4  10  23  45  66  92 136 186 223 278 342 432
#     4  11  22  42  66  93 138 177 221 284 351 418
#     4  12  24  40  63 101 136 176 223 287 357 420
#     4  11  26  44  65  95 132 184 236 279 344 427
#     4  10  21  38  65 104 139 166 219 298 359 408
#     4  11  21  39  67  98 132 173 226 287 352 415
#
# _framework density 21.331498
#
# number of rings (size 3 to 8) (size 9 to 14) (size 15 to 20)
#    0.000    1.231    3.077    4.846    2.154    0.615 
#    2.769    7.308    0.000   44.769    0.000    0.000 
#    0.000    0.000    0.000    0.000    0.000    0.000 
#
# Total GULP energy -145163.867254 kJ/mol
# GULP energy per Si atom -5583.225664 kJ/mol
# Density = 2.128295 g / cm^3
# Si number density = 21.331498 Si / 1000 Ang^3
#
#
#
# Elastic Constant Matrix: (Units=GPa)
#
#
# Indices 1 2 3 4 5 6 
#
# 1 74.2617 31.5674 20.4523 0.0000 0.0000 0.0000
# 2 31.5674 93.8055 11.2112 0.0000 0.0000 0.0000
# 3 20.4523 11.2112 75.9238 0.0000 0.0000 0.0000
# 4 0.0000 0.0000 0.0000 29.3383 0.0000 0.0000
# 5 0.0000 0.0000 0.0000 0.0000 9.6979 0.0000
# 6 0.0000 0.0000 0.0000 0.0000 0.0000 19.4095
#
#
#
# Elastic Compliance Matrix: (Units=1/GPa)
#
#
# Indices 1 2 3 4 5 6 
#
# 1 0.016692 -0.005171 -0.003733 0.000000 0.000000 0.000000
# 2 -0.005171 0.012454 -0.000446 0.000000 0.000000 0.000000
# 3 -0.003733 -0.000446 0.014243 0.000000 0.000000 0.000000
# 4 0.000000 0.000000 0.000000 0.034085 0.000000 0.000000
# 5 0.000000 0.000000 0.000000 0.000000 0.103115 0.000000
# 6 0.000000 0.000000 0.000000 0.000000 0.000000 0.051521
#
#
# Mechanical properties :
#
#
# Convention : Reuss Voigt Hill
#
# Bulk Modulus (GPa) = 40.50475 41.16142 40.83309
# Shear Modulus (GPa) = 19.30205 23.73979 21.52092
#
# Velocity S-wave (km/s) = 3.01135 3.33963 3.17973
# Velocity P-wave (km/s) = 5.57857 5.84883 5.71530
#
# Compressibility (1/GPa) = 0.02468846
#
# Stress axis : x y z
#
# Youngs Moduli (GPa) = 59.90852 80.29664 70.21221
#
# Poissons Ratio (x) = 0.41522 0.26210
# Poissons Ratio (y) = 0.30979 0.03131
# Poissons Ratio (z) = 0.22363 0.03581
#
# Static dielectric constant tensor:
#      x y z
#    x 1.795710 0.000000 0.000000 
#    y 0.000000 1.785790 0.000000 
#    z 0.000000 0.000000 1.810610 
# 
# From -- ./inp_files/19139.got.cif
#   From: 2010.05.17/outbox.cif.g08.bks.cpg/sg21_10_cif.got.tgz:19139.got - 2010.06.03 23:14:55.
