data_PCOD9324932
_publ_section_title
;
Structure prediction by ZEFSAII (Michael W. Deem and Ramdas Pophale) SiO2 
 PCOD9324932
Probable space group: C 2 2 2
;
_chemical_formula_sum "Si O2"
_cell_formula_units_Z 28
_cell_length_a 12.461752
_cell_length_b 15.137502
_cell_length_c 6.938882
_cell_angle_alpha 90.000000
_cell_angle_beta 90.000000
_cell_angle_gamma 90.000000
_cell_volume 1308.949284
_symmetry_space_group_name_H-M "C 2 2 2"
_symmetry_group_IT_number 21
_symmetry_cell_setting 'orthorhombic'
loop_
_space_group_symop_operation_xyz
x,y,z
-x,-y,z
x,-y,-z
-x,y,-z
1/2+x,1/2+y,z
1/2-x,1/2-y,z
1/2+x,1/2-y,-z
1/2-x,1/2+y,-z
loop_
_atom_site_type_symbol
_atom_site_label
_atom_site_fract_x
_atom_site_fract_y
_atom_site_fract_z
Si Si1 0.710195 0.380480 0.566142
Si Si2 0.586148 0.213580 0.647574
Si Si3 0.500000 0.329960 0.000000
Si Si4 0.822732 0.961187 0.812244
O O1 0.638446 0.295289 0.531125
O O2 0.815590 0.352810 0.683427
O O3 0.642366 0.452007 0.688496
O O4 0.743616 0.413693 0.354967
O O5 0.500000 0.174220 0.500000
O O6 0.546651 0.263126 0.838967
O O7 0.586501 0.395496 0.103669
O O8 0.765645 0.000000 0.000000
#
# Coordination Sequence:
#
# PCOD9324932 Si02
#       4
#     8   8   4   8
#     4  10  24  41  63  95 140 173 216 277 346 387
#     4  11  23  42  63  97 135 178 214 278 336 404
#     4  12  23  38  72 102 131 168 230 277 336 394
#     4  11  22  40  65  97 129 172 222 278 325 395
#
# _framework density 21.391200999999999
#
# number of rings (size 3 to 8) (size 9 to 14) (size 15 to 20)
#    0.000    1.143    5.714    0.429    0.000    2.286 
#    0.000    2.857    0.000    1.714    0.000    0.000 
#    0.000    0.000    0.000    0.000    0.000    0.000 
#
# Total GULP energy -77937.577262 kJ/mol
# GULP energy per Si atom -5566.969804 kJ/mol
# Density = 2.134251 g / cm^3
# Si number density = 21.391201 Si / 1000 Ang^3
#
#
#
# Elastic Constant Matrix: (Units=GPa)
#
#
# Indices 1 2 3 4 5 6 
#
# 1 63.4282 21.5793 34.4787 0.0000 0.0000 0.0000
# 2 21.5793 51.9904 50.9298 0.0000 0.0000 0.0000
# 3 34.4787 50.9298 149.2036 0.0000 0.0000 0.0000
# 4 0.0000 0.0000 0.0000 31.4460 0.0000 0.0000
# 5 0.0000 0.0000 0.0000 0.0000 26.8537 0.0000
# 6 0.0000 0.0000 0.0000 0.0000 0.0000 15.6330
#
#
#
# Elastic Compliance Matrix: (Units=1/GPa)
#
#
# Indices 1 2 3 4 5 6 
#
# 1 0.018983 -0.005381 -0.002550 0.000000 0.000000 0.000000
# 2 -0.005381 0.030422 -0.009141 0.000000 0.000000 0.000000
# 3 -0.002550 -0.009141 0.010412 0.000000 0.000000 0.000000
# 4 0.000000 0.000000 0.000000 0.031801 0.000000 0.000000
# 5 0.000000 0.000000 0.000000 0.000000 0.037239 0.000000
# 6 0.000000 0.000000 0.000000 0.000000 0.000000 0.063967
#
#
# Mechanical properties :
#
#
# Convention : Reuss Voigt Hill
#
# Bulk Modulus (GPa) = 38.95183 53.17755 46.06469
# Shear Modulus (GPa) = 21.22919 25.29550 23.26234
#
# Velocity S-wave (km/s) = 3.15370 3.44251 3.30126
# Velocity P-wave (km/s) = 5.61337 6.38080 6.00935
#
# Compressibility (1/GPa) = 0.02567273
#
# Stress axis : x y z
#
# Youngs Moduli (GPa) = 52.67961 32.87051 96.04598
#
# Poissons Ratio (x) = 0.17689 0.24489
# Poissons Ratio (y) = 0.28348 0.87795
# Poissons Ratio (z) = 0.13432 0.30047
#
# Static dielectric constant tensor:
#      x y z
#    x 1.797250 0.000000 0.000000 
#    y 0.000000 1.837960 0.000000 
#    z 0.000000 0.000000 1.808750 
# 
# From -- ./inp_files/3594.got.cif
#   From: 2010.05.17/outbox.cif.g08.bks.cpg/sg21_2_cif.got.tgz:3594.got - 2010.06.03 23:14:55.
