data_PCOD9324290
_publ_section_title
;
Structure prediction by ZEFSAII (Michael W. Deem and Ramdas Pophale) SiO2 
 PCOD9324290
Probable space group: C 2 2 2
;
_chemical_formula_sum "Si O2"
_cell_formula_units_Z 40
_cell_length_a 10.974340
_cell_length_b 15.495018
_cell_length_c 9.645315
_cell_angle_alpha 90.000000
_cell_angle_beta 90.000000
_cell_angle_gamma 90.000000
_cell_volume 1640.162627
_symmetry_space_group_name_H-M "C 2 2 2"
_symmetry_group_IT_number 21
_symmetry_cell_setting 'orthorhombic'
loop_
_space_group_symop_operation_xyz
x,y,z
-x,-y,z
x,-y,-z
-x,y,-z
1/2+x,1/2+y,z
1/2-x,1/2-y,z
1/2+x,1/2-y,-z
1/2-x,1/2+y,-z
loop_
_atom_site_type_symbol
_atom_site_label
_atom_site_fract_x
_atom_site_fract_y
_atom_site_fract_z
Si Si1 0.712773 0.948687 0.640389
Si Si2 0.115534 0.937803 0.798224
Si Si3 0.134974 0.183152 0.472653
Si Si4 0.623760 0.734241 0.114445
Si Si5 0.125807 0.300716 0.813726
O O1 0.824539 0.888852 0.586255
O O2 0.621078 0.884802 0.718440
O O3 0.672756 0.000000 0.500000
O O4 0.764659 0.007358 0.764733
O O5 0.115421 0.876744 0.662331
O O6 0.120367 0.867563 0.921414
O O7 0.000000 0.000000 0.809099
O O8 0.250000 0.250000 0.471154
O O9 0.000000 0.222012 0.500000
O O10 0.750000 0.750000 0.190197
O O11 0.503650 0.754810 0.199154
O O12 0.631922 0.798089 0.982238
O O13 0.250000 0.250000 0.776272
#
# Coordination Sequence:
#
# PCOD9324290 Si02
#       5
#     8   8   8   8   8
#     4  10  22  39  69 103 146 193 244 308 378 437
#     4  11  21  40  68 104 147 186 253 312 370 434
#     4  11  23  39  68 108 149 202 245 305 375 451
#     4  10  23  43  72 105 145 194 248 313 362 446
#     4  10  21  43  71 107 141 194 254 296 369 452
#
# _framework density 24.387827000000001
#
# number of rings (size 3 to 8) (size 9 to 14) (size 15 to 20)
#    0.000    1.600    2.000    2.400    2.800    0.000 
#    0.000   15.000    4.400    4.800    0.000    0.000 
#    0.000    0.000    0.000    0.000    0.000    0.000 
#
# Total GULP energy -111418.280207 kJ/mol
# GULP energy per Si atom -5570.914010 kJ/mol
# Density = 2.433232 g / cm^3
# Si number density = 24.387827 Si / 1000 Ang^3
#
#
#
# Elastic Constant Matrix: (Units=GPa)
#
#
# Indices 1 2 3 4 5 6 
#
# 1 168.5648 63.7930 9.7533 0.0000 0.0000 0.0000
# 2 63.7930 122.2248 34.9565 0.0000 0.0000 0.0000
# 3 9.7533 34.9565 100.2275 0.0000 0.0000 0.0000
# 4 0.0000 0.0000 0.0000 23.7494 0.0000 0.0000
# 5 0.0000 0.0000 0.0000 0.0000 -2.4312 0.0000
# 6 0.0000 0.0000 0.0000 0.0000 0.0000 25.9305
#
#
#
# Elastic Compliance Matrix: (Units=1/GPa)
#
#
# Indices 1 2 3 4 5 6 
#
# 1 0.007437 -0.004082 0.000700 0.000000 0.000000 0.000000
# 2 -0.004082 0.011328 -0.003554 0.000000 0.000000 0.000000
# 3 0.000700 -0.003554 0.011149 0.000000 0.000000 0.000000
# 4 0.000000 0.000000 0.000000 0.042106 0.000000 0.000000
# 5 0.000000 0.000000 0.000000 0.000000 -0.411325 0.000000
# 6 0.000000 0.000000 0.000000 0.000000 0.000000 0.038565
#
#
# Mechanical properties :
#
#
# Convention : Reuss Voigt Hill
#
# Bulk Modulus (GPa) = 62.33413 67.55808 64.94610
# Shear Modulus (GPa) = -17.76061 28.28403 5.26171
#
# Velocity S-wave (km/s) = -2.70155 3.40922 1.47044
# Velocity P-wave (km/s) = 3.98545 6.57714 5.43795
#
# Compressibility (1/GPa) = 0.01604258
#
# Stress axis : x y z
#
# Youngs Moduli (GPa) = 134.47013 88.27420 89.69683
#
# Poissons Ratio (x) = 0.36030 -0.06278
# Poissons Ratio (y) = 0.54885 0.31877
# Poissons Ratio (z) = -0.09411 0.31371
#
# Static dielectric constant tensor:
#      x y z
#    x 1.934520 0.000000 0.000000 
#    y 0.000000 2.011770 0.000000 
#    z 0.000000 0.000000 2.298880 
# 
# From -- ./inp_files/23765.got.cif
#   From: 2010.05.17/outbox.cif.g08.bks.cpg/sg21_12_cif.got.tgz:23765.got - 2010.06.03 23:14:55.
