data_PCOD9324226
_publ_section_title
;
Structure prediction by ZEFSAII (Michael W. Deem and Ramdas Pophale) SiO2 
 PCOD9324226
Probable space group: C 2 2 2
;
_chemical_formula_sum "Si O2"
_cell_formula_units_Z 38
_cell_length_a 11.417597
_cell_length_b 19.683634
_cell_length_c 7.700312
_cell_angle_alpha 90.000000
_cell_angle_beta 90.000000
_cell_angle_gamma 90.000000
_cell_volume 1730.566583
_symmetry_space_group_name_H-M "C 2 2 2"
_symmetry_group_IT_number 21
_symmetry_cell_setting 'orthorhombic'
loop_
_space_group_symop_operation_xyz
x,y,z
-x,-y,z
x,-y,-z
-x,y,-z
1/2+x,1/2+y,z
1/2-x,1/2-y,z
1/2+x,1/2-y,-z
1/2-x,1/2+y,-z
loop_
_atom_site_type_symbol
_atom_site_label
_atom_site_fract_x
_atom_site_fract_y
_atom_site_fract_z
Si Si1 0.000000 0.500000 0.000000
Si Si2 0.750000 0.250000 0.625880
Si Si3 0.003222 0.788821 0.799432
Si Si4 0.388415 0.165683 0.617081
Si Si5 0.936022 0.061210 0.310602
Si Si6 0.163712 0.522676 0.302286
O O1 0.900738 0.520758 0.151100
O O2 0.866648 0.228285 0.728544
O O3 0.718198 0.183824 0.510046
O O4 0.916328 0.736023 0.709267
O O5 0.958272 0.864917 0.767761
O O6 0.000000 0.774211 0.000000
O O7 0.500000 0.150018 0.500000
O O8 0.374408 0.100581 0.735757
O O9 0.803339 0.033966 0.311090
O O10 0.000000 0.066784 0.500000
O O11 0.000000 0.000000 0.213036
O O12 0.131474 0.500000 0.500000
#
# Coordination Sequence:
#
# PCOD9324226 Si02
#       6
#     2   4   8   8   8   8
#     4  12  30  44  70 114 148 196 256 306 404 446
#     4  10  22  42  72  94 140 194 236 304 360 464
#     4  11  25  42  67 112 144 184 248 309 386 445
#     4  10  21  41  68  94 135 189 241 285 362 441
#     4  11  23  46  76 104 142 197 254 302 390 463
#     4  12  25  48  74 106 153 198 251 317 376 474
#
# _framework density 21.958124999999999
#
# number of rings (size 3 to 8) (size 9 to 14) (size 15 to 20)
#    0.000    1.053    2.105    6.000    1.474    4.632 
#    3.789    0.000    0.000    0.000    0.000    0.000 
#    0.000    0.000    0.000    0.000    0.000    0.000 
#
# Total GULP energy -105807.539766 kJ/mol
# GULP energy per Si atom -5568.817882 kJ/mol
# Density = 2.190815 g / cm^3
# Si number density = 21.958125 Si / 1000 Ang^3
#
#
#
# Elastic Constant Matrix: (Units=GPa)
#
#
# Indices 1 2 3 4 5 6 
#
# 1 140.3979 29.1043 50.6598 0.0000 0.0000 0.0000
# 2 29.1043 105.0034 -2.2376 0.0000 0.0000 0.0000
# 3 50.6598 -2.2376 103.6231 0.0000 0.0000 0.0000
# 4 0.0000 0.0000 0.0000 6.1509 0.0000 0.0000
# 5 0.0000 0.0000 0.0000 0.0000 14.1601 0.0000
# 6 0.0000 0.0000 0.0000 0.0000 0.0000 -12.2332
#
#
#
# Elastic Compliance Matrix: (Units=1/GPa)
#
#
# Indices 1 2 3 4 5 6 
#
# 1 0.009351 -0.002690 -0.004630 0.000000 0.000000 0.000000
# 2 -0.002690 0.010302 0.001538 0.000000 0.000000 0.000000
# 3 -0.004630 0.001538 0.011947 0.000000 0.000000 0.000000
# 4 0.000000 0.000000 0.000000 0.162577 0.000000 0.000000
# 5 0.000000 0.000000 0.000000 0.000000 0.070621 0.000000
# 6 0.000000 0.000000 0.000000 0.000000 0.000000 -0.081745
#
#
# Mechanical properties :
#
#
# Convention : Reuss Voigt Hill
#
# Bulk Modulus (GPa) = 49.91214 56.00860 52.96037
# Shear Modulus (GPa) = 24.83904 19.71542 22.27723
#
# Velocity S-wave (km/s) = 3.36698 2.99969 3.18863
# Velocity P-wave (km/s) = 6.15592 6.12861 6.14228
#
# Compressibility (1/GPa) = 0.02003520
#
# Stress axis : x y z
#
# Youngs Moduli (GPa) = 106.94226 97.06855 83.70370
#
# Poissons Ratio (x) = 0.26116 0.38751
# Poissons Ratio (y) = 0.28772 -0.12872
# Poissons Ratio (z) = 0.49510 -0.14927
#
# Static dielectric constant tensor:
#      x y z
#    x 1.805660 0.000000 0.000000 
#    y 0.000000 1.872620 0.000000 
#    z 0.000000 0.000000 1.829230 
# 
# From -- ./inp_files/12771.got.cif
#   From: 2010.05.17/outbox.cif.g08.bks.cpg/sg21_7_cif.got.tgz:12771.got - 2010.06.03 23:14:55.
