data_PCOD9324246
_publ_section_title
;
Structure prediction by ZEFSAII (Michael W. Deem and Ramdas Pophale) SiO2 
 PCOD9324246
Probable space group: C 2 2 2
;
_chemical_formula_sum "Si O2"
_cell_formula_units_Z 52
_cell_length_a 7.311230
_cell_length_b 20.129599
_cell_length_c 15.895516
_cell_angle_alpha 90.000000
_cell_angle_beta 90.000000
_cell_angle_gamma 90.000000
_cell_volume 2339.376917
_symmetry_space_group_name_H-M "C 2 2 2"
_symmetry_group_IT_number 21
_symmetry_cell_setting 'orthorhombic'
loop_
_space_group_symop_operation_xyz
x,y,z
-x,-y,z
x,-y,-z
-x,y,-z
1/2+x,1/2+y,z
1/2-x,1/2-y,z
1/2+x,1/2-y,-z
1/2-x,1/2+y,-z
loop_
_atom_site_type_symbol
_atom_site_label
_atom_site_fract_x
_atom_site_fract_y
_atom_site_fract_z
Si Si1 0.817662 0.611355 0.711819
Si Si2 0.177773 0.344123 0.247674
Si Si3 0.500000 0.685822 0.500000
Si Si4 0.521456 0.283890 0.315256
Si Si5 0.274905 0.584753 0.918657
Si Si6 0.711715 0.072170 0.470419
Si Si7 0.786369 0.069227 0.101628
O O1 0.718381 0.683125 0.700044
O O2 0.756533 0.571674 0.630415
O O3 0.770566 0.592669 0.806854
O O4 0.036815 0.607683 0.706734
O O5 0.373960 0.341412 0.291222
O O6 0.066500 0.275057 0.259957
O O7 0.198096 0.366536 0.151661
O O8 0.495719 0.728859 0.414889
O O9 0.327046 0.635817 0.501503
O O10 0.226130 0.507658 0.903878
O O11 0.494947 0.580246 0.906394
O O12 0.220597 0.602269 0.014277
O O13 0.500000 0.079859 0.500000
O O14 0.774426 0.000000 0.500000
#
# Coordination Sequence:
#
# PCOD9324246 Si02
#       7
#     8   8   4   8   8   8   8
#     4  11  22  39  65  90 127 166 215 264 318 389
#     4  11  22  40  65  90 123 164 214 271 316 382
#     4  10  21  42  62  86 118 175 220 266 316 390
#     4  10  23  42  61  88 122 168 221 262 319 374
#     4   9  19  38  66  94 131 161 208 262 327 388
#     4  10  22  39  59  94 133 166 210 272 329 385
#     4   9  19  38  65  98 125 167 204 263 326 395
#
# _framework density 22.228141000000001
#
# number of rings (size 3 to 8) (size 9 to 14) (size 15 to 20)
#    0.000    2.000    1.538    2.538    0.000    4.923 
#   15.231    1.538   13.538    0.000    0.000    0.000 
#    0.000    0.000    0.000    0.000    0.000    0.000 
#
# Total GULP energy -144998.026208 kJ/mol
# GULP energy per Si atom -5576.847162 kJ/mol
# Density = 2.217755 g / cm^3
# Si number density = 22.228141 Si / 1000 Ang^3
#
#
#
# Elastic Constant Matrix: (Units=GPa)
#
#
# Indices 1 2 3 4 5 6 
#
# 1 87.6869 2.0750 8.5365 0.0000 0.0000 0.0000
# 2 2.0750 62.8529 63.2601 0.0000 0.0000 0.0000
# 3 8.5365 63.2601 192.7818 0.0000 0.0000 0.0000
# 4 0.0000 0.0000 0.0000 38.4147 0.0000 0.0000
# 5 0.0000 0.0000 0.0000 0.0000 24.5267 0.0000
# 6 0.0000 0.0000 0.0000 0.0000 0.0000 16.6032
#
#
#
# Elastic Compliance Matrix: (Units=1/GPa)
#
#
# Indices 1 2 3 4 5 6 
#
# 1 0.011455 0.000198 -0.000572 0.000000 0.000000 0.000000
# 2 0.000198 0.023759 -0.007805 0.000000 0.000000 0.000000
# 3 -0.000572 -0.007805 0.007774 0.000000 0.000000 0.000000
# 4 0.000000 0.000000 0.000000 0.026032 0.000000 0.000000
# 5 0.000000 0.000000 0.000000 0.000000 0.040772 0.000000
# 6 0.000000 0.000000 0.000000 0.000000 0.000000 0.060229
#
#
# Mechanical properties :
#
#
# Convention : Reuss Voigt Hill
#
# Bulk Modulus (GPa) = 37.55301 54.56274 46.05788
# Shear Modulus (GPa) = 25.60727 33.87228 29.73978
#
# Velocity S-wave (km/s) = 3.39782 3.90788 3.66175
# Velocity P-wave (km/s) = 5.68548 6.70537 6.21638
#
# Compressibility (1/GPa) = 0.02662902
#
# Stress axis : x y z
#
# Youngs Moduli (GPa) = 87.29637 42.08851 128.63745
#
# Poissons Ratio (x) = -0.00832 0.07359
# Poissons Ratio (y) = -0.01725 1.00405
# Poissons Ratio (z) = 0.04994 0.32851
#
# Static dielectric constant tensor:
#      x y z
#    x 1.887860 0.000000 0.000000 
#    y 0.000000 1.903690 0.000000 
#    z 0.000000 0.000000 1.791460 
# 
# From -- ./inp_files/30686.got.cif
#   From: 2010.05.17/outbox.cif.g08.bks.cpg/sg21_16_cif.got.tgz:30686.got - 2010.06.03 23:14:55.
