data_PCOD9324590
_publ_section_title
;
Structure prediction by ZEFSAII (Michael W. Deem and Ramdas Pophale) SiO2 
 PCOD9324590
Probable space group: C 2 2 2
;
_chemical_formula_sum "Si O2"
_cell_formula_units_Z 54
_cell_length_a 5.565095
_cell_length_b 14.683410
_cell_length_c 30.752301
_cell_angle_alpha 90.000000
_cell_angle_beta 90.000000
_cell_angle_gamma 90.000000
_cell_volume 2512.911101
_symmetry_space_group_name_H-M "C 2 2 2"
_symmetry_group_IT_number 21
_symmetry_cell_setting 'orthorhombic'
loop_
_space_group_symop_operation_xyz
x,y,z
-x,-y,z
x,-y,-z
-x,y,-z
1/2+x,1/2+y,z
1/2-x,1/2-y,z
1/2+x,1/2-y,-z
1/2-x,1/2+y,-z
loop_
_atom_site_type_symbol
_atom_site_label
_atom_site_fract_x
_atom_site_fract_y
_atom_site_fract_z
Si Si1 0.249010 0.943456 0.619772
Si Si2 0.335032 0.644063 0.041917
Si Si3 0.000000 0.500000 0.000000
Si Si4 0.605479 0.600405 0.785423
Si Si5 0.181345 0.853463 0.709278
Si Si6 0.004223 0.803339 0.871015
Si Si7 0.000000 0.500000 0.239552
Si Si8 0.749106 0.860054 0.476137
O O1 0.208095 0.870516 0.658238
O O2 0.259920 0.898976 0.572312
O O3 0.500000 0.000000 0.626428
O O4 0.000000 0.000000 0.621609
O O5 0.250000 0.750000 0.041391
O O6 0.466682 0.629700 0.087968
O O7 0.500000 0.634200 0.000000
O O8 0.135734 0.569112 0.032448
O O9 0.500000 0.500000 0.789497
O O10 0.566965 0.633917 0.736024
O O11 0.483617 0.658040 0.822416
O O12 0.883864 0.578057 0.790633
O O13 0.250000 0.750000 0.719261
O O14 0.334721 0.937039 0.729754
O O15 0.750000 0.750000 0.869987
O O16 0.250000 0.750000 0.880097
O O17 0.500000 0.887485 0.500000
O O18 0.750000 0.750000 0.474590
O O19 0.000000 0.887411 0.500000
#
# Coordination Sequence:
#
# PCOD9324590 Si02
#       8
#     8   8   2   8   8   8   4   8
#     4  12  25  43  67  99 140 177 235 296 353 428
#     4  11  24  47  74 105 154 187 250 305 365 435
#     4  12  26  42  80 112 140 212 238 306 378 442
#     4  10  24  42  68  98 143 181 239 297 357 427
#     4  11  24  43  68  96 136 186 236 294 362 427
#     4  11  27  46  74 106 144 193 241 296 364 435
#     4  10  22  43  64 100 137 179 230 303 346 422
#     4  10  22  42  66  96 136 179 232 286 348 428
#
# _framework density 21.48902
#
# number of rings (size 3 to 8) (size 9 to 14) (size 15 to 20)
#    0.000    1.185    1.481    3.778    8.296    3.556 
#    0.000    1.481    0.000    0.000    0.000    0.000 
#    0.000    0.000    0.000    0.000    0.000    0.000 
#
# Total GULP energy -150445.780862 kJ/mol
# GULP energy per Si atom -5572.065958 kJ/mol
# Density = 2.144011 g / cm^3
# Si number density = 21.489020 Si / 1000 Ang^3
#
#
#
# Elastic Constant Matrix: (Units=GPa)
#
#
# Indices 1 2 3 4 5 6 
#
# 1 118.6206 45.5382 41.9166 0.0000 0.0000 0.0000
# 2 45.5382 100.7065 26.1544 0.0000 0.0000 0.0000
# 3 41.9166 26.1544 119.5597 0.0000 0.0000 0.0000
# 4 0.0000 0.0000 0.0000 24.3280 0.0000 0.0000
# 5 0.0000 0.0000 0.0000 0.0000 18.4560 0.0000
# 6 0.0000 0.0000 0.0000 0.0000 0.0000 16.8693
#
#
#
# Elastic Compliance Matrix: (Units=1/GPa)
#
#
# Indices 1 2 3 4 5 6 
#
# 1 0.011111 -0.004254 -0.002965 0.000000 0.000000 0.000000
# 2 -0.004254 0.012157 -0.001168 0.000000 0.000000 0.000000
# 3 -0.002965 -0.001168 0.009659 0.000000 0.000000 0.000000
# 4 0.000000 0.000000 0.000000 0.041105 0.000000 0.000000
# 5 0.000000 0.000000 0.000000 0.000000 0.054183 0.000000
# 6 0.000000 0.000000 0.000000 0.000000 0.000000 0.059279
#
#
# Mechanical properties :
#
#
# Convention : Reuss Voigt Hill
#
# Bulk Modulus (GPa) = 61.90811 62.90058 62.40434
# Shear Modulus (GPa) = 23.84899 26.94916 25.39908
#
# Velocity S-wave (km/s) = 3.33501 3.54515 3.44169
# Velocity P-wave (km/s) = 6.61071 6.78911 6.70051
#
# Compressibility (1/GPa) = 0.01615297
#
# Stress axis : x y z
#
# Youngs Moduli (GPa) = 89.99983 82.25777 103.53110
#
# Poissons Ratio (x) = 0.34995 0.30695
# Poissons Ratio (y) = 0.38289 0.12091
# Poissons Ratio (z) = 0.26683 0.09607
#
# Static dielectric constant tensor:
#      x y z
#    x 2.092660 0.000000 0.000000 
#    y 0.000000 1.695670 0.000000 
#    z 0.000000 0.000000 1.780410 
# 
# From -- ./inp_files/39506.got.cif
#   From: 2010.05.17/outbox.cif.g08.bks.cpg/sg21_20_cif.got.tgz:39506.got - 2010.06.03 23:14:55.
