data_PCOD9324635
_publ_section_title
;
Structure prediction by ZEFSAII (Michael W. Deem and Ramdas Pophale) SiO2 
 PCOD9324635
Probable space group: C 2 2 2
;
_chemical_formula_sum "Si O2"
_cell_formula_units_Z 34
_cell_length_a 6.951078
_cell_length_b 13.977251
_cell_length_c 16.635463
_cell_angle_alpha 90.000000
_cell_angle_beta 90.000000
_cell_angle_gamma 90.000000
_cell_volume 1616.251045
_symmetry_space_group_name_H-M "C 2 2 2"
_symmetry_group_IT_number 21
_symmetry_cell_setting 'orthorhombic'
loop_
_space_group_symop_operation_xyz
x,y,z
-x,-y,z
x,-y,-z
-x,y,-z
1/2+x,1/2+y,z
1/2-x,1/2-y,z
1/2+x,1/2-y,-z
1/2-x,1/2+y,-z
loop_
_atom_site_type_symbol
_atom_site_label
_atom_site_fract_x
_atom_site_fract_y
_atom_site_fract_z
Si Si1 0.250000 0.250000 0.807173
Si Si2 0.820756 0.140360 0.561107
Si Si3 0.110763 0.157575 0.253754
Si Si4 0.500000 0.500000 0.871348
Si Si5 0.500000 0.000000 0.500000
Si Si6 0.886505 0.589197 0.916695
O O1 0.390611 0.310187 0.753350
O O2 0.119966 0.316971 0.863317
O O3 0.750000 0.250000 0.550192
O O4 0.866336 0.125271 0.654907
O O5 0.000000 0.123393 0.500000
O O6 0.643846 0.070012 0.545959
O O7 0.250000 0.250000 0.239897
O O8 0.115751 0.074675 0.186105
O O9 0.662559 0.556941 0.921355
O O10 0.000000 0.500000 0.878758
O O11 0.000000 0.606199 0.000000
#
# Coordination Sequence:
#
# PCOD9324635 Si02
#       6
#     4   8   8   4   2   8
#     4  10  22  44  68  94 132 174 218 272 340 402
#     4  11  25  45  69 104 140 183 233 287 346 405
#     4  10  23  42  67  97 134 174 221 277 333 404
#     4  10  22  43  67  94 132 174 220 272 337 402
#     4  12  26  44  68  96 144 180 232 284 336 412
#     4  10  22  43  65  97 128 170 217 273 329 403
#
# _framework density 21.036334
#
# number of rings (size 3 to 8) (size 9 to 14) (size 15 to 20)
#    0.000    1.647    1.176    1.765    4.941    1.882 
#   29.647    0.000    0.000    0.000    0.000    0.000 
#    0.000    0.000    0.000    0.000    0.000    0.000 
#
# Total GULP energy -94862.007566 kJ/mol
# GULP energy per Si atom -5580.118092 kJ/mol
# Density = 2.098845 g / cm^3
# Si number density = 21.036334 Si / 1000 Ang^3
#
#
#
# Elastic Constant Matrix: (Units=GPa)
#
#
# Indices 1 2 3 4 5 6 
#
# 1 128.1004 36.9318 86.9147 0.0000 0.0000 0.0000
# 2 36.9318 94.2721 50.6206 0.0000 0.0000 0.0000
# 3 86.9147 50.6206 128.3425 0.0000 0.0000 0.0000
# 4 0.0000 0.0000 0.0000 12.8296 0.0000 0.0000
# 5 0.0000 0.0000 0.0000 0.0000 26.7347 0.0000
# 6 0.0000 0.0000 0.0000 0.0000 0.0000 56.6904
#
#
#
# Elastic Compliance Matrix: (Units=1/GPa)
#
#
# Indices 1 2 3 4 5 6 
#
# 1 0.014462 -0.000516 -0.009590 0.000000 0.000000 0.000000
# 2 -0.000516 0.013476 -0.004966 0.000000 0.000000 0.000000
# 3 -0.009590 -0.004966 0.016245 0.000000 0.000000 0.000000
# 4 0.000000 0.000000 0.000000 0.077945 0.000000 0.000000
# 5 0.000000 0.000000 0.000000 0.000000 0.037405 0.000000
# 6 0.000000 0.000000 0.000000 0.000000 0.000000 0.017640
#
#
# Mechanical properties :
#
#
# Convention : Reuss Voigt Hill
#
# Bulk Modulus (GPa) = 71.23059 77.73880 74.48470
# Shear Modulus (GPa) = 23.58531 31.00079 27.29305
#
# Velocity S-wave (km/s) = 3.35202 3.84302 3.60589
# Velocity P-wave (km/s) = 6.99397 7.53170 7.26781
#
# Compressibility (1/GPa) = 0.01403891
#
# Stress axis : x y z
#
# Youngs Moduli (GPa) = 69.14636 74.20489 61.55760
#
# Poissons Ratio (x) = 0.03829 0.59036
# Poissons Ratio (y) = 0.03568 0.30569
# Poissons Ratio (z) = 0.66314 0.36849
#
# Static dielectric constant tensor:
#      x y z
#    x 1.764200 0.000000 0.000000 
#    y 0.000000 1.783630 0.000000 
#    z 0.000000 0.000000 1.548340 
# 
# From -- ./inp_files/34554.got.cif
#   From: 2010.05.17/outbox.cif.g08.bks.cpg/sg21_18_cif.got.tgz:34554.got - 2010.06.03 23:14:55.
