data_PCOD9324665
_publ_section_title
;
Structure prediction by ZEFSAII (Michael W. Deem and Ramdas Pophale) SiO2 
 PCOD9324665
Probable space group: C 2 2 2
;
_chemical_formula_sum "Si O2"
_cell_formula_units_Z 26
_cell_length_a 5.027836
_cell_length_b 13.765014
_cell_length_c 16.364649
_cell_angle_alpha 90.000000
_cell_angle_beta 90.000000
_cell_angle_gamma 90.000000
_cell_volume 1132.568440
_symmetry_space_group_name_H-M "C 2 2 2"
_symmetry_group_IT_number 21
_symmetry_cell_setting 'orthorhombic'
loop_
_space_group_symop_operation_xyz
x,y,z
-x,-y,z
x,-y,-z
-x,y,-z
1/2+x,1/2+y,z
1/2-x,1/2-y,z
1/2+x,1/2-y,-z
1/2-x,1/2+y,-z
loop_
_atom_site_type_symbol
_atom_site_label
_atom_site_fract_x
_atom_site_fract_y
_atom_site_fract_z
Si Si1 0.500000 0.500000 0.698575
Si Si2 0.000000 0.500000 0.194656
Si Si3 0.623869 0.345425 0.414277
Si Si4 0.746569 0.136569 0.941204
Si Si5 0.000000 0.500000 0.500000
O O1 0.757711 0.536411 0.748776
O O2 0.427234 0.594656 0.644082
O O3 0.168868 0.427209 0.136760
O O4 0.500000 0.311047 0.500000
O O5 0.750000 0.250000 0.374924
O O6 0.826275 0.428857 0.443828
O O7 0.750000 0.250000 0.917349
O O8 0.500000 0.122113 0.000000
O O9 0.000000 0.115237 0.000000
#
# Coordination Sequence:
#
# PCOD9324665 Si02
#       5
#     4   4   8   8   2
#     4  12  27  44  63 102 152 182 230 292 357 432
#     4  12  26  42  69 103 146 190 218 286 362 420
#     4  12  25  42  72  97 131 190 243 303 351 412
#     4  10  22  43  72 102 135 179 238 288 331 411
#     4  12  20  44  68  98 128 162 250 302 346 408
#
# _framework density 22.956671
#
# number of rings (size 3 to 8) (size 9 to 14) (size 15 to 20)
#    0.000    0.615    4.615    3.231    0.000    3.692 
#    0.000    0.000    0.000    0.000    0.000    0.000 
#    0.000    0.000    0.000    0.000    0.000    0.000 
#
# Total GULP energy -72588.087821 kJ/mol
# GULP energy per Si atom -5583.699063 kJ/mol
# Density = 2.290442 g / cm^3
# Si number density = 22.956671 Si / 1000 Ang^3
#
#
#
# Elastic Constant Matrix: (Units=GPa)
#
#
# Indices 1 2 3 4 5 6 
#
# 1 142.0229 29.9697 26.1445 0.0000 0.0000 0.0000
# 2 29.9697 139.9913 35.2083 0.0000 0.0000 0.0000
# 3 26.1445 35.2083 82.8107 0.0000 0.0000 0.0000
# 4 0.0000 0.0000 0.0000 -1.0881 0.0000 0.0000
# 5 0.0000 0.0000 0.0000 0.0000 31.7335 0.0000
# 6 0.0000 0.0000 0.0000 0.0000 0.0000 52.0426
#
#
#
# Elastic Compliance Matrix: (Units=1/GPa)
#
#
# Indices 1 2 3 4 5 6 
#
# 1 0.007638 -0.001152 -0.001922 0.000000 0.000000 0.000000
# 2 -0.001152 0.008172 -0.003111 0.000000 0.000000 0.000000
# 3 -0.001922 -0.003111 0.014005 0.000000 0.000000 0.000000
# 4 0.000000 0.000000 0.000000 -0.919075 0.000000 0.000000
# 5 0.000000 0.000000 0.000000 0.000000 0.031512 0.000000
# 6 0.000000 0.000000 0.000000 0.000000 0.000000 0.019215
#
#
# Mechanical properties :
#
#
# Convention : Reuss Voigt Hill
#
# Bulk Modulus (GPa) = 57.31832 60.82999 59.07416
# Shear Modulus (GPa) = -6.09498 34.77112 14.33807
#
# Velocity S-wave (km/s) = -1.63118 3.89606 2.50185
# Velocity P-wave (km/s) = 4.63407 6.84064 5.84247
#
# Compressibility (1/GPa) = 0.01744643
#
# Stress axis : x y z
#
# Youngs Moduli (GPa) = 130.92541 122.36461 71.40256
#
# Poissons Ratio (x) = 0.14094 0.13721
# Poissons Ratio (y) = 0.15081 0.22213
# Poissons Ratio (z) = 0.25160 0.38067
#
# Static dielectric constant tensor:
#      x y z
#    x 1.886570 0.000000 0.000000 
#    y 0.000000 1.803060 0.000000 
#    z 0.000000 0.000000 1.891700 
# 
# From -- ./inp_files/28483.got.cif
#   From: 2010.05.17/outbox.cif.g08.bks.cpg/sg21_15_cif.got.tgz:28483.got - 2010.06.03 23:14:55.
