data_PCOD9324115
_publ_section_title
;
Structure prediction by ZEFSAII (Michael W. Deem and Ramdas Pophale) SiO2 
 PCOD9324115
Probable space group: C 2 2 2
;
_chemical_formula_sum "Si O2"
_cell_formula_units_Z 64
_cell_length_a 24.705914
_cell_length_b 8.849128
_cell_length_c 14.274021
_cell_angle_alpha 90.000000
_cell_angle_beta 90.000000
_cell_angle_gamma 90.000000
_cell_volume 3120.669194
_symmetry_space_group_name_H-M "C 2 2 2"
_symmetry_group_IT_number 21
_symmetry_cell_setting 'orthorhombic'
loop_
_space_group_symop_operation_xyz
x,y,z
-x,-y,z
x,-y,-z
-x,y,-z
1/2+x,1/2+y,z
1/2-x,1/2-y,z
1/2+x,1/2-y,-z
1/2-x,1/2+y,-z
loop_
_atom_site_type_symbol
_atom_site_label
_atom_site_fract_x
_atom_site_fract_y
_atom_site_fract_z
Si Si1 0.733759 0.979161 0.889910
Si Si2 0.704084 0.875588 0.578541
Si Si3 0.434939 0.519411 0.111308
Si Si4 0.799188 0.352650 0.718069
Si Si5 0.163040 0.193795 0.831427
Si Si6 0.996340 0.322237 0.387597
Si Si7 0.597188 0.352670 0.697744
Si Si8 0.381813 0.324455 0.630045
O O1 0.794788 0.939806 0.856535
O O2 0.693345 0.840067 0.869561
O O3 0.711192 0.115555 0.827737
O O4 0.735208 0.000000 0.000000
O O5 0.750000 0.750000 0.586263
O O6 0.649772 0.778781 0.555220
O O7 0.715773 0.000000 0.500000
O O8 0.699926 0.984279 0.668842
O O9 0.500000 0.500000 0.122693
O O10 0.398029 0.667982 0.131557
O O11 0.412077 0.413545 0.195776
O O12 0.425119 0.500000 0.000000
O O13 0.750000 0.250000 0.681583
O O14 0.853703 0.263193 0.699420
O O15 0.156265 0.196850 0.720380
O O16 0.939794 0.251114 0.355725
O O17 0.000000 0.500000 0.365709
O O18 0.000000 0.304924 0.500000
O O19 0.044100 0.230602 0.338868
O O20 0.609561 0.495577 0.629176
#
# Coordination Sequence:
#
# PCOD9324115 Si02
#       8
#     8   8   8   8   8   8   8   8
#     4  11  24  38  65 100 139 185 232 292 360 428
#     4  12  26  46  69  97 136 182 228 287 352 425
#     4  10  21  39  68  97 134 182 236 289 346 427
#     4  12  25  42  67 101 141 182 232 288 345 426
#     4  10  21  41  64  94 136 179 234 287 358 422
#     4  11  26  46  72 103 140 183 241 299 359 428
#     4  11  24  43  69 103 135 186 233 288 356 418
#     4  11  23  44  72  94 138 183 226 295 346 425
#
# _framework density 20.508421999999999
#
# number of rings (size 3 to 8) (size 9 to 14) (size 15 to 20)
#    0.000    1.000    1.250    6.375    7.000    1.000 
#    0.000    0.000    0.000    0.000    0.000    0.000 
#    0.000    0.000    0.000    0.000    0.000    0.000 
#
# Total GULP energy -178626.190699 kJ/mol
# GULP energy per Si atom -5582.068459 kJ/mol
# Density = 2.046174 g / cm^3
# Si number density = 20.508422 Si / 1000 Ang^3
#
#
#
# Elastic Constant Matrix: (Units=GPa)
#
#
# Indices 1 2 3 4 5 6 
#
# 1 156.7494 77.2879 21.0120 0.0000 0.0000 0.0000
# 2 77.2879 145.9562 38.7627 0.0000 0.0000 0.0000
# 3 21.0120 38.7627 76.0177 0.0000 0.0000 0.0000
# 4 0.0000 0.0000 0.0000 22.5086 0.0000 0.0000
# 5 0.0000 0.0000 0.0000 0.0000 11.2846 0.0000
# 6 0.0000 0.0000 0.0000 0.0000 0.0000 41.5266
#
#
#
# Elastic Compliance Matrix: (Units=1/GPa)
#
#
# Indices 1 2 3 4 5 6 
#
# 1 0.008634 -0.004555 -0.000064 0.000000 0.000000 0.000000
# 2 -0.004555 0.010328 -0.004007 0.000000 0.000000 0.000000
# 3 -0.000064 -0.004007 0.015216 0.000000 0.000000 0.000000
# 4 0.000000 0.000000 0.000000 0.044428 0.000000 0.000000
# 5 0.000000 0.000000 0.000000 0.000000 0.088617 0.000000
# 6 0.000000 0.000000 0.000000 0.000000 0.000000 0.024081
#
#
# Mechanical properties :
#
#
# Convention : Reuss Voigt Hill
#
# Bulk Modulus (GPa) = 59.08280 72.53871 65.81076
# Shear Modulus (GPa) = 23.34303 31.17465 27.25884
#
# Velocity S-wave (km/s) = 3.37741 3.90306 3.64971
# Velocity P-wave (km/s) = 6.63933 7.46719 7.06540
#
# Compressibility (1/GPa) = 0.01692540
#
# Stress axis : x y z
#
# Youngs Moduli (GPa) = 115.81965 96.82780 65.72113
#
# Poissons Ratio (x) = 0.44106 0.00420
# Poissons Ratio (y) = 0.52756 0.26336
# Poissons Ratio (z) = 0.00740 0.38801
#
# Static dielectric constant tensor:
#      x y z
#    x 1.737770 0.000000 0.000000 
#    y 0.000000 1.751700 0.000000 
#    z 0.000000 0.000000 1.801890 
# 
# From -- ./inp_files/33636.got.cif
#   From: 2010.05.17/outbox.cif.g08.bks.cpg/sg21_17_cif.got.tgz:33636.got - 2010.06.03 23:14:55.
