data_PCOD9324200
_publ_section_title
;
Structure prediction by ZEFSAII (Michael W. Deem and Ramdas Pophale) SiO2 
 PCOD9324200
Probable space group: C 2 2 2
;
_chemical_formula_sum "Si O2"
_cell_formula_units_Z 48
_cell_length_a 18.465542
_cell_length_b 14.253618
_cell_length_c 9.053579
_cell_angle_alpha 90.000000
_cell_angle_beta 90.000000
_cell_angle_gamma 90.000000
_cell_volume 2382.909071
_symmetry_space_group_name_H-M "C 2 2 2"
_symmetry_group_IT_number 21
_symmetry_cell_setting 'orthorhombic'
loop_
_space_group_symop_operation_xyz
x,y,z
-x,-y,z
x,-y,-z
-x,y,-z
1/2+x,1/2+y,z
1/2-x,1/2-y,z
1/2+x,1/2-y,-z
1/2-x,1/2+y,-z
loop_
_atom_site_type_symbol
_atom_site_label
_atom_site_fract_x
_atom_site_fract_y
_atom_site_fract_z
Si Si1 0.169081 0.287390 0.157695
Si Si2 0.914620 0.972975 0.835836
Si Si3 0.927947 0.724154 0.576458
Si Si4 0.364063 0.627779 0.615227
Si Si5 0.696070 0.897244 0.435766
Si Si6 0.928910 0.239494 0.099006
O O1 0.250000 0.250000 0.132622
O O2 0.130526 0.205675 0.254441
O O3 0.173864 0.377329 0.264824
O O4 0.127697 0.292715 0.004599
O O5 0.903408 0.862008 0.842259
O O6 0.880934 0.030153 0.698435
O O7 0.000000 0.000000 0.831522
O O8 0.886634 0.000000 0.000000
O O9 0.915551 0.830577 0.512473
O O10 0.854687 0.672125 0.528657
O O11 0.942348 0.709821 0.748121
O O12 0.000000 0.686436 0.500000
O O13 0.281467 0.626313 0.558724
O O14 0.685256 0.000000 0.500000
O O15 0.000000 0.224482 0.000000
#
# Coordination Sequence:
#
# PCOD9324200 Si02
#       6
#     8   8   8   8   8   8
#     4   9  19  38  60  84 125 169 205 261 322 383
#     4  11  19  34  61  94 136 173 209 259 328 402
#     4  11  24  41  66  92 126 173 225 274 339 390
#     4  10  21  41  60  92 133 170 216 264 328 402
#     4  10  23  44  65  88 126 172 221 280 331 391
#     4  12  22  37  62  94 131 169 215 268 330 403
#
# _framework density 20.143446000000001
#
# number of rings (size 3 to 8) (size 9 to 14) (size 15 to 20)
#    0.000    1.500    3.333    4.500    2.333    1.667 
#    0.000    2.500    0.000    1.000    0.000    0.000 
#    0.000    0.000    0.000    0.000    0.000    0.000 
#
# Total GULP energy -133876.977183 kJ/mol
# GULP energy per Si atom -5578.207383 kJ/mol
# Density = 2.009760 g / cm^3
# Si number density = 20.143446 Si / 1000 Ang^3
#
#
#
# Elastic Constant Matrix: (Units=GPa)
#
#
# Indices 1 2 3 4 5 6 
#
# 1 76.4822 28.6689 46.6599 0.0000 0.0000 0.0000
# 2 28.6689 67.8449 32.9947 0.0000 0.0000 0.0000
# 3 46.6599 32.9947 144.3717 0.0000 0.0000 0.0000
# 4 0.0000 0.0000 0.0000 17.4016 0.0000 0.0000
# 5 0.0000 0.0000 0.0000 0.0000 225.2349 0.0000
# 6 0.0000 0.0000 0.0000 0.0000 0.0000 17.6635
#
#
#
# Elastic Compliance Matrix: (Units=1/GPa)
#
#
# Indices 1 2 3 4 5 6 
#
# 1 0.017849 -0.005329 -0.004551 0.000000 0.000000 0.000000
# 2 -0.005329 0.018174 -0.002431 0.000000 0.000000 0.000000
# 3 -0.004551 -0.002431 0.008953 0.000000 0.000000 0.000000
# 4 0.000000 0.000000 0.000000 0.057466 0.000000 0.000000
# 5 0.000000 0.000000 0.000000 0.000000 0.004440 0.000000
# 6 0.000000 0.000000 0.000000 0.000000 0.000000 0.056614
#
#
# Mechanical properties :
#
#
# Convention : Reuss Voigt Hill
#
# Bulk Modulus (GPa) = 49.13142 56.14956 52.64049
# Shear Modulus (GPa) = 25.65398 64.08501 44.86949
#
# Velocity S-wave (km/s) = 3.57258 5.64654 4.72476
# Velocity P-wave (km/s) = 6.43906 8.39324 7.48024
#
# Compressibility (1/GPa) = 0.02035358
#
# Stress axis : x y z
#
# Youngs Moduli (GPa) = 56.02613 55.02451 111.69554
#
# Poissons Ratio (x) = 0.29324 0.50829
# Poissons Ratio (y) = 0.29857 0.27154
# Poissons Ratio (z) = 0.25496 0.13377
#
# Static dielectric constant tensor:
#      x y z
#    x 1.711200 0.000000 0.000000 
#    y 0.000000 1.572400 0.000000 
#    z 0.000000 0.000000 1.751020 
# 
# From -- ./inp_files/14958.got.cif
#   From: 2010.05.17/outbox.cif.g08.bks.cpg/sg21_8_cif.got.tgz:14958.got - 2010.06.03 23:14:55.
