data_PCOD9324105
_publ_section_title
;
Structure prediction by ZEFSAII (Michael W. Deem and Ramdas Pophale) SiO2 
 PCOD9324105
Probable space group: C 2 2 2
;
_chemical_formula_sum "Si O2"
_cell_formula_units_Z 64
_cell_length_a 13.862106
_cell_length_b 8.105712
_cell_length_c 24.729307
_cell_angle_alpha 90.000000
_cell_angle_beta 90.000000
_cell_angle_gamma 90.000000
_cell_volume 2778.640302
_symmetry_space_group_name_H-M "C 2 2 2"
_symmetry_group_IT_number 21
_symmetry_cell_setting 'orthorhombic'
loop_
_space_group_symop_operation_xyz
x,y,z
-x,-y,z
x,-y,-z
-x,y,-z
1/2+x,1/2+y,z
1/2-x,1/2-y,z
1/2+x,1/2-y,-z
1/2-x,1/2+y,-z
loop_
_atom_site_type_symbol
_atom_site_label
_atom_site_fract_x
_atom_site_fract_y
_atom_site_fract_z
Si Si1 0.394418 0.185178 0.706813
Si Si2 0.117904 0.009685 0.633148
Si Si3 0.716077 0.935932 0.442555
Si Si4 0.350126 0.179528 0.133581
Si Si5 0.469951 0.311077 0.816515
Si Si6 0.910539 0.373018 0.085096
Si Si7 0.359047 0.686182 0.980353
Si Si8 0.612962 0.143602 0.664117
O O1 0.356907 0.336646 0.671224
O O2 0.406188 0.245023 0.767788
O O3 0.502489 0.164588 0.682299
O O4 0.347556 0.004425 0.701730
O O5 0.187462 0.024653 0.581022
O O6 0.147293 0.833877 0.660695
O O7 0.000000 0.000000 0.623454
O O8 0.750000 0.750000 0.451248
O O9 0.864760 0.570632 0.395666
O O10 0.681897 0.000000 0.500000
O O11 0.250000 0.250000 0.153819
O O12 0.432738 0.199618 0.178244
O O13 0.330181 0.999385 0.107543
O O14 0.387294 0.288246 0.081906
O O15 0.500000 0.500000 0.808796
O O16 0.416538 0.275553 0.872815
O O17 0.904868 0.304574 0.025301
O O18 0.000000 0.500000 0.089382
O O19 0.250000 0.750000 0.981248
O O20 0.370514 0.500000 0.000000
#
# Coordination Sequence:
#
# PCOD9324105 Si02
#       8
#     8   8   8   8   8   8   8   8
#     4  10  21  39  66  83 121 168 210 256 310 372
#     4   9  19  39  61  89 122 163 206 250 303 378
#     4  10  22  38  63  96 131 163 203 263 316 369
#     4  10  22  40  61  89 123 161 206 256 325 380
#     4  11  23  40  63  90 122 161 210 271 310 371
#     4  10  23  39  62  90 126 160 212 260 320 387
#     4  11  21  38  64  89 123 168 202 261 325 391
#     4   9  20  37  62  88 120 159 212 246 306 376
#
# _framework density 23.03285
#
# number of rings (size 3 to 8) (size 9 to 14) (size 15 to 20)
#    0.000    2.000    0.000    3.750    7.000    3.750 
#    0.000    8.750    5.500    0.000    0.000    0.000 
#    0.000    0.000    0.000    0.000    0.000    0.000 
#
# Total GULP energy -178585.301064 kJ/mol
# GULP energy per Si atom -5580.790658 kJ/mol
# Density = 2.298043 g / cm^3
# Si number density = 23.032850 Si / 1000 Ang^3
#
#
#
# Elastic Constant Matrix: (Units=GPa)
#
#
# Indices 1 2 3 4 5 6 
#
# 1 45.3074 -2.9946 5.7546 0.0000 0.0000 0.0000
# 2 -2.9946 130.0087 22.5424 0.0000 0.0000 0.0000
# 3 5.7546 22.5424 79.0283 0.0000 0.0000 0.0000
# 4 0.0000 0.0000 0.0000 29.9049 0.0000 0.0000
# 5 0.0000 0.0000 0.0000 0.0000 6.3327 0.0000
# 6 0.0000 0.0000 0.0000 0.0000 0.0000 27.9498
#
#
#
# Elastic Compliance Matrix: (Units=1/GPa)
#
#
# Indices 1 2 3 4 5 6 
#
# 1 0.022364 0.000839 -0.001868 0.000000 0.000000 0.000000
# 2 0.000839 0.008123 -0.002378 0.000000 0.000000 0.000000
# 3 -0.001868 -0.002378 0.013468 0.000000 0.000000 0.000000
# 4 0.000000 0.000000 0.000000 0.033439 0.000000 0.000000
# 5 0.000000 0.000000 0.000000 0.000000 0.157910 0.000000
# 6 0.000000 0.000000 0.000000 0.000000 0.000000 0.035778
#
#
# Mechanical properties :
#
#
# Convention : Reuss Voigt Hill
#
# Bulk Modulus (GPa) = 26.92402 33.88325 30.40363
# Shear Modulus (GPa) = 17.22486 28.10694 22.66590
#
# Velocity S-wave (km/s) = 2.73763 3.49707 3.14039
# Velocity P-wave (km/s) = 4.65914 5.57214 5.13597
#
# Compressibility (1/GPa) = 0.03714156
#
# Stress axis : x y z
#
# Youngs Moduli (GPa) = 44.71441 123.09978 74.24952
#
# Poissons Ratio (x) = -0.10328 0.13868
# Poissons Ratio (y) = -0.03752 0.17659
# Poissons Ratio (z) = 0.08352 0.29277
#
# Static dielectric constant tensor:
#      x y z
#    x 2.010880 0.000000 0.000000 
#    y 0.000000 1.933880 0.000000 
#    z 0.000000 0.000000 1.864310 
# 
# From -- ./inp_files/38769.got.cif
#   From: 2010.05.17/outbox.cif.g08.bks.cpg/sg21_20_cif.got.tgz:38769.got - 2010.06.03 23:14:55.
