data_PCOD9324839
_publ_section_title
;
Structure prediction by ZEFSAII (Michael W. Deem and Ramdas Pophale) SiO2 
 PCOD9324839
Probable space group: C 2 2 2
;
_chemical_formula_sum "Si O2"
_cell_formula_units_Z 64
_cell_length_a 14.835299
_cell_length_b 10.582366
_cell_length_c 18.770766
_cell_angle_alpha 90.000000
_cell_angle_beta 90.000000
_cell_angle_gamma 90.000000
_cell_volume 2946.870678
_symmetry_space_group_name_H-M "C 2 2 2"
_symmetry_group_IT_number 21
_symmetry_cell_setting 'orthorhombic'
loop_
_space_group_symop_operation_xyz
x,y,z
-x,-y,z
x,-y,-z
-x,y,-z
1/2+x,1/2+y,z
1/2-x,1/2-y,z
1/2+x,1/2-y,-z
1/2-x,1/2+y,-z
loop_
_atom_site_type_symbol
_atom_site_label
_atom_site_fract_x
_atom_site_fract_y
_atom_site_fract_z
Si Si1 0.027919 0.853913 0.577068
Si Si2 0.801791 0.378095 0.823951
Si Si3 0.769931 0.880744 0.448373
Si Si4 0.280890 0.971775 0.323399
Si Si5 0.880543 0.783986 0.680838
Si Si6 0.025896 0.694588 0.918153
Si Si7 0.361089 0.546615 0.920278
Si Si8 0.644366 0.717073 0.847827
O O1 0.133454 0.851340 0.584569
O O2 0.000000 0.797534 0.500000
O O3 0.975201 0.797598 0.643076
O O4 0.000000 0.000000 0.574253
O O5 0.750000 0.250000 0.796447
O O6 0.797210 0.475171 0.756813
O O7 0.899530 0.366568 0.863452
O O8 0.734365 0.412289 0.888191
O O9 0.750000 0.750000 0.488414
O O10 0.774573 0.000000 0.500000
O O11 0.707593 0.919696 0.382137
O O12 0.182157 0.906743 0.334128
O O13 0.341571 0.851191 0.341626
O O14 0.876141 0.777859 0.765159
O O15 0.068765 0.837263 0.921080
O O16 0.927043 0.690981 0.883877
O O17 0.000000 0.655659 0.000000
O O18 0.382006 0.422854 0.874158
O O19 0.351378 0.500000 0.000000
O O20 0.750000 0.750000 0.861432
#
# Coordination Sequence:
#
# PCOD9324839 Si02
#       8
#     8   8   8   8   8   8   8   8
#     4  11  22  43  71 110 144 184 242 297 352 433
#     4  10  23  43  67 102 142 186 236 303 373 441
#     4  12  27  45  76 111 150 197 242 307 370 442
#     4  11  22  45  70 103 144 189 239 292 367 440
#     4  11  23  42  76 102 138 188 240 299 354 432
#     4  11  25  41  66 100 134 184 240 302 372 438
#     4  11  22  40  67  95 136 179 239 307 360 440
#     4  12  24  41  66  99 138 186 243 297 365 437
#
# _framework density 21.717953000000001
#
# number of rings (size 3 to 8) (size 9 to 14) (size 15 to 20)
#    0.000    0.875    6.250    0.750    5.250    4.000 
#    0.000    4.375    0.000    0.000    0.000    0.000 
#    0.000    0.000    0.000    0.000    0.000    0.000 
#
# Total GULP energy -178456.129539 kJ/mol
# GULP energy per Si atom -5576.754048 kJ/mol
# Density = 2.166852 g / cm^3
# Si number density = 21.717953 Si / 1000 Ang^3
#
#
#
# Elastic Constant Matrix: (Units=GPa)
#
#
# Indices 1 2 3 4 5 6 
#
# 1 117.8751 33.3845 53.0860 0.0000 0.0000 0.0000
# 2 33.3845 110.3101 41.0270 0.0000 0.0000 0.0000
# 3 53.0860 41.0270 61.2755 0.0000 0.0000 0.0000
# 4 0.0000 0.0000 0.0000 -3.9487 0.0000 0.0000
# 5 0.0000 0.0000 0.0000 0.0000 25.7799 0.0000
# 6 0.0000 0.0000 0.0000 0.0000 0.0000 8.8280
#
#
#
# Elastic Compliance Matrix: (Units=1/GPa)
#
#
# Indices 1 2 3 4 5 6 
#
# 1 0.013922 0.000363 -0.012304 0.000000 0.000000 0.000000
# 2 0.000363 0.012081 -0.008403 0.000000 0.000000 0.000000
# 3 -0.012304 -0.008403 0.032606 0.000000 0.000000 0.000000
# 4 0.000000 0.000000 0.000000 -0.253245 0.000000 0.000000
# 5 0.000000 0.000000 0.000000 0.000000 0.038790 0.000000
# 6 0.000000 0.000000 0.000000 0.000000 0.000000 0.113275
#
#
# Mechanical properties :
#
#
# Convention : Reuss Voigt Hill
#
# Bulk Modulus (GPa) = 55.80460 60.49508 58.14984
# Shear Modulus (GPa) = 1221.88888 16.92938 619.40913
#
# Velocity S-wave (km/s) = 23.74528 2.79500 16.90637
# Velocity P-wave (km/s) = 27.88432 6.19123 20.19736
#
# Compressibility (1/GPa) = 0.01791967
#
# Stress axis : x y z
#
# Youngs Moduli (GPa) = 71.82776 82.77564 30.66922
#
# Poissons Ratio (x) = -0.03004 0.37737
# Poissons Ratio (y) = -0.02606 0.25772
# Poissons Ratio (z) = 0.88380 0.69557
#
# Static dielectric constant tensor:
#      x y z
#    x 1.860220 0.000000 0.000000 
#    y 0.000000 1.889070 0.000000 
#    z 0.000000 0.000000 1.751880 
# 
# From -- ./inp_files/36721.got.cif
#   From: 2010.05.17/outbox.cif.g08.bks.cpg/sg21_19_cif.got.tgz:36721.got - 2010.06.03 23:14:55.
