data_PCOD9324603
_publ_section_title
;
Structure prediction by ZEFSAII (Michael W. Deem and Ramdas Pophale) SiO2 
 PCOD9324603
Probable space group: C 2 2 2
;
_chemical_formula_sum "Si O2"
_cell_formula_units_Z 40
_cell_length_a 13.880880
_cell_length_b 5.519890
_cell_length_c 23.686707
_cell_angle_alpha 90.000000
_cell_angle_beta 90.000000
_cell_angle_gamma 90.000000
_cell_volume 1814.897536
_symmetry_space_group_name_H-M "C 2 2 2"
_symmetry_group_IT_number 21
_symmetry_cell_setting 'orthorhombic'
loop_
_space_group_symop_operation_xyz
x,y,z
-x,-y,z
x,-y,-z
-x,y,-z
1/2+x,1/2+y,z
1/2-x,1/2-y,z
1/2+x,1/2-y,-z
1/2-x,1/2+y,-z
loop_
_atom_site_type_symbol
_atom_site_label
_atom_site_fract_x
_atom_site_fract_y
_atom_site_fract_z
Si Si1 0.750000 0.750000 0.733514
Si Si2 0.688810 0.000315 0.938401
Si Si3 0.398994 0.380817 0.275575
Si Si4 0.000000 0.500000 0.360545
Si Si5 0.611809 0.963134 0.185256
Si Si6 0.308570 0.005264 0.567491
O O1 0.687797 0.547137 0.700784
O O2 0.829638 0.643931 0.775392
O O3 0.750000 0.250000 0.938041
O O4 0.630433 0.011026 0.880600
O O5 0.750000 0.750000 0.935986
O O6 0.638104 0.000000 0.000000
O O7 0.500000 0.500000 0.261500
O O8 0.360722 0.288698 0.215001
O O9 0.439771 0.180444 0.318990
O O10 0.089335 0.555877 0.401740
O O11 0.500000 0.000000 0.195248
O O12 0.250000 0.250000 0.579578
O O13 0.324868 0.000000 0.500000
O O14 0.250000 0.750000 0.581151
#
# Coordination Sequence:
#
# PCOD9324603 Si02
#       6
#     4   8   8   4   8   8
#     4  12  24  46  70  92 144 200 238 304 366 444
#     4  10  22  42  69 101 135 179 236 302 375 443
#     4  12  26  46  67 106 144 195 253 299 374 444
#     4  12  27  48  72 112 151 198 248 320 360 444
#     4  12  24  44  69  99 139 190 243 296 373 449
#     4  10  25  50  81 116 153 200 251 304 375 443
#
# _framework density 22.039809999999999
#
# number of rings (size 3 to 8) (size 9 to 14) (size 15 to 20)
#    0.000    0.800    4.000    2.100    2.800    3.600 
#    1.800    3.000    0.000    3.600    0.000    0.000 
#    0.000    0.000    0.000    0.000    0.000    0.000 
#
# Total GULP energy -111430.743566 kJ/mol
# GULP energy per Si atom -5571.537178 kJ/mol
# Density = 2.198965 g / cm^3
# Si number density = 22.039810 Si / 1000 Ang^3
#
#
#
# Elastic Constant Matrix: (Units=GPa)
#
#
# Indices 1 2 3 4 5 6 
#
# 1 178.0859 70.4288 75.0583 0.0000 0.0000 0.0000
# 2 70.4288 132.6758 55.6619 0.0000 0.0000 0.0000
# 3 75.0583 55.6619 151.6934 0.0000 0.0000 0.0000
# 4 0.0000 0.0000 0.0000 -10.4808 0.0000 0.0000
# 5 0.0000 0.0000 0.0000 0.0000 49.0286 0.0000
# 6 0.0000 0.0000 0.0000 0.0000 0.0000 48.5694
#
#
#
# Elastic Compliance Matrix: (Units=1/GPa)
#
#
# Indices 1 2 3 4 5 6 
#
# 1 0.008028 -0.003067 -0.002847 0.000000 0.000000 0.000000
# 2 -0.003067 0.010080 -0.002181 0.000000 0.000000 0.000000
# 3 -0.002847 -0.002181 0.008801 0.000000 0.000000 0.000000
# 4 0.000000 0.000000 0.000000 -0.095412 0.000000 0.000000
# 5 0.000000 0.000000 0.000000 0.000000 0.020396 0.000000
# 6 0.000000 0.000000 0.000000 0.000000 0.000000 0.020589
#
#
# Mechanical properties :
#
#
# Convention : Reuss Voigt Hill
#
# Bulk Modulus (GPa) = 93.29049 96.08370 94.68709
# Shear Modulus (GPa) = -644.87213 34.84384 -305.01415
#
# Velocity S-wave (km/s) = -17.12394 3.98043 -11.77679
# Velocity P-wave (km/s) = 18.66956 8.05079 11.91086
#
# Compressibility (1/GPa) = 0.01071921
#
# Stress axis : x y z
#
# Youngs Moduli (GPa) = 124.56121 99.20175 113.62024
#
# Poissons Ratio (x) = 0.30428 0.32346
# Poissons Ratio (y) = 0.38206 0.24783
# Poissons Ratio (z) = 0.35461 0.21638
#
# Static dielectric constant tensor:
#      x y z
#    x 1.816980 0.000000 0.000000 
#    y 0.000000 1.892260 0.000000 
#    z 0.000000 0.000000 1.818450 
# 
# From -- ./inp_files/38697.got.cif
#   From: 2010.05.17/outbox.cif.g08.bks.cpg/sg21_20_cif.got.tgz:38697.got - 2010.06.03 23:14:55.
