data_PCOD9324404
_publ_section_title
;
Structure prediction by ZEFSAII (Michael W. Deem and Ramdas Pophale) SiO2 
 PCOD9324404
Probable space group: C 2 2 2
;
_chemical_formula_sum "Si O2"
_cell_formula_units_Z 40
_cell_length_a 11.112168
_cell_length_b 11.973631
_cell_length_c 14.011359
_cell_angle_alpha 90.000000
_cell_angle_beta 90.000000
_cell_angle_gamma 90.000000
_cell_volume 1864.253338
_symmetry_space_group_name_H-M "C 2 2 2"
_symmetry_group_IT_number 21
_symmetry_cell_setting 'orthorhombic'
loop_
_space_group_symop_operation_xyz
x,y,z
-x,-y,z
x,-y,-z
-x,y,-z
1/2+x,1/2+y,z
1/2-x,1/2-y,z
1/2+x,1/2-y,-z
1/2-x,1/2+y,-z
loop_
_atom_site_type_symbol
_atom_site_label
_atom_site_fract_x
_atom_site_fract_y
_atom_site_fract_z
Si Si1 0.033483 0.157122 0.890338
Si Si2 0.665520 0.574009 0.408755
Si Si3 0.072029 0.683099 0.594829
Si Si4 0.447083 0.116531 0.191086
Si Si5 0.317371 0.479143 0.198868
O O1 0.013272 0.286185 0.866493
O O2 0.927987 0.098959 0.829999
O O3 0.156623 0.094099 0.858906
O O4 0.000000 0.136508 0.000000
O O5 0.637510 0.500000 0.500000
O O6 0.797006 0.629170 0.418866
O O7 0.581048 0.682329 0.397552
O O8 0.671138 0.501952 0.312133
O O9 0.026196 0.638778 0.696640
O O10 0.000000 0.653591 0.500000
O O11 0.303144 0.094383 0.181480
O O12 0.500000 0.000000 0.160118
#
# Coordination Sequence:
#
# PCOD9324404 Si02
#       5
#     8   8   8   8   8
#     4  11  24  47  73  99 127 176 233 288 351 406
#     4  10  22  38  63  98 126 173 222 265 324 402
#     4  10  23  39  61  92 135 173 214 270 329 392
#     4  11  25  45  67 100 141 180 222 280 349 410
#     4  10  22  45  71  97 137 175 224 283 346 404
#
# _framework density 21.456313000000002
#
# number of rings (size 3 to 8) (size 9 to 14) (size 15 to 20)
#    0.000    1.600    2.000    1.800    8.400    1.600 
#   10.800    0.000    0.000    0.000    0.000    0.000 
#    0.000    0.000    0.000    0.000    0.000    0.000 
#
# Total GULP energy -111668.449249 kJ/mol
# GULP energy per Si atom -5583.422462 kJ/mol
# Density = 2.140748 g / cm^3
# Si number density = 21.456313 Si / 1000 Ang^3
#
#
#
# Elastic Constant Matrix: (Units=GPa)
#
#
# Indices 1 2 3 4 5 6 
#
# 1 27.2044 1.6993 16.4693 0.0000 0.0000 0.0000
# 2 1.6993 145.4823 38.5171 0.0000 0.0000 0.0000
# 3 16.4693 38.5171 126.0191 0.0000 0.0000 0.0000
# 4 0.0000 0.0000 0.0000 -82.1392 0.0000 0.0000
# 5 0.0000 0.0000 0.0000 0.0000 -43.5371 0.0000
# 6 0.0000 0.0000 0.0000 0.0000 0.0000 17.1516
#
#
#
# Elastic Compliance Matrix: (Units=1/GPa)
#
#
# Indices 1 2 3 4 5 6 
#
# 1 0.040050 0.000999 -0.005539 0.000000 0.000000 0.000000
# 2 0.000999 0.007504 -0.002424 0.000000 0.000000 0.000000
# 3 -0.005539 -0.002424 0.009400 0.000000 0.000000 0.000000
# 4 0.000000 0.000000 0.000000 -0.012174 0.000000 0.000000
# 5 0.000000 0.000000 0.000000 0.000000 -0.022969 0.000000
# 6 0.000000 0.000000 0.000000 0.000000 0.000000 0.058304
#
#
# Mechanical properties :
#
#
# Convention : Reuss Voigt Hill
#
# Bulk Modulus (GPa) = 23.24251 45.78634 34.51443
# Shear Modulus (GPa) = 46.13190 -5.57027 20.28081
#
# Velocity S-wave (km/s) = 4.64188 -1.61299 3.07777
# Velocity P-wave (km/s) = 6.29169 4.23281 5.36200
#
# Compressibility (1/GPa) = 0.04302461
#
# Stress axis : x y z
#
# Youngs Moduli (GPa) = 24.96887 133.26589 106.38161
#
# Poissons Ratio (x) = -0.13310 0.58928
# Poissons Ratio (y) = -0.02494 0.25787
# Poissons Ratio (z) = 0.13831 0.32304
#
# Static dielectric constant tensor:
#      x y z
#    x 1.856820 0.000000 0.000000 
#    y 0.000000 1.840790 0.000000 
#    z 0.000000 0.000000 1.780070 
# 
# From -- ./inp_files/31354.got.cif
#   From: 2010.05.17/outbox.cif.g08.bks.cpg/sg21_16_cif.got.tgz:31354.got - 2010.06.03 23:14:55.
