data_PCOD9324165
_publ_section_title
;
Structure prediction by ZEFSAII (Michael W. Deem and Ramdas Pophale) SiO2 
 PCOD9324165
Probable space group: C 2 2 2
;
_chemical_formula_sum "Si O2"
_cell_formula_units_Z 28
_cell_length_a 29.282161
_cell_length_b 5.191455
_cell_length_c 8.339234
_cell_angle_alpha 90.000000
_cell_angle_beta 90.000000
_cell_angle_gamma 90.000000
_cell_volume 1267.705511
_symmetry_space_group_name_H-M "C 2 2 2"
_symmetry_group_IT_number 21
_symmetry_cell_setting 'orthorhombic'
loop_
_space_group_symop_operation_xyz
x,y,z
-x,-y,z
x,-y,-z
-x,y,-z
1/2+x,1/2+y,z
1/2-x,1/2-y,z
1/2+x,1/2-y,-z
1/2-x,1/2+y,-z
loop_
_atom_site_type_symbol
_atom_site_label
_atom_site_fract_x
_atom_site_fract_y
_atom_site_fract_z
Si Si1 0.663370 0.558493 0.689303
Si Si2 0.051062 0.745289 0.573880
Si Si3 0.111198 0.558728 0.813556
Si Si4 0.750000 0.250000 0.108446
O O1 0.670645 0.500000 0.500000
O O2 0.644982 0.291882 0.766232
O O3 0.709240 0.649016 0.778964
O O4 0.628674 0.792485 0.733417
O O5 0.074959 0.500000 0.500000
O O6 0.061795 0.682454 0.756888
O O7 0.000000 0.746354 0.500000
O O8 0.071718 0.000000 0.500000
O O9 0.109884 0.500000 0.000000
O O10 0.763438 0.500000 0.000000
#
# Coordination Sequence:
#
# PCOD9324165 Si02
#       4
#     8   8   8   4
#     4  12  26  44  68  98 134 180 228 273 331 403
#     4  10  21  40  66  93 127 170 217 270 334 402
#     4  12  24  42  68 100 133 174 226 282 336 394
#     4  12  26  46  68  98 140 178 220 282 338 388
#
# _framework density 22.087150000000001
#
# number of rings (size 3 to 8) (size 9 to 14) (size 15 to 20)
#    0.000    0.571    0.000   10.286    0.000    3.429 
#    0.000    2.857    0.000   13.714    0.000    0.000 
#    0.000    0.000    0.000    0.000    0.000    0.000 
#
# Total GULP energy -77994.273340 kJ/mol
# GULP energy per Si atom -5571.019524 kJ/mol
# Density = 2.203688 g / cm^3
# Si number density = 22.087150 Si / 1000 Ang^3
#
#
#
# Elastic Constant Matrix: (Units=GPa)
#
#
# Indices 1 2 3 4 5 6 
#
# 1 81.0901 28.3558 87.2372 0.0000 0.0000 0.0000
# 2 28.3558 226.9970 103.6632 0.0000 0.0000 0.0000
# 3 87.2372 103.6632 231.1539 0.0000 0.0000 0.0000
# 4 0.0000 0.0000 0.0000 47.3818 0.0000 0.0000
# 5 0.0000 0.0000 0.0000 0.0000 34.2817 0.0000
# 6 0.0000 0.0000 0.0000 0.0000 0.0000 28.0237
#
#
#
# Elastic Compliance Matrix: (Units=1/GPa)
#
#
# Indices 1 2 3 4 5 6 
#
# 1 0.021042 0.001255 -0.008504 0.000000 0.000000 0.000000
# 2 0.001255 0.005615 -0.002992 0.000000 0.000000 0.000000
# 3 -0.008504 -0.002992 0.008877 0.000000 0.000000 0.000000
# 4 0.000000 0.000000 0.000000 0.021105 0.000000 0.000000
# 5 0.000000 0.000000 0.000000 0.000000 0.029170 0.000000
# 6 0.000000 0.000000 0.000000 0.000000 0.000000 0.035684
#
#
# Mechanical properties :
#
#
# Convention : Reuss Voigt Hill
#
# Bulk Modulus (GPa) = 66.43418 108.63924 87.53671
# Shear Modulus (GPa) = 34.01559 43.26977 38.64268
#
# Velocity S-wave (km/s) = 3.92862 4.43091 4.18731
# Velocity P-wave (km/s) = 7.12195 8.68739 7.94333
#
# Compressibility (1/GPa) = 0.01505249
#
# Stress axis : x y z
#
# Youngs Moduli (GPa) = 47.52474 178.10164 112.64899
#
# Poissons Ratio (x) = -0.22353 0.95796
# Poissons Ratio (y) = -0.05965 0.33701
# Poissons Ratio (z) = 0.40415 0.53282
#
# Static dielectric constant tensor:
#      x y z
#    x 1.816710 0.000000 0.000000 
#    y 0.000000 1.859180 0.000000 
#    z 0.000000 0.000000 1.970690 
# 
# From -- ./inp_files/19283.got.cif
#   From: 2010.05.17/outbox.cif.g08.bks.cpg/sg21_10_cif.got.tgz:19283.got - 2010.06.03 23:14:55.
