data_PCOD9324511
_publ_section_title
;
Structure prediction by ZEFSAII (Michael W. Deem and Ramdas Pophale) SiO2 
 PCOD9324511
Probable space group: C 2 2 2
;
_chemical_formula_sum "Si O2"
_cell_formula_units_Z 34
_cell_length_a 9.852868
_cell_length_b 17.884642
_cell_length_c 9.197864
_cell_angle_alpha 90.000000
_cell_angle_beta 90.000000
_cell_angle_gamma 90.000000
_cell_volume 1620.801760
_symmetry_space_group_name_H-M "C 2 2 2"
_symmetry_group_IT_number 21
_symmetry_cell_setting 'orthorhombic'
loop_
_space_group_symop_operation_xyz
x,y,z
-x,-y,z
x,-y,-z
-x,y,-z
1/2+x,1/2+y,z
1/2-x,1/2-y,z
1/2+x,1/2-y,-z
1/2-x,1/2+y,-z
loop_
_atom_site_type_symbol
_atom_site_label
_atom_site_fract_x
_atom_site_fract_y
_atom_site_fract_z
Si Si1 0.736992 0.833691 0.800050
Si Si2 0.457867 0.079780 0.220014
Si Si3 0.301022 0.667939 0.867124
Si Si4 0.976177 0.087424 0.329490
Si Si5 0.500000 0.000000 0.500000
O O1 0.750000 0.750000 0.738630
O O2 0.582124 0.862635 0.802422
O O3 0.821906 0.891890 0.706279
O O4 0.811313 0.829447 0.957780
O O5 0.322634 0.111784 0.155719
O O6 0.427491 0.056205 0.387934
O O7 0.500000 0.000000 0.156006
O O8 0.250000 0.750000 0.819256
O O9 0.426679 0.637757 0.773359
O O10 0.000000 0.101235 0.500000
O O11 0.000000 0.000000 0.298755
#
# Coordination Sequence:
#
# PCOD9324511 Si02
#       5
#     8   8   8   8   2
#     4  11  24  43  65  94 128 163 208 261 311 369
#     4  10  22  40  68  89 125 164 208 253 310 366
#     4  11  24  43  65  94 128 163 208 261 311 369
#     4  11  26  42  63  93 130 166 208 256 312 372
#     4   8  24  40  62  94 136 152 204 274 304 360
#
# _framework density 20.977271999999999
#
# number of rings (size 3 to 8) (size 9 to 14) (size 15 to 20)
#    0.706    0.706    0.000    4.235    3.294   10.353 
#    4.235    0.000    0.000    0.000    0.000    0.000 
#    0.000    0.000    0.000    0.000    0.000    0.000 
#
# Total GULP energy -94868.649592 kJ/mol
# GULP energy per Si atom -5580.508800 kJ/mol
# Density = 2.092953 g / cm^3
# Si number density = 20.977272 Si / 1000 Ang^3
#
#
#
# Elastic Constant Matrix: (Units=GPa)
#
#
# Indices 1 2 3 4 5 6 
#
# 1 69.6173 -0.8187 -5.6833 0.0000 0.0000 0.0000
# 2 -0.8187 91.2658 4.6336 0.0000 0.0000 0.0000
# 3 -5.6833 4.6336 73.4885 0.0000 0.0000 0.0000
# 4 0.0000 0.0000 0.0000 14.4568 0.0000 0.0000
# 5 0.0000 0.0000 0.0000 0.0000 16.2637 0.0000
# 6 0.0000 0.0000 0.0000 0.0000 0.0000 35.4625
#
#
#
# Elastic Compliance Matrix: (Units=1/GPa)
#
#
# Indices 1 2 3 4 5 6 
#
# 1 0.014456 0.000073 0.001113 0.000000 0.000000 0.000000
# 2 0.000073 0.010993 -0.000687 0.000000 0.000000 0.000000
# 3 0.001113 -0.000687 0.013737 0.000000 0.000000 0.000000
# 4 0.000000 0.000000 0.000000 0.069171 0.000000 0.000000
# 5 0.000000 0.000000 0.000000 0.000000 0.061487 0.000000
# 6 0.000000 0.000000 0.000000 0.000000 0.000000 0.028199
#
#
# Mechanical properties :
#
#
# Convention : Reuss Voigt Hill
#
# Bulk Modulus (GPa) = 24.88572 25.62610 25.25591
# Shear Modulus (GPa) = 23.75987 28.98593 26.37290
#
# Velocity S-wave (km/s) = 3.36913 3.72126 3.54957
# Velocity P-wave (km/s) = 5.19843 5.54133 5.37262
#
# Compressibility (1/GPa) = 0.04018369
#
# Stress axis : x y z
#
# Youngs Moduli (GPa) = 69.17542 90.97059 72.79597
#
# Poissons Ratio (x) = -0.00665 -0.08105
# Poissons Ratio (y) = -0.00506 0.05004
# Poissons Ratio (z) = -0.07702 0.06254
#
# Static dielectric constant tensor:
#      x y z
#    x 1.720110 0.000000 0.000000 
#    y 0.000000 1.837620 0.000000 
#    z 0.000000 0.000000 1.846870 
# 
# From -- ./inp_files/10613.got.cif
#   From: 2010.05.17/outbox.cif.g08.bks.cpg/sg21_6_cif.got.tgz:10613.got - 2010.06.03 23:14:55.
