data_PCOD9324434
_publ_section_title
;
Structure prediction by ZEFSAII (Michael W. Deem and Ramdas Pophale) SiO2 
 PCOD9324434
Probable space group: C 2 2 2
;
_chemical_formula_sum "Si O2"
_cell_formula_units_Z 34
_cell_length_a 20.814652
_cell_length_b 12.127194
_cell_length_c 6.842664
_cell_angle_alpha 90.000000
_cell_angle_beta 90.000000
_cell_angle_gamma 90.000000
_cell_volume 1727.247984
_symmetry_space_group_name_H-M "C 2 2 2"
_symmetry_group_IT_number 21
_symmetry_cell_setting 'orthorhombic'
loop_
_space_group_symop_operation_xyz
x,y,z
-x,-y,z
x,-y,-z
-x,y,-z
1/2+x,1/2+y,z
1/2-x,1/2-y,z
1/2+x,1/2-y,-z
1/2-x,1/2+y,-z
loop_
_atom_site_type_symbol
_atom_site_label
_atom_site_fract_x
_atom_site_fract_y
_atom_site_fract_z
Si Si1 0.943325 0.145285 0.847101
Si Si2 0.670589 0.500000 0.000000
Si Si3 0.500000 0.500000 0.500000
Si Si4 0.280036 0.130379 0.814958
Si Si5 0.148027 0.500000 0.500000
Si Si6 0.900899 0.605390 0.112788
O O1 0.935724 0.277680 0.859770
O O2 0.960846 0.083045 0.644126
O O3 0.876321 0.093646 0.918931
O O4 0.000000 0.118751 0.000000
O O5 0.720121 0.548926 0.844893
O O6 0.250000 0.250000 0.810972
O O7 0.312460 0.093075 0.614752
O O8 0.333944 0.123900 0.988574
O O9 0.110436 0.438916 0.329723
O O10 0.930687 0.500000 0.000000
#
# Coordination Sequence:
#
# PCOD9324434 Si02
#       6
#     8   4   2   8   4   8
#     4  12  26  47  69  98 138 180 230 280 331 400
#     4  12  21  42  70  98 135 170 218 274 342 396
#     4  12  26  46  68 108 124 186 242 274 342 382
#     4  11  22  38  66 100 134 177 213 272 348 402
#     4  10  22  39  60 107 133 165 228 270 334 406
#     4  10  23  44  68  97 139 175 222 277 342 405
#
# _framework density 19.684493
#
# number of rings (size 3 to 8) (size 9 to 14) (size 15 to 20)
#    0.000    0.941    8.235    0.000    0.000    9.882 
#    0.000    0.000    0.000    0.000    0.000    0.000 
#    0.000    0.000    0.000    0.000    0.000    0.000 
#
# Total GULP energy -94758.205658 kJ/mol
# GULP energy per Si atom -5574.012098 kJ/mol
# Density = 1.963969 g / cm^3
# Si number density = 19.684493 Si / 1000 Ang^3
#
#
#
# Elastic Constant Matrix: (Units=GPa)
#
#
# Indices 1 2 3 4 5 6 
#
# 1 86.7283 43.3248 50.4705 0.0000 0.0000 0.0000
# 2 43.3248 178.8157 60.1647 0.0000 0.0000 0.0000
# 3 50.4705 60.1647 149.2591 0.0000 0.0000 0.0000
# 4 0.0000 0.0000 0.0000 12.8769 0.0000 0.0000
# 5 0.0000 0.0000 0.0000 0.0000 -17.8562 0.0000
# 6 0.0000 0.0000 0.0000 0.0000 0.0000 -7.7953
#
#
#
# Elastic Compliance Matrix: (Units=1/GPa)
#
#
# Indices 1 2 3 4 5 6 
#
# 1 0.015095 -0.002244 -0.004200 0.000000 0.000000 0.000000
# 2 -0.002244 0.006804 -0.001984 0.000000 0.000000 0.000000
# 3 -0.004200 -0.001984 0.008919 0.000000 0.000000 0.000000
# 4 0.000000 0.000000 0.000000 0.077658 0.000000 0.000000
# 5 0.000000 0.000000 0.000000 0.000000 -0.056003 0.000000
# 6 0.000000 0.000000 0.000000 0.000000 0.000000 -0.128282
#
#
# Mechanical properties :
#
#
# Convention : Reuss Voigt Hill
#
# Bulk Modulus (GPa) = 71.61715 80.30257 75.95986
# Shear Modulus (GPa) = -92.08272 14.83462 -38.62405
#
# Velocity S-wave (km/s) = -6.84696 2.74819 -4.43443
# Velocity P-wave (km/s) = 5.10356 7.13817 3.52896
#
# Compressibility (1/GPa) = 0.01396314
#
# Stress axis : x y z
#
# Youngs Moduli (GPa) = 66.24544 146.98292 112.11559
#
# Poissons Ratio (x) = 0.32989 0.47085
# Poissons Ratio (y) = 0.14868 0.22238
# Poissons Ratio (z) = 0.27821 0.29154
#
# Static dielectric constant tensor:
#      x y z
#    x 1.695490 0.000000 0.000000 
#    y 0.000000 1.739200 0.000000 
#    z 0.000000 0.000000 1.671430 
# 
# From -- ./inp_files/2720.got.cif
#   From: 2010.05.17/outbox.cif.g08.bks.cpg/sg21_2_cif.got.tgz:2720.got - 2010.06.03 23:14:55.
