data_PCOD9324080
_publ_section_title
;
Structure prediction by ZEFSAII (Michael W. Deem and Ramdas Pophale) SiO2 
 PCOD9324080
Probable space group: C 2 2 2
;
_chemical_formula_sum "Si O2"
_cell_formula_units_Z 40
_cell_length_a 8.731022
_cell_length_b 23.956218
_cell_length_c 9.019605
_cell_angle_alpha 90.000000
_cell_angle_beta 90.000000
_cell_angle_gamma 90.000000
_cell_volume 1886.561024
_symmetry_space_group_name_H-M "C 2 2 2"
_symmetry_group_IT_number 21
_symmetry_cell_setting 'orthorhombic'
loop_
_space_group_symop_operation_xyz
x,y,z
-x,-y,z
x,-y,-z
-x,y,-z
1/2+x,1/2+y,z
1/2-x,1/2-y,z
1/2+x,1/2-y,-z
1/2-x,1/2+y,-z
loop_
_atom_site_type_symbol
_atom_site_label
_atom_site_fract_x
_atom_site_fract_y
_atom_site_fract_z
Si Si1 0.476179 0.677342 0.760866
Si Si2 0.446399 0.937679 0.193940
Si Si3 0.500000 0.891614 0.500000
Si Si4 0.782750 0.813189 0.536174
Si Si5 0.218572 0.627082 0.955640
Si Si6 0.000000 0.727425 0.000000
O O1 0.632478 0.658862 0.678355
O O2 0.379903 0.691337 0.614452
O O3 0.377916 0.636219 0.868641
O O4 0.500144 0.732541 0.858095
O O5 0.437773 0.930178 0.368324
O O6 0.588996 0.897418 0.153057
O O7 0.500000 0.000000 0.158634
O O8 0.304398 0.914971 0.095242
O O9 0.639766 0.848855 0.482594
O O10 0.750000 0.750000 0.583646
O O11 0.149494 0.687514 0.999710
#
# Coordination Sequence:
#
# PCOD9324080 Si02
#       6
#     8   8   4   8   8   4
#     4  11  23  41  58  95 137 178 220 267 332 407
#     4  10  22  40  68  98 123 168 229 288 340 396
#     4  12  23  42  64 102 132 170 221 280 334 400
#     4  11  25  37  63  93 143 179 218 260 335 413
#     4  10  21  39  63  91 136 166 219 281 327 402
#     4  10  22  32  59  92 135 174 212 262 330 398
#
# _framework density 21.202601999999999
#
# number of rings (size 3 to 8) (size 9 to 14) (size 15 to 20)
#    0.000    1.600    2.000    4.500   11.200    0.000 
#    0.000    0.000    0.000    1.200    0.000    0.000 
#    0.000    0.000    0.000    0.000    0.000    0.000 
#
# Total GULP energy -111499.103621 kJ/mol
# GULP energy per Si atom -5574.955181 kJ/mol
# Density = 2.115434 g / cm^3
# Si number density = 21.202602 Si / 1000 Ang^3
#
#
#
# Elastic Constant Matrix: (Units=GPa)
#
#
# Indices 1 2 3 4 5 6 
#
# 1 65.9451 22.5329 44.3664 0.0000 0.0000 0.0000
# 2 22.5329 88.6151 45.2496 0.0000 0.0000 0.0000
# 3 44.3664 45.2496 140.6822 0.0000 0.0000 0.0000
# 4 0.0000 0.0000 0.0000 13.1141 0.0000 0.0000
# 5 0.0000 0.0000 0.0000 0.0000 44.1928 0.0000
# 6 0.0000 0.0000 0.0000 0.0000 0.0000 -7.7542
#
#
#
# Elastic Compliance Matrix: (Units=1/GPa)
#
#
# Indices 1 2 3 4 5 6 
#
# 1 0.019596 -0.002186 -0.005477 0.000000 0.000000 0.000000
# 2 -0.002186 0.013746 -0.003732 0.000000 0.000000 0.000000
# 3 -0.005477 -0.003732 0.010036 0.000000 0.000000 0.000000
# 4 0.000000 0.000000 0.000000 0.076254 0.000000 0.000000
# 5 0.000000 0.000000 0.000000 0.000000 0.022628 0.000000
# 6 0.000000 0.000000 0.000000 0.000000 0.000000 -0.128962
#
#
# Mechanical properties :
#
#
# Convention : Reuss Voigt Hill
#
# Bulk Modulus (GPa) = 48.57175 57.72669 53.14922
# Shear Modulus (GPa) = 116.41524 22.11678 69.26601
#
# Velocity S-wave (km/s) = 7.41790 3.23324 5.72185
# Velocity P-wave (km/s) = 9.81454 6.42057 8.29304
#
# Compressibility (1/GPa) = 0.02058810
#
# Stress axis : x y z
#
# Youngs Moduli (GPa) = 51.03163 72.74668 99.64398
#
# Poissons Ratio (x) = 0.15904 0.54571
# Poissons Ratio (y) = 0.11157 0.37187
# Poissons Ratio (z) = 0.27948 0.27149
#
# Static dielectric constant tensor:
#      x y z
#    x 1.821010 0.000000 0.000000 
#    y 0.000000 1.742700 0.000000 
#    z 0.000000 0.000000 1.830920 
# 
# From -- ./inp_files/11222.got.cif
#   From: 2010.05.17/outbox.cif.g08.bks.cpg/sg21_6_cif.got.tgz:11222.got - 2010.06.03 23:14:55.
