data_PCOD9324804
_publ_section_title
;
Structure prediction by ZEFSAII (Michael W. Deem and Ramdas Pophale) SiO2 
 PCOD9324804
Probable space group: C 2 2 2
;
_chemical_formula_sum "Si O2"
_cell_formula_units_Z 56
_cell_length_a 18.651438
_cell_length_b 13.015440
_cell_length_c 9.397737
_cell_angle_alpha 90.000000
_cell_angle_beta 90.000000
_cell_angle_gamma 90.000000
_cell_volume 2281.363360
_symmetry_space_group_name_H-M "C 2 2 2"
_symmetry_group_IT_number 21
_symmetry_cell_setting 'orthorhombic'
loop_
_space_group_symop_operation_xyz
x,y,z
-x,-y,z
x,-y,-z
-x,y,-z
1/2+x,1/2+y,z
1/2-x,1/2-y,z
1/2+x,1/2-y,-z
1/2-x,1/2+y,-z
loop_
_atom_site_type_symbol
_atom_site_label
_atom_site_fract_x
_atom_site_fract_y
_atom_site_fract_z
Si Si1 0.985659 0.880182 0.159996
Si Si2 0.023584 0.382510 0.685242
Si Si3 0.879815 0.729069 0.205083
Si Si4 0.853106 0.317974 0.507079
Si Si5 0.603647 0.403093 0.394696
Si Si6 0.747828 0.372524 0.263463
Si Si7 0.867038 0.398155 0.067389
O O1 0.036667 0.864216 0.299408
O O2 0.904180 0.847139 0.195405
O O3 0.000000 0.000000 0.143392
O O4 0.000000 0.834096 0.000000
O O5 0.070457 0.366113 0.541187
O O6 0.083336 0.359403 0.805905
O O7 0.000000 0.500000 0.691882
O O8 0.956235 0.317979 0.742016
O O9 0.830740 0.683451 0.329015
O O10 0.858238 0.685452 0.054138
O O11 0.867465 0.197613 0.476704
O O12 0.793316 0.371051 0.410363
O O13 0.589948 0.500000 0.500000
O O14 0.670318 0.419956 0.288067
O O15 0.750000 0.250000 0.225281
O O16 0.792975 0.427781 0.142412
O O17 0.900695 0.500000 0.000000
#
# Coordination Sequence:
#
# PCOD9324804 Si02
#       7
#     8   8   8   8   8   8   8
#     4  11  25  43  68 104 138 174 231 293 357 422
#     4  11  21  38  61  94 142 178 214 268 350 420
#     4  12  23  37  67 100 138 172 222 280 351 412
#     4  10  23  41  64  99 135 173 230 285 338 425
#     4  11  23  45  74  95 134 187 237 299 350 408
#     4   9  23  46  66  89 130 184 234 277 349 408
#     4  11  23  41  62  98 136 182 222 278 344 433
#
# _framework density 24.546724999999999
#
# number of rings (size 3 to 8) (size 9 to 14) (size 15 to 20)
#    0.000    1.286    2.857    2.571    4.000    3.714 
#    2.571    3.571    0.000    0.000    0.000    0.000 
#    0.000    0.000    0.000    0.000    0.000    0.000 
#
# Total GULP energy -156336.903191 kJ/mol
# GULP energy per Si atom -5583.460828 kJ/mol
# Density = 2.449086 g / cm^3
# Si number density = 24.546725 Si / 1000 Ang^3
#
#
#
# Elastic Constant Matrix: (Units=GPa)
#
#
# Indices 1 2 3 4 5 6 
#
# 1 48.8931 4.1070 14.9146 0.0000 0.0000 0.0000
# 2 4.1070 69.6444 8.7792 0.0000 0.0000 0.0000
# 3 14.9146 8.7792 136.9450 0.0000 0.0000 0.0000
# 4 0.0000 0.0000 0.0000 30.5222 0.0000 0.0000
# 5 0.0000 0.0000 0.0000 0.0000 30.1721 0.0000
# 6 0.0000 0.0000 0.0000 0.0000 0.0000 17.9756
#
#
#
# Elastic Compliance Matrix: (Units=1/GPa)
#
#
# Indices 1 2 3 4 5 6 
#
# 1 0.021220 -0.000968 -0.002249 0.000000 0.000000 0.000000
# 2 -0.000968 0.014520 -0.000825 0.000000 0.000000 0.000000
# 3 -0.002249 -0.000825 0.007600 0.000000 0.000000 0.000000
# 4 0.000000 0.000000 0.000000 0.032763 0.000000 0.000000
# 5 0.000000 0.000000 0.000000 0.000000 0.033143 0.000000
# 6 0.000000 0.000000 0.000000 0.000000 0.000000 0.055631
#
#
# Mechanical properties :
#
#
# Convention : Reuss Voigt Hill
#
# Bulk Modulus (GPa) = 28.36450 34.56491 31.46470
# Shear Modulus (GPa) = 27.06894 30.91276 28.99085
#
# Velocity S-wave (km/s) = 3.32437 3.55257 3.44037
# Velocity P-wave (km/s) = 5.12988 5.56233 5.35048
#
# Compressibility (1/GPa) = 0.03525534
#
# Stress axis : x y z
#
# Youngs Moduli (GPa) = 47.12506 68.87151 131.57798
#
# Poissons Ratio (x) = 0.06666 0.29592
# Poissons Ratio (y) = 0.04561 0.10861
# Poissons Ratio (z) = 0.10599 0.05685
#
# Static dielectric constant tensor:
#      x y z
#    x 1.998720 0.000000 0.000000 
#    y 0.000000 1.864400 0.000000 
#    z 0.000000 0.000000 2.035110 
# 
# From -- ./inp_files/17698.got.cif
#   From: 2010.05.17/outbox.cif.g08.bks.cpg/sg21_9_cif.got.tgz:17698.got - 2010.06.03 23:14:55.
