data_PCOD9324062
_publ_section_title
;
Structure prediction by ZEFSAII (Michael W. Deem and Ramdas Pophale) SiO2 
 PCOD9324062
Probable space group: C 2 2 2
;
_chemical_formula_sum "Si O2"
_cell_formula_units_Z 44
_cell_length_a 8.072879
_cell_length_b 28.460908
_cell_length_c 8.922555
_cell_angle_alpha 90.000000
_cell_angle_beta 90.000000
_cell_angle_gamma 90.000000
_cell_volume 2050.059322
_symmetry_space_group_name_H-M "C 2 2 2"
_symmetry_group_IT_number 21
_symmetry_cell_setting 'orthorhombic'
loop_
_space_group_symop_operation_xyz
x,y,z
-x,-y,z
x,-y,-z
-x,y,-z
1/2+x,1/2+y,z
1/2-x,1/2-y,z
1/2+x,1/2-y,-z
1/2-x,1/2+y,-z
loop_
_atom_site_type_symbol
_atom_site_label
_atom_site_fract_x
_atom_site_fract_y
_atom_site_fract_z
Si Si1 0.311637 0.652550 0.037645
Si Si2 0.328320 0.129780 0.661403
Si Si3 0.250000 0.250000 0.118017
Si Si4 0.096146 0.575424 0.862944
Si Si5 0.308482 0.048438 0.443681
Si Si6 0.439347 0.234964 0.658976
O O1 0.252328 0.703750 0.984597
O O2 0.203387 0.615299 0.944477
O O3 0.500000 0.647310 0.000000
O O4 0.304808 0.643443 0.214559
O O5 0.458108 0.099087 0.757227
O O6 0.261366 0.098135 0.523726
O O7 0.421381 0.178834 0.634972
O O8 0.417511 0.247100 0.220033
O O9 0.199754 0.548275 0.736763
O O10 0.000000 0.550871 0.000000
O O11 0.500000 0.045537 0.500000
O O12 0.227103 0.000000 0.500000
O O13 0.500000 0.256047 0.500000
O O14 0.250000 0.250000 0.691884
#
# Coordination Sequence:
#
# PCOD9324062 Si02
#       6
#     8   8   4   8   8   8
#     4  11  24  39  59  89 123 175 221 274 330 399
#     4  10  21  39  61  86 128 163 212 278 335 397
#     4  12  26  40  62  90 130 180 242 274 332 412
#     4   9  18  36  62  89 124 162 202 269 336 389
#     4   9  18  36  66  97 122 160 212 273 343 416
#     4  12  24  40  61  92 132 178 227 280 338 404
#
# _framework density 21.462793000000001
#
# number of rings (size 3 to 8) (size 9 to 14) (size 15 to 20)
#    0.000    1.636    2.727    2.727    3.818    0.000 
#    0.000   16.364    0.000    3.273    0.000    0.000 
#    0.000    0.000    0.000    0.000    0.000    0.000 
#
# Total GULP energy -122602.880596 kJ/mol
# GULP energy per Si atom -5572.858209 kJ/mol
# Density = 2.141394 g / cm^3
# Si number density = 21.462793 Si / 1000 Ang^3
#
#
#
# Elastic Constant Matrix: (Units=GPa)
#
#
# Indices 1 2 3 4 5 6 
#
# 1 82.6442 9.9656 30.3192 0.0000 0.0000 0.0000
# 2 9.9656 116.4148 59.3217 0.0000 0.0000 0.0000
# 3 30.3192 59.3217 154.5063 0.0000 0.0000 0.0000
# 4 0.0000 0.0000 0.0000 -3.3872 0.0000 0.0000
# 5 0.0000 0.0000 0.0000 0.0000 35.3464 0.0000
# 6 0.0000 0.0000 0.0000 0.0000 0.0000 -3.8882
#
#
#
# Elastic Compliance Matrix: (Units=1/GPa)
#
#
# Indices 1 2 3 4 5 6 
#
# 1 0.013044 0.000233 -0.002649 0.000000 0.000000 0.000000
# 2 0.000233 0.010684 -0.004148 0.000000 0.000000 0.000000
# 3 -0.002649 -0.004148 0.008585 0.000000 0.000000 0.000000
# 4 0.000000 0.000000 0.000000 -0.295229 0.000000 0.000000
# 5 0.000000 0.000000 0.000000 0.000000 0.028291 0.000000
# 6 0.000000 0.000000 0.000000 0.000000 0.000000 -0.257188
#
#
# Mechanical properties :
#
#
# Convention : Reuss Voigt Hill
#
# Bulk Modulus (GPa) = 52.12442 61.41981 56.77212
# Shear Modulus (GPa) = -10.58668 22.54479 5.97905
#
# Velocity S-wave (km/s) = -2.22335 3.24452 1.67087
# Velocity P-wave (km/s) = 4.21279 6.53566 5.49830
#
# Compressibility (1/GPa) = 0.01918487
#
# Stress axis : x y z
#
# Youngs Moduli (GPa) = 76.66460 93.60199 116.48821
#
# Poissons Ratio (x) = -0.02184 0.30860
# Poissons Ratio (y) = -0.01789 0.48315
# Poissons Ratio (z) = 0.20310 0.38823
#
# Static dielectric constant tensor:
#      x y z
#    x 1.799360 0.000000 0.000000 
#    y 0.000000 1.728290 0.000000 
#    z 0.000000 0.000000 1.873070 
# 
# From -- ./inp_files/11395.got.cif
#   From: 2010.05.17/outbox.cif.g08.bks.cpg/sg21_6_cif.got.tgz:11395.got - 2010.06.03 23:14:55.
