data_PCOD9324909
_publ_section_title
;
Structure prediction by ZEFSAII (Michael W. Deem and Ramdas Pophale) SiO2 
 PCOD9324909
Probable space group: C 2 2 2
;
_chemical_formula_sum "Si O2"
_cell_formula_units_Z 26
_cell_length_a 24.159152
_cell_length_b 9.735942
_cell_length_c 4.992345
_cell_angle_alpha 90.000000
_cell_angle_beta 90.000000
_cell_angle_gamma 90.000000
_cell_volume 1174.259965
_symmetry_space_group_name_H-M "C 2 2 2"
_symmetry_group_IT_number 21
_symmetry_cell_setting 'orthorhombic'
loop_
_space_group_symop_operation_xyz
x,y,z
-x,-y,z
x,-y,-z
-x,y,-z
1/2+x,1/2+y,z
1/2-x,1/2-y,z
1/2+x,1/2-y,-z
1/2-x,1/2+y,-z
loop_
_atom_site_type_symbol
_atom_site_label
_atom_site_fract_x
_atom_site_fract_y
_atom_site_fract_z
Si Si1 0.250000 0.750000 0.709328
Si Si2 0.631199 0.649177 0.362533
Si Si3 0.192503 0.500000 0.000000
Si Si4 0.901257 0.310037 0.175531
Si Si5 0.500000 0.000000 0.000000
O O1 0.305904 0.697829 0.571292
O O2 0.230337 0.616666 0.872860
O O3 0.626246 0.500000 0.500000
O O4 0.591595 0.740560 0.540897
O O5 0.616525 0.696427 0.055774
O O6 0.149757 0.581992 0.188164
O O7 0.956432 0.395282 0.130306
#
# Coordination Sequence:
#
# PCOD9324909 Si02
#       5
#     4   8   4   8   2
#     4  10  24  36  68  92 144 190 220 270 338 400
#     4  11  25  41  65  98 143 172 224 273 334 409
#     4   9  22  39  62  98 130 175 232 267 328 410
#     4  10  24  44  67  99 126 174 232 282 330 402
#     4  10  24  50  78  90 132 174 232 298 344 384
#
# _framework density 22.141604999999998
#
# number of rings (size 3 to 8) (size 9 to 14) (size 15 to 20)
#    0.000    1.846    0.000    0.923   12.923   13.538 
#    0.000    4.615    0.000    0.000    0.000    0.000 
#    0.000    0.000    0.000    0.000    0.000    0.000 
#
# Total GULP energy -72404.731615 kJ/mol
# GULP energy per Si atom -5569.594740 kJ/mol
# Density = 2.209121 g / cm^3
# Si number density = 22.141605 Si / 1000 Ang^3
#
#
#
# Elastic Constant Matrix: (Units=GPa)
#
#
# Indices 1 2 3 4 5 6 
#
# 1 119.0823 38.5939 3.7741 0.0000 0.0000 0.0000
# 2 38.5939 129.4774 12.5860 0.0000 0.0000 0.0000
# 3 3.7741 12.5860 58.4485 0.0000 0.0000 0.0000
# 4 0.0000 0.0000 0.0000 -10.5654 0.0000 0.0000
# 5 0.0000 0.0000 0.0000 0.0000 14.9762 0.0000
# 6 0.0000 0.0000 0.0000 0.0000 0.0000 14.8220
#
#
#
# Elastic Compliance Matrix: (Units=1/GPa)
#
#
# Indices 1 2 3 4 5 6 
#
# 1 0.009296 -0.002770 -0.000004 0.000000 0.000000 0.000000
# 2 -0.002770 0.008714 -0.001698 0.000000 0.000000 0.000000
# 3 -0.000004 -0.001698 0.017475 0.000000 0.000000 0.000000
# 4 0.000000 0.000000 0.000000 -0.094649 0.000000 0.000000
# 5 0.000000 0.000000 0.000000 0.000000 0.066772 0.000000
# 6 0.000000 0.000000 0.000000 0.000000 0.000000 0.067467
#
#
# Mechanical properties :
#
#
# Convention : Reuss Voigt Hill
#
# Bulk Modulus (GPa) = 37.67716 46.32404 42.00060
# Shear Modulus (GPa) = 53.84087 20.65018 37.24553
#
# Velocity S-wave (km/s) = 4.93654 3.05723 4.10585
# Velocity P-wave (km/s) = 7.03889 5.78181 6.44109
#
# Compressibility (1/GPa) = 0.02654128
#
# Stress axis : x y z
#
# Youngs Moduli (GPa) = 107.57846 114.75580 57.22506
#
# Poissons Ratio (x) = 0.31792 0.00021
# Poissons Ratio (y) = 0.29804 0.09714
# Poissons Ratio (z) = 0.00039 0.19481
#
# Static dielectric constant tensor:
#      x y z
#    x 1.879460 0.000000 0.000000 
#    y 0.000000 1.884590 0.000000 
#    z 0.000000 0.000000 1.849910 
# 
# From -- ./inp_files/1177.got.cif
#   From: 2010.05.17/outbox.cif.g08.bks.cpg/sg21_1_cif.got.tgz:1177.got - 2010.06.03 23:14:55.
