data_PCOD9324861
_publ_section_title
;
Structure prediction by ZEFSAII (Michael W. Deem and Ramdas Pophale) SiO2 
 PCOD9324861
Probable space group: C 2 2 2
;
_chemical_formula_sum "Si O2"
_cell_formula_units_Z 34
_cell_length_a 14.120143
_cell_length_b 18.386777
_cell_length_c 6.820293
_cell_angle_alpha 90.000000
_cell_angle_beta 90.000000
_cell_angle_gamma 90.000000
_cell_volume 1770.711208
_symmetry_space_group_name_H-M "C 2 2 2"
_symmetry_group_IT_number 21
_symmetry_cell_setting 'orthorhombic'
loop_
_space_group_symop_operation_xyz
x,y,z
-x,-y,z
x,-y,-z
-x,y,-z
1/2+x,1/2+y,z
1/2-x,1/2-y,z
1/2+x,1/2-y,-z
1/2-x,1/2+y,-z
loop_
_atom_site_type_symbol
_atom_site_label
_atom_site_fract_x
_atom_site_fract_y
_atom_site_fract_z
Si Si1 0.256610 0.500000 0.000000
Si Si2 0.592149 0.611801 0.880954
Si Si3 0.084721 0.591398 0.846424
Si Si4 0.361708 0.742233 0.816031
Si Si5 0.500000 0.000000 0.500000
Si Si6 0.500000 0.327393 0.500000
O O1 0.325636 0.447664 0.878597
O O2 0.184716 0.554271 0.893970
O O3 0.558836 0.629088 0.662531
O O4 0.500000 0.585091 0.000000
O O5 0.622945 0.684588 0.004683
O O6 0.099522 0.677494 0.857752
O O7 0.056263 0.554872 0.641379
O O8 0.000000 0.575475 0.000000
O O9 0.250000 0.750000 0.775484
O O10 0.423038 0.715621 0.630257
#
# Coordination Sequence:
#
# PCOD9324861 Si02
#       6
#     4   8   8   8   2   4
#     4  12  22  44  70  92 134 176 216 268 340 400
#     4  10  23  45  67  96 130 173 219 283 333 393
#     4  12  24  44  64  97 136 175 218 274 336 397
#     4  11  23  43  70  96 132 179 225 271 335 400
#     4  12  24  40  64  92 134 172 220 272 330 390
#     4  10  23  44  67 100 132 166 228 284 325 383
#
# _framework density 19.201322999999999
#
# number of rings (size 3 to 8) (size 9 to 14) (size 15 to 20)
#    0.000    0.941    4.706    3.176    0.000    2.824 
#    4.235    4.706    0.000    0.000    0.000    0.000 
#    0.000    0.000    0.000    0.000    0.000    0.000 
#
# Total GULP energy -94832.245043 kJ/mol
# GULP energy per Si atom -5578.367355 kJ/mol
# Density = 1.915762 g / cm^3
# Si number density = 19.201323 Si / 1000 Ang^3
#
#
#
# Elastic Constant Matrix: (Units=GPa)
#
#
# Indices 1 2 3 4 5 6 
#
# 1 172.6165 70.0858 77.2770 0.0000 0.0000 0.0000
# 2 70.0858 142.3747 66.2559 0.0000 0.0000 0.0000
# 3 77.2770 66.2559 131.9435 0.0000 0.0000 0.0000
# 4 0.0000 0.0000 0.0000 -13.8269 0.0000 0.0000
# 5 0.0000 0.0000 0.0000 0.0000 21.0438 0.0000
# 6 0.0000 0.0000 0.0000 0.0000 0.0000 48.1816
#
#
#
# Elastic Compliance Matrix: (Units=1/GPa)
#
#
# Indices 1 2 3 4 5 6 
#
# 1 0.008447 -0.002422 -0.003731 0.000000 0.000000 0.000000
# 2 -0.002422 0.009860 -0.003533 0.000000 0.000000 0.000000
# 3 -0.003731 -0.003533 0.011538 0.000000 0.000000 0.000000
# 4 0.000000 0.000000 0.000000 -0.072323 0.000000 0.000000
# 5 0.000000 0.000000 0.000000 0.000000 0.047520 0.000000
# 6 0.000000 0.000000 0.000000 0.000000 0.000000 0.020755
#
#
# Mechanical properties :
#
#
# Convention : Reuss Voigt Hill
#
# Bulk Modulus (GPa) = 95.47726 97.13025 96.30375
# Shear Modulus (GPa) = 102.75500 26.63409 64.69455
#
# Velocity S-wave (km/s) = 7.32330 3.72842 5.81084
# Velocity P-wave (km/s) = 11.01544 8.32044 9.76139
#
# Compressibility (1/GPa) = 0.01047370
#
# Stress axis : x y z
#
# Youngs Moduli (GPa) = 118.38833 101.42099 86.66851
#
# Poissons Ratio (x) = 0.24562 0.32336
# Poissons Ratio (y) = 0.28671 0.30618
# Poissons Ratio (z) = 0.44171 0.35830
#
# Static dielectric constant tensor:
#      x y z
#    x 1.747420 0.000000 0.000000 
#    y 0.000000 1.698190 0.000000 
#    z 0.000000 0.000000 1.645390 
# 
# From -- ./inp_files/3572.got.cif
#   From: 2010.05.17/outbox.cif.g08.bks.cpg/sg21_2_cif.got.tgz:3572.got - 2010.06.03 23:14:55.
