data_PCOD9324741
_publ_section_title
;
Structure prediction by ZEFSAII (Michael W. Deem and Ramdas Pophale) SiO2 
 PCOD9324741
Probable space group: C 2 2 2
;
_chemical_formula_sum "Si O2"
_cell_formula_units_Z 40
_cell_length_a 13.264543
_cell_length_b 5.193881
_cell_length_c 23.553419
_cell_angle_alpha 90.000000
_cell_angle_beta 90.000000
_cell_angle_gamma 90.000000
_cell_volume 1622.700033
_symmetry_space_group_name_H-M "C 2 2 2"
_symmetry_group_IT_number 21
_symmetry_cell_setting 'orthorhombic'
loop_
_space_group_symop_operation_xyz
x,y,z
-x,-y,z
x,-y,-z
-x,y,-z
1/2+x,1/2+y,z
1/2-x,1/2-y,z
1/2+x,1/2-y,-z
1/2-x,1/2+y,-z
loop_
_atom_site_type_symbol
_atom_site_label
_atom_site_fract_x
_atom_site_fract_y
_atom_site_fract_z
Si Si1 0.750000 0.750000 0.801104
Si Si2 0.678667 0.502876 0.061127
Si Si3 0.360456 0.373043 0.271142
Si Si4 0.000000 0.000000 0.371761
Si Si5 0.594223 0.839030 0.155936
Si Si6 0.864915 0.748650 0.539597
O O1 0.665320 0.643234 0.758609
O O2 0.806502 0.523291 0.836156
O O3 0.750000 0.750000 0.055455
O O4 0.613725 0.589955 0.116039
O O5 0.750000 0.250000 0.064470
O O6 0.622589 0.500000 0.000000
O O7 0.250000 0.250000 0.277906
O O8 0.417265 0.381606 0.329893
O O9 0.423341 0.239653 0.221029
O O10 0.054846 0.790550 0.411060
O O11 0.500000 0.000000 0.133027
O O12 0.878751 0.500000 0.500000
O O13 0.750000 0.750000 0.562447
O O14 0.873324 0.000000 0.500000
#
# Coordination Sequence:
#
# PCOD9324741 Si02
#       6
#     4   8   8   4   8   8
#     4  10  22  46  74 110 160 210 250 318 406 476
#     4  10  23  45  79 110 147 208 268 330 401 480
#     4  10  24  44  69 116 161 200 259 322 396 472
#     4  12  25  46  78 116 153 206 256 326 380 472
#     4  11  24  44  78 115 158 206 263 330 404 482
#     4  10  25  52  78 109 152 205 257 314 382 455
#
# _framework density 24.650272000000001
#
# number of rings (size 3 to 8) (size 9 to 14) (size 15 to 20)
#    0.000    1.600    0.000    3.300    7.000    4.000 
#   14.400    2.000    8.800    1.800    0.000    0.000 
#    0.000    0.000    0.000    0.000    0.000    0.000 
#
# Total GULP energy -111834.005734 kJ/mol
# GULP energy per Si atom -5591.700287 kJ/mol
# Density = 2.459417 g / cm^3
# Si number density = 24.650272 Si / 1000 Ang^3
#
#
#
# Elastic Constant Matrix: (Units=GPa)
#
#
# Indices 1 2 3 4 5 6 
#
# 1 147.4174 55.2736 81.1310 0.0000 0.0000 0.0000
# 2 55.2736 166.3825 67.6617 0.0000 0.0000 0.0000
# 3 81.1310 67.6617 181.3584 0.0000 0.0000 0.0000
# 4 0.0000 0.0000 0.0000 41.2332 0.0000 0.0000
# 5 0.0000 0.0000 0.0000 0.0000 -157.7295 0.0000
# 6 0.0000 0.0000 0.0000 0.0000 0.0000 45.8874
#
#
#
# Elastic Compliance Matrix: (Units=1/GPa)
#
#
# Indices 1 2 3 4 5 6 
#
# 1 0.009373 -0.001661 -0.003573 0.000000 0.000000 0.000000
# 2 -0.001661 0.007379 -0.002010 0.000000 0.000000 0.000000
# 3 -0.003573 -0.002010 0.007862 0.000000 0.000000 0.000000
# 4 0.000000 0.000000 0.000000 0.024252 0.000000 0.000000
# 5 0.000000 0.000000 0.000000 0.000000 -0.006340 0.000000
# 6 0.000000 0.000000 0.000000 0.000000 0.000000 0.021792
#
#
# Mechanical properties :
#
#
# Convention : Reuss Voigt Hill
#
# Bulk Modulus (GPa) = 98.75359 100.36563 99.55961
# Shear Modulus (GPa) = 60.83976 5.28436 33.06206
#
# Velocity S-wave (km/s) = 4.97340 1.46574 3.66627
# Velocity P-wave (km/s) = 8.55152 6.60823 7.64190
#
# Compressibility (1/GPa) = 0.01012621
#
# Stress axis : x y z
#
# Youngs Moduli (GPa) = 106.69329 135.51248 127.18602
#
# Poissons Ratio (x) = 0.22502 0.45448
# Poissons Ratio (y) = 0.17717 0.25568
# Poissons Ratio (z) = 0.38125 0.27242
#
# Static dielectric constant tensor:
#      x y z
#    x 2.032410 0.000000 0.000000 
#    y 0.000000 2.010550 0.000000 
#    z 0.000000 0.000000 1.934660 
# 
# From -- ./inp_files/38695.got.cif
#   From: 2010.05.17/outbox.cif.g08.bks.cpg/sg21_20_cif.got.tgz:38695.got - 2010.06.03 23:14:55.
