data_PCOD9324687
_publ_section_title
;
Structure prediction by ZEFSAII (Michael W. Deem and Ramdas Pophale) SiO2 
 PCOD9324687
Probable space group: C 2 2 2
;
_chemical_formula_sum "Si O2"
_cell_formula_units_Z 36
_cell_length_a 13.491650
_cell_length_b 8.739614
_cell_length_c 14.375479
_cell_angle_alpha 90.000000
_cell_angle_beta 90.000000
_cell_angle_gamma 90.000000
_cell_volume 1695.038795
_symmetry_space_group_name_H-M "C 2 2 2"
_symmetry_group_IT_number 21
_symmetry_cell_setting 'orthorhombic'
loop_
_space_group_symop_operation_xyz
x,y,z
-x,-y,z
x,-y,-z
-x,y,-z
1/2+x,1/2+y,z
1/2-x,1/2-y,z
1/2+x,1/2-y,-z
1/2-x,1/2+y,-z
loop_
_atom_site_type_symbol
_atom_site_label
_atom_site_fract_x
_atom_site_fract_y
_atom_site_fract_z
Si Si1 0.500000 0.500000 0.659523
Si Si2 0.819719 0.106665 0.912461
Si Si3 0.859688 0.000000 0.500000
Si Si4 0.011273 0.737894 0.800134
Si Si5 0.250000 0.750000 0.379942
Si Si6 0.659147 0.966107 0.776701
O O1 0.420893 0.566010 0.587185
O O2 0.471785 0.360553 0.725854
O O3 0.750000 0.250000 0.938001
O O4 0.923324 0.170249 0.874024
O O5 0.756622 0.018387 0.832410
O O6 0.834225 0.000000 0.000000
O O7 0.806810 0.138601 0.449602
O O8 0.090936 0.616011 0.757355
O O9 0.916461 0.642363 0.834930
O O10 0.309510 0.866965 0.312474
#
# Coordination Sequence:
#
# PCOD9324687 Si02
#       6
#     4   8   4   8   4   8
#     4  11  22  44  61  94 140 168 231 290 344 419
#     4  10  23  42  71 104 139 179 234 293 344 427
#     4  11  26  38  64  99 128 172 232 293 340 426
#     4  10  22  44  69  97 131 192 229 277 358 430
#     4  12  24  44  68  98 134 182 226 300 360 414
#     4  10  23  44  70  94 137 188 231 281 359 426
#
# _framework density 21.238451999999999
#
# number of rings (size 3 to 8) (size 9 to 14) (size 15 to 20)
#    0.000    1.556    2.222    1.333    4.667    0.000 
#    0.000   13.889    0.000    0.000    0.000    0.000 
#    0.000    0.000    0.000    0.000    0.000    0.000 
#
# Total GULP energy -100436.673336 kJ/mol
# GULP energy per Si atom -5579.815185 kJ/mol
# Density = 2.119011 g / cm^3
# Si number density = 21.238452 Si / 1000 Ang^3
#
#
#
# Elastic Constant Matrix: (Units=GPa)
#
#
# Indices 1 2 3 4 5 6 
#
# 1 58.4527 37.1939 29.0816 0.0000 0.0000 0.0000
# 2 37.1939 126.0769 69.7405 0.0000 0.0000 0.0000
# 3 29.0816 69.7405 77.8799 0.0000 0.0000 0.0000
# 4 0.0000 0.0000 0.0000 51.0039 0.0000 0.0000
# 5 0.0000 0.0000 0.0000 0.0000 14.3280 0.0000
# 6 0.0000 0.0000 0.0000 0.0000 0.0000 36.6425
#
#
#
# Elastic Compliance Matrix: (Units=1/GPa)
#
#
# Indices 1 2 3 4 5 6 
#
# 1 0.021911 -0.003840 -0.004743 0.000000 0.000000 0.000000
# 2 -0.003840 0.016390 -0.013243 0.000000 0.000000 0.000000
# 3 -0.004743 -0.013243 0.026470 0.000000 0.000000 0.000000
# 4 0.000000 0.000000 0.000000 0.019606 0.000000 0.000000
# 5 0.000000 0.000000 0.000000 0.000000 0.069793 0.000000
# 6 0.000000 0.000000 0.000000 0.000000 0.000000 0.027291
#
#
# Mechanical properties :
#
#
# Convention : Reuss Voigt Hill
#
# Bulk Modulus (GPa) = 47.35103 59.38239 53.36671
# Shear Modulus (GPa) = 21.53736 28.82114 25.17925
#
# Velocity S-wave (km/s) = 3.18791 3.68778 3.44692
# Velocity P-wave (km/s) = 5.99113 6.79364 6.40497
#
# Compressibility (1/GPa) = 0.02111886
#
# Stress axis : x y z
#
# Youngs Moduli (GPa) = 45.63859 61.01223 37.77806
#
# Poissons Ratio (x) = 0.23431 0.17918
# Poissons Ratio (y) = 0.17527 0.50030
# Poissons Ratio (z) = 0.21646 0.80799
#
# Static dielectric constant tensor:
#      x y z
#    x 1.915600 0.000000 0.000000 
#    y 0.000000 1.811060 0.000000 
#    z 0.000000 0.000000 1.709540 
# 
# From -- ./inp_files/32030.got.cif
#   From: 2010.05.17/outbox.cif.g08.bks.cpg/sg21_17_cif.got.tgz:32030.got - 2010.06.03 23:14:55.
