data_PCOD9324418
_publ_section_title
;
Structure prediction by ZEFSAII (Michael W. Deem and Ramdas Pophale) SiO2 
 PCOD9324418
Probable space group: C 2 2 2
;
_chemical_formula_sum "Si O2"
_cell_formula_units_Z 38
_cell_length_a 17.054815
_cell_length_b 11.483222
_cell_length_c 8.238766
_cell_angle_alpha 90.000000
_cell_angle_beta 90.000000
_cell_angle_gamma 90.000000
_cell_volume 1613.514757
_symmetry_space_group_name_H-M "C 2 2 2"
_symmetry_group_IT_number 21
_symmetry_cell_setting 'orthorhombic'
loop_
_space_group_symop_operation_xyz
x,y,z
-x,-y,z
x,-y,-z
-x,y,-z
1/2+x,1/2+y,z
1/2-x,1/2-y,z
1/2+x,1/2-y,-z
1/2-x,1/2+y,-z
loop_
_atom_site_type_symbol
_atom_site_label
_atom_site_fract_x
_atom_site_fract_y
_atom_site_fract_z
Si Si1 0.144011 0.500000 0.500000
Si Si2 0.250000 0.250000 0.922572
Si Si3 0.300784 0.844925 0.763899
Si Si4 0.092220 0.670632 0.245463
Si Si5 0.556297 0.327206 0.751114
Si Si6 0.500000 0.500000 0.000000
Si Si7 0.500000 0.000000 0.000000
Si Si8 0.500000 0.500000 0.500000
O O1 0.191869 0.542577 0.656044
O O2 0.096984 0.606505 0.420293
O O3 0.173864 0.273163 0.813976
O O4 0.259006 0.147357 0.060947
O O5 0.250000 0.750000 0.666771
O O6 0.383855 0.778713 0.778026
O O7 0.029141 0.771350 0.255178
O O8 0.056268 0.578175 0.115012
O O9 0.557537 0.414268 0.599665
O O10 0.556117 0.415375 0.899991
#
# Coordination Sequence:
#
# PCOD9324418 Si02
#       8
#     4   4   8   8   8   2   2   2
#     4  12  26  46  76 111 143 198 244 316 406 438
#     4  10  24  46  66 102 146 190 234 308 366 444
#     4  10  25  46  68 103 149 182 248 308 376 454
#     4  12  25  45  77 105 147 186 252 313 376 454
#     4  11  22  45  68  98 141 178 239 296 353 441
#     4  10  22  38  70 100 128 198 224 290 360 438
#     4  12  26  46  78 110 140 200 246 304 392 458
#     4  10  24  40  64  98 124 186 222 266 366 420
#
# _framework density 23.551069999999999
#
# number of rings (size 3 to 8) (size 9 to 14) (size 15 to 20)
#    0.632    0.421    0.000    6.947    1.474    3.789 
#   11.368    1.053    0.000    0.000    0.000    0.000 
#    0.000    0.000    0.000    0.000    0.000    0.000 
#
# Total GULP energy -106035.906348 kJ/mol
# GULP energy per Si atom -5580.837176 kJ/mol
# Density = 2.349747 g / cm^3
# Si number density = 23.551070 Si / 1000 Ang^3
#
#
#
# Elastic Constant Matrix: (Units=GPa)
#
#
# Indices 1 2 3 4 5 6 
#
# 1 138.4187 39.7413 36.0404 0.0000 0.0000 0.0000
# 2 39.7413 88.0535 36.8956 0.0000 0.0000 0.0000
# 3 36.0404 36.8956 107.6937 0.0000 0.0000 0.0000
# 4 0.0000 0.0000 0.0000 -319.9714 0.0000 0.0000
# 5 0.0000 0.0000 0.0000 0.0000 9.1379 0.0000
# 6 0.0000 0.0000 0.0000 0.0000 0.0000 6.3629
#
#
#
# Elastic Compliance Matrix: (Units=1/GPa)
#
#
# Indices 1 2 3 4 5 6 
#
# 1 0.008591 -0.003121 -0.001806 0.000000 0.000000 0.000000
# 2 -0.003121 0.014394 -0.003887 0.000000 0.000000 0.000000
# 3 -0.001806 -0.003887 0.011222 0.000000 0.000000 0.000000
# 4 0.000000 0.000000 0.000000 -0.003125 0.000000 0.000000
# 5 0.000000 0.000000 0.000000 0.000000 0.109434 0.000000
# 6 0.000000 0.000000 0.000000 0.000000 0.000000 0.157160
#
#
# Mechanical properties :
#
#
# Convention : Reuss Voigt Hill
#
# Bulk Modulus (GPa) = 60.31603 62.16895 61.24249
# Shear Modulus (GPa) = 15.58468 -46.12819 -15.27175
#
# Velocity S-wave (km/s) = 2.57522 -4.43046 -2.54924
# Velocity P-wave (km/s) = 5.87441 0.53184 4.17082
#
# Compressibility (1/GPa) = 0.01657934
#
# Stress axis : x y z
#
# Youngs Moduli (GPa) = 116.40670 69.47424 89.11398
#
# Poissons Ratio (x) = 0.21680 0.16092
# Poissons Ratio (y) = 0.36325 0.34638
# Poissons Ratio (z) = 0.21021 0.27004
#
# Static dielectric constant tensor:
#      x y z
#    x 2.979910 0.000000 0.000000 
#    y 0.000000 2.058450 0.000000 
#    z 0.000000 0.000000 1.982080 
# 
# From -- ./inp_files/16179.got.cif
#   From: 2010.05.17/outbox.cif.g08.bks.cpg/sg21_9_cif.got.tgz:16179.got - 2010.06.03 23:14:55.
