data_PCOD9324319
_publ_section_title
;
Structure prediction by ZEFSAII (Michael W. Deem and Ramdas Pophale) SiO2 
 PCOD9324319
Probable space group: C 2 2 2
;
_chemical_formula_sum "Si O2"
_cell_formula_units_Z 58
_cell_length_a 11.071349
_cell_length_b 27.828388
_cell_length_c 8.929090
_cell_angle_alpha 90.000000
_cell_angle_beta 90.000000
_cell_angle_gamma 90.000000
_cell_volume 2751.032946
_symmetry_space_group_name_H-M "C 2 2 2"
_symmetry_group_IT_number 21
_symmetry_cell_setting 'orthorhombic'
loop_
_space_group_symop_operation_xyz
x,y,z
-x,-y,z
x,-y,-z
-x,y,-z
1/2+x,1/2+y,z
1/2-x,1/2-y,z
1/2+x,1/2-y,-z
1/2-x,1/2+y,-z
loop_
_atom_site_type_symbol
_atom_site_label
_atom_site_fract_x
_atom_site_fract_y
_atom_site_fract_z
Si Si1 0.732834 0.693243 0.658634
Si Si2 0.386105 0.750066 0.900770
Si Si3 0.862088 0.638892 0.147516
Si Si4 0.797945 0.571151 0.870584
Si Si5 0.633917 0.335460 0.664154
Si Si6 0.000000 0.500000 0.000000
Si Si7 0.072003 0.876230 0.154582
Si Si8 0.570831 0.118159 0.352796
O O1 0.750000 0.750000 0.673951
O O2 0.659347 0.679376 0.506741
O O3 0.665602 0.666475 0.796432
O O4 0.865622 0.669934 0.640417
O O5 0.250000 0.750000 0.967592
O O6 0.401729 0.806020 0.866460
O O7 0.383678 0.714202 0.758878
O O8 0.500000 0.736170 0.000000
O O9 0.752586 0.640150 0.264729
O O10 0.975349 0.613469 0.220340
O O11 0.826079 0.612686 0.995111
O O12 0.651041 0.575172 0.870551
O O13 0.822570 0.583818 0.697317
O O14 0.898370 0.530912 0.908934
O O15 0.525731 0.371041 0.711744
O O16 0.000000 0.867702 0.000000
O O17 0.500000 0.106867 0.500000
#
# Coordination Sequence:
#
# PCOD9324319 Si02
#       8
#     8   8   8   8   8   2   8   8
#     4  11  25  41  57  93 137 192 246 284 321 376
#     4  10  22  34  56  90 129 182 236 282 327 368
#     4  11  20  40  62  89 131 175 222 281 334 398
#     4  11  24  44  71 100 127 163 211 280 358 435
#     4  11  22  40  61  86 139 192 234 281 318 376
#     4  12  24  48  80 104 132 148 206 290 380 436
#     4  11  24  44  64  93 131 180 232 278 341 412
#     4  11  22  38  63  94 129 174 222 273 340 393
#
# _framework density 21.082991
#
# number of rings (size 3 to 8) (size 9 to 14) (size 15 to 20)
#    0.000    1.103    4.138    2.897    3.862    0.000 
#    4.966    0.690    0.000    0.000    0.000    0.000 
#    4.138    0.000    0.000    0.000    0.000    0.000 
#
# Total GULP energy -161566.480736 kJ/mol
# GULP energy per Si atom -5571.257956 kJ/mol
# Density = 2.103501 g / cm^3
# Si number density = 21.082991 Si / 1000 Ang^3
#
#
#
# Elastic Constant Matrix: (Units=GPa)
#
#
# Indices 1 2 3 4 5 6 
#
# 1 116.2576 24.3865 49.8075 0.0000 0.0000 0.0000
# 2 24.3865 54.6547 14.1100 0.0000 0.0000 0.0000
# 3 49.8075 14.1100 96.5464 0.0000 0.0000 0.0000
# 4 0.0000 0.0000 0.0000 -39.6372 0.0000 0.0000
# 5 0.0000 0.0000 0.0000 0.0000 39.4680 0.0000
# 6 0.0000 0.0000 0.0000 0.0000 0.0000 24.5273
#
#
#
# Elastic Compliance Matrix: (Units=1/GPa)
#
#
# Indices 1 2 3 4 5 6 
#
# 1 0.011765 -0.003827 -0.005510 0.000000 0.000000 0.000000
# 2 -0.003827 0.020259 -0.000987 0.000000 0.000000 0.000000
# 3 -0.005510 -0.000987 0.013345 0.000000 0.000000 0.000000
# 4 0.000000 0.000000 0.000000 -0.025229 0.000000 0.000000
# 5 0.000000 0.000000 0.000000 0.000000 0.025337 0.000000
# 6 0.000000 0.000000 0.000000 0.000000 0.000000 0.040771
#
#
# Mechanical properties :
#
#
# Convention : Reuss Voigt Hill
#
# Bulk Modulus (GPa) = 40.45102 49.34074 44.89588
# Shear Modulus (GPa) = 43.42721 16.81526 30.12124
#
# Velocity S-wave (km/s) = 4.54345 2.82720 3.78391
# Velocity P-wave (km/s) = 6.83755 5.84049 6.35860
#
# Compressibility (1/GPa) = 0.02472125
#
# Stress axis : x y z
#
# Youngs Moduli (GPa) = 84.99766 49.36099 74.93698
#
# Poissons Ratio (x) = 0.18890 0.41292
# Poissons Ratio (y) = 0.32528 0.07393
# Poissons Ratio (z) = 0.46835 0.04870
#
# Static dielectric constant tensor:
#      x y z
#    x 2.007690 0.000000 0.000000 
#    y 0.000000 1.838610 0.000000 
#    z 0.000000 0.000000 1.833240 
# 
# From -- ./inp_files/13537.got.cif
#   From: 2010.05.17/outbox.cif.g08.bks.cpg/sg21_7_cif.got.tgz:13537.got - 2010.06.03 23:14:55.
