data_PCOD9324179
_publ_section_title
;
Structure prediction by ZEFSAII (Michael W. Deem and Ramdas Pophale) SiO2 
 PCOD9324179
Probable space group: C 2 2 2
;
_chemical_formula_sum "Si O2"
_cell_formula_units_Z 58
_cell_length_a 11.058112
_cell_length_b 9.237928
_cell_length_c 27.921887
_cell_angle_alpha 90.000000
_cell_angle_beta 90.000000
_cell_angle_gamma 90.000000
_cell_volume 2852.333630
_symmetry_space_group_name_H-M "C 2 2 2"
_symmetry_group_IT_number 21
_symmetry_cell_setting 'orthorhombic'
loop_
_space_group_symop_operation_xyz
x,y,z
-x,-y,z
x,-y,-z
-x,y,-z
1/2+x,1/2+y,z
1/2-x,1/2-y,z
1/2+x,1/2-y,-z
1/2-x,1/2+y,-z
loop_
_atom_site_type_symbol
_atom_site_label
_atom_site_fract_x
_atom_site_fract_y
_atom_site_fract_z
Si Si1 0.868560 0.183841 0.162377
Si Si2 0.092057 0.635585 0.258245
Si Si3 0.368949 0.661729 0.981013
Si Si4 0.266237 0.018921 0.335646
Si Si5 0.000000 0.500000 0.500000
Si Si6 0.861954 0.850612 0.133980
Si Si7 0.453569 0.713273 0.657087
Si Si8 0.632509 0.818485 0.579817
O O1 0.750000 0.250000 0.136445
O O2 0.874348 0.271790 0.212268
O O3 0.004149 0.210341 0.143674
O O4 0.853267 0.009214 0.158821
O O5 0.203441 0.559931 0.285862
O O6 0.000000 0.500000 0.248341
O O7 0.033309 0.745787 0.296805
O O8 0.250000 0.750000 0.996645
O O9 0.360702 0.644143 0.923610
O O10 0.360662 0.500000 0.000000
O O11 0.500000 0.719744 0.000000
O O12 0.356630 0.154594 0.342188
O O13 0.129065 0.071803 0.338770
O O14 0.308256 0.915589 0.378219
O O15 0.072576 0.402755 0.536979
O O16 0.750000 0.750000 0.150146
O O17 0.533930 0.724672 0.609164
O O18 0.750000 0.750000 0.557054
#
# Coordination Sequence:
#
# PCOD9324179 Si02
#       8
#     8   8   8   8   2   8   8   8
#     4  11  24  40  64  91 126 181 228 266 326 386
#     4   9  20  36  58  96 128 163 215 270 315 371
#     4  10  21  40  68  98 130 164 214 278 336 396
#     4   9  18  38  65  92 121 157 202 256 311 367
#     4  12  24  44  60  88 132 156 196 248 304 380
#     4  10  25  45  62  93 136 178 221 273 332 397
#     4   9  18  39  66  90 121 160 199 255 320 362
#     4  11  23  39  63  91 118 158 197 242 305 374
#
# _framework density 20.334226999999998
#
# number of rings (size 3 to 8) (size 9 to 14) (size 15 to 20)
#    0.000    2.069    1.379    2.483    1.931    8.552 
#    2.483    2.759    0.000    0.000    0.000    0.000 
#    0.000    0.000    0.000    0.000    0.000    0.000 
#
# Total GULP energy -161736.368994 kJ/mol
# GULP energy per Si atom -5577.116172 kJ/mol
# Density = 2.028795 g / cm^3
# Si number density = 20.334227 Si / 1000 Ang^3
#
#
#
# Elastic Constant Matrix: (Units=GPa)
#
#
# Indices 1 2 3 4 5 6 
#
# 1 191.6056 79.7850 47.9713 0.0000 0.0000 0.0000
# 2 79.7850 78.0226 50.1585 0.0000 0.0000 0.0000
# 3 47.9713 50.1585 82.7110 0.0000 0.0000 0.0000
# 4 0.0000 0.0000 0.0000 3.3181 0.0000 0.0000
# 5 0.0000 0.0000 0.0000 0.0000 45.5637 0.0000
# 6 0.0000 0.0000 0.0000 0.0000 0.0000 58.1890
#
#
#
# Elastic Compliance Matrix: (Units=1/GPa)
#
#
# Indices 1 2 3 4 5 6 
#
# 1 0.009107 -0.009698 0.000599 0.000000 0.000000 0.000000
# 2 -0.009698 0.031334 -0.013377 0.000000 0.000000 0.000000
# 3 0.000599 -0.013377 0.019855 0.000000 0.000000 0.000000
# 4 0.000000 0.000000 0.000000 0.301378 0.000000 0.000000
# 5 0.000000 0.000000 0.000000 0.000000 0.021947 0.000000
# 6 0.000000 0.000000 0.000000 0.000000 0.000000 0.017185
#
#
# Mechanical properties :
#
#
# Convention : Reuss Voigt Hill
#
# Bulk Modulus (GPa) = 65.17163 78.68542 71.92853
# Shear Modulus (GPa) = 11.08958 33.04244 22.06601
#
# Velocity S-wave (km/s) = 2.33784 4.03546 3.29776
# Velocity P-wave (km/s) = 6.27751 7.77774 7.06755
#
# Compressibility (1/GPa) = 0.01534410
#
# Stress axis : x y z
#
# Youngs Moduli (GPa) = 109.79978 31.91425 50.36528
#
# Poissons Ratio (x) = 0.30952 -0.03018
# Poissons Ratio (y) = 1.06489 0.67373
# Poissons Ratio (z) = -0.06579 0.42691
#
# Static dielectric constant tensor:
#      x y z
#    x 2.252650 0.000000 0.000000 
#    y 0.000000 1.981700 0.000000 
#    z 0.000000 0.000000 1.699680 
# 
# From -- ./inp_files/39265.got.cif
#   From: 2010.05.17/outbox.cif.g08.bks.cpg/sg21_20_cif.got.tgz:39265.got - 2010.06.03 23:14:55.
