data_PCOD9324787
_publ_section_title
;
Structure prediction by ZEFSAII (Michael W. Deem and Ramdas Pophale) SiO2 
 PCOD9324787
Probable space group: C 2 2 2
;
_chemical_formula_sum "Si O2"
_cell_formula_units_Z 32
_cell_length_a 6.916881
_cell_length_b 15.574463
_cell_length_c 13.513074
_cell_angle_alpha 90.000000
_cell_angle_beta 90.000000
_cell_angle_gamma 90.000000
_cell_volume 1455.718966
_symmetry_space_group_name_H-M "C 2 2 2"
_symmetry_group_IT_number 21
_symmetry_cell_setting 'orthorhombic'
loop_
_space_group_symop_operation_xyz
x,y,z
-x,-y,z
x,-y,-z
-x,y,-z
1/2+x,1/2+y,z
1/2-x,1/2-y,z
1/2+x,1/2-y,-z
1/2-x,1/2+y,-z
loop_
_atom_site_type_symbol
_atom_site_label
_atom_site_fract_x
_atom_site_fract_y
_atom_site_fract_z
Si Si1 0.832681 0.065319 0.368546
Si Si2 0.000000 0.500000 0.000000
Si Si3 0.000000 0.500000 0.500000
Si Si4 0.976204 0.251838 0.614407
Si Si5 0.325667 0.432777 0.858680
Si Si6 0.750000 0.250000 0.213914
O O1 0.785753 0.042969 0.255074
O O2 0.931160 0.157102 0.383772
O O3 0.642505 0.054190 0.432108
O O4 0.000000 0.000000 0.397649
O O5 0.855553 0.552974 0.929864
O O6 0.750000 0.250000 0.635154
O O7 0.000000 0.281123 0.500000
O O8 0.088970 0.290197 0.710034
O O9 0.500000 0.500000 0.887003
O O10 0.348138 0.328146 0.847917
#
# Coordination Sequence:
#
# PCOD9324787 Si02
#       6
#     8   2   2   8   8   4
#     4  10  23  40  63  97 139 185 237 295 357 427
#     4  12  24  48  80 104 126 188 232 308 396 444
#     4  12  20  36  64 100 140 184 246 300 344 424
#     4  11  22  38  62  96 143 192 243 287 343 425
#     4  10  24  47  70 103 143 182 241 304 374 454
#     4  10  24  44  70 108 144 198 240 300 376 428
#
# _framework density 21.982265000000002
#
# number of rings (size 3 to 8) (size 9 to 14) (size 15 to 20)
#    0.000    1.500    1.250    3.000    0.000   14.000 
#    6.750    0.000    0.000    0.000    0.000    0.000 
#    0.000    0.000    0.000    0.000    0.000    0.000 
#
# Total GULP energy -89221.121932 kJ/mol
# GULP energy per Si atom -5576.320121 kJ/mol
# Density = 2.193223 g / cm^3
# Si number density = 21.982265 Si / 1000 Ang^3
#
#
#
# Elastic Constant Matrix: (Units=GPa)
#
#
# Indices 1 2 3 4 5 6 
#
# 1 187.0817 53.3031 59.9227 0.0000 0.0000 0.0000
# 2 53.3031 123.1564 36.4274 0.0000 0.0000 0.0000
# 3 59.9227 36.4274 132.1617 0.0000 0.0000 0.0000
# 4 0.0000 0.0000 0.0000 2.7646 0.0000 0.0000
# 5 0.0000 0.0000 0.0000 0.0000 56.5432 0.0000
# 6 0.0000 0.0000 0.0000 0.0000 0.0000 30.2851
#
#
#
# Elastic Compliance Matrix: (Units=1/GPa)
#
#
# Indices 1 2 3 4 5 6 
#
# 1 0.006759 -0.002198 -0.002459 0.000000 0.000000 0.000000
# 2 -0.002198 0.009555 -0.001637 0.000000 0.000000 0.000000
# 3 -0.002459 -0.001637 0.009133 0.000000 0.000000 0.000000
# 4 0.000000 0.000000 0.000000 0.361719 0.000000 0.000000
# 5 0.000000 0.000000 0.000000 0.000000 0.017686 0.000000
# 6 0.000000 0.000000 0.000000 0.000000 0.000000 0.033020
#
#
# Mechanical properties :
#
#
# Convention : Reuss Voigt Hill
#
# Bulk Modulus (GPa) = 77.76618 82.41179 80.08899
# Shear Modulus (GPa) = 10.99516 37.43503 24.21509
#
# Velocity S-wave (km/s) = 2.23890 4.13118 3.32260
# Velocity P-wave (km/s) = 6.49131 7.76705 7.15766
#
# Compressibility (1/GPa) = 0.01285906
#
# Stress axis : x y z
#
# Youngs Moduli (GPa) = 147.94893 104.65350 109.49890
#
# Poissons Ratio (x) = 0.23004 0.26923
# Poissons Ratio (y) = 0.32521 0.17926
# Poissons Ratio (z) = 0.36377 0.17132
#
# Static dielectric constant tensor:
#      x y z
#    x 1.835960 0.000000 0.000000 
#    y 0.000000 1.926110 0.000000 
#    z 0.000000 0.000000 1.828420 
# 
# From -- ./inp_files/28773.got.cif
#   From: 2010.05.17/outbox.cif.g08.bks.cpg/sg21_15_cif.got.tgz:28773.got - 2010.06.03 23:14:55.
