data_PCOD9324450
_publ_section_title
;
Structure prediction by ZEFSAII (Michael W. Deem and Ramdas Pophale) SiO2 
 PCOD9324450
Probable space group: C 2 2 2
;
_chemical_formula_sum "Si O2"
_cell_formula_units_Z 26
_cell_length_a 8.240682
_cell_length_b 17.276154
_cell_length_c 7.114926
_cell_angle_alpha 90.000000
_cell_angle_beta 90.000000
_cell_angle_gamma 90.000000
_cell_volume 1012.932742
_symmetry_space_group_name_H-M "C 2 2 2"
_symmetry_group_IT_number 21
_symmetry_cell_setting 'orthorhombic'
loop_
_space_group_symop_operation_xyz
x,y,z
-x,-y,z
x,-y,-z
-x,y,-z
1/2+x,1/2+y,z
1/2-x,1/2-y,z
1/2+x,1/2-y,-z
1/2-x,1/2+y,-z
loop_
_atom_site_type_symbol
_atom_site_label
_atom_site_fract_x
_atom_site_fract_y
_atom_site_fract_z
Si Si1 0.840064 0.624342 0.243603
Si Si2 0.000000 0.500000 0.500000
Si Si3 0.992835 0.909217 0.771595
Si Si4 0.179765 0.332793 0.828568
O O1 0.651958 0.638809 0.290980
O O2 0.890280 0.550045 0.361313
O O3 0.003226 0.676424 0.265245
O O4 0.836588 0.616218 0.017133
O O5 0.821073 0.873527 0.711285
O O6 0.000000 0.000000 0.721266
O O7 0.000000 0.905307 0.000000
O O8 0.250000 0.250000 0.888048
#
# Coordination Sequence:
#
# PCOD9324450 Si02
#       4
#     8   2   8   8
#     4  10  23  38  67  93 139 178 217 288 334 419
#     4  12  24  46  62 104 148 184 218 264 378 438
#     4   9  18  34  60  97 126 166 221 287 342 387
#     4  10  22  39  68 104 128 173 242 293 340 388
#
# _framework density 25.668040000000001
#
# number of rings (size 3 to 8) (size 9 to 14) (size 15 to 20)
#    0.000    2.154    0.000    1.846   12.923    9.846 
#    0.000    8.462    0.000    0.000    0.000    0.000 
#    0.000    0.000    0.000    0.000    0.000    0.000 
#
# Total GULP energy -72514.603949 kJ/mol
# GULP energy per Si atom -5578.046458 kJ/mol
# Density = 2.560962 g / cm^3
# Si number density = 25.668040 Si / 1000 Ang^3
#
#
#
# Elastic Constant Matrix: (Units=GPa)
#
#
# Indices 1 2 3 4 5 6 
#
# 1 284.5199 59.3342 9.8327 0.0000 0.0000 0.0000
# 2 59.3342 71.0096 39.9168 0.0000 0.0000 0.0000
# 3 9.8327 39.9168 131.9306 0.0000 0.0000 0.0000
# 4 0.0000 0.0000 0.0000 -6.3018 0.0000 0.0000
# 5 0.0000 0.0000 0.0000 0.0000 -7.3713 0.0000
# 6 0.0000 0.0000 0.0000 0.0000 0.0000 24.4483
#
#
#
# Elastic Compliance Matrix: (Units=1/GPa)
#
#
# Indices 1 2 3 4 5 6 
#
# 1 0.004350 -0.004160 0.000934 0.000000 0.000000 0.000000
# 2 -0.004160 0.020947 -0.006028 0.000000 0.000000 0.000000
# 3 0.000934 -0.006028 0.009334 0.000000 0.000000 0.000000
# 4 0.000000 0.000000 0.000000 -0.158685 0.000000 0.000000
# 5 0.000000 0.000000 0.000000 0.000000 -0.135661 0.000000
# 6 0.000000 0.000000 0.000000 0.000000 0.000000 0.040903
#
#
# Mechanical properties :
#
#
# Convention : Reuss Voigt Hill
#
# Bulk Modulus (GPa) = 62.01819 78.40305 70.21062
# Shear Modulus (GPa) = -25.65001 27.38013 0.86506
#
# Velocity S-wave (km/s) = -3.16460 3.26958 0.58116
# Velocity P-wave (km/s) = 3.29563 6.69812 5.27855
#
# Compressibility (1/GPa) = 0.01612430
#
# Stress axis : x y z
#
# Youngs Moduli (GPa) = 229.88883 47.73972 107.13731
#
# Poissons Ratio (x) = 0.19860 -0.10011
# Poissons Ratio (y) = 0.95634 0.64578
# Poissons Ratio (z) = -0.21482 0.28776
#
# Static dielectric constant tensor:
#      x y z
#    x 2.115070 0.000000 0.000000 
#    y 0.000000 2.016070 0.000000 
#    z 0.000000 0.000000 2.010710 
# 
# From -- ./inp_files/10123.got.cif
#   From: 2010.05.17/outbox.cif.g08.bks.cpg/sg21_6_cif.got.tgz:10123.got - 2010.06.03 23:14:55.
