data_PCOD9324945
_publ_section_title
;
Structure prediction by ZEFSAII (Michael W. Deem and Ramdas Pophale) SiO2 
 PCOD9324945
Probable space group: C 2 2 2
;
_chemical_formula_sum "Si O2"
_cell_formula_units_Z 56
_cell_length_a 8.632642
_cell_length_b 18.963355
_cell_length_c 15.563925
_cell_angle_alpha 90.000000
_cell_angle_beta 90.000000
_cell_angle_gamma 90.000000
_cell_volume 2547.874519
_symmetry_space_group_name_H-M "C 2 2 2"
_symmetry_group_IT_number 21
_symmetry_cell_setting 'orthorhombic'
loop_
_space_group_symop_operation_xyz
x,y,z
-x,-y,z
x,-y,-z
-x,y,-z
1/2+x,1/2+y,z
1/2-x,1/2-y,z
1/2+x,1/2-y,-z
1/2-x,1/2+y,-z
loop_
_atom_site_type_symbol
_atom_site_label
_atom_site_fract_x
_atom_site_fract_y
_atom_site_fract_z
Si Si1 0.926422 0.275417 0.593412
Si Si2 0.818617 0.325564 0.016777
Si Si3 0.880484 0.191458 0.264197
Si Si4 0.325367 0.327420 0.163253
Si Si5 0.671515 0.470666 0.286719
Si Si6 0.379648 0.909382 0.701745
Si Si7 0.620284 0.052986 0.146655
O O1 0.750000 0.250000 0.590164
O O2 0.931714 0.354772 0.630044
O O3 0.000000 0.270550 0.500000
O O4 0.016878 0.226469 0.660906
O O5 0.750000 0.250000 0.039616
O O6 0.821391 0.383555 0.090112
O O7 0.729933 0.352037 0.930759
O O8 0.000000 0.313473 0.000000
O O9 0.750000 0.250000 0.245877
O O10 0.825734 0.114101 0.296046
O O11 0.993128 0.178849 0.182673
O O12 0.250000 0.250000 0.169816
O O13 0.252294 0.371399 0.240924
O O14 0.500000 0.500000 0.302185
O O15 0.799455 0.519413 0.334242
O O16 0.729313 0.482603 0.188283
O O17 0.516093 0.922029 0.771418
O O18 0.500000 0.000000 0.101201
#
# Coordination Sequence:
#
# PCOD9324945 Si02
#       7
#     8   8   8   8   8   8   8
#     4  12  24  43  73 113 146 183 236 297 358 432
#     4  11  25  42  64  99 135 179 241 301 361 414
#     4  12  24  43  75 106 140 187 243 296 360 439
#     4  11  21  41  71  98 137 188 234 299 357 424
#     4  11  23  40  69 101 134 183 243 289 352 432
#     4  11  20  45  71  99 137 188 232 292 359 434
#     4  10  24  42  66  95 137 190 242 289 364 443
#
# _framework density 21.979105000000001
#
# number of rings (size 3 to 8) (size 9 to 14) (size 15 to 20)
#    0.000    0.857    5.714    1.286    0.000    4.286 
#    0.000    0.000    3.143   26.571    0.000    0.000 
#    0.000    0.000    0.000    0.000    0.000    0.000 
#
# Total GULP energy -156538.580212 kJ/mol
# GULP energy per Si atom -5590.663579 kJ/mol
# Density = 2.192908 g / cm^3
# Si number density = 21.979105 Si / 1000 Ang^3
#
#
#
# Elastic Constant Matrix: (Units=GPa)
#
#
# Indices 1 2 3 4 5 6 
#
# 1 121.8889 31.0688 53.3153 0.0000 0.0000 0.0000
# 2 31.0688 109.7549 20.8907 0.0000 0.0000 0.0000
# 3 53.3153 20.8907 83.8149 0.0000 0.0000 0.0000
# 4 0.0000 0.0000 0.0000 -9.3235 0.0000 0.0000
# 5 0.0000 0.0000 0.0000 0.0000 26.5677 0.0000
# 6 0.0000 0.0000 0.0000 0.0000 0.0000 47.5042
#
#
#
# Elastic Compliance Matrix: (Units=1/GPa)
#
#
# Indices 1 2 3 4 5 6 
#
# 1 0.011772 -0.002002 -0.006989 0.000000 0.000000 0.000000
# 2 -0.002002 0.009905 -0.001195 0.000000 0.000000 0.000000
# 3 -0.006989 -0.001195 0.016675 0.000000 0.000000 0.000000
# 4 0.000000 0.000000 0.000000 -0.107256 0.000000 0.000000
# 5 0.000000 0.000000 0.000000 0.000000 0.037640 0.000000
# 6 0.000000 0.000000 0.000000 0.000000 0.000000 0.021051
#
#
# Mechanical properties :
#
#
# Convention : Reuss Voigt Hill
#
# Bulk Modulus (GPa) = 55.62051 58.44535 57.03293
# Shear Modulus (GPa) = 309.56040 26.96195 168.26118
#
# Velocity S-wave (km/s) = 11.88061 3.50624 8.75907
# Velocity P-wave (km/s) = 14.61367 6.56054 11.32696
#
# Compressibility (1/GPa) = 0.01797898
#
# Stress axis : x y z
#
# Youngs Moduli (GPa) = 84.95091 100.95449 59.97094
#
# Poissons Ratio (x) = 0.20210 0.41913
# Poissons Ratio (y) = 0.17007 0.07169
# Poissons Ratio (z) = 0.59372 0.12069
#
# Static dielectric constant tensor:
#      x y z
#    x 1.860140 0.000000 0.000000 
#    y 0.000000 1.908880 0.000000 
#    z 0.000000 0.000000 1.787140 
# 
# From -- ./inp_files/30752.got.cif
#   From: 2010.05.17/outbox.cif.g08.bks.cpg/sg21_16_cif.got.tgz:30752.got - 2010.06.03 23:14:55.
