data_PCOD9324694
_publ_section_title
;
Structure prediction by ZEFSAII (Michael W. Deem and Ramdas Pophale) SiO2 
 PCOD9324694
Probable space group: C 2 2 2
;
_chemical_formula_sum "Si O2"
_cell_formula_units_Z 32
_cell_length_a 4.995195
_cell_length_b 16.407487
_cell_length_c 15.760658
_cell_angle_alpha 90.000000
_cell_angle_beta 90.000000
_cell_angle_gamma 90.000000
_cell_volume 1291.721418
_symmetry_space_group_name_H-M "C 2 2 2"
_symmetry_group_IT_number 21
_symmetry_cell_setting 'orthorhombic'
loop_
_space_group_symop_operation_xyz
x,y,z
-x,-y,z
x,-y,-z
-x,y,-z
1/2+x,1/2+y,z
1/2-x,1/2-y,z
1/2+x,1/2-y,-z
1/2-x,1/2+y,-z
loop_
_atom_site_type_symbol
_atom_site_label
_atom_site_fract_x
_atom_site_fract_y
_atom_site_fract_z
Si Si1 0.134205 0.912301 0.326362
Si Si2 0.754525 0.040917 0.906407
Si Si3 0.155204 0.341096 0.410872
Si Si4 0.495346 0.695375 0.837551
O O1 0.441489 0.892114 0.352970
O O2 0.940884 0.884412 0.403486
O O3 0.090723 0.856087 0.243205
O O4 0.000000 0.000000 0.310552
O O5 0.839487 0.134893 0.904312
O O6 0.500000 0.000000 0.862795
O O7 0.000000 0.000000 0.862264
O O8 0.746676 0.000000 0.000000
O O9 0.250000 0.250000 0.385349
O O10 0.000000 0.334756 0.500000
O O11 0.250000 0.750000 0.808388
O O12 0.750000 0.750000 0.868419
#
# Coordination Sequence:
#
# PCOD9324694 Si02
#       4
#     8   8   8   8
#     4  12  26  43  67  99 138 185 237 294 355 422
#     4  10  22  44  71  99 136 179 223 281 351 425
#     4  12  25  44  69  98 138 186 236 294 358 421
#     4  12  25  43  70 103 139 180 234 293 353 420
#
# _framework density 24.773142
#
# number of rings (size 3 to 8) (size 9 to 14) (size 15 to 20)
#    0.000    0.500    0.000    9.750    0.000    5.000 
#    0.000   10.000    0.000    0.000    0.000    0.000 
#    0.000    0.000    0.000    0.000    0.000    0.000 
#
# Total GULP energy -89068.303156 kJ/mol
# GULP energy per Si atom -5566.768947 kJ/mol
# Density = 2.471676 g / cm^3
# Si number density = 24.773142 Si / 1000 Ang^3
#
#
#
# Elastic Constant Matrix: (Units=GPa)
#
#
# Indices 1 2 3 4 5 6 
#
# 1 207.5789 41.5121 9.2155 0.0000 0.0000 0.0000
# 2 41.5121 135.1343 40.5797 0.0000 0.0000 0.0000
# 3 9.2155 40.5797 92.8642 0.0000 0.0000 0.0000
# 4 0.0000 0.0000 0.0000 -0.6528 0.0000 0.0000
# 5 0.0000 0.0000 0.0000 0.0000 284.6070 0.0000
# 6 0.0000 0.0000 0.0000 0.0000 0.0000 80.3027
#
#
#
# Elastic Compliance Matrix: (Units=1/GPa)
#
#
# Indices 1 2 3 4 5 6 
#
# 1 0.005136 -0.001640 0.000207 0.000000 0.000000 0.000000
# 2 -0.001640 0.009041 -0.003788 0.000000 0.000000 0.000000
# 3 0.000207 -0.003788 0.012403 0.000000 0.000000 0.000000
# 4 0.000000 0.000000 0.000000 -1.531922 0.000000 0.000000
# 5 0.000000 0.000000 0.000000 0.000000 0.003514 0.000000
# 6 0.000000 0.000000 0.000000 0.000000 0.000000 0.012453
#
#
# Mechanical properties :
#
#
# Convention : Reuss Voigt Hill
#
# Bulk Modulus (GPa) = 61.96372 68.68799 65.32585
# Shear Modulus (GPa) = -3.39316 95.80274 46.20479
#
# Velocity S-wave (km/s) = -1.17161 6.22543 4.32338
# Velocity P-wave (km/s) = 4.82043 8.91412 7.16583
#
# Compressibility (1/GPa) = 0.01613848
#
# Stress axis : x y z
#
# Youngs Moduli (GPa) = 194.69580 110.60281 80.62428
#
# Poissons Ratio (x) = 0.18138 -0.01668
# Poissons Ratio (y) = 0.31929 0.30542
# Poissons Ratio (z) = -0.04029 0.41898
#
# Static dielectric constant tensor:
#      x y z
#    x 1.990760 0.000000 0.000000 
#    y 0.000000 1.920800 0.000000 
#    z 0.000000 0.000000 1.634670 
# 
# From -- ./inp_files/34444.got.cif
#   From: 2010.05.17/outbox.cif.g08.bks.cpg/sg21_18_cif.got.tgz:34444.got - 2010.06.03 23:14:55.
