data_PCOD9324500
_publ_section_title
;
Structure prediction by ZEFSAII (Michael W. Deem and Ramdas Pophale) SiO2 
 PCOD9324500
Probable space group: C 2 2 2
;
_chemical_formula_sum "Si O2"
_cell_formula_units_Z 28
_cell_length_a 15.832638
_cell_length_b 15.053079
_cell_length_c 5.210370
_cell_angle_alpha 90.000000
_cell_angle_beta 90.000000
_cell_angle_gamma 90.000000
_cell_volume 1241.787225
_symmetry_space_group_name_H-M "C 2 2 2"
_symmetry_group_IT_number 21
_symmetry_cell_setting 'orthorhombic'
loop_
_space_group_symop_operation_xyz
x,y,z
-x,-y,z
x,-y,-z
-x,y,-z
1/2+x,1/2+y,z
1/2-x,1/2-y,z
1/2+x,1/2-y,-z
1/2-x,1/2+y,-z
loop_
_atom_site_type_symbol
_atom_site_label
_atom_site_fract_x
_atom_site_fract_y
_atom_site_fract_z
Si Si1 0.675416 0.106579 0.463781
Si Si2 0.951604 0.862664 0.247055
Si Si3 0.000000 0.688486 0.500000
Si Si4 0.264684 0.394206 0.043183
O O1 0.579465 0.132629 0.402198
O O2 0.739444 0.139596 0.240895
O O3 0.681439 0.000000 0.500000
O O4 0.699942 0.141712 0.744795
O O5 0.000000 0.899241 0.500000
O O6 0.966079 0.757308 0.286581
O O7 0.854636 0.879930 0.180037
O O8 0.000000 0.895662 0.000000
O O9 0.256695 0.500000 0.000000
#
# Coordination Sequence:
#
# PCOD9324500 Si02
#       4
#     8   8   4   8
#     4  10  22  40  66  92 124 167 211 263 317 381
#     4  10  23  41  59  94 125 163 211 256 326 377
#     4  10  25  40  62  95 132 164 212 264 326 397
#     4  10  22  42  64  91 122 164 217 261 315 381
#
# _framework density 22.548143
#
# number of rings (size 3 to 8) (size 9 to 14) (size 15 to 20)
#    0.857    1.143    0.000    2.143    4.000    1.714 
#    0.000    5.714    0.000    0.000    0.000    0.000 
#    0.000    0.000    0.000    0.000    0.000    0.000 
#
# Total GULP energy -77994.414680 kJ/mol
# GULP energy per Si atom -5571.029620 kJ/mol
# Density = 2.249682 g / cm^3
# Si number density = 22.548143 Si / 1000 Ang^3
#
#
#
# Elastic Constant Matrix: (Units=GPa)
#
#
# Indices 1 2 3 4 5 6 
#
# 1 129.4798 14.0019 63.8466 0.0000 0.0000 0.0000
# 2 14.0019 44.2773 34.7031 0.0000 0.0000 0.0000
# 3 63.8466 34.7031 186.8808 0.0000 0.0000 0.0000
# 4 0.0000 0.0000 0.0000 25.6231 0.0000 0.0000
# 5 0.0000 0.0000 0.0000 0.0000 25.2736 0.0000
# 6 0.0000 0.0000 0.0000 0.0000 0.0000 40.0986
#
#
#
# Elastic Compliance Matrix: (Units=1/GPa)
#
#
# Indices 1 2 3 4 5 6 
#
# 1 0.009298 -0.000527 -0.003079 0.000000 0.000000 0.000000
# 2 -0.000527 0.026462 -0.004734 0.000000 0.000000 0.000000
# 3 -0.003079 -0.004734 0.007282 0.000000 0.000000 0.000000
# 4 0.000000 0.000000 0.000000 0.039027 0.000000 0.000000
# 5 0.000000 0.000000 0.000000 0.000000 0.039567 0.000000
# 6 0.000000 0.000000 0.000000 0.000000 0.000000 0.024939
#
#
# Mechanical properties :
#
#
# Convention : Reuss Voigt Hill
#
# Bulk Modulus (GPa) = 37.93288 65.08233 51.50760
# Shear Modulus (GPa) = 29.06265 34.73814 31.90039
#
# Velocity S-wave (km/s) = 3.59404 3.92933 3.76542
# Velocity P-wave (km/s) = 5.83802 7.03652 6.46510
#
# Compressibility (1/GPa) = 0.02636236
#
# Stress axis : x y z
#
# Youngs Moduli (GPa) = 107.54535 37.79031 137.32707
#
# Poissons Ratio (x) = 0.01993 0.42280
# Poissons Ratio (y) = 0.05672 0.65006
# Poissons Ratio (z) = 0.33111 0.17889
#
# Static dielectric constant tensor:
#      x y z
#    x 1.827550 0.000000 0.000000 
#    y 0.000000 1.856900 0.000000 
#    z 0.000000 0.000000 1.824890 
# 
# From -- ./inp_files/2293.got.cif
#   From: 2010.05.17/outbox.cif.g08.bks.cpg/sg21_2_cif.got.tgz:2293.got - 2010.06.03 23:14:55.
