data_PCOD9324753
_publ_section_title
;
Structure prediction by ZEFSAII (Michael W. Deem and Ramdas Pophale) SiO2 
 PCOD9324753
Probable space group: C 2 2 2
;
_chemical_formula_sum "Si O2"
_cell_formula_units_Z 32
_cell_length_a 7.780586
_cell_length_b 27.229500
_cell_length_c 6.401818
_cell_angle_alpha 90.000000
_cell_angle_beta 90.000000
_cell_angle_gamma 90.000000
_cell_volume 1356.298550
_symmetry_space_group_name_H-M "C 2 2 2"
_symmetry_group_IT_number 21
_symmetry_cell_setting 'orthorhombic'
loop_
_space_group_symop_operation_xyz
x,y,z
-x,-y,z
x,-y,-z
-x,y,-z
1/2+x,1/2+y,z
1/2-x,1/2-y,z
1/2+x,1/2-y,-z
1/2-x,1/2+y,-z
loop_
_atom_site_type_symbol
_atom_site_label
_atom_site_fract_x
_atom_site_fract_y
_atom_site_fract_z
Si Si1 0.754844 0.042957 0.672534
Si Si2 0.000000 0.000000 0.000000
Si Si3 0.500000 0.699456 0.500000
Si Si4 0.250000 0.750000 0.820897
Si Si5 0.000000 0.500000 0.000000
Si Si6 0.169983 0.638358 0.397557
Si Si7 0.000000 0.667345 0.000000
O O1 0.715327 0.091473 0.540113
O O2 0.764534 0.000000 0.500000
O O3 0.914328 0.037381 0.831141
O O4 0.607851 0.032139 0.839582
O O5 0.403027 0.729277 0.678114
O O6 0.344630 0.668815 0.398469
O O7 0.344032 0.795289 0.937083
O O8 0.000000 0.663604 0.500000
O O9 0.095375 0.632608 0.167018
#
# Coordination Sequence:
#
# PCOD9324753 Si02
#       7
#     8   2   4   4   2   8   4
#     4  11  25  48  77 113 162 212 264 331 396 481
#     4  10  26  46  74 116 148 236 262 312 408 472
#     4  12  26  50  83 114 162 214 257 352 386 500
#     4  12  24  52  82 118 162 208 272 316 444 476
#     4  10  22  48  80 104 148 228 254 318 408 470
#     4  12  27  50  74 124 162 202 277 331 400 467
#     4  12  26  49  83 121 156 214 267 343 398 505
#
# _framework density 23.593624999999999
#
# number of rings (size 3 to 8) (size 9 to 14) (size 15 to 20)
#    0.000    0.500    2.500    5.250    3.500    6.000 
#    0.000    0.000    0.000    0.000    0.000    0.000 
#    0.000    0.000    0.000    0.000    0.000    0.000 
#
# Total GULP energy -89299.102637 kJ/mol
# GULP energy per Si atom -5581.193915 kJ/mol
# Density = 2.353992 g / cm^3
# Si number density = 23.593625 Si / 1000 Ang^3
#
#
#
# Elastic Constant Matrix: (Units=GPa)
#
#
# Indices 1 2 3 4 5 6 
#
# 1 148.2792 55.6820 71.0851 0.0000 0.0000 0.0000
# 2 55.6820 102.2257 76.1214 0.0000 0.0000 0.0000
# 3 71.0851 76.1214 185.0169 0.0000 0.0000 0.0000
# 4 0.0000 0.0000 0.0000 6.1754 0.0000 0.0000
# 5 0.0000 0.0000 0.0000 0.0000 81.4985 0.0000
# 6 0.0000 0.0000 0.0000 0.0000 0.0000 36.8870
#
#
#
# Elastic Compliance Matrix: (Units=1/GPa)
#
#
# Indices 1 2 3 4 5 6 
#
# 1 0.009000 -0.003355 -0.002077 0.000000 0.000000 0.000000
# 2 -0.003355 0.015354 -0.005028 0.000000 0.000000 0.000000
# 3 -0.002077 -0.005028 0.008272 0.000000 0.000000 0.000000
# 4 0.000000 0.000000 0.000000 0.161932 0.000000 0.000000
# 5 0.000000 0.000000 0.000000 0.000000 0.012270 0.000000
# 6 0.000000 0.000000 0.000000 0.000000 0.000000 0.027110
#
#
# Mechanical properties :
#
#
# Convention : Reuss Voigt Hill
#
# Bulk Modulus (GPa) = 85.43871 93.47766 89.45819
# Shear Modulus (GPa) = 19.32291 40.42108 29.87199
#
# Velocity S-wave (km/s) = 2.86490 4.14360 3.56210
# Velocity P-wave (km/s) = 6.87276 7.91192 7.41057
#
# Compressibility (1/GPa) = 0.01170430
#
# Stress axis : x y z
#
# Youngs Moduli (GPa) = 111.11200 65.13011 120.89456
#
# Poissons Ratio (x) = 0.21853 0.25114
# Poissons Ratio (y) = 0.37282 0.60784
# Poissons Ratio (z) = 0.23082 0.32747
#
# Static dielectric constant tensor:
#      x y z
#    x 2.054740 0.000000 0.000000 
#    y 0.000000 1.913270 0.000000 
#    z 0.000000 0.000000 1.930950 
# 
# From -- ./inp_files/1673.got.cif
#   From: 2010.05.17/outbox.cif.g08.bks.cpg/sg21_1_cif.got.tgz:1673.got - 2010.06.03 23:14:55.
