data_PCOD9324228
_publ_section_title
;
Structure prediction by ZEFSAII (Michael W. Deem and Ramdas Pophale) SiO2 
 PCOD9324228
Probable space group: C 2 2 2
;
_chemical_formula_sum "Si O2"
_cell_formula_units_Z 40
_cell_length_a 10.091194
_cell_length_b 22.277405
_cell_length_c 7.850905
_cell_angle_alpha 90.000000
_cell_angle_beta 90.000000
_cell_angle_gamma 90.000000
_cell_volume 1764.927532
_symmetry_space_group_name_H-M "C 2 2 2"
_symmetry_group_IT_number 21
_symmetry_cell_setting 'orthorhombic'
loop_
_space_group_symop_operation_xyz
x,y,z
-x,-y,z
x,-y,-z
-x,y,-z
1/2+x,1/2+y,z
1/2-x,1/2-y,z
1/2+x,1/2-y,-z
1/2-x,1/2+y,-z
loop_
_atom_site_type_symbol
_atom_site_label
_atom_site_fract_x
_atom_site_fract_y
_atom_site_fract_z
Si Si1 0.183102 0.873500 0.691555
Si Si2 0.313887 0.062087 0.613161
Si Si3 0.053294 0.066738 0.822242
Si Si4 0.553193 0.878294 0.190114
Si Si5 0.388487 0.750836 0.630776
O O1 0.259889 0.886096 0.514291
O O2 0.294533 0.901311 0.816065
O O3 0.149726 0.805542 0.748718
O O4 0.041295 0.903260 0.683740
O O5 0.204808 0.062905 0.764323
O O6 0.454979 0.081064 0.694764
O O7 0.314564 0.000000 0.500000
O O8 0.000000 0.000000 0.827801
O O9 0.000000 0.095033 0.000000
O O10 0.567953 0.811996 0.276658
O O11 0.500000 0.873993 0.000000
O O12 0.500000 0.733108 0.500000
O O13 0.250000 0.750000 0.527416
#
# Coordination Sequence:
#
# PCOD9324228 Si02
#       5
#     8   8   8   8   8
#     4  11  23  42  68 100 133 182 235 281 338 410
#     4  12  24  44  72 102 138 184 232 283 344 418
#     4  11  23  41  64  99 140 174 221 277 339 409
#     4  11  25  45  67 100 140 181 229 287 354 413
#     4  10  21  41  68  97 133 174 230 290 340 411
#
# _framework density 22.663820999999999
#
# number of rings (size 3 to 8) (size 9 to 14) (size 15 to 20)
#    0.000    1.000    2.000    6.000    0.000    2.400 
#    0.000   12.000    0.000    0.000    0.000    0.000 
#    0.000    0.000    0.000    0.000    0.000    0.000 
#
# Total GULP energy -111352.877672 kJ/mol
# GULP energy per Si atom -5567.643884 kJ/mol
# Density = 2.261224 g / cm^3
# Si number density = 22.663821 Si / 1000 Ang^3
#
#
#
# Elastic Constant Matrix: (Units=GPa)
#
#
# Indices 1 2 3 4 5 6 
#
# 1 170.8728 41.0951 48.2247 0.0000 0.0000 0.0000
# 2 41.0951 108.3388 34.3672 0.0000 0.0000 0.0000
# 3 48.2247 34.3672 115.0182 0.0000 0.0000 0.0000
# 4 0.0000 0.0000 0.0000 -6.5654 0.0000 0.0000
# 5 0.0000 0.0000 0.0000 0.0000 -9.5335 0.0000
# 6 0.0000 0.0000 0.0000 0.0000 0.0000 34.0921
#
#
#
# Elastic Compliance Matrix: (Units=1/GPa)
#
#
# Indices 1 2 3 4 5 6 
#
# 1 0.006974 -0.001898 -0.002357 0.000000 0.000000 0.000000
# 2 -0.001898 0.010713 -0.002405 0.000000 0.000000 0.000000
# 3 -0.002357 -0.002405 0.010401 0.000000 0.000000 0.000000
# 4 0.000000 0.000000 0.000000 -0.152314 0.000000 0.000000
# 5 0.000000 0.000000 0.000000 0.000000 -0.104893 0.000000
# 6 0.000000 0.000000 0.000000 0.000000 0.000000 0.029332
#
#
# Mechanical properties :
#
#
# Convention : Reuss Voigt Hill
#
# Bulk Modulus (GPa) = 67.71320 71.28931 69.50126
# Shear Modulus (GPa) = -27.54160 21.63483 -2.95339
#
# Velocity S-wave (km/s) = -3.48979 3.09301 -1.14278
# Velocity P-wave (km/s) = 3.70188 6.65425 5.38437
#
# Compressibility (1/GPa) = 0.01476817
#
# Stress axis : x y z
#
# Youngs Moduli (GPa) = 143.39178 93.34306 96.14233
#
# Poissons Ratio (x) = 0.17713 0.22661
# Poissons Ratio (y) = 0.27211 0.23126
# Poissons Ratio (z) = 0.33797 0.22453
#
# Static dielectric constant tensor:
#      x y z
#    x 2.917190 0.000000 0.000000 
#    y 0.000000 2.076120 0.000000 
#    z 0.000000 0.000000 2.054930 
# 
# From -- ./inp_files/10955.got.cif
#   From: 2010.05.17/outbox.cif.g08.bks.cpg/sg21_6_cif.got.tgz:10955.got - 2010.06.03 23:14:55.
