data_PCOD9324813
_publ_section_title
;
Structure prediction by ZEFSAII (Michael W. Deem and Ramdas Pophale) SiO2 
 PCOD9324813
Probable space group: C 2 2 2
;
_chemical_formula_sum "Si O2"
_cell_formula_units_Z 40
_cell_length_a 15.864375
_cell_length_b 8.640078
_cell_length_c 14.133325
_cell_angle_alpha 90.000000
_cell_angle_beta 90.000000
_cell_angle_gamma 90.000000
_cell_volume 1937.246907
_symmetry_space_group_name_H-M "C 2 2 2"
_symmetry_group_IT_number 21
_symmetry_cell_setting 'orthorhombic'
loop_
_space_group_symop_operation_xyz
x,y,z
-x,-y,z
x,-y,-z
-x,y,-z
1/2+x,1/2+y,z
1/2-x,1/2-y,z
1/2+x,1/2-y,-z
1/2-x,1/2+y,-z
loop_
_atom_site_type_symbol
_atom_site_label
_atom_site_fract_x
_atom_site_fract_y
_atom_site_fract_z
Si Si1 0.094827 0.684034 0.482216
Si Si2 0.000000 0.500000 0.837101
Si Si3 0.619955 0.217910 0.260936
Si Si4 0.277650 0.497927 0.219192
Si Si5 0.868224 0.500000 0.000000
Si Si6 0.750000 0.750000 0.382192
Si Si7 0.750000 0.750000 0.057102
O O1 0.091519 0.500000 0.500000
O O2 0.120363 0.716637 0.374397
O O3 0.167414 0.740787 0.552556
O O4 0.000000 0.745591 0.500000
O O5 0.032559 0.357929 0.774106
O O6 0.075268 0.536196 0.908980
O O7 0.642558 0.388667 0.225262
O O8 0.694624 0.105929 0.223764
O O9 0.265610 0.393368 0.312147
O O10 0.282153 0.384679 0.128568
O O11 0.814143 0.656119 0.991399
#
# Coordination Sequence:
#
# PCOD9324813 Si02
#       7
#     8   4   8   8   4   4   4
#     4  11  23  38  65  97 137 191 236 279 338 409
#     4  11  24  44  67  98 130 168 215 288 350 411
#     4  11  22  41  68  97 135 185 230 275 349 413
#     4  10  23  41  70  97 134 184 228 283 342 417
#     4  11  26  44  74  91 132 168 218 287 350 430
#     4  11  22  42  63 100 146 178 241 296 330 403
#     4  11  24  44  71 102 126 172 227 280 356 431
#
# _framework density 20.647857999999999
#
# number of rings (size 3 to 8) (size 9 to 14) (size 15 to 20)
#    0.000    1.200    4.000    2.400    2.800    0.000 
#    0.000    5.000    0.000    0.000    0.000    0.000 
#    0.000    0.000    0.000    0.000    0.000    0.000 
#
# Total GULP energy -111693.305118 kJ/mol
# GULP energy per Si atom -5584.665256 kJ/mol
# Density = 2.060086 g / cm^3
# Si number density = 20.647858 Si / 1000 Ang^3
#
#
#
# Elastic Constant Matrix: (Units=GPa)
#
#
# Indices 1 2 3 4 5 6 
#
# 1 110.4818 51.1579 43.8472 0.0000 0.0000 0.0000
# 2 51.1579 121.5047 49.3207 0.0000 0.0000 0.0000
# 3 43.8472 49.3207 121.0924 0.0000 0.0000 0.0000
# 4 0.0000 0.0000 0.0000 17.1536 0.0000 0.0000
# 5 0.0000 0.0000 0.0000 0.0000 -130.3733 0.0000
# 6 0.0000 0.0000 0.0000 0.0000 0.0000 40.6799
#
#
#
# Elastic Compliance Matrix: (Units=1/GPa)
#
#
# Indices 1 2 3 4 5 6 
#
# 1 0.011952 -0.003924 -0.002729 0.000000 0.000000 0.000000
# 2 -0.003924 0.011149 -0.003120 0.000000 0.000000 0.000000
# 3 -0.002729 -0.003120 0.010517 0.000000 0.000000 0.000000
# 4 0.000000 0.000000 0.000000 0.058297 0.000000 0.000000
# 5 0.000000 0.000000 0.000000 0.000000 -0.007670 0.000000
# 6 0.000000 0.000000 0.000000 0.000000 0.000000 0.024582
#
#
# Mechanical properties :
#
#
# Convention : Reuss Voigt Hill
#
# Bulk Modulus (GPa) = 71.06992 71.30338 71.18665
# Shear Modulus (GPa) = 37.57608 -0.59110 18.49249
#
# Velocity S-wave (km/s) = 4.27060 -0.53563 2.99593
# Velocity P-wave (km/s) = 7.66891 5.85026 6.82047
#
# Compressibility (1/GPa) = 0.01407065
#
# Stress axis : x y z
#
# Youngs Moduli (GPa) = 83.67144 89.69594 95.08246
#
# Poissons Ratio (x) = 0.35198 0.25951
# Poissons Ratio (y) = 0.32834 0.29665
# Poissons Ratio (z) = 0.22837 0.27985
#
# Static dielectric constant tensor:
#      x y z
#    x 1.782340 0.000000 0.000000 
#    y 0.000000 1.956730 0.000000 
#    z 0.000000 0.000000 1.751070 
# 
# From -- ./inp_files/32148.got.cif
#   From: 2010.05.17/outbox.cif.g08.bks.cpg/sg21_17_cif.got.tgz:32148.got - 2010.06.03 23:14:55.
