data_PCOD9324917
_publ_section_title
;
Structure prediction by ZEFSAII (Michael W. Deem and Ramdas Pophale) SiO2 
 PCOD9324917
Probable space group: C 2 2 2
;
_chemical_formula_sum "Si O2"
_cell_formula_units_Z 28
_cell_length_a 17.110618
_cell_length_b 8.245755
_cell_length_c 9.311790
_cell_angle_alpha 90.000000
_cell_angle_beta 90.000000
_cell_angle_gamma 90.000000
_cell_volume 1313.800115
_symmetry_space_group_name_H-M "C 2 2 2"
_symmetry_group_IT_number 21
_symmetry_cell_setting 'orthorhombic'
loop_
_space_group_symop_operation_xyz
x,y,z
-x,-y,z
x,-y,-z
-x,y,-z
1/2+x,1/2+y,z
1/2-x,1/2-y,z
1/2+x,1/2-y,-z
1/2-x,1/2+y,-z
loop_
_atom_site_type_symbol
_atom_site_label
_atom_site_fract_x
_atom_site_fract_y
_atom_site_fract_z
Si Si1 0.914689 0.057803 0.337284
Si Si2 0.765781 0.058861 0.836415
Si Si3 0.500000 0.000000 0.000000
Si Si4 0.000000 0.500000 0.500000
Si Si5 0.103450 0.426647 0.734137
O O1 0.908450 0.251958 0.336318
O O2 0.905809 0.000000 0.500000
O O3 0.846116 0.985935 0.240765
O O4 0.000000 0.000000 0.285944
O O5 0.750000 0.250000 0.832266
O O6 0.692711 0.970507 0.760809
O O7 0.768887 0.000000 0.000000
O O8 0.441121 0.084155 0.887323
O O9 0.062939 0.554841 0.623909
#
# Coordination Sequence:
#
# PCOD9324917 Si02
#       5
#     8   8   2   2   8
#     4  11  27  46  72 105 145 185 242 294 364 430
#     4  12  28  46  71 103 144 189 243 300 365 427
#     4  10  24  42  78 106 142 182 242 290 368 418
#     4  10  24  38  78 102 142 186 238 294 364 414
#     4  11  24  46  73 106 147 187 243 297 363 433
#
# _framework density 21.312221999999998
#
# number of rings (size 3 to 8) (size 9 to 14) (size 15 to 20)
#    0.000    0.857    1.429    4.286   14.000    0.571 
#    0.000    0.000    0.000    0.000    0.000    0.000 
#    0.000    0.000    0.000    0.000    0.000    0.000 
#
# Total GULP energy -78142.155881 kJ/mol
# GULP energy per Si atom -5581.582563 kJ/mol
# Density = 2.126371 g / cm^3
# Si number density = 21.312222 Si / 1000 Ang^3
#
#
#
# Elastic Constant Matrix: (Units=GPa)
#
#
# Indices 1 2 3 4 5 6 
#
# 1 228.6306 56.7032 87.8770 0.0000 0.0000 0.0000
# 2 56.7032 138.8428 37.1894 0.0000 0.0000 0.0000
# 3 87.8770 37.1894 146.2569 0.0000 0.0000 0.0000
# 4 0.0000 0.0000 0.0000 42.0742 0.0000 0.0000
# 5 0.0000 0.0000 0.0000 0.0000 38.6612 0.0000
# 6 0.0000 0.0000 0.0000 0.0000 0.0000 25.9952
#
#
#
# Elastic Compliance Matrix: (Units=1/GPa)
#
#
# Indices 1 2 3 4 5 6 
#
# 1 0.005999 -0.001593 -0.003199 0.000000 0.000000 0.000000
# 2 -0.001593 0.008152 -0.001116 0.000000 0.000000 0.000000
# 3 -0.003199 -0.001116 0.009043 0.000000 0.000000 0.000000
# 4 0.000000 0.000000 0.000000 0.023768 0.000000 0.000000
# 5 0.000000 0.000000 0.000000 0.000000 0.025866 0.000000
# 6 0.000000 0.000000 0.000000 0.000000 0.000000 0.038469
#
#
# Mechanical properties :
#
#
# Convention : Reuss Voigt Hill
#
# Bulk Modulus (GPa) = 87.88905 97.47440 92.68173
# Shear Modulus (GPa) = 39.40001 43.47684 41.43842
#
# Velocity S-wave (km/s) = 4.30432 4.52153 4.41426
# Velocity P-wave (km/s) = 8.12596 8.54954 8.34044
#
# Compressibility (1/GPa) = 0.01137798
#
# Stress axis : x y z
#
# Youngs Moduli (GPa) = 166.70677 122.67268 110.58098
#
# Poissons Ratio (x) = 0.19541 0.35376
# Poissons Ratio (y) = 0.26555 0.12338
# Poissons Ratio (z) = 0.53332 0.13687
#
# Static dielectric constant tensor:
#      x y z
#    x 1.775220 0.000000 0.000000 
#    y 0.000000 1.699430 0.000000 
#    z 0.000000 0.000000 1.748950 
# 
# From -- ./inp_files/10193.got.cif
#   From: 2010.05.17/outbox.cif.g08.bks.cpg/sg21_6_cif.got.tgz:10193.got - 2010.06.03 23:14:55.
