data_PCOD9324138
_publ_section_title
;
Structure prediction by ZEFSAII (Michael W. Deem and Ramdas Pophale) SiO2 
 PCOD9324138
Probable space group: C 2 2 2
;
_chemical_formula_sum "Si O2"
_cell_formula_units_Z 48
_cell_length_a 8.650168
_cell_length_b 32.399151
_cell_length_c 8.272572
_cell_angle_alpha 90.000000
_cell_angle_beta 90.000000
_cell_angle_gamma 90.000000
_cell_volume 2318.455304
_symmetry_space_group_name_H-M "C 2 2 2"
_symmetry_group_IT_number 21
_symmetry_cell_setting 'orthorhombic'
loop_
_space_group_symop_operation_xyz
x,y,z
-x,-y,z
x,-y,-z
-x,y,-z
1/2+x,1/2+y,z
1/2-x,1/2-y,z
1/2+x,1/2-y,-z
1/2-x,1/2+y,-z
loop_
_atom_site_type_symbol
_atom_site_label
_atom_site_fract_x
_atom_site_fract_y
_atom_site_fract_z
Si Si1 0.316918 0.507441 0.683729
Si Si2 0.386565 0.349962 0.734090
Si Si3 0.795837 0.572744 0.843232
Si Si4 0.500000 0.708776 0.000000
Si Si5 0.358152 0.087859 0.218362
Si Si6 0.250000 0.250000 0.224608
Si Si7 0.765557 0.834499 0.396003
O O1 0.500000 0.500000 0.687233
O O2 0.263097 0.500000 0.500000
O O3 0.251105 0.474465 0.812155
O O4 0.259826 0.553227 0.719848
O O5 0.333579 0.396452 0.772406
O O6 0.275404 0.335417 0.589366
O O7 0.561117 0.345329 0.668345
O O8 0.389819 0.321067 0.892504
O O9 0.962920 0.576378 0.760016
O O10 0.822230 0.587759 0.026703
O O11 0.605669 0.736720 0.114343
O O12 0.334310 0.130276 0.312221
O O13 0.282972 0.210181 0.333484
#
# Coordination Sequence:
#
# PCOD9324138 Si02
#       7
#     8   8   8   4   8   4   8
#     4  11  24  40  60  88 120 157 202 249 299 360
#     4  10  21  40  63  88 118 160 200 246 304 362
#     4  11  23  39  61  88 122 160 199 245 301 361
#     4  10  22  40  64  90 123 160 205 252 304 366
#     4  11  24  40  59  89 123 157 200 250 301 360
#     4  10  22  40  62  90 122 160 202 254 304 360
#     4  10  22  40  62  89 121 155 202 252 302 362
#
# _framework density 20.703441000000002
#
# number of rings (size 3 to 8) (size 9 to 14) (size 15 to 20)
#    0.000    1.500    0.000    5.000    0.000   13.333 
#    0.000    5.000    0.000    0.000    0.000    0.000 
#    0.000    0.000    0.000    0.000    0.000    0.000 
#
# Total GULP energy -134061.504223 kJ/mol
# GULP energy per Si atom -5585.896009 kJ/mol
# Density = 2.065632 g / cm^3
# Si number density = 20.703441 Si / 1000 Ang^3
#
#
#
# Elastic Constant Matrix: (Units=GPa)
#
#
# Indices 1 2 3 4 5 6 
#
# 1 33.8805 19.2423 2.1266 0.0000 0.0000 0.0000
# 2 19.2423 136.4224 31.8372 0.0000 0.0000 0.0000
# 3 2.1266 31.8372 77.5492 0.0000 0.0000 0.0000
# 4 0.0000 0.0000 0.0000 24.5299 0.0000 0.0000
# 5 0.0000 0.0000 0.0000 0.0000 9.4156 0.0000
# 6 0.0000 0.0000 0.0000 0.0000 0.0000 29.2933
#
#
#
# Elastic Compliance Matrix: (Units=1/GPa)
#
#
# Indices 1 2 3 4 5 6 
#
# 1 0.032168 -0.004790 0.001085 0.000000 0.000000 0.000000
# 2 -0.004790 0.008820 -0.003490 0.000000 0.000000 0.000000
# 3 0.001085 -0.003490 0.014298 0.000000 0.000000 0.000000
# 4 0.000000 0.000000 0.000000 0.040767 0.000000 0.000000
# 5 0.000000 0.000000 0.000000 0.000000 0.106206 0.000000
# 6 0.000000 0.000000 0.000000 0.000000 0.000000 0.034137
#
#
# Mechanical properties :
#
#
# Convention : Reuss Voigt Hill
#
# Bulk Modulus (GPa) = 24.45278 39.36270 31.90774
# Shear Modulus (GPa) = 18.90934 25.62418 22.26676
#
# Velocity S-wave (km/s) = 3.02543 3.52188 3.28305
# Velocity P-wave (km/s) = 4.90316 5.96591 5.46045
#
# Compressibility (1/GPa) = 0.04089514
#
# Stress axis : x y z
#
# Youngs Moduli (GPa) = 31.08672 113.37544 69.94002
#
# Poissons Ratio (x) = 0.54311 -0.07585
# Poissons Ratio (y) = 0.14892 0.24407
# Poissons Ratio (z) = -0.03371 0.39565
#
# Static dielectric constant tensor:
#      x y z
#    x 1.731660 0.000000 0.000000 
#    y 0.000000 1.697220 0.000000 
#    z 0.000000 0.000000 1.797200 
# 
# From -- ./inp_files/11583.got.cif
#   From: 2010.05.17/outbox.cif.g08.bks.cpg/sg21_6_cif.got.tgz:11583.got - 2010.06.03 23:14:55.
