data_PCOD9324910
_publ_section_title
;
Structure prediction by ZEFSAII (Michael W. Deem and Ramdas Pophale) SiO2 
 PCOD9324910
Probable space group: C 2 2 2
;
_chemical_formula_sum "Si O2"
_cell_formula_units_Z 24
_cell_length_a 17.265900
_cell_length_b 12.909795
_cell_length_c 4.746831
_cell_angle_alpha 90.000000
_cell_angle_beta 90.000000
_cell_angle_gamma 90.000000
_cell_volume 1058.064972
_symmetry_space_group_name_H-M "C 2 2 2"
_symmetry_group_IT_number 21
_symmetry_cell_setting 'orthorhombic'
loop_
_space_group_symop_operation_xyz
x,y,z
-x,-y,z
x,-y,-z
-x,y,-z
1/2+x,1/2+y,z
1/2-x,1/2-y,z
1/2+x,1/2-y,-z
1/2-x,1/2+y,-z
loop_
_atom_site_type_symbol
_atom_site_label
_atom_site_fract_x
_atom_site_fract_y
_atom_site_fract_z
Si Si1 0.500000 0.500000 0.000000
Si Si2 0.664986 0.216464 0.331224
Si Si3 0.000000 0.500000 0.000000
Si Si4 0.074708 0.202432 0.165490
Si Si5 0.109522 0.500000 0.500000
O O1 0.554571 0.580202 0.166885
O O2 0.750000 0.250000 0.421952
O O3 0.596778 0.263325 0.524945
O O4 0.656497 0.093446 0.362648
O O5 0.646786 0.262637 0.025326
O O6 0.058646 0.453931 0.238136
O O7 0.000000 0.249025 0.000000
#
# Coordination Sequence:
#
# PCOD9324910 Si02
#       5
#     2   8   2   8   4
#     4   8  24  40  74  96 124 170 226 284 308 364
#     4  12  26  43  67  99 138 169 216 270 333 394
#     4  10  24  36  70  90 128 164 226 252 312 394
#     4  10  24  43  68 101 124 173 222 268 320 386
#     4  11  26  42  64 100 127 180 206 276 325 378
#
# _framework density 22.682917
#
# number of rings (size 3 to 8) (size 9 to 14) (size 15 to 20)
#    1.000    0.333    0.000    4.000   14.000    5.333 
#    0.000    0.000    0.000    0.000    0.000    0.000 
#    0.000    0.000    0.000    0.000    0.000    0.000 
#
# Total GULP energy -66896.480912 kJ/mol
# GULP energy per Si atom -5574.706743 kJ/mol
# Density = 2.263129 g / cm^3
# Si number density = 22.682917 Si / 1000 Ang^3
#
#
#
# Elastic Constant Matrix: (Units=GPa)
#
#
# Indices 1 2 3 4 5 6 
#
# 1 97.6601 33.6430 14.9772 0.0000 0.0000 0.0000
# 2 33.6430 150.3749 11.9625 0.0000 0.0000 0.0000
# 3 14.9772 11.9625 120.1492 0.0000 0.0000 0.0000
# 4 0.0000 0.0000 0.0000 7.6739 0.0000 0.0000
# 5 0.0000 0.0000 0.0000 0.0000 30.6093 0.0000
# 6 0.0000 0.0000 0.0000 0.0000 0.0000 8.7228
#
#
#
# Elastic Compliance Matrix: (Units=1/GPa)
#
#
# Indices 1 2 3 4 5 6 
#
# 1 0.011253 -0.002425 -0.001161 0.000000 0.000000 0.000000
# 2 -0.002425 0.007226 -0.000417 0.000000 0.000000 0.000000
# 3 -0.001161 -0.000417 0.008509 0.000000 0.000000 0.000000
# 4 0.000000 0.000000 0.000000 0.130313 0.000000 0.000000
# 5 0.000000 0.000000 0.000000 0.000000 0.032670 0.000000
# 6 0.000000 0.000000 0.000000 0.000000 0.000000 0.114642
#
#
# Mechanical properties :
#
#
# Convention : Reuss Voigt Hill
#
# Bulk Modulus (GPa) = 52.68443 54.37217 53.52830
# Shear Modulus (GPa) = 15.67658 29.90796 22.79227
#
# Velocity S-wave (km/s) = 2.63177 3.63509 3.17333
# Velocity P-wave (km/s) = 5.70191 6.45299 6.08904
#
# Compressibility (1/GPa) = 0.01898094
#
# Stress axis : x y z
#
# Youngs Moduli (GPa) = 88.86381 138.39249 117.51884
#
# Poissons Ratio (x) = 0.33564 0.13647
# Poissons Ratio (y) = 0.21552 0.04902
# Poissons Ratio (z) = 0.10320 0.05772
#
# Static dielectric constant tensor:
#      x y z
#    x 1.877170 0.000000 0.000000 
#    y 0.000000 1.917400 0.000000 
#    z 0.000000 0.000000 1.821070 
# 
# From -- ./inp_files/4524.got.cif
#   From: 2010.05.17/outbox.cif.g08.bks.cpg/sg21_3_cif.got.tgz:4524.got - 2010.06.03 23:14:55.
