data_PCOD9324976
_publ_section_title
;
Structure prediction by ZEFSAII (Michael W. Deem and Ramdas Pophale) SiO2 
 PCOD9324976
Probable space group: C 2 2 2
;
_chemical_formula_sum "Si O2"
_cell_formula_units_Z 24
_cell_length_a 5.397030
_cell_length_b 15.853823
_cell_length_c 11.207219
_cell_angle_alpha 90.000000
_cell_angle_beta 90.000000
_cell_angle_gamma 90.000000
_cell_volume 958.929537
_symmetry_space_group_name_H-M "C 2 2 2"
_symmetry_group_IT_number 21
_symmetry_cell_setting 'orthorhombic'
loop_
_space_group_symop_operation_xyz
x,y,z
-x,-y,z
x,-y,-z
-x,y,-z
1/2+x,1/2+y,z
1/2-x,1/2-y,z
1/2+x,1/2-y,-z
1/2-x,1/2+y,-z
loop_
_atom_site_type_symbol
_atom_site_label
_atom_site_fract_x
_atom_site_fract_y
_atom_site_fract_z
Si Si1 0.250000 0.750000 0.287586
Si Si2 0.746530 0.554015 0.341981
Si Si3 0.000000 0.681327 0.500000
Si Si4 0.095291 0.338442 0.127393
O O1 0.037429 0.741024 0.386209
O O2 0.338530 0.822334 0.199524
O O3 0.500000 0.500000 0.353365
O O4 0.745390 0.603644 0.215485
O O5 0.000000 0.500000 0.338734
O O6 0.789798 0.617214 0.453252
O O7 0.250000 0.250000 0.112238
O O8 0.000000 0.370150 0.000000
#
# Coordination Sequence:
#
# PCOD9324976 Si02
#       4
#     4   8   4   8
#     4  10  24  44  70 114 140 192 256 318 374 442
#     4  11  28  49  73 111 156 202 251 308 383 457
#     4  10  25  42  76 108 155 204 250 316 381 456
#     4  11  25  47  79 107 145 197 257 321 377 451
#
# _framework density 25.027909999999999
#
# number of rings (size 3 to 8) (size 9 to 14) (size 15 to 20)
#    0.000    1.333    1.667    0.500   18.667    3.333 
#    0.000    1.667    0.000    0.000    0.000    0.000 
#    0.000    0.000    0.000    0.000    0.000    0.000 
#
# Total GULP energy -66929.828674 kJ/mol
# GULP energy per Si atom -5577.485723 kJ/mol
# Density = 2.497094 g / cm^3
# Si number density = 25.027910 Si / 1000 Ang^3
#
#
#
# Elastic Constant Matrix: (Units=GPa)
#
#
# Indices 1 2 3 4 5 6 
#
# 1 180.3869 82.4695 47.9813 0.0000 0.0000 0.0000
# 2 82.4695 76.5195 39.2164 0.0000 0.0000 0.0000
# 3 47.9813 39.2164 219.9805 0.0000 0.0000 0.0000
# 4 0.0000 0.0000 0.0000 40.5546 0.0000 0.0000
# 5 0.0000 0.0000 0.0000 0.0000 13.5409 0.0000
# 6 0.0000 0.0000 0.0000 0.0000 0.0000 73.1959
#
#
#
# Elastic Compliance Matrix: (Units=1/GPa)
#
#
# Indices 1 2 3 4 5 6 
#
# 1 0.010948 -0.011639 -0.000313 0.000000 0.000000 0.000000
# 2 -0.011639 0.026756 -0.002231 0.000000 0.000000 0.000000
# 3 -0.000313 -0.002231 0.005012 0.000000 0.000000 0.000000
# 4 0.000000 0.000000 0.000000 0.024658 0.000000 0.000000
# 5 0.000000 0.000000 0.000000 0.000000 0.073850 0.000000
# 6 0.000000 0.000000 0.000000 0.000000 0.000000 0.013662
#
#
# Mechanical properties :
#
#
# Convention : Reuss Voigt Hill
#
# Bulk Modulus (GPa) = 69.68837 90.69127 80.18982
# Shear Modulus (GPa) = 26.59071 45.93959 36.26515
#
# Velocity S-wave (km/s) = 3.26305 4.28896 3.81069
# Velocity P-wave (km/s) = 6.48856 7.80011 7.17436
#
# Compressibility (1/GPa) = 0.01434960
#
# Stress axis : x y z
#
# Youngs Moduli (GPa) = 91.34130 37.37493 199.52502
#
# Poissons Ratio (x) = 0.43500 0.06246
# Poissons Ratio (y) = 1.06310 0.44518
# Poissons Ratio (z) = 0.02859 0.08339
#
# Static dielectric constant tensor:
#      x y z
#    x 2.113650 0.000000 0.000000 
#    y 0.000000 2.098510 0.000000 
#    z 0.000000 0.000000 1.945090 
# 
# From -- ./inp_files/20316.got.cif
#   From: 2010.05.17/outbox.cif.g08.bks.cpg/sg21_11_cif.got.tgz:20316.got - 2010.06.03 23:14:55.
