data_PCOD9324170
_publ_section_title
;
Structure prediction by ZEFSAII (Michael W. Deem and Ramdas Pophale) SiO2 
 PCOD9324170
Probable space group: C 2 2 2
;
_chemical_formula_sum "Si O2"
_cell_formula_units_Z 38
_cell_length_a 5.359211
_cell_length_b 19.601217
_cell_length_c 18.782228
_cell_angle_alpha 90.000000
_cell_angle_beta 90.000000
_cell_angle_gamma 90.000000
_cell_volume 1973.017790
_symmetry_space_group_name_H-M "C 2 2 2"
_symmetry_group_IT_number 21
_symmetry_cell_setting 'orthorhombic'
loop_
_space_group_symop_operation_xyz
x,y,z
-x,-y,z
x,-y,-z
-x,y,-z
1/2+x,1/2+y,z
1/2-x,1/2-y,z
1/2+x,1/2-y,-z
1/2-x,1/2+y,-z
loop_
_atom_site_type_symbol
_atom_site_label
_atom_site_fract_x
_atom_site_fract_y
_atom_site_fract_z
Si Si1 0.500000 0.000000 0.000000
Si Si2 0.250000 0.250000 0.046985
Si Si3 0.509735 0.083757 0.690586
Si Si4 0.012412 0.080291 0.772658
Si Si5 0.148373 0.894374 0.926060
Si Si6 0.499525 0.207182 0.414435
O O1 0.343650 0.952466 0.946563
O O2 0.263437 0.179579 0.089019
O O3 0.500000 0.249808 0.000000
O O4 0.755997 0.103808 0.735785
O O5 0.506231 0.132478 0.621702
O O6 0.264640 0.103862 0.735587
O O7 0.500000 0.000000 0.678503
O O8 0.013991 0.090113 0.857369
O O9 0.000000 0.000000 0.760898
O O10 0.000000 0.889290 0.000000
O O11 0.500000 0.199641 0.500000
O O12 0.750000 0.250000 0.394867
O O13 0.250000 0.250000 0.394879
#
# Coordination Sequence:
#
# PCOD9324170 Si02
#       6
#     2   4   8   8   8   8
#     4  12  22  36  68  94 104 162 220 272 302 388
#     4  10  22  42  58  80 120 150 188 260 322 364
#     4  10  22  40  62  89 127 164 202 249 307 364
#     4  10  22  38  60  88 122 160 203 262 307 362
#     4  11  24  39  62  88 118 160 215 264 318 370
#     4  10  21  40  67  96 129 163 201 253 300 358
#
# _framework density 19.259836
#
# number of rings (size 3 to 8) (size 9 to 14) (size 15 to 20)
#    0.000    1.684    1.053    2.842    7.368    0.421 
#    5.684    0.000    0.000    7.579    0.000    0.000 
#    0.000    0.000    0.000    0.000    0.000    0.000 
#
# Total GULP energy -105898.935118 kJ/mol
# GULP energy per Si atom -5573.628164 kJ/mol
# Density = 1.921600 g / cm^3
# Si number density = 19.259836 Si / 1000 Ang^3
#
#
#
# Elastic Constant Matrix: (Units=GPa)
#
#
# Indices 1 2 3 4 5 6 
#
# 1 139.3563 49.7245 48.5657 0.0000 0.0000 0.0000
# 2 49.7245 91.4114 35.3821 0.0000 0.0000 0.0000
# 3 48.5657 35.3821 81.0423 0.0000 0.0000 0.0000
# 4 0.0000 0.0000 0.0000 119.0611 0.0000 0.0000
# 5 0.0000 0.0000 0.0000 0.0000 23.5943 0.0000
# 6 0.0000 0.0000 0.0000 0.0000 0.0000 -6.3462
#
#
#
# Elastic Compliance Matrix: (Units=1/GPa)
#
#
# Indices 1 2 3 4 5 6 
#
# 1 0.010046 -0.003772 -0.004373 0.000000 0.000000 0.000000
# 2 -0.003772 0.014580 -0.004105 0.000000 0.000000 0.000000
# 3 -0.004373 -0.004105 0.016752 0.000000 0.000000 0.000000
# 4 0.000000 0.000000 0.000000 0.008399 0.000000 0.000000
# 5 0.000000 0.000000 0.000000 0.000000 0.042383 0.000000
# 6 0.000000 0.000000 0.000000 0.000000 0.000000 -0.157575
#
#
# Mechanical properties :
#
#
# Convention : Reuss Voigt Hill
#
# Bulk Modulus (GPa) = 59.25024 64.35051 61.80038
# Shear Modulus (GPa) = -141.69217 39.13768 -51.27724
#
# Velocity S-wave (km/s) = -8.58653 4.51276 -5.16544
# Velocity P-wave (km/s) = 8.21427 7.78702 1.84886
#
# Compressibility (1/GPa) = 0.01687757
#
# Stress axis : x y z
#
# Youngs Moduli (GPa) = 99.54408 68.58577 59.69307
#
# Poissons Ratio (x) = 0.25869 0.26106
# Poissons Ratio (y) = 0.37546 0.24506
# Poissons Ratio (z) = 0.43534 0.28156
#
# Static dielectric constant tensor:
#      x y z
#    x 1.704110 0.000000 0.000000 
#    y 0.000000 1.723810 0.000000 
#    z 0.000000 0.000000 1.675880 
# 
# From -- ./inp_files/34692.got.cif
#   From: 2010.05.17/outbox.cif.g08.bks.cpg/sg21_18_cif.got.tgz:34692.got - 2010.06.03 23:14:55.
