data_PCOD9324578
_publ_section_title
;
Structure prediction by ZEFSAII (Michael W. Deem and Ramdas Pophale) SiO2 
 PCOD9324578
Probable space group: C 2 2 2
;
_chemical_formula_sum "Si O2"
_cell_formula_units_Z 40
_cell_length_a 9.901776
_cell_length_b 10.649076
_cell_length_c 16.984340
_cell_angle_alpha 90.000000
_cell_angle_beta 90.000000
_cell_angle_gamma 90.000000
_cell_volume 1790.909743
_symmetry_space_group_name_H-M "C 2 2 2"
_symmetry_group_IT_number 21
_symmetry_cell_setting 'orthorhombic'
loop_
_space_group_symop_operation_xyz
x,y,z
-x,-y,z
x,-y,-z
-x,y,-z
1/2+x,1/2+y,z
1/2-x,1/2-y,z
1/2+x,1/2-y,-z
1/2-x,1/2+y,-z
loop_
_atom_site_type_symbol
_atom_site_label
_atom_site_fract_x
_atom_site_fract_y
_atom_site_fract_z
Si Si1 0.090890 0.876498 0.294436
Si Si2 0.359434 0.643675 0.951989
Si Si3 0.655621 0.638689 0.527196
Si Si4 0.964466 0.693438 0.187666
Si Si5 0.784315 0.538214 0.843942
O O1 0.159521 0.860288 0.378101
O O2 0.007042 0.753569 0.269852
O O3 0.187112 0.900405 0.219826
O O4 0.000000 0.000000 0.300949
O O5 0.250000 0.750000 0.980769
O O6 0.406293 0.698895 0.867352
O O7 0.289944 0.512794 0.922083
O O8 0.500000 0.637742 0.000000
O O9 0.698608 0.500000 0.500000
O O10 0.500000 0.655722 0.500000
O O11 0.750000 0.750000 0.496222
O O12 0.093257 0.634069 0.142553
O O13 0.856519 0.582936 0.194371
#
# Coordination Sequence:
#
# PCOD9324578 Si02
#       5
#     8   8   8   8   8
#     4  12  22  42  71  98 130 174 219 274 332 390
#     4  10  22  42  63  91 130 174 223 273 335 400
#     4  11  25  46  69 101 143 183 226 279 336 406
#     4  10  22  42  66  94 130 167 220 277 329 395
#     4  10  22  42  67  95 128 171 219 275 333 391
#
# _framework density 22.335018999999999
#
# number of rings (size 3 to 8) (size 9 to 14) (size 15 to 20)
#    0.000    1.400    4.000    1.800    0.000    3.600 
#    0.000   18.000    0.000    0.000    0.000    0.000 
#    0.000    0.000    0.000    0.000    0.000    0.000 
#
# Total GULP energy -111853.479824 kJ/mol
# GULP energy per Si atom -5592.673991 kJ/mol
# Density = 2.228418 g / cm^3
# Si number density = 22.335019 Si / 1000 Ang^3
#
#
#
# Elastic Constant Matrix: (Units=GPa)
#
#
# Indices 1 2 3 4 5 6 
#
# 1 114.8812 66.6328 22.7984 0.0000 0.0000 0.0000
# 2 66.6328 109.7884 38.1459 0.0000 0.0000 0.0000
# 3 22.7984 38.1459 91.2882 0.0000 0.0000 0.0000
# 4 0.0000 0.0000 0.0000 15.5805 0.0000 0.0000
# 5 0.0000 0.0000 0.0000 0.0000 -17.6237 0.0000
# 6 0.0000 0.0000 0.0000 0.0000 0.0000 51.6865
#
#
#
# Elastic Compliance Matrix: (Units=1/GPa)
#
#
# Indices 1 2 3 4 5 6 
#
# 1 0.013434 -0.008174 0.000061 0.000000 0.000000 0.000000
# 2 -0.008174 0.015629 -0.004490 0.000000 0.000000 0.000000
# 3 0.000061 -0.004490 0.012815 0.000000 0.000000 0.000000
# 4 0.000000 0.000000 0.000000 0.064183 0.000000 0.000000
# 5 0.000000 0.000000 0.000000 0.000000 -0.056742 0.000000
# 6 0.000000 0.000000 0.000000 0.000000 0.000000 0.019347
#
#
# Mechanical properties :
#
#
# Convention : Reuss Voigt Hill
#
# Bulk Modulus (GPa) = 59.97985 63.45691 61.71838
# Shear Modulus (GPa) = 50.28643 22.48738 36.38690
#
# Velocity S-wave (km/s) = 4.75010 3.17649 4.04064
# Velocity P-wave (km/s) = 7.54967 6.47507 7.03293
#
# Compressibility (1/GPa) = 0.01667227
#
# Stress axis : x y z
#
# Youngs Moduli (GPa) = 74.43890 63.98157 78.03277
#
# Poissons Ratio (x) = 0.52301 -0.00474
# Poissons Ratio (y) = 0.60849 0.35033
# Poissons Ratio (z) = -0.00452 0.28725
#
# Static dielectric constant tensor:
#      x y z
#    x 1.871960 0.000000 0.000000 
#    y 0.000000 1.874880 0.000000 
#    z 0.000000 0.000000 1.789200 
# 
# From -- ./inp_files/35455.got.cif
#   From: 2010.05.17/outbox.cif.g08.bks.cpg/sg21_18_cif.got.tgz:35455.got - 2010.06.03 23:14:55.
