data_PCOD9324887
_publ_section_title
;
Structure prediction by ZEFSAII (Michael W. Deem and Ramdas Pophale) SiO2 
 PCOD9324887
Probable space group: C 2 2 2
;
_chemical_formula_sum "Si O2"
_cell_formula_units_Z 40
_cell_length_a 14.414957
_cell_length_b 8.351711
_cell_length_c 13.274628
_cell_angle_alpha 90.000000
_cell_angle_beta 90.000000
_cell_angle_gamma 90.000000
_cell_volume 1598.126557
_symmetry_space_group_name_H-M "C 2 2 2"
_symmetry_group_IT_number 21
_symmetry_cell_setting 'orthorhombic'
loop_
_space_group_symop_operation_xyz
x,y,z
-x,-y,z
x,-y,-z
-x,y,-z
1/2+x,1/2+y,z
1/2-x,1/2-y,z
1/2+x,1/2-y,-z
1/2-x,1/2+y,-z
loop_
_atom_site_type_symbol
_atom_site_label
_atom_site_fract_x
_atom_site_fract_y
_atom_site_fract_z
Si Si1 0.520564 0.827788 0.156262
Si Si2 0.663558 0.145217 0.655645
Si Si3 0.097000 0.097777 0.740973
Si Si4 0.103467 0.306606 0.549882
Si Si5 0.324828 0.388425 0.095106
O O1 0.583867 0.847006 0.258423
O O2 0.424704 0.751547 0.190996
O O3 0.576904 0.703535 0.089474
O O4 0.500000 0.000000 0.113150
O O5 0.750000 0.250000 0.696930
O O6 0.650215 0.245335 0.553194
O O7 0.648315 0.963727 0.607222
O O8 0.112751 0.164674 0.630264
O O9 0.171076 0.996386 0.803336
O O10 0.000000 0.000000 0.738351
O O11 0.000000 0.334260 0.500000
O O12 0.250000 0.250000 0.093741
O O13 0.311092 0.500000 0.000000
#
# Coordination Sequence:
#
# PCOD9324887 Si02
#       5
#     8   8   8   8   8
#     4  11  21  46  83 108 145 197 253 320 379 454
#     4  11  22  40  67 113 160 205 254 310 379 460
#     4  10  23  45  78 114 145 197 264 316 369 455
#     4  11  21  45  76 106 159 212 261 310 375 446
#     4  11  28  55  78 111 156 194 250 325 406 470
#
# _framework density 25.029306999999999
#
# number of rings (size 3 to 8) (size 9 to 14) (size 15 to 20)
#    0.000    1.200    4.000    1.800    0.000    5.600 
#   25.200    1.000    0.000    0.000    0.000    0.000 
#    0.000    0.000    0.000    0.000    0.000    0.000 
#
# Total GULP energy -111571.331884 kJ/mol
# GULP energy per Si atom -5578.566594 kJ/mol
# Density = 2.497234 g / cm^3
# Si number density = 25.029307 Si / 1000 Ang^3
#
#
#
# Elastic Constant Matrix: (Units=GPa)
#
#
# Indices 1 2 3 4 5 6 
#
# 1 80.2079 43.3631 49.0475 0.0000 0.0000 0.0000
# 2 43.3631 158.9273 93.9912 0.0000 0.0000 0.0000
# 3 49.0475 93.9912 176.0319 0.0000 0.0000 0.0000
# 4 0.0000 0.0000 0.0000 13.5334 0.0000 0.0000
# 5 0.0000 0.0000 0.0000 0.0000 23.0460 0.0000
# 6 0.0000 0.0000 0.0000 0.0000 0.0000 36.2682
#
#
#
# Elastic Compliance Matrix: (Units=1/GPa)
#
#
# Indices 1 2 3 4 5 6 
#
# 1 0.015667 -0.002474 -0.003044 0.000000 0.000000 0.000000
# 2 -0.002474 0.009587 -0.004429 0.000000 0.000000 0.000000
# 3 -0.003044 -0.004429 0.008894 0.000000 0.000000 0.000000
# 4 0.000000 0.000000 0.000000 0.073891 0.000000 0.000000
# 5 0.000000 0.000000 0.000000 0.000000 0.043391 0.000000
# 6 0.000000 0.000000 0.000000 0.000000 0.000000 0.027572
#
#
# Mechanical properties :
#
#
# Convention : Reuss Voigt Hill
#
# Bulk Modulus (GPa) = 70.16561 87.55230 78.85896
# Shear Modulus (GPa) = 24.55202 29.82055 27.18628
#
# Velocity S-wave (km/s) = 3.13538 3.45545 3.29930
# Velocity P-wave (km/s) = 6.41886 7.13975 6.78888
#
# Compressibility (1/GPa) = 0.01425200
#
# Stress axis : x y z
#
# Youngs Moduli (GPa) = 63.82934 104.30852 112.43504
#
# Poissons Ratio (x) = 0.25810 0.34225
# Poissons Ratio (y) = 0.15794 0.49803
# Poissons Ratio (z) = 0.19430 0.46203
#
# Static dielectric constant tensor:
#      x y z
#    x 2.275010 0.000000 0.000000 
#    y 0.000000 2.056840 0.000000 
#    z 0.000000 0.000000 1.974270 
# 
# From -- ./inp_files/32106.got.cif
#   From: 2010.05.17/outbox.cif.g08.bks.cpg/sg21_17_cif.got.tgz:32106.got - 2010.06.03 23:14:55.
