data_PCOD9324549
_publ_section_title
;
Structure prediction by ZEFSAII (Michael W. Deem and Ramdas Pophale) SiO2 
 PCOD9324549
Probable space group: C 2 2 2
;
_chemical_formula_sum "Si O2"
_cell_formula_units_Z 40
_cell_length_a 5.338080
_cell_length_b 19.964521
_cell_length_c 18.062672
_cell_angle_alpha 90.000000
_cell_angle_beta 90.000000
_cell_angle_gamma 90.000000
_cell_volume 1924.978878
_symmetry_space_group_name_H-M "C 2 2 2"
_symmetry_group_IT_number 21
_symmetry_cell_setting 'orthorhombic'
loop_
_space_group_symop_operation_xyz
x,y,z
-x,-y,z
x,-y,-z
-x,y,-z
1/2+x,1/2+y,z
1/2-x,1/2-y,z
1/2+x,1/2-y,-z
1/2-x,1/2+y,-z
loop_
_atom_site_type_symbol
_atom_site_label
_atom_site_fract_x
_atom_site_fract_y
_atom_site_fract_z
Si Si1 0.043797 0.079759 0.585349
Si Si2 0.046614 0.119051 0.829876
Si Si3 0.374506 0.928512 0.291423
Si Si4 0.786777 0.175385 0.704728
Si Si5 0.033332 0.579057 0.911903
O O1 0.315597 0.086341 0.622621
O O2 0.000000 0.095528 0.500000
O O3 0.887955 0.128930 0.638195
O O4 0.000000 0.000000 0.595111
O O5 0.132134 0.069911 0.762080
O O6 0.297715 0.119629 0.878232
O O7 0.964853 0.180537 0.777400
O O8 0.806913 0.098804 0.879656
O O9 0.547722 0.866785 0.267335
O O10 0.500000 0.000000 0.285185
O O11 0.750000 0.250000 0.676967
O O12 0.000000 0.500000 0.893651
O O13 0.000000 0.585529 0.000000
#
# Coordination Sequence:
#
# PCOD9324549 Si02
#       5
#     8   8   8   8   8
#     4  10  22  41  65  98 136 181 232 282 347 410
#     4  11  23  39  66  96 137 178 226 276 341 401
#     4  11  22  40  70  99 132 178 234 286 340 401
#     4  11  25  44  67 102 135 178 235 287 340 403
#     4  11  23  38  63 104 144 176 220 282 346 404
#
# _framework density 20.779447999999999
#
# number of rings (size 3 to 8) (size 9 to 14) (size 15 to 20)
#    0.000    1.200    4.000    1.800    2.800    5.600 
#    3.600    0.000    0.000    2.400    0.000    0.000 
#    0.000    0.000    0.000    0.000    0.000    0.000 
#
# Total GULP energy -111365.402852 kJ/mol
# GULP energy per Si atom -5568.270143 kJ/mol
# Density = 2.073215 g / cm^3
# Si number density = 20.779448 Si / 1000 Ang^3
#
#
#
# Elastic Constant Matrix: (Units=GPa)
#
#
# Indices 1 2 3 4 5 6 
#
# 1 116.1452 40.8952 56.6009 0.0000 0.0000 0.0000
# 2 40.8952 95.8223 35.6529 0.0000 0.0000 0.0000
# 3 56.6009 35.6529 158.3418 0.0000 0.0000 0.0000
# 4 0.0000 0.0000 0.0000 11.8235 0.0000 0.0000
# 5 0.0000 0.0000 0.0000 0.0000 65.3662 0.0000
# 6 0.0000 0.0000 0.0000 0.0000 0.0000 14.1211
#
#
#
# Elastic Compliance Matrix: (Units=1/GPa)
#
#
# Indices 1 2 3 4 5 6 
#
# 1 0.011509 -0.003690 -0.003283 0.000000 0.000000 0.000000
# 2 -0.003690 0.012574 -0.001512 0.000000 0.000000 0.000000
# 3 -0.003283 -0.001512 0.007829 0.000000 0.000000 0.000000
# 4 0.000000 0.000000 0.000000 0.084577 0.000000 0.000000
# 5 0.000000 0.000000 0.000000 0.000000 0.015298 0.000000
# 6 0.000000 0.000000 0.000000 0.000000 0.000000 0.070816
#
#
# Mechanical properties :
#
#
# Convention : Reuss Voigt Hill
#
# Bulk Modulus (GPa) = 66.92848 70.73414 68.83131
# Shear Modulus (GPa) = 22.26622 34.07284 28.16953
#
# Velocity S-wave (km/s) = 3.27701 4.05376 3.68590
# Velocity P-wave (km/s) = 6.82622 7.48498 7.16318
#
# Compressibility (1/GPa) = 0.01494132
#
# Stress axis : x y z
#
# Youngs Moduli (GPa) = 86.88635 79.53220 127.72213
#
# Poissons Ratio (x) = 0.29350 0.41933
# Poissons Ratio (y) = 0.32064 0.19311
# Poissons Ratio (z) = 0.28526 0.12025
#
# Static dielectric constant tensor:
#      x y z
#    x 1.898750 0.000000 0.000000 
#    y 0.000000 1.717610 0.000000 
#    z 0.000000 0.000000 1.785550 
# 
# From -- ./inp_files/34683.got.cif
#   From: 2010.05.17/outbox.cif.g08.bks.cpg/sg21_18_cif.got.tgz:34683.got - 2010.06.03 23:14:55.
