data_PCOD9324525
_publ_section_title
;
Structure prediction by ZEFSAII (Michael W. Deem and Ramdas Pophale) SiO2 
 PCOD9324525
Probable space group: C 2 2 2
;
_chemical_formula_sum "Si O2"
_cell_formula_units_Z 54
_cell_length_a 16.658304
_cell_length_b 5.163849
_cell_length_c 30.724172
_cell_angle_alpha 90.000000
_cell_angle_beta 90.000000
_cell_angle_gamma 90.000000
_cell_volume 2642.922969
_symmetry_space_group_name_H-M "C 2 2 2"
_symmetry_group_IT_number 21
_symmetry_cell_setting 'orthorhombic'
loop_
_space_group_symop_operation_xyz
x,y,z
-x,-y,z
x,-y,-z
-x,y,-z
1/2+x,1/2+y,z
1/2-x,1/2-y,z
1/2+x,1/2-y,-z
1/2-x,1/2+y,-z
loop_
_atom_site_type_symbol
_atom_site_label
_atom_site_fract_x
_atom_site_fract_y
_atom_site_fract_z
Si Si1 0.000000 0.500000 0.000000
Si Si2 0.802672 0.000000 0.000000
Si Si3 0.653531 0.750622 0.307068
Si Si4 0.442945 0.250536 0.837064
Si Si5 0.303712 0.506499 0.552282
Si Si6 0.846302 0.746242 0.748420
Si Si7 0.916483 0.855647 0.930800
Si Si8 0.053301 0.240172 0.392528
O O1 0.058986 0.349129 0.967642
O O2 0.750000 0.750000 0.992127
O O3 0.854443 0.964039 0.043950
O O4 0.750000 0.750000 0.313503
O O5 0.631298 0.479532 0.284274
O O6 0.610948 0.809839 0.352511
O O7 0.631126 0.976976 0.273889
O O8 0.500000 0.500000 0.834253
O O9 0.386241 0.262012 0.795357
O O10 0.395126 0.252632 0.883184
O O11 0.500000 0.000000 0.836808
O O12 0.312078 0.500000 0.500000
O O13 0.250000 0.750000 0.564735
O O14 0.390228 0.590881 0.571820
O O15 0.250000 0.250000 0.564868
O O16 0.750000 0.750000 0.752995
O O17 0.000000 0.000000 0.923798
O O18 0.000000 0.500000 0.404768
O O19 0.000000 0.000000 0.376519
#
# Coordination Sequence:
#
# PCOD9324525 Si02
#       8
#     2   4   8   8   8   8   8   8
#     4  12  16  40  72  80 120 158 218 246 282 366
#     4  12  26  40  61  93 126 154 198 258 310 348
#     4  10  22  41  64  87 120 171 215 250 310 389
#     4  11  24  39  62  92 118 154 204 247 303 369
#     4  10  22  43  68  92 127 181 232 269 319 399
#     4  10  22  41  62  87 122 162 202 256 317 373
#     4  11  23  40  64  88 117 167 204 243 300 376
#     4  12  25  39  63 101 135 165 213 280 342 378
#
# _framework density 20.431923000000001
#
# number of rings (size 3 to 8) (size 9 to 14) (size 15 to 20)
#    0.000    1.185    2.222    3.556    0.000    6.222 
#    0.000    2.963    0.000    0.000    0.000    0.000 
#    0.000    0.000    0.000    0.000    0.000    0.000 
#
# Total GULP energy -150611.953640 kJ/mol
# GULP energy per Si atom -5578.220505 kJ/mol
# Density = 2.038542 g / cm^3
# Si number density = 20.431923 Si / 1000 Ang^3
#
#
#
# Elastic Constant Matrix: (Units=GPa)
#
#
# Indices 1 2 3 4 5 6 
#
# 1 54.6887 28.4269 41.1621 0.0000 0.0000 0.0000
# 2 28.4269 124.8057 25.5154 0.0000 0.0000 0.0000
# 3 41.1621 25.5154 96.5343 0.0000 0.0000 0.0000
# 4 0.0000 0.0000 0.0000 18.9330 0.0000 0.0000
# 5 0.0000 0.0000 0.0000 0.0000 -807.2147 0.0000
# 6 0.0000 0.0000 0.0000 0.0000 0.0000 25.1491
#
#
#
# Elastic Compliance Matrix: (Units=1/GPa)
#
#
# Indices 1 2 3 4 5 6 
#
# 1 0.028961 -0.004304 -0.011211 0.000000 0.000000 0.000000
# 2 -0.004304 0.009110 -0.000572 0.000000 0.000000 0.000000
# 3 -0.011211 -0.000572 0.015291 0.000000 0.000000 0.000000
# 4 0.000000 0.000000 0.000000 0.052818 0.000000 0.000000
# 5 0.000000 0.000000 0.000000 0.000000 -0.001239 0.000000
# 6 0.000000 0.000000 0.000000 0.000000 0.000000 0.039763
#
#
# Mechanical properties :
#
#
# Convention : Reuss Voigt Hill
#
# Bulk Modulus (GPa) = 47.20219 51.80418 49.50318
# Shear Modulus (GPa) = 27.18259 -140.56488 -56.69115
#
# Velocity S-wave (km/s) = 3.65142 -8.30338 -5.27320
# Velocity P-wave (km/s) = 6.39761 8.15589 3.57694
#
# Compressibility (1/GPa) = 0.02118546
#
# Stress axis : x y z
#
# Youngs Moduli (GPa) = 34.52928 109.77071 65.39890
#
# Poissons Ratio (x) = 0.47249 0.73320
# Poissons Ratio (y) = 0.14863 0.03744
# Poissons Ratio (z) = 0.38711 0.06284
#
# Static dielectric constant tensor:
#      x y z
#    x 1.823260 0.000000 0.000000 
#    y 0.000000 1.963950 0.000000 
#    z 0.000000 0.000000 1.742790 
# 
# From -- ./inp_files/39608.got.cif
#   From: 2010.05.17/outbox.cif.g08.bks.cpg/sg21_20_cif.got.tgz:39608.got - 2010.06.03 23:14:55.
