data_PCOD9324259
_publ_section_title
;
Structure prediction by ZEFSAII (Michael W. Deem and Ramdas Pophale) SiO2 
 PCOD9324259
Probable space group: C 2 2 2
;
_chemical_formula_sum "Si O2"
_cell_formula_units_Z 40
_cell_length_a 24.021353
_cell_length_b 9.115430
_cell_length_c 9.144485
_cell_angle_alpha 90.000000
_cell_angle_beta 90.000000
_cell_angle_gamma 90.000000
_cell_volume 2002.321808
_symmetry_space_group_name_H-M "C 2 2 2"
_symmetry_group_IT_number 21
_symmetry_cell_setting 'orthorhombic'
loop_
_space_group_symop_operation_xyz
x,y,z
-x,-y,z
x,-y,-z
-x,y,-z
1/2+x,1/2+y,z
1/2-x,1/2-y,z
1/2+x,1/2-y,-z
1/2-x,1/2+y,-z
loop_
_atom_site_type_symbol
_atom_site_label
_atom_site_fract_x
_atom_site_fract_y
_atom_site_fract_z
Si Si1 0.786729 0.608069 0.865042
Si Si2 0.399549 0.164733 0.682539
Si Si3 0.282511 0.106965 0.365327
Si Si4 0.000883 0.825144 0.832201
Si Si5 0.401852 0.173298 0.342420
O O1 0.750000 0.750000 0.905079
O O2 0.842084 0.660149 0.775661
O O3 0.754034 0.501546 0.750584
O O4 0.800274 0.500000 0.000000
O O5 0.445856 0.262027 0.757979
O O6 0.395529 0.214435 0.513419
O O7 0.420247 0.996126 0.672795
O O8 0.250000 0.250000 0.415723
O O9 0.338179 0.168789 0.288679
O O10 0.297927 0.000000 0.500000
O O11 0.055222 0.769969 0.746136
O O12 0.000000 0.000000 0.829552
O O13 0.000000 0.774133 0.000000
#
# Coordination Sequence:
#
# PCOD9324259 Si02
#       5
#     8   8   8   8   8
#     4  11  24  43  65 100 138 181 229 278 338 408
#     4  10  22  41  67  92 125 170 221 274 323 406
#     4  11  22  41  68 100 137 175 222 278 332 403
#     4  11  26  43  61  94 133 169 217 277 340 400
#     4  10  21  42  66  95 124 168 224 269 329 400
#
# _framework density 19.97681
#
# number of rings (size 3 to 8) (size 9 to 14) (size 15 to 20)
#    0.000    1.400    4.000    2.400    5.600    5.600 
#    3.600    0.000    0.000    0.000    0.000    0.000 
#    0.000    0.000    0.000    0.000    0.000    0.000 
#
# Total GULP energy -111551.312037 kJ/mol
# GULP energy per Si atom -5577.565602 kJ/mol
# Density = 1.993134 g / cm^3
# Si number density = 19.976810 Si / 1000 Ang^3
#
#
#
# Elastic Constant Matrix: (Units=GPa)
#
#
# Indices 1 2 3 4 5 6 
#
# 1 92.4078 58.7725 45.4780 0.0000 0.0000 0.0000
# 2 58.7725 80.2178 44.8695 0.0000 0.0000 0.0000
# 3 45.4780 44.8695 121.9049 0.0000 0.0000 0.0000
# 4 0.0000 0.0000 0.0000 34.6980 0.0000 0.0000
# 5 0.0000 0.0000 0.0000 0.0000 23.9169 0.0000
# 6 0.0000 0.0000 0.0000 0.0000 0.0000 24.3459
#
#
#
# Elastic Compliance Matrix: (Units=1/GPa)
#
#
# Indices 1 2 3 4 5 6 
#
# 1 0.020961 -0.013831 -0.002729 0.000000 0.000000 0.000000
# 2 -0.013831 0.024824 -0.003977 0.000000 0.000000 0.000000
# 3 -0.002729 -0.003977 0.010685 0.000000 0.000000 0.000000
# 4 0.000000 0.000000 0.000000 0.028820 0.000000 0.000000
# 5 0.000000 0.000000 0.000000 0.000000 0.041811 0.000000
# 6 0.000000 0.000000 0.000000 0.000000 0.000000 0.041075
#
#
# Mechanical properties :
#
#
# Convention : Reuss Voigt Hill
#
# Bulk Modulus (GPa) = 64.95204 65.86339 65.40771
# Shear Modulus (GPa) = 23.32266 26.28620 24.80443
#
# Velocity S-wave (km/s) = 3.42056 3.63138 3.52754
# Velocity P-wave (km/s) = 6.94151 7.11506 7.02882
#
# Compressibility (1/GPa) = 0.01539598
#
# Stress axis : x y z
#
# Youngs Moduli (GPa) = 47.70661 40.28325 93.58823
#
# Poissons Ratio (x) = 0.55716 0.25541
# Poissons Ratio (y) = 0.65984 0.37222
# Poissons Ratio (z) = 0.13019 0.16021
#
# Static dielectric constant tensor:
#      x y z
#    x 1.702780 0.000000 0.000000 
#    y 0.000000 1.699790 0.000000 
#    z 0.000000 0.000000 1.762010 
# 
# From -- ./inp_files/18234.got.cif
#   From: 2010.05.17/outbox.cif.g08.bks.cpg/sg21_10_cif.got.tgz:18234.got - 2010.06.03 23:14:55.
