data_PCOD9324190
_publ_section_title
;
Structure prediction by ZEFSAII (Michael W. Deem and Ramdas Pophale) SiO2 
 PCOD9324190
Probable space group: C 2 2 2
;
_chemical_formula_sum "Si O2"
_cell_formula_units_Z 32
_cell_length_a 30.256310
_cell_length_b 9.166493
_cell_length_c 5.197512
_cell_angle_alpha 90.000000
_cell_angle_beta 90.000000
_cell_angle_gamma 90.000000
_cell_volume 1441.500087
_symmetry_space_group_name_H-M "C 2 2 2"
_symmetry_group_IT_number 21
_symmetry_cell_setting 'orthorhombic'
loop_
_space_group_symop_operation_xyz
x,y,z
-x,-y,z
x,-y,-z
-x,y,-z
1/2+x,1/2+y,z
1/2-x,1/2-y,z
1/2+x,1/2-y,-z
1/2-x,1/2+y,-z
loop_
_atom_site_type_symbol
_atom_site_label
_atom_site_fract_x
_atom_site_fract_y
_atom_site_fract_z
Si Si1 0.061648 0.242974 0.192230
Si Si2 0.881504 0.720032 0.690927
Si Si3 0.343334 0.000000 0.000000
Si Si4 0.500000 0.500000 0.000000
Si Si5 0.295736 0.166155 0.397293
Si Si6 0.500000 0.000000 0.000000
O O1 0.084852 0.249347 0.465584
O O2 0.097521 0.223048 0.959014
O O3 0.032153 0.388413 0.150733
O O4 0.029700 0.105649 0.171189
O O5 0.874264 0.551385 0.770530
O O6 0.832829 0.750048 0.567509
O O7 0.314615 0.867451 0.888806
O O8 0.250000 0.250000 0.394848
O O9 0.289183 0.000000 0.500000
#
# Coordination Sequence:
#
# PCOD9324190 Si02
#       6
#     8   8   4   2   8   2
#     4  11  25  45  70  99 144 177 245 278 376 403
#     4  11  23  42  71 101 137 188 223 298 339 432
#     4  10  21  40  71 105 140 184 232 298 350 405
#     4  10  28  52  66 104 146 200 224 318 344 444
#     4  10  23  44  69 104 144 184 234 290 352 419
#     4  10  26  36  72 104 122 176 224 304 328 442
#
# _framework density 22.199099
#
# number of rings (size 3 to 8) (size 9 to 14) (size 15 to 20)
#    0.000    1.500    2.500    0.750    7.000   11.000 
#    4.500    0.000    0.000    0.000    0.000    0.000 
#    0.000    0.000    0.000    0.000    0.000    0.000 
#
# Total GULP energy -89269.769990 kJ/mol
# GULP energy per Si atom -5579.360624 kJ/mol
# Density = 2.214857 g / cm^3
# Si number density = 22.199099 Si / 1000 Ang^3
#
#
#
# Elastic Constant Matrix: (Units=GPa)
#
#
# Indices 1 2 3 4 5 6 
#
# 1 150.6652 59.7177 55.2862 0.0000 0.0000 0.0000
# 2 59.7177 89.8822 23.5989 0.0000 0.0000 0.0000
# 3 55.2862 23.5989 151.8015 0.0000 0.0000 0.0000
# 4 0.0000 0.0000 0.0000 11.9110 0.0000 0.0000
# 5 0.0000 0.0000 0.0000 0.0000 82.6416 0.0000
# 6 0.0000 0.0000 0.0000 0.0000 0.0000 46.7251
#
#
#
# Elastic Compliance Matrix: (Units=1/GPa)
#
#
# Indices 1 2 3 4 5 6 
#
# 1 0.009979 -0.005917 -0.002714 0.000000 0.000000 0.000000
# 2 -0.005917 0.015108 -0.000194 0.000000 0.000000 0.000000
# 3 -0.002714 -0.000194 0.007606 0.000000 0.000000 0.000000
# 4 0.000000 0.000000 0.000000 0.083956 0.000000 0.000000
# 5 0.000000 0.000000 0.000000 0.000000 0.012100 0.000000
# 6 0.000000 0.000000 0.000000 0.000000 0.000000 0.021402
#
#
# Mechanical properties :
#
#
# Convention : Reuss Voigt Hill
#
# Bulk Modulus (GPa) = 66.47843 74.39495 70.43669
# Shear Modulus (GPa) = 28.93268 45.17195 37.05232
#
# Velocity S-wave (km/s) = 3.61408 4.51583 4.08988
# Velocity P-wave (km/s) = 6.88672 7.79587 7.35536
#
# Compressibility (1/GPa) = 0.01504247
#
# Stress axis : x y z
#
# Youngs Moduli (GPa) = 100.21505 66.19086 131.47147
#
# Poissons Ratio (x) = 0.39166 0.35686
# Poissons Ratio (y) = 0.59298 0.02546
# Poissons Ratio (z) = 0.27202 0.01282
#
# Static dielectric constant tensor:
#      x y z
#    x 1.854850 0.000000 0.000000 
#    y 0.000000 1.820130 0.000000 
#    z 0.000000 0.000000 1.917530 
# 
# From -- ./inp_files/7809.got.cif
#   From: 2010.05.17/outbox.cif.g08.bks.cpg/sg21_4_cif.got.tgz:7809.got - 2010.06.03 23:14:55.
