data_PCOD9324576
_publ_section_title
;
Structure prediction by ZEFSAII (Michael W. Deem and Ramdas Pophale) SiO2 
 PCOD9324576
Probable space group: C 2 2 2
;
_chemical_formula_sum "Si O2"
_cell_formula_units_Z 60
_cell_length_a 24.315034
_cell_length_b 20.011637
_cell_length_c 5.348380
_cell_angle_alpha 90.000000
_cell_angle_beta 90.000000
_cell_angle_gamma 90.000000
_cell_volume 2602.434177
_symmetry_space_group_name_H-M "C 2 2 2"
_symmetry_group_IT_number 21
_symmetry_cell_setting 'orthorhombic'
loop_
_space_group_symop_operation_xyz
x,y,z
-x,-y,z
x,-y,-z
-x,y,-z
1/2+x,1/2+y,z
1/2-x,1/2-y,z
1/2+x,1/2-y,-z
1/2-x,1/2+y,-z
loop_
_atom_site_type_symbol
_atom_site_label
_atom_site_fract_x
_atom_site_fract_y
_atom_site_fract_z
Si Si1 0.106418 0.831039 0.976001
Si Si2 0.749115 0.000000 0.000000
Si Si3 0.435770 0.260896 0.529825
Si Si4 0.761788 0.617722 0.648479
Si Si5 0.976257 0.575483 0.246998
Si Si6 0.697567 0.769037 0.992105
Si Si7 0.366811 0.860459 0.652198
Si Si8 0.661578 0.562821 0.355587
O O1 0.080720 0.795475 0.732421
O O2 0.165134 0.798850 0.041869
O O3 0.122174 0.902246 0.848890
O O4 0.073607 0.810607 0.230400
O O5 0.723066 0.937842 0.857545
O O6 0.788721 0.030840 0.794453
O O7 0.500000 0.246186 0.500000
O O8 0.397208 0.193787 0.532745
O O9 0.810369 0.609117 0.447980
O O10 0.699091 0.609171 0.543468
O O11 0.775097 0.689298 0.769788
O O12 0.911266 0.584435 0.266987
O O13 0.000000 0.500000 0.241702
O O14 0.000000 0.604506 0.500000
O O15 0.000000 0.609900 0.000000
O O16 0.750000 0.750000 0.164989
O O17 0.652870 0.816787 0.115245
O O18 0.634383 0.500000 0.500000
#
# Coordination Sequence:
#
# PCOD9324576 Si02
#       8
#     8   4   8   8   8   8   8   8
#     4  11  24  44  72 107 140 191 239 293 381 445
#     4  10  22  42  62  94 150 186 244 292 354 438
#     4  11  25  44  71 104 142 185 243 313 370 440
#     4  11  22  41  62 101 139 199 239 306 364 448
#     4  10  24  47  67  95 128 185 257 327 375 438
#     4  11  24  39  65 101 146 184 237 305 367 456
#     4  11  24  42  68  95 138 192 246 302 386 437
#     4  10  24  43  70 105 149 197 241 297 367 466
#
# _framework density 23.055337000000002
#
# number of rings (size 3 to 8) (size 9 to 14) (size 15 to 20)
#    0.000    1.333    1.333    3.200    7.467    2.667 
#   12.000    0.000    0.000    0.400    0.000    0.000 
#    0.000    0.000    0.000    0.000    0.000    0.000 
#
# Total GULP energy -167188.309630 kJ/mol
# GULP energy per Si atom -5572.943654 kJ/mol
# Density = 2.300286 g / cm^3
# Si number density = 23.055337 Si / 1000 Ang^3
#
#
#
# Elastic Constant Matrix: (Units=GPa)
#
#
# Indices 1 2 3 4 5 6 
#
# 1 86.6210 32.0955 19.2392 0.0000 0.0000 0.0000
# 2 32.0955 100.8878 39.4519 0.0000 0.0000 0.0000
# 3 19.2392 39.4519 143.2401 0.0000 0.0000 0.0000
# 4 0.0000 0.0000 0.0000 25.7153 0.0000 0.0000
# 5 0.0000 0.0000 0.0000 0.0000 23.8834 0.0000
# 6 0.0000 0.0000 0.0000 0.0000 0.0000 16.0149
#
#
#
# Elastic Compliance Matrix: (Units=1/GPa)
#
#
# Indices 1 2 3 4 5 6 
#
# 1 0.013147 -0.003914 -0.000688 0.000000 0.000000 0.000000
# 2 -0.003914 0.012273 -0.002855 0.000000 0.000000 0.000000
# 3 -0.000688 -0.002855 0.007860 0.000000 0.000000 0.000000
# 4 0.000000 0.000000 0.000000 0.038887 0.000000 0.000000
# 5 0.000000 0.000000 0.000000 0.000000 0.041870 0.000000
# 6 0.000000 0.000000 0.000000 0.000000 0.000000 0.062442
#
#
# Mechanical properties :
#
#
# Convention : Reuss Voigt Hill
#
# Bulk Modulus (GPa) = 54.44205 56.92468 55.68336
# Shear Modulus (GPa) = 25.31447 29.12020 27.21734
#
# Velocity S-wave (km/s) = 3.31718 3.55781 3.43960
# Velocity P-wave (km/s) = 6.19165 6.45146 6.32289
#
# Compressibility (1/GPa) = 0.01836816
#
# Stress axis : x y z
#
# Youngs Moduli (GPa) = 76.06047 81.47727 127.22705
#
# Poissons Ratio (x) = 0.31887 0.08753
# Poissons Ratio (y) = 0.29767 0.36320
# Poissons Ratio (z) = 0.05233 0.23260
#
# Static dielectric constant tensor:
#      x y z
#    x 1.887820 0.000000 0.000000 
#    y 0.000000 1.972330 0.000000 
#    z 0.000000 0.000000 2.012740 
# 
# From -- ./inp_files/6839.got.cif
#   From: 2010.05.17/outbox.cif.g08.bks.cpg/sg21_4_cif.got.tgz:6839.got - 2010.06.03 23:14:55.
