data_PCOD9324763
_publ_section_title
;
Structure prediction by ZEFSAII (Michael W. Deem and Ramdas Pophale) SiO2 
 PCOD9324763
Probable space group: C 2 2 2
;
_chemical_formula_sum "Si O2"
_cell_formula_units_Z 46
_cell_length_a 6.089004
_cell_length_b 21.023864
_cell_length_c 17.918795
_cell_angle_alpha 90.000000
_cell_angle_beta 90.000000
_cell_angle_gamma 90.000000
_cell_volume 2293.863647
_symmetry_space_group_name_H-M "C 2 2 2"
_symmetry_group_IT_number 21
_symmetry_cell_setting 'orthorhombic'
loop_
_space_group_symop_operation_xyz
x,y,z
-x,-y,z
x,-y,-z
-x,y,-z
1/2+x,1/2+y,z
1/2-x,1/2-y,z
1/2+x,1/2-y,-z
1/2-x,1/2+y,-z
loop_
_atom_site_type_symbol
_atom_site_label
_atom_site_fract_x
_atom_site_fract_y
_atom_site_fract_z
Si Si1 0.768725 0.116440 0.272850
Si Si2 0.750000 0.250000 0.071677
Si Si3 0.000000 0.861087 0.000000
Si Si4 0.348361 0.411633 0.153410
Si Si5 0.500000 0.000000 0.780116
Si Si6 0.614818 0.432961 0.423245
Si Si7 0.500000 0.000000 0.500000
Si Si8 0.441610 0.793195 0.801033
O O1 0.595247 0.058054 0.268196
O O2 0.876436 0.114319 0.354298
O O3 0.635796 0.179888 0.251095
O O4 0.955395 0.101253 0.211809
O O5 0.803547 0.187535 0.023612
O O6 0.546215 0.242365 0.128093
O O7 0.939028 0.903927 0.070501
O O8 0.176321 0.355027 0.166468
O O9 0.205652 0.474090 0.171611
O O10 0.500000 0.500000 0.400022
O O11 0.500000 0.410820 0.500000
O O12 0.853687 0.455044 0.448823
O O13 0.250000 0.750000 0.765853
#
# Coordination Sequence:
#
# PCOD9324763 Si02
#       8
#     8   4   4   8   4   8   2   8
#     4  11  21  39  61  85 130 165 207 253 314 381
#     4  12  22  42  62  88 120 138 204 274 330 372
#     4  12  22  38  65  82 118 155 200 272 328 368
#     4  11  23  39  59  85 118 160 210 252 318 374
#     4  10  23  38  59  80 118 174 212 243 310 389
#     4   9  18  31  55  88 125 163 204 246 301 366
#     4   8  16  32  52  88 128 156 200 246 304 346
#     4  11  21  39  60  91 118 153 204 263 323 374
#
# _framework density 20.053502999999999
#
# number of rings (size 3 to 8) (size 9 to 14) (size 15 to 20)
#    0.000    1.565    3.478    3.130    0.000    4.174 
#    0.000    2.609    0.000    0.000    0.000    0.000 
#   73.043    0.000    0.000    0.000    0.000    0.000 
#
# Total GULP energy -128441.967720 kJ/mol
# GULP energy per Si atom -5584.433379 kJ/mol
# Density = 2.000786 g / cm^3
# Si number density = 20.053503 Si / 1000 Ang^3
#
#
#
# Elastic Constant Matrix: (Units=GPa)
#
#
# Indices 1 2 3 4 5 6 
#
# 1 98.7428 19.5685 51.3559 0.0000 0.0000 0.0000
# 2 19.5685 56.9162 31.8090 0.0000 0.0000 0.0000
# 3 51.3559 31.8090 158.0816 0.0000 0.0000 0.0000
# 4 0.0000 0.0000 0.0000 17.5933 0.0000 0.0000
# 5 0.0000 0.0000 0.0000 0.0000 -82.3148 0.0000
# 6 0.0000 0.0000 0.0000 0.0000 0.0000 45.5655
#
#
#
# Elastic Compliance Matrix: (Units=1/GPa)
#
#
# Indices 1 2 3 4 5 6 
#
# 1 0.012442 -0.002275 -0.003584 0.000000 0.000000 0.000000
# 2 -0.002275 0.020212 -0.003328 0.000000 0.000000 0.000000
# 3 -0.003584 -0.003328 0.008160 0.000000 0.000000 0.000000
# 4 0.000000 0.000000 0.000000 0.056840 0.000000 0.000000
# 5 0.000000 0.000000 0.000000 0.000000 -0.012148 0.000000
# 6 0.000000 0.000000 0.000000 0.000000 0.000000 0.021946
#
#
# Mechanical properties :
#
#
# Convention : Reuss Voigt Hill
#
# Bulk Modulus (GPa) = 44.56351 57.68971 51.12661
# Shear Modulus (GPa) = 37.50770 10.23595 23.87183
#
# Velocity S-wave (km/s) = 4.32948 2.26173 3.45397
# Velocity P-wave (km/s) = 6.87482 5.97084 6.43871
#
# Compressibility (1/GPa) = 0.02243988
#
# Stress axis : x y z
#
# Youngs Moduli (GPa) = 80.37071 49.47640 122.54921
#
# Poissons Ratio (x) = 0.11254 0.43927
# Poissons Ratio (y) = 0.18281 0.40785
# Poissons Ratio (z) = 0.28808 0.16466
#
# Static dielectric constant tensor:
#      x y z
#    x 1.772610 0.000000 0.000000 
#    y 0.000000 1.818550 0.000000 
#    z 0.000000 0.000000 1.695870 
# 
# From -- ./inp_files/35069.got.cif
#   From: 2010.05.17/outbox.cif.g08.bks.cpg/sg21_18_cif.got.tgz:35069.got - 2010.06.03 23:14:55.
