data_PCOD9324915
_publ_section_title
;
Structure prediction by ZEFSAII (Michael W. Deem and Ramdas Pophale) SiO2 
 PCOD9324915
Probable space group: C 2 2 2
;
_chemical_formula_sum "Si O2"
_cell_formula_units_Z 30
_cell_length_a 34.111222
_cell_length_b 5.398149
_cell_length_c 8.000437
_cell_angle_alpha 90.000000
_cell_angle_beta 90.000000
_cell_angle_gamma 90.000000
_cell_volume 1473.180139
_symmetry_space_group_name_H-M "C 2 2 2"
_symmetry_group_IT_number 21
_symmetry_cell_setting 'orthorhombic'
loop_
_space_group_symop_operation_xyz
x,y,z
-x,-y,z
x,-y,-z
-x,y,-z
1/2+x,1/2+y,z
1/2-x,1/2-y,z
1/2+x,1/2-y,-z
1/2-x,1/2+y,-z
loop_
_atom_site_type_symbol
_atom_site_label
_atom_site_fract_x
_atom_site_fract_y
_atom_site_fract_z
Si Si1 0.276192 0.500000 0.000000
Si Si2 0.095882 0.000000 0.500000
Si Si3 0.456290 0.608549 0.177529
Si Si4 0.295730 0.675831 0.342064
Si Si5 0.854398 0.500000 0.500000
Si Si6 0.500000 0.000000 0.000000
O O1 0.250000 0.750000 0.980330
O O2 0.300851 0.537327 0.167570
O O3 0.070330 0.059477 0.664497
O O4 0.120101 0.254166 0.465869
O O5 0.500000 0.500000 0.204585
O O6 0.441141 0.500000 0.000000
O O7 0.468647 0.884006 0.129571
O O8 0.303181 0.500000 0.500000
O O9 0.250000 0.750000 0.351121
O O10 0.324276 0.910720 0.355562
#
# Coordination Sequence:
#
# PCOD9324915 Si02
#       6
#     4   4   8   8   4   2
#     4  10  24  38  70 107 122 160 229 292 351 400
#     4  12  27  45  64 102 153 180 223 282 346 417
#     4   9  21  43  70 103 131 183 234 279 328 403
#     4  11  22  45  72  94 132 177 231 296 340 407
#     4  12  28  43  67 104 139 188 231 268 367 417
#     4   8  18  40  78 108 128 170 262 260 344 380
#
# _framework density 20.364107000000001
#
# number of rings (size 3 to 8) (size 9 to 14) (size 15 to 20)
#    0.000    1.867    2.667    1.200   11.200    0.000 
#    2.400    2.667    0.000    0.000    0.000    0.000 
#    0.000    0.000    0.000    0.000    0.000    0.000 
#
# Total GULP energy -83508.743191 kJ/mol
# GULP energy per Si atom -5567.249546 kJ/mol
# Density = 2.031776 g / cm^3
# Si number density = 20.364107 Si / 1000 Ang^3
#
#
#
# Elastic Constant Matrix: (Units=GPa)
#
#
# Indices 1 2 3 4 5 6 
#
# 1 99.2924 53.1235 75.6307 0.0000 0.0000 0.0000
# 2 53.1235 115.1053 71.3486 0.0000 0.0000 0.0000
# 3 75.6307 71.3486 195.0400 0.0000 0.0000 0.0000
# 4 0.0000 0.0000 0.0000 48.6803 0.0000 0.0000
# 5 0.0000 0.0000 0.0000 0.0000 -24.7850 0.0000
# 6 0.0000 0.0000 0.0000 0.0000 0.0000 56.9293
#
#
#
# Elastic Compliance Matrix: (Units=1/GPa)
#
#
# Indices 1 2 3 4 5 6 
#
# 1 0.015953 -0.004563 -0.004517 0.000000 0.000000 0.000000
# 2 -0.004563 0.012540 -0.002818 0.000000 0.000000 0.000000
# 3 -0.004517 -0.002818 0.007910 0.000000 0.000000 0.000000
# 4 0.000000 0.000000 0.000000 0.020542 0.000000 0.000000
# 5 0.000000 0.000000 0.000000 0.000000 -0.040347 0.000000
# 6 0.000000 0.000000 0.000000 0.000000 0.000000 0.017566
#
#
# Mechanical properties :
#
#
# Convention : Reuss Voigt Hill
#
# Bulk Modulus (GPa) = 79.31975 89.96036 84.64006
# Shear Modulus (GPa) = 80.43513 30.12061 55.27787
#
# Velocity S-wave (km/s) = 6.29160 3.85008 5.21572
# Velocity P-wave (km/s) = 9.58198 8.00225 8.82752
#
# Compressibility (1/GPa) = 0.01260720
#
# Stress axis : x y z
#
# Youngs Moduli (GPa) = 62.68418 79.74260 126.42844
#
# Poissons Ratio (x) = 0.36385 0.57107
# Poissons Ratio (y) = 0.28601 0.35629
# Poissons Ratio (z) = 0.28314 0.22473
#
# Static dielectric constant tensor:
#      x y z
#    x 1.733550 0.000000 0.000000 
#    y 0.000000 1.666080 0.000000 
#    z 0.000000 0.000000 1.714320 
# 
# From -- ./inp_files/19381.got.cif
#   From: 2010.05.17/outbox.cif.g08.bks.cpg/sg21_10_cif.got.tgz:19381.got - 2010.06.03 23:14:55.
