data_PCOD9324093
_publ_section_title
;
Structure prediction by ZEFSAII (Michael W. Deem and Ramdas Pophale) SiO2 
 PCOD9324093
Probable space group: C 2 2 2
;
_chemical_formula_sum "Si O2"
_cell_formula_units_Z 64
_cell_length_a 13.008600
_cell_length_b 18.060593
_cell_length_c 13.708003
_cell_angle_alpha 90.000000
_cell_angle_beta 90.000000
_cell_angle_gamma 90.000000
_cell_volume 3220.599761
_symmetry_space_group_name_H-M "C 2 2 2"
_symmetry_group_IT_number 21
_symmetry_cell_setting 'orthorhombic'
loop_
_space_group_symop_operation_xyz
x,y,z
-x,-y,z
x,-y,-z
-x,y,-z
1/2+x,1/2+y,z
1/2-x,1/2-y,z
1/2+x,1/2-y,-z
1/2-x,1/2+y,-z
loop_
_atom_site_type_symbol
_atom_site_label
_atom_site_fract_x
_atom_site_fract_y
_atom_site_fract_z
Si Si1 0.525508 0.913989 0.396422
Si Si2 0.353967 0.714394 0.577771
Si Si3 0.415183 0.289454 0.637228
Si Si4 0.745965 0.416782 0.671197
Si Si5 0.180595 0.322847 0.148600
Si Si6 0.620601 0.084355 0.028551
Si Si7 0.607158 0.466581 0.388460
Si Si8 0.557464 0.172500 0.215660
O O1 0.500000 0.879707 0.500000
O O2 0.646400 0.908384 0.382471
O O3 0.463073 0.878834 0.308996
O O4 0.500000 0.000000 0.397804
O O5 0.250000 0.750000 0.619563
O O6 0.463961 0.731062 0.623724
O O7 0.361234 0.734163 0.463941
O O8 0.335715 0.629610 0.607668
O O9 0.400196 0.378339 0.628299
O O10 0.388871 0.245646 0.736844
O O11 0.768666 0.380874 0.775630
O O12 0.703289 0.499494 0.669742
O O13 0.250000 0.250000 0.150808
O O14 0.059247 0.309935 0.175886
O O15 0.179064 0.360259 0.043070
O O16 0.617594 0.122362 0.135920
O O17 0.500000 0.084152 0.000000
O O18 0.654622 0.000000 0.000000
O O19 0.500000 0.500000 0.350598
O O20 0.616183 0.500000 0.500000
#
# Coordination Sequence:
#
# PCOD9324093 Si02
#       8
#     8   8   8   8   8   8   8   8
#     4  10  24  37  56  90 131 166 203 254 316 391
#     4  11  21  35  56  82 125 172 219 259 303 375
#     4  11  22  37  57  90 126 171 221 260 318 376
#     4  11  21  36  60  85 119 167 219 261 307 382
#     4  10  21  39  64  94 114 152 211 272 316 375
#     4   9  20  40  68  90 115 157 205 256 324 392
#     4  11  20  38  57  83 127 181 220 257 303 379
#     4  10  22  38  63  91 124 162 205 263 324 383
#
# _framework density 19.872074999999999
#
# number of rings (size 3 to 8) (size 9 to 14) (size 15 to 20)
#    0.000    1.625    2.500    3.375   10.500    0.000 
#    0.000    1.875    0.000    0.000    0.000    0.000 
#    0.000    0.000    0.000    0.000    0.000    0.000 
#
# Total GULP energy -178327.877397 kJ/mol
# GULP energy per Si atom -5572.746169 kJ/mol
# Density = 1.982684 g / cm^3
# Si number density = 19.872075 Si / 1000 Ang^3
#
#
#
# Elastic Constant Matrix: (Units=GPa)
#
#
# Indices 1 2 3 4 5 6 
#
# 1 59.4887 27.5458 41.2797 0.0000 0.0000 0.0000
# 2 27.5458 127.2546 65.7682 0.0000 0.0000 0.0000
# 3 41.2797 65.7682 143.7894 0.0000 0.0000 0.0000
# 4 0.0000 0.0000 0.0000 23.0700 0.0000 0.0000
# 5 0.0000 0.0000 0.0000 0.0000 15.6071 0.0000
# 6 0.0000 0.0000 0.0000 0.0000 0.0000 23.3248
#
#
#
# Elastic Compliance Matrix: (Units=1/GPa)
#
#
# Indices 1 2 3 4 5 6 
#
# 1 0.021338 -0.001903 -0.005255 0.000000 0.000000 0.000000
# 2 -0.001903 0.010461 -0.004238 0.000000 0.000000 0.000000
# 3 -0.005255 -0.004238 0.010402 0.000000 0.000000 0.000000
# 4 0.000000 0.000000 0.000000 0.043346 0.000000 0.000000
# 5 0.000000 0.000000 0.000000 0.000000 0.064074 0.000000
# 6 0.000000 0.000000 0.000000 0.000000 0.000000 0.042873
#
#
# Mechanical properties :
#
#
# Convention : Reuss Voigt Hill
#
# Bulk Modulus (GPa) = 51.52697 66.63556 59.08126
# Shear Modulus (GPa) = 22.54738 25.46296 24.00517
#
# Velocity S-wave (km/s) = 3.37208 3.58347 3.47938
# Velocity P-wave (km/s) = 6.41458 7.12227 6.77767
#
# Compressibility (1/GPa) = 0.01940731
#
# Stress axis : x y z
#
# Youngs Moduli (GPa) = 46.86533 95.59667 96.13545
#
# Poissons Ratio (x) = 0.18189 0.50524
# Poissons Ratio (y) = 0.08917 0.40746
# Poissons Ratio (z) = 0.24630 0.40518
#
# Static dielectric constant tensor:
#      x y z
#    x 1.779520 0.000000 0.000000 
#    y 0.000000 1.710080 0.000000 
#    z 0.000000 0.000000 1.717280 
# 
# From -- ./inp_files/31745.got.cif
#   From: 2010.05.17/outbox.cif.g08.bks.cpg/sg21_16_cif.got.tgz:31745.got - 2010.06.03 23:14:55.
