data_PCOD9324398
_publ_section_title
;
Structure prediction by ZEFSAII (Michael W. Deem and Ramdas Pophale) SiO2 
 PCOD9324398
Probable space group: C 2 2 2
;
_chemical_formula_sum "Si O2"
_cell_formula_units_Z 20
_cell_length_a 12.943567
_cell_length_b 11.316590
_cell_length_c 5.371175
_cell_angle_alpha 90.000000
_cell_angle_beta 90.000000
_cell_angle_gamma 90.000000
_cell_volume 786.753820
_symmetry_space_group_name_H-M "C 2 2 2"
_symmetry_group_IT_number 21
_symmetry_cell_setting 'orthorhombic'
loop_
_space_group_symop_operation_xyz
x,y,z
-x,-y,z
x,-y,-z
-x,y,-z
1/2+x,1/2+y,z
1/2-x,1/2-y,z
1/2+x,1/2-y,-z
1/2-x,1/2+y,-z
loop_
_atom_site_type_symbol
_atom_site_label
_atom_site_fract_x
_atom_site_fract_y
_atom_site_fract_z
Si Si1 0.628720 0.424082 0.254513
Si Si2 0.531199 0.797394 0.248047
Si Si3 0.250000 0.750000 0.534364
O O1 0.605383 0.500000 0.500000
O O2 0.543505 0.319744 0.236500
O O3 0.732957 0.358773 0.344791
O O4 0.633684 0.500000 0.000000
O O5 0.500000 0.860723 0.500000
O O6 0.650405 0.763586 0.289109
O O7 0.500000 0.862653 0.000000
#
# Coordination Sequence:
#
# PCOD9324398 Si02
#       3
#     8   8   4
#     4  11  24  42  68 105 145 186 241 303 360 428
#     4  10  22  38  62  97 141 182 231 292 356 421
#     4  10  24  42  68 106 152 196 236 300 376 436
#
# _framework density 25.420912000000001
#
# number of rings (size 3 to 8) (size 9 to 14) (size 15 to 20)
#    0.000    1.600    0.000    4.800    0.000   32.000 
#    0.000    0.000    0.000   10.800    0.000  117.600 
#    0.000    0.000    0.000    0.000    0.000    0.000 
#
# Total GULP energy -55888.170881 kJ/mol
# GULP energy per Si atom -5588.817088 kJ/mol
# Density = 2.536305 g / cm^3
# Si number density = 25.420912 Si / 1000 Ang^3
#
#
#
# Elastic Constant Matrix: (Units=GPa)
#
#
# Indices 1 2 3 4 5 6 
#
# 1 145.5412 24.7879 65.7595 0.0000 0.0000 0.0000
# 2 24.7879 115.0233 58.2212 0.0000 0.0000 0.0000
# 3 65.7595 58.2212 280.0545 0.0000 0.0000 0.0000
# 4 0.0000 0.0000 0.0000 13.1385 0.0000 0.0000
# 5 0.0000 0.0000 0.0000 0.0000 39.5893 0.0000
# 6 0.0000 0.0000 0.0000 0.0000 0.0000 40.2947
#
#
#
# Elastic Compliance Matrix: (Units=1/GPa)
#
#
# Indices 1 2 3 4 5 6 
#
# 1 0.007758 -0.000838 -0.001647 0.000000 0.000000 0.000000
# 2 -0.000838 0.009807 -0.001842 0.000000 0.000000 0.000000
# 3 -0.001647 -0.001842 0.004341 0.000000 0.000000 0.000000
# 4 0.000000 0.000000 0.000000 0.076112 0.000000 0.000000
# 5 0.000000 0.000000 0.000000 0.000000 0.025259 0.000000
# 6 0.000000 0.000000 0.000000 0.000000 0.000000 0.024817
#
#
# Mechanical properties :
#
#
# Convention : Reuss Voigt Hill
#
# Bulk Modulus (GPa) = 75.46897 93.12848 84.29872
# Shear Modulus (GPa) = 31.02401 44.72785 37.87593
#
# Velocity S-wave (km/s) = 3.49723 4.19918 3.86418
# Velocity P-wave (km/s) = 6.78673 7.76047 7.28988
#
# Compressibility (1/GPa) = 0.01325048
#
# Stress axis : x y z
#
# Youngs Moduli (GPa) = 128.89940 101.96956 230.38787
#
# Poissons Ratio (x) = 0.08545 0.37955
# Poissons Ratio (y) = 0.10802 0.42437
# Poissons Ratio (z) = 0.21235 0.18783
#
# Static dielectric constant tensor:
#      x y z
#    x 2.068670 0.000000 0.000000 
#    y 0.000000 2.067500 0.000000 
#    z 0.000000 0.000000 2.110850 
# 
# From -- ./inp_files/1935.got.cif
#   From: 2010.05.17/outbox.cif.g08.bks.cpg/sg21_1_cif.got.tgz:1935.got - 2010.06.03 23:14:55.
