data_PCOD9324449
_publ_section_title
;
Structure prediction by ZEFSAII (Michael W. Deem and Ramdas Pophale) SiO2 
 PCOD9324449
Probable space group: C 2 2 2
;
_chemical_formula_sum "Si O2"
_cell_formula_units_Z 40
_cell_length_a 14.390384
_cell_length_b 8.447835
_cell_length_c 13.349217
_cell_angle_alpha 90.000000
_cell_angle_beta 90.000000
_cell_angle_gamma 90.000000
_cell_volume 1622.832134
_symmetry_space_group_name_H-M "C 2 2 2"
_symmetry_group_IT_number 21
_symmetry_cell_setting 'orthorhombic'
loop_
_space_group_symop_operation_xyz
x,y,z
-x,-y,z
x,-y,-z
-x,y,-z
1/2+x,1/2+y,z
1/2-x,1/2-y,z
1/2+x,1/2-y,-z
1/2-x,1/2+y,-z
loop_
_atom_site_type_symbol
_atom_site_label
_atom_site_fract_x
_atom_site_fract_y
_atom_site_fract_z
Si Si1 0.175376 0.386532 0.907297
Si Si2 0.478682 0.673431 0.151169
Si Si3 0.595838 0.096419 0.748748
Si Si4 0.145110 0.208242 0.438007
Si Si5 0.152063 0.850431 0.349718
O O1 0.250000 0.250000 0.901376
O O2 0.077714 0.294247 0.917743
O O3 0.170937 0.491027 0.805977
O O4 0.192333 0.500000 0.000000
O O5 0.500000 0.500000 0.113060
O O6 0.575192 0.751530 0.183252
O O7 0.413206 0.661964 0.251824
O O8 0.614252 0.158875 0.639101
O O9 0.500000 0.000000 0.749023
O O10 0.250000 0.250000 0.463349
O O11 0.100413 0.212321 0.548812
O O12 0.153612 0.037280 0.381980
O O13 0.250000 0.750000 0.336168
#
# Coordination Sequence:
#
# PCOD9324449 Si02
#       5
#     8   8   8   8   8
#     4  11  28  52  76 104 136 177 237 298 362 436
#     4  11  23  44  74 106 145 185 226 290 360 421
#     4  10  24  44  70 106 145 184 233 291 355 420
#     4  10  22  39  66 103 145 195 245 289 338 405
#     4  10  22  41  66 102 147 195 243 287 339 412
#
# _framework density 24.648267000000001
#
# number of rings (size 3 to 8) (size 9 to 14) (size 15 to 20)
#    0.000    1.600    2.000    0.600    8.400    6.800 
#    0.000    4.000    0.000    0.000    0.000    0.000 
#    0.000    0.000    0.000    0.000    0.000    0.000 
#
# Total GULP energy -111792.713316 kJ/mol
# GULP energy per Si atom -5589.635666 kJ/mol
# Density = 2.459217 g / cm^3
# Si number density = 24.648267 Si / 1000 Ang^3
#
#
#
# Elastic Constant Matrix: (Units=GPa)
#
#
# Indices 1 2 3 4 5 6 
#
# 1 48.9665 26.2640 45.0509 0.0000 0.0000 0.0000
# 2 26.2640 140.9653 72.4902 0.0000 0.0000 0.0000
# 3 45.0509 72.4902 150.5199 0.0000 0.0000 0.0000
# 4 0.0000 0.0000 0.0000 24.8863 0.0000 0.0000
# 5 0.0000 0.0000 0.0000 0.0000 21.2463 0.0000
# 6 0.0000 0.0000 0.0000 0.0000 0.0000 40.3628
#
#
#
# Elastic Compliance Matrix: (Units=1/GPa)
#
#
# Indices 1 2 3 4 5 6 
#
# 1 0.028340 -0.001221 -0.007894 0.000000 0.000000 0.000000
# 2 -0.001221 0.009482 -0.004201 0.000000 0.000000 0.000000
# 3 -0.007894 -0.004201 0.011030 0.000000 0.000000 0.000000
# 4 0.000000 0.000000 0.000000 0.040183 0.000000 0.000000
# 5 0.000000 0.000000 0.000000 0.000000 0.047067 0.000000
# 6 0.000000 0.000000 0.000000 0.000000 0.000000 0.024775
#
#
# Mechanical properties :
#
#
# Convention : Reuss Voigt Hill
#
# Bulk Modulus (GPa) = 45.00593 69.78466 57.39529
# Shear Modulus (GPa) = 25.65223 30.40884 28.03053
#
# Velocity S-wave (km/s) = 3.22954 3.51623 3.37593
# Velocity P-wave (km/s) = 5.67498 6.69767 6.20743
#
# Compressibility (1/GPa) = 0.02221929
#
# Stress axis : x y z
#
# Youngs Moduli (GPa) = 35.28597 105.46609 90.66453
#
# Poissons Ratio (x) = 0.12873 0.71574
# Poissons Ratio (y) = 0.04307 0.38089
# Poissons Ratio (z) = 0.27856 0.44307
#
# Static dielectric constant tensor:
#      x y z
#    x 2.033210 0.000000 0.000000 
#    y 0.000000 2.016620 0.000000 
#    z 0.000000 0.000000 2.032320 
# 
# From -- ./inp_files/22287.got.cif
#   From: 2010.05.17/outbox.cif.g08.bks.cpg/sg21_12_cif.got.tgz:22287.got - 2010.06.03 23:14:55.
