data_PCOD9324384
_publ_section_title
;
Structure prediction by ZEFSAII (Michael W. Deem and Ramdas Pophale) SiO2 
 PCOD9324384
Probable space group: C 2 2 2
;
_chemical_formula_sum "Si O2"
_cell_formula_units_Z 64
_cell_length_a 15.236382
_cell_length_b 23.454122
_cell_length_c 8.673727
_cell_angle_alpha 90.000000
_cell_angle_beta 90.000000
_cell_angle_gamma 90.000000
_cell_volume 3099.608059
_symmetry_space_group_name_H-M "C 2 2 2"
_symmetry_group_IT_number 21
_symmetry_cell_setting 'orthorhombic'
loop_
_space_group_symop_operation_xyz
x,y,z
-x,-y,z
x,-y,-z
-x,y,-z
1/2+x,1/2+y,z
1/2-x,1/2-y,z
1/2+x,1/2-y,-z
1/2-x,1/2+y,-z
loop_
_atom_site_type_symbol
_atom_site_label
_atom_site_fract_x
_atom_site_fract_y
_atom_site_fract_z
Si Si1 0.011417 0.275867 0.187498
Si Si2 0.301642 0.583189 0.801594
Si Si3 0.008193 0.407867 0.812835
Si Si4 0.018126 0.065457 0.343245
Si Si5 0.159297 0.784363 0.311089
Si Si6 0.673703 0.295747 0.668238
Si Si7 0.090199 0.124560 0.917305
Si Si8 0.636964 0.002258 0.814620
O O1 0.090495 0.234053 0.244684
O O2 0.016042 0.343254 0.231734
O O3 0.924251 0.254799 0.273894
O O4 0.000000 0.274045 0.000000
O O5 0.380738 0.569727 0.689728
O O6 0.285399 0.649183 0.755042
O O7 0.228773 0.534474 0.783933
O O8 0.347910 0.588566 0.969130
O O9 0.101620 0.438601 0.768999
O O10 0.934924 0.452293 0.756207
O O11 0.000000 0.408058 0.000000
O O12 0.000000 0.098159 0.500000
O O13 0.955849 0.086706 0.210319
O O14 0.000000 0.000000 0.355861
O O15 0.250000 0.750000 0.296264
O O16 0.153224 0.806948 0.487201
O O17 0.149432 0.830927 0.175571
O O18 0.750000 0.250000 0.668497
O O19 0.000000 0.148175 0.000000
O O20 0.632590 0.000000 0.000000
#
# Coordination Sequence:
#
# PCOD9324384 Si02
#       8
#     8   8   8   8   8   8   8   8
#     4  11  21  37  64  92 126 162 209 267 323 374
#     4  11  22  35  63  92 121 159 205 264 312 368
#     4   8  17  34  55  85 124 161 195 248 311 372
#     4  10  22  40  59  81 119 164 200 241 305 375
#     4  11  24  40  58  88 126 168 210 252 313 389
#     4  11  24  41  62  90 125 167 211 256 318 391
#     4  10  22  38  59  88 123 156 200 264 314 365
#     4   9  18  33  55  88 124 159 199 247 311 368
#
# _framework density 20.647772
#
# number of rings (size 3 to 8) (size 9 to 14) (size 15 to 20)
#    0.000    1.875    0.000    5.250    1.750    6.750 
#    0.000    0.000    0.000    0.000    0.000    5.250 
#    0.000    4.500    0.000    0.000    0.000    0.000 
#
# Total GULP energy -178145.629789 kJ/mol
# GULP energy per Si atom -5567.050931 kJ/mol
# Density = 2.060078 g / cm^3
# Si number density = 20.647772 Si / 1000 Ang^3
#
#
#
# Elastic Constant Matrix: (Units=GPa)
#
#
# Indices 1 2 3 4 5 6 
#
# 1 95.0280 13.0579 43.1200 0.0000 0.0000 0.0000
# 2 13.0579 53.4622 9.2543 0.0000 0.0000 0.0000
# 3 43.1200 9.2543 76.7418 0.0000 0.0000 0.0000
# 4 0.0000 0.0000 0.0000 28.0476 0.0000 0.0000
# 5 0.0000 0.0000 0.0000 0.0000 20.3963 0.0000
# 6 0.0000 0.0000 0.0000 0.0000 0.0000 43.1299
#
#
#
# Elastic Compliance Matrix: (Units=1/GPa)
#
#
# Indices 1 2 3 4 5 6 
#
# 1 0.014364 -0.002156 -0.007811 0.000000 0.000000 0.000000
# 2 -0.002156 0.019427 -0.001131 0.000000 0.000000 0.000000
# 3 -0.007811 -0.001131 0.017556 0.000000 0.000000 0.000000
# 4 0.000000 0.000000 0.000000 0.035654 0.000000 0.000000
# 5 0.000000 0.000000 0.000000 0.000000 0.049028 0.000000
# 6 0.000000 0.000000 0.000000 0.000000 0.000000 0.023186
#
#
# Mechanical properties :
#
#
# Convention : Reuss Voigt Hill
#
# Bulk Modulus (GPa) = 34.30469 39.56628 36.93548
# Shear Modulus (GPa) = 26.16050 28.96809 27.56430
#
# Velocity S-wave (km/s) = 3.56334 3.74968 3.65770
# Velocity P-wave (km/s) = 5.79484 6.16043 5.98043
#
# Compressibility (1/GPa) = 0.02915053
#
# Stress axis : x y z
#
# Youngs Moduli (GPa) = 69.61990 51.47409 56.96105
#
# Poissons Ratio (x) = 0.11099 0.44491
# Poissons Ratio (y) = 0.15012 0.06443
# Poissons Ratio (z) = 0.54378 0.05823
#
# Static dielectric constant tensor:
#      x y z
#    x 1.720510 0.000000 0.000000 
#    y 0.000000 1.833860 0.000000 
#    z 0.000000 0.000000 1.730280 
# 
# From -- ./inp_files/15467.got.cif
#   From: 2010.05.17/outbox.cif.g08.bks.cpg/sg21_8_cif.got.tgz:15467.got - 2010.06.03 23:14:55.
