data_PCOD9324589
_publ_section_title
;
Structure prediction by ZEFSAII (Michael W. Deem and Ramdas Pophale) SiO2 
 PCOD9324589
Probable space group: C 2 2 2
;
_chemical_formula_sum "Si O2"
_cell_formula_units_Z 48
_cell_length_a 9.851272
_cell_length_b 15.067869
_cell_length_c 17.495644
_cell_angle_alpha 90.000000
_cell_angle_beta 90.000000
_cell_angle_gamma 90.000000
_cell_volume 2597.012735
_symmetry_space_group_name_H-M "C 2 2 2"
_symmetry_group_IT_number 21
_symmetry_cell_setting 'orthorhombic'
loop_
_space_group_symop_operation_xyz
x,y,z
-x,-y,z
x,-y,-z
-x,y,-z
1/2+x,1/2+y,z
1/2-x,1/2-y,z
1/2+x,1/2-y,-z
1/2-x,1/2+y,-z
loop_
_atom_site_type_symbol
_atom_site_label
_atom_site_fract_x
_atom_site_fract_y
_atom_site_fract_z
Si Si1 0.837019 0.838038 0.081393
Si Si2 0.000000 0.000000 0.692197
Si Si3 0.261019 0.490505 0.193370
Si Si4 0.906765 0.853247 0.573871
Si Si5 0.500000 0.000000 0.700730
Si Si6 0.913003 0.644427 0.576203
Si Si7 0.843565 0.836373 0.900614
O O1 0.750000 0.750000 0.094302
O O2 0.770823 0.917964 0.127463
O O3 0.993570 0.823898 0.107732
O O4 0.831057 0.858840 0.990852
O O5 0.879354 0.029163 0.746696
O O6 0.047350 0.081247 0.640129
O O7 0.291503 0.585256 0.153921
O O8 0.125719 0.486430 0.242763
O O9 0.925915 0.749406 0.594479
O O10 0.746916 0.870108 0.559599
O O11 0.000000 0.870550 0.500000
O O12 0.464729 0.082401 0.644736
O O13 0.000000 0.626181 0.500000
O O14 0.750000 0.750000 0.886700
#
# Coordination Sequence:
#
# PCOD9324589 Si02
#       7
#     8   4   8   8   4   8   8
#     4  10  22  42  66  93 121 162 214 257 304 369
#     4  12  23  40  63  90 122 162 204 248 307 370
#     4  12  25  41  61  92 127 167 204 253 313 373
#     4  10  23  42  67  90 117 162 210 251 301 369
#     4  12  27  40  61  94 130 166 204 256 317 364
#     4  10  23  44  64  88 123 162 203 254 306 363
#     4  10  22  42  67  90 123 166 207 257 311 366
#
# _framework density 18.482775
#
# number of rings (size 3 to 8) (size 9 to 14) (size 15 to 20)
#    0.000    1.333    3.333    1.000    4.667    5.333 
#    0.000    0.833    0.000    0.000    0.000    0.000 
#    0.000    0.000    0.000    0.000    0.000    0.000 
#
# Total GULP energy -134062.787316 kJ/mol
# GULP energy per Si atom -5585.949472 kJ/mol
# Density = 1.844071 g / cm^3
# Si number density = 18.482775 Si / 1000 Ang^3
#
#
#
# Elastic Constant Matrix: (Units=GPa)
#
#
# Indices 1 2 3 4 5 6 
#
# 1 152.5332 60.8021 71.1807 0.0000 0.0000 0.0000
# 2 60.8021 89.4115 77.4089 0.0000 0.0000 0.0000
# 3 71.1807 77.4089 92.7795 0.0000 0.0000 0.0000
# 4 0.0000 0.0000 0.0000 -184.0243 0.0000 0.0000
# 5 0.0000 0.0000 0.0000 0.0000 42.7785 0.0000
# 6 0.0000 0.0000 0.0000 0.0000 0.0000 25.3157
#
#
#
# Elastic Compliance Matrix: (Units=1/GPa)
#
#
# Indices 1 2 3 4 5 6 
#
# 1 0.010220 -0.000582 -0.007356 0.000000 0.000000 0.000000
# 2 -0.000582 0.040312 -0.033187 0.000000 0.000000 0.000000
# 3 -0.007356 -0.033187 0.044111 0.000000 0.000000 0.000000
# 4 0.000000 0.000000 0.000000 -0.005434 0.000000 0.000000
# 5 0.000000 0.000000 0.000000 0.000000 0.023376 0.000000
# 6 0.000000 0.000000 0.000000 0.000000 0.000000 0.039501
#
#
# Mechanical properties :
#
#
# Convention : Reuss Voigt Hill
#
# Bulk Modulus (GPa) = 80.68649 83.72308 82.20479
# Shear Modulus (GPa) = 20.96718 -14.83051 3.06833
#
# Velocity S-wave (km/s) = 3.37176 -2.83573 1.28985
# Velocity P-wave (km/s) = 7.67516 5.88850 6.84041
#
# Compressibility (1/GPa) = 0.01239365
#
# Stress axis : x y z
#
# Youngs Moduli (GPa) = 97.84271 24.80631 22.67021
#
# Poissons Ratio (x) = 0.01444 0.16675
# Poissons Ratio (y) = 0.05695 0.75236
# Poissons Ratio (z) = 0.71969 0.82326
#
# Static dielectric constant tensor:
#      x y z
#    x 1.618000 0.000000 0.000000 
#    y 0.000000 1.621570 0.000000 
#    z 0.000000 0.000000 1.609280 
# 
# From -- ./inp_files/35728.got.cif
#   From: 2010.05.17/outbox.cif.g08.bks.cpg/sg21_18_cif.got.tgz:35728.got - 2010.06.03 23:14:55.
