data_PCOD9324369
_publ_section_title
;
Structure prediction by ZEFSAII (Michael W. Deem and Ramdas Pophale) SiO2 
 PCOD9324369
Probable space group: C 2 2 2
;
_chemical_formula_sum "Si O2"
_cell_formula_units_Z 48
_cell_length_a 31.780631
_cell_length_b 15.194221
_cell_length_c 5.320956
_cell_angle_alpha 90.000000
_cell_angle_beta 90.000000
_cell_angle_gamma 90.000000
_cell_volume 2569.393508
_symmetry_space_group_name_H-M "C 2 2 2"
_symmetry_group_IT_number 21
_symmetry_cell_setting 'orthorhombic'
loop_
_space_group_symop_operation_xyz
x,y,z
-x,-y,z
x,-y,-z
-x,y,-z
1/2+x,1/2+y,z
1/2-x,1/2-y,z
1/2+x,1/2-y,-z
1/2-x,1/2+y,-z
loop_
_atom_site_type_symbol
_atom_site_label
_atom_site_fract_x
_atom_site_fract_y
_atom_site_fract_z
Si Si1 0.550221 0.895813 0.534840
Si Si2 0.750000 0.750000 0.301809
Si Si3 0.324974 0.270124 0.963270
Si Si4 0.842126 0.500000 0.000000
Si Si5 0.903900 0.339454 0.948673
Si Si6 0.313128 0.551501 0.250952
Si Si7 0.718164 0.893289 0.686212
O O1 0.500000 0.891092 0.500000
O O2 0.569340 0.841276 0.303886
O O3 0.561490 0.000000 0.500000
O O4 0.568440 0.859462 0.800238
O O5 0.727816 0.832923 0.442929
O O6 0.710017 0.702867 0.168167
O O7 0.328733 0.348253 0.764367
O O8 0.300218 0.184897 0.859632
O O9 0.371775 0.242117 0.037378
O O10 0.871987 0.579162 0.075109
O O11 0.814416 0.470078 0.239154
O O12 0.325864 0.500000 0.500000
O O13 0.262696 0.563562 0.251115
O O14 0.326171 0.500000 0.000000
#
# Coordination Sequence:
#
# PCOD9324369 Si02
#       7
#     8   4   8   4   8   8   8
#     4  11  22  41  63  93 127 162 202 248 311 389
#     4  12  20  38  62  74 122 172 214 268 336 350
#     4  11  25  40  54  87 118 162 216 274 312 374
#     4  10  22  38  49  90 114 160 224 258 301 356
#     4  11  24  39  64  87 126 162 209 257 313 363
#     4  12  24  39  57  79 111 159 218 255 318 360
#     4  11  22  37  55  76 116 165 213 275 306 359
#
# _framework density 18.681450999999999
#
# number of rings (size 3 to 8) (size 9 to 14) (size 15 to 20)
#    0.000    0.833    5.833    1.500    4.667    1.333 
#    0.000    0.000    0.000    0.000    0.000    0.000 
#    0.000   10.000    0.000    0.000    0.000    0.000 
#
# Total GULP energy -133774.906673 kJ/mol
# GULP energy per Si atom -5573.954445 kJ/mol
# Density = 1.863893 g / cm^3
# Si number density = 18.681451 Si / 1000 Ang^3
#
#
#
# Elastic Constant Matrix: (Units=GPa)
#
#
# Indices 1 2 3 4 5 6 
#
# 1 91.9566 24.3655 43.2012 0.0000 0.0000 0.0000
# 2 24.3655 42.4161 35.6228 0.0000 0.0000 0.0000
# 3 43.2012 35.6228 127.7304 0.0000 0.0000 0.0000
# 4 0.0000 0.0000 0.0000 25.1687 0.0000 0.0000
# 5 0.0000 0.0000 0.0000 0.0000 27.6149 0.0000
# 6 0.0000 0.0000 0.0000 0.0000 0.0000 -29.8718
#
#
#
# Elastic Compliance Matrix: (Units=1/GPa)
#
#
# Indices 1 2 3 4 5 6 
#
# 1 0.013760 -0.005218 -0.003199 0.000000 0.000000 0.000000
# 2 -0.005218 0.032766 -0.007373 0.000000 0.000000 0.000000
# 3 -0.003199 -0.007373 0.010967 0.000000 0.000000 0.000000
# 4 0.000000 0.000000 0.000000 0.039732 0.000000 0.000000
# 5 0.000000 0.000000 0.000000 0.000000 0.036212 0.000000
# 6 0.000000 0.000000 0.000000 0.000000 0.000000 -0.033476
#
#
# Mechanical properties :
#
#
# Convention : Reuss Voigt Hill
#
# Bulk Modulus (GPa) = 38.59037 52.05357 45.32197
# Shear Modulus (GPa) = 35.66889 15.17659 25.42274
#
# Velocity S-wave (km/s) = 4.37432 2.85333 3.69298
# Velocity P-wave (km/s) = 6.79815 6.22733 6.51899
#
# Compressibility (1/GPa) = 0.02591320
#
# Stress axis : x y z
#
# Youngs Moduli (GPa) = 72.67426 30.51976 91.18101
#
# Poissons Ratio (x) = 0.15925 0.29166
# Poissons Ratio (y) = 0.37921 0.67230
# Poissons Ratio (z) = 0.23247 0.22503
#
# Static dielectric constant tensor:
#      x y z
#    x 1.638690 0.000000 0.000000 
#    y 0.000000 1.610240 0.000000 
#    z 0.000000 0.000000 1.819810 
# 
# From -- ./inp_files/8000.got.cif
#   From: 2010.05.17/outbox.cif.g08.bks.cpg/sg21_4_cif.got.tgz:8000.got - 2010.06.03 23:14:55.
