data_PCOD9324723
_publ_section_title
;
Structure prediction by ZEFSAII (Michael W. Deem and Ramdas Pophale) SiO2 
 PCOD9324723
Probable space group: C 2 2 2
;
_chemical_formula_sum "Si O2"
_cell_formula_units_Z 38
_cell_length_a 5.443882
_cell_length_b 14.480422
_cell_length_c 22.770470
_cell_angle_alpha 90.000000
_cell_angle_beta 90.000000
_cell_angle_gamma 90.000000
_cell_volume 1794.989517
_symmetry_space_group_name_H-M "C 2 2 2"
_symmetry_group_IT_number 21
_symmetry_cell_setting 'orthorhombic'
loop_
_space_group_symop_operation_xyz
x,y,z
-x,-y,z
x,-y,-z
-x,y,-z
1/2+x,1/2+y,z
1/2-x,1/2-y,z
1/2+x,1/2-y,-z
1/2-x,1/2+y,-z
loop_
_atom_site_type_symbol
_atom_site_label
_atom_site_fract_x
_atom_site_fract_y
_atom_site_fract_z
Si Si1 0.575979 0.601565 0.567955
Si Si2 0.250000 0.250000 0.371735
Si Si3 0.750000 0.250000 0.822229
Si Si4 0.000000 0.000000 0.000000
Si Si5 0.241582 0.054154 0.114178
Si Si6 0.424091 0.101753 0.666260
Si Si7 0.750000 0.250000 0.252537
O O1 0.500000 0.500000 0.592738
O O2 0.500000 0.597329 0.500000
O O3 0.445624 0.694605 0.589556
O O4 0.845513 0.605380 0.597053
O O5 0.348452 0.169307 0.331337
O O6 0.748754 0.155984 0.859805
O O7 0.496056 0.246986 0.785706
O O8 0.827017 0.056278 0.955253
O O9 0.500000 0.000000 0.123304
O O10 0.000000 0.000000 0.139625
O O11 0.234201 0.157931 0.706257
O O12 0.500000 0.000000 0.683985
#
# Coordination Sequence:
#
# PCOD9324723 Si02
#       7
#     8   4   4   2   8   8   4
#     4  11  25  43  68 100 134 172 220 292 370 445
#     4  12  23  43  70  94 132 167 225 282 352 444
#     4  12  27  48  73 109 148 194 247 306 354 416
#     4   8  22  44  74 112 156 196 242 288 352 436
#     4  10  22  45  71 110 154 191 244 294 353 419
#     4  12  26  47  69  96 134 180 236 295 360 439
#     4  12  28  47  75 105 138 195 256 298 356 426
#
# _framework density 21.17004
#
# number of rings (size 3 to 8) (size 9 to 14) (size 15 to 20)
#    0.632    0.211    4.211    2.211    2.947    2.526 
#    3.789    2.105    0.000    0.000    0.000    0.000 
#    0.000    0.000    0.000    0.000    0.000    0.000 
#
# Total GULP energy -105812.356596 kJ/mol
# GULP energy per Si atom -5569.071400 kJ/mol
# Density = 2.112186 g / cm^3
# Si number density = 21.170040 Si / 1000 Ang^3
#
#
#
# Elastic Constant Matrix: (Units=GPa)
#
#
# Indices 1 2 3 4 5 6 
#
# 1 127.5233 67.0668 48.2927 0.0000 0.0000 0.0000
# 2 67.0668 226.8985 61.3745 0.0000 0.0000 0.0000
# 3 48.2927 61.3745 100.4533 0.0000 0.0000 0.0000
# 4 0.0000 0.0000 0.0000 20.4425 0.0000 0.0000
# 5 0.0000 0.0000 0.0000 0.0000 -10.7501 0.0000
# 6 0.0000 0.0000 0.0000 0.0000 0.0000 39.2115
#
#
#
# Elastic Compliance Matrix: (Units=1/GPa)
#
#
# Indices 1 2 3 4 5 6 
#
# 1 0.010324 -0.002048 -0.003712 0.000000 0.000000 0.000000
# 2 -0.002048 0.005686 -0.002490 0.000000 0.000000 0.000000
# 3 -0.003712 -0.002490 0.013261 0.000000 0.000000 0.000000
# 4 0.000000 0.000000 0.000000 0.048918 0.000000 0.000000
# 5 0.000000 0.000000 0.000000 0.000000 -0.093023 0.000000
# 6 0.000000 0.000000 0.000000 0.000000 0.000000 0.025503
#
#
# Mechanical properties :
#
#
# Convention : Reuss Voigt Hill
#
# Bulk Modulus (GPa) = 78.29699 89.81589 84.05644
# Shear Modulus (GPa) = 159.10744 28.32352 93.71548
#
# Velocity S-wave (km/s) = 8.67871 3.66171 6.66064
# Velocity P-wave (km/s) = 11.72569 7.77146 9.94704
#
# Compressibility (1/GPa) = 0.01277188
#
# Stress axis : x y z
#
# Youngs Moduli (GPa) = 96.85769 175.87433 75.41066
#
# Poissons Ratio (x) = 0.36010 0.27996
# Poissons Ratio (y) = 0.19832 0.18774
# Poissons Ratio (z) = 0.35958 0.43786
#
# Static dielectric constant tensor:
#      x y z
#    x 1.825200 0.000000 0.000000 
#    y 0.000000 1.950620 0.000000 
#    z 0.000000 0.000000 1.827770 
# 
# From -- ./inp_files/39012.got.cif
#   From: 2010.05.17/outbox.cif.g08.bks.cpg/sg21_20_cif.got.tgz:39012.got - 2010.06.03 23:14:55.
