data_PCOD9324382
_publ_section_title
;
Structure prediction by ZEFSAII (Michael W. Deem and Ramdas Pophale) SiO2 
 PCOD9324382
Probable space group: C 2 2 2
;
_chemical_formula_sum "Si O2"
_cell_formula_units_Z 32
_cell_length_a 10.453286
_cell_length_b 10.305280
_cell_length_c 12.415093
_cell_angle_alpha 90.000000
_cell_angle_beta 90.000000
_cell_angle_gamma 90.000000
_cell_volume 1337.403964
_symmetry_space_group_name_H-M "C 2 2 2"
_symmetry_group_IT_number 21
_symmetry_cell_setting 'orthorhombic'
loop_
_space_group_symop_operation_xyz
x,y,z
-x,-y,z
x,-y,-z
-x,y,-z
1/2+x,1/2+y,z
1/2-x,1/2-y,z
1/2+x,1/2-y,-z
1/2-x,1/2+y,-z
loop_
_atom_site_type_symbol
_atom_site_label
_atom_site_fract_x
_atom_site_fract_y
_atom_site_fract_z
Si Si1 0.872593 0.338822 0.676089
Si Si2 0.389737 0.274339 0.924600
Si Si3 0.500000 0.000000 0.500000
Si Si4 0.124876 0.833512 0.314405
Si Si5 0.000000 0.500000 0.842892
Si Si6 0.000000 0.000000 0.500000
O O1 0.750000 0.250000 0.678262
O O2 0.884301 0.446376 0.768619
O O3 0.903784 0.412692 0.567583
O O4 0.996370 0.250161 0.688066
O O5 0.250000 0.250000 0.976202
O O6 0.365410 0.358897 0.815317
O O7 0.443626 0.128744 0.897957
O O8 0.500000 0.332713 0.000000
O O9 0.250000 0.750000 0.340762
O O10 0.094568 0.929985 0.413154
#
# Coordination Sequence:
#
# PCOD9324382 Si02
#       6
#     8   8   2   8   4   2
#     4  10  22  39  62  91 126 174 230 278 335 409
#     4  10  22  45  73 103 141 180 229 290 349 416
#     4  10  22  38  58  88 134 174 220 292 348 390
#     4  10  25  45  66 101 139 179 235 291 342 411
#     4   9  21  43  69  92 130 177 217 277 347 400
#     4  12  26  46  74  96 140 198 234 280 352 408
#
# _framework density 23.926953000000001
#
# number of rings (size 3 to 8) (size 9 to 14) (size 15 to 20)
#    0.000    2.000    0.000    1.125    0.000   18.000 
#    0.000   14.375    0.000    0.000    0.000    0.000 
#    0.000    0.000    0.000    0.000    0.000    0.000 
#
# Total GULP energy -89264.342696 kJ/mol
# GULP energy per Si atom -5579.021419 kJ/mol
# Density = 2.387249 g / cm^3
# Si number density = 23.926953 Si / 1000 Ang^3
#
#
#
# Elastic Constant Matrix: (Units=GPa)
#
#
# Indices 1 2 3 4 5 6 
#
# 1 207.1848 46.4428 75.9216 0.0000 0.0000 0.0000
# 2 46.4428 67.3921 50.4620 0.0000 0.0000 0.0000
# 3 75.9216 50.4620 122.4976 0.0000 0.0000 0.0000
# 4 0.0000 0.0000 0.0000 24.1421 0.0000 0.0000
# 5 0.0000 0.0000 0.0000 0.0000 3.9960 0.0000
# 6 0.0000 0.0000 0.0000 0.0000 0.0000 60.3510
#
#
#
# Elastic Compliance Matrix: (Units=1/GPa)
#
#
# Indices 1 2 3 4 5 6 
#
# 1 0.006444 -0.002097 -0.003130 0.000000 0.000000 0.000000
# 2 -0.002097 0.022140 -0.007821 0.000000 0.000000 0.000000
# 3 -0.003130 -0.007821 0.013325 0.000000 0.000000 0.000000
# 4 0.000000 0.000000 0.000000 0.041421 0.000000 0.000000
# 5 0.000000 0.000000 0.000000 0.000000 0.250252 0.000000
# 6 0.000000 0.000000 0.000000 0.000000 0.000000 0.016570
#
#
# Mechanical properties :
#
#
# Convention : Reuss Voigt Hill
#
# Bulk Modulus (GPa) = 63.23789 82.52525 72.88157
# Shear Modulus (GPa) = 13.10557 32.64769 22.87663
#
# Velocity S-wave (km/s) = 2.34291 3.69788 3.09545
# Velocity P-wave (km/s) = 5.81428 7.26621 6.58042
#
# Compressibility (1/GPa) = 0.01581330
#
# Stress axis : x y z
#
# Youngs Moduli (GPa) = 155.19384 45.16800 75.04819
#
# Poissons Ratio (x) = 0.09472 0.23488
# Poissons Ratio (y) = 0.32545 0.58692
# Poissons Ratio (z) = 0.48571 0.35324
#
# Static dielectric constant tensor:
#      x y z
#    x 1.838780 0.000000 0.000000 
#    y 0.000000 1.937700 0.000000 
#    z 0.000000 0.000000 2.096370 
# 
# From -- ./inp_files/29884.got.cif
#   From: 2010.05.17/outbox.cif.g08.bks.cpg/sg21_15_cif.got.tgz:29884.got - 2010.06.03 23:14:55.
