data_PCOD9324060
_publ_section_title
;
Structure prediction by ZEFSAII (Michael W. Deem and Ramdas Pophale) SiO2 
 PCOD9324060
Probable space group: C 2 2 2
;
_chemical_formula_sum "Si O2"
_cell_formula_units_Z 38
_cell_length_a 15.166778
_cell_length_b 5.354978
_cell_length_c 20.921813
_cell_angle_alpha 90.000000
_cell_angle_beta 90.000000
_cell_angle_gamma 90.000000
_cell_volume 1699.222840
_symmetry_space_group_name_H-M "C 2 2 2"
_symmetry_group_IT_number 21
_symmetry_cell_setting 'orthorhombic'
loop_
_space_group_symop_operation_xyz
x,y,z
-x,-y,z
x,-y,-z
-x,y,-z
1/2+x,1/2+y,z
1/2-x,1/2-y,z
1/2+x,1/2-y,-z
1/2-x,1/2+y,-z
loop_
_atom_site_type_symbol
_atom_site_label
_atom_site_fract_x
_atom_site_fract_y
_atom_site_fract_z
Si Si1 0.356749 0.243698 0.173180
Si Si2 0.856646 0.239606 0.250096
Si Si3 0.400197 0.247919 0.027316
Si Si4 0.500000 0.500000 0.500000
Si Si5 0.918038 0.684302 0.611962
Si Si6 0.750000 0.750000 0.541062
O O1 0.250000 0.250000 0.165330
O O2 0.380349 0.503270 0.206887
O O3 0.399124 0.235021 0.103404
O O4 0.380521 0.002380 0.216151
O O5 0.750000 0.250000 0.257997
O O6 0.901720 0.200628 0.318716
O O7 0.358588 0.500000 0.000000
O O8 0.500000 0.248383 0.000000
O O9 0.356125 0.000000 0.000000
O O10 0.445234 0.339320 0.549707
O O11 0.820830 0.612916 0.587939
O O12 0.000000 0.500000 0.619676
O O13 0.722814 0.500000 0.500000
#
# Coordination Sequence:
#
# PCOD9324060 Si02
#       6
#     8   8   8   2   8   4
#     4  10  22  42  68  98 134 178 231 290 349 427
#     4  10  23  45  70  99 137 183 236 291 363 436
#     4  10  21  39  60  93 132 170 216 273 338 409
#     4  12  26  48  68 106 150 176 256 308 370 440
#     4  12  27  48  72 109 147 194 249 314 371 454
#     4  12  26  48  78 106 146 202 242 310 388 446
#
# _framework density 22.363163
#
# number of rings (size 3 to 8) (size 9 to 14) (size 15 to 20)
#    0.000    1.263    2.105    2.842    2.947    0.842 
#   11.368    0.000    0.000    0.000    0.000    0.000 
#    0.000    0.000    0.000    0.000    0.000    0.000 
#
# Total GULP energy -105983.208357 kJ/mol
# GULP energy per Si atom -5578.063598 kJ/mol
# Density = 2.231226 g / cm^3
# Si number density = 22.363163 Si / 1000 Ang^3
#
#
#
# Elastic Constant Matrix: (Units=GPa)
#
#
# Indices 1 2 3 4 5 6 
#
# 1 74.1176 15.1318 38.5694 0.0000 0.0000 0.0000
# 2 15.1318 163.0487 70.6478 0.0000 0.0000 0.0000
# 3 38.5694 70.6478 212.2788 0.0000 0.0000 0.0000
# 4 0.0000 0.0000 0.0000 49.3776 0.0000 0.0000
# 5 0.0000 0.0000 0.0000 0.0000 43.5620 0.0000
# 6 0.0000 0.0000 0.0000 0.0000 0.0000 11.0249
#
#
#
# Elastic Compliance Matrix: (Units=1/GPa)
#
#
# Indices 1 2 3 4 5 6 
#
# 1 0.014909 -0.000245 -0.002627 0.000000 0.000000 0.000000
# 2 -0.000245 0.007171 -0.002342 0.000000 0.000000 0.000000
# 3 -0.002627 -0.002342 0.005968 0.000000 0.000000 0.000000
# 4 0.000000 0.000000 0.000000 0.020252 0.000000 0.000000
# 5 0.000000 0.000000 0.000000 0.000000 0.022956 0.000000
# 6 0.000000 0.000000 0.000000 0.000000 0.000000 0.090704
#
#
# Mechanical properties :
#
#
# Convention : Reuss Voigt Hill
#
# Bulk Modulus (GPa) = 56.75809 77.57146 67.16477
# Shear Modulus (GPa) = 28.04872 42.46595 35.25734
#
# Velocity S-wave (km/s) = 3.54536 4.36239 3.97493
# Velocity P-wave (km/s) = 6.49575 7.75477 7.15301
#
# Compressibility (1/GPa) = 0.01761863
#
# Stress axis : x y z
#
# Youngs Moduli (GPa) = 67.07203 139.45814 167.57351
#
# Poissons Ratio (x) = 0.03421 0.44026
# Poissons Ratio (y) = 0.01645 0.39243
# Poissons Ratio (z) = 0.17622 0.32659
#
# Static dielectric constant tensor:
#      x y z
#    x 2.012010 0.000000 0.000000 
#    y 0.000000 1.833890 0.000000 
#    z 0.000000 0.000000 1.647860 
# 
# From -- ./inp_files/36839.got.cif
#   From: 2010.05.17/outbox.cif.g08.bks.cpg/sg21_19_cif.got.tgz:36839.got - 2010.06.03 23:14:55.
