data_PCOD9324254
_publ_section_title
;
Structure prediction by ZEFSAII (Michael W. Deem and Ramdas Pophale) SiO2 
 PCOD9324254
Probable space group: C 2 2 2
;
_chemical_formula_sum "Si O2"
_cell_formula_units_Z 40
_cell_length_a 9.014530
_cell_length_b 13.292433
_cell_length_c 17.340937
_cell_angle_alpha 90.000000
_cell_angle_beta 90.000000
_cell_angle_gamma 90.000000
_cell_volume 2077.878401
_symmetry_space_group_name_H-M "C 2 2 2"
_symmetry_group_IT_number 21
_symmetry_cell_setting 'orthorhombic'
loop_
_space_group_symop_operation_xyz
x,y,z
-x,-y,z
x,-y,-z
-x,y,-z
1/2+x,1/2+y,z
1/2-x,1/2-y,z
1/2+x,1/2-y,-z
1/2-x,1/2+y,-z
loop_
_atom_site_type_symbol
_atom_site_label
_atom_site_fract_x
_atom_site_fract_y
_atom_site_fract_z
Si Si1 0.500314 0.118325 0.907443
Si Si2 0.000000 0.000000 0.611048
Si Si3 0.261561 0.000000 0.500000
Si Si4 0.492988 0.691193 0.287324
Si Si5 0.750000 0.750000 0.832320
Si Si6 0.750000 0.250000 0.818554
Si Si7 0.905231 0.693152 0.571642
O O1 0.349014 0.172076 0.880099
O O2 0.639480 0.179347 0.869363
O O3 0.500000 0.000000 0.885374
O O4 0.500000 0.124544 0.000000
O O5 0.141859 0.961374 0.562495
O O6 0.958595 0.905395 0.661962
O O7 0.359886 0.918388 0.455510
O O8 0.365936 0.697496 0.224008
O O9 0.644606 0.687384 0.239352
O O10 0.486835 0.785852 0.347225
O O11 0.750000 0.750000 0.577982
O O12 0.000000 0.735605 0.500000
#
# Coordination Sequence:
#
# PCOD9324254 Si02
#       7
#     8   4   4   8   4   4   8
#     4  10  22  43  71 101 134 172 216 262 318 397
#     4  11  22  38  62  86 119 164 210 272 325 380
#     4  11  23  40  58  86 112 166 218 272 324 372
#     4  11  23  41  62  89 129 165 213 269 329 384
#     4  10  21  42  65  94 132 170 204 266 323 388
#     4  10  25  42  67 100 134 174 208 270 327 396
#     4  12  24  42  60  84 119 161 220 268 318 378
#
# _framework density 19.250405000000001
#
# number of rings (size 3 to 8) (size 9 to 14) (size 15 to 20)
#    0.000    1.200    3.000    2.100    7.000    0.000 
#    0.000    0.000    0.000    6.000    0.000    0.000 
#    0.000    0.000    0.000    0.000    0.000    0.000 
#
# Total GULP energy -111539.636985 kJ/mol
# GULP energy per Si atom -5576.981849 kJ/mol
# Density = 1.920659 g / cm^3
# Si number density = 19.250405 Si / 1000 Ang^3
#
#
#
# Elastic Constant Matrix: (Units=GPa)
#
#
# Indices 1 2 3 4 5 6 
#
# 1 106.9020 32.4938 47.2860 0.0000 0.0000 0.0000
# 2 32.4938 116.9566 49.1510 0.0000 0.0000 0.0000
# 3 47.2860 49.1510 110.0179 0.0000 0.0000 0.0000
# 4 0.0000 0.0000 0.0000 19.8039 0.0000 0.0000
# 5 0.0000 0.0000 0.0000 0.0000 27.4470 0.0000
# 6 0.0000 0.0000 0.0000 0.0000 0.0000 22.3535
#
#
#
# Elastic Compliance Matrix: (Units=1/GPa)
#
#
# Indices 1 2 3 4 5 6 
#
# 1 0.011735 -0.001404 -0.004416 0.000000 0.000000 0.000000
# 2 -0.001404 0.010695 -0.004174 0.000000 0.000000 0.000000
# 3 -0.004416 -0.004174 0.012852 0.000000 0.000000 0.000000
# 4 0.000000 0.000000 0.000000 0.050495 0.000000 0.000000
# 5 0.000000 0.000000 0.000000 0.000000 0.036434 0.000000
# 6 0.000000 0.000000 0.000000 0.000000 0.000000 0.044736
#
#
# Mechanical properties :
#
#
# Convention : Reuss Voigt Hill
#
# Bulk Modulus (GPa) = 65.39344 65.74867 65.57106
# Shear Modulus (GPa) = 26.03716 27.58392 26.81054
#
# Velocity S-wave (km/s) = 3.68169 3.78947 3.73597
# Velocity P-wave (km/s) = 7.21920 7.30585 7.26265
#
# Compressibility (1/GPa) = 0.01529205
#
# Stress axis : x y z
#
# Youngs Moduli (GPa) = 85.21784 93.50535 77.80646
#
# Poissons Ratio (x) = 0.13131 0.34361
# Poissons Ratio (y) = 0.11967 0.32479
# Poissons Ratio (z) = 0.37634 0.39032
#
# Static dielectric constant tensor:
#      x y z
#    x 1.697060 0.000000 0.000000 
#    y 0.000000 1.662630 0.000000 
#    z 0.000000 0.000000 1.684830 
# 
# From -- ./inp_files/30280.got.cif
#   From: 2010.05.17/outbox.cif.g08.bks.cpg/sg21_16_cif.got.tgz:30280.got - 2010.06.03 23:14:55.
