data_PCOD9324919
_publ_section_title
;
Structure prediction by ZEFSAII (Michael W. Deem and Ramdas Pophale) SiO2 
 PCOD9324919
Probable space group: C 2 2 2
;
_chemical_formula_sum "Si O2"
_cell_formula_units_Z 42
_cell_length_a 7.559609
_cell_length_b 23.229115
_cell_length_c 11.847821
_cell_angle_alpha 90.000000
_cell_angle_beta 90.000000
_cell_angle_gamma 90.000000
_cell_volume 2080.513229
_symmetry_space_group_name_H-M "C 2 2 2"
_symmetry_group_IT_number 21
_symmetry_cell_setting 'orthorhombic'
loop_
_space_group_symop_operation_xyz
x,y,z
-x,-y,z
x,-y,-z
-x,y,-z
1/2+x,1/2+y,z
1/2-x,1/2-y,z
1/2+x,1/2-y,-z
1/2-x,1/2+y,-z
loop_
_atom_site_type_symbol
_atom_site_label
_atom_site_fract_x
_atom_site_fract_y
_atom_site_fract_z
Si Si1 0.823150 0.533540 0.654557
Si Si2 0.944497 0.130901 0.124481
Si Si3 0.000000 0.000000 0.500000
Si Si4 0.541943 0.247018 0.866686
Si Si5 0.243478 0.962710 0.882160
Si Si6 0.442519 0.878691 0.187194
O O1 0.645144 0.533006 0.579039
O O2 0.774250 0.503214 0.773903
O O3 0.895785 0.595701 0.690185
O O4 0.000000 0.500000 0.614325
O O5 0.968145 0.192827 0.184279
O O6 0.069516 0.075936 0.145589
O O7 0.740914 0.115679 0.121351
O O8 0.000000 0.147546 0.000000
O O9 0.750000 0.250000 0.858064
O O10 0.484634 0.188243 0.808265
O O11 0.500000 0.238027 0.000000
O O12 0.405734 0.916930 0.872509
O O13 0.235043 0.000000 0.000000
#
# Coordination Sequence:
#
# PCOD9324919 Si02
#       6
#     8   8   2   8   8   8
#     4  10  24  39  64  95 125 169 215 261 329 394
#     4  11  22  34  52  82 124 182 228 256 299 378
#     4  12  22  48  66  86 128 164 214 282 324 390
#     4  11  21  36  55  82 126 187 230 263 303 379
#     4  11  24  39  58  95 140 181 210 257 327 399
#     4  11  23  38  57  86 129 168 225 268 317 382
#
# _framework density 20.187328000000001
#
# number of rings (size 3 to 8) (size 9 to 14) (size 15 to 20)
#    0.000    1.143    1.905    5.429    2.667    8.381 
#    0.000    0.000    0.000    0.000    0.000    0.000 
#  137.143    0.000    0.000    0.000    0.000    0.000 
#
# Total GULP energy -117060.134856 kJ/mol
# GULP energy per Si atom -5574.292136 kJ/mol
# Density = 2.014138 g / cm^3
# Si number density = 20.187328 Si / 1000 Ang^3
#
#
#
# Elastic Constant Matrix: (Units=GPa)
#
#
# Indices 1 2 3 4 5 6 
#
# 1 184.0125 56.9651 27.3019 0.0000 0.0000 0.0000
# 2 56.9651 147.1743 32.4121 0.0000 0.0000 0.0000
# 3 27.3019 32.4121 69.5685 0.0000 0.0000 0.0000
# 4 0.0000 0.0000 0.0000 -3.1776 0.0000 0.0000
# 5 0.0000 0.0000 0.0000 0.0000 34.8622 0.0000
# 6 0.0000 0.0000 0.0000 0.0000 0.0000 28.0652
#
#
#
# Elastic Compliance Matrix: (Units=1/GPa)
#
#
# Indices 1 2 3 4 5 6 
#
# 1 0.006310 -0.002114 -0.001492 0.000000 0.000000 0.000000
# 2 -0.002114 0.008280 -0.003028 0.000000 0.000000 0.000000
# 3 -0.001492 -0.003028 0.016370 0.000000 0.000000 0.000000
# 4 0.000000 0.000000 0.000000 -0.314707 0.000000 0.000000
# 5 0.000000 0.000000 0.000000 0.000000 0.028684 0.000000
# 6 0.000000 0.000000 0.000000 0.000000 0.000000 0.035631
#
#
# Mechanical properties :
#
#
# Convention : Reuss Voigt Hill
#
# Bulk Modulus (GPa) = 56.51793 70.45706 63.48749
# Shear Modulus (GPa) = -24.96672 30.88840 2.96084
#
# Velocity S-wave (km/s) = -3.52056 3.91588 1.21238
# Velocity P-wave (km/s) = 3.39583 7.44465 5.78596
#
# Compressibility (1/GPa) = 0.01769350
#
# Stress axis : x y z
#
# Youngs Moduli (GPa) = 158.47577 120.77715 61.08590
#
# Poissons Ratio (x) = 0.25531 0.09111
# Poissons Ratio (y) = 0.33500 0.18496
# Poissons Ratio (z) = 0.23637 0.36571
#
# Static dielectric constant tensor:
#      x y z
#    x 1.750970 0.000000 0.000000 
#    y 0.000000 1.908130 0.000000 
#    z 0.000000 0.000000 1.771610 
# 
# From -- ./inp_files/22708.got.cif
#   From: 2010.05.17/outbox.cif.g08.bks.cpg/sg21_12_cif.got.tgz:22708.got - 2010.06.03 23:14:55.
