data_PCOD9324898
_publ_section_title
;
Structure prediction by ZEFSAII (Michael W. Deem and Ramdas Pophale) SiO2 
 PCOD9324898
Probable space group: C 2 2 2
;
_chemical_formula_sum "Si O2"
_cell_formula_units_Z 48
_cell_length_a 8.487973
_cell_length_b 15.793579
_cell_length_c 16.355518
_cell_angle_alpha 90.000000
_cell_angle_beta 90.000000
_cell_angle_gamma 90.000000
_cell_volume 2192.546687
_symmetry_space_group_name_H-M "C 2 2 2"
_symmetry_group_IT_number 21
_symmetry_cell_setting 'orthorhombic'
loop_
_space_group_symop_operation_xyz
x,y,z
-x,-y,z
x,-y,-z
-x,y,-z
1/2+x,1/2+y,z
1/2-x,1/2-y,z
1/2+x,1/2-y,-z
1/2-x,1/2+y,-z
loop_
_atom_site_type_symbol
_atom_site_label
_atom_site_fract_x
_atom_site_fract_y
_atom_site_fract_z
Si Si1 0.864018 0.318049 0.829998
Si Si2 0.620259 0.690877 0.868129
Si Si3 0.438969 0.259855 0.590091
Si Si4 0.954524 0.406199 0.315095
Si Si5 0.808831 0.597144 0.010555
Si Si6 0.080003 0.909635 0.287614
O O1 0.750000 0.250000 0.787059
O O2 0.776436 0.373083 0.897636
O O3 0.981779 0.257589 0.881581
O O4 0.957895 0.378246 0.768598
O O5 0.750000 0.750000 0.821953
O O6 0.561482 0.620055 0.805894
O O7 0.709972 0.652549 0.945846
O O8 0.500000 0.278650 0.500000
O O9 0.250000 0.250000 0.588410
O O10 0.497230 0.168979 0.622763
O O11 0.481619 0.335052 0.652966
O O12 0.767584 0.411448 0.301384
O O13 0.000000 0.500000 0.341809
O O14 0.762538 0.500000 0.000000
O O15 0.000000 0.600857 0.000000
O O16 0.000000 0.000000 0.302594
#
# Coordination Sequence:
#
# PCOD9324898 Si02
#       6
#     8   8   8   8   8   8
#     4  12  27  43  69  98 136 193 252 293 370 430
#     4  12  22  46  68  91 143 187 242 304 356 423
#     4  10  23  47  74 107 147 184 228 291 359 430
#     4  11  25  44  70 105 143 186 237 296 352 430
#     4  11  25  41  65 100 137 184 240 305 360 412
#     4  11  24  44  72 104 141 190 235 292 360 430
#
# _framework density 21.892348999999999
#
# number of rings (size 3 to 8) (size 9 to 14) (size 15 to 20)
#    0.000    0.833    5.000    1.000    7.000    2.667 
#    0.000    4.167    0.000    0.000    0.000    0.000 
#    0.000    0.000    0.000    0.000    0.000    0.000 
#
# Total GULP energy -134199.274950 kJ/mol
# GULP energy per Si atom -5591.636456 kJ/mol
# Density = 2.184252 g / cm^3
# Si number density = 21.892349 Si / 1000 Ang^3
#
#
#
# Elastic Constant Matrix: (Units=GPa)
#
#
# Indices 1 2 3 4 5 6 
#
# 1 47.9990 41.9293 25.8143 0.0000 0.0000 0.0000
# 2 41.9293 171.4462 46.9595 0.0000 0.0000 0.0000
# 3 25.8143 46.9595 103.3479 0.0000 0.0000 0.0000
# 4 0.0000 0.0000 0.0000 14.8036 0.0000 0.0000
# 5 0.0000 0.0000 0.0000 0.0000 35.2985 0.0000
# 6 0.0000 0.0000 0.0000 0.0000 0.0000 45.2306
#
#
#
# Elastic Compliance Matrix: (Units=1/GPa)
#
#
# Indices 1 2 3 4 5 6 
#
# 1 0.028189 -0.005671 -0.004464 0.000000 0.000000 0.000000
# 2 -0.005671 0.007803 -0.002129 0.000000 0.000000 0.000000
# 3 -0.004464 -0.002129 0.011758 0.000000 0.000000 0.000000
# 4 0.000000 0.000000 0.000000 0.067551 0.000000 0.000000
# 5 0.000000 0.000000 0.000000 0.000000 0.028330 0.000000
# 6 0.000000 0.000000 0.000000 0.000000 0.000000 0.022109
#
#
# Mechanical properties :
#
#
# Convention : Reuss Voigt Hill
#
# Bulk Modulus (GPa) = 43.06351 61.35549 52.20950
# Shear Modulus (GPa) = 25.25145 32.93921 29.09533
#
# Velocity S-wave (km/s) = 3.39991 3.88312 3.64953
# Velocity P-wave (km/s) = 5.92670 6.94203 6.45436
#
# Compressibility (1/GPa) = 0.02322152
#
# Stress axis : x y z
#
# Youngs Moduli (GPa) = 35.47534 128.15913 85.04530
#
# Poissons Ratio (x) = 0.72681 0.37965
# Poissons Ratio (y) = 0.20119 0.18105
# Poissons Ratio (z) = 0.15837 0.27284
#
# Static dielectric constant tensor:
#      x y z
#    x 1.885370 0.000000 0.000000 
#    y 0.000000 1.795180 0.000000 
#    z 0.000000 0.000000 1.775260 
# 
# From -- ./inp_files/35697.got.cif
#   From: 2010.05.17/outbox.cif.g08.bks.cpg/sg21_18_cif.got.tgz:35697.got - 2010.06.03 23:14:55.
