data_PCOD9324532
_publ_section_title
;
Structure prediction by ZEFSAII (Michael W. Deem and Ramdas Pophale) SiO2 
 PCOD9324532
Probable space group: C 2 2 2
;
_chemical_formula_sum "Si O2"
_cell_formula_units_Z 32
_cell_length_a 10.990117
_cell_length_b 22.219020
_cell_length_c 6.420550
_cell_angle_alpha 90.000000
_cell_angle_beta 90.000000
_cell_angle_gamma 90.000000
_cell_volume 1567.831725
_symmetry_space_group_name_H-M "C 2 2 2"
_symmetry_group_IT_number 21
_symmetry_cell_setting 'orthorhombic'
loop_
_space_group_symop_operation_xyz
x,y,z
-x,-y,z
x,-y,-z
-x,y,-z
1/2+x,1/2+y,z
1/2-x,1/2-y,z
1/2+x,1/2-y,-z
1/2-x,1/2+y,-z
loop_
_atom_site_type_symbol
_atom_site_label
_atom_site_fract_x
_atom_site_fract_y
_atom_site_fract_z
Si Si1 0.627291 0.715070 0.887456
Si Si2 0.000000 0.000000 0.000000
Si Si3 0.000000 0.810176 0.500000
Si Si4 0.880790 0.561990 0.378037
Si Si5 0.500000 0.000000 0.000000
Si Si6 0.146724 0.891563 0.814412
O O1 0.750000 0.750000 0.946772
O O2 0.599420 0.723462 0.641486
O O3 0.500000 0.734826 0.000000
O O4 0.655126 0.646995 0.971448
O O5 0.087094 0.955890 0.866830
O O6 0.058946 0.852354 0.672460
O O7 0.847630 0.500000 0.500000
O O8 0.766711 0.602678 0.326958
O O9 0.000000 0.586449 0.500000
O O10 0.921814 0.541040 0.150306
#
# Coordination Sequence:
#
# PCOD9324532 Si02
#       6
#     8   2   4   8   2   8
#     4  10  23  48  71  96 131 174 229 293 348 409
#     4  12  22  38  68 104 138 194 212 274 344 412
#     4  10  22  41  64 100 130 166 229 274 336 410
#     4   9  20  35  56  89 127 175 218 260 315 395
#     4   8  16  36  52  70 124 170 206 252 298 364
#     4  11  23  40  63 100 136 174 224 269 344 407
#
# _framework density 20.410354999999999
#
# number of rings (size 3 to 8) (size 9 to 14) (size 15 to 20)
#    0.000    2.250    3.750    0.750    3.500    8.000 
#    6.750    0.000    0.000    0.000    0.000    0.000 
#    0.000    0.000    0.000    0.000    0.000    0.000 
#
# Total GULP energy -89072.208622 kJ/mol
# GULP energy per Si atom -5567.013039 kJ/mol
# Density = 2.036390 g / cm^3
# Si number density = 20.410355 Si / 1000 Ang^3
#
#
#
# Elastic Constant Matrix: (Units=GPa)
#
#
# Indices 1 2 3 4 5 6 
#
# 1 126.4354 33.4300 20.3019 0.0000 0.0000 0.0000
# 2 33.4300 42.1180 10.4231 0.0000 0.0000 0.0000
# 3 20.3019 10.4231 97.3484 0.0000 0.0000 0.0000
# 4 0.0000 0.0000 0.0000 10.7309 0.0000 0.0000
# 5 0.0000 0.0000 0.0000 0.0000 -41.1456 0.0000
# 6 0.0000 0.0000 0.0000 0.0000 0.0000 20.9909
#
#
#
# Elastic Compliance Matrix: (Units=1/GPa)
#
#
# Indices 1 2 3 4 5 6 
#
# 1 0.010165 -0.007749 -0.001290 0.000000 0.000000 0.000000
# 2 -0.007749 0.030296 -0.001628 0.000000 0.000000 0.000000
# 3 -0.001290 -0.001628 0.010716 0.000000 0.000000 0.000000
# 4 0.000000 0.000000 0.000000 0.093189 0.000000 0.000000
# 5 0.000000 0.000000 0.000000 0.000000 -0.024304 0.000000
# 6 0.000000 0.000000 0.000000 0.000000 0.000000 0.047640
#
#
# Mechanical properties :
#
#
# Convention : Reuss Voigt Hill
#
# Bulk Modulus (GPa) = 33.50863 43.80130 38.65497
# Shear Modulus (GPa) = 25.12769 11.56504 18.34637
#
# Velocity S-wave (km/s) = 3.51254 2.38297 3.00138
# Velocity P-wave (km/s) = 5.73618 5.39243 5.56696
#
# Compressibility (1/GPa) = 0.02984306
#
# Stress axis : x y z
#
# Youngs Moduli (GPa) = 98.37453 33.00739 93.32061
#
# Poissons Ratio (x) = 0.25578 0.12041
# Poissons Ratio (y) = 0.76231 0.15191
# Poissons Ratio (z) = 0.12693 0.05373
#
# Static dielectric constant tensor:
#      x y z
#    x 1.610150 0.000000 0.000000 
#    y 0.000000 1.871010 0.000000 
#    z 0.000000 0.000000 1.774970 
# 
# From -- ./inp_files/2454.got.cif
#   From: 2010.05.17/outbox.cif.g08.bks.cpg/sg21_2_cif.got.tgz:2454.got - 2010.06.03 23:14:55.
