data_PCOD9324018
_publ_section_title
;
Structure prediction by ZEFSAII (Michael W. Deem and Ramdas Pophale) SiO2 
 PCOD9324018
Probable space group: C 2 2 2
;
_chemical_formula_sum "Si O2"
_cell_formula_units_Z 50
_cell_length_a 14.055613
_cell_length_b 19.112012
_cell_length_c 9.719662
_cell_angle_alpha 90.000000
_cell_angle_beta 90.000000
_cell_angle_gamma 90.000000
_cell_volume 2611.002954
_symmetry_space_group_name_H-M "C 2 2 2"
_symmetry_group_IT_number 21
_symmetry_cell_setting 'orthorhombic'
loop_
_space_group_symop_operation_xyz
x,y,z
-x,-y,z
x,-y,-z
-x,y,-z
1/2+x,1/2+y,z
1/2-x,1/2-y,z
1/2+x,1/2-y,-z
1/2-x,1/2+y,-z
loop_
_atom_site_type_symbol
_atom_site_label
_atom_site_fract_x
_atom_site_fract_y
_atom_site_fract_z
Si Si1 0.309775 0.677046 0.762183
Si Si2 0.012743 0.229123 0.836642
Si Si3 0.500000 0.000000 0.000000
Si Si4 0.351455 0.936480 0.203921
Si Si5 0.202132 0.555406 0.627656
Si Si6 0.002114 0.361777 0.352783
Si Si7 0.292324 0.672567 0.082787
O O1 0.250000 0.750000 0.743483
O O2 0.421831 0.693609 0.765023
O O3 0.275681 0.619305 0.651967
O O4 0.294613 0.652369 0.921084
O O5 0.106961 0.181189 0.839028
O O6 0.014803 0.304739 0.764750
O O7 0.000000 0.241394 0.000000
O O8 0.568514 0.047270 0.091798
O O9 0.413308 0.913889 0.336358
O O10 0.279261 0.877661 0.159672
O O11 0.293580 0.005567 0.239383
O O12 0.215078 0.500000 0.500000
O O13 0.098738 0.593209 0.645960
O O14 0.000000 0.324642 0.500000
O O15 0.250000 0.750000 0.083256
#
# Coordination Sequence:
#
# PCOD9324018 Si02
#       7
#     8   8   2   8   8   8   8
#     4  10  21  40  67  95 126 167 222 276 333 396
#     4  10  22  42  69  96 129 169 223 279 328 393
#     4  12  24  32  62  96 126 164 226 294 340 412
#     4  12  24  36  59  94 132 169 216 276 345 398
#     4  12  24  42  60  91 136 179 216 267 335 414
#     4  12  23  39  61  95 135 168 207 265 337 406
#     4  10  21  38  63  98 132 164 213 280 335 396
#
# _framework density 19.149729000000001
#
# number of rings (size 3 to 8) (size 9 to 14) (size 15 to 20)
#    0.000    0.960    6.400    0.960    1.120    0.000 
#    2.880    3.200    0.000    3.840    0.000    0.000 
#    0.000    0.000    0.000    0.000    0.000    0.000 
#
# Total GULP energy -139330.283362 kJ/mol
# GULP energy per Si atom -5573.211334 kJ/mol
# Density = 1.910614 g / cm^3
# Si number density = 19.149729 Si / 1000 Ang^3
#
#
#
# Elastic Constant Matrix: (Units=GPa)
#
#
# Indices 1 2 3 4 5 6 
#
# 1 114.2520 53.6756 38.3025 0.0000 0.0000 0.0000
# 2 53.6756 101.0221 48.3632 0.0000 0.0000 0.0000
# 3 38.3025 48.3632 57.3998 0.0000 0.0000 0.0000
# 4 0.0000 0.0000 0.0000 35.5252 0.0000 0.0000
# 5 0.0000 0.0000 0.0000 0.0000 1.0736 0.0000
# 6 0.0000 0.0000 0.0000 0.0000 0.0000 29.2889
#
#
#
# Elastic Compliance Matrix: (Units=1/GPa)
#
#
# Indices 1 2 3 4 5 6 
#
# 1 0.012332 -0.004379 -0.004539 0.000000 0.000000 0.000000
# 2 -0.004379 0.018146 -0.012367 0.000000 0.000000 0.000000
# 3 -0.004539 -0.012367 0.030871 0.000000 0.000000 0.000000
# 4 0.000000 0.000000 0.000000 0.028149 0.000000 0.000000
# 5 0.000000 0.000000 0.000000 0.000000 0.931410 0.000000
# 6 0.000000 0.000000 0.000000 0.000000 0.000000 0.034143
#
#
# Mechanical properties :
#
#
# Convention : Reuss Voigt Hill
#
# Bulk Modulus (GPa) = 53.25464 61.48408 57.36936
# Shear Modulus (GPa) = 4.52948 21.99971 13.26459
#
# Velocity S-wave (km/s) = 1.53962 3.39311 2.63473
# Velocity P-wave (km/s) = 5.57051 6.89403 6.26730
#
# Compressibility (1/GPa) = 0.01877771
#
# Stress axis : x y z
#
# Youngs Moduli (GPa) = 81.09262 55.10784 32.39291
#
# Poissons Ratio (x) = 0.24132 0.14704
# Poissons Ratio (y) = 0.35511 0.40061
# Poissons Ratio (z) = 0.36809 0.68154
#
# Static dielectric constant tensor:
#      x y z
#    x 1.687960 0.000000 0.000000 
#    y 0.000000 1.676640 0.000000 
#    z 0.000000 0.000000 1.794350 
# 
# From -- ./inp_files/15033.got.cif
#   From: 2010.05.17/outbox.cif.g08.bks.cpg/sg21_8_cif.got.tgz:15033.got - 2010.06.03 23:14:55.
