data_PCOD9324417
_publ_section_title
;
Structure prediction by ZEFSAII (Michael W. Deem and Ramdas Pophale) SiO2 
 PCOD9324417
Probable space group: C 2 2 2
;
_chemical_formula_sum "Si O2"
_cell_formula_units_Z 58
_cell_length_a 17.724937
_cell_length_b 17.974167
_cell_length_c 9.677982
_cell_angle_alpha 90.000000
_cell_angle_beta 90.000000
_cell_angle_gamma 90.000000
_cell_volume 3083.317748
_symmetry_space_group_name_H-M "C 2 2 2"
_symmetry_group_IT_number 21
_symmetry_cell_setting 'orthorhombic'
loop_
_space_group_symop_operation_xyz
x,y,z
-x,-y,z
x,-y,-z
-x,y,-z
1/2+x,1/2+y,z
1/2-x,1/2-y,z
1/2+x,1/2-y,-z
1/2-x,1/2+y,-z
loop_
_atom_site_type_symbol
_atom_site_label
_atom_site_fract_x
_atom_site_fract_y
_atom_site_fract_z
Si Si1 0.305387 0.686346 0.465914
Si Si2 0.059143 0.708119 0.376804
Si Si3 0.000000 0.000000 0.500000
Si Si4 0.689313 0.183770 0.950273
Si Si5 0.812218 0.615255 0.741667
Si Si6 0.615154 0.590276 0.311161
Si Si7 0.750878 0.031417 0.845277
Si Si8 0.456141 0.725324 0.861070
O O1 0.250000 0.750000 0.524162
O O2 0.381983 0.726596 0.417606
O O3 0.259239 0.649397 0.340508
O O4 0.327342 0.627711 0.580952
O O5 0.112667 0.638616 0.340159
O O6 0.000000 0.695626 0.500000
O O7 0.013036 0.734517 0.243608
O O8 0.052024 0.950268 0.598935
O O9 0.750000 0.250000 0.944330
O O10 0.716095 0.113826 0.858283
O O11 0.610591 0.218109 0.901217
O O12 0.683985 0.154004 0.107762
O O13 0.799272 0.527745 0.761829
O O14 0.666113 0.535972 0.219621
O O15 0.579120 0.654311 0.216344
O O16 0.756332 0.000000 0.000000
O O17 0.500000 0.703202 0.000000
#
# Coordination Sequence:
#
# PCOD9324417 Si02
#       8
#     8   8   2   8   8   8   8   8
#     4  10  22  38  67  94 125 173 224 271 321 388
#     4  11  21  40  63  97 135 170 222 277 333 397
#     4  12  28  44  58  92 148 188 198 260 364 412
#     4  11  21  41  67  97 128 171 227 277 322 391
#     4  10  22  41  64  94 132 175 217 270 341 395
#     4  12  24  42  65  96 134 173 222 269 323 406
#     4  10  24  41  66  94 128 170 225 275 323 398
#     4  12  25  39  68 103 130 169 222 280 332 381
#
# _framework density 18.810905999999999
#
# number of rings (size 3 to 8) (size 9 to 14) (size 15 to 20)
#    0.000    1.103    4.138    2.897    1.931    1.103 
#    0.000    0.690    0.000    2.483    0.000    0.000 
#    0.000    0.000    0.000    0.000    0.000    0.000 
#
# Total GULP energy -162099.832342 kJ/mol
# GULP energy per Si atom -5589.649391 kJ/mol
# Density = 1.876809 g / cm^3
# Si number density = 18.810906 Si / 1000 Ang^3
#
#
#
# Elastic Constant Matrix: (Units=GPa)
#
#
# Indices 1 2 3 4 5 6 
#
# 1 125.5127 49.8422 62.3878 0.0000 0.0000 0.0000
# 2 49.8422 108.3575 45.2215 0.0000 0.0000 0.0000
# 3 62.3878 45.2215 95.7334 0.0000 0.0000 0.0000
# 4 0.0000 0.0000 0.0000 12.1747 0.0000 0.0000
# 5 0.0000 0.0000 0.0000 0.0000 -142.2303 0.0000
# 6 0.0000 0.0000 0.0000 0.0000 0.0000 22.3820
#
#
#
# Elastic Compliance Matrix: (Units=1/GPa)
#
#
# Indices 1 2 3 4 5 6 
#
# 1 0.012487 -0.002924 -0.006756 0.000000 0.000000 0.000000
# 2 -0.002924 0.012179 -0.003848 0.000000 0.000000 0.000000
# 3 -0.006756 -0.003848 0.016666 0.000000 0.000000 0.000000
# 4 0.000000 0.000000 0.000000 0.082138 0.000000 0.000000
# 5 0.000000 0.000000 0.000000 0.000000 -0.007031 0.000000
# 6 0.000000 0.000000 0.000000 0.000000 0.000000 0.044679
#
#
# Mechanical properties :
#
#
# Convention : Reuss Voigt Hill
#
# Bulk Modulus (GPa) = 70.04499 71.61187 70.82843
# Shear Modulus (GPa) = 25.91579 -10.05793 7.92893
#
# Velocity S-wave (km/s) = 3.71577 -2.31484 2.05529
# Velocity P-wave (km/s) = 7.46501 5.56843 6.58535
#
# Compressibility (1/GPa) = 0.01427654
#
# Stress axis : x y z
#
# Youngs Moduli (GPa) = 80.08504 82.10526 60.00218
#
# Poissons Ratio (x) = 0.24008 0.40538
# Poissons Ratio (y) = 0.23417 0.23087
# Poissons Ratio (z) = 0.54107 0.31591
#
# Static dielectric constant tensor:
#      x y z
#    x 1.630000 0.000000 0.000000 
#    y 0.000000 1.675590 0.000000 
#    z 0.000000 0.000000 1.650450 
# 
# From -- ./inp_files/16692.got.cif
#   From: 2010.05.17/outbox.cif.g08.bks.cpg/sg21_9_cif.got.tgz:16692.got - 2010.06.03 23:14:55.
