data_PCOD9324360
_publ_section_title
;
Structure prediction by ZEFSAII (Michael W. Deem and Ramdas Pophale) SiO2 
 PCOD9324360
Probable space group: C 2 2 2
;
_chemical_formula_sum "Si O2"
_cell_formula_units_Z 58
_cell_length_a 23.941901
_cell_length_b 8.690628
_cell_length_c 12.607710
_cell_angle_alpha 90.000000
_cell_angle_beta 90.000000
_cell_angle_gamma 90.000000
_cell_volume 2623.288176
_symmetry_space_group_name_H-M "C 2 2 2"
_symmetry_group_IT_number 21
_symmetry_cell_setting 'orthorhombic'
loop_
_space_group_symop_operation_xyz
x,y,z
-x,-y,z
x,-y,-z
-x,y,-z
1/2+x,1/2+y,z
1/2-x,1/2-y,z
1/2+x,1/2-y,-z
1/2-x,1/2+y,-z
loop_
_atom_site_type_symbol
_atom_site_label
_atom_site_fract_x
_atom_site_fract_y
_atom_site_fract_z
Si Si1 0.579622 0.450545 0.617840
Si Si2 0.784775 0.600279 0.091027
Si Si3 0.382748 0.143577 0.435905
Si Si4 0.595066 0.238315 0.963983
Si Si5 0.062768 0.038947 0.850129
Si Si6 0.000000 0.500000 0.000000
Si Si7 0.317014 0.645834 0.391882
Si Si8 0.799354 0.437217 0.307211
O O1 0.559528 0.500000 0.500000
O O2 0.576432 0.266029 0.619193
O O3 0.559592 0.542199 0.721622
O O4 0.644716 0.498741 0.619273
O O5 0.750000 0.750000 0.113538
O O6 0.846661 0.650639 0.052638
O O7 0.783121 0.498460 0.194867
O O8 0.757040 0.500000 0.000000
O O9 0.343901 0.246069 0.515851
O O10 0.409347 0.000000 0.500000
O O11 0.342253 0.058549 0.354786
O O12 0.595639 0.384507 0.884496
O O13 0.543750 0.118570 0.943384
O O14 0.584801 0.316549 0.080729
O O15 0.000000 0.000000 0.885416
O O16 0.253347 0.588308 0.386720
O O17 0.323135 0.765079 0.295119
#
# Coordination Sequence:
#
# PCOD9324360 Si02
#       8
#     8   8   8   8   8   2   8   8
#     4  10  22  37  62  95 129 175 215 273 341 404
#     4  12  30  44  62  95 140 188 222 273 353 437
#     4   9  19  37  57  90 125 167 223 273 323 382
#     4  11  24  45  72 102 131 171 230 301 345 415
#     4  11  23  43  72 100 128 169 226 284 352 410
#     4  12  20  46  76 104 130 162 248 302 356 392
#     4   9  21  35  59  86 124 167 223 274 315 394
#     4  10  22  38  57  86 124 173 222 273 326 391
#
# _framework density 22.109655
#
# number of rings (size 3 to 8) (size 9 to 14) (size 15 to 20)
#    0.000    1.655    2.069    1.241    9.655    9.655 
#    0.000    0.000    0.000    0.000    0.000    0.000 
#    0.000    0.000    0.000    0.000    0.000    0.000 
#
# Total GULP energy -161583.639973 kJ/mol
# GULP energy per Si atom -5571.849654 kJ/mol
# Density = 2.205933 g / cm^3
# Si number density = 22.109655 Si / 1000 Ang^3
#
#
#
# Elastic Constant Matrix: (Units=GPa)
#
#
# Indices 1 2 3 4 5 6 
#
# 1 48.1246 5.0118 -5.8482 0.0000 0.0000 0.0000
# 2 5.0118 124.2439 27.7411 0.0000 0.0000 0.0000
# 3 -5.8482 27.7411 103.9815 0.0000 0.0000 0.0000
# 4 0.0000 0.0000 0.0000 26.1407 0.0000 0.0000
# 5 0.0000 0.0000 0.0000 0.0000 10.7453 0.0000
# 6 0.0000 0.0000 0.0000 0.0000 0.0000 50.5569
#
#
#
# Elastic Compliance Matrix: (Units=1/GPa)
#
#
# Indices 1 2 3 4 5 6 
#
# 1 0.021085 -0.001186 0.001502 0.000000 0.000000 0.000000
# 2 -0.001186 0.008625 -0.002368 0.000000 0.000000 0.000000
# 3 0.001502 -0.002368 0.010333 0.000000 0.000000 0.000000
# 4 0.000000 0.000000 0.000000 0.038254 0.000000 0.000000
# 5 0.000000 0.000000 0.000000 0.000000 0.093064 0.000000
# 6 0.000000 0.000000 0.000000 0.000000 0.000000 0.019780
#
#
# Mechanical properties :
#
#
# Convention : Reuss Voigt Hill
#
# Bulk Modulus (GPa) = 27.82340 36.68438 32.25389
# Shear Modulus (GPa) = 24.12832 34.11829 29.12330
#
# Velocity S-wave (km/s) = 3.30707 3.93254 3.63329
# Velocity P-wave (km/s) = 5.21478 6.10311 5.67634
#
# Compressibility (1/GPa) = 0.03594098
#
# Stress axis : x y z
#
# Youngs Moduli (GPa) = 47.42607 115.93926 96.77453
#
# Poissons Ratio (x) = 0.13750 -0.14539
# Poissons Ratio (y) = 0.05625 0.22914
# Poissons Ratio (z) = -0.07125 0.27452
#
# Static dielectric constant tensor:
#      x y z
#    x 1.869060 0.000000 0.000000 
#    y 0.000000 1.846780 0.000000 
#    z 0.000000 0.000000 1.856410 
# 
# From -- ./inp_files/27794.got.cif
#   From: 2010.05.17/outbox.cif.g08.bks.cpg/sg21_14_cif.got.tgz:27794.got - 2010.06.03 23:14:55.
