data_PCOD9324724
_publ_section_title
;
Structure prediction by ZEFSAII (Michael W. Deem and Ramdas Pophale) SiO2 
 PCOD9324724
Probable space group: C 2 2 2
;
_chemical_formula_sum "Si O2"
_cell_formula_units_Z 46
_cell_length_a 12.563662
_cell_length_b 20.905065
_cell_length_c 9.029859
_cell_angle_alpha 90.000000
_cell_angle_beta 90.000000
_cell_angle_gamma 90.000000
_cell_volume 2371.639829
_symmetry_space_group_name_H-M "C 2 2 2"
_symmetry_group_IT_number 21
_symmetry_cell_setting 'orthorhombic'
loop_
_space_group_symop_operation_xyz
x,y,z
-x,-y,z
x,-y,-z
-x,y,-z
1/2+x,1/2+y,z
1/2-x,1/2-y,z
1/2+x,1/2-y,-z
1/2-x,1/2+y,-z
loop_
_atom_site_type_symbol
_atom_site_label
_atom_site_fract_x
_atom_site_fract_y
_atom_site_fract_z
Si Si1 0.300871 0.680292 0.194613
Si Si2 0.879054 0.420075 0.257229
Si Si3 0.051142 0.681891 0.841119
Si Si4 0.029094 0.812497 0.672547
Si Si5 0.210001 0.868908 0.871239
Si Si6 0.777236 0.500000 0.000000
Si Si7 0.000000 0.500000 0.500000
O O1 0.250000 0.750000 0.226750
O O2 0.222921 0.626885 0.264220
O O3 0.418347 0.669299 0.252390
O O4 0.313002 0.672486 0.018082
O O5 0.921989 0.457051 0.399370
O O6 0.973292 0.374094 0.207481
O O7 0.849668 0.469266 0.127355
O O8 0.050655 0.740157 0.726741
O O9 0.168607 0.652161 0.841999
O O10 0.000000 0.703225 0.000000
O O11 0.127977 0.852905 0.739660
O O12 0.000000 0.816207 0.500000
O O13 0.210501 0.942717 0.924397
#
# Coordination Sequence:
#
# PCOD9324724 Si02
#       7
#     8   8   8   8   8   4   2
#     4  11  21  43  69  92 129 174 232 285 344 397
#     4  11  25  41  68  98 132 182 218 295 347 427
#     4  12  21  42  71 100 135 173 234 295 352 408
#     4  12  27  41  62 102 147 180 223 282 362 433
#     4  11  23  41  70 100 133 182 233 292 340 411
#     4  10  22  45  71  98 130 178 249 279 334 418
#     4  12  28  38  60 104 154 170 224 274 380 452
#
# _framework density 19.395862999999999
#
# number of rings (size 3 to 8) (size 9 to 14) (size 15 to 20)
#    0.000    0.696    5.217    4.174    1.217    4.870 
#    0.000    6.957    0.000    4.174    0.000    0.000 
#    0.000    0.000    0.000    0.000    0.000    0.000 
#
# Total GULP energy -128459.852129 kJ/mol
# GULP energy per Si atom -5585.210962 kJ/mol
# Density = 1.935172 g / cm^3
# Si number density = 19.395863 Si / 1000 Ang^3
#
#
#
# Elastic Constant Matrix: (Units=GPa)
#
#
# Indices 1 2 3 4 5 6 
#
# 1 137.5112 49.5625 31.8183 0.0000 0.0000 0.0000
# 2 49.5625 111.2759 61.3055 0.0000 0.0000 0.0000
# 3 31.8183 61.3055 51.5106 0.0000 0.0000 0.0000
# 4 0.0000 0.0000 0.0000 8.7514 0.0000 0.0000
# 5 0.0000 0.0000 0.0000 0.0000 18.4312 0.0000
# 6 0.0000 0.0000 0.0000 0.0000 0.0000 21.9318
#
#
#
# Elastic Compliance Matrix: (Units=1/GPa)
#
#
# Indices 1 2 3 4 5 6 
#
# 1 0.008750 -0.002671 -0.002226 0.000000 0.000000 0.000000
# 2 -0.002671 0.026916 -0.030384 0.000000 0.000000 0.000000
# 3 -0.002226 -0.030384 0.056951 0.000000 0.000000 0.000000
# 4 0.000000 0.000000 0.000000 0.114267 0.000000 0.000000
# 5 0.000000 0.000000 0.000000 0.000000 0.054256 0.000000
# 6 0.000000 0.000000 0.000000 0.000000 0.000000 0.045596
#
#
# Mechanical properties :
#
#
# Convention : Reuss Voigt Hill
#
# Bulk Modulus (GPa) = 45.34367 65.07444 55.20905
# Shear Modulus (GPa) = 12.99884 20.33031 16.66458
#
# Velocity S-wave (km/s) = 2.59160 3.24107 2.93436
# Velocity P-wave (km/s) = 5.69069 6.90142 6.32509
#
# Compressibility (1/GPa) = 0.02205380
#
# Stress axis : x y z
#
# Youngs Moduli (GPa) = 114.28772 37.15280 17.55902
#
# Poissons Ratio (x) = 0.09922 0.03909
# Poissons Ratio (y) = 0.30522 0.53352
# Poissons Ratio (z) = 0.25445 1.12886
#
# Static dielectric constant tensor:
#      x y z
#    x 1.696620 0.000000 0.000000 
#    y 0.000000 1.720120 0.000000 
#    z 0.000000 0.000000 1.720880 
# 
# From -- ./inp_files/13368.got.cif
#   From: 2010.05.17/outbox.cif.g08.bks.cpg/sg21_7_cif.got.tgz:13368.got - 2010.06.03 23:14:55.
