data_PCOD9324352
_publ_section_title
;
Structure prediction by ZEFSAII (Michael W. Deem and Ramdas Pophale) SiO2 
 PCOD9324352
Probable space group: C 2 2 2
;
_chemical_formula_sum "Si O2"
_cell_formula_units_Z 48
_cell_length_a 29.183236
_cell_length_b 9.866592
_cell_length_c 8.034030
_cell_angle_alpha 90.000000
_cell_angle_beta 90.000000
_cell_angle_gamma 90.000000
_cell_volume 2313.311230
_symmetry_space_group_name_H-M "C 2 2 2"
_symmetry_group_IT_number 21
_symmetry_cell_setting 'orthorhombic'
loop_
_space_group_symop_operation_xyz
x,y,z
-x,-y,z
x,-y,-z
-x,y,-z
1/2+x,1/2+y,z
1/2-x,1/2-y,z
1/2+x,1/2-y,-z
1/2-x,1/2+y,-z
loop_
_atom_site_type_symbol
_atom_site_label
_atom_site_fract_x
_atom_site_fract_y
_atom_site_fract_z
Si Si1 0.590263 0.000000 0.000000
Si Si2 0.619683 0.000000 0.500000
Si Si3 0.542092 0.577965 0.678022
Si Si4 0.538545 0.114881 0.283178
Si Si5 0.137331 0.006103 0.194657
Si Si6 0.250000 0.250000 0.314932
Si Si7 0.152807 0.313170 0.230696
Si Si8 0.703705 0.500000 0.500000
O O1 0.623975 0.907094 0.108373
O O2 0.555810 0.100587 0.095020
O O3 0.584743 0.076021 0.379449
O O4 0.649184 0.111349 0.593383
O O5 0.500000 0.500000 0.762044
O O6 0.549289 0.500000 0.500000
O O7 0.526679 0.733796 0.665006
O O8 0.589420 0.569586 0.777768
O O9 0.500000 0.000000 0.312341
O O10 0.130579 0.165197 0.234701
O O11 0.172472 0.958240 0.339521
O O12 0.152209 0.000000 0.000000
O O13 0.206695 0.292296 0.201761
O O14 0.266962 0.374391 0.429850
#
# Coordination Sequence:
#
# PCOD9324352 Si02
#       8
#     4   4   8   8   8   4   8   4
#     4  10  23  44  68  92 142 178 230 276 353 418
#     4  10  22  36  70  89 130 175 228 280 334 410
#     4  11  25  40  65  97 137 179 233 283 340 410
#     4  11  24  40  65  96 133 181 231 281 335 406
#     4  11  23  44  69  98 139 183 227 280 356 412
#     4  10  22  44  70 100 132 172 226 286 350 412
#     4  10  22  43  68  98 132 177 230 283 350 425
#     4  10  23  46  71  97 142 173 227 288 343 428
#
# _framework density 20.749476999999999
#
# number of rings (size 3 to 8) (size 9 to 14) (size 15 to 20)
#    0.000    1.500    0.833    3.000   11.667    0.333 
#   12.000    0.833    0.000    0.000    0.000    0.000 
#    0.000    0.000    0.000    0.000    0.000    0.000 
#
# Total GULP energy -133908.199716 kJ/mol
# GULP energy per Si atom -5579.508322 kJ/mol
# Density = 2.070225 g / cm^3
# Si number density = 20.749477 Si / 1000 Ang^3
#
#
#
# Elastic Constant Matrix: (Units=GPa)
#
#
# Indices 1 2 3 4 5 6 
#
# 1 104.2356 30.7280 20.2858 0.0000 0.0000 0.0000
# 2 30.7280 142.2303 17.4421 0.0000 0.0000 0.0000
# 3 20.2858 17.4421 80.6922 0.0000 0.0000 0.0000
# 4 0.0000 0.0000 0.0000 16.2276 0.0000 0.0000
# 5 0.0000 0.0000 0.0000 0.0000 17.8001 0.0000
# 6 0.0000 0.0000 0.0000 0.0000 0.0000 21.0394
#
#
#
# Elastic Compliance Matrix: (Units=1/GPa)
#
#
# Indices 1 2 3 4 5 6 
#
# 1 0.010624 -0.002021 -0.002234 0.000000 0.000000 0.000000
# 2 -0.002021 0.007607 -0.001136 0.000000 0.000000 0.000000
# 3 -0.002234 -0.001136 0.013200 0.000000 0.000000 0.000000
# 4 0.000000 0.000000 0.000000 0.061623 0.000000 0.000000
# 5 0.000000 0.000000 0.000000 0.000000 0.056180 0.000000
# 6 0.000000 0.000000 0.000000 0.000000 0.000000 0.047530
#
#
# Mechanical properties :
#
#
# Convention : Reuss Voigt Hill
#
# Bulk Modulus (GPa) = 48.43028 51.56331 49.99679
# Shear Modulus (GPa) = 23.31769 28.26024 25.78897
#
# Velocity S-wave (km/s) = 3.35591 3.69450 3.52927
# Velocity P-wave (km/s) = 6.19736 6.56532 6.38399
#
# Compressibility (1/GPa) = 0.02064824
#
# Stress axis : x y z
#
# Youngs Moduli (GPa) = 94.12381 131.46004 75.75779
#
# Poissons Ratio (x) = 0.26573 0.16924
# Poissons Ratio (y) = 0.19026 0.08607
# Poissons Ratio (z) = 0.21027 0.14935
#
# Static dielectric constant tensor:
#      x y z
#    x 1.731320 0.000000 0.000000 
#    y 0.000000 1.742190 0.000000 
#    z 0.000000 0.000000 1.853290 
# 
# From -- ./inp_files/19729.got.cif
#   From: 2010.05.17/outbox.cif.g08.bks.cpg/sg21_10_cif.got.tgz:19729.got - 2010.06.03 23:14:55.
