data_PCOD9324029
_publ_section_title
;
Structure prediction by ZEFSAII (Michael W. Deem and Ramdas Pophale) SiO2 
 PCOD9324029
Probable space group: C 2 2 2
;
_chemical_formula_sum "Si O2"
_cell_formula_units_Z 38
_cell_length_a 9.582864
_cell_length_b 18.441376
_cell_length_c 9.817461
_cell_angle_alpha 90.000000
_cell_angle_beta 90.000000
_cell_angle_gamma 90.000000
_cell_volume 1734.953471
_symmetry_space_group_name_H-M "C 2 2 2"
_symmetry_group_IT_number 21
_symmetry_cell_setting 'orthorhombic'
loop_
_space_group_symop_operation_xyz
x,y,z
-x,-y,z
x,-y,-z
-x,y,-z
1/2+x,1/2+y,z
1/2-x,1/2-y,z
1/2+x,1/2-y,-z
1/2-x,1/2+y,-z
loop_
_atom_site_type_symbol
_atom_site_label
_atom_site_fract_x
_atom_site_fract_y
_atom_site_fract_z
Si Si1 0.000000 0.500000 0.000000
Si Si2 0.292411 0.564391 0.405449
Si Si3 0.000000 0.595729 0.500000
Si Si4 0.029666 0.296800 0.272700
Si Si5 0.000000 0.820295 0.500000
Si Si6 0.714964 0.882714 0.864120
Si Si7 0.750000 0.750000 0.048732
O O1 0.107762 0.443159 0.926077
O O2 0.347088 0.500000 0.500000
O O3 0.362495 0.633332 0.474400
O O4 0.313765 0.574883 0.243380
O O5 0.124803 0.558573 0.419335
O O6 0.923079 0.642675 0.382592
O O7 0.126607 0.278675 0.146058
O O8 0.016311 0.227137 0.365991
O O9 0.882898 0.326722 0.219710
O O10 0.787400 0.824095 0.965132
#
# Coordination Sequence:
#
# PCOD9324029 Si02
#       7
#     2   8   4   8   4   8   4
#     4  12  24  44  62 104 142 182 228 306 350 436
#     4  11  24  40  64  93 134 177 229 290 352 416
#     4   9  21  38  62  96 117 173 226 290 329 419
#     4  10  21  38  64  93 129 171 226 283 348 409
#     4  11  23  42  66  97 134 175 234 288 349 425
#     4  11  25  40  66  97 140 179 239 288 359 430
#     4  12  20  40  64  98 132 190 222 290 358 432
#
# _framework density 21.902604
#
# number of rings (size 3 to 8) (size 9 to 14) (size 15 to 20)
#    0.000    1.263    2.105    3.158    5.895    7.579 
#    0.000    0.000    0.000    0.000    0.000    0.000 
#    0.000    0.000    0.000    0.000    0.000    0.000 
#
# Total GULP energy -105803.346581 kJ/mol
# GULP energy per Si atom -5568.597188 kJ/mol
# Density = 2.185275 g / cm^3
# Si number density = 21.902604 Si / 1000 Ang^3
#
#
#
# Elastic Constant Matrix: (Units=GPa)
#
#
# Indices 1 2 3 4 5 6 
#
# 1 39.4735 1.0599 13.6242 0.0000 0.0000 0.0000
# 2 1.0599 104.6590 59.8813 0.0000 0.0000 0.0000
# 3 13.6242 59.8813 122.9638 0.0000 0.0000 0.0000
# 4 0.0000 0.0000 0.0000 35.4936 0.0000 0.0000
# 5 0.0000 0.0000 0.0000 0.0000 -24.4175 0.0000
# 6 0.0000 0.0000 0.0000 0.0000 0.0000 -2.0160
#
#
#
# Elastic Compliance Matrix: (Units=1/GPa)
#
#
# Indices 1 2 3 4 5 6 
#
# 1 0.026629 0.001966 -0.003908 0.000000 0.000000 0.000000
# 2 0.001966 0.013391 -0.006739 0.000000 0.000000 0.000000
# 3 -0.003908 -0.006739 0.011847 0.000000 0.000000 0.000000
# 4 0.000000 0.000000 0.000000 0.028174 0.000000 0.000000
# 5 0.000000 0.000000 0.000000 0.000000 -0.040954 0.000000
# 6 0.000000 0.000000 0.000000 0.000000 0.000000 -0.496026
#
#
# Mechanical properties :
#
#
# Convention : Reuss Voigt Hill
#
# Bulk Modulus (GPa) = 28.98038 46.24745 37.61392
# Shear Modulus (GPa) = -11.68017 14.64742 1.48363
#
# Velocity S-wave (km/s) = -2.31179 2.58883 0.82392
# Velocity P-wave (km/s) = 2.47677 5.48607 4.25625
#
# Compressibility (1/GPa) = 0.03450611
#
# Stress axis : x y z
#
# Youngs Moduli (GPa) = 37.55234 74.67917 84.40808
#
# Poissons Ratio (x) = -0.14685 0.32987
# Poissons Ratio (y) = -0.07384 0.56882
# Poissons Ratio (z) = 0.14676 0.50325
#
# Static dielectric constant tensor:
#      x y z
#    x 1.794700 0.000000 0.000000 
#    y 0.000000 1.917530 0.000000 
#    z 0.000000 0.000000 1.936650 
# 
# From -- ./inp_files/12806.got.cif
#   From: 2010.05.17/outbox.cif.g08.bks.cpg/sg21_7_cif.got.tgz:12806.got - 2010.06.03 23:14:55.
