data_PCOD9324128
_publ_section_title
;
Structure prediction by ZEFSAII (Michael W. Deem and Ramdas Pophale) SiO2 
 PCOD9324128
Probable space group: C 2 2 2
;
_chemical_formula_sum "Si O2"
_cell_formula_units_Z 38
_cell_length_a 11.739016
_cell_length_b 24.590139
_cell_length_c 6.413454
_cell_angle_alpha 90.000000
_cell_angle_beta 90.000000
_cell_angle_gamma 90.000000
_cell_volume 1851.333511
_symmetry_space_group_name_H-M "C 2 2 2"
_symmetry_group_IT_number 21
_symmetry_cell_setting 'orthorhombic'
loop_
_space_group_symop_operation_xyz
x,y,z
-x,-y,z
x,-y,-z
-x,y,-z
1/2+x,1/2+y,z
1/2-x,1/2-y,z
1/2+x,1/2-y,-z
1/2-x,1/2+y,-z
loop_
_atom_site_type_symbol
_atom_site_label
_atom_site_fract_x
_atom_site_fract_y
_atom_site_fract_z
Si Si1 0.000000 0.000000 0.500000
Si Si2 0.250000 0.250000 0.556855
Si Si3 0.610031 0.692415 0.906510
Si Si4 0.637435 0.935546 0.986905
Si Si5 0.657694 0.590190 0.676046
Si Si6 0.745720 0.150821 0.712743
O O1 0.915632 0.036547 0.360102
O O2 0.341519 0.275129 0.713070
O O3 0.303358 0.200859 0.422756
O O4 0.587148 0.632249 0.816929
O O5 0.500000 0.720012 0.000000
O O6 0.694580 0.682190 0.097043
O O7 0.675137 0.896928 0.177656
O O8 0.500000 0.930758 0.000000
O O9 0.718205 0.917100 0.789975
O O10 0.662519 0.000000 0.000000
O O11 0.675586 0.618709 0.452160
#
# Coordination Sequence:
#
# PCOD9324128 Si02
#       6
#     2   4   8   8   8   8
#     4  12  20  36  66  98 128 162 208 266 322 382
#     4  10  22  40  62  88 120 160 204 252 312 374
#     4  10  21  40  61  85 121 161 201 253 313 377
#     4  10  22  41  64  91 127 170 214 260 311 374
#     4  10  22  37  60  93 126 164 205 254 322 380
#     4  10  21  42  62  89 127 160 207 259 308 377
#
# _framework density 20.525744
#
# number of rings (size 3 to 8) (size 9 to 14) (size 15 to 20)
#    0.000    1.895    0.000    3.158    0.000    5.053 
#    0.000   31.579    0.000    0.000    0.000    0.000 
#    0.000    0.000    0.000    0.000    0.000    0.000 
#
# Total GULP energy -105831.018392 kJ/mol
# GULP energy per Si atom -5570.053600 kJ/mol
# Density = 2.047903 g / cm^3
# Si number density = 20.525744 Si / 1000 Ang^3
#
#
#
# Elastic Constant Matrix: (Units=GPa)
#
#
# Indices 1 2 3 4 5 6 
#
# 1 71.3937 44.2207 46.2942 0.0000 0.0000 0.0000
# 2 44.2207 126.2496 68.7053 0.0000 0.0000 0.0000
# 3 46.2942 68.7053 132.1908 0.0000 0.0000 0.0000
# 4 0.0000 0.0000 0.0000 24.1499 0.0000 0.0000
# 5 0.0000 0.0000 0.0000 0.0000 14.2179 0.0000
# 6 0.0000 0.0000 0.0000 0.0000 0.0000 9.6428
#
#
#
# Elastic Compliance Matrix: (Units=1/GPa)
#
#
# Indices 1 2 3 4 5 6 
#
# 1 0.019727 -0.004392 -0.004626 0.000000 0.000000 0.000000
# 2 -0.004392 0.012023 -0.004711 0.000000 0.000000 0.000000
# 3 -0.004626 -0.004711 0.011633 0.000000 0.000000 0.000000
# 4 0.000000 0.000000 0.000000 0.041408 0.000000 0.000000
# 5 0.000000 0.000000 0.000000 0.000000 0.070334 0.000000
# 6 0.000000 0.000000 0.000000 0.000000 0.000000 0.103704
#
#
# Mechanical properties :
#
#
# Convention : Reuss Voigt Hill
#
# Bulk Modulus (GPa) = 62.79164 72.03050 67.41107
# Shear Modulus (GPa) = 17.14712 20.97638 19.06175
#
# Velocity S-wave (km/s) = 2.89346 3.20027 3.05072
# Velocity P-wave (km/s) = 6.46690 6.98746 6.73222
#
# Compressibility (1/GPa) = 0.01592569
#
# Stress axis : x y z
#
# Youngs Moduli (GPa) = 50.69239 83.17549 85.96236
#
# Poissons Ratio (x) = 0.36534 0.39763
# Poissons Ratio (y) = 0.22266 0.40493
# Poissons Ratio (z) = 0.23448 0.39180
#
# Static dielectric constant tensor:
#      x y z
#    x 1.743240 0.000000 0.000000 
#    y 0.000000 1.756740 0.000000 
#    z 0.000000 0.000000 1.747080 
# 
# From -- ./inp_files/2859.got.cif
#   From: 2010.05.17/outbox.cif.g08.bks.cpg/sg21_2_cif.got.tgz:2859.got - 2010.06.03 23:14:55.
