data_PCOD9324521
_publ_section_title
;
Structure prediction by ZEFSAII (Michael W. Deem and Ramdas Pophale) SiO2 
 PCOD9324521
Probable space group: C 2 2 2
;
_chemical_formula_sum "Si O2"
_cell_formula_units_Z 48
_cell_length_a 16.168049
_cell_length_b 9.265478
_cell_length_c 16.347641
_cell_angle_alpha 90.000000
_cell_angle_beta 90.000000
_cell_angle_gamma 90.000000
_cell_volume 2448.953494
_symmetry_space_group_name_H-M "C 2 2 2"
_symmetry_group_IT_number 21
_symmetry_cell_setting 'orthorhombic'
loop_
_space_group_symop_operation_xyz
x,y,z
-x,-y,z
x,-y,-z
-x,y,-z
1/2+x,1/2+y,z
1/2-x,1/2-y,z
1/2+x,1/2-y,-z
1/2-x,1/2+y,-z
loop_
_atom_site_type_symbol
_atom_site_label
_atom_site_fract_x
_atom_site_fract_y
_atom_site_fract_z
Si Si1 0.211119 0.397938 0.219941
Si Si2 0.464788 0.350475 0.591648
Si Si3 0.822283 0.131520 0.296323
Si Si4 0.962319 0.156269 0.156425
Si Si5 0.905745 0.559359 0.912949
Si Si6 0.045840 0.650710 0.719307
O O1 0.250000 0.250000 0.185014
O O2 0.281593 0.483852 0.267312
O O3 0.158976 0.497059 0.154775
O O4 0.142704 0.365977 0.288679
O O5 0.500000 0.500000 0.627496
O O6 0.500000 0.343141 0.500000
O O7 0.368110 0.357770 0.615860
O O8 0.503808 0.220312 0.641325
O O9 0.750000 0.250000 0.290820
O O10 0.893911 0.150745 0.228420
O O11 0.920066 0.266818 0.091887
O O12 0.034234 0.245596 0.202179
O O13 0.000000 0.000000 0.132131
O O14 0.000000 0.500000 0.904410
O O15 0.875953 0.500000 0.000000
O O16 0.000000 0.500000 0.733540
#
# Coordination Sequence:
#
# PCOD9324521 Si02
#       6
#     8   8   8   8   8   8
#     4  12  21  37  63  94 123 165 221 270 330 401
#     4  10  22  41  60  88 129 172 215 266 327 401
#     4  11  21  37  64  96 123 163 220 280 330 390
#     4  11  20  39  67  89 121 171 226 267 323 415
#     4  11  23  43  64  89 133 175 216 278 340 393
#     4  11  19  38  65  88 121 165 221 268 319 405
#
# _framework density 19.600209
#
# number of rings (size 3 to 8) (size 9 to 14) (size 15 to 20)
#    0.000    1.000    5.000    5.000    0.000    0.333 
#    3.000    5.833    0.000    0.000    0.000    0.000 
#    0.000    0.000    0.000    0.000    0.000    0.000 
#
# Total GULP energy -133648.675834 kJ/mol
# GULP energy per Si atom -5568.694826 kJ/mol
# Density = 1.955560 g / cm^3
# Si number density = 19.600209 Si / 1000 Ang^3
#
#
#
# Elastic Constant Matrix: (Units=GPa)
#
#
# Indices 1 2 3 4 5 6 
#
# 1 87.6042 22.7402 32.7978 0.0000 0.0000 0.0000
# 2 22.7402 137.2439 44.7780 0.0000 0.0000 0.0000
# 3 32.7978 44.7780 83.3455 0.0000 0.0000 0.0000
# 4 0.0000 0.0000 0.0000 172.5948 0.0000 0.0000
# 5 0.0000 0.0000 0.0000 0.0000 13.3160 0.0000
# 6 0.0000 0.0000 0.0000 0.0000 0.0000 42.2863
#
#
#
# Elastic Compliance Matrix: (Units=1/GPa)
#
#
# Indices 1 2 3 4 5 6 
#
# 1 0.013429 -0.000607 -0.004958 0.000000 0.000000 0.000000
# 2 -0.000607 0.008862 -0.004522 0.000000 0.000000 0.000000
# 3 -0.004958 -0.004522 0.016379 0.000000 0.000000 0.000000
# 4 0.000000 0.000000 0.000000 0.005794 0.000000 0.000000
# 5 0.000000 0.000000 0.000000 0.000000 0.075098 0.000000
# 6 0.000000 0.000000 0.000000 0.000000 0.000000 0.023648
#
#
# Mechanical properties :
#
#
# Convention : Reuss Voigt Hill
#
# Bulk Modulus (GPa) = 54.07010 56.53617 55.30314
# Shear Modulus (GPa) = 29.48966 59.49792 44.49379
#
# Velocity S-wave (km/s) = 3.88307 5.51558 4.76969
# Velocity P-wave (km/s) = 6.91019 8.33484 7.65572
#
# Compressibility (1/GPa) = 0.01849451
#
# Stress axis : x y z
#
# Youngs Moduli (GPa) = 74.46617 112.83571 61.05352
#
# Poissons Ratio (x) = 0.06853 0.30271
# Poissons Ratio (y) = 0.04523 0.27611
# Poissons Ratio (z) = 0.36922 0.51029
#
# Static dielectric constant tensor:
#      x y z
#    x 1.701410 0.000000 0.000000 
#    y 0.000000 1.776320 0.000000 
#    z 0.000000 0.000000 1.715010 
# 
# From -- ./inp_files/36617.got.cif
#   From: 2010.05.17/outbox.cif.g08.bks.cpg/sg21_19_cif.got.tgz:36617.got - 2010.06.03 23:14:55.
