data_PCOD9324037
_publ_section_title
;
Structure prediction by ZEFSAII (Michael W. Deem and Ramdas Pophale) SiO2 
 PCOD9324037
Probable space group: C 2 2 2
;
_chemical_formula_sum "Si O2"
_cell_formula_units_Z 56
_cell_length_a 12.231173
_cell_length_b 14.846892
_cell_length_c 14.749835
_cell_angle_alpha 90.000000
_cell_angle_beta 90.000000
_cell_angle_gamma 90.000000
_cell_volume 2678.494879
_symmetry_space_group_name_H-M "C 2 2 2"
_symmetry_group_IT_number 21
_symmetry_cell_setting 'orthorhombic'
loop_
_space_group_symop_operation_xyz
x,y,z
-x,-y,z
x,-y,-z
-x,y,-z
1/2+x,1/2+y,z
1/2-x,1/2-y,z
1/2+x,1/2-y,-z
1/2-x,1/2+y,-z
loop_
_atom_site_type_symbol
_atom_site_label
_atom_site_fract_x
_atom_site_fract_y
_atom_site_fract_z
Si Si1 0.866994 0.798853 0.983005
Si Si2 0.364481 0.275610 0.635234
Si Si3 0.575694 0.373626 0.195849
Si Si4 0.372635 0.597252 0.526046
Si Si5 0.754405 0.644985 0.302397
Si Si6 0.516955 0.897029 0.392201
Si Si7 0.151822 0.071650 0.140222
O O1 0.750000 0.750000 0.009003
O O2 0.867677 0.806523 0.874565
O O3 0.849738 0.893792 0.037080
O O4 0.000000 0.772434 0.000000
O O5 0.250000 0.250000 0.677564
O O6 0.406734 0.354893 0.699448
O O7 0.338573 0.319156 0.537271
O O8 0.440162 0.187231 0.636505
O O9 0.617127 0.470343 0.161422
O O10 0.446586 0.368059 0.180197
O O11 0.322363 0.500000 0.500000
O O12 0.500000 0.592462 0.500000
O O13 0.343345 0.615890 0.629804
O O14 0.750000 0.750000 0.282842
O O15 0.861811 0.626783 0.361194
O O16 0.752487 0.594027 0.206123
O O17 0.500000 0.899783 0.500000
O O18 0.500000 0.000000 0.358370
#
# Coordination Sequence:
#
# PCOD9324037 Si02
#       7
#     8   8   8   8   8   8   8
#     4  10  21  40  66  97 132 174 221 277 354 427
#     4  12  24  39  62  86 126 170 219 272 330 405
#     4  10  21  39  63  96 127 164 221 278 347 403
#     4  11  23  37  59  88 119 159 214 275 330 386
#     4  12  23  38  63  89 125 167 223 276 335 403
#     4  11  26  43  62  90 135 186 231 279 353 428
#     4  10  21  38  66  93 125 164 218 287 337 415
#
# _framework density 20.907264000000001
#
# number of rings (size 3 to 8) (size 9 to 14) (size 15 to 20)
#    0.000    1.143    0.000    7.286    6.000    5.143 
#    0.000    0.000    0.000    0.857    0.000    0.000 
#    0.000    0.000    0.000    0.000    0.000    0.000 
#
# Total GULP energy -155871.445576 kJ/mol
# GULP energy per Si atom -5566.837342 kJ/mol
# Density = 2.085968 g / cm^3
# Si number density = 20.907264 Si / 1000 Ang^3
#
#
#
# Elastic Constant Matrix: (Units=GPa)
#
#
# Indices 1 2 3 4 5 6 
#
# 1 100.6472 27.6058 16.4286 0.0000 0.0000 0.0000
# 2 27.6058 90.6742 12.2318 0.0000 0.0000 0.0000
# 3 16.4286 12.2318 81.6817 0.0000 0.0000 0.0000
# 4 0.0000 0.0000 0.0000 29.3073 0.0000 0.0000
# 5 0.0000 0.0000 0.0000 0.0000 14.0814 0.0000
# 6 0.0000 0.0000 0.0000 0.0000 0.0000 10.4941
#
#
#
# Elastic Compliance Matrix: (Units=1/GPa)
#
#
# Indices 1 2 3 4 5 6 
#
# 1 0.011083 -0.003137 -0.001759 0.000000 0.000000 0.000000
# 2 -0.003137 0.012144 -0.001188 0.000000 0.000000 0.000000
# 3 -0.001759 -0.001188 0.012774 0.000000 0.000000 0.000000
# 4 0.000000 0.000000 0.000000 0.034121 0.000000 0.000000
# 5 0.000000 0.000000 0.000000 0.000000 0.071015 0.000000
# 6 0.000000 0.000000 0.000000 0.000000 0.000000 0.095292
#
#
# Mechanical properties :
#
#
# Convention : Reuss Voigt Hill
#
# Bulk Modulus (GPa) = 41.95784 42.83729 42.39756
# Shear Modulus (GPa) = 19.48995 25.22568 22.35781
#
# Velocity S-wave (km/s) = 3.05652 3.47731 3.27369
# Velocity P-wave (km/s) = 5.70689 6.05441 5.88322
#
# Compressibility (1/GPa) = 0.02383345
#
# Stress axis : x y z
#
# Youngs Moduli (GPa) = 90.22579 82.34689 78.28187
#
# Poissons Ratio (x) = 0.25832 0.13773
# Poissons Ratio (y) = 0.28304 0.09297
# Poissons Ratio (z) = 0.15874 0.09779
#
# Static dielectric constant tensor:
#      x y z
#    x 1.793740 0.000000 0.000000 
#    y 0.000000 1.899680 0.000000 
#    z 0.000000 0.000000 1.893740 
# 
# From -- ./inp_files/31588.got.cif
#   From: 2010.05.17/outbox.cif.g08.bks.cpg/sg21_16_cif.got.tgz:31588.got - 2010.06.03 23:14:55.
