data_PCOD9324791
_publ_section_title
;
Structure prediction by ZEFSAII (Michael W. Deem and Ramdas Pophale) SiO2 
 PCOD9324791
Probable space group: C 2 2 2
;
_chemical_formula_sum "Si O2"
_cell_formula_units_Z 26
_cell_length_a 15.126211
_cell_length_b 14.301392
_cell_length_c 5.120108
_cell_angle_alpha 90.000000
_cell_angle_beta 90.000000
_cell_angle_gamma 90.000000
_cell_volume 1107.611833
_symmetry_space_group_name_H-M "C 2 2 2"
_symmetry_group_IT_number 21
_symmetry_cell_setting 'orthorhombic'
loop_
_space_group_symop_operation_xyz
x,y,z
-x,-y,z
x,-y,-z
-x,y,-z
1/2+x,1/2+y,z
1/2-x,1/2-y,z
1/2+x,1/2-y,-z
1/2-x,1/2+y,-z
loop_
_atom_site_type_symbol
_atom_site_label
_atom_site_fract_x
_atom_site_fract_y
_atom_site_fract_z
Si Si1 0.658084 0.085326 0.805651
Si Si2 0.103042 0.790757 0.940220
Si Si3 0.195392 0.154570 0.563837
Si Si4 0.500000 0.000000 0.500000
O O1 0.732598 0.091705 0.583558
O O2 0.563980 0.063363 0.673339
O O3 0.647045 0.186607 0.942579
O O4 0.676414 0.000000 0.000000
O O5 0.151483 0.856900 0.153444
O O6 0.119292 0.829801 0.651117
O O7 0.000000 0.782515 0.000000
O O8 0.250000 0.250000 0.584617
#
# Coordination Sequence:
#
# PCOD9324791 Si02
#       4
#     8   8   8   2
#     4  11  26  42  67 107 151 186 236 293 380 436
#     4  11  23  41  68  99 139 184 242 289 343 420
#     4  10  23  40  65  96 141 187 231 285 349 423
#     4  12  26  40  72 106 154 188 228 300 386 440
#
# _framework density 23.473928000000001
#
# number of rings (size 3 to 8) (size 9 to 14) (size 15 to 20)
#    0.000    1.231    0.000    6.000   21.538    0.000 
#    0.000    0.000    0.000    0.923    0.000    0.000 
#    0.000    0.000    0.000    0.000    0.000    0.000 
#
# Total GULP energy -72742.181583 kJ/mol
# GULP energy per Si atom -5595.552429 kJ/mol
# Density = 2.342050 g / cm^3
# Si number density = 23.473928 Si / 1000 Ang^3
#
#
#
# Elastic Constant Matrix: (Units=GPa)
#
#
# Indices 1 2 3 4 5 6 
#
# 1 118.5603 41.0671 39.1781 0.0000 0.0000 0.0000
# 2 41.0671 64.6362 27.4644 0.0000 0.0000 0.0000
# 3 39.1781 27.4644 132.6229 0.0000 0.0000 0.0000
# 4 0.0000 0.0000 0.0000 5.1294 0.0000 0.0000
# 5 0.0000 0.0000 0.0000 0.0000 52.2244 0.0000
# 6 0.0000 0.0000 0.0000 0.0000 0.0000 35.0051
#
#
#
# Elastic Compliance Matrix: (Units=1/GPa)
#
#
# Indices 1 2 3 4 5 6 
#
# 1 0.011291 -0.006312 -0.002028 0.000000 0.000000 0.000000
# 2 -0.006312 0.020493 -0.002379 0.000000 0.000000 0.000000
# 3 -0.002028 -0.002379 0.008632 0.000000 0.000000 0.000000
# 4 0.000000 0.000000 0.000000 0.194954 0.000000 0.000000
# 5 0.000000 0.000000 0.000000 0.000000 0.019148 0.000000
# 6 0.000000 0.000000 0.000000 0.000000 0.000000 0.028567
#
#
# Mechanical properties :
#
#
# Convention : Reuss Voigt Hill
#
# Bulk Modulus (GPa) = 52.69621 59.02654 55.86138
# Shear Modulus (GPa) = 16.08492 32.34577 24.21535
#
# Velocity S-wave (km/s) = 2.62052 3.71609 3.21531
# Velocity P-wave (km/s) = 5.62616 6.60399 6.13459
#
# Compressibility (1/GPa) = 0.01897670
#
# Stress axis : x y z
#
# Youngs Moduli (GPa) = 88.56460 48.79828 115.84725
#
# Poissons Ratio (x) = 0.30802 0.23498
# Poissons Ratio (y) = 0.55903 0.27561
# Poissons Ratio (z) = 0.17964 0.11609
#
# Static dielectric constant tensor:
#      x y z
#    x 1.866630 0.000000 0.000000 
#    y 0.000000 1.743330 0.000000 
#    z 0.000000 0.000000 1.907870 
# 
# From -- ./inp_files/3243.got.cif
#   From: 2010.05.17/outbox.cif.g08.bks.cpg/sg21_2_cif.got.tgz:3243.got - 2010.06.03 23:14:55.
