data_PCOD9324484
_publ_section_title
;
Structure prediction by ZEFSAII (Michael W. Deem and Ramdas Pophale) SiO2 
 PCOD9324484
Probable space group: C 2 2 2
;
_chemical_formula_sum "Si O2"
_cell_formula_units_Z 28
_cell_length_a 25.535523
_cell_length_b 8.451261
_cell_length_c 5.737971
_cell_angle_alpha 90.000000
_cell_angle_beta 90.000000
_cell_angle_gamma 90.000000
_cell_volume 1238.296429
_symmetry_space_group_name_H-M "C 2 2 2"
_symmetry_group_IT_number 21
_symmetry_cell_setting 'orthorhombic'
loop_
_space_group_symop_operation_xyz
x,y,z
-x,-y,z
x,-y,-z
-x,y,-z
1/2+x,1/2+y,z
1/2-x,1/2-y,z
1/2+x,1/2-y,-z
1/2-x,1/2+y,-z
loop_
_atom_site_type_symbol
_atom_site_label
_atom_site_fract_x
_atom_site_fract_y
_atom_site_fract_z
Si Si1 0.750000 0.750000 0.164475
Si Si2 0.348909 0.677162 0.105332
Si Si3 0.000000 0.000000 0.500000
Si Si4 0.500000 0.000000 0.500000
Si Si5 0.951250 0.748328 0.169860
Si Si6 0.801066 0.000000 0.500000
O O1 0.764702 0.901436 0.322449
O O2 0.700044 0.772148 0.998561
O O3 0.337090 0.633976 0.374191
O O4 0.348764 0.500000 0.000000
O O5 0.401010 0.751123 0.996461
O O6 0.038833 0.100953 0.336366
O O7 0.461300 0.101936 0.339408
O O8 0.000000 0.750327 0.000000
#
# Coordination Sequence:
#
# PCOD9324484 Si02
#       6
#     4   8   2   2   8   4
#     4  10  22  40  64  96 132 170 218 266 324 388
#     4  10  22  40  65  97 131 170 219 268 322 389
#     4  10  22  40  68  98 124 170 222 276 328 374
#     4  10  26  44  60  94 140 172 210 266 336 390
#     4  11  23  42  66  96 131 170 218 270 326 393
#     4  10  22  42  66  97 132 170 216 275 326 380
#
# _framework density 22.611711
#
# number of rings (size 3 to 8) (size 9 to 14) (size 15 to 20)
#    0.000    1.714    0.000    3.429    0.000   16.000 
#    0.000   11.429    0.000    0.000    0.000    0.000 
#    0.000    0.000    0.000    0.000    0.000    0.000 
#
# Total GULP energy -78189.268736 kJ/mol
# GULP energy per Si atom -5584.947767 kJ/mol
# Density = 2.256025 g / cm^3
# Si number density = 22.611711 Si / 1000 Ang^3
#
#
#
# Elastic Constant Matrix: (Units=GPa)
#
#
# Indices 1 2 3 4 5 6 
#
# 1 222.6606 47.6723 88.8011 0.0000 0.0000 0.0000
# 2 47.6723 82.3870 55.9736 0.0000 0.0000 0.0000
# 3 88.8011 55.9736 144.1466 0.0000 0.0000 0.0000
# 4 0.0000 0.0000 0.0000 166.1392 0.0000 0.0000
# 5 0.0000 0.0000 0.0000 0.0000 21.2204 0.0000
# 6 0.0000 0.0000 0.0000 0.0000 0.0000 12.5194
#
#
#
# Elastic Compliance Matrix: (Units=1/GPa)
#
#
# Indices 1 2 3 4 5 6 
#
# 1 0.006057 -0.001317 -0.003220 0.000000 0.000000 0.000000
# 2 -0.001317 0.016774 -0.005702 0.000000 0.000000 0.000000
# 3 -0.003220 -0.005702 0.011135 0.000000 0.000000 0.000000
# 4 0.000000 0.000000 0.000000 0.006019 0.000000 0.000000
# 5 0.000000 0.000000 0.000000 0.000000 0.047124 0.000000
# 6 0.000000 0.000000 0.000000 0.000000 0.000000 0.079876
#
#
# Mechanical properties :
#
#
# Convention : Reuss Voigt Hill
#
# Bulk Modulus (GPa) = 74.14089 92.67650 83.40869
# Shear Modulus (GPa) = 26.04692 57.09226 41.56959
#
# Velocity S-wave (km/s) = 3.39768 5.03029 4.29232
# Velocity P-wave (km/s) = 6.94638 8.64948 7.84429
#
# Compressibility (1/GPa) = 0.01348783
#
# Stress axis : x y z
#
# Youngs Moduli (GPa) = 165.08646 59.61604 89.80463
#
# Poissons Ratio (x) = 0.07853 0.28918
# Poissons Ratio (y) = 0.21747 0.51207
# Poissons Ratio (z) = 0.53160 0.33993
#
# Static dielectric constant tensor:
#      x y z
#    x 2.033140 0.000000 0.000000 
#    y 0.000000 1.853760 0.000000 
#    z 0.000000 0.000000 1.969950 
# 
# From -- ./inp_files/7676.got.cif
#   From: 2010.05.17/outbox.cif.g08.bks.cpg/sg21_4_cif.got.tgz:7676.got - 2010.06.03 23:14:55.
