data_PCOD9324713
_publ_section_title
;
Structure prediction by ZEFSAII (Michael W. Deem and Ramdas Pophale) SiO2 
 PCOD9324713
Probable space group: C 2 2 2
;
_chemical_formula_sum "Si O2"
_cell_formula_units_Z 60
_cell_length_a 5.615372
_cell_length_b 18.413275
_cell_length_c 28.352737
_cell_angle_alpha 90.000000
_cell_angle_beta 90.000000
_cell_angle_gamma 90.000000
_cell_volume 2931.598973
_symmetry_space_group_name_H-M "C 2 2 2"
_symmetry_group_IT_number 21
_symmetry_cell_setting 'orthorhombic'
loop_
_space_group_symop_operation_xyz
x,y,z
-x,-y,z
x,-y,-z
-x,y,-z
1/2+x,1/2+y,z
1/2-x,1/2-y,z
1/2+x,1/2-y,-z
1/2-x,1/2+y,-z
loop_
_atom_site_type_symbol
_atom_site_label
_atom_site_fract_x
_atom_site_fract_y
_atom_site_fract_z
Si Si1 0.000587 0.295650 0.448327
Si Si2 0.845387 0.574050 0.141540
Si Si3 0.274759 0.174002 0.880148
Si Si4 0.750000 0.750000 0.275875
Si Si5 0.601210 0.174597 0.346297
Si Si6 0.493072 0.415107 0.052436
Si Si7 0.250369 0.544883 0.283721
Si Si8 0.006546 0.864918 0.208877
O O1 0.250000 0.250000 0.445494
O O2 0.000000 0.332852 0.500000
O O3 0.750000 0.250000 0.448877
O O4 0.987891 0.339453 0.399483
O O5 0.716858 0.589602 0.091215
O O6 0.670982 0.574813 0.186494
O O7 0.000000 0.500000 0.140692
O O8 0.994181 0.647702 0.146488
O O9 0.250000 0.250000 0.905438
O O10 0.217366 0.113004 0.918275
O O11 0.085751 0.175880 0.838290
O O12 0.605092 0.804161 0.309756
O O13 0.903553 0.804344 0.243658
O O14 0.750000 0.250000 0.347590
O O15 0.734481 0.105034 0.325259
O O16 0.500000 0.500000 0.045692
O O17 0.500000 0.381212 0.000000
O O18 0.500000 0.500000 0.288654
O O19 0.286250 0.592179 0.236098
O O20 0.000000 0.500000 0.283252
#
# Coordination Sequence:
#
# PCOD9324713 Si02
#       8
#     8   8   8   4   8   8   8   8
#     4   9  18  34  61  99 135 172 226 298 363 415
#     4  11  24  43  70  92 128 174 216 272 331 404
#     4  11  25  43  64  98 127 164 209 266 334 394
#     4  12  22  42  66 100 136 186 234 290 348 408
#     4  11  23  41  67  97 138 182 239 292 354 417
#     4  10  22  45  68  96 124 157 217 266 324 403
#     4  12  29  45  64 100 142 190 235 289 349 415
#     4  11  27  39  65  94 133 176 227 271 332 409
#
# _framework density 20.466646000000001
#
# number of rings (size 3 to 8) (size 9 to 14) (size 15 to 20)
#    0.000    1.200    3.333    1.600    7.467    2.133 
#    2.400    0.000    0.000    0.400    0.000    2.800 
#    0.000    0.000    0.000    0.000    0.000    0.000 
#
# Total GULP energy -167095.911495 kJ/mol
# GULP energy per Si atom -5569.863716 kJ/mol
# Density = 2.042006 g / cm^3
# Si number density = 20.466646 Si / 1000 Ang^3
#
#
#
# Elastic Constant Matrix: (Units=GPa)
#
#
# Indices 1 2 3 4 5 6 
#
# 1 85.7015 28.5075 29.4985 0.0000 0.0000 0.0000
# 2 28.5075 83.5418 26.9125 0.0000 0.0000 0.0000
# 3 29.4985 26.9125 155.5901 0.0000 0.0000 0.0000
# 4 0.0000 0.0000 0.0000 -2.7135 0.0000 0.0000
# 5 0.0000 0.0000 0.0000 0.0000 25.2980 0.0000
# 6 0.0000 0.0000 0.0000 0.0000 0.0000 25.2446
#
#
#
# Elastic Compliance Matrix: (Units=1/GPa)
#
#
# Indices 1 2 3 4 5 6 
#
# 1 0.013668 -0.004055 -0.001890 0.000000 0.000000 0.000000
# 2 -0.004055 0.013880 -0.001632 0.000000 0.000000 0.000000
# 3 -0.001890 -0.001632 0.007068 0.000000 0.000000 0.000000
# 4 0.000000 0.000000 0.000000 -0.368528 0.000000 0.000000
# 5 0.000000 0.000000 0.000000 0.000000 0.039529 0.000000
# 6 0.000000 0.000000 0.000000 0.000000 0.000000 0.039612
#
#
# Mechanical properties :
#
#
# Convention : Reuss Voigt Hill
#
# Bulk Modulus (GPa) = 51.38438 54.96337 53.17388
# Shear Modulus (GPa) = -21.44714 25.56015 2.05651
#
# Velocity S-wave (km/s) = -3.24065 3.53777 1.00349
# Velocity P-wave (km/s) = 3.34043 6.60311 5.23257
#
# Compressibility (1/GPa) = 0.01946117
#
# Stress axis : x y z
#
# Youngs Moduli (GPa) = 73.16469 72.04856 141.48831
#
# Poissons Ratio (x) = 0.29217 0.26739
# Poissons Ratio (y) = 0.29669 0.23090
# Poissons Ratio (z) = 0.13827 0.11758
#
# Static dielectric constant tensor:
#      x y z
#    x 1.868860 0.000000 0.000000 
#    y 0.000000 1.756790 0.000000 
#    z 0.000000 0.000000 1.776060 
# 
# From -- ./inp_files/39143.got.cif
#   From: 2010.05.17/outbox.cif.g08.bks.cpg/sg21_20_cif.got.tgz:39143.got - 2010.06.03 23:14:55.
