data_PCOD9324830
_publ_section_title
;
Structure prediction by ZEFSAII (Michael W. Deem and Ramdas Pophale) SiO2 
 PCOD9324830
Probable space group: C 2 2 2
;
_chemical_formula_sum "Si O2"
_cell_formula_units_Z 40
_cell_length_a 8.482298
_cell_length_b 15.676486
_cell_length_c 14.040584
_cell_angle_alpha 90.000000
_cell_angle_beta 90.000000
_cell_angle_gamma 90.000000
_cell_volume 1867.013323
_symmetry_space_group_name_H-M "C 2 2 2"
_symmetry_group_IT_number 21
_symmetry_cell_setting 'orthorhombic'
loop_
_space_group_symop_operation_xyz
x,y,z
-x,-y,z
x,-y,-z
-x,y,-z
1/2+x,1/2+y,z
1/2-x,1/2-y,z
1/2+x,1/2-y,-z
1/2-x,1/2+y,-z
loop_
_atom_site_type_symbol
_atom_site_label
_atom_site_fract_x
_atom_site_fract_y
_atom_site_fract_z
Si Si1 0.996341 0.720420 0.783404
Si Si2 0.000000 0.000000 0.166737
Si Si3 0.189691 0.600269 0.516785
Si Si4 0.750000 0.250000 0.050616
Si Si5 0.250000 0.250000 0.618604
Si Si6 0.500000 0.629498 0.000000
Si Si7 0.722067 0.380137 0.736044
O O1 0.112691 0.640608 0.785489
O O2 0.101964 0.804954 0.766375
O O3 0.887666 0.720840 0.876921
O O4 0.887451 0.721346 0.690116
O O5 0.960166 0.074899 0.092980
O O6 0.142983 0.031981 0.231228
O O7 0.224057 0.500000 0.500000
O O8 0.277686 0.667411 0.447739
O O9 0.241307 0.621670 0.624103
O O10 0.000000 0.611898 0.500000
O O11 0.658720 0.316802 0.985226
#
# Coordination Sequence:
#
# PCOD9324830 Si02
#       7
#     8   4   8   4   4   4   8
#     4  10  23  42  73 103 136 194 245 298 370 440
#     4  11  26  46  71 104 138 184 233 318 380 435
#     4  11  25  42  66 104 147 201 253 305 363 433
#     4  11  24  44  75 106 134 184 241 296 378 465
#     4  11  22  44  65 100 146 194 251 304 356 435
#     4  11  26  48  76 101 144 176 244 307 376 464
#     4  11  23  44  69 101 146 189 245 303 367 438
#
# _framework density 21.424590999999999
#
# number of rings (size 3 to 8) (size 9 to 14) (size 15 to 20)
#    0.000    1.200    4.000    1.200    5.600    0.000 
#    0.000    0.000    0.000    0.000    0.000    0.000 
#    0.000    0.000    0.000    0.000    0.000    0.000 
#
# Total GULP energy -111723.895218 kJ/mol
# GULP energy per Si atom -5586.194761 kJ/mol
# Density = 2.137583 g / cm^3
# Si number density = 21.424591 Si / 1000 Ang^3
#
#
#
# Elastic Constant Matrix: (Units=GPa)
#
#
# Indices 1 2 3 4 5 6 
#
# 1 116.4311 46.0952 50.9672 0.0000 0.0000 0.0000
# 2 46.0952 87.8379 32.8092 0.0000 0.0000 0.0000
# 3 50.9672 32.8092 124.8929 0.0000 0.0000 0.0000
# 4 0.0000 0.0000 0.0000 37.0446 0.0000 0.0000
# 5 0.0000 0.0000 0.0000 0.0000 36.3261 0.0000
# 6 0.0000 0.0000 0.0000 0.0000 0.0000 38.8899
#
#
#
# Elastic Compliance Matrix: (Units=1/GPa)
#
#
# Indices 1 2 3 4 5 6 
#
# 1 0.012176 -0.005027 -0.003648 0.000000 0.000000 0.000000
# 2 -0.005027 0.014699 -0.001810 0.000000 0.000000 0.000000
# 3 -0.003648 -0.001810 0.009971 0.000000 0.000000 0.000000
# 4 0.000000 0.000000 0.000000 0.026995 0.000000 0.000000
# 5 0.000000 0.000000 0.000000 0.000000 0.027528 0.000000
# 6 0.000000 0.000000 0.000000 0.000000 0.000000 0.025714
#
#
# Mechanical properties :
#
#
# Convention : Reuss Voigt Hill
#
# Bulk Modulus (GPa) = 62.99004 65.43389 64.21196
# Shear Modulus (GPa) = 34.88104 35.73813 35.30958
#
# Velocity S-wave (km/s) = 4.03933 4.08866 4.06407
# Velocity P-wave (km/s) = 7.15678 7.27305 7.21515
#
# Compressibility (1/GPa) = 0.01587553
#
# Stress axis : x y z
#
# Youngs Moduli (GPa) = 82.12905 68.03350 100.28948
#
# Poissons Ratio (x) = 0.34200 0.36588
# Poissons Ratio (y) = 0.41286 0.18151
# Poissons Ratio (z) = 0.29963 0.12313
#
# Static dielectric constant tensor:
#      x y z
#    x 1.754390 0.000000 0.000000 
#    y 0.000000 1.841530 0.000000 
#    z 0.000000 0.000000 1.780180 
# 
# From -- ./inp_files/30279.got.cif
#   From: 2010.05.17/outbox.cif.g08.bks.cpg/sg21_16_cif.got.tgz:30279.got - 2010.06.03 23:14:55.
