data_PCOD9324668
_publ_section_title
;
Structure prediction by ZEFSAII (Michael W. Deem and Ramdas Pophale) SiO2 
 PCOD9324668
Probable space group: C 2 2 2
;
_chemical_formula_sum "Si O2"
_cell_formula_units_Z 64
_cell_length_a 9.609045
_cell_length_b 30.401469
_cell_length_c 11.456078
_cell_angle_alpha 90.000000
_cell_angle_beta 90.000000
_cell_angle_gamma 90.000000
_cell_volume 3346.653569
_symmetry_space_group_name_H-M "C 2 2 2"
_symmetry_group_IT_number 21
_symmetry_cell_setting 'orthorhombic'
loop_
_space_group_symop_operation_xyz
x,y,z
-x,-y,z
x,-y,-z
-x,y,-z
1/2+x,1/2+y,z
1/2-x,1/2-y,z
1/2+x,1/2-y,-z
1/2-x,1/2+y,-z
loop_
_atom_site_type_symbol
_atom_site_label
_atom_site_fract_x
_atom_site_fract_y
_atom_site_fract_z
Si Si1 0.725246 0.109691 0.757729
Si Si2 0.659206 0.645312 0.023016
Si Si3 0.004703 0.329915 0.636866
Si Si4 0.513766 0.052343 0.138067
Si Si5 0.760050 0.616505 0.771083
Si Si6 0.481450 0.637784 0.636842
Si Si7 0.906788 0.761440 0.299866
Si Si8 0.857275 0.279096 0.948261
O O1 0.627372 0.149820 0.707489
O O2 0.611593 0.073110 0.787156
O O3 0.845890 0.108345 0.662069
O O4 0.820317 0.109540 0.876662
O O5 0.724043 0.635252 0.898512
O O6 0.500000 0.657774 0.000000
O O7 0.759732 0.680857 0.081334
O O8 0.136921 0.351244 0.700615
O O9 0.000000 0.341955 0.500000
O O10 0.003110 0.276875 0.646976
O O11 0.653809 0.072181 0.197103
O O12 0.500000 0.000000 0.140766
O O13 0.500000 0.066312 0.000000
O O14 0.615926 0.616940 0.699861
O O15 0.500000 0.641738 0.500000
O O16 0.451647 0.688132 0.682105
O O17 0.750000 0.750000 0.344247
O O18 0.901079 0.749682 0.162482
O O19 0.750000 0.250000 0.025629
O O20 0.000000 0.295327 0.000000
#
# Coordination Sequence:
#
# PCOD9324668 Si02
#       8
#     8   8   8   8   8   8   8   8
#     4  11  21  41  66  92 131 172 201 268 328 387
#     4  12  22  38  60  91 130 171 213 259 330 384
#     4  11  22  40  61  86 125 175 229 272 314 367
#     4  10  22  43  73 105 132 157 196 258 332 412
#     4  11  25  38  67  96 127 165 218 262 325 393
#     4  12  25  43  64  91 129 180 227 270 314 373
#     4  11  22  39  56  84 122 174 226 270 321 348
#     4  11  23  35  54  82 124 171 220 275 326 374
#
# _framework density 19.123581000000001
#
# number of rings (size 3 to 8) (size 9 to 14) (size 15 to 20)
#    0.000    0.875    5.000    3.000    3.500    0.500 
#    0.000    0.625    0.000   16.500    0.000    0.000 
#    0.000    0.000    0.000    0.000    0.000    0.000 
#
# Total GULP energy -178230.303439 kJ/mol
# GULP energy per Si atom -5569.696982 kJ/mol
# Density = 1.908005 g / cm^3
# Si number density = 19.123581 Si / 1000 Ang^3
#
#
#
# Elastic Constant Matrix: (Units=GPa)
#
#
# Indices 1 2 3 4 5 6 
#
# 1 145.6961 41.8599 41.3777 0.0000 0.0000 0.0000
# 2 41.8599 74.4702 35.2789 0.0000 0.0000 0.0000
# 3 41.3777 35.2789 107.7233 0.0000 0.0000 0.0000
# 4 0.0000 0.0000 0.0000 13.2851 0.0000 0.0000
# 5 0.0000 0.0000 0.0000 0.0000 28.4541 0.0000
# 6 0.0000 0.0000 0.0000 0.0000 0.0000 14.8497
#
#
#
# Elastic Compliance Matrix: (Units=1/GPa)
#
#
# Indices 1 2 3 4 5 6 
#
# 1 0.008542 -0.003844 -0.002022 0.000000 0.000000 0.000000
# 2 -0.003844 0.017623 -0.004295 0.000000 0.000000 0.000000
# 3 -0.002022 -0.004295 0.011467 0.000000 0.000000 0.000000
# 4 0.000000 0.000000 0.000000 0.075273 0.000000 0.000000
# 5 0.000000 0.000000 0.000000 0.000000 0.035144 0.000000
# 6 0.000000 0.000000 0.000000 0.000000 0.000000 0.067341
#
#
# Mechanical properties :
#
#
# Convention : Reuss Voigt Hill
#
# Bulk Modulus (GPa) = 57.77071 62.76919 60.26995
# Shear Modulus (GPa) = 20.70540 25.27597 22.99069
#
# Velocity S-wave (km/s) = 3.29403 3.63949 3.47106
# Velocity P-wave (km/s) = 6.68897 7.11023 6.90281
#
# Compressibility (1/GPa) = 0.01730981
#
# Stress axis : x y z
#
# Youngs Moduli (GPa) = 117.06507 56.74255 87.21013
#
# Poissons Ratio (x) = 0.21809 0.17638
# Poissons Ratio (y) = 0.44994 0.37459
# Poissons Ratio (z) = 0.23676 0.24372
#
# Static dielectric constant tensor:
#      x y z
#    x 1.717400 0.000000 0.000000 
#    y 0.000000 1.801470 0.000000 
#    z 0.000000 0.000000 1.694010 
# 
# From -- ./inp_files/23124.got.cif
#   From: 2010.05.17/outbox.cif.g08.bks.cpg/sg21_12_cif.got.tgz:23124.got - 2010.06.03 23:14:55.
