data_PCOD9324411
_publ_section_title
;
Structure prediction by ZEFSAII (Michael W. Deem and Ramdas Pophale) SiO2 
 PCOD9324411
Probable space group: C 2 2 2
;
_chemical_formula_sum "Si O2"
_cell_formula_units_Z 64
_cell_length_a 8.541245
_cell_length_b 18.739297
_cell_length_c 19.365540
_cell_angle_alpha 90.000000
_cell_angle_beta 90.000000
_cell_angle_gamma 90.000000
_cell_volume 3099.588818
_symmetry_space_group_name_H-M "C 2 2 2"
_symmetry_group_IT_number 21
_symmetry_cell_setting 'orthorhombic'
loop_
_space_group_symop_operation_xyz
x,y,z
-x,-y,z
x,-y,-z
-x,y,-z
1/2+x,1/2+y,z
1/2-x,1/2-y,z
1/2+x,1/2-y,-z
1/2-x,1/2+y,-z
loop_
_atom_site_type_symbol
_atom_site_label
_atom_site_fract_x
_atom_site_fract_y
_atom_site_fract_z
Si Si1 0.799663 0.332771 0.569586
Si Si2 0.397842 0.294692 0.200339
Si Si3 0.711445 0.059358 0.791791
Si Si4 0.851498 0.142554 0.277947
Si Si5 0.830231 0.672081 0.585823
Si Si6 0.369662 0.089603 0.836263
Si Si7 0.076111 0.281767 0.925377
Si Si8 0.612523 0.552977 0.341600
O O1 0.750000 0.250000 0.573390
O O2 0.790020 0.358759 0.489785
O O3 0.689038 0.383616 0.614543
O O4 0.982339 0.332368 0.590821
O O5 0.250000 0.250000 0.225027
O O6 0.325555 0.374591 0.188020
O O7 0.531458 0.292745 0.259581
O O8 0.470855 0.259155 0.131999
O O9 0.532937 0.085442 0.795022
O O10 0.753547 0.032869 0.714181
O O11 0.704993 0.989477 0.840924
O O12 0.747648 0.141525 0.345808
O O13 0.750344 0.133553 0.210151
O O14 0.976121 0.080663 0.290787
O O15 0.750000 0.750000 0.583033
O O16 0.407577 0.135172 0.903743
O O17 0.250000 0.250000 0.925002
O O18 0.000000 0.273905 0.000000
O O19 0.500000 0.500000 0.385339
#
# Coordination Sequence:
#
# PCOD9324411 Si02
#       8
#     8   8   8   8   8   8   8   8
#     4  10  22  43  61  94 133 186 235 297 364 432
#     4  11  23  42  68 103 139 176 228 282 348 410
#     4  10  23  40  68  98 138 177 223 292 339 408
#     4  11  23  37  64  96 131 172 230 285 350 409
#     4  10  22  38  65  92 135 178 238 302 361 421
#     4  11  22  43  68 101 135 177 229 280 344 411
#     4  12  26  46  74 103 142 187 224 279 343 419
#     4  11  22  40  64  96 134 181 229 289 359 424
#
# _framework density 20.647898999999999
#
# number of rings (size 3 to 8) (size 9 to 14) (size 15 to 20)
#    0.000    1.250    3.750    1.875    1.750    5.500 
#    0.000    2.500    0.000    2.250    0.000    0.000 
#    0.000    0.000    0.000    0.000    0.000    0.000 
#
# Total GULP energy -178319.531400 kJ/mol
# GULP energy per Si atom -5572.485356 kJ/mol
# Density = 2.060090 g / cm^3
# Si number density = 20.647899 Si / 1000 Ang^3
#
#
#
# Elastic Constant Matrix: (Units=GPa)
#
#
# Indices 1 2 3 4 5 6 
#
# 1 106.9242 33.3036 38.5984 0.0000 0.0000 0.0000
# 2 33.3036 90.9039 23.8455 0.0000 0.0000 0.0000
# 3 38.5984 23.8455 59.7330 0.0000 0.0000 0.0000
# 4 0.0000 0.0000 0.0000 -1.3721 0.0000 0.0000
# 5 0.0000 0.0000 0.0000 0.0000 32.9290 0.0000
# 6 0.0000 0.0000 0.0000 0.0000 0.0000 46.4730
#
#
#
# Elastic Compliance Matrix: (Units=1/GPa)
#
#
# Indices 1 2 3 4 5 6 
#
# 1 0.012813 -0.002817 -0.007155 0.000000 0.000000 0.000000
# 2 -0.002817 0.012907 -0.003332 0.000000 0.000000 0.000000
# 3 -0.007155 -0.003332 0.022695 0.000000 0.000000 0.000000
# 4 0.000000 0.000000 0.000000 -0.728818 0.000000 0.000000
# 5 0.000000 0.000000 0.000000 0.000000 0.030368 0.000000
# 6 0.000000 0.000000 0.000000 0.000000 0.000000 0.021518
#
#
# Mechanical properties :
#
#
# Convention : Reuss Voigt Hill
#
# Bulk Modulus (GPa) = 45.85848 49.89512 47.87680
# Shear Modulus (GPa) = -8.40843 26.39357 8.99257
#
# Velocity S-wave (km/s) = -2.02018 3.57917 2.08918
# Velocity P-wave (km/s) = 4.10079 6.42634 5.39047
#
# Compressibility (1/GPa) = 0.02180622
#
# Stress axis : x y z
#
# Youngs Moduli (GPa) = 78.04774 77.47867 44.06350
#
# Poissons Ratio (x) = 0.21828 0.31526
# Poissons Ratio (y) = 0.21988 0.14682
# Poissons Ratio (z) = 0.55841 0.25815
#
# Static dielectric constant tensor:
#      x y z
#    x 1.746540 0.000000 0.000000 
#    y 0.000000 1.934200 0.000000 
#    z 0.000000 0.000000 1.737720 
# 
# From -- ./inp_files/35915.got.cif
#   From: 2010.05.17/outbox.cif.g08.bks.cpg/sg21_18_cif.got.tgz:35915.got - 2010.06.03 23:14:55.
