data_PCOD9324497
_publ_section_title
;
Structure prediction by ZEFSAII (Michael W. Deem and Ramdas Pophale) SiO2 
 PCOD9324497
Probable space group: C 2 2 2
;
_chemical_formula_sum "Si O2"
_cell_formula_units_Z 32
_cell_length_a 7.342981
_cell_length_b 19.918481
_cell_length_c 8.902090
_cell_angle_alpha 90.000000
_cell_angle_beta 90.000000
_cell_angle_gamma 90.000000
_cell_volume 1302.028831
_symmetry_space_group_name_H-M "C 2 2 2"
_symmetry_group_IT_number 21
_symmetry_cell_setting 'orthorhombic'
loop_
_space_group_symop_operation_xyz
x,y,z
-x,-y,z
x,-y,-z
-x,y,-z
1/2+x,1/2+y,z
1/2-x,1/2-y,z
1/2+x,1/2-y,-z
1/2-x,1/2+y,-z
loop_
_atom_site_type_symbol
_atom_site_label
_atom_site_fract_x
_atom_site_fract_y
_atom_site_fract_z
Si Si1 0.198261 0.176655 0.952479
Si Si2 0.656219 0.093571 0.798568
Si Si3 0.491236 0.344623 0.659592
Si Si4 0.211020 0.540017 0.342518
O O1 0.250000 0.250000 0.013877
O O2 0.147558 0.187429 0.778650
O O3 0.327019 0.123089 0.033350
O O4 0.000000 0.151744 0.000000
O O5 0.461121 0.086219 0.712513
O O6 0.802239 0.141001 0.712348
O O7 0.726776 0.017320 0.783990
O O8 0.500000 0.308900 0.500000
O O9 0.389836 0.416092 0.640158
O O10 0.185013 0.500000 0.500000
#
# Coordination Sequence:
#
# PCOD9324497 Si02
#       4
#     8   8   8   8
#     4  10  25  47  70  98 140 189 246 306 351 415
#     4  10  22  40  66 103 139 182 232 286 360 422
#     4  11  23  40  69 101 139 187 228 288 366 431
#     4  11  22  37  72 107 147 186 227 293 366 436
#
# _framework density 24.577029
#
# number of rings (size 3 to 8) (size 9 to 14) (size 15 to 20)
#    0.000    1.500    2.500    2.250    3.500    1.000 
#    0.000   11.250    0.000    0.000    0.000    0.000 
#    0.000    0.000    0.000    0.000    0.000    0.000 
#
# Total GULP energy -89101.199851 kJ/mol
# GULP energy per Si atom -5568.824991 kJ/mol
# Density = 2.452109 g / cm^3
# Si number density = 24.577029 Si / 1000 Ang^3
#
#
#
# Elastic Constant Matrix: (Units=GPa)
#
#
# Indices 1 2 3 4 5 6 
#
# 1 148.7520 29.8478 54.0943 0.0000 0.0000 0.0000
# 2 29.8478 60.3620 38.8676 0.0000 0.0000 0.0000
# 3 54.0943 38.8676 151.2721 0.0000 0.0000 0.0000
# 4 0.0000 0.0000 0.0000 21.4335 0.0000 0.0000
# 5 0.0000 0.0000 0.0000 0.0000 19.2398 0.0000
# 6 0.0000 0.0000 0.0000 0.0000 0.0000 14.4377
#
#
#
# Elastic Compliance Matrix: (Units=1/GPa)
#
#
# Indices 1 2 3 4 5 6 
#
# 1 0.008041 -0.002546 -0.002221 0.000000 0.000000 0.000000
# 2 -0.002546 0.020657 -0.004397 0.000000 0.000000 0.000000
# 3 -0.002221 -0.004397 0.008535 0.000000 0.000000 0.000000
# 4 0.000000 0.000000 0.000000 0.046656 0.000000 0.000000
# 5 0.000000 0.000000 0.000000 0.000000 0.051976 0.000000
# 6 0.000000 0.000000 0.000000 0.000000 0.000000 0.069263
#
#
# Mechanical properties :
#
#
# Convention : Reuss Voigt Hill
#
# Bulk Modulus (GPa) = 52.89849 67.33395 60.11622
# Shear Modulus (GPa) = 21.76204 26.86063 24.31133
#
# Velocity S-wave (km/s) = 2.97890 3.30951 3.14855
# Velocity P-wave (km/s) = 5.77945 6.48540 6.14258
#
# Compressibility (1/GPa) = 0.01890413
#
# Stress axis : x y z
#
# Youngs Moduli (GPa) = 124.35871 48.40978 117.16773
#
# Poissons Ratio (x) = 0.12324 0.26028
# Poissons Ratio (y) = 0.31660 0.51521
# Poissons Ratio (z) = 0.27625 0.21287
#
# Static dielectric constant tensor:
#      x y z
#    x 1.947040 0.000000 0.000000 
#    y 0.000000 1.929760 0.000000 
#    z 0.000000 0.000000 2.250820 
# 
# From -- ./inp_files/10395.got.cif
#   From: 2010.05.17/outbox.cif.g08.bks.cpg/sg21_6_cif.got.tgz:10395.got - 2010.06.03 23:14:55.
