data_PCOD9324064
_publ_section_title
;
Structure prediction by ZEFSAII (Michael W. Deem and Ramdas Pophale) SiO2 
 PCOD9324064
Probable space group: C 2 2 2
;
_chemical_formula_sum "Si O2"
_cell_formula_units_Z 64
_cell_length_a 23.269051
_cell_length_b 9.439202
_cell_length_c 15.263207
_cell_angle_alpha 90.000000
_cell_angle_beta 90.000000
_cell_angle_gamma 90.000000
_cell_volume 3352.430212
_symmetry_space_group_name_H-M "C 2 2 2"
_symmetry_group_IT_number 21
_symmetry_cell_setting 'orthorhombic'
loop_
_space_group_symop_operation_xyz
x,y,z
-x,-y,z
x,-y,-z
-x,y,-z
1/2+x,1/2+y,z
1/2-x,1/2-y,z
1/2+x,1/2-y,-z
1/2-x,1/2+y,-z
loop_
_atom_site_type_symbol
_atom_site_label
_atom_site_fract_x
_atom_site_fract_y
_atom_site_fract_z
Si Si1 0.189417 0.924856 0.595530
Si Si2 0.558482 0.034601 0.668507
Si Si3 0.868955 0.972571 0.772702
Si Si4 0.568717 0.758186 0.184575
Si Si5 0.143479 0.508504 0.102707
Si Si6 0.941838 0.290324 0.185313
Si Si7 0.819576 0.412420 0.588888
Si Si8 0.266062 0.414788 0.908550
O O1 0.152845 0.990636 0.674921
O O2 0.175181 0.758138 0.581765
O O3 0.255946 0.935249 0.628080
O O4 0.183199 0.000000 0.500000
O O5 0.553915 0.916524 0.744251
O O6 0.500000 0.000000 0.614589
O O7 0.558017 0.187230 0.715885
O O8 0.622316 0.027176 0.630941
O O9 0.900397 0.109299 0.812815
O O10 0.915231 0.847280 0.770794
O O11 0.817596 0.929693 0.839109
O O12 0.504551 0.761584 0.145280
O O13 0.610186 0.873166 0.140065
O O14 0.104754 0.646306 0.119339
O O15 0.208266 0.522614 0.136958
O O16 0.150645 0.500000 0.000000
O O17 0.815520 0.500000 0.500000
O O18 0.250000 0.250000 0.928010
O O19 0.277957 0.500000 0.000000
#
# Coordination Sequence:
#
# PCOD9324064 Si02
#       8
#     8   8   8   8   8   8   8   8
#     4  10  24  41  60  96 129 165 208 270 327 380
#     4   9  19  38  60  85 119 160 208 257 309 373
#     4  12  24  39  69  91 129 173 213 256 337 378
#     4  10  22  39  62  90 121 164 213 265 312 376
#     4  10  22  41  64  90 128 165 211 263 317 388
#     4  10  22  39  60  92 124 162 214 264 315 374
#     4  10  21  39  61  88 123 154 212 263 316 380
#     4  11  26  44  63  99 134 168 213 263 320 394
#
# _framework density 19.090627999999999
#
# number of rings (size 3 to 8) (size 9 to 14) (size 15 to 20)
#    0.000    1.750    2.500    1.500    8.750    1.250 
#    2.250    0.000    0.000    3.750    0.000    0.000 
#    0.000    0.000    0.000    0.000    0.000    0.000 
#
# Total GULP energy -178237.593476 kJ/mol
# GULP energy per Si atom -5569.924796 kJ/mol
# Density = 1.904718 g / cm^3
# Si number density = 19.090628 Si / 1000 Ang^3
#
#
#
# Elastic Constant Matrix: (Units=GPa)
#
#
# Indices 1 2 3 4 5 6 
#
# 1 118.4524 34.2836 11.3984 0.0000 0.0000 0.0000
# 2 34.2836 114.0049 18.8925 0.0000 0.0000 0.0000
# 3 11.3984 18.8925 34.8864 0.0000 0.0000 0.0000
# 4 0.0000 0.0000 0.0000 21.4170 0.0000 0.0000
# 5 0.0000 0.0000 0.0000 0.0000 61.1469 0.0000
# 6 0.0000 0.0000 0.0000 0.0000 0.0000 25.3915
#
#
#
# Elastic Compliance Matrix: (Units=1/GPa)
#
#
# Indices 1 2 3 4 5 6 
#
# 1 0.009336 -0.002529 -0.001681 0.000000 0.000000 0.000000
# 2 -0.002529 0.010321 -0.004763 0.000000 0.000000 0.000000
# 3 -0.001681 -0.004763 0.031793 0.000000 0.000000 0.000000
# 4 0.000000 0.000000 0.000000 0.046692 0.000000 0.000000
# 5 0.000000 0.000000 0.000000 0.000000 0.016354 0.000000
# 6 0.000000 0.000000 0.000000 0.000000 0.000000 0.039383
#
#
# Mechanical properties :
#
#
# Convention : Reuss Voigt Hill
#
# Bulk Modulus (GPa) = 29.84667 44.05474 36.95071
# Shear Modulus (GPa) = 27.32334 35.10902 31.21618
#
# Velocity S-wave (km/s) = 3.78728 4.29309 4.04809
# Velocity P-wave (km/s) = 5.89854 6.90658 6.42237
#
# Compressibility (1/GPa) = 0.03350458
#
# Stress axis : x y z
#
# Youngs Moduli (GPa) = 107.11336 96.88601 31.45332
#
# Poissons Ratio (x) = 0.24502 0.05287
# Poissons Ratio (y) = 0.27089 0.14982
# Poissons Ratio (z) = 0.18003 0.46149
#
# Static dielectric constant tensor:
#      x y z
#    x 1.771170 0.000000 0.000000 
#    y 0.000000 1.349070 0.000000 
#    z 0.000000 0.000000 1.625400 
# 
# From -- ./inp_files/33605.got.cif
#   From: 2010.05.17/outbox.cif.g08.bks.cpg/sg21_17_cif.got.tgz:33605.got - 2010.06.03 23:14:55.
