data_PCOD9324003
_publ_section_title
;
Structure prediction by ZEFSAII (Michael W. Deem and Ramdas Pophale) SiO2 
 PCOD9324003
Probable space group: C 2 2 2
;
_chemical_formula_sum "Si O2"
_cell_formula_units_Z 64
_cell_length_a 6.714123
_cell_length_b 18.749831
_cell_length_c 27.655021
_cell_angle_alpha 90.000000
_cell_angle_beta 90.000000
_cell_angle_gamma 90.000000
_cell_volume 3481.453856
_symmetry_space_group_name_H-M "C 2 2 2"
_symmetry_group_IT_number 21
_symmetry_cell_setting 'orthorhombic'
loop_
_space_group_symop_operation_xyz
x,y,z
-x,-y,z
x,-y,-z
-x,y,-z
1/2+x,1/2+y,z
1/2-x,1/2-y,z
1/2+x,1/2-y,-z
1/2-x,1/2+y,-z
loop_
_atom_site_type_symbol
_atom_site_label
_atom_site_fract_x
_atom_site_fract_y
_atom_site_fract_z
Si Si1 0.564706 0.580501 0.104704
Si Si2 0.090644 0.078094 0.383416
Si Si3 0.365463 0.176066 0.045094
Si Si4 0.798092 0.333187 0.364935
Si Si5 0.950765 0.583287 0.443940
Si Si6 0.821486 0.325899 0.131497
Si Si7 0.584138 0.919672 0.299677
Si Si8 0.888425 0.576044 0.189584
O O1 0.500000 0.500000 0.091786
O O2 0.704735 0.618800 0.064698
O O3 0.367342 0.627525 0.114068
O O4 0.699463 0.576973 0.153603
O O5 0.220060 0.094399 0.430898
O O6 0.241403 0.082225 0.338666
O O7 0.912652 0.129978 0.372200
O O8 0.000000 0.000000 0.388044
O O9 0.250000 0.250000 0.033951
O O10 0.525357 0.188742 0.087640
O O11 0.500000 0.152185 0.000000
O O12 0.750000 0.250000 0.362683
O O13 0.927514 0.361947 0.410489
O O14 0.915646 0.364758 0.318416
O O15 0.000000 0.500000 0.430448
O O16 0.000000 0.591920 0.500000
O O17 0.750000 0.250000 0.150335
O O18 0.949838 0.368204 0.170371
O O19 0.658542 0.907322 0.245249
O O20 0.500000 0.000000 0.301073
O O21 0.000000 0.500000 0.186663
#
# Coordination Sequence:
#
# PCOD9324003 Si02
#       8
#     8   8   8   8   8   8   8   8
#     4  11  23  42  65  92 130 166 205 259 316 366
#     4  11  19  38  65  85 116 163 200 247 307 362
#     4  11  24  41  69  93 120 164 213 254 308 377
#     4  11  23  40  59  89 126 161 197 257 319 362
#     4  10  21  39  60  88 117 152 210 259 293 372
#     4  11  22  41  63  91 125 163 203 257 310 365
#     4  10  21  38  62  93 123 157 214 254 295 373
#     4  10  22  38  63  94 124 166 208 256 305 370
#
# _framework density 18.383125
#
# number of rings (size 3 to 8) (size 9 to 14) (size 15 to 20)
#    0.000    1.375    5.000    1.125    0.000    4.500 
#    2.250    3.125    0.000    0.000    0.000    0.000 
#    0.000    0.000    0.000    0.000    0.000    0.000 
#
# Total GULP energy -178639.354734 kJ/mol
# GULP energy per Si atom -5582.479835 kJ/mol
# Density = 1.834128 g / cm^3
# Si number density = 18.383125 Si / 1000 Ang^3
#
#
#
# Elastic Constant Matrix: (Units=GPa)
#
#
# Indices 1 2 3 4 5 6 
#
# 1 115.4501 39.7222 27.6030 0.0000 0.0000 0.0000
# 2 39.7222 125.4026 24.1946 0.0000 0.0000 0.0000
# 3 27.6030 24.1946 91.3877 0.0000 0.0000 0.0000
# 4 0.0000 0.0000 0.0000 -66.3940 0.0000 0.0000
# 5 0.0000 0.0000 0.0000 0.0000 5.4974 0.0000
# 6 0.0000 0.0000 0.0000 0.0000 0.0000 31.9736
#
#
#
# Elastic Compliance Matrix: (Units=1/GPa)
#
#
# Indices 1 2 3 4 5 6 
#
# 1 0.010175 -0.002772 -0.002339 0.000000 0.000000 0.000000
# 2 -0.002772 0.009159 -0.001588 0.000000 0.000000 0.000000
# 3 -0.002339 -0.001588 0.012069 0.000000 0.000000 0.000000
# 4 0.000000 0.000000 0.000000 -0.015062 0.000000 0.000000
# 5 0.000000 0.000000 0.000000 0.000000 0.181905 0.000000
# 6 0.000000 0.000000 0.000000 0.000000 0.000000 0.031276
#
#
# Mechanical properties :
#
#
# Convention : Reuss Voigt Hill
#
# Bulk Modulus (GPa) = 55.53883 57.25333 56.39608
# Shear Modulus (GPa) = 20.08669 10.26342 15.17506
#
# Velocity S-wave (km/s) = 3.30914 2.36542 2.87625
# Velocity P-wave (km/s) = 6.69910 6.21871 6.46337
#
# Compressibility (1/GPa) = 0.01800542
#
# Stress axis : x y z
#
# Youngs Moduli (GPa) = 98.28325 109.18791 82.85485
#
# Poissons Ratio (x) = 0.30262 0.19383
# Poissons Ratio (y) = 0.27240 0.13154
# Poissons Ratio (z) = 0.22993 0.17334
#
# Static dielectric constant tensor:
#      x y z
#    x 1.655190 0.000000 0.000000 
#    y 0.000000 1.614080 0.000000 
#    z 0.000000 0.000000 1.634430 
# 
# From -- ./inp_files/39529.got.cif
#   From: 2010.05.17/outbox.cif.g08.bks.cpg/sg21_20_cif.got.tgz:39529.got - 2010.06.03 23:14:55.
