data_PCOD9324237
_publ_section_title
;
Structure prediction by ZEFSAII (Michael W. Deem and Ramdas Pophale) SiO2 
 PCOD9324237
Probable space group: C 2 2 2
;
_chemical_formula_sum "Si O2"
_cell_formula_units_Z 40
_cell_length_a 8.569360
_cell_length_b 16.211012
_cell_length_c 12.684759
_cell_angle_alpha 90.000000
_cell_angle_beta 90.000000
_cell_angle_gamma 90.000000
_cell_volume 1762.141323
_symmetry_space_group_name_H-M "C 2 2 2"
_symmetry_group_IT_number 21
_symmetry_cell_setting 'orthorhombic'
loop_
_space_group_symop_operation_xyz
x,y,z
-x,-y,z
x,-y,-z
-x,y,-z
1/2+x,1/2+y,z
1/2-x,1/2-y,z
1/2+x,1/2-y,-z
1/2-x,1/2+y,-z
loop_
_atom_site_type_symbol
_atom_site_label
_atom_site_fract_x
_atom_site_fract_y
_atom_site_fract_z
Si Si1 0.189440 0.659415 0.678139
Si Si2 0.205756 0.843543 0.056900
Si Si3 0.673582 0.403964 0.473178
Si Si4 0.172616 0.341314 0.730953
Si Si5 0.096195 0.914911 0.852643
O O1 0.250000 0.750000 0.704606
O O2 0.214924 0.641650 0.555051
O O3 0.493111 0.844566 0.699784
O O4 0.537750 0.652911 0.882175
O O5 0.250000 0.750000 0.025880
O O6 0.318171 0.872790 0.149711
O O7 0.201215 0.903020 0.956778
O O8 0.199516 0.899175 0.749572
O O9 0.678484 0.500000 0.500000
O O10 0.500000 0.372916 0.500000
O O11 0.724871 0.390565 0.353764
O O12 0.250000 0.250000 0.730221
O O13 0.000000 0.000000 0.848227
#
# Coordination Sequence:
#
# PCOD9324237 Si02
#       5
#     8   8   8   8   8
#     4  12  25  43  73 104 144 195 247 300 366 446
#     4  10  21  41  70  99 137 184 237 293 358 435
#     4  11  25  44  69 100 143 195 241 304 372 435
#     4  11  24  43  69 104 144 186 246 304 359 438
#     4  11  25  45  71 104 143 190 242 305 373 435
#
# _framework density 22.699653999999999
#
# number of rings (size 3 to 8) (size 9 to 14) (size 15 to 20)
#    0.000    1.000    0.000    7.800    5.600    5.600 
#    3.600    0.000    0.000    7.200    0.000    0.000 
#    0.000    0.000    0.000    0.000    0.000    0.000 
#
# Total GULP energy -111877.241300 kJ/mol
# GULP energy per Si atom -5593.862065 kJ/mol
# Density = 2.264799 g / cm^3
# Si number density = 22.699654 Si / 1000 Ang^3
#
#
#
# Elastic Constant Matrix: (Units=GPa)
#
#
# Indices 1 2 3 4 5 6 
#
# 1 79.3872 30.4957 -10.8605 0.0000 0.0000 0.0000
# 2 30.4957 95.2230 42.2442 0.0000 0.0000 0.0000
# 3 -10.8605 42.2442 85.0400 0.0000 0.0000 0.0000
# 4 0.0000 0.0000 0.0000 25.0218 0.0000 0.0000
# 5 0.0000 0.0000 0.0000 0.0000 50.8547 0.0000
# 6 0.0000 0.0000 0.0000 0.0000 0.0000 36.1512
#
#
#
# Elastic Compliance Matrix: (Units=1/GPa)
#
#
# Indices 1 2 3 4 5 6 
#
# 1 0.016488 -0.007971 0.006066 0.000000 0.000000 0.000000
# 2 -0.007971 0.017324 -0.009624 0.000000 0.000000 0.000000
# 3 0.006066 -0.009624 0.017315 0.000000 0.000000 0.000000
# 4 0.000000 0.000000 0.000000 0.039965 0.000000 0.000000
# 5 0.000000 0.000000 0.000000 0.000000 0.019664 0.000000
# 6 0.000000 0.000000 0.000000 0.000000 0.000000 0.027662
#
#
# Mechanical properties :
#
#
# Convention : Reuss Voigt Hill
#
# Bulk Modulus (GPa) = 35.62828 42.60101 39.11465
# Shear Modulus (GPa) = 29.26841 35.59027 32.42934
#
# Velocity S-wave (km/s) = 3.59469 3.96394 3.78382
# Velocity P-wave (km/s) = 5.74096 6.30543 6.02980
#
# Compressibility (1/GPa) = 0.02806759
#
# Stress axis : x y z
#
# Youngs Moduli (GPa) = 60.64873 57.72336 57.75505
#
# Poissons Ratio (x) = 0.46014 -0.35032
# Poissons Ratio (y) = 0.48345 0.55583
# Poissons Ratio (z) = -0.36787 0.55552
#
# Static dielectric constant tensor:
#      x y z
#    x 1.883610 0.000000 0.000000 
#    y 0.000000 1.777370 0.000000 
#    z 0.000000 0.000000 1.879440 
# 
# From -- ./inp_files/22293.got.cif
#   From: 2010.05.17/outbox.cif.g08.bks.cpg/sg21_12_cif.got.tgz:22293.got - 2010.06.03 23:14:55.
