data_PCOD9324750
_publ_section_title
;
Structure prediction by ZEFSAII (Michael W. Deem and Ramdas Pophale) SiO2 
 PCOD9324750
Probable space group: C 2 2 2
;
_chemical_formula_sum "Si O2"
_cell_formula_units_Z 32
_cell_length_a 12.142006
_cell_length_b 8.301222
_cell_length_c 13.178895
_cell_angle_alpha 90.000000
_cell_angle_beta 90.000000
_cell_angle_gamma 90.000000
_cell_volume 1328.346786
_symmetry_space_group_name_H-M "C 2 2 2"
_symmetry_group_IT_number 21
_symmetry_cell_setting 'orthorhombic'
loop_
_space_group_symop_operation_xyz
x,y,z
-x,-y,z
x,-y,-z
-x,y,-z
1/2+x,1/2+y,z
1/2-x,1/2-y,z
1/2+x,1/2-y,-z
1/2-x,1/2+y,-z
loop_
_atom_site_type_symbol
_atom_site_label
_atom_site_fract_x
_atom_site_fract_y
_atom_site_fract_z
Si Si1 0.500000 0.000000 0.000000
Si Si2 0.164258 0.611089 0.625891
Si Si3 0.500000 0.500000 0.500000
Si Si4 0.588933 0.769128 0.634307
Si Si5 0.250000 0.750000 0.179484
Si Si6 0.809426 0.589589 0.132220
O O1 0.574490 0.901219 0.076916
O O2 0.250000 0.750000 0.591313
O O3 0.156499 0.422777 0.590250
O O4 0.187402 0.590600 0.745922
O O5 0.038739 0.676367 0.627108
O O6 0.580284 0.606518 0.570301
O O7 0.643865 0.738543 0.744171
O O8 0.239814 0.588263 0.113543
O O9 0.750000 0.750000 0.101106
#
# Coordination Sequence:
#
# PCOD9324750 Si02
#       6
#     2   8   2   8   4   8
#     4  12  24  44  66 110 160 168 220 308 354 402
#     4   9  20  45  73  92 130 196 244 287 339 434
#     4  12  28  38  60 112 150 180 220 322 380 402
#     4  10  23  42  65 102 134 175 243 291 362 424
#     4  10  22  48  76  96 134 196 246 278 336 448
#     4  10  23  42  70 101 137 184 232 283 346 412
#
# _framework density 24.090094000000001
#
# number of rings (size 3 to 8) (size 9 to 14) (size 15 to 20)
#    0.000    2.000    0.000    3.000   12.250    2.000 
#    2.250    1.250    0.000    0.000    0.000    0.000 
#    0.000    0.000    0.000    0.000    0.000    0.000 
#
# Total GULP energy -89362.132081 kJ/mol
# GULP energy per Si atom -5585.133255 kJ/mol
# Density = 2.403526 g / cm^3
# Si number density = 24.090094 Si / 1000 Ang^3
#
#
#
# Elastic Constant Matrix: (Units=GPa)
#
#
# Indices 1 2 3 4 5 6 
#
# 1 142.0926 93.9044 19.0511 0.0000 0.0000 0.0000
# 2 93.9044 238.6992 70.4969 0.0000 0.0000 0.0000
# 3 19.0511 70.4969 47.6078 0.0000 0.0000 0.0000
# 4 0.0000 0.0000 0.0000 31.5056 0.0000 0.0000
# 5 0.0000 0.0000 0.0000 0.0000 52.4918 0.0000
# 6 0.0000 0.0000 0.0000 0.0000 0.0000 32.2669
#
#
#
# Elastic Compliance Matrix: (Units=1/GPa)
#
#
# Indices 1 2 3 4 5 6 
#
# 1 0.009772 -0.004780 0.003167 0.000000 0.000000 0.000000
# 2 -0.004780 0.009783 -0.012574 0.000000 0.000000 0.000000
# 3 0.003167 -0.012574 0.038358 0.000000 0.000000 0.000000
# 4 0.000000 0.000000 0.000000 0.031740 0.000000 0.000000
# 5 0.000000 0.000000 0.000000 0.000000 0.019051 0.000000
# 6 0.000000 0.000000 0.000000 0.000000 0.000000 0.030991
#
#
# Mechanical properties :
#
#
# Convention : Reuss Voigt Hill
#
# Bulk Modulus (GPa) = 33.85354 88.36716 61.11035
# Shear Modulus (GPa) = 28.10333 39.58270 33.84301
#
# Velocity S-wave (km/s) = 3.41925 4.05793 3.75220
# Velocity P-wave (km/s) = 5.44718 7.66272 6.64790
#
# Compressibility (1/GPa) = 0.02953901
#
# Stress axis : x y z
#
# Youngs Moduli (GPa) = 102.33647 102.21441 26.07052
#
# Poissons Ratio (x) = 0.48854 -0.08257
# Poissons Ratio (y) = 0.48913 0.32782
# Poissons Ratio (z) = -0.32412 1.28528
#
# Static dielectric constant tensor:
#      x y z
#    x 1.845190 0.000000 0.000000 
#    y 0.000000 2.004680 0.000000 
#    z 0.000000 0.000000 2.012880 
# 
# From -- ./inp_files/31265.got.cif
#   From: 2010.05.17/outbox.cif.g08.bks.cpg/sg21_16_cif.got.tgz:31265.got - 2010.06.03 23:14:55.
