data_PCOD9324489
_publ_section_title
;
Structure prediction by ZEFSAII (Michael W. Deem and Ramdas Pophale) SiO2 
 PCOD9324489
Probable space group: C 2 2 2
;
_chemical_formula_sum "Si O2"
_cell_formula_units_Z 54
_cell_length_a 16.112758
_cell_length_b 5.289959
_cell_length_c 31.942366
_cell_angle_alpha 90.000000
_cell_angle_beta 90.000000
_cell_angle_gamma 90.000000
_cell_volume 2722.634053
_symmetry_space_group_name_H-M "C 2 2 2"
_symmetry_group_IT_number 21
_symmetry_cell_setting 'orthorhombic'
loop_
_space_group_symop_operation_xyz
x,y,z
-x,-y,z
x,-y,-z
-x,y,-z
1/2+x,1/2+y,z
1/2-x,1/2-y,z
1/2+x,1/2-y,-z
1/2-x,1/2+y,-z
loop_
_atom_site_type_symbol
_atom_site_label
_atom_site_fract_x
_atom_site_fract_y
_atom_site_fract_z
Si Si1 0.000000 0.500000 0.000000
Si Si2 0.750000 0.250000 0.027907
Si Si3 0.649377 0.751874 0.298790
Si Si4 0.445572 0.244823 0.834526
Si Si5 0.149887 0.750147 0.525858
Si Si6 0.849498 0.752645 0.750528
Si Si7 0.917702 0.819882 0.928888
Si Si8 0.056169 0.250208 0.386259
O O1 0.055924 0.346717 0.968242
O O2 0.823217 0.127519 0.056965
O O3 0.773857 0.500000 0.000000
O O4 0.750000 0.750000 0.300448
O O5 0.621417 0.500432 0.274391
O O6 0.613633 0.754840 0.345274
O O7 0.621813 0.999182 0.273026
O O8 0.500000 0.500000 0.833210
O O9 0.377863 0.263309 0.798357
O O10 0.413093 0.210948 0.882030
O O11 0.500000 0.000000 0.824890
O O12 0.125752 0.500000 0.500000
O O13 0.250000 0.750000 0.529973
O O14 0.109296 0.751743 0.571297
O O15 0.125736 0.000000 0.500000
O O16 0.750000 0.750000 0.749227
O O17 0.000000 0.000000 0.926706
O O18 0.000000 0.500000 0.386003
O O19 0.000000 0.000000 0.385025
#
# Coordination Sequence:
#
# PCOD9324489 Si02
#       8
#     2   4   8   8   8   8   8   8
#     4  12  18  44  68  82 138 168 218 272 322 396
#     4  12  26  44  68 102 130 172 230 270 328 398
#     4  10  22  42  63  88 122 164 208 251 311 376
#     4  11  24  41  63  94 126 164 208 250 323 385
#     4  10  22  41  63  86 119 166 210 251 308 374
#     4  10  22  40  65  90 120 161 204 259 313 367
#     4  11  25  42  67  97 132 178 216 275 332 392
#     4  12  25  38  60  93 125 159 205 259 314 364
#
# _framework density 19.833732999999999
#
# number of rings (size 3 to 8) (size 9 to 14) (size 15 to 20)
#    0.000    1.185    1.481    4.222    1.037    5.333 
#    0.000    5.926    0.000    0.000    0.000    0.000 
#    0.000    0.000    0.000    0.000    0.000    0.000 
#
# Total GULP energy -150666.298809 kJ/mol
# GULP energy per Si atom -5580.233289 kJ/mol
# Density = 1.978859 g / cm^3
# Si number density = 19.833733 Si / 1000 Ang^3
#
#
#
# Elastic Constant Matrix: (Units=GPa)
#
#
# Indices 1 2 3 4 5 6 
#
# 1 54.6414 29.5459 41.8799 0.0000 0.0000 0.0000
# 2 29.5459 152.3694 64.4589 0.0000 0.0000 0.0000
# 3 41.8799 64.4589 191.9028 0.0000 0.0000 0.0000
# 4 0.0000 0.0000 0.0000 39.7285 0.0000 0.0000
# 5 0.0000 0.0000 0.0000 0.0000 50.7898 0.0000
# 6 0.0000 0.0000 0.0000 0.0000 0.0000 90.4644
#
#
#
# Elastic Compliance Matrix: (Units=1/GPa)
#
#
# Indices 1 2 3 4 5 6 
#
# 1 0.022900 -0.002712 -0.004087 0.000000 0.000000 0.000000
# 2 -0.002712 0.007971 -0.002086 0.000000 0.000000 0.000000
# 3 -0.004087 -0.002086 0.006803 0.000000 0.000000 0.000000
# 4 0.000000 0.000000 0.000000 0.025171 0.000000 0.000000
# 5 0.000000 0.000000 0.000000 0.000000 0.019689 0.000000
# 6 0.000000 0.000000 0.000000 0.000000 0.000000 0.011054
#
#
# Mechanical properties :
#
#
# Convention : Reuss Voigt Hill
#
# Bulk Modulus (GPa) = 50.23562 74.52032 62.37797
# Shear Modulus (GPa) = 42.37594 53.73179 48.05387
#
# Velocity S-wave (km/s) = 4.62731 5.21056 4.92757
# Velocity P-wave (km/s) = 7.34389 8.59383 7.99333
#
# Compressibility (1/GPa) = 0.01990619
#
# Stress axis : x y z
#
# Youngs Moduli (GPa) = 43.66883 125.45254 146.98537
#
# Poissons Ratio (x) = 0.34018 0.60068
# Poissons Ratio (y) = 0.11841 0.30656
# Poissons Ratio (z) = 0.17846 0.26165
#
# Static dielectric constant tensor:
#      x y z
#    x 1.744040 0.000000 0.000000 
#    y 0.000000 1.704330 0.000000 
#    z 0.000000 0.000000 0.516660 
# 
# From -- ./inp_files/39610.got.cif
#   From: 2010.05.17/outbox.cif.g08.bks.cpg/sg21_20_cif.got.tgz:39610.got - 2010.06.03 23:14:55.
