data_PCOD9324567
_publ_section_title
;
Structure prediction by ZEFSAII (Michael W. Deem and Ramdas Pophale) SiO2 
 PCOD9324567
Probable space group: C 2 2 2
;
_chemical_formula_sum "Si O2"
_cell_formula_units_Z 34
_cell_length_a 14.792816
_cell_length_b 5.195606
_cell_length_c 19.998820
_cell_angle_alpha 90.000000
_cell_angle_beta 90.000000
_cell_angle_gamma 90.000000
_cell_volume 1537.062179
_symmetry_space_group_name_H-M "C 2 2 2"
_symmetry_group_IT_number 21
_symmetry_cell_setting 'orthorhombic'
loop_
_space_group_symop_operation_xyz
x,y,z
-x,-y,z
x,-y,-z
-x,y,-z
1/2+x,1/2+y,z
1/2-x,1/2-y,z
1/2+x,1/2-y,-z
1/2-x,1/2+y,-z
loop_
_atom_site_type_symbol
_atom_site_label
_atom_site_fract_x
_atom_site_fract_y
_atom_site_fract_z
Si Si1 0.692776 0.015384 0.799222
Si Si2 0.000000 0.000000 0.000000
Si Si3 0.438695 0.749790 0.690608
Si Si4 0.354803 0.166205 0.932691
Si Si5 0.859079 0.752491 0.457241
O O1 0.750000 0.250000 0.830611
O O2 0.643558 0.163553 0.738683
O O3 0.750000 0.750000 0.781569
O O4 0.625614 0.943715 0.859325
O O5 0.069556 0.870043 0.050889
O O6 0.500000 0.500000 0.709269
O O7 0.401821 0.721044 0.615553
O O8 0.500000 0.000000 0.691438
O O9 0.250000 0.250000 0.928043
O O10 0.359400 0.000000 0.000000
O O11 0.884470 0.500000 0.500000
O O12 0.750000 0.750000 0.449481
O O13 0.884462 0.000000 0.500000
#
# Coordination Sequence:
#
# PCOD9324567 Si02
#       5
#     8   2   8   8   8
#     4  11  26  49  76 101 142 199 244 302 361 441
#     4  12  26  44  80 108 148 200 234 334 362 458
#     4  12  26  44  68 107 148 184 233 304 370 438
#     4  11  24  47  75 107 146 193 257 306 377 444
#     4  10  22  41  69  98 133 188 244 289 349 434
#
# _framework density 22.12012
#
# number of rings (size 3 to 8) (size 9 to 14) (size 15 to 20)
#    0.000    0.941    1.176    4.588    3.294    7.529 
#    4.235    0.000    0.000    0.000    0.000    0.000 
#    0.000    0.000    0.000    0.000    0.000    0.000 
#
# Total GULP energy -94879.314525 kJ/mol
# GULP energy per Si atom -5581.136149 kJ/mol
# Density = 2.206977 g / cm^3
# Si number density = 22.120120 Si / 1000 Ang^3
#
#
#
# Elastic Constant Matrix: (Units=GPa)
#
#
# Indices 1 2 3 4 5 6 
#
# 1 97.6371 53.5580 28.0355 0.0000 0.0000 0.0000
# 2 53.5580 171.0807 51.9770 0.0000 0.0000 0.0000
# 3 28.0355 51.9770 115.2749 0.0000 0.0000 0.0000
# 4 0.0000 0.0000 0.0000 54.0160 0.0000 0.0000
# 5 0.0000 0.0000 0.0000 0.0000 -110.9221 0.0000
# 6 0.0000 0.0000 0.0000 0.0000 0.0000 -75.5441
#
#
#
# Elastic Compliance Matrix: (Units=1/GPa)
#
#
# Indices 1 2 3 4 5 6 
#
# 1 0.012582 -0.003487 -0.001488 0.000000 0.000000 0.000000
# 2 -0.003487 0.007739 -0.002642 0.000000 0.000000 0.000000
# 3 -0.001488 -0.002642 0.010228 0.000000 0.000000 0.000000
# 4 0.000000 0.000000 0.000000 0.018513 0.000000 0.000000
# 5 0.000000 0.000000 0.000000 0.000000 -0.009015 0.000000
# 6 0.000000 0.000000 0.000000 0.000000 0.000000 -0.013237
#
#
# Mechanical properties :
#
#
# Convention : Reuss Voigt Hill
#
# Bulk Modulus (GPa) = 65.28868 72.34819 68.81844
# Shear Modulus (GPa) = 106.05030 -9.79521 48.12754
#
# Velocity S-wave (km/s) = 6.93159 -2.10661 4.66954
# Velocity P-wave (km/s) = 9.67689 5.18275 7.76219
#
# Compressibility (1/GPa) = 0.01531659
#
# Stress axis : x y z
#
# Youngs Moduli (GPa) = 79.47935 129.21009 97.77232
#
# Poissons Ratio (x) = 0.45053 0.14546
# Poissons Ratio (y) = 0.27713 0.25828
# Poissons Ratio (z) = 0.11825 0.34132
#
# Static dielectric constant tensor:
#      x y z
#    x 1.772930 0.000000 0.000000 
#    y 0.000000 1.861280 0.000000 
#    z 0.000000 0.000000 2.368120 
# 
# From -- ./inp_files/36456.got.cif
#   From: 2010.05.17/outbox.cif.g08.bks.cpg/sg21_19_cif.got.tgz:36456.got - 2010.06.03 23:14:55.
