data_PCOD9324084
_publ_section_title
;
Structure prediction by ZEFSAII (Michael W. Deem and Ramdas Pophale) SiO2 
 PCOD9324084
Probable space group: C 2 2 2
;
_chemical_formula_sum "Si O2"
_cell_formula_units_Z 64
_cell_length_a 17.003037
_cell_length_b 12.850669
_cell_length_c 14.594361
_cell_angle_alpha 90.000000
_cell_angle_beta 90.000000
_cell_angle_gamma 90.000000
_cell_volume 3188.873723
_symmetry_space_group_name_H-M "C 2 2 2"
_symmetry_group_IT_number 21
_symmetry_cell_setting 'orthorhombic'
loop_
_space_group_symop_operation_xyz
x,y,z
-x,-y,z
x,-y,-z
-x,y,-z
1/2+x,1/2+y,z
1/2-x,1/2-y,z
1/2+x,1/2-y,-z
1/2-x,1/2+y,-z
loop_
_atom_site_type_symbol
_atom_site_label
_atom_site_fract_x
_atom_site_fract_y
_atom_site_fract_z
Si Si1 0.093365 0.132924 0.480289
Si Si2 0.895345 0.276605 0.358708
Si Si3 0.321147 0.990363 0.398064
Si Si4 0.332834 0.688201 0.189954
Si Si5 0.075983 0.674633 0.646659
Si Si6 0.335797 0.477652 0.311036
Si Si7 0.656508 0.279324 0.810056
Si Si8 0.405381 0.374811 0.001730
O O1 0.125501 0.176597 0.578161
O O2 0.112795 0.235028 0.417460
O O3 0.119606 0.040344 0.409753
O O4 0.000000 0.121251 0.500000
O O5 0.837845 0.370720 0.380443
O O6 0.890502 0.256854 0.251155
O O7 0.984402 0.310764 0.373888
O O8 0.289835 0.000000 0.500000
O O9 0.396849 0.062021 0.386242
O O10 0.255347 0.037195 0.333620
O O11 0.250000 0.750000 0.189784
O O12 0.336088 0.581047 0.248682
O O13 0.364993 0.668686 0.089601
O O14 0.106033 0.695719 0.750511
O O15 0.361971 0.384887 0.245755
O O16 0.750000 0.250000 0.808735
O O17 0.628592 0.309866 0.912062
O O18 0.388913 0.500000 0.000000
O O19 0.500000 0.363506 0.000000
#
# Coordination Sequence:
#
# PCOD9324084 Si02
#       8
#     8   8   8   8   8   8   8   8
#     4   9  21  40  60  89 127 174 222 263 308 371
#     4  11  23  39  62  92 132 176 216 261 321 375
#     4  12  23  38  64  90 132 177 217 268 310 374
#     4  12  25  44  66  95 132 166 208 271 332 392
#     4  10  21  39  63  94 126 167 221 266 314 374
#     4  11  24  41  64  94 129 168 219 267 324 379
#     4  11  21  42  70  94 123 162 215 272 320 395
#     4  11  24  44  69  96 125 163 211 265 334 401
#
# _framework density 20.069782
#
# number of rings (size 3 to 8) (size 9 to 14) (size 15 to 20)
#    0.000    1.125    5.000    1.500    1.750    0.500 
#    0.000    1.875    0.000    0.000    0.000    3.500 
#    0.000    0.000    0.000    0.000    0.000    0.000 
#
# Total GULP energy -178402.533717 kJ/mol
# GULP energy per Si atom -5575.079179 kJ/mol
# Density = 2.002410 g / cm^3
# Si number density = 20.069782 Si / 1000 Ang^3
#
#
#
# Elastic Constant Matrix: (Units=GPa)
#
#
# Indices 1 2 3 4 5 6 
#
# 1 50.9215 8.6602 21.6020 0.0000 0.0000 0.0000
# 2 8.6602 86.7028 28.7638 0.0000 0.0000 0.0000
# 3 21.6020 28.7638 159.3696 0.0000 0.0000 0.0000
# 4 0.0000 0.0000 0.0000 46.4245 0.0000 0.0000
# 5 0.0000 0.0000 0.0000 0.0000 30.7965 0.0000
# 6 0.0000 0.0000 0.0000 0.0000 0.0000 23.0684
#
#
#
# Elastic Compliance Matrix: (Units=1/GPa)
#
#
# Indices 1 2 3 4 5 6 
#
# 1 0.020958 -0.001224 -0.002620 0.000000 0.000000 0.000000
# 2 -0.001224 0.012340 -0.002061 0.000000 0.000000 0.000000
# 3 -0.002620 -0.002061 0.007002 0.000000 0.000000 0.000000
# 4 0.000000 0.000000 0.000000 0.021540 0.000000 0.000000
# 5 0.000000 0.000000 0.000000 0.000000 0.032471 0.000000
# 6 0.000000 0.000000 0.000000 0.000000 0.000000 0.043349
#
#
# Mechanical properties :
#
#
# Convention : Reuss Voigt Hill
#
# Bulk Modulus (GPa) = 35.10148 46.11623 40.60885
# Shear Modulus (GPa) = 31.45312 35.92241 33.68776
#
# Velocity S-wave (km/s) = 3.96307 4.23528 4.10143
# Velocity P-wave (km/s) = 6.20233 6.85162 6.53504
#
# Compressibility (1/GPa) = 0.02848883
#
# Stress axis : x y z
#
# Youngs Moduli (GPa) = 47.71526 81.03902 142.81963
#
# Poissons Ratio (x) = 0.09921 0.37416
# Poissons Ratio (y) = 0.05841 0.29438
# Poissons Ratio (z) = 0.12500 0.16704
#
# Static dielectric constant tensor:
#      x y z
#    x 1.592010 0.000000 0.000000 
#    y 0.000000 1.744480 0.000000 
#    z 0.000000 0.000000 1.705850 
# 
# From -- ./inp_files/26221.got.cif
#   From: 2010.05.17/outbox.cif.g08.bks.cpg/sg21_14_cif.got.tgz:26221.got - 2010.06.03 23:14:55.
