data_PCOD9324643
_publ_section_title
;
Structure prediction by ZEFSAII (Michael W. Deem and Ramdas Pophale) SiO2 
 PCOD9324643
Probable space group: C 2 2 2
;
_chemical_formula_sum "Si O2"
_cell_formula_units_Z 24
_cell_length_a 7.393435
_cell_length_b 8.385385
_cell_length_c 17.056384
_cell_angle_alpha 90.000000
_cell_angle_beta 90.000000
_cell_angle_gamma 90.000000
_cell_volume 1057.441210
_symmetry_space_group_name_H-M "C 2 2 2"
_symmetry_group_IT_number 21
_symmetry_cell_setting 'orthorhombic'
loop_
_space_group_symop_operation_xyz
x,y,z
-x,-y,z
x,-y,-z
-x,y,-z
1/2+x,1/2+y,z
1/2-x,1/2-y,z
1/2+x,1/2-y,-z
1/2-x,1/2+y,-z
loop_
_atom_site_type_symbol
_atom_site_label
_atom_site_fract_x
_atom_site_fract_y
_atom_site_fract_z
Si Si1 0.796460 0.936244 0.746348
Si Si2 0.204935 0.436653 0.081265
Si Si3 0.288589 0.561931 0.582825
O O1 0.750000 0.750000 0.748838
O O2 0.753685 0.001083 0.832655
O O3 0.709346 0.997630 0.665049
O O4 0.000000 0.000000 0.737667
O O5 0.250000 0.250000 0.081708
O O6 0.000000 0.500000 0.076215
O O7 0.292052 0.500000 0.000000
O O8 0.500000 0.500000 0.581395
O O9 0.212467 0.500000 0.500000
O O10 0.250000 0.750000 0.583801
#
# Coordination Sequence:
#
# PCOD9324643 Si02
#       3
#     8   8   8
#     4  11  23  41  66  99 134 176 222 275 332 395
#     4  11  24  43  67  99 134 176 222 275 333 397
#     4  10  22  43  67  98 134 176 222 274 331 395
#
# _framework density 22.696294000000002
#
# number of rings (size 3 to 8) (size 9 to 14) (size 15 to 20)
#    0.000    1.333    0.000    5.000    0.000    6.000 
#    0.000   16.667    0.000    0.000    0.000    0.000 
#    0.000    0.000    0.000    0.000    0.000    0.000 
#
# Total GULP energy -66817.712155 kJ/mol
# GULP energy per Si atom -5568.142680 kJ/mol
# Density = 2.264464 g / cm^3
# Si number density = 22.696294 Si / 1000 Ang^3
#
#
#
# Elastic Constant Matrix: (Units=GPa)
#
#
# Indices 1 2 3 4 5 6 
#
# 1 122.3362 42.8052 31.9743 0.0000 0.0000 0.0000
# 2 42.8052 291.2327 141.0584 0.0000 0.0000 0.0000
# 3 31.9743 141.0584 360.0566 0.0000 0.0000 0.0000
# 4 0.0000 0.0000 0.0000 77.0260 0.0000 0.0000
# 5 0.0000 0.0000 0.0000 0.0000 29.5684 0.0000
# 6 0.0000 0.0000 0.0000 0.0000 0.0000 38.3249
#
#
#
# Elastic Compliance Matrix: (Units=1/GPa)
#
#
# Indices 1 2 3 4 5 6 
#
# 1 0.008650 -0.001110 -0.000333 0.000000 0.000000 0.000000
# 2 -0.001110 0.004380 -0.001617 0.000000 0.000000 0.000000
# 3 -0.000333 -0.001617 0.003441 0.000000 0.000000 0.000000
# 4 0.000000 0.000000 0.000000 0.012983 0.000000 0.000000
# 5 0.000000 0.000000 0.000000 0.000000 0.033820 0.000000
# 6 0.000000 0.000000 0.000000 0.000000 0.000000 0.026093
#
#
# Mechanical properties :
#
#
# Convention : Reuss Voigt Hill
#
# Bulk Modulus (GPa) = 96.62601 133.92236 115.27418
# Shear Modulus (GPa) = 50.53736 66.16971 58.35353
#
# Velocity S-wave (km/s) = 4.72389 5.40534 5.07606
# Velocity P-wave (km/s) = 8.50996 9.90411 9.23338
#
# Compressibility (1/GPa) = 0.01034918
#
# Stress axis : x y z
#
# Youngs Moduli (GPa) = 115.61156 228.29847 290.64603
#
# Poissons Ratio (x) = 0.25338 0.09687
# Poissons Ratio (y) = 0.12832 0.47011
# Poissons Ratio (z) = 0.03853 0.36927
#
# Static dielectric constant tensor:
#      x y z
#    x 1.858720 0.000000 0.000000 
#    y 0.000000 1.813540 0.000000 
#    z 0.000000 0.000000 1.977250 
# 
# From -- ./inp_files/29696.got.cif
#   From: 2010.05.17/outbox.cif.g08.bks.cpg/sg21_15_cif.got.tgz:29696.got - 2010.06.03 23:14:55.
