data_PCOD9324663
_publ_section_title
;
Structure prediction by ZEFSAII (Michael W. Deem and Ramdas Pophale) SiO2 
 PCOD9324663
Probable space group: C 2 2 2
;
_chemical_formula_sum "Si O2"
_cell_formula_units_Z 24
_cell_length_a 13.180015
_cell_length_b 5.597001
_cell_length_c 13.588169
_cell_angle_alpha 90.000000
_cell_angle_beta 90.000000
_cell_angle_gamma 90.000000
_cell_volume 1002.379621
_symmetry_space_group_name_H-M "C 2 2 2"
_symmetry_group_IT_number 21
_symmetry_cell_setting 'orthorhombic'
loop_
_space_group_symop_operation_xyz
x,y,z
-x,-y,z
x,-y,-z
-x,y,-z
1/2+x,1/2+y,z
1/2-x,1/2-y,z
1/2+x,1/2-y,-z
1/2-x,1/2+y,-z
loop_
_atom_site_type_symbol
_atom_site_label
_atom_site_fract_x
_atom_site_fract_y
_atom_site_fract_z
Si Si1 0.612573 0.382094 0.096075
Si Si2 0.500000 0.000000 0.815634
Si Si3 0.641724 0.628023 0.292004
Si Si4 0.314663 0.500000 0.500000
O O1 0.500000 0.500000 0.096008
O O2 0.658695 0.453331 0.200035
O O3 0.585940 0.105735 0.111272
O O4 0.663320 0.500000 0.000000
O O5 0.554546 0.191608 0.745132
O O6 0.750000 0.750000 0.303966
O O7 0.622447 0.516658 0.398638
O O8 0.250000 0.250000 0.509376
#
# Coordination Sequence:
#
# PCOD9324663 Si02
#       4
#     8   4   8   4
#     4   9  20  39  63  99 132 175 222 286 351 417
#     4  10  22  43  71  98 140 184 233 291 358 430
#     4  10  23  42  68  99 136 183 233 291 353 427
#     4  10  24  44  73  97 138 192 232 298 364 421
#
# _framework density 23.943024999999999
#
# number of rings (size 3 to 8) (size 9 to 14) (size 15 to 20)
#    0.000    2.333    0.000    0.000    9.333   10.667 
#    6.000    9.167    0.000    0.000    0.000    0.000 
#    0.000    0.000    0.000    0.000    0.000    0.000 
#
# Total GULP energy -66875.775676 kJ/mol
# GULP energy per Si atom -5572.981306 kJ/mol
# Density = 2.388853 g / cm^3
# Si number density = 23.943025 Si / 1000 Ang^3
#
#
#
# Elastic Constant Matrix: (Units=GPa)
#
#
# Indices 1 2 3 4 5 6 
#
# 1 61.6503 18.2597 35.2741 0.0000 0.0000 0.0000
# 2 18.2597 107.9149 79.2264 0.0000 0.0000 0.0000
# 3 35.2741 79.2264 289.3615 0.0000 0.0000 0.0000
# 4 0.0000 0.0000 0.0000 3.9896 0.0000 0.0000
# 5 0.0000 0.0000 0.0000 0.0000 34.1561 0.0000
# 6 0.0000 0.0000 0.0000 0.0000 0.0000 31.8026
#
#
#
# Elastic Compliance Matrix: (Units=1/GPa)
#
#
# Indices 1 2 3 4 5 6 
#
# 1 0.017702 -0.001766 -0.001674 0.000000 0.000000 0.000000
# 2 -0.001766 0.011774 -0.003008 0.000000 0.000000 0.000000
# 3 -0.001674 -0.003008 0.004484 0.000000 0.000000 0.000000
# 4 0.000000 0.000000 0.000000 0.250654 0.000000 0.000000
# 5 0.000000 0.000000 0.000000 0.000000 0.029277 0.000000
# 6 0.000000 0.000000 0.000000 0.000000 0.000000 0.031444
#
#
# Mechanical properties :
#
#
# Convention : Reuss Voigt Hill
#
# Bulk Modulus (GPa) = 47.47925 80.49412 63.98668
# Shear Modulus (GPa) = 13.68914 35.73407 24.71161
#
# Velocity S-wave (km/s) = 2.39370 3.86743 3.21612
# Velocity P-wave (km/s) = 5.24527 7.32357 6.36976
#
# Compressibility (1/GPa) = 0.02106183
#
# Stress axis : x y z
#
# Youngs Moduli (GPa) = 56.49216 84.93273 223.03035
#
# Poissons Ratio (x) = 0.14999 0.37344
# Poissons Ratio (y) = 0.09976 0.67097
# Poissons Ratio (z) = 0.09459 0.25551
#
# Static dielectric constant tensor:
#      x y z
#    x 2.025000 0.000000 0.000000 
#    y 0.000000 1.845970 0.000000 
#    z 0.000000 0.000000 1.972150 
# 
# From -- ./inp_files/20319.got.cif
#   From: 2010.05.17/outbox.cif.g08.bks.cpg/sg21_11_cif.got.tgz:20319.got - 2010.06.03 23:14:55.
