data_PCOD9324884
_publ_section_title
;
Structure prediction by ZEFSAII (Michael W. Deem and Ramdas Pophale) SiO2 
 PCOD9324884
Probable space group: C 2 2 2
;
_chemical_formula_sum "Si O2"
_cell_formula_units_Z 34
_cell_length_a 5.028900
_cell_length_b 19.756897
_cell_length_c 15.910360
_cell_angle_alpha 90.000000
_cell_angle_beta 90.000000
_cell_angle_gamma 90.000000
_cell_volume 1580.781126
_symmetry_space_group_name_H-M "C 2 2 2"
_symmetry_group_IT_number 21
_symmetry_cell_setting 'orthorhombic'
loop_
_space_group_symop_operation_xyz
x,y,z
-x,-y,z
x,-y,-z
-x,y,-z
1/2+x,1/2+y,z
1/2-x,1/2-y,z
1/2+x,1/2-y,-z
1/2-x,1/2+y,-z
loop_
_atom_site_type_symbol
_atom_site_label
_atom_site_fract_x
_atom_site_fract_y
_atom_site_fract_z
Si Si1 0.609713 0.400975 0.139348
Si Si2 0.733976 0.455333 0.322001
Si Si3 0.000000 0.000000 0.000000
Si Si4 0.406571 0.181522 0.096981
Si Si5 0.251157 0.825789 0.438530
O O1 0.640236 0.436686 0.228190
O O2 0.669728 0.452546 0.062807
O O3 0.313299 0.375344 0.118146
O O4 0.819626 0.339485 0.140898
O O5 0.500000 0.500000 0.362492
O O6 0.766469 0.385544 0.371745
O O7 0.000000 0.500000 0.319981
O O8 0.250000 0.250000 0.119041
O O9 0.500000 0.186469 0.000000
O O10 0.500000 0.829835 0.500000
O O11 0.250000 0.750000 0.399948
O O12 0.000000 0.832878 0.500000
#
# Coordination Sequence:
#
# PCOD9324884 Si02
#       5
#     8   8   2   8   8
#     4  12  26  42  68  96 133 184 233 292 354 418
#     4  12  26  44  69 107 146 179 239 303 357 422
#     4  12  24  46  68  94 134 194 244 276 352 418
#     4  12  24  43  64  93 125 171 231 295 357 421
#     4  10  23  45  73 104 143 190 234 280 355 449
#
# _framework density 21.508354000000001
#
# number of rings (size 3 to 8) (size 9 to 14) (size 15 to 20)
#    0.000    0.471    3.529    4.941    0.000    5.647 
#    0.000    2.353    0.000    0.000    0.000    0.000 
#    0.000    0.000    0.000    0.000    0.000    0.000 
#
# Total GULP energy -95062.196373 kJ/mol
# GULP energy per Si atom -5591.893904 kJ/mol
# Density = 2.145940 g / cm^3
# Si number density = 21.508354 Si / 1000 Ang^3
#
#
#
# Elastic Constant Matrix: (Units=GPa)
#
#
# Indices 1 2 3 4 5 6 
#
# 1 136.6449 37.5442 20.8563 0.0000 0.0000 0.0000
# 2 37.5442 156.1427 80.7687 0.0000 0.0000 0.0000
# 3 20.8563 80.7687 87.7334 0.0000 0.0000 0.0000
# 4 0.0000 0.0000 0.0000 12.7130 0.0000 0.0000
# 5 0.0000 0.0000 0.0000 0.0000 1.5227 0.0000
# 6 0.0000 0.0000 0.0000 0.0000 0.0000 44.2380
#
#
#
# Elastic Compliance Matrix: (Units=1/GPa)
#
#
# Indices 1 2 3 4 5 6 
#
# 1 0.007839 -0.001758 -0.000245 0.000000 0.000000 0.000000
# 2 -0.001758 0.012621 -0.011201 0.000000 0.000000 0.000000
# 3 -0.000245 -0.011201 0.021769 0.000000 0.000000 0.000000
# 4 0.000000 0.000000 0.000000 0.078659 0.000000 0.000000
# 5 0.000000 0.000000 0.000000 0.000000 0.656732 0.000000
# 6 0.000000 0.000000 0.000000 0.000000 0.000000 0.022605
#
#
# Mechanical properties :
#
#
# Convention : Reuss Voigt Hill
#
# Bulk Modulus (GPa) = 63.21229 73.20661 68.20945
# Shear Modulus (GPa) = 6.01029 27.78487 16.89758
#
# Velocity S-wave (km/s) = 1.67346 3.59809 2.80595
# Velocity P-wave (km/s) = 5.76085 7.16742 6.50228
#
# Compressibility (1/GPa) = 0.01581971
#
# Stress axis : x y z
#
# Youngs Moduli (GPa) = 127.57256 79.23064 45.93765
#
# Poissons Ratio (x) = 0.13930 0.01125
# Poissons Ratio (y) = 0.22429 0.51457
# Poissons Ratio (z) = 0.03124 0.88750
#
# Static dielectric constant tensor:
#      x y z
#    x 1.757730 0.000000 0.000000 
#    y 0.000000 1.905940 0.000000 
#    z 0.000000 0.000000 1.742790 
# 
# From -- ./inp_files/28733.got.cif
#   From: 2010.05.17/outbox.cif.g08.bks.cpg/sg21_15_cif.got.tgz:28733.got - 2010.06.03 23:14:55.
