data_PCOD9324848
_publ_section_title
;
Structure prediction by ZEFSAII (Michael W. Deem and Ramdas Pophale) SiO2 
 PCOD9324848
Probable space group: C 2 2 2
;
_chemical_formula_sum "Si O2"
_cell_formula_units_Z 24
_cell_length_a 17.534947
_cell_length_b 11.103667
_cell_length_c 4.962951
_cell_angle_alpha 90.000000
_cell_angle_beta 90.000000
_cell_angle_gamma 90.000000
_cell_volume 966.297539
_symmetry_space_group_name_H-M "C 2 2 2"
_symmetry_group_IT_number 21
_symmetry_cell_setting 'orthorhombic'
loop_
_space_group_symop_operation_xyz
x,y,z
-x,-y,z
x,-y,-z
-x,y,-z
1/2+x,1/2+y,z
1/2-x,1/2-y,z
1/2+x,1/2-y,-z
1/2-x,1/2+y,-z
loop_
_atom_site_type_symbol
_atom_site_label
_atom_site_fract_x
_atom_site_fract_y
_atom_site_fract_z
Si Si1 0.740283 0.618090 0.654939
Si Si2 0.618670 0.861687 0.016702
Si Si3 0.917711 0.199432 0.460004
O O1 0.769421 0.500000 0.500000
O O2 0.750000 0.750000 0.521877
O O3 0.791638 0.632085 0.921731
O O4 0.648761 0.612555 0.657167
O O5 0.574989 0.797047 0.775054
O O6 0.605906 0.778430 0.277154
O O7 0.593988 0.000000 0.000000
O O8 0.000000 0.141755 0.500000
#
# Coordination Sequence:
#
# PCOD9324848 Si02
#       3
#     8   8   8
#     4  10  23  43  70 101 135 177 229 280 333 400
#     4  11  23  42  68 100 135 181 234 283 335 400
#     4  11  25  43  66 100 140 179 223 281 347 409
#
# _framework density 24.837069
#
# number of rings (size 3 to 8) (size 9 to 14) (size 15 to 20)
#    0.000    1.333    0.000    6.000    0.000   24.667 
#    0.000    0.000    0.000    8.000    0.000    0.000 
#    0.000    0.000    0.000    0.000    0.000    0.000 
#
# Total GULP energy -66927.038252 kJ/mol
# GULP energy per Si atom -5577.253188 kJ/mol
# Density = 2.478054 g / cm^3
# Si number density = 24.837069 Si / 1000 Ang^3
#
#
#
# Elastic Constant Matrix: (Units=GPa)
#
#
# Indices 1 2 3 4 5 6 
#
# 1 148.0860 -15.6379 15.7714 0.0000 0.0000 0.0000
# 2 -15.6379 108.8253 15.5858 0.0000 0.0000 0.0000
# 3 15.7714 15.5858 140.7050 0.0000 0.0000 0.0000
# 4 0.0000 0.0000 0.0000 17.2593 0.0000 0.0000
# 5 0.0000 0.0000 0.0000 0.0000 6.2400 0.0000
# 6 0.0000 0.0000 0.0000 0.0000 0.0000 -9.9601
#
#
#
# Elastic Compliance Matrix: (Units=1/GPa)
#
#
# Indices 1 2 3 4 5 6 
#
# 1 0.006969 0.001131 -0.000906 0.000000 0.000000 0.000000
# 2 0.001131 0.009521 -0.001181 0.000000 0.000000 0.000000
# 3 -0.000906 -0.001181 0.007340 0.000000 0.000000 0.000000
# 4 0.000000 0.000000 0.000000 0.057940 0.000000 0.000000
# 5 0.000000 0.000000 0.000000 0.000000 0.160256 0.000000
# 6 0.000000 0.000000 0.000000 0.000000 0.000000 -0.100400
#
#
# Mechanical properties :
#
#
# Convention : Reuss Voigt Hill
#
# Bulk Modulus (GPa) = 45.62895 47.67277 46.65086
# Shear Modulus (GPa) = 33.14696 28.16763 30.65730
#
# Velocity S-wave (km/s) = 3.65715 3.37129 3.51712
# Velocity P-wave (km/s) = 6.02031 5.86430 5.94282
#
# Compressibility (1/GPa) = 0.02191591
#
# Stress axis : x y z
#
# Youngs Moduli (GPa) = 143.49620 105.03327 136.24849
#
# Poissons Ratio (x) = -0.11882 0.12350
# Poissons Ratio (y) = -0.16233 0.16097
# Poissons Ratio (z) = 0.13007 0.12409
#
# Static dielectric constant tensor:
#      x y z
#    x 2.149580 0.000000 0.000000 
#    y 0.000000 2.067190 0.000000 
#    z 0.000000 0.000000 1.987160 
# 
# From -- ./inp_files/2191.got.cif
#   From: 2010.05.17/outbox.cif.g08.bks.cpg/sg21_2_cif.got.tgz:2191.got - 2010.06.03 23:14:55.
