data_PCOD9324775
_publ_section_title
;
Structure prediction by ZEFSAII (Michael W. Deem and Ramdas Pophale) SiO2 
 PCOD9324775
Probable space group: C 2 2 2
;
_chemical_formula_sum "Si O2"
_cell_formula_units_Z 48
_cell_length_a 11.672541
_cell_length_b 13.936387
_cell_length_c 15.289298
_cell_angle_alpha 90.000000
_cell_angle_beta 90.000000
_cell_angle_gamma 90.000000
_cell_volume 2487.156717
_symmetry_space_group_name_H-M "C 2 2 2"
_symmetry_group_IT_number 21
_symmetry_cell_setting 'orthorhombic'
loop_
_space_group_symop_operation_xyz
x,y,z
-x,-y,z
x,-y,-z
-x,y,-z
1/2+x,1/2+y,z
1/2-x,1/2-y,z
1/2+x,1/2-y,-z
1/2-x,1/2+y,-z
loop_
_atom_site_type_symbol
_atom_site_label
_atom_site_fract_x
_atom_site_fract_y
_atom_site_fract_z
Si Si1 0.590405 0.729315 0.228618
Si Si2 0.338814 0.332774 0.715708
Si Si3 0.364470 0.517288 0.829440
Si Si4 0.122843 0.295433 0.034699
Si Si5 0.750000 0.750000 0.379447
Si Si6 0.707793 0.000000 0.000000
Si Si7 0.867021 0.113436 0.485487
O O1 0.460150 0.708008 0.252235
O O2 0.643985 0.623341 0.211387
O O3 0.609551 0.787413 0.139517
O O4 0.648536 0.776008 0.312810
O O5 0.250000 0.250000 0.738247
O O6 0.323434 0.433929 0.764501
O O7 0.336682 0.354707 0.612454
O O8 0.500000 0.500000 0.847501
O O9 0.290106 0.509726 0.916337
O O10 0.250000 0.250000 0.013050
O O11 0.133841 0.403188 0.998932
O O12 0.000000 0.252474 0.000000
O O13 0.791295 0.834123 0.442362
O O14 0.000000 0.139660 0.500000
O O15 0.857033 0.000000 0.500000
#
# Coordination Sequence:
#
# PCOD9324775 Si02
#       7
#     8   8   8   8   4   4   8
#     4  11  23  43  67  95 132 182 225 275 346 413
#     4  11  24  40  64 103 136 175 228 283 338 403
#     4  10  23  39  67  99 133 173 231 287 341 413
#     4  12  28  45  69  99 138 182 232 287 349 414
#     4  12  20  40  70  92 134 170 214 274 336 412
#     4  12  24  44  66 100 137 174 231 284 363 402
#     4  11  23  39  67  99 133 172 224 278 336 405
#
# _framework density 19.299146
#
# number of rings (size 3 to 8) (size 9 to 14) (size 15 to 20)
#    0.000    0.833    5.000    1.500   11.667    0.000 
#    0.000    0.000    0.000    5.500    0.000    0.000 
#    0.000    0.000    0.000    0.000    0.000    0.000 
#
# Total GULP energy -134046.696698 kJ/mol
# GULP energy per Si atom -5585.279029 kJ/mol
# Density = 1.925522 g / cm^3
# Si number density = 19.299146 Si / 1000 Ang^3
#
#
#
# Elastic Constant Matrix: (Units=GPa)
#
#
# Indices 1 2 3 4 5 6 
#
# 1 103.5312 51.1053 66.8911 0.0000 0.0000 0.0000
# 2 51.1053 75.7533 29.7895 0.0000 0.0000 0.0000
# 3 66.8911 29.7895 105.5907 0.0000 0.0000 0.0000
# 4 0.0000 0.0000 0.0000 37.2194 0.0000 0.0000
# 5 0.0000 0.0000 0.0000 0.0000 -33.3457 0.0000
# 6 0.0000 0.0000 0.0000 0.0000 0.0000 34.0401
#
#
#
# Elastic Compliance Matrix: (Units=1/GPa)
#
#
# Indices 1 2 3 4 5 6 
#
# 1 0.021868 -0.010466 -0.010901 0.000000 0.000000 0.000000
# 2 -0.010466 0.019857 0.001028 0.000000 0.000000 0.000000
# 3 -0.010901 0.001028 0.016086 0.000000 0.000000 0.000000
# 4 0.000000 0.000000 0.000000 0.026868 0.000000 0.000000
# 5 0.000000 0.000000 0.000000 0.000000 -0.029989 0.000000
# 6 0.000000 0.000000 0.000000 0.000000 0.000000 0.029377
#
#
# Mechanical properties :
#
#
# Convention : Reuss Voigt Hill
#
# Bulk Modulus (GPa) = 58.36374 64.49410 61.42892
# Shear Modulus (GPa) = 38.32716 16.72205 27.52461
#
# Velocity S-wave (km/s) = 4.46124 2.94677 3.78061
# Velocity P-wave (km/s) = 7.53950 6.71332 7.13837
#
# Compressibility (1/GPa) = 0.01713393
#
# Stress axis : x y z
#
# Youngs Moduli (GPa) = 45.72879 50.35945 62.16625
#
# Poissons Ratio (x) = 0.52707 0.67765
# Poissons Ratio (y) = 0.47861 -0.06391
# Poissons Ratio (z) = 0.49847 -0.05178
#
# Static dielectric constant tensor:
#      x y z
#    x 1.719020 0.000000 0.000000 
#    y 0.000000 1.637380 0.000000 
#    z 0.000000 0.000000 1.656640 
# 
# From -- ./inp_files/31525.got.cif
#   From: 2010.05.17/outbox.cif.g08.bks.cpg/sg21_16_cif.got.tgz:31525.got - 2010.06.03 23:14:55.
