data_PCOD9324823
_publ_section_title
;
Structure prediction by ZEFSAII (Michael W. Deem and Ramdas Pophale) SiO2 
 PCOD9324823
Probable space group: C 2 2 2
;
_chemical_formula_sum "Si O2"
_cell_formula_units_Z 48
_cell_length_a 16.580787
_cell_length_b 9.276397
_cell_length_c 15.103316
_cell_angle_alpha 90.000000
_cell_angle_beta 90.000000
_cell_angle_gamma 90.000000
_cell_volume 2323.040472
_symmetry_space_group_name_H-M "C 2 2 2"
_symmetry_group_IT_number 21
_symmetry_cell_setting 'orthorhombic'
loop_
_space_group_symop_operation_xyz
x,y,z
-x,-y,z
x,-y,-z
-x,y,-z
1/2+x,1/2+y,z
1/2-x,1/2-y,z
1/2+x,1/2-y,-z
1/2-x,1/2+y,-z
loop_
_atom_site_type_symbol
_atom_site_label
_atom_site_fract_x
_atom_site_fract_y
_atom_site_fract_z
Si Si1 0.862479 0.000000 0.500000
Si Si2 0.000000 0.215040 0.000000
Si Si3 0.928005 0.387002 0.655613
Si Si4 0.746433 0.927015 0.845858
Si Si5 0.363980 0.500000 0.000000
Si Si6 0.421664 0.903173 0.848847
Si Si7 0.750163 0.079596 0.662568
Si Si8 0.500000 0.298758 0.500000
O O1 0.807933 0.941144 0.420968
O O2 0.926232 0.888079 0.541475
O O3 0.928151 0.116830 0.037562
O O4 0.052841 0.304202 0.069913
O O5 0.915471 0.322377 0.754331
O O6 0.841718 0.457214 0.634790
O O7 0.955696 0.284296 0.578000
O O8 0.000000 0.500000 0.660231
O O9 0.750000 0.750000 0.855104
O O10 0.656573 0.994978 0.860453
O O11 0.770138 0.979789 0.746991
O O12 0.803202 0.009193 0.916853
O O13 0.500000 0.000000 0.840629
O O14 0.750000 0.250000 0.686055
#
# Coordination Sequence:
#
# PCOD9324823 Si02
#       8
#     4   4   8   8   4   8   8   4
#     4  11  26  40  67  98 136 180 225 290 350 409
#     4  11  25  44  66 104 139 189 230 288 353 425
#     4  10  23  42  67  96 131 178 228 275 340 418
#     4  11  27  45  72 106 142 187 238 295 356 425
#     4  11  28  42  69 104 142 182 239 290 352 423
#     4  10  23  42  70  97 138 182 232 281 350 421
#     4  11  25  46  70 103 140 185 232 289 355 421
#     4  11  23  42  62  96 137 177 226 280 350 411
#
# _framework density 20.662576999999999
#
# number of rings (size 3 to 8) (size 9 to 14) (size 15 to 20)
#    0.000    1.333    1.667    1.500   11.667    6.000 
#    0.000    3.333    0.000    0.000    0.000    0.000 
#    0.000    0.000    0.000    0.000    0.000    0.000 
#
# Total GULP energy -133631.246880 kJ/mol
# GULP energy per Si atom -5567.968620 kJ/mol
# Density = 2.061555 g / cm^3
# Si number density = 20.662577 Si / 1000 Ang^3
#
#
#
# Elastic Constant Matrix: (Units=GPa)
#
#
# Indices 1 2 3 4 5 6 
#
# 1 159.1394 25.7150 59.0832 0.0000 0.0000 0.0000
# 2 25.7150 53.2268 31.3610 0.0000 0.0000 0.0000
# 3 59.0832 31.3610 98.2557 0.0000 0.0000 0.0000
# 4 0.0000 0.0000 0.0000 27.2367 0.0000 0.0000
# 5 0.0000 0.0000 0.0000 0.0000 48.7592 0.0000
# 6 0.0000 0.0000 0.0000 0.0000 0.0000 30.1212
#
#
#
# Elastic Compliance Matrix: (Units=1/GPa)
#
#
# Indices 1 2 3 4 5 6 
#
# 1 0.008162 -0.001295 -0.004494 0.000000 0.000000 0.000000
# 2 -0.001295 0.023344 -0.006672 0.000000 0.000000 0.000000
# 3 -0.004494 -0.006672 0.015010 0.000000 0.000000 0.000000
# 4 0.000000 0.000000 0.000000 0.036715 0.000000 0.000000
# 5 0.000000 0.000000 0.000000 0.000000 0.020509 0.000000
# 6 0.000000 0.000000 0.000000 0.000000 0.000000 0.033199
#
#
# Mechanical properties :
#
#
# Convention : Reuss Voigt Hill
#
# Bulk Modulus (GPa) = 46.31255 60.32672 53.31964
# Shear Modulus (GPa) = 29.57524 34.18761 31.88142
#
# Velocity S-wave (km/s) = 3.78741 4.07205 3.93231
# Velocity P-wave (km/s) = 6.44891 7.16717 6.81750
#
# Compressibility (1/GPa) = 0.02159242
#
# Stress axis : x y z
#
# Youngs Moduli (GPa) = 122.52350 42.83665 66.62309
#
# Poissons Ratio (x) = 0.05547 0.29944
# Poissons Ratio (y) = 0.15866 0.44453
# Poissons Ratio (z) = 0.55068 0.28582
#
# Static dielectric constant tensor:
#      x y z
#    x 1.624580 0.000000 0.000000 
#    y 0.000000 1.717620 0.000000 
#    z 0.000000 0.000000 1.839390 
# 
# From -- ./inp_files/32881.got.cif
#   From: 2010.05.17/outbox.cif.g08.bks.cpg/sg21_17_cif.got.tgz:32881.got - 2010.06.03 23:14:55.
