data_PCOD9324569
_publ_section_title
;
Structure prediction by ZEFSAII (Michael W. Deem and Ramdas Pophale) SiO2 
 PCOD9324569
Probable space group: C 2 2 2
;
_chemical_formula_sum "Si O2"
_cell_formula_units_Z 54
_cell_length_a 14.647807
_cell_length_b 14.075291
_cell_length_c 12.259062
_cell_angle_alpha 90.000000
_cell_angle_beta 90.000000
_cell_angle_gamma 90.000000
_cell_volume 2527.477121
_symmetry_space_group_name_H-M "C 2 2 2"
_symmetry_group_IT_number 21
_symmetry_cell_setting 'orthorhombic'
loop_
_space_group_symop_operation_xyz
x,y,z
-x,-y,z
x,-y,-z
-x,y,-z
1/2+x,1/2+y,z
1/2-x,1/2-y,z
1/2+x,1/2-y,-z
1/2-x,1/2+y,-z
loop_
_atom_site_type_symbol
_atom_site_label
_atom_site_fract_x
_atom_site_fract_y
_atom_site_fract_z
Si Si1 0.061430 0.907990 0.767858
Si Si2 0.500000 0.000000 0.500000
Si Si3 0.081588 0.354360 0.912479
Si Si4 0.278882 0.000000 0.000000
Si Si5 0.432435 0.688011 0.402645
Si Si6 0.832442 0.811489 0.049868
Si Si7 0.795844 0.021039 0.380973
Si Si8 0.617171 0.120154 0.327542
O O1 0.089168 0.840558 0.867234
O O2 0.998402 0.843037 0.693815
O O3 0.148420 0.946236 0.695578
O O4 0.000000 0.000000 0.800146
O O5 0.559234 0.063768 0.417214
O O6 0.150406 0.443254 0.924140
O O7 0.061041 0.361067 0.784347
O O8 0.131629 0.255672 0.950962
O O9 0.000000 0.365697 0.000000
O O10 0.212229 0.913437 0.972188
O O11 0.500000 0.712600 0.500000
O O12 0.372389 0.595304 0.420627
O O13 0.367657 0.774939 0.374740
O O14 0.750000 0.750000 0.101615
O O15 0.714206 0.068153 0.312213
O O16 0.752590 0.000000 0.500000
#
# Coordination Sequence:
#
# PCOD9324569 Si02
#       8
#     8   2   8   4   8   8   8   8
#     4  10  22  41  71 100 138 184 227 290 347 414
#     4  12  28  44  66 100 136 172 228 294 340 412
#     4  11  25  45  73 100 137 187 235 285 354 420
#     4  10  23  42  69  98 138 180 230 284 343 409
#     4  11  22  41  66  96 137 180 230 287 348 411
#     4  10  23  44  64 102 135 176 231 291 342 414
#     4  11  22  41  68 101 137 186 233 286 352 419
#     4  12  26  46  67 101 141 179 235 289 346 418
#
# _framework density 21.365178
#
# number of rings (size 3 to 8) (size 9 to 14) (size 15 to 20)
#    0.000    1.185    2.963    2.444    2.074    7.111 
#    5.333    0.000    0.000    0.000    0.000    0.000 
#    0.000    0.000    0.000    0.000    0.000    0.000 
#
# Total GULP energy -150463.172274 kJ/mol
# GULP energy per Si atom -5572.710084 kJ/mol
# Density = 2.131655 g / cm^3
# Si number density = 21.365178 Si / 1000 Ang^3
#
#
#
# Elastic Constant Matrix: (Units=GPa)
#
#
# Indices 1 2 3 4 5 6 
#
# 1 85.2990 27.6944 28.6148 0.0000 0.0000 0.0000
# 2 27.6944 118.8201 42.3987 0.0000 0.0000 0.0000
# 3 28.6148 42.3987 101.0649 0.0000 0.0000 0.0000
# 4 0.0000 0.0000 0.0000 11.7043 0.0000 0.0000
# 5 0.0000 0.0000 0.0000 0.0000 43.6986 0.0000
# 6 0.0000 0.0000 0.0000 0.0000 0.0000 -122.7762
#
#
#
# Elastic Compliance Matrix: (Units=1/GPa)
#
#
# Indices 1 2 3 4 5 6 
#
# 1 0.013376 -0.002077 -0.002916 0.000000 0.000000 0.000000
# 2 -0.002077 0.010220 -0.003699 0.000000 0.000000 0.000000
# 3 -0.002916 -0.003699 0.012272 0.000000 0.000000 0.000000
# 4 0.000000 0.000000 0.000000 0.085438 0.000000 0.000000
# 5 0.000000 0.000000 0.000000 0.000000 0.022884 0.000000
# 6 0.000000 0.000000 0.000000 0.000000 0.000000 -0.008145
#
#
# Mechanical properties :
#
#
# Convention : Reuss Voigt Hill
#
# Bulk Modulus (GPa) = 54.10205 55.84441 54.97323
# Shear Modulus (GPa) = 31.32983 0.29041 15.81012
#
# Velocity S-wave (km/s) = 3.83351 0.36909 2.72324
# Velocity P-wave (km/s) = 6.70611 5.13580 5.97279
#
# Compressibility (1/GPa) = 0.01848359
#
# Stress axis : x y z
#
# Youngs Moduli (GPa) = 74.76062 97.84414 81.48500
#
# Poissons Ratio (x) = 0.20324 0.23759
# Poissons Ratio (y) = 0.15529 0.30145
# Poissons Ratio (z) = 0.21798 0.36197
#
# Static dielectric constant tensor:
#      x y z
#    x 1.822510 0.000000 0.000000 
#    y 0.000000 2.047900 0.000000 
#    z 0.000000 0.000000 2.061350 
# 
# From -- ./inp_files/25343.got.cif
#   From: 2010.05.17/outbox.cif.g08.bks.cpg/sg21_13_cif.got.tgz:25343.got - 2010.06.03 23:14:55.
