data_PCOD9324310
_publ_section_title
;
Structure prediction by ZEFSAII (Michael W. Deem and Ramdas Pophale) SiO2 
 PCOD9324310
Probable space group: C 2 2 2
;
_chemical_formula_sum "Si O2"
_cell_formula_units_Z 32
_cell_length_a 10.272670
_cell_length_b 11.087440
_cell_length_c 13.245055
_cell_angle_alpha 90.000000
_cell_angle_beta 90.000000
_cell_angle_gamma 90.000000
_cell_volume 1508.580139
_symmetry_space_group_name_H-M "C 2 2 2"
_symmetry_group_IT_number 21
_symmetry_cell_setting 'orthorhombic'
loop_
_space_group_symop_operation_xyz
x,y,z
-x,-y,z
x,-y,-z
-x,y,-z
1/2+x,1/2+y,z
1/2-x,1/2-y,z
1/2+x,1/2-y,-z
1/2-x,1/2+y,-z
loop_
_atom_site_type_symbol
_atom_site_label
_atom_site_fract_x
_atom_site_fract_y
_atom_site_fract_z
Si Si1 0.144308 0.955176 0.861628
Si Si2 0.750000 0.250000 0.717206
Si Si3 0.002812 0.643829 0.614050
Si Si4 0.000000 0.211340 0.000000
Si Si5 0.602440 0.887960 0.824314
O O1 0.186751 0.852245 0.784847
O O2 0.115603 0.877612 0.963316
O O3 0.257746 0.055046 0.852806
O O4 0.000000 0.000000 0.834036
O O5 0.859205 0.313819 0.653405
O O6 0.000000 0.500000 0.604303
O O7 0.000000 0.695118 0.500000
O O8 0.905635 0.666913 0.710117
O O9 0.051118 0.293848 0.908198
O O10 0.500000 0.000000 0.826480
#
# Coordination Sequence:
#
# PCOD9324310 Si02
#       5
#     8   4   8   4   8
#     4  12  27  44  67 103 144 184 237 291 345 425
#     4  12  22  50  72 102 146 184 234 298 350 424
#     4  10  21  45  78 104 138 187 233 296 358 422
#     4  12  26  44  70 100 146 188 230 292 360 416
#     4  11  23  45  73 101 138 190 234 284 361 429
#
# _framework density 21.211998000000001
#
# number of rings (size 3 to 8) (size 9 to 14) (size 15 to 20)
#    0.000    0.750    7.500    0.750    0.000   11.000 
#    4.500    0.000    0.000    0.000    0.000    0.000 
#    0.000    0.000    0.000    0.000    0.000    0.000 
#
# Total GULP energy -89320.518395 kJ/mol
# GULP energy per Si atom -5582.532400 kJ/mol
# Density = 2.116372 g / cm^3
# Si number density = 21.211998 Si / 1000 Ang^3
#
#
#
# Elastic Constant Matrix: (Units=GPa)
#
#
# Indices 1 2 3 4 5 6 
#
# 1 171.1723 57.9075 83.2523 0.0000 0.0000 0.0000
# 2 57.9075 89.0563 59.0213 0.0000 0.0000 0.0000
# 3 83.2523 59.0213 201.9445 0.0000 0.0000 0.0000
# 4 0.0000 0.0000 0.0000 89.9409 0.0000 0.0000
# 5 0.0000 0.0000 0.0000 0.0000 -264.7718 0.0000
# 6 0.0000 0.0000 0.0000 0.0000 0.0000 34.0589
#
#
#
# Elastic Compliance Matrix: (Units=1/GPa)
#
#
# Indices 1 2 3 4 5 6 
#
# 1 0.008254 -0.003860 -0.002275 0.000000 0.000000 0.000000
# 2 -0.003860 0.015731 -0.003007 0.000000 0.000000 0.000000
# 3 -0.002275 -0.003007 0.006768 0.000000 0.000000 0.000000
# 4 0.000000 0.000000 0.000000 0.011118 0.000000 0.000000
# 5 0.000000 0.000000 0.000000 0.000000 -0.003777 0.000000
# 6 0.000000 0.000000 0.000000 0.000000 0.000000 0.029361
#
#
# Mechanical properties :
#
#
# Convention : Reuss Voigt Hill
#
# Bulk Modulus (GPa) = 80.18082 95.83724 88.00903
# Shear Modulus (GPa) = 55.62054 -10.68827 22.46614
#
# Velocity S-wave (km/s) = 5.12623 -2.24716 3.25795
# Velocity P-wave (km/s) = 8.53929 6.20853 7.46543
#
# Compressibility (1/GPa) = 0.01247181
#
# Stress axis : x y z
#
# Youngs Moduli (GPa) = 121.15166 63.56878 147.74671
#
# Poissons Ratio (x) = 0.24535 0.33609
# Poissons Ratio (y) = 0.46759 0.44420
# Poissons Ratio (z) = 0.27559 0.19112
#
# Static dielectric constant tensor:
#      x y z
#    x 1.744050 0.000000 0.000000 
#    y 0.000000 1.809240 0.000000 
#    z 0.000000 0.000000 1.848740 
# 
# From -- ./inp_files/29966.got.cif
#   From: 2010.05.17/outbox.cif.g08.bks.cpg/sg21_15_cif.got.tgz:29966.got - 2010.06.03 23:14:55.
