data_PCOD9324954
_publ_section_title
;
Structure prediction by ZEFSAII (Michael W. Deem and Ramdas Pophale) SiO2 
 PCOD9324954
Probable space group: C 2 2 2
;
_chemical_formula_sum "Si O2"
_cell_formula_units_Z 38
_cell_length_a 26.850501
_cell_length_b 4.843221
_cell_length_c 13.319578
_cell_angle_alpha 90.000000
_cell_angle_beta 90.000000
_cell_angle_gamma 90.000000
_cell_volume 1732.116687
_symmetry_space_group_name_H-M "C 2 2 2"
_symmetry_group_IT_number 21
_symmetry_cell_setting 'orthorhombic'
loop_
_space_group_symop_operation_xyz
x,y,z
-x,-y,z
x,-y,-z
-x,y,-z
1/2+x,1/2+y,z
1/2-x,1/2-y,z
1/2+x,1/2-y,-z
1/2-x,1/2+y,-z
loop_
_atom_site_type_symbol
_atom_site_label
_atom_site_fract_x
_atom_site_fract_y
_atom_site_fract_z
Si Si1 0.105212 0.456228 0.231522
Si Si2 0.000000 0.500000 0.856410
Si Si3 0.250000 0.250000 0.834651
Si Si4 0.346327 0.253986 0.430230
Si Si5 0.500000 0.500000 0.000000
Si Si6 0.750000 0.250000 0.691404
Si Si7 0.854709 0.035828 0.112408
O O1 0.047518 0.404765 0.206559
O O2 0.117916 0.371692 0.344823
O O3 0.119191 0.761258 0.192854
O O4 0.138501 0.261423 0.160738
O O5 0.980626 0.763290 0.921936
O O6 0.233928 0.498089 0.761644
O O7 0.202147 0.141895 0.894746
O O8 0.366536 0.500000 0.500000
O O9 0.296336 0.352382 0.374162
O O10 0.331290 0.000000 0.500000
O O11 0.876062 0.000000 0.000000
#
# Coordination Sequence:
#
# PCOD9324954 Si02
#       7
#     8   4   4   8   2   4   8
#     4  12  26  46  68 102 141 179 239 293 355 412
#     4  11  26  44  71 102 142 180 229 304 343 416
#     4  12  22  44  64  96 148 184 232 276 348 412
#     4  12  24  43  70 101 134 180 233 289 355 424
#     4  10  24  42  72 106 130 178 236 278 356 414
#     4  12  22  42  66 100 134 186 222 304 342 412
#     4  12  26  42  69  99 141 195 232 277 345 429
#
# _framework density 21.938476999999999
#
# number of rings (size 3 to 8) (size 9 to 14) (size 15 to 20)
#    0.000    0.211    4.211    5.053    8.842    2.526 
#    0.000    0.526    0.000    1.263    0.000    0.000 
#    0.000    0.000    0.000    0.000    0.000    0.000 
#
# Total GULP energy -106131.989909 kJ/mol
# GULP energy per Si atom -5585.894206 kJ/mol
# Density = 2.188854 g / cm^3
# Si number density = 21.938477 Si / 1000 Ang^3
#
#
#
# Elastic Constant Matrix: (Units=GPa)
#
#
# Indices 1 2 3 4 5 6 
#
# 1 120.3838 2.8547 35.3383 0.0000 0.0000 0.0000
# 2 2.8547 93.4959 31.9806 0.0000 0.0000 0.0000
# 3 35.3383 31.9806 125.8331 0.0000 0.0000 0.0000
# 4 0.0000 0.0000 0.0000 26.5336 0.0000 0.0000
# 5 0.0000 0.0000 0.0000 0.0000 56.1846 0.0000
# 6 0.0000 0.0000 0.0000 0.0000 0.0000 13.1189
#
#
#
# Elastic Compliance Matrix: (Units=1/GPa)
#
#
# Indices 1 2 3 4 5 6 
#
# 1 0.009089 0.000652 -0.002718 0.000000 0.000000 0.000000
# 2 0.000652 0.011761 -0.003172 0.000000 0.000000 0.000000
# 3 -0.002718 -0.003172 0.009517 0.000000 0.000000 0.000000
# 4 0.000000 0.000000 0.000000 0.037688 0.000000 0.000000
# 5 0.000000 0.000000 0.000000 0.000000 0.017798 0.000000
# 6 0.000000 0.000000 0.000000 0.000000 0.000000 0.076226
#
#
# Mechanical properties :
#
#
# Convention : Reuss Voigt Hill
#
# Bulk Modulus (GPa) = 50.27601 53.33999 51.80800
# Shear Modulus (GPa) = 27.90401 37.13670 32.52035
#
# Velocity S-wave (km/s) = 3.57027 4.11879 3.85430
# Velocity P-wave (km/s) = 6.32158 6.85459 6.59347
#
# Compressibility (1/GPa) = 0.01989020
#
# Stress axis : x y z
#
# Youngs Moduli (GPa) = 110.01994 85.02818 105.07885
#
# Poissons Ratio (x) = -0.05546 0.28564
# Poissons Ratio (y) = -0.07177 0.33333
# Poissons Ratio (z) = 0.29907 0.26973
#
# Static dielectric constant tensor:
#      x y z
#    x 1.925690 0.000000 0.000000 
#    y 0.000000 1.768250 0.000000 
#    z 0.000000 0.000000 1.827090 
# 
# From -- ./inp_files/27681.got.cif
#   From: 2010.05.17/outbox.cif.g08.bks.cpg/sg21_14_cif.got.tgz:27681.got - 2010.06.03 23:14:55.
