data_PCOD9324794
_publ_section_title
;
Structure prediction by ZEFSAII (Michael W. Deem and Ramdas Pophale) SiO2 
 PCOD9324794
Probable space group: C 2 2 2
;
_chemical_formula_sum "Si O2"
_cell_formula_units_Z 40
_cell_length_a 16.063078
_cell_length_b 11.531543
_cell_length_c 9.199216
_cell_angle_alpha 90.000000
_cell_angle_beta 90.000000
_cell_angle_gamma 90.000000
_cell_volume 1703.989865
_symmetry_space_group_name_H-M "C 2 2 2"
_symmetry_group_IT_number 21
_symmetry_cell_setting 'orthorhombic'
loop_
_space_group_symop_operation_xyz
x,y,z
-x,-y,z
x,-y,-z
-x,y,-z
1/2+x,1/2+y,z
1/2-x,1/2-y,z
1/2+x,1/2-y,-z
1/2-x,1/2+y,-z
loop_
_atom_site_type_symbol
_atom_site_label
_atom_site_fract_x
_atom_site_fract_y
_atom_site_fract_z
Si Si1 0.140851 0.389364 0.417522
Si Si2 0.797464 0.000000 0.500000
Si Si3 0.626915 0.117181 0.922184
Si Si4 0.000000 0.787726 0.500000
Si Si5 0.604679 0.602459 0.744144
Si Si6 0.000000 0.819270 0.000000
Si Si7 0.250000 0.250000 0.876256
O O1 0.101690 0.500000 0.500000
O O2 0.233766 0.392103 0.484138
O O3 0.147153 0.408643 0.245255
O O4 0.080127 0.285368 0.451603
O O5 0.849659 0.004819 0.351543
O O6 0.563451 0.226489 0.924712
O O7 0.706558 0.156178 0.017788
O O8 0.594631 0.000000 0.000000
O O9 0.032943 0.858309 0.364890
O O10 0.677587 0.695047 0.778692
O O11 0.556602 0.602430 0.895841
#
# Coordination Sequence:
#
# PCOD9324794 Si02
#       7
#     8   4   8   4   8   4   4
#     4  10  24  41  65 110 135 188 224 298 339 438
#     4  10  24  44  72  92 148 178 248 274 362 418
#     4  11  22  40  69 104 144 189 231 296 362 429
#     4  12  23  39  76  98 150 168 236 281 377 400
#     4  11  23  45  68 104 135 193 224 304 345 441
#     4  10  23  40  68 105 140 184 237 294 363 412
#     4  10  24  42  72 104 150 176 252 292 368 418
#
# _framework density 23.474318
#
# number of rings (size 3 to 8) (size 9 to 14) (size 15 to 20)
#    0.600    0.800    2.000    3.000    5.600    3.600 
#    0.000    0.000   13.200    0.000    0.000    0.000 
#    0.000    0.000    0.000    0.000    0.000    0.000 
#
# Total GULP energy -111654.690988 kJ/mol
# GULP energy per Si atom -5582.734549 kJ/mol
# Density = 2.342089 g / cm^3
# Si number density = 23.474318 Si / 1000 Ang^3
#
#
#
# Elastic Constant Matrix: (Units=GPa)
#
#
# Indices 1 2 3 4 5 6 
#
# 1 150.3632 45.2569 48.9984 0.0000 0.0000 0.0000
# 2 45.2569 61.9171 28.8881 0.0000 0.0000 0.0000
# 3 48.9984 28.8881 137.4411 0.0000 0.0000 0.0000
# 4 0.0000 0.0000 0.0000 12.4795 0.0000 0.0000
# 5 0.0000 0.0000 0.0000 0.0000 25.9483 0.0000
# 6 0.0000 0.0000 0.0000 0.0000 0.0000 57.9340
#
#
#
# Elastic Compliance Matrix: (Units=1/GPa)
#
#
# Indices 1 2 3 4 5 6 
#
# 1 0.009008 -0.005639 -0.002026 0.000000 0.000000 0.000000
# 2 -0.005639 0.021436 -0.002495 0.000000 0.000000 0.000000
# 3 -0.002026 -0.002495 0.008523 0.000000 0.000000 0.000000
# 4 0.000000 0.000000 0.000000 0.080132 0.000000 0.000000
# 5 0.000000 0.000000 0.000000 0.000000 0.038538 0.000000
# 6 0.000000 0.000000 0.000000 0.000000 0.000000 0.017261
#
#
# Mechanical properties :
#
#
# Convention : Reuss Voigt Hill
#
# Bulk Modulus (GPa) = 53.62982 66.22315 59.92649
# Shear Modulus (GPa) = 24.82199 34.37755 29.59977
#
# Velocity S-wave (km/s) = 3.25531 3.83100 3.55483
# Velocity P-wave (km/s) = 6.08483 6.91671 6.51406
#
# Compressibility (1/GPa) = 0.01864634
#
# Stress axis : x y z
#
# Youngs Moduli (GPa) = 111.01182 46.64943 117.33400
#
# Poissons Ratio (x) = 0.26305 0.23774
# Poissons Ratio (y) = 0.62598 0.29279
# Poissons Ratio (z) = 0.22493 0.11641
#
# Static dielectric constant tensor:
#      x y z
#    x 1.916680 0.000000 0.000000 
#    y 0.000000 2.030060 0.000000 
#    z 0.000000 0.000000 1.732680 
# 
# From -- ./inp_files/14632.got.cif
#   From: 2010.05.17/outbox.cif.g08.bks.cpg/sg21_8_cif.got.tgz:14632.got - 2010.06.03 23:14:55.
