data_PCOD9324840
_publ_section_title
;
Structure prediction by ZEFSAII (Michael W. Deem and Ramdas Pophale) SiO2 
 PCOD9324840
Probable space group: C 2 2 2
;
_chemical_formula_sum "Si O2"
_cell_formula_units_Z 24
_cell_length_a 27.478688
_cell_length_b 5.201939
_cell_length_c 7.298351
_cell_angle_alpha 90.000000
_cell_angle_beta 90.000000
_cell_angle_gamma 90.000000
_cell_volume 1043.244237
_symmetry_space_group_name_H-M "C 2 2 2"
_symmetry_group_IT_number 21
_symmetry_cell_setting 'orthorhombic'
loop_
_space_group_symop_operation_xyz
x,y,z
-x,-y,z
x,-y,-z
-x,y,-z
1/2+x,1/2+y,z
1/2-x,1/2-y,z
1/2+x,1/2-y,-z
1/2-x,1/2+y,-z
loop_
_atom_site_type_symbol
_atom_site_label
_atom_site_fract_x
_atom_site_fract_y
_atom_site_fract_z
Si Si1 0.022392 0.254460 0.294657
Si Si2 0.218158 0.005090 0.280110
Si Si3 0.881127 0.231479 0.883890
O O1 0.000000 0.500000 0.199561
O O2 0.000000 0.255013 0.500000
O O3 0.080429 0.279671 0.279337
O O4 0.000000 0.000000 0.213037
O O5 0.250000 0.250000 0.231623
O O6 0.166819 0.083474 0.191210
O O7 0.211494 0.000000 0.500000
O O8 0.250000 0.750000 0.230321
O O9 0.873015 0.500000 0.000000
O O10 0.904603 0.000000 0.000000
#
# Coordination Sequence:
#
# PCOD9324840 Si02
#       3
#     8   8   8
#     4  10  23  43  67  99 135 193 236 290 346 428
#     4  10  23  45  71 103 138 187 243 291 345 430
#     4  12  26  43  70 108 145 185 234 300 367 425
#
# _framework density 23.005158000000002
#
# number of rings (size 3 to 8) (size 9 to 14) (size 15 to 20)
#    0.000    1.333    0.000    4.000    4.667    6.667 
#   12.000    0.000    0.000    0.000    0.000    0.000 
#    0.000    0.000    0.000    0.000    0.000    0.000 
#
# Total GULP energy -66845.194694 kJ/mol
# GULP energy per Si atom -5570.432891 kJ/mol
# Density = 2.295280 g / cm^3
# Si number density = 23.005158 Si / 1000 Ang^3
#
#
#
# Elastic Constant Matrix: (Units=GPa)
#
#
# Indices 1 2 3 4 5 6 
#
# 1 199.7996 68.4028 69.0757 0.0000 0.0000 0.0000
# 2 68.4028 251.3928 38.6649 0.0000 0.0000 0.0000
# 3 69.0757 38.6649 119.1231 0.0000 0.0000 0.0000
# 4 0.0000 0.0000 0.0000 -38.7467 0.0000 0.0000
# 5 0.0000 0.0000 0.0000 0.0000 -457.6782 0.0000
# 6 0.0000 0.0000 0.0000 0.0000 0.0000 34.5679
#
#
#
# Elastic Compliance Matrix: (Units=1/GPa)
#
#
# Indices 1 2 3 4 5 6 
#
# 1 0.006627 -0.001276 -0.003429 0.000000 0.000000 0.000000
# 2 -0.001276 0.004432 -0.000699 0.000000 0.000000 0.000000
# 3 -0.003429 -0.000699 0.010610 0.000000 0.000000 0.000000
# 4 0.000000 0.000000 0.000000 -0.025809 0.000000 0.000000
# 5 0.000000 0.000000 0.000000 0.000000 -0.002185 0.000000
# 6 0.000000 0.000000 0.000000 0.000000 0.000000 0.028929
#
#
# Mechanical properties :
#
#
# Convention : Reuss Voigt Hill
#
# Bulk Modulus (GPa) = 92.06052 102.51139 97.28595
# Shear Modulus (GPa) = 135.01690 -66.09327 34.46182
#
# Velocity S-wave (km/s) = 7.66924 -5.36583 3.87460
# Velocity P-wave (km/s) = 10.88702 2.50348 7.89920
#
# Compressibility (1/GPa) = 0.01086242
#
# Stress axis : x y z
#
# Youngs Moduli (GPa) = 150.89226 225.60709 94.25283
#
# Poissons Ratio (x) = 0.28785 0.32317
# Poissons Ratio (y) = 0.19252 0.06587
# Poissons Ratio (z) = 0.51738 0.15767
#
# Static dielectric constant tensor:
#      x y z
#    x 2.198940 0.000000 0.000000 
#    y 0.000000 1.981430 0.000000 
#    z 0.000000 0.000000 1.904780 
# 
# From -- ./inp_files/18007.got.cif
#   From: 2010.05.17/outbox.cif.g08.bks.cpg/sg21_10_cif.got.tgz:18007.got - 2010.06.03 23:14:55.
