data_PCOD9324265
_publ_section_title
;
Structure prediction by ZEFSAII (Michael W. Deem and Ramdas Pophale) SiO2 
 PCOD9324265
Probable space group: C 2 2 2
;
_chemical_formula_sum "Si O2"
_cell_formula_units_Z 26
_cell_length_a 7.050392
_cell_length_b 7.910456
_cell_length_c 18.315996
_cell_angle_alpha 90.000000
_cell_angle_beta 90.000000
_cell_angle_gamma 90.000000
_cell_volume 1021.516353
_symmetry_space_group_name_H-M "C 2 2 2"
_symmetry_group_IT_number 21
_symmetry_cell_setting 'orthorhombic'
loop_
_space_group_symop_operation_xyz
x,y,z
-x,-y,z
x,-y,-z
-x,y,-z
1/2+x,1/2+y,z
1/2-x,1/2-y,z
1/2+x,1/2-y,-z
1/2-x,1/2+y,-z
loop_
_atom_site_type_symbol
_atom_site_label
_atom_site_fract_x
_atom_site_fract_y
_atom_site_fract_z
Si Si1 0.221191 0.448497 0.920703
Si Si2 0.280581 0.056152 0.234768
Si Si3 0.780350 0.443878 0.388391
Si Si4 0.000000 0.000000 0.500000
O O1 0.250000 0.250000 0.912321
O O2 0.299010 0.531867 0.846722
O O3 0.000000 0.500000 0.923222
O O4 0.298377 0.500000 0.000000
O O5 0.250000 0.250000 0.254694
O O6 0.500000 0.000000 0.228927
O O7 0.210631 0.951792 0.304388
O O8 0.750000 0.250000 0.413489
O O9 0.653206 0.563180 0.439823
O O10 0.000000 0.500000 0.391676
#
# Coordination Sequence:
#
# PCOD9324265 Si02
#       4
#     8   8   8   2
#     4  10  21  42  69 105 147 192 243 298 358 428
#     4  10  23  45  73 105 146 193 244 300 365 437
#     4  11  28  49  76 110 151 197 251 310 380 452
#     4  12  30  44  86 102 158 188 256 308 388 450
#
# _framework density 25.452358
#
# number of rings (size 3 to 8) (size 9 to 14) (size 15 to 20)
#    0.000    1.538    0.000    2.308   12.923    0.000 
#    0.000   15.385    0.000    0.000    0.000    0.000 
#    0.000    0.000    0.000    0.000    0.000    0.000 
#
# Total GULP energy -72596.617242 kJ/mol
# GULP energy per Si atom -5584.355172 kJ/mol
# Density = 2.539443 g / cm^3
# Si number density = 25.452358 Si / 1000 Ang^3
#
#
#
# Elastic Constant Matrix: (Units=GPa)
#
#
# Indices 1 2 3 4 5 6 
#
# 1 178.1959 14.5140 20.2507 0.0000 0.0000 0.0000
# 2 14.5140 145.8530 -3.6509 0.0000 0.0000 0.0000
# 3 20.2507 -3.6509 230.6707 0.0000 0.0000 0.0000
# 4 0.0000 0.0000 0.0000 32.1405 0.0000 0.0000
# 5 0.0000 0.0000 0.0000 0.0000 921.7612 0.0000
# 6 0.0000 0.0000 0.0000 0.0000 0.0000 38.4401
#
#
#
# Elastic Compliance Matrix: (Units=1/GPa)
#
#
# Indices 1 2 3 4 5 6 
#
# 1 0.005717 -0.000582 -0.000511 0.000000 0.000000 0.000000
# 2 -0.000582 0.006918 0.000161 0.000000 0.000000 0.000000
# 3 -0.000511 0.000161 0.004383 0.000000 0.000000 0.000000
# 4 0.000000 0.000000 0.000000 0.031113 0.000000 0.000000
# 5 0.000000 0.000000 0.000000 0.000000 0.001085 0.000000
# 6 0.000000 0.000000 0.000000 0.000000 0.000000 0.026014
#
#
# Mechanical properties :
#
#
# Convention : Reuss Voigt Hill
#
# Bulk Modulus (GPa) = 65.99171 68.54966 67.27068
# Shear Modulus (GPa) = 60.86692 233.37542 147.12117
#
# Velocity S-wave (km/s) = 4.89551 9.58593 7.61105
# Velocity P-wave (km/s) = 7.61173 12.22748 10.18454
#
# Compressibility (1/GPa) = 0.01515342
#
# Stress axis : x y z
#
# Youngs Moduli (GPa) = 174.90865 144.54778 228.17515
#
# Poissons Ratio (x) = 0.08409 0.11663
# Poissons Ratio (y) = 0.10175 -0.03664
# Poissons Ratio (z) = 0.08940 -0.02321
#
# Static dielectric constant tensor:
#      x y z
#    x 1.988860 0.000000 0.000000 
#    y 0.000000 1.130300 0.000000 
#    z 0.000000 0.000000 2.219300 
# 
# From -- ./inp_files/35346.got.cif
#   From: 2010.05.17/outbox.cif.g08.bks.cpg/sg21_18_cif.got.tgz:35346.got - 2010.06.03 23:14:55.
