data_PCOD9324904
_publ_section_title
;
Structure prediction by ZEFSAII (Michael W. Deem and Ramdas Pophale) SiO2 
 PCOD9324904
Probable space group: C 2 2 2
;
_chemical_formula_sum "Si O2"
_cell_formula_units_Z 32
_cell_length_a 9.663634
_cell_length_b 12.613553
_cell_length_c 8.455769
_cell_angle_alpha 90.000000
_cell_angle_beta 90.000000
_cell_angle_gamma 90.000000
_cell_volume 1030.697018
_symmetry_space_group_name_H-M "C 2 2 2"
_symmetry_group_IT_number 21
_symmetry_cell_setting 'orthorhombic'
loop_
_space_group_symop_operation_xyz
x,y,z
-x,-y,z
x,-y,-z
-x,y,-z
1/2+x,1/2+y,z
1/2-x,1/2-y,z
1/2+x,1/2-y,-z
1/2-x,1/2+y,-z
loop_
_atom_site_type_symbol
_atom_site_label
_atom_site_fract_x
_atom_site_fract_y
_atom_site_fract_z
Si Si1 0.000000 0.000000 0.262649
Si Si2 0.803474 0.432943 0.657214
Si Si3 0.500000 0.668948 0.000000
Si Si4 0.500000 0.762771 0.500000
Si Si5 0.669254 0.839916 0.018119
Si Si6 0.250000 0.250000 0.706233
O O1 0.136563 0.049209 0.345317
O O2 0.957182 0.093022 0.143936
O O3 0.846352 0.500000 0.500000
O O4 0.897207 0.328764 0.616016
O O5 0.835713 0.432636 0.847599
O O6 0.663080 0.697721 0.056298
O O7 0.621488 0.710132 0.602509
O O8 0.500000 0.810844 0.000000
O O9 0.689922 0.839173 0.823146
#
# Coordination Sequence:
#
# PCOD9324904 Si02
#       6
#     4   8   4   4   8   4
#     4  11  25  48  86 136 188 238 316 393 505 558
#     4  12  28  52  81 128 193 247 314 410 467 563
#     4  11  22  46  92 136 171 240 322 397 468 599
#     4  12  29  52  86 140 193 234 324 393 492 566
#     4  10  23  49  81 127 181 253 320 376 477 573
#     4  10  26  50  92 142 176 250 304 408 456 582
#
# _framework density 31.046949999999999
#
# number of rings (size 3 to 8) (size 9 to 14) (size 15 to 20)
#    0.750    0.250    2.500    2.250    5.250    2.000 
#    0.000    0.000    5.500    0.000    0.000    0.000 
#    0.000    0.000    0.000    0.000    0.000    0.000 
#
# Total GULP energy -89142.504916 kJ/mol
# GULP energy per Si atom -5571.406557 kJ/mol
# Density = 3.097629 g / cm^3
# Si number density = 31.046950 Si / 1000 Ang^3
#
#
#
# Elastic Constant Matrix: (Units=GPa)
#
#
# Indices 1 2 3 4 5 6 
#
# 1 343.5255 74.9337 78.0107 0.0000 0.0000 0.0000
# 2 74.9337 132.2797 95.7564 0.0000 0.0000 0.0000
# 3 78.0107 95.7564 272.1618 0.0000 0.0000 0.0000
# 4 0.0000 0.0000 0.0000 42.6151 0.0000 0.0000
# 5 0.0000 0.0000 0.0000 0.0000 75.3776 0.0000
# 6 0.0000 0.0000 0.0000 0.0000 0.0000 48.8331
#
#
#
# Elastic Compliance Matrix: (Units=1/GPa)
#
#
# Indices 1 2 3 4 5 6 
#
# 1 0.003352 -0.001615 -0.000393 0.000000 0.000000 0.000000
# 2 -0.001615 0.010921 -0.003380 0.000000 0.000000 0.000000
# 3 -0.000393 -0.003380 0.004976 0.000000 0.000000 0.000000
# 4 0.000000 0.000000 0.000000 0.023466 0.000000 0.000000
# 5 0.000000 0.000000 0.000000 0.000000 0.013267 0.000000
# 6 0.000000 0.000000 0.000000 0.000000 0.000000 0.020478
#
#
# Mechanical properties :
#
#
# Convention : Reuss Voigt Hill
#
# Bulk Modulus (GPa) = 117.99274 138.37430 128.18352
# Shear Modulus (GPa) = 55.51941 66.64959 61.08450
#
# Velocity S-wave (km/s) = 4.23335 4.63831 4.44045
# Velocity P-wave (km/s) = 7.87287 8.56454 8.22598
#
# Compressibility (1/GPa) = 0.00847510
#
# Stress axis : x y z
#
# Youngs Moduli (GPa) = 298.29248 91.56784 200.96826
#
# Poissons Ratio (x) = 0.14786 0.07894
# Poissons Ratio (y) = 0.48166 0.67918
# Poissons Ratio (z) = 0.11717 0.30946
#
# Static dielectric constant tensor:
#      x y z
#    x 2.380620 0.000000 0.000000 
#    y 0.000000 2.645540 0.000000 
#    z 0.000000 0.000000 2.424630 
# 
# From -- ./inp_files/10521.got.cif
#   From: 2010.05.17/outbox.cif.g08.bks.cpg/sg21_6_cif.got.tgz:10521.got - 2010.06.03 23:14:55.
