data_PCOD9324957
_publ_section_title
;
Structure prediction by ZEFSAII (Michael W. Deem and Ramdas Pophale) SiO2 
 PCOD9324957
Probable space group: C 2 2 2
;
_chemical_formula_sum "Si O2"
_cell_formula_units_Z 30
_cell_length_a 14.412112
_cell_length_b 5.102552
_cell_length_c 17.784089
_cell_angle_alpha 90.000000
_cell_angle_beta 90.000000
_cell_angle_gamma 90.000000
_cell_volume 1307.816134
_symmetry_space_group_name_H-M "C 2 2 2"
_symmetry_group_IT_number 21
_symmetry_cell_setting 'orthorhombic'
loop_
_space_group_symop_operation_xyz
x,y,z
-x,-y,z
x,-y,-z
-x,y,-z
1/2+x,1/2+y,z
1/2-x,1/2-y,z
1/2+x,1/2-y,-z
1/2-x,1/2+y,-z
loop_
_atom_site_type_symbol
_atom_site_label
_atom_site_fract_x
_atom_site_fract_y
_atom_site_fract_z
Si Si1 0.398057 0.377249 0.705251
Si Si2 0.892425 0.561109 0.837405
Si Si3 0.250000 0.250000 0.267624
Si Si4 0.000000 0.000000 0.500000
Si Si5 0.686592 0.000000 0.000000
Si Si6 0.000000 0.500000 0.604291
O O1 0.500000 0.500000 0.703620
O O2 0.377614 0.331085 0.793651
O O3 0.309779 0.547431 0.682408
O O4 0.416719 0.116179 0.655693
O O5 0.824439 0.381806 0.788454
O O6 0.870595 0.559446 0.924888
O O7 0.000000 0.500000 0.825630
O O8 0.034066 0.763811 0.558142
O O9 0.750000 0.250000 0.983785
#
# Coordination Sequence:
#
# PCOD9324957 Si02
#       6
#     8   8   4   2   4   4
#     4  12  23  44  77 116 159 201 261 329 387 476
#     4  12  25  45  71 109 153 202 269 324 394 464
#     4  12  24  44  72 112 158 198 262 326 394 456
#     4  10  24  42  80 122 160 212 246 322 392 478
#     4  12  27  48  69 102 152 208 263 334 403 456
#     4  11  22  46  76 123 164 198 270 311 392 486
#
# _framework density 22.939005000000002
#
# number of rings (size 3 to 8) (size 9 to 14) (size 15 to 20)
#    0.000    0.267    6.667    2.800    0.000    0.000 
#    0.000    1.333    0.000    0.000   13.867    0.000 
#    0.000    0.000    0.000    0.000    0.000    0.000 
#
# Total GULP energy -83526.125665 kJ/mol
# GULP energy per Si atom -5568.408378 kJ/mol
# Density = 2.288679 g / cm^3
# Si number density = 22.939005 Si / 1000 Ang^3
#
#
#
# Elastic Constant Matrix: (Units=GPa)
#
#
# Indices 1 2 3 4 5 6 
#
# 1 156.9229 72.0850 43.0593 0.0000 0.0000 0.0000
# 2 72.0850 148.9712 57.3498 0.0000 0.0000 0.0000
# 3 43.0593 57.3498 132.2542 0.0000 0.0000 0.0000
# 4 0.0000 0.0000 0.0000 25.7139 0.0000 0.0000
# 5 0.0000 0.0000 0.0000 0.0000 4.0804 0.0000
# 6 0.0000 0.0000 0.0000 0.0000 0.0000 52.7130
#
#
#
# Elastic Compliance Matrix: (Units=1/GPa)
#
#
# Indices 1 2 3 4 5 6 
#
# 1 0.008339 -0.003589 -0.001159 0.000000 0.000000 0.000000
# 2 -0.003589 0.009603 -0.002995 0.000000 0.000000 0.000000
# 3 -0.001159 -0.002995 0.009237 0.000000 0.000000 0.000000
# 4 0.000000 0.000000 0.000000 0.038890 0.000000 0.000000
# 5 0.000000 0.000000 0.000000 0.000000 0.245074 0.000000
# 6 0.000000 0.000000 0.000000 0.000000 0.000000 0.018971
#
#
# Mechanical properties :
#
#
# Convention : Reuss Voigt Hill
#
# Bulk Modulus (GPa) = 85.52432 87.01517 86.26975
# Shear Modulus (GPa) = 14.30626 34.21174 24.25900
#
# Velocity S-wave (km/s) = 2.50004 3.86608 3.25552
# Velocity P-wave (km/s) = 6.76002 7.61212 7.19869
#
# Compressibility (1/GPa) = 0.01169258
#
# Stress axis : x y z
#
# Youngs Moduli (GPa) = 119.91501 104.13829 108.25589
#
# Poissons Ratio (x) = 0.37377 0.12544
# Poissons Ratio (y) = 0.43039 0.32428
# Poissons Ratio (z) = 0.13895 0.31194
#
# Static dielectric constant tensor:
#      x y z
#    x 1.866710 0.000000 0.000000 
#    y 0.000000 2.067540 0.000000 
#    z 0.000000 0.000000 1.931680 
# 
# From -- ./inp_files/36416.got.cif
#   From: 2010.05.17/outbox.cif.g08.bks.cpg/sg21_19_cif.got.tgz:36416.got - 2010.06.03 23:14:55.
