data_PCOD9324428
_publ_section_title
;
Structure prediction by ZEFSAII (Michael W. Deem and Ramdas Pophale) SiO2 
 PCOD9324428
Probable space group: C 2 2 2
;
_chemical_formula_sum "Si O2"
_cell_formula_units_Z 58
_cell_length_a 25.781321
_cell_length_b 8.900656
_cell_length_c 13.882928
_cell_angle_alpha 90.000000
_cell_angle_beta 90.000000
_cell_angle_gamma 90.000000
_cell_volume 3185.724782
_symmetry_space_group_name_H-M "C 2 2 2"
_symmetry_group_IT_number 21
_symmetry_cell_setting 'orthorhombic'
loop_
_space_group_symop_operation_xyz
x,y,z
-x,-y,z
x,-y,-z
-x,y,-z
1/2+x,1/2+y,z
1/2-x,1/2-y,z
1/2+x,1/2-y,-z
1/2-x,1/2+y,-z
loop_
_atom_site_type_symbol
_atom_site_label
_atom_site_fract_x
_atom_site_fract_y
_atom_site_fract_z
Si Si1 0.500000 0.000000 0.000000
Si Si2 0.482015 0.745890 0.859786
Si Si3 0.860792 0.448467 0.387698
Si Si4 0.243163 0.926807 0.399493
Si Si5 0.553067 0.563031 0.394206
Si Si6 0.459261 0.114502 0.341633
Si Si7 0.641744 0.383558 0.293815
Si Si8 0.916164 0.045239 0.108037
O O1 0.469535 0.116215 0.068578
O O2 0.485144 0.821898 0.755645
O O3 0.439858 0.613480 0.855070
O O4 0.535260 0.662631 0.892255
O O5 0.870460 0.500000 0.500000
O O6 0.800123 0.487562 0.372015
O O7 0.904017 0.535986 0.326966
O O8 0.865950 0.274025 0.352704
O O9 0.250000 0.750000 0.419581
O O10 0.199796 0.937064 0.317646
O O11 0.225562 0.000000 0.500000
O O12 0.500000 0.500000 0.347521
O O13 0.555973 0.500000 0.500000
O O14 0.550356 0.739802 0.404098
O O15 0.602039 0.502988 0.337949
O O16 0.500000 0.000000 0.385582
O O17 0.625912 0.384709 0.181249
O O18 0.899077 0.000000 0.000000
#
# Coordination Sequence:
#
# PCOD9324428 Si02
#       8
#     2   8   8   8   8   8   8   8
#     4  12  20  34  60  88 114 158 204 248 320 354
#     4  11  21  35  56  84 122 155 196 250 299 364
#     4  10  22  39  58  88 124 160 199 255 316 372
#     4   9  20  39  61  87 114 153 202 253 307 365
#     4  11  22  35  51  78 114 154 194 234 293 373
#     4  12  23  35  56  85 122 156 191 243 305 361
#     4  11  21  36  60  84 114 160 207 251 303 370
#     4  11  21  38  56  84 120 162 206 250 298 358
#
# _framework density 18.206219000000001
#
# number of rings (size 3 to 8) (size 9 to 14) (size 15 to 20)
#    0.000    1.241    3.448    4.138    0.000    3.586 
#    0.000    0.000    0.000    0.000   12.552    0.000 
#    0.000    0.000    0.000    0.000    0.000    0.000 
#
# Total GULP energy -161680.999735 kJ/mol
# GULP energy per Si atom -5575.206887 kJ/mol
# Density = 1.816478 g / cm^3
# Si number density = 18.206219 Si / 1000 Ang^3
#
#
#
# Elastic Constant Matrix: (Units=GPa)
#
#
# Indices 1 2 3 4 5 6 
#
# 1 84.4419 42.5628 33.5526 0.0000 0.0000 0.0000
# 2 42.5628 107.5378 36.9779 0.0000 0.0000 0.0000
# 3 33.5526 36.9779 104.1523 0.0000 0.0000 0.0000
# 4 0.0000 0.0000 0.0000 34.1171 0.0000 0.0000
# 5 0.0000 0.0000 0.0000 0.0000 21.7421 0.0000
# 6 0.0000 0.0000 0.0000 0.0000 0.0000 19.4647
#
#
#
# Elastic Compliance Matrix: (Units=1/GPa)
#
#
# Indices 1 2 3 4 5 6 
#
# 1 0.015703 -0.005098 -0.003249 0.000000 0.000000 0.000000
# 2 -0.005098 0.012247 -0.002706 0.000000 0.000000 0.000000
# 3 -0.003249 -0.002706 0.011609 0.000000 0.000000 0.000000
# 4 0.000000 0.000000 0.000000 0.029311 0.000000 0.000000
# 5 0.000000 0.000000 0.000000 0.000000 0.045994 0.000000
# 6 0.000000 0.000000 0.000000 0.000000 0.000000 0.051375
#
#
# Mechanical properties :
#
#
# Convention : Reuss Voigt Hill
#
# Bulk Modulus (GPa) = 57.29499 58.03540 57.66520
# Shear Modulus (GPa) = 25.75177 27.26737 26.50957
#
# Velocity S-wave (km/s) = 3.76500 3.87421 3.81999
# Velocity P-wave (km/s) = 7.10201 7.20823 7.15532
#
# Compressibility (1/GPa) = 0.01745353
#
# Stress axis : x y z
#
# Youngs Moduli (GPa) = 63.68223 81.65076 86.14308
#
# Poissons Ratio (x) = 0.41626 0.27985
# Poissons Ratio (y) = 0.32465 0.23310
# Poissons Ratio (z) = 0.20688 0.22094
#
# Static dielectric constant tensor:
#      x y z
#    x 1.643650 0.000000 0.000000 
#    y 0.000000 1.748250 0.000000 
#    z 0.000000 0.000000 1.706080 
# 
# From -- ./inp_files/33580.got.cif
#   From: 2010.05.17/outbox.cif.g08.bks.cpg/sg21_17_cif.got.tgz:33580.got - 2010.06.03 23:14:55.
