data_PCOD9324377
_publ_section_title
;
Structure prediction by ZEFSAII (Michael W. Deem and Ramdas Pophale) SiO2 
 PCOD9324377
Probable space group: C 2 2 2
;
_chemical_formula_sum "Si O2"
_cell_formula_units_Z 34
_cell_length_a 5.006647
_cell_length_b 25.133795
_cell_length_c 13.218918
_cell_angle_alpha 90.000000
_cell_angle_beta 90.000000
_cell_angle_gamma 90.000000
_cell_volume 1663.416285
_symmetry_space_group_name_H-M "C 2 2 2"
_symmetry_group_IT_number 21
_symmetry_cell_setting 'orthorhombic'
loop_
_space_group_symop_operation_xyz
x,y,z
-x,-y,z
x,-y,-z
-x,y,-z
1/2+x,1/2+y,z
1/2-x,1/2-y,z
1/2+x,1/2-y,-z
1/2-x,1/2+y,-z
loop_
_atom_site_type_symbol
_atom_site_label
_atom_site_fract_x
_atom_site_fract_y
_atom_site_fract_z
Si Si1 0.249640 0.188824 0.573567
Si Si2 0.837747 0.613988 0.763160
Si Si3 0.172883 0.050936 0.181135
Si Si4 0.501591 0.784823 0.120928
Si Si5 0.500000 0.000000 0.000000
O O1 0.500000 0.183554 0.500000
O O2 0.250000 0.250000 0.613500
O O3 0.262535 0.144920 0.660941
O O4 0.000000 0.182091 0.500000
O O5 0.564135 0.594581 0.816716
O O6 0.983599 0.657556 0.832245
O O7 0.068228 0.568894 0.753849
O O8 0.308715 0.034804 0.073542
O O9 0.000000 0.000000 0.217228
O O10 0.250000 0.750000 0.150308
O O11 0.750000 0.750000 0.154779
O O12 0.500000 0.789817 0.000000
#
# Coordination Sequence:
#
# PCOD9324377 Si02
#       5
#     8   8   8   8   2
#     4  10  22  42  70 104 140 174 221 282 341 409
#     4  12  24  40  71  98 130 181 227 280 344 406
#     4  12  26  43  66  97 134 173 231 288 329 400
#     4  10  22  38  55  88 135 176 213 259 322 411
#     4  12  26  48  66  96 140 180 242 292 346 384
#
# _framework density 20.439864
#
# number of rings (size 3 to 8) (size 9 to 14) (size 15 to 20)
#    0.000    0.941    2.353    3.882    1.647    2.824 
#    0.000    0.000    0.000   10.588    0.000    0.000 
#    0.000    0.000    0.000    0.000    0.000    0.000 
#
# Total GULP energy -94942.086490 kJ/mol
# GULP energy per Si atom -5584.828617 kJ/mol
# Density = 2.039334 g / cm^3
# Si number density = 20.439864 Si / 1000 Ang^3
#
#
#
# Elastic Constant Matrix: (Units=GPa)
#
#
# Indices 1 2 3 4 5 6 
#
# 1 202.4477 67.7708 62.8303 0.0000 0.0000 0.0000
# 2 67.7708 109.7771 60.7149 0.0000 0.0000 0.0000
# 3 62.8303 60.7149 96.0998 0.0000 0.0000 0.0000
# 4 0.0000 0.0000 0.0000 41.3689 0.0000 0.0000
# 5 0.0000 0.0000 0.0000 0.0000 1.3535 0.0000
# 6 0.0000 0.0000 0.0000 0.0000 0.0000 94.4085
#
#
#
# Elastic Compliance Matrix: (Units=1/GPa)
#
#
# Indices 1 2 3 4 5 6 
#
# 1 0.006652 -0.002615 -0.002697 0.000000 0.000000 0.000000
# 2 -0.002615 0.015030 -0.007786 0.000000 0.000000 0.000000
# 3 -0.002697 -0.007786 0.017088 0.000000 0.000000 0.000000
# 4 0.000000 0.000000 0.000000 0.024173 0.000000 0.000000
# 5 0.000000 0.000000 0.000000 0.000000 0.738833 0.000000
# 6 0.000000 0.000000 0.000000 0.000000 0.000000 0.010592
#
#
# Mechanical properties :
#
#
# Convention : Reuss Voigt Hill
#
# Bulk Modulus (GPa) = 79.52805 87.88406 83.70606
# Shear Modulus (GPa) = 5.93292 41.89341 23.91316
#
# Velocity S-wave (km/s) = 1.70556 4.53216 3.42413
# Velocity P-wave (km/s) = 6.54762 8.39506 7.52822
#
# Compressibility (1/GPa) = 0.01257418
#
# Stress axis : x y z
#
# Youngs Moduli (GPa) = 150.33231 66.53351 58.51945
#
# Poissons Ratio (x) = 0.17398 0.15782
# Poissons Ratio (y) = 0.39311 0.45564
# Poissons Ratio (z) = 0.40544 0.51804
#
# Static dielectric constant tensor:
#      x y z
#    x 1.714500 0.000000 0.000000 
#    y 0.000000 1.829980 0.000000 
#    z 0.000000 0.000000 1.654830 
# 
# From -- ./inp_files/20967.got.cif
#   From: 2010.05.17/outbox.cif.g08.bks.cpg/sg21_11_cif.got.tgz:20967.got - 2010.06.03 23:14:55.
