data_PCOD9324807
_publ_section_title
;
Structure prediction by ZEFSAII (Michael W. Deem and Ramdas Pophale) SiO2 
 PCOD9324807
Probable space group: C 2 2 2
;
_chemical_formula_sum "Si O2"
_cell_formula_units_Z 32
_cell_length_a 27.029133
_cell_length_b 9.228717
_cell_length_c 5.261374
_cell_angle_alpha 90.000000
_cell_angle_beta 90.000000
_cell_angle_gamma 90.000000
_cell_volume 1312.419329
_symmetry_space_group_name_H-M "C 2 2 2"
_symmetry_group_IT_number 21
_symmetry_cell_setting 'orthorhombic'
loop_
_space_group_symop_operation_xyz
x,y,z
-x,-y,z
x,-y,-z
-x,y,-z
1/2+x,1/2+y,z
1/2-x,1/2-y,z
1/2+x,1/2-y,-z
1/2-x,1/2+y,-z
loop_
_atom_site_type_symbol
_atom_site_label
_atom_site_fract_x
_atom_site_fract_y
_atom_site_fract_z
Si Si1 0.595313 0.837229 0.020142
Si Si2 0.301278 0.430766 0.742196
Si Si3 0.558733 0.326629 0.483128
Si Si4 0.812459 0.596074 0.727012
O O1 0.578364 0.739881 0.781519
O O2 0.653711 0.867873 0.974352
O O3 0.583443 0.756956 0.280293
O O4 0.572652 0.000000 0.000000
O O5 0.326182 0.500000 0.500000
O O6 0.242543 0.467964 0.755613
O O7 0.303544 0.263637 0.664200
O O8 0.322666 0.500000 0.000000
O O9 0.564747 0.500000 0.500000
O O10 0.500000 0.297953 0.500000
O O11 0.836700 0.500000 0.500000
#
# Coordination Sequence:
#
# PCOD9324807 Si02
#       4
#     8   8   8   8
#     4  12  25  42  69 102 135 173 219 277 340 404
#     4  10  23  41  65  94 131 184 238 282 328 391
#     4  11  26  48  71  97 132 173 218 274 341 411
#     4  10  23  43  65  95 139 181 226 282 341 395
#
# _framework density 24.382449000000001
#
# number of rings (size 3 to 8) (size 9 to 14) (size 15 to 20)
#    0.000    1.250    0.000    4.500    0.000   22.000 
#    0.000    0.000    0.000    0.000    0.000    0.000 
#    0.000    0.000    0.000    0.000    0.000    0.000 
#
# Total GULP energy -89283.778274 kJ/mol
# GULP energy per Si atom -5580.236142 kJ/mol
# Density = 2.432695 g / cm^3
# Si number density = 24.382449 Si / 1000 Ang^3
#
#
#
# Elastic Constant Matrix: (Units=GPa)
#
#
# Indices 1 2 3 4 5 6 
#
# 1 108.0177 -8.0637 11.7985 0.0000 0.0000 0.0000
# 2 -8.0637 115.4685 75.6022 0.0000 0.0000 0.0000
# 3 11.7985 75.6022 202.6909 0.0000 0.0000 0.0000
# 4 0.0000 0.0000 0.0000 53.5226 0.0000 0.0000
# 5 0.0000 0.0000 0.0000 0.0000 60.9392 0.0000
# 6 0.0000 0.0000 0.0000 0.0000 0.0000 -21.0081
#
#
#
# Elastic Compliance Matrix: (Units=1/GPa)
#
#
# Indices 1 2 3 4 5 6 
#
# 1 0.009474 0.001353 -0.001056 0.000000 0.000000 0.000000
# 2 0.001353 0.011652 -0.004425 0.000000 0.000000 0.000000
# 3 -0.001056 -0.004425 0.006646 0.000000 0.000000 0.000000
# 4 0.000000 0.000000 0.000000 0.018684 0.000000 0.000000
# 5 0.000000 0.000000 0.000000 0.000000 0.016410 0.000000
# 6 0.000000 0.000000 0.000000 0.000000 0.000000 -0.047601
#
#
# Mechanical properties :
#
#
# Convention : Reuss Voigt Hill
#
# Bulk Modulus (GPa) = 51.24038 64.98344 58.11191
# Shear Modulus (GPa) = 166.52472 41.81342 104.16907
#
# Velocity S-wave (km/s) = 8.27316 4.14563 6.54337
# Velocity P-wave (km/s) = 10.59817 7.04447 8.99849
#
# Compressibility (1/GPa) = 0.01951586
#
# Stress axis : x y z
#
# Youngs Moduli (GPa) = 105.55064 85.82196 150.47662
#
# Poissons Ratio (x) = -0.11613 0.15893
# Poissons Ratio (y) = -0.14283 0.66584
# Poissons Ratio (z) = 0.11148 0.37975
#
# Static dielectric constant tensor:
#      x y z
#    x 1.999420 0.000000 0.000000 
#    y 0.000000 1.500350 0.000000 
#    z 0.000000 0.000000 2.042640 
# 
# From -- ./inp_files/7767.got.cif
#   From: 2010.05.17/outbox.cif.g08.bks.cpg/sg21_4_cif.got.tgz:7767.got - 2010.06.03 23:14:55.
