data_PCOD9324531
_publ_section_title
;
Structure prediction by ZEFSAII (Michael W. Deem and Ramdas Pophale) SiO2 
 PCOD9324531
Probable space group: C 2 2 2
;
_chemical_formula_sum "Si O2"
_cell_formula_units_Z 58
_cell_length_a 8.789879
_cell_length_b 29.248842
_cell_length_c 11.504823
_cell_angle_alpha 90.000000
_cell_angle_beta 90.000000
_cell_angle_gamma 90.000000
_cell_volume 2957.818457
_symmetry_space_group_name_H-M "C 2 2 2"
_symmetry_group_IT_number 21
_symmetry_cell_setting 'orthorhombic'
loop_
_space_group_symop_operation_xyz
x,y,z
-x,-y,z
x,-y,-z
-x,y,-z
1/2+x,1/2+y,z
1/2-x,1/2-y,z
1/2+x,1/2-y,-z
1/2-x,1/2+y,-z
loop_
_atom_site_type_symbol
_atom_site_label
_atom_site_fract_x
_atom_site_fract_y
_atom_site_fract_z
Si Si1 0.820181 0.357284 0.520994
Si Si2 0.291685 0.199097 0.705029
Si Si3 0.334276 0.453900 0.443898
Si Si4 0.500000 0.500000 0.000000
Si Si5 0.342014 0.201989 0.251124
Si Si6 0.412029 0.647467 0.110540
Si Si7 0.839162 0.628479 0.060222
Si Si8 0.141923 0.932135 0.817373
O O1 0.759951 0.333205 0.404814
O O2 0.759219 0.408193 0.532757
O O3 0.787688 0.327721 0.637110
O O4 0.000000 0.358133 0.500000
O O5 0.250000 0.250000 0.670287
O O6 0.472035 0.201549 0.738339
O O7 0.178921 0.181823 0.806810
O O8 0.267278 0.500000 0.500000
O O9 0.500000 0.448174 0.500000
O O10 0.357643 0.456249 0.306059
O O11 0.596961 0.532367 0.083735
O O12 0.250000 0.250000 0.252562
O O13 0.310971 0.175299 0.130909
O O14 0.524096 0.611349 0.174240
O O15 0.500000 0.669718 0.000000
O O16 0.281522 0.620020 0.042078
O O17 0.806674 0.589351 0.154444
O O18 0.000000 0.628983 0.000000
#
# Coordination Sequence:
#
# PCOD9324531 Si02
#       8
#     8   8   8   2   8   8   8   8
#     4  10  23  44  67  91 133 173 212 273 333 392
#     4  11  24  40  62  98 131 172 226 269 322 396
#     4  11  23  41  67 103 126 162 222 273 331 393
#     4  12  20  40  68  96 128 168 226 266 328 396
#     4  11  24  40  65  96 133 176 219 271 328 389
#     4  10  22  41  63  92 128 177 216 262 328 379
#     4  11  21  43  65  93 129 175 218 267 327 386
#     4  11  23  41  69  94 133 175 213 275 328 396
#
# _framework density 19.609045999999999
#
# number of rings (size 3 to 8) (size 9 to 14) (size 15 to 20)
#    0.000    1.241    4.828    2.069    3.862    1.931 
#    0.000    0.345    3.034    0.000    0.000    0.000 
#    0.000    0.000    0.000    0.000    0.000    0.000 
#
# Total GULP energy -161782.949020 kJ/mol
# GULP energy per Si atom -5578.722380 kJ/mol
# Density = 1.956441 g / cm^3
# Si number density = 19.609046 Si / 1000 Ang^3
#
#
#
# Elastic Constant Matrix: (Units=GPa)
#
#
# Indices 1 2 3 4 5 6 
#
# 1 63.3203 42.8179 48.8928 0.0000 0.0000 0.0000
# 2 42.8179 138.0616 68.0244 0.0000 0.0000 0.0000
# 3 48.8928 68.0244 142.4140 0.0000 0.0000 0.0000
# 4 0.0000 0.0000 0.0000 29.4811 0.0000 0.0000
# 5 0.0000 0.0000 0.0000 0.0000 32.8333 0.0000
# 6 0.0000 0.0000 0.0000 0.0000 0.0000 23.1031
#
#
#
# Elastic Compliance Matrix: (Units=1/GPa)
#
#
# Indices 1 2 3 4 5 6 
#
# 1 0.023285 -0.004293 -0.005943 0.000000 0.000000 0.000000
# 2 -0.004293 0.010264 -0.003429 0.000000 0.000000 0.000000
# 3 -0.005943 -0.003429 0.010700 0.000000 0.000000 0.000000
# 4 0.000000 0.000000 0.000000 0.033920 0.000000 0.000000
# 5 0.000000 0.000000 0.000000 0.000000 0.030457 0.000000
# 6 0.000000 0.000000 0.000000 0.000000 0.000000 0.043284
#
#
# Mechanical properties :
#
#
# Convention : Reuss Voigt Hill
#
# Bulk Modulus (GPa) = 59.10735 73.69623 66.40179
# Shear Modulus (GPa) = 27.04453 29.35422 28.19938
#
# Velocity S-wave (km/s) = 3.71777 3.87327 3.79632
# Velocity P-wave (km/s) = 6.97405 7.59390 7.29057
#
# Compressibility (1/GPa) = 0.01691837
#
# Stress axis : x y z
#
# Youngs Moduli (GPa) = 42.94604 97.42828 93.45794
#
# Poissons Ratio (x) = 0.41827 0.55547
# Poissons Ratio (y) = 0.18437 0.32044
# Poissons Ratio (z) = 0.25525 0.33405
#
# Static dielectric constant tensor:
#      x y z
#    x 1.741100 0.000000 0.000000 
#    y 0.000000 1.686470 0.000000 
#    z 0.000000 0.000000 1.732450 
# 
# From -- ./inp_files/23008.got.cif
#   From: 2010.05.17/outbox.cif.g08.bks.cpg/sg21_12_cif.got.tgz:23008.got - 2010.06.03 23:14:55.
