data_PCOD9324623
_publ_section_title
;
Structure prediction by ZEFSAII (Michael W. Deem and Ramdas Pophale) SiO2 
 PCOD9324623
Probable space group: C 2 2 2
;
_chemical_formula_sum "Si O2"
_cell_formula_units_Z 40
_cell_length_a 28.560567
_cell_length_b 11.233772
_cell_length_c 5.405608
_cell_angle_alpha 90.000000
_cell_angle_beta 90.000000
_cell_angle_gamma 90.000000
_cell_volume 1734.350935
_symmetry_space_group_name_H-M "C 2 2 2"
_symmetry_group_IT_number 21
_symmetry_cell_setting 'orthorhombic'
loop_
_space_group_symop_operation_xyz
x,y,z
-x,-y,z
x,-y,-z
-x,y,-z
1/2+x,1/2+y,z
1/2-x,1/2-y,z
1/2+x,1/2-y,-z
1/2-x,1/2+y,-z
loop_
_atom_site_type_symbol
_atom_site_label
_atom_site_fract_x
_atom_site_fract_y
_atom_site_fract_z
Si Si1 0.375711 0.874048 0.594715
Si Si2 0.932044 0.961065 0.249826
Si Si3 0.968588 0.702231 0.249821
Si Si4 0.803235 0.210233 0.816732
Si Si5 0.153094 0.144555 0.680137
O O1 0.427754 0.893631 0.705216
O O2 0.338848 0.821299 0.790275
O O3 0.373792 0.770987 0.378642
O O4 0.358325 0.000000 0.500000
O O5 0.935039 0.819675 0.236907
O O6 0.955241 0.000000 0.500000
O O7 0.885012 0.042513 0.263335
O O8 0.954664 0.000000 0.000000
O O9 0.000000 0.708891 0.500000
O O10 0.000000 0.692256 0.000000
O O11 0.750000 0.250000 0.798677
O O12 0.817540 0.132734 0.574830
O O13 0.814550 0.153151 0.080425
#
# Coordination Sequence:
#
# PCOD9324623 Si02
#       5
#     8   8   8   8   8
#     4  10  25  49  76  96 147 192 242 292 351 421
#     4  12  22  42  67 102 139 181 224 286 364 416
#     4  12  28  46  71 105 143 186 240 294 358 426
#     4  10  22  44  74 106 145 182 238 293 356 430
#     4  10  22  42  73 101 144 182 233 285 366 411
#
# _framework density 23.063383000000002
#
# number of rings (size 3 to 8) (size 9 to 14) (size 15 to 20)
#    1.200    0.000    2.000    4.200    2.800    3.600 
#    0.000    6.000    8.800    0.000    0.000    0.000 
#    0.000    0.000    0.000    0.000    0.000    0.000 
#
# Total GULP energy -111485.719359 kJ/mol
# GULP energy per Si atom -5574.285968 kJ/mol
# Density = 2.301089 g / cm^3
# Si number density = 23.063383 Si / 1000 Ang^3
#
#
#
# Elastic Constant Matrix: (Units=GPa)
#
#
# Indices 1 2 3 4 5 6 
#
# 1 186.6898 35.5727 75.9680 0.0000 0.0000 0.0000
# 2 35.5727 22.9241 22.2587 0.0000 0.0000 0.0000
# 3 75.9680 22.2587 216.9468 0.0000 0.0000 0.0000
# 4 0.0000 0.0000 0.0000 14.9627 0.0000 0.0000
# 5 0.0000 0.0000 0.0000 0.0000 97.7427 0.0000
# 6 0.0000 0.0000 0.0000 0.0000 0.0000 37.6672
#
#
#
# Elastic Compliance Matrix: (Units=1/GPa)
#
#
# Indices 1 2 3 4 5 6 
#
# 1 0.008150 -0.010968 -0.001728 0.000000 0.000000 0.000000
# 2 -0.010968 0.063210 -0.002645 0.000000 0.000000 0.000000
# 3 -0.001728 -0.002645 0.005486 0.000000 0.000000 0.000000
# 4 0.000000 0.000000 0.000000 0.066833 0.000000 0.000000
# 5 0.000000 0.000000 0.000000 0.000000 0.010231 0.000000
# 6 0.000000 0.000000 0.000000 0.000000 0.000000 0.026548
#
#
# Mechanical properties :
#
#
# Convention : Reuss Voigt Hill
#
# Bulk Modulus (GPa) = 21.66222 77.12884 49.39553
# Shear Modulus (GPa) = 22.07233 49.59194 35.83213
#
# Velocity S-wave (km/s) = 3.09694 4.64210 3.94590
# Velocity P-wave (km/s) = 4.71179 7.88967 6.49799
#
# Compressibility (1/GPa) = 0.04616332
#
# Stress axis : x y z
#
# Youngs Moduli (GPa) = 122.70334 15.82027 182.28166
#
# Poissons Ratio (x) = 0.17352 0.31507
# Poissons Ratio (y) = 1.34583 0.48207
# Poissons Ratio (z) = 0.21209 0.04184
#
# Static dielectric constant tensor:
#      x y z
#    x 1.832340 0.000000 0.000000 
#    y 0.000000 1.961310 0.000000 
#    z 0.000000 0.000000 1.881330 
# 
# From -- ./inp_files/7896.got.cif
#   From: 2010.05.17/outbox.cif.g08.bks.cpg/sg21_4_cif.got.tgz:7896.got - 2010.06.03 23:14:55.
