data_PCOD9324964
_publ_section_title
;
Structure prediction by ZEFSAII (Michael W. Deem and Ramdas Pophale) SiO2 
 PCOD9324964
Probable space group: C 2 2 2
;
_chemical_formula_sum "Si O2"
_cell_formula_units_Z 32
_cell_length_a 14.267408
_cell_length_b 5.742354
_cell_length_c 17.059813
_cell_angle_alpha 90.000000
_cell_angle_beta 90.000000
_cell_angle_gamma 90.000000
_cell_volume 1397.685016
_symmetry_space_group_name_H-M "C 2 2 2"
_symmetry_group_IT_number 21
_symmetry_cell_setting 'orthorhombic'
loop_
_space_group_symop_operation_xyz
x,y,z
-x,-y,z
x,-y,-z
-x,y,-z
1/2+x,1/2+y,z
1/2-x,1/2-y,z
1/2+x,1/2-y,-z
1/2-x,1/2+y,-z
loop_
_atom_site_type_symbol
_atom_site_label
_atom_site_fract_x
_atom_site_fract_y
_atom_site_fract_z
Si Si1 0.197578 0.000000 0.500000
Si Si2 0.360783 0.297037 0.213883
Si Si3 0.354609 0.648099 0.342636
Si Si4 0.107174 0.247476 0.029853
Si Si5 0.000000 0.500000 0.317995
O O1 0.250000 0.250000 0.508583
O O2 0.148284 0.971210 0.584476
O O3 0.250000 0.250000 0.223036
O O4 0.380027 0.539916 0.258243
O O5 0.386460 0.272344 0.123369
O O6 0.423461 0.120081 0.262589
O O7 0.250000 0.750000 0.332837
O O8 0.435717 0.825788 0.366127
O O9 0.144588 0.500000 0.000000
O O10 0.000000 0.247085 0.000000
O O11 0.148405 0.000000 0.000000
#
# Coordination Sequence:
#
# PCOD9324964 Si02
#       5
#     4   8   8   8   4
#     4  10  24  48  85 113 168 212 260 335 394 465
#     4  12  26  46  76 110 154 206 267 326 398 480
#     4  11  25  48  81 116 158 211 266 323 403 469
#     4  10  24  43  68 102 148 197 255 320 396 455
#     4  12  26  46  78 112 156 200 262 324 389 469
#
# _framework density 22.895001000000001
#
# number of rings (size 3 to 8) (size 9 to 14) (size 15 to 20)
#    0.000    1.000    2.500    3.000   14.000    1.000 
#    0.000    3.750    0.000    0.000    0.000    0.000 
#    0.000    0.000    0.000    0.000    0.000    0.000 
#
# Total GULP energy -89289.424572 kJ/mol
# GULP energy per Si atom -5580.589036 kJ/mol
# Density = 2.284289 g / cm^3
# Si number density = 22.895001 Si / 1000 Ang^3
#
#
#
# Elastic Constant Matrix: (Units=GPa)
#
#
# Indices 1 2 3 4 5 6 
#
# 1 146.4290 24.6181 6.6271 0.0000 0.0000 0.0000
# 2 24.6181 134.8565 36.9548 0.0000 0.0000 0.0000
# 3 6.6271 36.9548 120.0277 0.0000 0.0000 0.0000
# 4 0.0000 0.0000 0.0000 25.5157 0.0000 0.0000
# 5 0.0000 0.0000 0.0000 0.0000 170.2426 0.0000
# 6 0.0000 0.0000 0.0000 0.0000 0.0000 30.6995
#
#
#
# Elastic Compliance Matrix: (Units=1/GPa)
#
#
# Indices 1 2 3 4 5 6 
#
# 1 0.007045 -0.001288 0.000008 0.000000 0.000000 0.000000
# 2 -0.001288 0.008334 -0.002495 0.000000 0.000000 0.000000
# 3 0.000008 -0.002495 0.009099 0.000000 0.000000 0.000000
# 4 0.000000 0.000000 0.000000 0.039192 0.000000 0.000000
# 5 0.000000 0.000000 0.000000 0.000000 0.005874 0.000000
# 6 0.000000 0.000000 0.000000 0.000000 0.000000 0.032574
#
#
# Mechanical properties :
#
#
# Convention : Reuss Voigt Hill
#
# Bulk Modulus (GPa) = 59.07434 59.74593 59.41014
# Shear Modulus (GPa) = 43.36079 67.49910 55.42994
#
# Velocity S-wave (km/s) = 4.35661 5.43563 4.92575
# Velocity P-wave (km/s) = 7.15298 8.09611 7.63911
#
# Compressibility (1/GPa) = 0.01692782
#
# Stress axis : x y z
#
# Youngs Moduli (GPa) = 141.93481 119.98871 109.90081
#
# Poissons Ratio (x) = 0.15458 -0.00084
# Poissons Ratio (y) = 0.18285 0.27418
# Poissons Ratio (z) = -0.00108 0.29935
#
# Static dielectric constant tensor:
#      x y z
#    x 1.830280 0.000000 0.000000 
#    y 0.000000 1.743790 0.000000 
#    z 0.000000 0.000000 1.780000 
# 
# From -- ./inp_files/36458.got.cif
#   From: 2010.05.17/outbox.cif.g08.bks.cpg/sg21_19_cif.got.tgz:36458.got - 2010.06.03 23:14:55.
