data_PCOD9324677
_publ_section_title
;
Structure prediction by ZEFSAII (Michael W. Deem and Ramdas Pophale) SiO2 
 PCOD9324677
Probable space group: C 2 2 2
;
_chemical_formula_sum "Si O2"
_cell_formula_units_Z 52
_cell_length_a 21.141824
_cell_length_b 8.268378
_cell_length_c 14.296364
_cell_angle_alpha 90.000000
_cell_angle_beta 90.000000
_cell_angle_gamma 90.000000
_cell_volume 2499.127268
_symmetry_space_group_name_H-M "C 2 2 2"
_symmetry_group_IT_number 21
_symmetry_cell_setting 'orthorhombic'
loop_
_space_group_symop_operation_xyz
x,y,z
-x,-y,z
x,-y,-z
-x,y,-z
1/2+x,1/2+y,z
1/2-x,1/2-y,z
1/2+x,1/2-y,-z
1/2-x,1/2+y,-z
loop_
_atom_site_type_symbol
_atom_site_label
_atom_site_fract_x
_atom_site_fract_y
_atom_site_fract_z
Si Si1 0.070386 0.171637 0.457382
Si Si2 0.313774 0.059796 0.701300
Si Si3 0.936272 0.100102 0.764058
Si Si4 0.750000 0.750000 0.970644
Si Si5 0.851508 0.500000 0.500000
Si Si6 0.691551 0.587279 0.794321
Si Si7 0.571466 0.947535 0.179987
Si Si8 0.648073 0.000000 0.000000
O O1 0.065946 0.151856 0.345387
O O2 0.107941 0.335350 0.483286
O O3 0.000000 0.187868 0.500000
O O4 0.096058 0.000000 0.500000
O O5 0.315444 0.245819 0.735667
O O6 0.250836 0.991589 0.750312
O O7 0.310671 0.035284 0.591629
O O8 0.379126 0.984828 0.737700
O O9 0.933574 0.256030 0.829565
O O10 0.874281 0.999245 0.786544
O O11 0.000000 0.000000 0.778306
O O12 0.712417 0.632484 0.899021
O O13 0.695914 0.851888 0.021684
O O14 0.500000 0.000000 0.199616
O O15 0.603435 0.028131 0.089066
#
# Coordination Sequence:
#
# PCOD9324677 Si02
#       8
#     8   8   8   4   4   8   8   4
#     4  11  23  40  62 100 140 184 244 291 339 417
#     4  10  22  44  66  97 140 183 225 283 348 410
#     4  12  25  43  71  98 136 187 234 292 349 415
#     4  10  24  44  80 100 132 180 226 282 358 424
#     4  12  23  40  66 102 133 196 238 280 360 422
#     4  10  22  48  68  98 139 176 229 293 344 420
#     4  12  26  44  70 101 140 180 228 288 354 413
#     4  12  25  48  74 106 139 176 228 296 349 434
#
# _framework density 20.807262999999999
#
# number of rings (size 3 to 8) (size 9 to 14) (size 15 to 20)
#    0.000    1.077    6.154    2.308    4.308    0.615 
#    6.923    0.000    0.000    0.000    0.000    0.000 
#    0.000    0.000    0.000    0.000    0.000    0.000 
#
# Total GULP energy -145236.707691 kJ/mol
# GULP energy per Si atom -5586.027219 kJ/mol
# Density = 2.075990 g / cm^3
# Si number density = 20.807263 Si / 1000 Ang^3
#
#
#
# Elastic Constant Matrix: (Units=GPa)
#
#
# Indices 1 2 3 4 5 6 
#
# 1 165.3017 41.8334 7.3187 0.0000 0.0000 0.0000
# 2 41.8334 85.4356 -19.3514 0.0000 0.0000 0.0000
# 3 7.3187 -19.3514 38.1036 0.0000 0.0000 0.0000
# 4 0.0000 0.0000 0.0000 -8.3581 0.0000 0.0000
# 5 0.0000 0.0000 0.0000 0.0000 36.9721 0.0000
# 6 0.0000 0.0000 0.0000 0.0000 0.0000 26.3954
#
#
#
# Elastic Compliance Matrix: (Units=1/GPa)
#
#
# Indices 1 2 3 4 5 6 
#
# 1 0.007328 -0.004415 -0.003650 0.000000 0.000000 0.000000
# 2 -0.004415 0.015886 0.008916 0.000000 0.000000 0.000000
# 3 -0.003650 0.008916 0.031473 0.000000 0.000000 0.000000
# 4 0.000000 0.000000 0.000000 -0.119645 0.000000 0.000000
# 5 0.000000 0.000000 0.000000 0.000000 0.027047 0.000000
# 6 0.000000 0.000000 0.000000 0.000000 0.000000 0.037885
#
#
# Mechanical properties :
#
#
# Convention : Reuss Voigt Hill
#
# Bulk Modulus (GPa) = 17.73367 38.71580 28.22473
# Shear Modulus (GPa) = 292.90854 28.27125 160.58989
#
# Velocity S-wave (km/s) = 11.87762 3.69008 8.79473
# Velocity P-wave (km/s) = 14.02302 6.06654 10.80389
#
# Compressibility (1/GPa) = 0.05638991
#
# Stress axis : x y z
#
# Youngs Moduli (GPa) = 136.45401 62.94829 31.77292
#
# Poissons Ratio (x) = 0.27792 0.11597
# Poissons Ratio (y) = 0.60246 -0.28329
# Poissons Ratio (z) = 0.49804 -0.56124
#
# Static dielectric constant tensor:
#      x y z
#    x 1.777200 0.000000 0.000000 
#    y 0.000000 1.802820 0.000000 
#    z 0.000000 0.000000 1.736070 
# 
# From -- ./inp_files/33265.got.cif
#   From: 2010.05.17/outbox.cif.g08.bks.cpg/sg21_17_cif.got.tgz:33265.got - 2010.06.03 23:14:55.
