data_PCOD9324230
_publ_section_title
;
Structure prediction by ZEFSAII (Michael W. Deem and Ramdas Pophale) SiO2 
 PCOD9324230
Probable space group: C 2 2 2
;
_chemical_formula_sum "Si O2"
_cell_formula_units_Z 26
_cell_length_a 5.890180
_cell_length_b 13.981640
_cell_length_c 15.194476
_cell_angle_alpha 90.000000
_cell_angle_beta 90.000000
_cell_angle_gamma 90.000000
_cell_volume 1251.331594
_symmetry_space_group_name_H-M "C 2 2 2"
_symmetry_group_IT_number 21
_symmetry_cell_setting 'orthorhombic'
loop_
_space_group_symop_operation_xyz
x,y,z
-x,-y,z
x,-y,-z
-x,y,-z
1/2+x,1/2+y,z
1/2-x,1/2-y,z
1/2+x,1/2-y,-z
1/2-x,1/2+y,-z
loop_
_atom_site_type_symbol
_atom_site_label
_atom_site_fract_x
_atom_site_fract_y
_atom_site_fract_z
Si Si1 0.250000 0.750000 0.257280
Si Si2 0.250000 0.250000 0.046452
Si Si3 0.000000 0.000000 0.500000
Si Si4 0.098910 0.900050 0.668703
Si Si5 0.069714 0.393348 0.177847
O O1 0.428457 0.688274 0.315604
O O2 0.353761 0.827072 0.190767
O O3 0.236642 0.343417 0.109192
O O4 0.500000 0.251170 0.000000
O O5 0.866262 0.069557 0.567062
O O6 0.321933 0.885647 0.724896
O O7 0.000000 0.000000 0.707229
O O8 0.000000 0.500000 0.155012
#
# Coordination Sequence:
#
# PCOD9324230 Si02
#       5
#     4   4   2   8   8
#     4  12  21  42  69 104 136 198 236 291 374 443
#     4  12  29  50  75 114 152 190 258 317 372 459
#     4   8  20  44  62 112 144 182 256 304 346 444
#     4  10  21  41  69 102 143 186 243 297 361 434
#     4  12  24  45  76 101 141 195 238 301 382 441
#
# _framework density 20.777866
#
# number of rings (size 3 to 8) (size 9 to 14) (size 15 to 20)
#    0.923    0.000    6.154    0.923    0.000    0.615 
#    5.538   10.000    0.000    0.000    0.000    0.000 
#    0.000    0.000    0.000    0.000    0.000    0.000 
#
# Total GULP energy -72381.268336 kJ/mol
# GULP energy per Si atom -5567.789872 kJ/mol
# Density = 2.073057 g / cm^3
# Si number density = 20.777866 Si / 1000 Ang^3
#
#
#
# Elastic Constant Matrix: (Units=GPa)
#
#
# Indices 1 2 3 4 5 6 
#
# 1 62.7157 46.4833 35.6064 0.0000 0.0000 0.0000
# 2 46.4833 179.0173 34.8532 0.0000 0.0000 0.0000
# 3 35.6064 34.8532 101.2336 0.0000 0.0000 0.0000
# 4 0.0000 0.0000 0.0000 110.3460 0.0000 0.0000
# 5 0.0000 0.0000 0.0000 0.0000 35.6222 0.0000
# 6 0.0000 0.0000 0.0000 0.0000 0.0000 43.8128
#
#
#
# Elastic Compliance Matrix: (Units=1/GPa)
#
#
# Indices 1 2 3 4 5 6 
#
# 1 0.023159 -0.004746 -0.006512 0.000000 0.000000 0.000000
# 2 -0.004746 0.006960 -0.000727 0.000000 0.000000 0.000000
# 3 -0.006512 -0.000727 0.012419 0.000000 0.000000 0.000000
# 4 0.000000 0.000000 0.000000 0.009062 0.000000 0.000000
# 5 0.000000 0.000000 0.000000 0.000000 0.028072 0.000000
# 6 0.000000 0.000000 0.000000 0.000000 0.000000 0.022824
#
#
# Mechanical properties :
#
#
# Convention : Reuss Voigt Hill
#
# Bulk Modulus (GPa) = 53.85333 64.09471 58.97402
# Shear Modulus (GPa) = 37.69143 53.02444 45.35794
#
# Velocity S-wave (km/s) = 4.26375 5.05718 4.67732
# Velocity P-wave (km/s) = 7.08620 8.06317 7.59042
#
# Compressibility (1/GPa) = 0.01856895
#
# Stress axis : x y z
#
# Youngs Moduli (GPa) = 43.17889 143.68103 80.52299
#
# Poissons Ratio (x) = 0.68187 0.52436
# Poissons Ratio (y) = 0.20492 0.05854
# Poissons Ratio (z) = 0.28118 0.10445
#
# Static dielectric constant tensor:
#      x y z
#    x 1.907620 0.000000 0.000000 
#    y 0.000000 1.789260 0.000000 
#    z 0.000000 0.000000 1.788390 
# 
# From -- ./inp_files/28492.got.cif
#   From: 2010.05.17/outbox.cif.g08.bks.cpg/sg21_15_cif.got.tgz:28492.got - 2010.06.03 23:14:55.
