data_PCOD9324452
_publ_section_title
;
Structure prediction by ZEFSAII (Michael W. Deem and Ramdas Pophale) SiO2 
 PCOD9324452
Probable space group: C 2 2 2
;
_chemical_formula_sum "Si O2"
_cell_formula_units_Z 30
_cell_length_a 16.834767
_cell_length_b 12.839650
_cell_length_c 4.945571
_cell_angle_alpha 90.000000
_cell_angle_beta 90.000000
_cell_angle_gamma 90.000000
_cell_volume 1068.997615
_symmetry_space_group_name_H-M "C 2 2 2"
_symmetry_group_IT_number 21
_symmetry_cell_setting 'orthorhombic'
loop_
_space_group_symop_operation_xyz
x,y,z
-x,-y,z
x,-y,-z
-x,y,-z
1/2+x,1/2+y,z
1/2-x,1/2-y,z
1/2+x,1/2-y,-z
1/2-x,1/2+y,-z
loop_
_atom_site_type_symbol
_atom_site_label
_atom_site_fract_x
_atom_site_fract_y
_atom_site_fract_z
Si Si1 0.903758 0.825364 0.185519
Si Si2 0.736524 0.107126 0.618862
Si Si3 0.500000 0.500000 0.500000
Si Si4 0.405337 0.190927 0.672593
Si Si5 0.607872 0.000000 0.000000
O O1 0.809749 0.838250 0.236993
O O2 0.931415 0.731023 0.379197
O O3 0.947043 0.927146 0.302258
O O4 0.915204 0.786553 0.880972
O O5 0.688524 0.165719 0.382456
O O6 0.666877 0.070211 0.819170
O O7 0.770921 0.000000 0.500000
O O8 0.434800 0.082580 0.801605
#
# Coordination Sequence:
#
# PCOD9324452 Si02
#       5
#     8   8   2   8   4
#     4  12  27  45  72 103 156 213 260 311 367 481
#     4  10  22  39  68 112 150 191 245 328 408 444
#     4  12  32  58  72 108 164 226 272 288 364 484
#     4  11  25  41  73 108 150 191 255 330 408 444
#     4  10  22  42  68 116 148 174 238 334 420 458
#
# _framework density 28.063672
#
# number of rings (size 3 to 8) (size 9 to 14) (size 15 to 20)
#    0.000    1.067    4.000    0.800   11.200    3.200 
#    0.000    0.000    0.000    4.800    0.000    0.000 
#    0.000    0.000    0.000    0.000    0.000    0.000 
#
# Total GULP energy -84103.618114 kJ/mol
# GULP energy per Si atom -5606.907874 kJ/mol
# Density = 2.799980 g / cm^3
# Si number density = 28.063672 Si / 1000 Ang^3
#
#
#
# Elastic Constant Matrix: (Units=GPa)
#
#
# Indices 1 2 3 4 5 6 
#
# 1 117.3940 52.9562 35.0657 0.0000 0.0000 0.0000
# 2 52.9562 142.2727 61.8747 0.0000 0.0000 0.0000
# 3 35.0657 61.8747 164.1044 0.0000 0.0000 0.0000
# 4 0.0000 0.0000 0.0000 64.9754 0.0000 0.0000
# 5 0.0000 0.0000 0.0000 0.0000 43.8029 0.0000
# 6 0.0000 0.0000 0.0000 0.0000 0.0000 61.6397
#
#
#
# Elastic Compliance Matrix: (Units=1/GPa)
#
#
# Indices 1 2 3 4 5 6 
#
# 1 0.010349 -0.003457 -0.000908 0.000000 0.000000 0.000000
# 2 -0.003457 0.009562 -0.002867 0.000000 0.000000 0.000000
# 3 -0.000908 -0.002867 0.007369 0.000000 0.000000 0.000000
# 4 0.000000 0.000000 0.000000 0.015390 0.000000 0.000000
# 5 0.000000 0.000000 0.000000 0.000000 0.022830 0.000000
# 6 0.000000 0.000000 0.000000 0.000000 0.000000 0.016223
#
#
# Mechanical properties :
#
#
# Convention : Reuss Voigt Hill
#
# Bulk Modulus (GPa) = 78.02528 80.39605 79.21066
# Shear Modulus (GPa) = 49.77159 52.34189 51.05674
#
# Velocity S-wave (km/s) = 4.21589 4.32338 4.26997
# Velocity P-wave (km/s) = 7.18064 7.32339 7.25237
#
# Compressibility (1/GPa) = 0.01281636
#
# Stress axis : x y z
#
# Youngs Moduli (GPa) = 96.62707 104.57699 135.71217
#
# Poissons Ratio (x) = 0.36155 0.12320
# Poissons Ratio (y) = 0.33407 0.38904
# Poissons Ratio (z) = 0.08772 0.29979
#
# Static dielectric constant tensor:
#      x y z
#    x 2.264420 0.000000 0.000000 
#    y 0.000000 2.213060 0.000000 
#    z 0.000000 0.000000 2.130100 
# 
# From -- ./inp_files/4628.got.cif
#   From: 2010.05.17/outbox.cif.g08.bks.cpg/sg21_3_cif.got.tgz:4628.got - 2010.06.03 23:14:55.
