data_PCOD9324330
_publ_section_title
;
Structure prediction by ZEFSAII (Michael W. Deem and Ramdas Pophale) SiO2 
 PCOD9324330
Probable space group: C 2 2 2
;
_chemical_formula_sum "Si O2"
_cell_formula_units_Z 48
_cell_length_a 28.073094
_cell_length_b 17.893658
_cell_length_c 4.906564
_cell_angle_alpha 90.000000
_cell_angle_beta 90.000000
_cell_angle_gamma 90.000000
_cell_volume 2464.715977
_symmetry_space_group_name_H-M "C 2 2 2"
_symmetry_group_IT_number 21
_symmetry_cell_setting 'orthorhombic'
loop_
_space_group_symop_operation_xyz
x,y,z
-x,-y,z
x,-y,-z
-x,y,-z
1/2+x,1/2+y,z
1/2-x,1/2-y,z
1/2+x,1/2-y,-z
1/2-x,1/2+y,-z
loop_
_atom_site_type_symbol
_atom_site_label
_atom_site_fract_x
_atom_site_fract_y
_atom_site_fract_z
Si Si1 0.949397 0.770768 0.461847
Si Si2 0.351139 0.267448 0.649082
Si Si3 0.250653 0.446186 0.239308
Si Si4 0.859873 0.922946 0.339007
Si Si5 0.552101 0.624761 0.969567
Si Si6 0.702788 0.210923 0.844330
O O1 0.901062 0.731467 0.551242
O O2 0.948143 0.800051 0.154257
O O3 0.000000 0.731672 0.500000
O O4 0.949522 0.844801 0.660136
O O5 0.356550 0.354670 0.559130
O O6 0.309620 0.240287 0.453530
O O7 0.338360 0.240980 0.952090
O O8 0.247084 0.500000 0.500000
O O9 0.306697 0.423799 0.212475
O O10 0.216907 0.374712 0.205750
O O11 0.237278 0.500000 0.000000
O O12 0.901558 0.913773 0.109254
O O13 0.868143 0.000000 0.500000
O O14 0.500000 0.586948 0.000000
O O15 0.750000 0.250000 0.955159
#
# Coordination Sequence:
#
# PCOD9324330 Si02
#       6
#     8   8   8   8   8   8
#     4   9  18  33  56  81 110 145 187 238 291 345
#     4  11  22  37  58  84 115 153 197 244 294 353
#     4  11  25  41  59  82 116 155 199 245 297 353
#     4  10  22  36  57  83 112 156 207 251 297 348
#     4   9  18  34  53  74 104 148 197 246 288 329
#     4  12  24  38  59  85 118 151 198 245 294 352
#
# _framework density 19.47486
#
# number of rings (size 3 to 8) (size 9 to 14) (size 15 to 20)
#    0.000    1.667    1.667    3.500    4.667    2.667 
#    0.000    0.000    0.000   71.500    0.000    0.000 
#    0.000   10.000    0.000    0.000    0.000    0.000 
#
# Total GULP energy -133667.662098 kJ/mol
# GULP energy per Si atom -5569.485921 kJ/mol
# Density = 1.943053 g / cm^3
# Si number density = 19.474860 Si / 1000 Ang^3
#
#
#
# Elastic Constant Matrix: (Units=GPa)
#
#
# Indices 1 2 3 4 5 6 
#
# 1 92.9897 35.1844 12.5477 0.0000 0.0000 0.0000
# 2 35.1844 86.3696 31.3107 0.0000 0.0000 0.0000
# 3 12.5477 31.3107 80.3664 0.0000 0.0000 0.0000
# 4 0.0000 0.0000 0.0000 26.0198 0.0000 0.0000
# 5 0.0000 0.0000 0.0000 0.0000 41.5094 0.0000
# 6 0.0000 0.0000 0.0000 0.0000 0.0000 12.4345
#
#
#
# Elastic Compliance Matrix: (Units=1/GPa)
#
#
# Indices 1 2 3 4 5 6 
#
# 1 0.012714 -0.005193 0.000038 0.000000 0.000000 0.000000
# 2 -0.005193 0.015603 -0.005268 0.000000 0.000000 0.000000
# 3 0.000038 -0.005268 0.014490 0.000000 0.000000 0.000000
# 4 0.000000 0.000000 0.000000 0.038432 0.000000 0.000000
# 5 0.000000 0.000000 0.000000 0.000000 0.024091 0.000000
# 6 0.000000 0.000000 0.000000 0.000000 0.000000 0.080421
#
#
# Mechanical properties :
#
#
# Convention : Reuss Voigt Hill
#
# Bulk Modulus (GPa) = 45.53643 46.42347 45.97995
# Shear Modulus (GPa) = 23.37350 28.03827 25.70588
#
# Velocity S-wave (km/s) = 3.46813 3.79848 3.63706
# Velocity P-wave (km/s) = 6.28253 6.56714 6.42641
#
# Compressibility (1/GPa) = 0.02196044
#
# Stress axis : x y z
#
# Youngs Moduli (GPa) = 78.65603 64.08829 69.01511
#
# Poissons Ratio (x) = 0.33281 -0.00264
# Poissons Ratio (y) = 0.40846 0.36359
# Poissons Ratio (z) = -0.00300 0.33764
#
# Static dielectric constant tensor:
#      x y z
#    x 1.856420 0.000000 0.000000 
#    y 0.000000 1.651390 0.000000 
#    z 0.000000 0.000000 1.704870 
# 
# From -- ./inp_files/7330.got.cif
#   From: 2010.05.17/outbox.cif.g08.bks.cpg/sg21_4_cif.got.tgz:7330.got - 2010.06.03 23:14:55.
