data_PCOD9324816
_publ_section_title
;
Structure prediction by ZEFSAII (Michael W. Deem and Ramdas Pophale) SiO2 
 PCOD9324816
Probable space group: C 2 2 2
;
_chemical_formula_sum "Si O2"
_cell_formula_units_Z 40
_cell_length_a 14.744152
_cell_length_b 10.307352
_cell_length_c 12.980364
_cell_angle_alpha 90.000000
_cell_angle_beta 90.000000
_cell_angle_gamma 90.000000
_cell_volume 1972.666995
_symmetry_space_group_name_H-M "C 2 2 2"
_symmetry_group_IT_number 21
_symmetry_cell_setting 'orthorhombic'
loop_
_space_group_symop_operation_xyz
x,y,z
-x,-y,z
x,-y,-z
-x,y,-z
1/2+x,1/2+y,z
1/2-x,1/2-y,z
1/2+x,1/2-y,-z
1/2-x,1/2+y,-z
loop_
_atom_site_type_symbol
_atom_site_label
_atom_site_fract_x
_atom_site_fract_y
_atom_site_fract_z
Si Si1 0.200382 0.118432 0.781346
Si Si2 0.396976 0.548043 0.616088
Si Si3 0.857050 0.733288 0.249453
Si Si4 0.123872 0.524735 0.121765
Si Si5 0.018721 0.786606 0.119801
O O1 0.250000 0.250000 0.741095
O O2 0.104606 0.137402 0.837584
O O3 0.176856 0.022299 0.688533
O O4 0.273177 0.072200 0.864583
O O5 0.500000 0.500000 0.640097
O O6 0.381075 0.500000 0.500000
O O7 0.383843 0.702133 0.640433
O O8 0.750000 0.750000 0.233253
O O9 0.878701 0.588770 0.207908
O O10 0.924356 0.815124 0.175975
O O11 0.052934 0.639429 0.142500
O O12 0.110879 0.500000 0.000000
O O13 0.000000 0.802379 0.000000
#
# Coordination Sequence:
#
# PCOD9324816 Si02
#       5
#     8   8   8   8   8
#     4  10  23  42  63  94 133 169 220 274 327 395
#     4  11  24  46  68  90 123 170 225 289 340 381
#     4  12  24  39  66  96 130 173 227 271 323 397
#     4  11  23  39  65  98 139 176 213 263 324 402
#     4  11  23  38  63  94 139 185 212 255 331 402
#
# _framework density 20.277117000000001
#
# number of rings (size 3 to 8) (size 9 to 14) (size 15 to 20)
#    0.000    1.000    6.000    0.600    2.800    0.800 
#    0.000    1.000    0.000    0.000    0.000    0.000 
#    0.000    0.000    0.000    0.000    0.000    0.000 
#
# Total GULP energy -111365.652062 kJ/mol
# GULP energy per Si atom -5568.282603 kJ/mol
# Density = 2.023096 g / cm^3
# Si number density = 20.277117 Si / 1000 Ang^3
#
#
#
# Elastic Constant Matrix: (Units=GPa)
#
#
# Indices 1 2 3 4 5 6 
#
# 1 150.0842 -2.1034 38.9049 0.0000 0.0000 0.0000
# 2 -2.1034 79.5312 39.0767 0.0000 0.0000 0.0000
# 3 38.9049 39.0767 97.9776 0.0000 0.0000 0.0000
# 4 0.0000 0.0000 0.0000 25.3307 0.0000 0.0000
# 5 0.0000 0.0000 0.0000 0.0000 -47.8435 0.0000
# 6 0.0000 0.0000 0.0000 0.0000 0.0000 11.0335
#
#
#
# Elastic Compliance Matrix: (Units=1/GPa)
#
#
# Indices 1 2 3 4 5 6 
#
# 1 0.007705 0.002123 -0.003906 0.000000 0.000000 0.000000
# 2 0.002123 0.016223 -0.007313 0.000000 0.000000 0.000000
# 3 -0.003906 -0.007313 0.014674 0.000000 0.000000 0.000000
# 4 0.000000 0.000000 0.000000 0.039478 0.000000 0.000000
# 5 0.000000 0.000000 0.000000 0.000000 -0.020901 0.000000
# 6 0.000000 0.000000 0.000000 0.000000 0.000000 0.090633
#
#
# Mechanical properties :
#
#
# Convention : Reuss Voigt Hill
#
# Bulk Modulus (GPa) = 48.99662 53.26105 51.12884
# Shear Modulus (GPa) = 28.93371 14.48512 21.70942
#
# Velocity S-wave (km/s) = 3.78155 2.67565 3.27561
# Velocity P-wave (km/s) = 6.57897 5.98908 6.29094
#
# Compressibility (1/GPa) = 0.02040957
#
# Stress axis : x y z
#
# Youngs Moduli (GPa) = 129.78072 61.64013 68.14586
#
# Poissons Ratio (x) = -0.13087 0.26621
# Poissons Ratio (y) = -0.27554 0.49838
# Poissons Ratio (z) = 0.50698 0.45080
#
# Static dielectric constant tensor:
#      x y z
#    x 1.775120 0.000000 0.000000 
#    y 0.000000 2.021150 0.000000 
#    z 0.000000 0.000000 1.697020 
# 
# From -- ./inp_files/23781.got.cif
#   From: 2010.05.17/outbox.cif.g08.bks.cpg/sg21_12_cif.got.tgz:23781.got - 2010.06.03 23:14:55.
