data_PCOD9324958
_publ_section_title
;
Structure prediction by ZEFSAII (Michael W. Deem and Ramdas Pophale) SiO2 
 PCOD9324958
Probable space group: C 2 2 2
;
_chemical_formula_sum "Si O2"
_cell_formula_units_Z 48
_cell_length_a 26.113293
_cell_length_b 15.703528
_cell_length_c 5.731609
_cell_angle_alpha 90.000000
_cell_angle_beta 90.000000
_cell_angle_gamma 90.000000
_cell_volume 2350.365647
_symmetry_space_group_name_H-M "C 2 2 2"
_symmetry_group_IT_number 21
_symmetry_cell_setting 'orthorhombic'
loop_
_space_group_symop_operation_xyz
x,y,z
-x,-y,z
x,-y,-z
-x,y,-z
1/2+x,1/2+y,z
1/2-x,1/2-y,z
1/2+x,1/2-y,-z
1/2-x,1/2+y,-z
loop_
_atom_site_type_symbol
_atom_site_label
_atom_site_fract_x
_atom_site_fract_y
_atom_site_fract_z
Si Si1 0.727749 0.500000 0.000000
Si Si2 0.072060 0.581180 0.866835
Si Si3 0.183090 0.568649 0.691836
Si Si4 0.341607 0.655642 0.104115
Si Si5 0.310563 0.740113 0.599828
Si Si6 0.055310 0.241710 0.881735
Si Si7 0.000000 0.668341 0.500000
O O1 0.768583 0.561029 0.134569
O O2 0.688439 0.434116 0.121090
O O3 0.127300 0.547761 0.787378
O O4 0.032185 0.609247 0.670729
O O5 0.051412 0.500000 0.000000
O O6 0.077651 0.669886 0.010081
O O7 0.197111 0.500000 0.500000
O O8 0.172370 0.662374 0.598469
O O9 0.326964 0.699975 0.351742
O O10 0.403331 0.667062 0.098525
O O11 0.325982 0.696201 0.848620
O O12 0.250000 0.750000 0.600007
O O13 0.040844 0.269673 0.622015
O O14 0.000000 0.224161 0.000000
#
# Coordination Sequence:
#
# PCOD9324958 Si02
#       7
#     4   8   8   8   8   8   4
#     4  12  28  48  71 108 149 184 250 306 374 438
#     4  11  24  38  61  94 139 184 237 293 360 426
#     4  12  26  42  65 101 147 194 236 298 354 443
#     4  12  27  47  74 107 142 194 241 306 369 435
#     4  12  25  44  73 102 145 192 242 286 363 444
#     4  10  24  45  68  98 133 184 249 303 370 439
#     4  10  24  43  62  94 137 188 242 306 351 446
#
# _framework density 20.422355
#
# number of rings (size 3 to 8) (size 9 to 14) (size 15 to 20)
#    0.000    0.667    4.167    2.500    9.333    3.667 
#    0.000    0.417    0.000    0.000    0.000    0.000 
#    0.000    0.000    0.000    0.000    0.000    0.000 
#
# Total GULP energy -133719.327770 kJ/mol
# GULP energy per Si atom -5571.638657 kJ/mol
# Density = 2.037587 g / cm^3
# Si number density = 20.422355 Si / 1000 Ang^3
#
#
#
# Elastic Constant Matrix: (Units=GPa)
#
#
# Indices 1 2 3 4 5 6 
#
# 1 128.3418 17.0927 21.4857 0.0000 0.0000 0.0000
# 2 17.0927 69.3195 31.5565 0.0000 0.0000 0.0000
# 3 21.4857 31.5565 91.0724 0.0000 0.0000 0.0000
# 4 0.0000 0.0000 0.0000 29.2170 0.0000 0.0000
# 5 0.0000 0.0000 0.0000 0.0000 11.6540 0.0000
# 6 0.0000 0.0000 0.0000 0.0000 0.0000 55.1103
#
#
#
# Elastic Compliance Matrix: (Units=1/GPa)
#
#
# Indices 1 2 3 4 5 6 
#
# 1 0.008218 -0.001358 -0.001468 0.000000 0.000000 0.000000
# 2 -0.001358 0.017352 -0.005692 0.000000 0.000000 0.000000
# 3 -0.001468 -0.005692 0.013299 0.000000 0.000000 0.000000
# 4 0.000000 0.000000 0.000000 0.034227 0.000000 0.000000
# 5 0.000000 0.000000 0.000000 0.000000 0.085808 0.000000
# 6 0.000000 0.000000 0.000000 0.000000 0.000000 0.018145
#
#
# Mechanical properties :
#
#
# Convention : Reuss Voigt Hill
#
# Bulk Modulus (GPa) = 45.80324 47.66705 46.73514
# Shear Modulus (GPa) = 24.83072 33.76951 29.30011
#
# Velocity S-wave (km/s) = 3.49070 4.07081 3.79186
# Velocity P-wave (km/s) = 6.22281 6.74437 6.48883
#
# Compressibility (1/GPa) = 0.02183252
#
# Stress axis : x y z
#
# Youngs Moduli (GPa) = 121.67861 57.63014 75.19379
#
# Poissons Ratio (x) = 0.07826 0.11041
# Poissons Ratio (y) = 0.16525 0.42801
# Poissons Ratio (z) = 0.17866 0.32803
#
# Static dielectric constant tensor:
#      x y z
#    x 1.647330 0.000000 0.000000 
#    y 0.000000 1.712910 0.000000 
#    z 0.000000 0.000000 1.845640 
# 
# From -- ./inp_files/7354.got.cif
#   From: 2010.05.17/outbox.cif.g08.bks.cpg/sg21_4_cif.got.tgz:7354.got - 2010.06.03 23:14:55.
