data_PCOD9324921
_publ_section_title
;
Structure prediction by ZEFSAII (Michael W. Deem and Ramdas Pophale) SiO2 
 PCOD9324921
Probable space group: C 2 2 2
;
_chemical_formula_sum "Si O2"
_cell_formula_units_Z 40
_cell_length_a 22.365996
_cell_length_b 8.835032
_cell_length_c 8.759762
_cell_angle_alpha 90.000000
_cell_angle_beta 90.000000
_cell_angle_gamma 90.000000
_cell_volume 1730.966554
_symmetry_space_group_name_H-M "C 2 2 2"
_symmetry_group_IT_number 21
_symmetry_cell_setting 'orthorhombic'
loop_
_space_group_symop_operation_xyz
x,y,z
-x,-y,z
x,-y,-z
-x,y,-z
1/2+x,1/2+y,z
1/2-x,1/2-y,z
1/2+x,1/2-y,-z
1/2-x,1/2+y,-z
loop_
_atom_site_type_symbol
_atom_site_label
_atom_site_fract_x
_atom_site_fract_y
_atom_site_fract_z
Si Si1 0.840128 0.254032 0.226234
Si Si2 0.354437 0.000000 0.000000
Si Si3 0.478089 0.824540 0.325353
Si Si4 0.092935 0.244410 0.198492
Si Si5 0.307924 0.677002 0.550855
Si Si6 0.652773 0.500000 0.000000
O O1 0.820170 0.380232 0.104633
O O2 0.911201 0.282032 0.269658
O O3 0.812425 0.268073 0.392468
O O4 0.822069 0.093921 0.146364
O O5 0.392476 0.094836 0.121808
O O6 0.500000 0.793054 0.500000
O O7 0.523771 0.727299 0.227711
O O8 0.500000 0.000000 0.304577
O O9 0.133851 0.213782 0.347252
O O10 0.113860 0.127991 0.074567
O O11 0.305277 0.500000 0.500000
O O12 0.250000 0.750000 0.633292
#
# Coordination Sequence:
#
# PCOD9324921 Si02
#       6
#     8   4   8   8   8   4
#     4  11  23  45  68 102 139 179 226 274 337 399
#     4  10  24  39  71 102 142 184 217 275 334 406
#     4  11  22  36  67 103 139 176 224 273 322 404
#     4  11  23  45  68 102 139 179 226 274 337 399
#     4  12  28  49  74  99 129 176 234 286 337 404
#     4  10  24  43  65  96 148 174 217 283 338 402
#
# _framework density 23.108477000000001
#
# number of rings (size 3 to 8) (size 9 to 14) (size 15 to 20)
#    0.000    1.000    6.000    0.000    2.800    5.600 
#    0.000    8.000    0.000    0.000    0.000    0.000 
#    0.000    0.000    0.000    0.000    0.000    0.000 
#
# Total GULP energy -111463.747314 kJ/mol
# GULP energy per Si atom -5573.187366 kJ/mol
# Density = 2.305588 g / cm^3
# Si number density = 23.108477 Si / 1000 Ang^3
#
#
#
# Elastic Constant Matrix: (Units=GPa)
#
#
# Indices 1 2 3 4 5 6 
#
# 1 136.5367 3.3937 6.5823 0.0000 0.0000 0.0000
# 2 3.3937 66.3806 3.8043 0.0000 0.0000 0.0000
# 3 6.5823 3.8043 88.3351 0.0000 0.0000 0.0000
# 4 0.0000 0.0000 0.0000 26.8823 0.0000 0.0000
# 5 0.0000 0.0000 0.0000 0.0000 -42.0325 0.0000
# 6 0.0000 0.0000 0.0000 0.0000 0.0000 -21.3670
#
#
#
# Elastic Compliance Matrix: (Units=1/GPa)
#
#
# Indices 1 2 3 4 5 6 
#
# 1 0.007358 -0.000346 -0.000533 0.000000 0.000000 0.000000
# 2 -0.000346 0.015118 -0.000625 0.000000 0.000000 0.000000
# 3 -0.000533 -0.000625 0.011387 0.000000 0.000000 0.000000
# 4 0.000000 0.000000 0.000000 0.037199 0.000000 0.000000
# 5 0.000000 0.000000 0.000000 0.000000 -0.023791 0.000000
# 6 0.000000 0.000000 0.000000 0.000000 0.000000 -0.046801
#
#
# Mechanical properties :
#
#
# Convention : Reuss Voigt Hill
#
# Bulk Modulus (GPa) = 32.40975 35.42368 33.91672
# Shear Modulus (GPa) = 363.25603 11.19470 187.22536
#
# Velocity S-wave (km/s) = 12.55138 2.20339 9.01089
# Velocity P-wave (km/s) = 14.97014 4.67288 11.08921
#
# Compressibility (1/GPa) = 0.03085491
#
# Stress axis : x y z
#
# Youngs Moduli (GPa) = 135.90012 66.14569 87.81788
#
# Poissons Ratio (x) = 0.02286 0.04684
# Poissons Ratio (y) = 0.04697 0.05492
# Poissons Ratio (z) = 0.07249 0.04136
#
# Static dielectric constant tensor:
#      x y z
#    x 1.831480 0.000000 0.000000 
#    y 0.000000 2.061200 0.000000 
#    z 0.000000 0.000000 1.965120 
# 
# From -- ./inp_files/18980.got.cif
#   From: 2010.05.17/outbox.cif.g08.bks.cpg/sg21_10_cif.got.tgz:18980.got - 2010.06.03 23:14:55.
