data_PCOD9324971
_publ_section_title
;
Structure prediction by ZEFSAII (Michael W. Deem and Ramdas Pophale) SiO2 
 PCOD9324971
Probable space group: C 2 2 2
;
_chemical_formula_sum "Si O2"
_cell_formula_units_Z 32
_cell_length_a 13.232006
_cell_length_b 6.191199
_cell_length_c 17.268212
_cell_angle_alpha 90.000000
_cell_angle_beta 90.000000
_cell_angle_gamma 90.000000
_cell_volume 1414.646158
_symmetry_space_group_name_H-M "C 2 2 2"
_symmetry_group_IT_number 21
_symmetry_cell_setting 'orthorhombic'
loop_
_space_group_symop_operation_xyz
x,y,z
-x,-y,z
x,-y,-z
-x,y,-z
1/2+x,1/2+y,z
1/2-x,1/2-y,z
1/2+x,1/2-y,-z
1/2-x,1/2+y,-z
loop_
_atom_site_type_symbol
_atom_site_label
_atom_site_fract_x
_atom_site_fract_y
_atom_site_fract_z
Si Si1 0.855061 0.367688 0.868710
Si Si2 0.000000 0.500000 0.000000
Si Si3 0.106294 0.887133 0.717304
Si Si4 0.107300 0.380797 0.424378
Si Si5 0.500000 0.500000 0.500000
Si Si6 0.750000 0.750000 0.781605
O O1 0.750000 0.250000 0.887396
O O2 0.927021 0.372289 0.942098
O O3 0.905322 0.232019 0.799426
O O4 0.823939 0.603486 0.834999
O O5 0.143590 0.693263 0.659987
O O6 0.185050 0.082929 0.729921
O O7 0.000000 0.000000 0.695062
O O8 0.157430 0.500000 0.500000
O O9 0.075937 0.149307 0.454931
O O10 0.000000 0.500000 0.412245
#
# Coordination Sequence:
#
# PCOD9324971 Si02
#       6
#     8   2   8   8   2   4
#     4  10  25  45  66 107 140 186 239 293 349 427
#     4  12  24  44  78  98 150 190 228 284 374 430
#     4  11  22  40  70 103 134 183 243 287 360 426
#     4   9  19  31  58 102 130 169 232 294 343 418
#     4   8  14  32  48  98 120 166 218 286 336 406
#     4  10  24  44  66 102 142 180 240 302 336 414
#
# _framework density 22.620495999999999
#
# number of rings (size 3 to 8) (size 9 to 14) (size 15 to 20)
#    0.000    2.250    1.250    1.500    7.000    0.000 
#    0.000    5.000    0.000    0.000   78.000    0.000 
#    0.000    0.000    0.000    0.000    0.000    0.000 
#
# Total GULP energy -89186.346946 kJ/mol
# GULP energy per Si atom -5574.146684 kJ/mol
# Density = 2.256901 g / cm^3
# Si number density = 22.620496 Si / 1000 Ang^3
#
#
#
# Elastic Constant Matrix: (Units=GPa)
#
#
# Indices 1 2 3 4 5 6 
#
# 1 85.4512 38.1061 59.2079 0.0000 0.0000 0.0000
# 2 38.1061 124.3582 63.0842 0.0000 0.0000 0.0000
# 3 59.2079 63.0842 170.7847 0.0000 0.0000 0.0000
# 4 0.0000 0.0000 0.0000 29.4279 0.0000 0.0000
# 5 0.0000 0.0000 0.0000 0.0000-1044.3984 0.0000
# 6 0.0000 0.0000 0.0000 0.0000 0.0000 7.8257
#
#
#
# Elastic Compliance Matrix: (Units=1/GPa)
#
#
# Indices 1 2 3 4 5 6 
#
# 1 0.016047 -0.002578 -0.004611 0.000000 0.000000 0.000000
# 2 -0.002578 0.010310 -0.002914 0.000000 0.000000 0.000000
# 3 -0.004611 -0.002914 0.008530 0.000000 0.000000 0.000000
# 4 0.000000 0.000000 0.000000 0.033981 0.000000 0.000000
# 5 0.000000 0.000000 0.000000 0.000000 -0.000957 0.000000
# 6 0.000000 0.000000 0.000000 0.000000 0.000000 0.127785
#
#
# Mechanical properties :
#
#
# Convention : Reuss Voigt Hill
#
# Bulk Modulus (GPa) = 68.11877 77.93228 73.02553
# Shear Modulus (GPa) = 22.64533 -186.74923 -82.05195
#
# Velocity S-wave (km/s) = 3.16745 -9.09597 -6.02926
# Velocity P-wave (km/s) = 6.59970 8.70568 4.01452
#
# Compressibility (1/GPa) = 0.01468024
#
# Stress axis : x y z
#
# Youngs Moduli (GPa) = 62.31641 96.99611 117.22841
#
# Poissons Ratio (x) = 0.25007 0.54053
# Poissons Ratio (y) = 0.16066 0.34165
# Poissons Ratio (z) = 0.28734 0.28268
#
# Static dielectric constant tensor:
#      x y z
#    x 1.859330 0.000000 0.000000 
#    y 0.000000 1.975590 0.000000 
#    z 0.000000 0.000000 1.975940 
# 
# From -- ./inp_files/36514.got.cif
#   From: 2010.05.17/outbox.cif.g08.bks.cpg/sg21_19_cif.got.tgz:36514.got - 2010.06.03 23:14:55.
