data_PCOD9324151
_publ_section_title
;
Structure prediction by ZEFSAII (Michael W. Deem and Ramdas Pophale) SiO2 
 PCOD9324151
Probable space group: C 2 2 2
;
_chemical_formula_sum "Si O2"
_cell_formula_units_Z 64
_cell_length_a 9.078542
_cell_length_b 27.612010
_cell_length_c 12.652081
_cell_angle_alpha 90.000000
_cell_angle_beta 90.000000
_cell_angle_gamma 90.000000
_cell_volume 3171.583083
_symmetry_space_group_name_H-M "C 2 2 2"
_symmetry_group_IT_number 21
_symmetry_cell_setting 'orthorhombic'
loop_
_space_group_symop_operation_xyz
x,y,z
-x,-y,z
x,-y,-z
-x,y,-z
1/2+x,1/2+y,z
1/2-x,1/2-y,z
1/2+x,1/2-y,-z
1/2-x,1/2+y,-z
loop_
_atom_site_type_symbol
_atom_site_label
_atom_site_fract_x
_atom_site_fract_y
_atom_site_fract_z
Si Si1 0.507786 0.443301 0.373818
Si Si2 0.502998 0.177757 0.375805
Si Si3 0.741317 0.885703 0.263106
Si Si4 0.234806 0.390327 0.735483
Si Si5 0.010398 0.557959 0.876280
Si Si6 0.888610 0.164384 0.079968
Si Si7 0.696157 0.804588 0.104833
Si Si8 0.072727 0.739732 0.190840
O O1 0.500000 0.500000 0.345220
O O2 0.500000 0.438830 0.500000
O O3 0.376540 0.412463 0.319207
O O4 0.664999 0.423548 0.336889
O O5 0.500000 0.186622 0.500000
O O6 0.370125 0.140863 0.345320
O O7 0.647013 0.149172 0.333370
O O8 0.509009 0.227738 0.307603
O O9 0.654279 0.922664 0.185487
O O10 0.774835 0.840947 0.185800
O O11 0.341355 0.364425 0.818442
O O12 0.121371 0.420046 0.807204
O O13 0.000000 0.500000 0.874146
O O14 0.000000 0.573232 0.000000
O O15 0.963594 0.213596 0.120425
O O16 0.746895 0.179247 0.010655
O O17 0.000000 0.138412 0.000000
O O18 0.750000 0.750000 0.121871
O O19 0.520731 0.802989 0.130466
O O20 0.250000 0.750000 0.201222
#
# Coordination Sequence:
#
# PCOD9324151 Si02
#       8
#     8   8   8   8   8   8   8   8
#     4  11  24  43  68  97 129 169 220 282 345 394
#     4  10  22  41  62  86 121 169 218 267 316 374
#     4  10  22  41  62  92 132 164 216 266 323 390
#     4  11  23  39  66  94 124 169 213 265 330 390
#     4  10  21  40  64  93 126 164 208 259 324 396
#     4  12  23  37  62  93 133 168 216 262 319 387
#     4  11  23  38  61  91 130 172 207 262 314 383
#     4  11  23  38  58  89 122 165 213 264 310 372
#
# _framework density 20.179198
#
# number of rings (size 3 to 8) (size 9 to 14) (size 15 to 20)
#    0.000    1.250    2.500    3.375    0.000    0.000 
#    2.250    3.125    0.000    9.000    0.000    0.000 
#    0.000    0.000    0.000    0.000    0.000    0.000 
#
# Total GULP energy -178498.655098 kJ/mol
# GULP energy per Si atom -5578.082972 kJ/mol
# Density = 2.013327 g / cm^3
# Si number density = 20.179198 Si / 1000 Ang^3
#
#
#
# Elastic Constant Matrix: (Units=GPa)
#
#
# Indices 1 2 3 4 5 6 
#
# 1 89.0790 4.5955 26.2937 0.0000 0.0000 0.0000
# 2 4.5955 51.0122 16.2598 0.0000 0.0000 0.0000
# 3 26.2937 16.2598 120.8295 0.0000 0.0000 0.0000
# 4 0.0000 0.0000 0.0000 74.0776 0.0000 0.0000
# 5 0.0000 0.0000 0.0000 0.0000 29.6791 0.0000
# 6 0.0000 0.0000 0.0000 0.0000 0.0000 24.0200
#
#
#
# Elastic Compliance Matrix: (Units=1/GPa)
#
#
# Indices 1 2 3 4 5 6 
#
# 1 0.012000 -0.000260 -0.002576 0.000000 0.000000 0.000000
# 2 -0.000260 0.020487 -0.002700 0.000000 0.000000 0.000000
# 3 -0.002576 -0.002700 0.009200 0.000000 0.000000 0.000000
# 4 0.000000 0.000000 0.000000 0.013499 0.000000 0.000000
# 5 0.000000 0.000000 0.000000 0.000000 0.033694 0.000000
# 6 0.000000 0.000000 0.000000 0.000000 0.000000 0.041632
#
#
# Mechanical properties :
#
#
# Convention : Reuss Voigt Hill
#
# Bulk Modulus (GPa) = 32.66459 39.46874 36.06666
# Shear Modulus (GPa) = 32.94023 39.80681 36.37352
#
# Velocity S-wave (km/s) = 4.04466 4.44629 4.25022
# Velocity P-wave (km/s) = 6.16724 6.77945 6.48057
#
# Compressibility (1/GPa) = 0.03061419
#
# Stress axis : x y z
#
# Youngs Moduli (GPa) = 83.33434 48.81077 108.69394
#
# Poissons Ratio (x) = 0.01268 0.28003
# Poissons Ratio (y) = 0.02165 0.29352
# Poissons Ratio (z) = 0.21470 0.13181
#
# Static dielectric constant tensor:
#      x y z
#    x 1.361060 0.000000 0.000000 
#    y 0.000000 1.713340 0.000000 
#    z 0.000000 0.000000 1.704680 
# 
# From -- ./inp_files/23118.got.cif
#   From: 2010.05.17/outbox.cif.g08.bks.cpg/sg21_12_cif.got.tgz:23118.got - 2010.06.03 23:14:55.
