data_PCOD9324885
_publ_section_title
;
Structure prediction by ZEFSAII (Michael W. Deem and Ramdas Pophale) SiO2 
 PCOD9324885
Probable space group: C 2 2 2
;
_chemical_formula_sum "Si O2"
_cell_formula_units_Z 28
_cell_length_a 16.084616
_cell_length_b 7.927155
_cell_length_c 8.519097
_cell_angle_alpha 90.000000
_cell_angle_beta 90.000000
_cell_angle_gamma 90.000000
_cell_volume 1086.229543
_symmetry_space_group_name_H-M "C 2 2 2"
_symmetry_group_IT_number 21
_symmetry_cell_setting 'orthorhombic'
loop_
_space_group_symop_operation_xyz
x,y,z
-x,-y,z
x,-y,-z
-x,y,-z
1/2+x,1/2+y,z
1/2-x,1/2-y,z
1/2+x,1/2-y,-z
1/2-x,1/2+y,-z
loop_
_atom_site_type_symbol
_atom_site_label
_atom_site_fract_x
_atom_site_fract_y
_atom_site_fract_z
Si Si1 0.033888 0.692844 0.835317
Si Si2 0.750000 0.250000 0.561833
Si Si3 0.816351 0.936125 0.164509
Si Si4 0.090975 0.840541 0.385551
O O1 0.994094 0.757079 0.671896
O O2 0.000000 0.500000 0.836482
O O3 0.128511 0.763638 0.842936
O O4 0.000000 0.763930 0.000000
O O5 0.759868 0.093503 0.682465
O O6 0.833566 0.265296 0.459650
O O7 0.876867 0.083982 0.220235
O O8 0.779097 0.000000 0.000000
O O9 0.084135 0.000000 0.500000
#
# Coordination Sequence:
#
# PCOD9324885 Si02
#       4
#     8   4   8   8
#     4  11  24  43  73 117 150 192 253 325 379 439
#     4  10  26  44  66 110 142 198 250 314 374 428
#     4  11  23  45  74 105 149 204 257 302 379 464
#     4  10  23  45  74 106 149 199 255 309 379 461
#
# _framework density 25.777239999999999
#
# number of rings (size 3 to 8) (size 9 to 14) (size 15 to 20)
#    0.000    1.429    2.857    0.857    0.000   16.000 
#    5.143   10.000    0.000    3.429    0.000    0.000 
#    0.000    0.000    0.000    0.000    0.000    0.000 
#
# Total GULP energy -78065.944409 kJ/mol
# GULP energy per Si atom -5576.138886 kJ/mol
# Density = 2.571857 g / cm^3
# Si number density = 25.777240 Si / 1000 Ang^3
#
#
#
# Elastic Constant Matrix: (Units=GPa)
#
#
# Indices 1 2 3 4 5 6 
#
# 1 92.8279 41.5592 30.7408 0.0000 0.0000 0.0000
# 2 41.5592 83.4559 47.2126 0.0000 0.0000 0.0000
# 3 30.7408 47.2126 149.4000 0.0000 0.0000 0.0000
# 4 0.0000 0.0000 0.0000 45.5767 0.0000 0.0000
# 5 0.0000 0.0000 0.0000 0.0000 145.1475 0.0000
# 6 0.0000 0.0000 0.0000 0.0000 0.0000 36.6080
#
#
#
# Elastic Compliance Matrix: (Units=1/GPa)
#
#
# Indices 1 2 3 4 5 6 
#
# 1 0.013946 -0.006480 -0.000822 0.000000 0.000000 0.000000
# 2 -0.006480 0.017602 -0.004229 0.000000 0.000000 0.000000
# 3 -0.000822 -0.004229 0.008199 0.000000 0.000000 0.000000
# 4 0.000000 0.000000 0.000000 0.021941 0.000000 0.000000
# 5 0.000000 0.000000 0.000000 0.000000 0.006890 0.000000
# 6 0.000000 0.000000 0.000000 0.000000 0.000000 0.027316
#
#
# Mechanical properties :
#
#
# Convention : Reuss Voigt Hill
#
# Bulk Modulus (GPa) = 59.93385 62.74546 61.33966
# Shear Modulus (GPa) = 40.15533 59.21119 49.68326
#
# Velocity S-wave (km/s) = 3.95116 4.79794 4.39499
# Velocity P-wave (km/s) = 6.64204 7.42212 7.04289
#
# Compressibility (1/GPa) = 0.01668506
#
# Stress axis : x y z
#
# Youngs Moduli (GPa) = 71.70628 56.81290 121.96618
#
# Poissons Ratio (x) = 0.36814 0.10023
# Poissons Ratio (y) = 0.46464 0.51581
# Poissons Ratio (z) = 0.05893 0.24027
#
# Static dielectric constant tensor:
#      x y z
#    x 2.151120 0.000000 0.000000 
#    y 0.000000 1.791040 0.000000 
#    z 0.000000 0.000000 2.099840 
# 
# From -- ./inp_files/15846.got.cif
#   From: 2010.05.17/outbox.cif.g08.bks.cpg/sg21_8_cif.got.tgz:15846.got - 2010.06.03 23:14:55.
