data_PCOD9324458
_publ_section_title
;
Structure prediction by ZEFSAII (Michael W. Deem and Ramdas Pophale) SiO2 
 PCOD9324458
Probable space group: C 2 2 2
;
_chemical_formula_sum "Si O2"
_cell_formula_units_Z 20
_cell_length_a 13.194576
_cell_length_b 4.942332
_cell_length_c 14.370228
_cell_angle_alpha 90.000000
_cell_angle_beta 90.000000
_cell_angle_gamma 90.000000
_cell_volume 937.110952
_symmetry_space_group_name_H-M "C 2 2 2"
_symmetry_group_IT_number 21
_symmetry_cell_setting 'orthorhombic'
loop_
_space_group_symop_operation_xyz
x,y,z
-x,-y,z
x,-y,-z
-x,y,-z
1/2+x,1/2+y,z
1/2-x,1/2-y,z
1/2+x,1/2-y,-z
1/2-x,1/2+y,-z
loop_
_atom_site_type_symbol
_atom_site_label
_atom_site_fract_x
_atom_site_fract_y
_atom_site_fract_z
Si Si1 0.000000 0.000000 0.855064
Si Si2 0.131834 0.253094 0.432094
Si Si3 0.500000 0.000000 0.729514
Si Si4 0.324070 0.500000 0.000000
O O1 0.961877 0.741429 0.795749
O O2 0.097158 0.919714 0.917816
O O3 0.114408 0.500000 0.500000
O O4 0.250000 0.250000 0.406858
O O5 0.071518 0.325642 0.339413
O O6 0.110190 0.000000 0.500000
O O7 0.250000 0.750000 0.023144
#
# Coordination Sequence:
#
# PCOD9324458 Si02
#       4
#     4   8   4   4
#     4  11  26  42  65 104 128 162 223 264 320 403
#     4  10  22  40  61  88 126 174 219 258 313 376
#     4  12  23  39  66  96 132 166 214 279 319 366
#     4  11  24  47  72  92 132 175 204 261 336 396
#
# _framework density 21.342192000000001
#
# number of rings (size 3 to 8) (size 9 to 14) (size 15 to 20)
#    0.000    1.200    0.000    5.400    0.000    9.600 
#    0.000    0.000    0.000    0.000    0.000    0.000 
#    0.000    0.000    0.000    0.000    0.000    0.000 
#
# Total GULP energy -55776.349698 kJ/mol
# GULP energy per Si atom -5577.634970 kJ/mol
# Density = 2.129362 g / cm^3
# Si number density = 21.342192 Si / 1000 Ang^3
#
#
#
# Elastic Constant Matrix: (Units=GPa)
#
#
# Indices 1 2 3 4 5 6 
#
# 1 138.3714 21.1095 40.7993 0.0000 0.0000 0.0000
# 2 21.1095 154.8346 30.5880 0.0000 0.0000 0.0000
# 3 40.7993 30.5880 96.7733 0.0000 0.0000 0.0000
# 4 0.0000 0.0000 0.0000 44.6178 0.0000 0.0000
# 5 0.0000 0.0000 0.0000 0.0000 -33.4013 0.0000
# 6 0.0000 0.0000 0.0000 0.0000 0.0000 38.2269
#
#
#
# Elastic Compliance Matrix: (Units=1/GPa)
#
#
# Indices 1 2 3 4 5 6 
#
# 1 0.008285 -0.000469 -0.003345 0.000000 0.000000 0.000000
# 2 -0.000469 0.006915 -0.001988 0.000000 0.000000 0.000000
# 3 -0.003345 -0.001988 0.012372 0.000000 0.000000 0.000000
# 4 0.000000 0.000000 0.000000 0.022413 0.000000 0.000000
# 5 0.000000 0.000000 0.000000 0.000000 -0.029939 0.000000
# 6 0.000000 0.000000 0.000000 0.000000 0.000000 0.026160
#
#
# Mechanical properties :
#
#
# Convention : Reuss Voigt Hill
#
# Bulk Modulus (GPa) = 62.62236 63.88590 63.25413
# Shear Modulus (GPa) = 79.20075 29.72085 54.46080
#
# Velocity S-wave (km/s) = 6.09840 3.73579 5.05701
# Velocity P-wave (km/s) = 8.88781 6.97189 7.98750
#
# Compressibility (1/GPa) = 0.01596874
#
# Stress axis : x y z
#
# Youngs Moduli (GPa) = 120.70574 144.60964 80.82832
#
# Poissons Ratio (x) = 0.06779 0.27034
# Poissons Ratio (y) = 0.05658 0.16070
# Poissons Ratio (z) = 0.40371 0.28750
#
# Static dielectric constant tensor:
#      x y z
#    x 1.770350 0.000000 0.000000 
#    y 0.000000 1.756680 0.000000 
#    z 0.000000 0.000000 1.753240 
# 
# From -- ./inp_files/24515.got.cif
#   From: 2010.05.17/outbox.cif.g08.bks.cpg/sg21_13_cif.got.tgz:24515.got - 2010.06.03 23:14:55.
