data_PCOD9324209
_publ_section_title
;
Structure prediction by ZEFSAII (Michael W. Deem and Ramdas Pophale) SiO2 
 PCOD9324209
Probable space group: C 2 2 2
;
_chemical_formula_sum "Si O2"
_cell_formula_units_Z 26
_cell_length_a 19.631894
_cell_length_b 5.134352
_cell_length_c 11.652239
_cell_angle_alpha 90.000000
_cell_angle_beta 90.000000
_cell_angle_gamma 90.000000
_cell_volume 1174.511366
_symmetry_space_group_name_H-M "C 2 2 2"
_symmetry_group_IT_number 21
_symmetry_cell_setting 'orthorhombic'
loop_
_space_group_symop_operation_xyz
x,y,z
-x,-y,z
x,-y,-z
-x,y,-z
1/2+x,1/2+y,z
1/2-x,1/2-y,z
1/2+x,1/2-y,-z
1/2-x,1/2+y,-z
loop_
_atom_site_type_symbol
_atom_site_label
_atom_site_fract_x
_atom_site_fract_y
_atom_site_fract_z
Si Si1 0.600382 0.377291 0.691405
Si Si2 0.000000 0.000000 0.500000
Si Si3 0.924286 0.243797 0.947220
Si Si4 0.821179 0.601990 0.631263
O O1 0.548036 0.334323 0.585934
O O2 0.567282 0.310494 0.813083
O O3 0.624913 0.674581 0.669884
O O4 0.662337 0.170746 0.691987
O O5 0.890993 0.500000 0.000000
O O6 0.000000 0.247979 0.000000
O O7 0.885489 0.000000 0.000000
O O8 0.824196 0.500000 0.500000
O O9 0.750000 0.750000 0.647797
#
# Coordination Sequence:
#
# PCOD9324209 Si02
#       4
#     8   2   8   8
#     4  12  25  41  71 106 144 183 236 301 360 449
#     4  12  24  42  62 118 152 174 228 302 400 426
#     4  10  21  41  64  94 134 190 230 274 353 439
#     4  12  24  46  69  99 140 193 243 289 361 431
#
# _framework density 22.136865
#
# number of rings (size 3 to 8) (size 9 to 14) (size 15 to 20)
#    0.000    0.615    3.077    6.462    0.000    4.923 
#    0.000    0.000    0.000   18.462    0.000    0.000 
#    0.000    0.000    0.000    0.000    0.000    0.000 
#
# Total GULP energy -72436.401871 kJ/mol
# GULP energy per Si atom -5572.030913 kJ/mol
# Density = 2.208648 g / cm^3
# Si number density = 22.136865 Si / 1000 Ang^3
#
#
#
# Elastic Constant Matrix: (Units=GPa)
#
#
# Indices 1 2 3 4 5 6 
#
# 1 57.6472 16.9237 37.9747 0.0000 0.0000 0.0000
# 2 16.9237 182.0708 35.8050 0.0000 0.0000 0.0000
# 3 37.9747 35.8050 182.7727 0.0000 0.0000 0.0000
# 4 0.0000 0.0000 0.0000 31.8694 0.0000 0.0000
# 5 0.0000 0.0000 0.0000 0.0000 7.7964 0.0000
# 6 0.0000 0.0000 0.0000 0.0000 0.0000 15.6833
#
#
#
# Elastic Compliance Matrix: (Units=1/GPa)
#
#
# Indices 1 2 3 4 5 6 
#
# 1 0.020307 -0.001100 -0.004004 0.000000 0.000000 0.000000
# 2 -0.001100 0.005772 -0.000902 0.000000 0.000000 0.000000
# 3 -0.004004 -0.000902 0.006480 0.000000 0.000000 0.000000
# 4 0.000000 0.000000 0.000000 0.031378 0.000000 0.000000
# 5 0.000000 0.000000 0.000000 0.000000 0.128264 0.000000
# 6 0.000000 0.000000 0.000000 0.000000 0.000000 0.063762
#
#
# Mechanical properties :
#
#
# Convention : Reuss Voigt Hill
#
# Bulk Modulus (GPa) = 48.66884 67.09972 57.88428
# Shear Modulus (GPa) = 18.19342 33.18896 25.69119
#
# Velocity S-wave (km/s) = 2.86992 3.87623 3.41040
# Velocity P-wave (km/s) = 5.74588 7.10005 6.45855
#
# Compressibility (1/GPa) = 0.02054703
#
# Stress axis : x y z
#
# Youngs Moduli (GPa) = 49.24333 173.24873 154.32429
#
# Poissons Ratio (x) = 0.19061 0.61787
# Poissons Ratio (y) = 0.05418 0.13922
# Poissons Ratio (z) = 0.19716 0.15630
#
# Static dielectric constant tensor:
#      x y z
#    x 1.832700 0.000000 0.000000 
#    y 0.000000 1.828050 0.000000 
#    z 0.000000 0.000000 1.974940 
# 
# From -- ./inp_files/25640.got.cif
#   From: 2010.05.17/outbox.cif.g08.bks.cpg/sg21_13_cif.got.tgz:25640.got - 2010.06.03 23:14:55.
