data_PCOD9324045
_publ_section_title
;
Structure prediction by ZEFSAII (Michael W. Deem and Ramdas Pophale) SiO2 
 PCOD9324045
Probable space group: C 2 2 2
;
_chemical_formula_sum "Si O2"
_cell_formula_units_Z 48
_cell_length_a 8.418651
_cell_length_b 31.255506
_cell_length_c 7.868314
_cell_angle_alpha 90.000000
_cell_angle_beta 90.000000
_cell_angle_gamma 90.000000
_cell_volume 2070.383143
_symmetry_space_group_name_H-M "C 2 2 2"
_symmetry_group_IT_number 21
_symmetry_cell_setting 'orthorhombic'
loop_
_space_group_symop_operation_xyz
x,y,z
-x,-y,z
x,-y,-z
-x,y,-z
1/2+x,1/2+y,z
1/2-x,1/2-y,z
1/2+x,1/2-y,-z
1/2-x,1/2+y,-z
loop_
_atom_site_type_symbol
_atom_site_label
_atom_site_fract_x
_atom_site_fract_y
_atom_site_fract_z
Si Si1 0.071311 0.956554 0.808230
Si Si2 0.055520 0.747142 0.691130
Si Si3 0.409677 0.159120 0.159579
Si Si4 0.850275 0.575487 0.386745
Si Si5 0.112881 0.118793 0.634066
Si Si6 0.641942 0.682568 0.904366
O O1 0.257637 0.953914 0.752655
O O2 0.000690 0.913081 0.734132
O O3 0.000000 0.000000 0.729637
O O4 0.000000 0.956751 0.000000
O O5 0.250000 0.750000 0.695001
O O6 0.012866 0.698587 0.741577
O O7 0.000000 0.755898 0.500000
O O8 0.949760 0.777038 0.818895
O O9 0.377839 0.120693 0.288501
O O10 0.500000 0.138995 0.000000
O O11 0.270870 0.184306 0.052794
O O12 0.729188 0.588225 0.534653
O O13 0.000000 0.559853 0.500000
O O14 0.198530 0.152249 0.753553
O O15 0.000000 0.143125 0.500000
O O16 0.500000 0.658148 0.000000
#
# Coordination Sequence:
#
# PCOD9324045 Si02
#       6
#     8   8   8   8   8   8
#     4  10  22  43  72 106 143 185 237 288 353 447
#     4  12  29  44  64  93 136 187 247 308 368 426
#     4  12  27  44  67  97 139 183 243 300 367 436
#     4  11  24  44  71 106 144 184 239 301 372 432
#     4  10  21  38  69  97 131 179 229 280 351 443
#     4  12  23  43  67  91 129 180 236 291 355 423
#
# _framework density 23.184113
#
# number of rings (size 3 to 8) (size 9 to 14) (size 15 to 20)
#    0.000    0.833    1.667    6.000    4.667    3.000 
#    0.000    1.667    0.000    2.000    0.000    0.000 
#    0.000    0.000    0.000    0.000    0.000    0.000 
#
# Total GULP energy -133720.686238 kJ/mol
# GULP energy per Si atom -5571.695260 kJ/mol
# Density = 2.313135 g / cm^3
# Si number density = 23.184113 Si / 1000 Ang^3
#
#
#
# Elastic Constant Matrix: (Units=GPa)
#
#
# Indices 1 2 3 4 5 6 
#
# 1 93.9013 15.7381 39.6639 0.0000 0.0000 0.0000
# 2 15.7381 103.7252 29.0549 0.0000 0.0000 0.0000
# 3 39.6639 29.0549 119.4551 0.0000 0.0000 0.0000
# 4 0.0000 0.0000 0.0000 -9.1229 0.0000 0.0000
# 5 0.0000 0.0000 0.0000 0.0000 33.5511 0.0000
# 6 0.0000 0.0000 0.0000 0.0000 0.0000 19.9431
#
#
#
# Elastic Compliance Matrix: (Units=1/GPa)
#
#
# Indices 1 2 3 4 5 6 
#
# 1 0.012446 -0.000784 -0.003942 0.000000 0.000000 0.000000
# 2 -0.000784 0.010395 -0.002268 0.000000 0.000000 0.000000
# 3 -0.003942 -0.002268 0.010232 0.000000 0.000000 0.000000
# 4 0.000000 0.000000 0.000000 -0.109615 0.000000 0.000000
# 5 0.000000 0.000000 0.000000 0.000000 0.029805 0.000000
# 6 0.000000 0.000000 0.000000 0.000000 0.000000 0.050143
#
#
# Mechanical properties :
#
#
# Convention : Reuss Voigt Hill
#
# Bulk Modulus (GPa) = 52.39769 53.99950 53.19860
# Shear Modulus (GPa) = 210.47338 24.38258 117.42798
#
# Velocity S-wave (km/s) = 9.53837 3.24650 7.12462
# Velocity P-wave (km/s) = 11.99821 6.11516 9.52240
#
# Compressibility (1/GPa) = 0.01908481
#
# Stress axis : x y z
#
# Youngs Moduli (GPa) = 80.34753 96.19869 97.73431
#
# Poissons Ratio (x) = 0.07544 0.38525
# Poissons Ratio (y) = 0.06301 0.22166
# Poissons Ratio (z) = 0.31671 0.21818
#
# Static dielectric constant tensor:
#      x y z
#    x 2.091970 0.000000 0.000000 
#    y 0.000000 1.814330 0.000000 
#    z 0.000000 0.000000 2.065170 
# 
# From -- ./inp_files/11545.got.cif
#   From: 2010.05.17/outbox.cif.g08.bks.cpg/sg21_6_cif.got.tgz:11545.got - 2010.06.03 23:14:55.
