data_PCOD9324594
_publ_section_title
;
Structure prediction by ZEFSAII (Michael W. Deem and Ramdas Pophale) SiO2 
 PCOD9324594
Probable space group: C 2 2 2
;
_chemical_formula_sum "Si O2"
_cell_formula_units_Z 32
_cell_length_a 28.645763
_cell_length_b 9.028018
_cell_length_c 5.147621
_cell_angle_alpha 90.000000
_cell_angle_beta 90.000000
_cell_angle_gamma 90.000000
_cell_volume 1331.249246
_symmetry_space_group_name_H-M "C 2 2 2"
_symmetry_group_IT_number 21
_symmetry_cell_setting 'orthorhombic'
loop_
_space_group_symop_operation_xyz
x,y,z
-x,-y,z
x,-y,-z
-x,y,-z
1/2+x,1/2+y,z
1/2-x,1/2-y,z
1/2+x,1/2-y,-z
1/2-x,1/2+y,-z
loop_
_atom_site_type_symbol
_atom_site_label
_atom_site_fract_x
_atom_site_fract_y
_atom_site_fract_z
Si Si1 0.353335 0.607628 0.751895
Si Si2 0.704558 0.831328 0.568685
Si Si3 0.552945 0.674872 0.481135
Si Si4 0.608340 0.100214 0.239253
O O1 0.350966 0.500000 0.500000
O O2 0.316217 0.736124 0.674623
O O3 0.405366 0.682402 0.736034
O O4 0.346602 0.500000 0.000000
O O5 0.750000 0.750000 0.671038
O O6 0.661612 0.844870 0.767675
O O7 0.716848 0.000000 0.500000
O O8 0.547580 0.500000 0.500000
O O9 0.500000 0.736003 0.500000
O O10 0.577127 0.757242 0.718594
O O11 0.604252 0.000000 0.500000
O O12 0.595466 0.000000 0.000000
#
# Coordination Sequence:
#
# PCOD9324594 Si02
#       4
#     8   8   8   8
#     4  10  22  43  68  95 135 181 224 278 343 407
#     4  10  22  42  67 100 136 178 230 284 342 410
#     4   9  20  40  67 102 136 175 227 284 340 402
#     4  10  23  45  68  94 135 182 225 276 340 410
#
# _framework density 24.037572000000001
#
# number of rings (size 3 to 8) (size 9 to 14) (size 15 to 20)
#    0.000    2.250    0.000    0.750    0.000   19.500 
#    0.000   40.000    0.000    0.000    0.000    0.000 
#    0.000    0.000    0.000    0.000    0.000    0.000 
#
# Total GULP energy -89301.483662 kJ/mol
# GULP energy per Si atom -5581.342729 kJ/mol
# Density = 2.398286 g / cm^3
# Si number density = 24.037572 Si / 1000 Ang^3
#
#
#
# Elastic Constant Matrix: (Units=GPa)
#
#
# Indices 1 2 3 4 5 6 
#
# 1 108.3372 49.1660 2.1972 0.0000 0.0000 0.0000
# 2 49.1660 159.9892 61.3860 0.0000 0.0000 0.0000
# 3 2.1972 61.3860 156.6950 0.0000 0.0000 0.0000
# 4 0.0000 0.0000 0.0000 48.1478 0.0000 0.0000
# 5 0.0000 0.0000 0.0000 0.0000 -3.6033 0.0000
# 6 0.0000 0.0000 0.0000 0.0000 0.0000 279.4218
#
#
#
# Elastic Compliance Matrix: (Units=1/GPa)
#
#
# Indices 1 2 3 4 5 6 
#
# 1 0.010972 -0.003899 0.001374 0.000000 0.000000 0.000000
# 2 -0.003899 0.008742 -0.003370 0.000000 0.000000 0.000000
# 3 0.001374 -0.003370 0.007683 0.000000 0.000000 0.000000
# 4 0.000000 0.000000 0.000000 0.020769 0.000000 0.000000
# 5 0.000000 0.000000 0.000000 0.000000 -0.277522 0.000000
# 6 0.000000 0.000000 0.000000 0.000000 0.000000 0.003579
#
#
# Mechanical properties :
#
#
# Convention : Reuss Voigt Hill
#
# Bulk Modulus (GPa) = 64.07816 72.27999 68.17908
# Shear Modulus (GPa) = -23.94804 85.61141 30.83168
#
# Velocity S-wave (km/s) = -3.15981 5.97436 3.58529
# Velocity P-wave (km/s) = 3.66099 8.81621 6.75012
#
# Compressibility (1/GPa) = 0.01560594
#
# Stress axis : x y z
#
# Youngs Moduli (GPa) = 91.14166 114.39659 130.16212
#
# Poissons Ratio (x) = 0.44600 -0.17878
# Poissons Ratio (y) = 0.35534 0.43863
# Poissons Ratio (z) = -0.12518 0.38550
#
# Static dielectric constant tensor:
#      x y z
#    x 1.946010 0.000000 0.000000 
#    y 0.000000 1.954530 0.000000 
#    z 0.000000 0.000000 1.915890 
# 
# From -- ./inp_files/7781.got.cif
#   From: 2010.05.17/outbox.cif.g08.bks.cpg/sg21_4_cif.got.tgz:7781.got - 2010.06.03 23:14:55.
