data_PCOD9324191
_publ_section_title
;
Structure prediction by ZEFSAII (Michael W. Deem and Ramdas Pophale) SiO2 
 PCOD9324191
Probable space group: C 2 2 2
;
_chemical_formula_sum "Si O2"
_cell_formula_units_Z 44
_cell_length_a 18.092413
_cell_length_b 8.800451
_cell_length_c 13.619957
_cell_angle_alpha 90.000000
_cell_angle_beta 90.000000
_cell_angle_gamma 90.000000
_cell_volume 2168.588541
_symmetry_space_group_name_H-M "C 2 2 2"
_symmetry_group_IT_number 21
_symmetry_cell_setting 'orthorhombic'
loop_
_space_group_symop_operation_xyz
x,y,z
-x,-y,z
x,-y,-z
-x,y,-z
1/2+x,1/2+y,z
1/2-x,1/2-y,z
1/2+x,1/2-y,-z
1/2-x,1/2+y,-z
loop_
_atom_site_type_symbol
_atom_site_label
_atom_site_fract_x
_atom_site_fract_y
_atom_site_fract_z
Si Si1 0.303204 0.885686 0.311601
Si Si2 0.213987 0.000000 0.500000
Si Si3 0.449108 0.297941 0.690173
Si Si4 0.176676 0.318113 0.188605
Si Si5 0.982138 0.320611 0.890151
Si Si6 0.605417 0.636510 0.365216
O O1 0.250000 0.750000 0.277228
O O2 0.264024 0.950137 0.409253
O O3 0.385048 0.822037 0.331571
O O4 0.309128 0.014411 0.229656
O O5 0.156601 0.872661 0.539144
O O6 0.476771 0.270354 0.802578
O O7 0.525095 0.285465 0.627763
O O8 0.414773 0.464937 0.670344
O O9 0.250000 0.250000 0.142605
O O10 0.105369 0.308791 0.122079
O O11 0.154351 0.218526 0.283737
O O12 0.000000 0.500000 0.878249
O O13 0.000000 0.270565 0.000000
#
# Coordination Sequence:
#
# PCOD9324191 Si02
#       6
#     8   4   8   8   8   8
#     4  12  24  39  62  90 129 173 216 268 325 377
#     4  12  24  39  62  95 126 172 224 274 307 376
#     4  10  21  43  61  90 124 170 205 256 335 389
#     4  11  21  40  66  95 130 167 208 269 332 384
#     4  10  21  40  71  95 125 167 213 263 318 397
#     4  10  23  38  64  89 130 168 213 264 321 383
#
# _framework density 20.289695999999999
#
# number of rings (size 3 to 8) (size 9 to 14) (size 15 to 20)
#    0.000    1.273    5.455    0.000    2.545    1.455 
#    0.000    8.182   12.000    0.000    0.000    0.000 
#    0.000    0.000    0.000    0.000    0.000    0.000 
#
# Total GULP energy -122926.180395 kJ/mol
# GULP energy per Si atom -5587.553654 kJ/mol
# Density = 2.024352 g / cm^3
# Si number density = 20.289696 Si / 1000 Ang^3
#
#
#
# Elastic Constant Matrix: (Units=GPa)
#
#
# Indices 1 2 3 4 5 6 
#
# 1 178.9293 35.8715 59.6539 0.0000 0.0000 0.0000
# 2 35.8715 48.4694 18.3431 0.0000 0.0000 0.0000
# 3 59.6539 18.3431 96.1961 0.0000 0.0000 0.0000
# 4 0.0000 0.0000 0.0000 11.7930 0.0000 0.0000
# 5 0.0000 0.0000 0.0000 0.0000 31.2485 0.0000
# 6 0.0000 0.0000 0.0000 0.0000 0.0000 39.2266
#
#
#
# Elastic Compliance Matrix: (Units=1/GPa)
#
#
# Indices 1 2 3 4 5 6 
#
# 1 0.007776 -0.004236 -0.004015 0.000000 0.000000 0.000000
# 2 -0.004236 0.024544 -0.002053 0.000000 0.000000 0.000000
# 3 -0.004015 -0.002053 0.013277 0.000000 0.000000 0.000000
# 4 0.000000 0.000000 0.000000 0.084796 0.000000 0.000000
# 5 0.000000 0.000000 0.000000 0.000000 0.032002 0.000000
# 6 0.000000 0.000000 0.000000 0.000000 0.000000 0.025493
#
#
# Mechanical properties :
#
#
# Convention : Reuss Voigt Hill
#
# Bulk Modulus (GPa) = 40.01776 61.25908 50.63842
# Shear Modulus (GPa) = 23.06011 30.43537 26.74774
#
# Velocity S-wave (km/s) = 3.37492 3.87724 3.63477
# Velocity P-wave (km/s) = 5.91209 7.09237 6.52896
#
# Compressibility (1/GPa) = 0.02498890
#
# Stress axis : x y z
#
# Youngs Moduli (GPa) = 128.59284 40.74385 75.32061
#
# Poissons Ratio (x) = 0.17259 0.30239
# Poissons Ratio (y) = 0.54471 0.15465
# Poissons Ratio (z) = 0.51626 0.08366
#
# Static dielectric constant tensor:
#      x y z
#    x 1.737650 0.000000 0.000000 
#    y 0.000000 1.734740 0.000000 
#    z 0.000000 0.000000 1.702420 
# 
# From -- ./inp_files/32752.got.cif
#   From: 2010.05.17/outbox.cif.g08.bks.cpg/sg21_17_cif.got.tgz:32752.got - 2010.06.03 23:14:55.
