data_PCOD9324608
_publ_section_title
;
Structure prediction by ZEFSAII (Michael W. Deem and Ramdas Pophale) SiO2 
 PCOD9324608
Probable space group: C 2 2 2
;
_chemical_formula_sum "Si O2"
_cell_formula_units_Z 46
_cell_length_a 24.777980
_cell_length_b 10.908958
_cell_length_c 8.996853
_cell_angle_alpha 90.000000
_cell_angle_beta 90.000000
_cell_angle_gamma 90.000000
_cell_volume 2431.866848
_symmetry_space_group_name_H-M "C 2 2 2"
_symmetry_group_IT_number 21
_symmetry_cell_setting 'orthorhombic'
loop_
_space_group_symop_operation_xyz
x,y,z
-x,-y,z
x,-y,-z
-x,y,-z
1/2+x,1/2+y,z
1/2-x,1/2-y,z
1/2+x,1/2-y,-z
1/2-x,1/2+y,-z
loop_
_atom_site_type_symbol
_atom_site_label
_atom_site_fract_x
_atom_site_fract_y
_atom_site_fract_z
Si Si1 0.030692 0.270776 0.305059
Si Si2 0.587117 0.314668 0.233496
Si Si3 0.500000 0.000000 0.500000
Si Si4 0.870031 0.143325 0.536237
Si Si5 0.187990 0.780604 0.822621
Si Si6 0.904840 0.360776 0.963064
Si Si7 0.630669 0.500000 0.000000
O O1 0.075057 0.184160 0.380457
O O2 0.048975 0.301095 0.138463
O O3 0.972848 0.205021 0.298726
O O4 0.029853 0.401458 0.392896
O O5 0.627686 0.301362 0.371411
O O6 0.596240 0.436744 0.133193
O O7 0.597649 0.207529 0.118252
O O8 0.824208 0.184926 0.651104
O O9 0.868934 0.000000 0.500000
O O10 0.250000 0.750000 0.847051
O O11 0.149897 0.667359 0.871802
O O12 0.166515 0.894453 0.922556
O O13 0.915002 0.500000 0.000000
#
# Coordination Sequence:
#
# PCOD9324608 Si02
#       7
#     8   8   2   8   8   8   4
#     4  11  23  37  61  93 129 178 208 249 311 382
#     4  11  21  41  62  93 129 169 206 253 325 368
#     4  12  20  36  60  84 128 176 210 246 292 384
#     4  11  22  43  62  90 130 161 214 266 307 378
#     4  10  23  43  67  93 122 161 216 266 328 369
#     4  10  23  41  61  93 129 168 213 266 303 384
#     4  10  22  42  69  92 130 160 209 274 304 394
#
# _framework density 18.915507999999999
#
# number of rings (size 3 to 8) (size 9 to 14) (size 15 to 20)
#    0.000    1.391    3.478    1.565    1.217    2.087 
#    3.130    5.217    0.000    0.000    0.000    0.000 
#    0.000    0.000    0.000    0.000    0.000    0.000 
#
# Total GULP energy -128327.248990 kJ/mol
# GULP energy per Si atom -5579.445608 kJ/mol
# Density = 1.887246 g / cm^3
# Si number density = 18.915508 Si / 1000 Ang^3
#
#
#
# Elastic Constant Matrix: (Units=GPa)
#
#
# Indices 1 2 3 4 5 6 
#
# 1 59.7279 2.7177 -5.6817 0.0000 0.0000 0.0000
# 2 2.7177 44.9505 12.5337 0.0000 0.0000 0.0000
# 3 -5.6817 12.5337 111.8158 0.0000 0.0000 0.0000
# 4 0.0000 0.0000 0.0000 38.0003 0.0000 0.0000
# 5 0.0000 0.0000 0.0000 0.0000 10.7564 0.0000
# 6 0.0000 0.0000 0.0000 0.0000 0.0000 -2.1079
#
#
#
# Elastic Compliance Matrix: (Units=1/GPa)
#
#
# Indices 1 2 3 4 5 6 
#
# 1 0.016897 -0.001302 0.001005 0.000000 0.000000 0.000000
# 2 -0.001302 0.023065 -0.002652 0.000000 0.000000 0.000000
# 3 0.001005 -0.002652 0.009292 0.000000 0.000000 0.000000
# 4 0.000000 0.000000 0.000000 0.026316 0.000000 0.000000
# 5 0.000000 0.000000 0.000000 0.000000 0.092968 0.000000
# 6 0.000000 0.000000 0.000000 0.000000 0.000000 -0.474403
#
#
# Mechanical properties :
#
#
# Convention : Reuss Voigt Hill
#
# Bulk Modulus (GPa) = 23.06475 26.18152 24.62313
# Shear Modulus (GPa) = -17.51217 23.12472 2.80628
#
# Velocity S-wave (km/s) = -3.04601 3.50026 1.21935
# Velocity P-wave (km/s) = 0.38846 5.49610 3.87661
#
# Compressibility (1/GPa) = 0.04335621
#
# Stress axis : x y z
#
# Youngs Moduli (GPa) = 59.18077 43.35624 107.62479
#
# Poissons Ratio (x) = 0.05644 -0.10811
# Poissons Ratio (y) = 0.07704 0.28537
# Poissons Ratio (z) = -0.05945 0.11496
#
# Static dielectric constant tensor:
#      x y z
#    x 1.644320 0.000000 0.000000 
#    y 0.000000 1.681360 0.000000 
#    z 0.000000 0.000000 1.701460 
# 
# From -- ./inp_files/18508.got.cif
#   From: 2010.05.17/outbox.cif.g08.bks.cpg/sg21_10_cif.got.tgz:18508.got - 2010.06.03 23:14:55.
