data_PCOD9324355
_publ_section_title
;
Structure prediction by ZEFSAII (Michael W. Deem and Ramdas Pophale) SiO2 
 PCOD9324355
Probable space group: C 2 2 2
;
_chemical_formula_sum "Si O2"
_cell_formula_units_Z 36
_cell_length_a 19.801135
_cell_length_b 8.554363
_cell_length_c 11.406478
_cell_angle_alpha 90.000000
_cell_angle_beta 90.000000
_cell_angle_gamma 90.000000
_cell_volume 1932.098784
_symmetry_space_group_name_H-M "C 2 2 2"
_symmetry_group_IT_number 21
_symmetry_cell_setting 'orthorhombic'
loop_
_space_group_symop_operation_xyz
x,y,z
-x,-y,z
x,-y,-z
-x,y,-z
1/2+x,1/2+y,z
1/2-x,1/2-y,z
1/2+x,1/2-y,-z
1/2-x,1/2+y,-z
loop_
_atom_site_type_symbol
_atom_site_label
_atom_site_fract_x
_atom_site_fract_y
_atom_site_fract_z
Si Si1 0.058944 0.255008 0.332097
Si Si2 0.826173 0.305100 0.112743
Si Si3 0.500000 0.500000 0.500000
Si Si4 0.970152 0.824318 0.874700
Si Si5 0.500000 0.000000 0.500000
Si Si6 0.679005 0.836624 0.167794
O O1 0.048451 0.396882 0.419651
O O2 0.126332 0.258588 0.256036
O O3 0.001200 0.267331 0.233569
O O4 0.045482 0.104739 0.413484
O O5 0.750000 0.250000 0.137198
O O6 0.889541 0.191952 0.139544
O O7 0.829488 0.474771 0.174887
O O8 0.832899 0.314356 0.971316
O O9 0.000000 0.000000 0.865748
O O10 0.000000 0.765272 0.000000
O O11 0.750000 0.750000 0.190623
#
# Coordination Sequence:
#
# PCOD9324355 Si02
#       6
#     8   8   2   8   2   8
#     4  11  21  42  59  90 121 161 217 257 315 360
#     4  10  22  37  59  96 135 167 198 242 326 401
#     4  10  24  38  64  82 116 170 212 270 296 362
#     4  11  22  35  65  99 126 163 206 260 317 384
#     4  10  24  38  64  78 120 166 216 270 300 358
#     4  10  22  38  61  89 130 167 199 259 317 382
#
# _framework density 18.632587999999998
#
# number of rings (size 3 to 8) (size 9 to 14) (size 15 to 20)
#    0.000    1.556    3.333    1.333    3.111    1.778 
#    0.000    1.111    0.000    5.333    0.000    0.000 
#    0.000    0.000    0.000    0.000    0.000    0.000 
#
# Total GULP energy -100276.997713 kJ/mol
# GULP energy per Si atom -5570.944317 kJ/mol
# Density = 1.859018 g / cm^3
# Si number density = 18.632588 Si / 1000 Ang^3
#
#
#
# Elastic Constant Matrix: (Units=GPa)
#
#
# Indices 1 2 3 4 5 6 
#
# 1 165.7826 61.8258 46.1180 0.0000 0.0000 0.0000
# 2 61.8258 94.1702 40.0658 0.0000 0.0000 0.0000
# 3 46.1180 40.0658 102.0014 0.0000 0.0000 0.0000
# 4 0.0000 0.0000 0.0000 -7.3975 0.0000 0.0000
# 5 0.0000 0.0000 0.0000 0.0000 14.2119 0.0000
# 6 0.0000 0.0000 0.0000 0.0000 0.0000 21.3125
#
#
#
# Elastic Compliance Matrix: (Units=1/GPa)
#
#
# Indices 1 2 3 4 5 6 
#
# 1 0.008294 -0.004622 -0.001934 0.000000 0.000000 0.000000
# 2 -0.004622 0.015326 -0.003930 0.000000 0.000000 0.000000
# 3 -0.001934 -0.003930 0.012222 0.000000 0.000000 0.000000
# 4 0.000000 0.000000 0.000000 -0.135181 0.000000 0.000000
# 5 0.000000 0.000000 0.000000 0.000000 0.070364 0.000000
# 6 0.000000 0.000000 0.000000 0.000000 0.000000 0.046921
#
#
# Mechanical properties :
#
#
# Convention : Reuss Voigt Hill
#
# Bulk Modulus (GPa) = 67.25622 73.10816 70.18219
# Shear Modulus (GPa) = 113.96174 19.88834 66.92504
#
# Velocity S-wave (km/s) = 7.82914 3.27065 5.99969
# Velocity P-wave (km/s) = 10.85825 7.32016 9.25976
#
# Compressibility (1/GPa) = 0.01486851
#
# Stress axis : x y z
#
# Youngs Moduli (GPa) = 120.57093 65.24944 81.81912
#
# Poissons Ratio (x) = 0.30160 0.15827
# Poissons Ratio (y) = 0.55730 0.32156
# Poissons Ratio (z) = 0.23322 0.25644
#
# Static dielectric constant tensor:
#      x y z
#    x 1.680870 0.000000 0.000000 
#    y 0.000000 1.715700 0.000000 
#    z 0.000000 0.000000 1.624650 
# 
# From -- ./inp_files/26619.got.cif
#   From: 2010.05.17/outbox.cif.g08.bks.cpg/sg21_14_cif.got.tgz:26619.got - 2010.06.03 23:14:55.
