data_PCOD9324585
_publ_section_title
;
Structure prediction by ZEFSAII (Michael W. Deem and Ramdas Pophale) SiO2 
 PCOD9324585
Probable space group: C 2 2 2
;
_chemical_formula_sum "Si O2"
_cell_formula_units_Z 30
_cell_length_a 9.845192
_cell_length_b 9.639058
_cell_length_c 14.649883
_cell_angle_alpha 90.000000
_cell_angle_beta 90.000000
_cell_angle_gamma 90.000000
_cell_volume 1390.250116
_symmetry_space_group_name_H-M "C 2 2 2"
_symmetry_group_IT_number 21
_symmetry_cell_setting 'orthorhombic'
loop_
_space_group_symop_operation_xyz
x,y,z
-x,-y,z
x,-y,-z
-x,y,-z
1/2+x,1/2+y,z
1/2-x,1/2-y,z
1/2+x,1/2-y,-z
1/2-x,1/2+y,-z
loop_
_atom_site_type_symbol
_atom_site_label
_atom_site_fract_x
_atom_site_fract_y
_atom_site_fract_z
Si Si1 0.000000 0.500000 0.500000
Si Si2 0.250000 0.250000 0.214389
Si Si3 0.000000 0.000000 0.500000
Si Si4 0.500000 0.000000 0.000000
Si Si5 0.250000 0.250000 0.694829
Si Si6 0.353615 0.970207 0.169241
Si Si7 0.451365 0.253909 0.379792
O O1 0.922288 0.610424 0.434155
O O2 0.277400 0.114536 0.155703
O O3 0.375758 0.264302 0.283921
O O4 0.917037 0.891987 0.437366
O O5 0.595046 0.084168 0.070800
O O6 0.233237 0.378223 0.763741
O O7 0.386494 0.258260 0.636442
O O8 0.500000 0.000000 0.216651
#
# Coordination Sequence:
#
# PCOD9324585 Si02
#       7
#     2   4   2   2   4   8   8
#     4  10  24  42  60  88 136 174 208 268 344 350
#     4  12  22  42  68  92 128 172 218 260 322 384
#     4  10  24  36  52  92 120 158 228 268 312 372
#     4   8  20  46  64  96 140 166 192 268 336 382
#     4  12  22  42  68  92 128 172 218 260 322 384
#     4  10  22  42  65  97 128 168 203 265 321 383
#     4  11  23  38  61  89 126 172 212 273 313 380
#
# _framework density 21.578851
#
# number of rings (size 3 to 8) (size 9 to 14) (size 15 to 20)
#    0.800    0.533    2.667    3.200    0.000    7.467 
#    0.000    0.000    0.000    3.200    0.000    0.000 
#    0.000    0.000    0.000    0.000    0.000    0.000 
#
# Total GULP energy -83602.438433 kJ/mol
# GULP energy per Si atom -5573.495896 kJ/mol
# Density = 2.152974 g / cm^3
# Si number density = 21.578851 Si / 1000 Ang^3
#
#
#
# Elastic Constant Matrix: (Units=GPa)
#
#
# Indices 1 2 3 4 5 6 
#
# 1 103.5511 16.9489 19.6706 0.0000 0.0000 0.0000
# 2 16.9489 139.9029 26.7042 0.0000 0.0000 0.0000
# 3 19.6706 26.7042 90.7977 0.0000 0.0000 0.0000
# 4 0.0000 0.0000 0.0000 -35.3676 0.0000 0.0000
# 5 0.0000 0.0000 0.0000 0.0000 33.2192 0.0000
# 6 0.0000 0.0000 0.0000 0.0000 0.0000 12.5165
#
#
#
# Elastic Compliance Matrix: (Units=1/GPa)
#
#
# Indices 1 2 3 4 5 6 
#
# 1 0.010168 -0.000860 -0.001950 0.000000 0.000000 0.000000
# 2 -0.000860 0.007646 -0.002062 0.000000 0.000000 0.000000
# 3 -0.001950 -0.002062 0.012043 0.000000 0.000000 0.000000
# 4 0.000000 0.000000 0.000000 -0.028274 0.000000 0.000000
# 5 0.000000 0.000000 0.000000 0.000000 0.030103 0.000000
# 6 0.000000 0.000000 0.000000 0.000000 0.000000 0.079894
#
#
# Mechanical properties :
#
#
# Convention : Reuss Voigt Hill
#
# Bulk Modulus (GPa) = 49.72103 51.21099 50.46601
# Shear Modulus (GPa) = 39.05414 20.13550 29.59482
#
# Velocity S-wave (km/s) = 4.25883 3.05800 3.70736
# Velocity P-wave (km/s) = 6.87569 6.02097 6.46247
#
# Compressibility (1/GPa) = 0.02011221
#
# Stress axis : x y z
#
# Youngs Moduli (GPa) = 98.34579 130.79387 83.03914
#
# Poissons Ratio (x) = 0.11243 0.16193
# Poissons Ratio (y) = 0.08454 0.17126
# Poissons Ratio (z) = 0.19178 0.26975
#
# Static dielectric constant tensor:
#      x y z
#    x 1.802460 0.000000 0.000000 
#    y 0.000000 1.766950 0.000000 
#    z 0.000000 0.000000 1.803690 
# 
# From -- ./inp_files/31206.got.cif
#   From: 2010.05.17/outbox.cif.g08.bks.cpg/sg21_16_cif.got.tgz:31206.got - 2010.06.03 23:14:55.
