data_PCOD9324058
_publ_section_title
;
Structure prediction by ZEFSAII (Michael W. Deem and Ramdas Pophale) SiO2 
 PCOD9324058
Probable space group: C 2 2 2
;
_chemical_formula_sum "Si O2"
_cell_formula_units_Z 48
_cell_length_a 14.829920
_cell_length_b 13.069936
_cell_length_c 10.976842
_cell_angle_alpha 90.000000
_cell_angle_beta 90.000000
_cell_angle_gamma 90.000000
_cell_volume 2127.598533
_symmetry_space_group_name_H-M "C 2 2 2"
_symmetry_group_IT_number 21
_symmetry_cell_setting 'orthorhombic'
loop_
_space_group_symop_operation_xyz
x,y,z
-x,-y,z
x,-y,-z
-x,y,-z
1/2+x,1/2+y,z
1/2-x,1/2-y,z
1/2+x,1/2-y,-z
1/2-x,1/2+y,-z
loop_
_atom_site_type_symbol
_atom_site_label
_atom_site_fract_x
_atom_site_fract_y
_atom_site_fract_z
Si Si1 0.895745 0.123182 0.497528
Si Si2 0.329521 0.884658 0.116127
Si Si3 0.120452 0.594405 0.836484
Si Si4 0.205527 0.144767 0.253242
Si Si5 0.852524 0.161029 0.230571
Si Si6 0.534830 0.310420 0.862785
O O1 0.844074 0.155934 0.618836
O O2 0.843623 0.157221 0.375765
O O3 0.000000 0.159713 0.500000
O O4 0.897316 0.000000 0.500000
O O5 0.225777 0.899873 0.160203
O O6 0.350513 0.776064 0.177135
O O7 0.401199 0.973510 0.150843
O O8 0.336530 0.880859 0.970159
O O9 0.202171 0.582913 0.739560
O O10 0.057333 0.693638 0.815487
O O11 0.250000 0.250000 0.212350
O O12 0.126517 0.125919 0.156233
O O13 0.955740 0.130624 0.207388
O O14 0.500000 0.300782 0.000000
#
# Coordination Sequence:
#
# PCOD9324058 Si02
#       6
#     8   8   8   8   8   8
#     4  11  23  41  62  85 116 160 213 262 309 371
#     4  10  22  38  61  91 126 162 202 259 318 380
#     4  10  21  39  60  92 129 163 202 255 318 390
#     4  10  22  38  61  88 122 162 205 256 320 380
#     4  11  22  38  61  88 123 160 211 261 311 370
#     4  11  20  36  62  91 123 165 207 258 318 382
#
# _framework density 22.560646999999999
#
# number of rings (size 3 to 8) (size 9 to 14) (size 15 to 20)
#    0.000    1.500    3.333    2.000    7.000    0.667 
#    0.000    0.000    0.000    4.000    0.000    0.000 
#    0.000    0.000    0.000    0.000    0.000    0.000 
#
# Total GULP energy -133699.898896 kJ/mol
# GULP energy per Si atom -5570.829121 kJ/mol
# Density = 2.250930 g / cm^3
# Si number density = 22.560647 Si / 1000 Ang^3
#
#
#
# Elastic Constant Matrix: (Units=GPa)
#
#
# Indices 1 2 3 4 5 6 
#
# 1 98.6287 -15.3057 12.6160 0.0000 0.0000 0.0000
# 2 -15.3057 59.2167 -4.2674 0.0000 0.0000 0.0000
# 3 12.6160 -4.2674 76.7119 0.0000 0.0000 0.0000
# 4 0.0000 0.0000 0.0000 17.2049 0.0000 0.0000
# 5 0.0000 0.0000 0.0000 0.0000 -0.6968 0.0000
# 6 0.0000 0.0000 0.0000 0.0000 0.0000 24.1224
#
#
#
# Elastic Compliance Matrix: (Units=1/GPa)
#
#
# Indices 1 2 3 4 5 6 
#
# 1 0.010760 0.002664 -0.001621 0.000000 0.000000 0.000000
# 2 0.002664 0.017615 0.000542 0.000000 0.000000 0.000000
# 3 -0.001621 0.000542 0.013333 0.000000 0.000000 0.000000
# 4 0.000000 0.000000 0.000000 0.058123 0.000000 0.000000
# 5 0.000000 0.000000 0.000000 0.000000 -1.435087 0.000000
# 6 0.000000 0.000000 0.000000 0.000000 0.000000 0.041455
#
#
# Mechanical properties :
#
#
# Convention : Reuss Voigt Hill
#
# Bulk Modulus (GPa) = 22.28337 24.51590 23.39963
# Shear Modulus (GPa) = -3.90012 24.22706 10.16347
#
# Velocity S-wave (km/s) = -1.31624 3.28054 2.12479
# Velocity P-wave (km/s) = 2.75473 5.02389 4.05142
#
# Compressibility (1/GPa) = 0.04487652
#
# Stress axis : x y z
#
# Youngs Moduli (GPa) = 92.93786 56.77046 75.00424
#
# Poissons Ratio (x) = -0.15125 0.12161
# Poissons Ratio (y) = -0.24761 -0.04063
# Poissons Ratio (z) = 0.15069 -0.03075
#
# Static dielectric constant tensor:
#      x y z
#    x 1.995570 0.000000 0.000000 
#    y 0.000000 1.992320 0.000000 
#    z 0.000000 0.000000 1.821140 
# 
# From -- ./inp_files/25179.got.cif
#   From: 2010.05.17/outbox.cif.g08.bks.cpg/sg21_13_cif.got.tgz:25179.got - 2010.06.03 23:14:55.
