data_PCOD9324843
_publ_section_title
;
Structure prediction by ZEFSAII (Michael W. Deem and Ramdas Pophale) SiO2 
 PCOD9324843
Probable space group: C 2 2 2
;
_chemical_formula_sum "Si O2"
_cell_formula_units_Z 48
_cell_length_a 18.021988
_cell_length_b 9.097620
_cell_length_c 14.508690
_cell_angle_alpha 90.000000
_cell_angle_beta 90.000000
_cell_angle_gamma 90.000000
_cell_volume 2378.804166
_symmetry_space_group_name_H-M "C 2 2 2"
_symmetry_group_IT_number 21
_symmetry_cell_setting 'orthorhombic'
loop_
_space_group_symop_operation_xyz
x,y,z
-x,-y,z
x,-y,-z
-x,y,-z
1/2+x,1/2+y,z
1/2-x,1/2-y,z
1/2+x,1/2-y,-z
1/2-x,1/2+y,-z
loop_
_atom_site_type_symbol
_atom_site_label
_atom_site_fract_x
_atom_site_fract_y
_atom_site_fract_z
Si Si1 0.107397 0.822559 0.206499
Si Si2 0.151365 0.482973 0.391538
Si Si3 0.022954 0.358526 0.265271
Si Si4 0.911282 0.329226 0.016125
Si Si5 0.750000 0.250000 0.715921
Si Si6 0.371754 0.355836 0.153578
Si Si7 0.250000 0.250000 0.686448
O O1 0.047164 0.751182 0.277433
O O2 0.107959 0.714482 0.119889
O O3 0.187322 0.827732 0.252940
O O4 0.092233 0.983976 0.165547
O O5 0.139922 0.500000 0.500000
O O6 0.071777 0.441737 0.344134
O O7 0.200719 0.349461 0.351743
O O8 0.200068 0.627513 0.365349
O O9 0.000000 0.500000 0.205442
O O10 0.077840 0.259689 0.207784
O O11 0.891712 0.500000 0.000000
O O12 0.869746 0.213559 0.948172
O O13 0.000000 0.309911 0.000000
O O14 0.703444 0.349628 0.787229
#
# Coordination Sequence:
#
# PCOD9324843 Si02
#       7
#     8   8   8   8   4   8   4
#     4  12  24  42  65  99 136 179 229 275 342 403
#     4  11  24  45  72  98 131 175 227 283 353 424
#     4  11  22  40  67  97 130 173 222 275 335 400
#     4  11  24  38  64  96 134 182 234 280 327 404
#     4  10  23  43  68  98 138 174 226 291 355 416
#     4  11  23  40  67  95 136 181 226 279 341 405
#     4  12  25  43  70  96 132 178 218 281 349 420
#
# _framework density 20.178207
#
# number of rings (size 3 to 8) (size 9 to 14) (size 15 to 20)
#    0.000    0.833    5.000    2.500    2.333    1.667 
#    0.000    0.000    0.000    0.000    4.333    0.000 
#    0.000    0.000    0.000    0.000    0.000    0.000 
#
# Total GULP energy -133688.054423 kJ/mol
# GULP energy per Si atom -5570.335601 kJ/mol
# Density = 2.013228 g / cm^3
# Si number density = 20.178207 Si / 1000 Ang^3
#
#
#
# Elastic Constant Matrix: (Units=GPa)
#
#
# Indices 1 2 3 4 5 6 
#
# 1 98.0491 32.0631 44.2183 0.0000 0.0000 0.0000
# 2 32.0631 152.5797 48.8087 0.0000 0.0000 0.0000
# 3 44.2183 48.8087 115.2930 0.0000 0.0000 0.0000
# 4 0.0000 0.0000 0.0000 25.5581 0.0000 0.0000
# 5 0.0000 0.0000 0.0000 0.0000 12.8608 0.0000
# 6 0.0000 0.0000 0.0000 0.0000 0.0000 28.0411
#
#
#
# Elastic Compliance Matrix: (Units=1/GPa)
#
#
# Indices 1 2 3 4 5 6 
#
# 1 0.012541 -0.001269 -0.004273 0.000000 0.000000 0.000000
# 2 -0.001269 0.007709 -0.002777 0.000000 0.000000 0.000000
# 3 -0.004273 -0.002777 0.011488 0.000000 0.000000 0.000000
# 4 0.000000 0.000000 0.000000 0.039127 0.000000 0.000000
# 5 0.000000 0.000000 0.000000 0.000000 0.077755 0.000000
# 6 0.000000 0.000000 0.000000 0.000000 0.000000 0.035662
#
#
# Mechanical properties :
#
#
# Convention : Reuss Voigt Hill
#
# Bulk Modulus (GPa) = 66.22072 68.45578 67.33825
# Shear Modulus (GPa) = 24.27757 29.34746 26.81252
#
# Velocity S-wave (km/s) = 3.47242 3.81781 3.64921
# Velocity P-wave (km/s) = 6.99758 7.30982 7.15541
#
# Compressibility (1/GPa) = 0.01510101
#
# Stress axis : x y z
#
# Youngs Moduli (GPa) = 79.74029 129.72109 87.04819
#
# Poissons Ratio (x) = 0.16455 0.37193
# Poissons Ratio (y) = 0.10115 0.24173
# Poissons Ratio (z) = 0.34071 0.36023
#
# Static dielectric constant tensor:
#      x y z
#    x 2.011250 0.000000 0.000000 
#    y 0.000000 1.777570 0.000000 
#    z 0.000000 0.000000 1.708780 
# 
# From -- ./inp_files/32869.got.cif
#   From: 2010.05.17/outbox.cif.g08.bks.cpg/sg21_17_cif.got.tgz:32869.got - 2010.06.03 23:14:55.
