data_PCOD9324969
_publ_section_title
;
Structure prediction by ZEFSAII (Michael W. Deem and Ramdas Pophale) SiO2 
 PCOD9324969
Probable space group: C 2 2 2
;
_chemical_formula_sum "Si O2"
_cell_formula_units_Z 48
_cell_length_a 21.305920
_cell_length_b 20.380322
_cell_length_c 5.764220
_cell_angle_alpha 90.000000
_cell_angle_beta 90.000000
_cell_angle_gamma 90.000000
_cell_volume 2502.948313
_symmetry_space_group_name_H-M "C 2 2 2"
_symmetry_group_IT_number 21
_symmetry_cell_setting 'orthorhombic'
loop_
_space_group_symop_operation_xyz
x,y,z
-x,-y,z
x,-y,-z
-x,y,-z
1/2+x,1/2+y,z
1/2-x,1/2-y,z
1/2+x,1/2-y,-z
1/2-x,1/2+y,-z
loop_
_atom_site_type_symbol
_atom_site_label
_atom_site_fract_x
_atom_site_fract_y
_atom_site_fract_z
Si Si1 0.000000 0.702810 0.500000
Si Si2 0.822430 0.858277 0.052928
Si Si3 0.932136 0.757968 0.117515
Si Si4 0.743065 0.671958 0.551284
Si Si5 0.785148 0.000000 0.000000
Si Si6 0.564725 0.120736 0.101177
Si Si7 0.824353 0.553583 0.678947
O O1 0.051363 0.750056 0.614595
O O2 0.038855 0.655549 0.332652
O O3 0.884383 0.814241 0.057823
O O4 0.787898 0.842587 0.298623
O O5 0.790010 0.842256 0.803093
O O6 0.826729 0.936948 0.056360
O O7 0.911875 0.684189 0.044811
O O8 0.000000 0.768302 0.000000
O O9 0.750000 0.750000 0.551824
O O10 0.802602 0.622549 0.564623
O O11 0.737116 0.979022 0.795499
O O12 0.621456 0.072118 0.140969
O O13 0.500000 0.091857 0.000000
O O14 0.849263 0.500000 0.500000
#
# Coordination Sequence:
#
# PCOD9324969 Si02
#       7
#     4   8   8   8   4   8   8
#     4   8  18  36  59  90 123 152 216 256 334 362
#     4  11  23  40  65  90 136 165 218 265 332 389
#     4   9  20  36  61  95 121 168 204 277 324 380
#     4  11  24  39  63 100 124 169 221 273 326 388
#     4  10  24  44  56  90 126 182 208 262 330 400
#     4   9  20  38  60  90 122 165 214 266 322 380
#     4  11  22  40  61  87 129 172 215 269 325 396
#
# _framework density 19.177385999999998
#
# number of rings (size 3 to 8) (size 9 to 14) (size 15 to 20)
#    0.000    2.333    1.667    1.500    7.000    4.000 
#    0.000    2.917    0.000    0.000    0.000    0.000 
#    0.000    0.000    0.000    0.000    0.000    0.000 
#
# Total GULP energy -133615.694066 kJ/mol
# GULP energy per Si atom -5567.320586 kJ/mol
# Density = 1.913374 g / cm^3
# Si number density = 19.177386 Si / 1000 Ang^3
#
#
#
# Elastic Constant Matrix: (Units=GPa)
#
#
# Indices 1 2 3 4 5 6 
#
# 1 70.5808 46.2746 21.3039 0.0000 0.0000 0.0000
# 2 46.2746 147.8687 35.0137 0.0000 0.0000 0.0000
# 3 21.3039 35.0137 90.0701 0.0000 0.0000 0.0000
# 4 0.0000 0.0000 0.0000 24.0457 0.0000 0.0000
# 5 0.0000 0.0000 0.0000 0.0000 18.2765 0.0000
# 6 0.0000 0.0000 0.0000 0.0000 0.0000 12.1735
#
#
#
# Elastic Compliance Matrix: (Units=1/GPa)
#
#
# Indices 1 2 3 4 5 6 
#
# 1 0.018251 -0.005165 -0.002309 0.000000 0.000000 0.000000
# 2 -0.005165 0.008910 -0.002242 0.000000 0.000000 0.000000
# 3 -0.002309 -0.002242 0.012520 0.000000 0.000000 0.000000
# 4 0.000000 0.000000 0.000000 0.041587 0.000000 0.000000
# 5 0.000000 0.000000 0.000000 0.000000 0.054715 0.000000
# 6 0.000000 0.000000 0.000000 0.000000 0.000000 0.082146
#
#
# Mechanical properties :
#
#
# Convention : Reuss Voigt Hill
#
# Bulk Modulus (GPa) = 49.38403 57.07823 53.23113
# Shear Modulus (GPa) = 20.46566 24.62763 22.54665
#
# Velocity S-wave (km/s) = 3.27031 3.58746 3.43255
# Velocity P-wave (km/s) = 6.32985 6.85476 6.59753
#
# Compressibility (1/GPa) = 0.02024946
#
# Stress axis : x y z
#
# Youngs Moduli (GPa) = 54.79043 112.23394 79.87099
#
# Poissons Ratio (x) = 0.57967 0.18443
# Poissons Ratio (y) = 0.28299 0.17907
# Poissons Ratio (z) = 0.12652 0.25163
#
# Static dielectric constant tensor:
#      x y z
#    x 1.666930 0.000000 0.000000 
#    y 0.000000 1.661130 0.000000 
#    z 0.000000 0.000000 1.807030 
# 
# From -- ./inp_files/5979.got.cif
#   From: 2010.05.17/outbox.cif.g08.bks.cpg/sg21_3_cif.got.tgz:5979.got - 2010.06.03 23:14:55.
