data_PCOD9324223
_publ_section_title
;
Structure prediction by ZEFSAII (Michael W. Deem and Ramdas Pophale) SiO2 
 PCOD9324223
Probable space group: C 2 2 2
;
_chemical_formula_sum "Si O2"
_cell_formula_units_Z 42
_cell_length_a 8.132267
_cell_length_b 14.148508
_cell_length_c 16.256831
_cell_angle_alpha 90.000000
_cell_angle_beta 90.000000
_cell_angle_gamma 90.000000
_cell_volume 1870.501948
_symmetry_space_group_name_H-M "C 2 2 2"
_symmetry_group_IT_number 21
_symmetry_cell_setting 'orthorhombic'
loop_
_space_group_symop_operation_xyz
x,y,z
-x,-y,z
x,-y,-z
-x,y,-z
1/2+x,1/2+y,z
1/2-x,1/2-y,z
1/2+x,1/2-y,-z
1/2-x,1/2+y,-z
loop_
_atom_site_type_symbol
_atom_site_label
_atom_site_fract_x
_atom_site_fract_y
_atom_site_fract_z
Si Si1 0.911551 0.311873 0.081046
Si Si2 0.010510 0.233044 0.251542
Si Si3 0.697272 0.857653 0.503384
Si Si4 0.195158 0.386944 0.317628
Si Si5 0.000000 0.500000 0.000000
Si Si6 0.665345 0.565101 0.671132
O O1 0.750000 0.250000 0.088928
O O2 0.004075 0.285143 0.164523
O O3 0.902164 0.424476 0.058463
O O4 0.000000 0.272803 0.000000
O O5 0.036452 0.319701 0.314813
O O6 0.170115 0.166162 0.261989
O O7 0.866553 0.160604 0.277155
O O8 0.500000 0.872646 0.500000
O O9 0.750000 0.750000 0.515069
O O10 0.756540 0.883705 0.411862
O O11 0.783273 0.910817 0.578331
O O12 0.194258 0.495827 0.293248
O O13 0.500000 0.500000 0.674354
#
# Coordination Sequence:
#
# PCOD9324223 Si02
#       6
#     8   8   8   8   2   8
#     4  10  24  47  78 109 146 185 235 295 368 449
#     4  10  21  41  68 103 136 187 236 294 365 427
#     4  12  25  42  68  99 141 194 259 302 365 423
#     4  10  22  41  65  97 146 190 239 307 361 408
#     4   8  24  48  78 114 144 190 230 288 384 438
#     4  10  24  43  69 100 143 200 254 300 363 433
#
# _framework density 22.453866000000001
#
# number of rings (size 3 to 8) (size 9 to 14) (size 15 to 20)
#    0.571    1.143    1.905    1.714    5.333    7.619 
#    0.000    2.381    0.000    0.000    0.000    0.000 
#    0.000    0.000    0.000    0.000    0.000    0.000 
#
# Total GULP energy -117106.447195 kJ/mol
# GULP energy per Si atom -5576.497485 kJ/mol
# Density = 2.240276 g / cm^3
# Si number density = 22.453866 Si / 1000 Ang^3
#
#
#
# Elastic Constant Matrix: (Units=GPa)
#
#
# Indices 1 2 3 4 5 6 
#
# 1 58.6976 40.6696 8.6054 0.0000 0.0000 0.0000
# 2 40.6696 214.1745 54.9380 0.0000 0.0000 0.0000
# 3 8.6054 54.9380 128.4408 0.0000 0.0000 0.0000
# 4 0.0000 0.0000 0.0000 -187.0451 0.0000 0.0000
# 5 0.0000 0.0000 0.0000 0.0000 32.4968 0.0000
# 6 0.0000 0.0000 0.0000 0.0000 0.0000 46.1202
#
#
#
# Elastic Compliance Matrix: (Units=1/GPa)
#
#
# Indices 1 2 3 4 5 6 
#
# 1 0.019629 -0.003808 0.000314 0.000000 0.000000 0.000000
# 2 -0.003808 0.005983 -0.002304 0.000000 0.000000 0.000000
# 3 0.000314 -0.002304 0.008750 0.000000 0.000000 0.000000
# 4 0.000000 0.000000 0.000000 -0.005346 0.000000 0.000000
# 5 0.000000 0.000000 0.000000 0.000000 0.030772 0.000000
# 6 0.000000 0.000000 0.000000 0.000000 0.000000 0.021682
#
#
# Mechanical properties :
#
#
# Convention : Reuss Voigt Hill
#
# Bulk Modulus (GPa) = 43.92581 67.74876 55.83729
# Shear Modulus (GPa) = 49.67439 -1.87894 23.89772
#
# Velocity S-wave (km/s) = 4.70860 -0.91576 3.26591
# Velocity P-wave (km/s) = 7.01187 5.39627 6.25644
#
# Compressibility (1/GPa) = 0.02276566
#
# Stress axis : x y z
#
# Youngs Moduli (GPa) = 50.94568 167.13587 114.28321
#
# Poissons Ratio (x) = 0.63641 -0.03584
# Poissons Ratio (y) = 0.19399 0.26332
# Poissons Ratio (z) = -0.01598 0.38509
#
# Static dielectric constant tensor:
#      x y z
#    x 4.344760 0.000000 0.000000 
#    y 0.000000 1.854180 0.000000 
#    z 0.000000 0.000000 1.651420 
# 
# From -- ./inp_files/30243.got.cif
#   From: 2010.05.17/outbox.cif.g08.bks.cpg/sg21_16_cif.got.tgz:30243.got - 2010.06.03 23:14:55.
