data_PCOD9324171
_publ_section_title
;
Structure prediction by ZEFSAII (Michael W. Deem and Ramdas Pophale) SiO2 
 PCOD9324171
Probable space group: C 2 2 2
;
_chemical_formula_sum "Si O2"
_cell_formula_units_Z 56
_cell_length_a 13.246419
_cell_length_b 22.499559
_cell_length_c 9.117628
_cell_angle_alpha 90.000000
_cell_angle_beta 90.000000
_cell_angle_gamma 90.000000
_cell_volume 2717.404955
_symmetry_space_group_name_H-M "C 2 2 2"
_symmetry_group_IT_number 21
_symmetry_cell_setting 'orthorhombic'
loop_
_space_group_symop_operation_xyz
x,y,z
-x,-y,z
x,-y,-z
-x,y,-z
1/2+x,1/2+y,z
1/2-x,1/2-y,z
1/2+x,1/2-y,-z
1/2-x,1/2+y,-z
loop_
_atom_site_type_symbol
_atom_site_label
_atom_site_fract_x
_atom_site_fract_y
_atom_site_fract_z
Si Si1 0.041864 0.433456 0.655480
Si Si2 0.261771 0.475873 0.663186
Si Si3 0.041394 0.668128 0.838920
Si Si4 0.530586 0.714771 0.330494
Si Si5 0.846610 0.054522 0.884930
Si Si6 0.529437 0.411827 0.325440
Si Si7 0.274933 0.683906 0.858953
O O1 0.161857 0.437119 0.662480
O O2 0.000000 0.500000 0.667377
O O3 0.000000 0.409892 0.500000
O O4 0.003342 0.392797 0.783397
O O5 0.273216 0.500000 0.500000
O O6 0.257959 0.529926 0.778507
O O7 0.362054 0.439519 0.697619
O O8 0.004508 0.723903 0.744714
O O9 0.161806 0.665225 0.818881
O O10 0.000000 0.679373 0.000000
O O11 0.500000 0.720359 0.500000
O O12 0.468711 0.657107 0.281869
O O13 0.645897 0.698619 0.274808
O O14 0.943576 0.060192 0.777793
O O15 0.821200 0.123046 0.933364
O O16 0.860653 0.000000 0.000000
O O17 0.500000 0.417293 0.500000
O O18 0.250000 0.750000 0.930277
#
# Coordination Sequence:
#
# PCOD9324171 Si02
#       7
#     8   8   8   8   8   8   8
#     4  11  24  42  63  96 132 177 237 294 343 405
#     4  12  23  40  65  94 136 176 222 284 353 411
#     4  11  24  43  68  97 140 185 234 290 356 419
#     4   9  20  43  70 100 128 176 238 288 350 423
#     4  11  24  40  69 105 138 175 234 290 352 426
#     4  10  21  40  67  96 135 177 221 281 352 417
#     4   9  21  44  72  95 138 189 227 281 358 419
#
# _framework density 20.607897000000001
#
# number of rings (size 3 to 8) (size 9 to 14) (size 15 to 20)
#    0.000    1.571    2.857    1.714    2.000    1.429 
#    7.714    0.714    0.000    0.000    0.000    0.000 
#    0.000    0.000    0.000    0.000    0.000    0.000 
#
# Total GULP energy -156048.554934 kJ/mol
# GULP energy per Si atom -5573.162676 kJ/mol
# Density = 2.056099 g / cm^3
# Si number density = 20.607897 Si / 1000 Ang^3
#
#
#
# Elastic Constant Matrix: (Units=GPa)
#
#
# Indices 1 2 3 4 5 6 
#
# 1 91.4902 32.9450 6.7743 0.0000 0.0000 0.0000
# 2 32.9450 120.1552 37.5447 0.0000 0.0000 0.0000
# 3 6.7743 37.5447 70.5475 0.0000 0.0000 0.0000
# 4 0.0000 0.0000 0.0000 35.9569 0.0000 0.0000
# 5 0.0000 0.0000 0.0000 0.0000 0.9613 0.0000
# 6 0.0000 0.0000 0.0000 0.0000 0.0000 64.3987
#
#
#
# Elastic Compliance Matrix: (Units=1/GPa)
#
#
# Indices 1 2 3 4 5 6 
#
# 1 0.012159 -0.003561 0.000728 0.000000 0.000000 0.000000
# 2 -0.003561 0.011026 -0.005526 0.000000 0.000000 0.000000
# 3 0.000728 -0.005526 0.017046 0.000000 0.000000 0.000000
# 4 0.000000 0.000000 0.000000 0.027811 0.000000 0.000000
# 5 0.000000 0.000000 0.000000 0.000000 1.040271 0.000000
# 6 0.000000 0.000000 0.000000 0.000000 0.000000 0.015528
#
#
# Mechanical properties :
#
#
# Convention : Reuss Voigt Hill
#
# Bulk Modulus (GPa) = 42.53237 48.52454 45.52846
# Shear Modulus (GPa) = 4.35390 33.92531 19.13961
#
# Velocity S-wave (km/s) = 1.45510 4.06178 3.05085
# Velocity P-wave (km/s) = 4.84838 6.75241 5.87800
#
# Compressibility (1/GPa) = 0.02351151
#
# Stress axis : x y z
#
# Youngs Moduli (GPa) = 82.24641 90.69797 58.66573
#
# Poissons Ratio (x) = 0.32298 -0.04269
# Poissons Ratio (y) = 0.29289 0.32417
# Poissons Ratio (z) = -0.05985 0.50118
#
# Static dielectric constant tensor:
#      x y z
#    x 1.739030 0.000000 0.000000 
#    y 0.000000 1.775430 0.000000 
#    z 0.000000 0.000000 1.519480 
# 
# From -- ./inp_files/15273.got.cif
#   From: 2010.05.17/outbox.cif.g08.bks.cpg/sg21_8_cif.got.tgz:15273.got - 2010.06.03 23:14:55.
