data_PCOD9324943
_publ_section_title
;
Structure prediction by ZEFSAII (Michael W. Deem and Ramdas Pophale) SiO2 
 PCOD9324943
Probable space group: C 2 2 2
;
_chemical_formula_sum "Si O2"
_cell_formula_units_Z 28
_cell_length_a 21.765606
_cell_length_b 4.849901
_cell_length_c 11.522946
_cell_angle_alpha 90.000000
_cell_angle_beta 90.000000
_cell_angle_gamma 90.000000
_cell_volume 1216.374098
_symmetry_space_group_name_H-M "C 2 2 2"
_symmetry_group_IT_number 21
_symmetry_cell_setting 'orthorhombic'
loop_
_space_group_symop_operation_xyz
x,y,z
-x,-y,z
x,-y,-z
-x,y,-z
1/2+x,1/2+y,z
1/2-x,1/2-y,z
1/2+x,1/2-y,-z
1/2-x,1/2+y,-z
loop_
_atom_site_type_symbol
_atom_site_label
_atom_site_fract_x
_atom_site_fract_y
_atom_site_fract_z
Si Si1 0.387368 0.804915 0.114274
Si Si2 0.178048 0.794997 0.781401
Si Si3 0.500000 0.000000 0.241321
Si Si4 0.904252 0.240162 0.581765
O O1 0.354708 0.508160 0.128608
O O2 0.349106 0.991088 0.202908
O O3 0.457091 0.808082 0.160491
O O4 0.385338 0.000000 0.000000
O O5 0.250000 0.750000 0.798389
O O6 0.154372 0.873242 0.653577
O O7 0.455605 0.174549 0.324390
O O8 0.890124 0.500000 0.500000
O O9 0.927753 0.000000 0.500000
#
# Coordination Sequence:
#
# PCOD9324943 Si02
#       4
#     8   8   4   8
#     4  11  24  43  68  97 131 177 225 282 352 413
#     4  11  25  44  65  95 134 175 230 286 336 410
#     4  10  24  42  66 100 138 172 224 286 348 430
#     4  11  24  41  66  97 133 179 224 277 348 422
#
# _framework density 23.019231999999999
#
# number of rings (size 3 to 8) (size 9 to 14) (size 15 to 20)
#    0.000    1.143    0.000    6.000    0.000   17.143 
#    0.000    5.714    0.000    0.000    0.000    0.000 
#    0.000    0.000    0.000    0.000    0.000    0.000 
#
# Total GULP energy -78172.746304 kJ/mol
# GULP energy per Si atom -5583.767593 kJ/mol
# Density = 2.296684 g / cm^3
# Si number density = 23.019232 Si / 1000 Ang^3
#
#
#
# Elastic Constant Matrix: (Units=GPa)
#
#
# Indices 1 2 3 4 5 6 
#
# 1 141.4414 40.8241 46.3085 0.0000 0.0000 0.0000
# 2 40.8241 138.9742 38.4737 0.0000 0.0000 0.0000
# 3 46.3085 38.4737 92.2933 0.0000 0.0000 0.0000
# 4 0.0000 0.0000 0.0000 35.8392 0.0000 0.0000
# 5 0.0000 0.0000 0.0000 0.0000 -1.1657 0.0000
# 6 0.0000 0.0000 0.0000 0.0000 0.0000 26.1259
#
#
#
# Elastic Compliance Matrix: (Units=1/GPa)
#
#
# Indices 1 2 3 4 5 6 
#
# 1 0.008738 -0.001530 -0.003747 0.000000 0.000000 0.000000
# 2 -0.001530 0.008402 -0.002735 0.000000 0.000000 0.000000
# 3 -0.003747 -0.002735 0.013855 0.000000 0.000000 0.000000
# 4 0.000000 0.000000 0.000000 0.027902 0.000000 0.000000
# 5 0.000000 0.000000 0.000000 0.000000 -0.857844 0.000000
# 6 0.000000 0.000000 0.000000 0.000000 0.000000 0.038276
#
#
# Mechanical properties :
#
#
# Convention : Reuss Voigt Hill
#
# Bulk Modulus (GPa) = 66.78887 69.32461 68.05674
# Shear Modulus (GPa) = -6.75990 28.63339 10.93675
#
# Velocity S-wave (km/s) = -1.71552 3.53071 2.18207
# Velocity P-wave (km/s) = 5.01531 6.84124 5.99816
#
# Compressibility (1/GPa) = 0.01497256
#
# Stress axis : x y z
#
# Youngs Moduli (GPa) = 114.43894 119.01812 72.17544
#
# Poissons Ratio (x) = 0.18205 0.27043
# Poissons Ratio (y) = 0.17505 0.19740
# Poissons Ratio (z) = 0.42878 0.32552
#
# Static dielectric constant tensor:
#      x y z
#    x 1.926200 0.000000 0.000000 
#    y 0.000000 1.882460 0.000000 
#    z 0.000000 0.000000 2.335600 
# 
# From -- ./inp_files/26402.got.cif
#   From: 2010.05.17/outbox.cif.g08.bks.cpg/sg21_14_cif.got.tgz:26402.got - 2010.06.03 23:14:55.
