data_PCOD9324380
_publ_section_title
;
Structure prediction by ZEFSAII (Michael W. Deem and Ramdas Pophale) SiO2 
 PCOD9324380
Probable space group: C 2 2 2
;
_chemical_formula_sum "Si O2"
_cell_formula_units_Z 64
_cell_length_a 25.218585
_cell_length_b 9.372313
_cell_length_c 13.810116
_cell_angle_alpha 90.000000
_cell_angle_beta 90.000000
_cell_angle_gamma 90.000000
_cell_volume 3264.110296
_symmetry_space_group_name_H-M "C 2 2 2"
_symmetry_group_IT_number 21
_symmetry_cell_setting 'orthorhombic'
loop_
_space_group_symop_operation_xyz
x,y,z
-x,-y,z
x,-y,-z
-x,y,-z
1/2+x,1/2+y,z
1/2-x,1/2-y,z
1/2+x,1/2-y,-z
1/2-x,1/2+y,-z
loop_
_atom_site_type_symbol
_atom_site_label
_atom_site_fract_x
_atom_site_fract_y
_atom_site_fract_z
Si Si1 0.597380 0.791783 0.245164
Si Si2 0.167050 0.957027 0.732271
Si Si3 0.842049 0.511687 0.888318
Si Si4 0.498208 0.328099 0.113909
Si Si5 0.397034 0.744198 0.231136
Si Si6 0.738741 0.078310 0.397728
Si Si7 0.772206 0.096604 0.920485
Si Si8 0.113118 0.465937 0.613395
O O1 0.628904 0.668873 0.303354
O O2 0.551729 0.726223 0.177200
O O3 0.633870 0.882060 0.171862
O O4 0.584107 0.910559 0.325346
O O5 0.190283 0.890322 0.830107
O O6 0.131796 0.094755 0.753562
O O7 0.217346 0.006488 0.670536
O O8 0.860116 0.654148 0.834775
O O9 0.778920 0.495666 0.890237
O O10 0.859858 0.500000 0.000000
O O11 0.500000 0.500000 0.114686
O O12 0.549447 0.272770 0.170892
O O13 0.500000 0.283166 0.000000
O O14 0.405845 0.819910 0.335336
O O15 0.750000 0.250000 0.401391
O O16 0.677575 0.043186 0.369481
O O17 0.746092 0.000000 0.500000
O O18 0.750000 0.250000 0.953504
O O19 0.800728 0.000000 0.000000
O O20 0.105809 0.500000 0.500000
#
# Coordination Sequence:
#
# PCOD9324380 Si02
#       8
#     8   8   8   8   8   8   8   8
#     4  11  23  42  65  93 124 169 215 270 328 386
#     4  12  24  37  63  89 128 169 209 260 328 377
#     4  10  22  38  57  86 127 162 210 259 315 390
#     4  11  24  43  68  99 130 165 221 280 330 385
#     4  11  23  42  65  92 125 169 215 269 329 387
#     4  11  25  41  66  99 131 170 215 262 317 386
#     4  11  25  37  55  86 125 169 214 255 311 390
#     4  10  24  44  68  96 135 168 214 266 326 394
#
# _framework density 19.607181000000001
#
# number of rings (size 3 to 8) (size 9 to 14) (size 15 to 20)
#    0.000    1.125    3.750    2.250    7.000    3.000 
#    0.000    4.375    0.000    0.750    0.000    0.000 
#    0.000    0.000    0.000    0.000    0.000    0.000 
#
# Total GULP energy -178565.347713 kJ/mol
# GULP energy per Si atom -5580.167116 kJ/mol
# Density = 1.956255 g / cm^3
# Si number density = 19.607181 Si / 1000 Ang^3
#
#
#
# Elastic Constant Matrix: (Units=GPa)
#
#
# Indices 1 2 3 4 5 6 
#
# 1 40.2616 1.1512 18.4226 0.0000 0.0000 0.0000
# 2 1.1512 91.5591 12.5587 0.0000 0.0000 0.0000
# 3 18.4226 12.5587 98.5952 0.0000 0.0000 0.0000
# 4 0.0000 0.0000 0.0000 27.6402 0.0000 0.0000
# 5 0.0000 0.0000 0.0000 0.0000 134.9033 0.0000
# 6 0.0000 0.0000 0.0000 0.0000 0.0000 19.0562
#
#
#
# Elastic Compliance Matrix: (Units=1/GPa)
#
#
# Indices 1 2 3 4 5 6 
#
# 1 0.027171 0.000361 -0.005123 0.000000 0.000000 0.000000
# 2 0.000361 0.011121 -0.001484 0.000000 0.000000 0.000000
# 3 -0.005123 -0.001484 0.011289 0.000000 0.000000 0.000000
# 4 0.000000 0.000000 0.000000 0.036179 0.000000 0.000000
# 5 0.000000 0.000000 0.000000 0.000000 0.007413 0.000000
# 6 0.000000 0.000000 0.000000 0.000000 0.000000 0.052476
#
#
# Mechanical properties :
#
#
# Convention : Reuss Voigt Hill
#
# Bulk Modulus (GPa) = 26.96204 32.74233 29.85218
# Shear Modulus (GPa) = 29.32478 49.53883 39.43181
#
# Velocity S-wave (km/s) = 3.87151 5.03195 4.48938
# Velocity P-wave (km/s) = 5.81083 7.10606 6.49083
#
# Compressibility (1/GPa) = 0.03708919
#
# Stress axis : x y z
#
# Youngs Moduli (GPa) = 36.80338 89.92058 88.58382
#
# Poissons Ratio (x) = -0.03247 0.45381
# Poissons Ratio (y) = -0.01329 0.13146
# Poissons Ratio (z) = 0.18854 0.13344
#
# Static dielectric constant tensor:
#      x y z
#    x 1.699820 0.000000 0.000000 
#    y 0.000000 1.707390 0.000000 
#    z 0.000000 0.000000 1.759800 
# 
# From -- ./inp_files/33611.got.cif
#   From: 2010.05.17/outbox.cif.g08.bks.cpg/sg21_17_cif.got.tgz:33611.got - 2010.06.03 23:14:55.
