data_PCOD9324744
_publ_section_title
;
Structure prediction by ZEFSAII (Michael W. Deem and Ramdas Pophale) SiO2 
 PCOD9324744
Probable space group: C 2 2 2
;
_chemical_formula_sum "Si O2"
_cell_formula_units_Z 32
_cell_length_a 9.952865
_cell_length_b 10.987195
_cell_length_c 13.412204
_cell_angle_alpha 90.000000
_cell_angle_beta 90.000000
_cell_angle_gamma 90.000000
_cell_volume 1466.679076
_symmetry_space_group_name_H-M "C 2 2 2"
_symmetry_group_IT_number 21
_symmetry_cell_setting 'orthorhombic'
loop_
_space_group_symop_operation_xyz
x,y,z
-x,-y,z
x,-y,-z
-x,y,-z
1/2+x,1/2+y,z
1/2-x,1/2-y,z
1/2+x,1/2-y,-z
1/2-x,1/2+y,-z
loop_
_atom_site_type_symbol
_atom_site_label
_atom_site_fract_x
_atom_site_fract_y
_atom_site_fract_z
Si Si1 0.750000 0.250000 0.031702
Si Si2 0.358633 0.066391 0.132397
Si Si3 0.250000 0.750000 0.718169
Si Si4 0.114717 0.895712 0.189512
Si Si5 0.488889 0.643267 0.609698
O O1 0.700007 0.136904 0.964340
O O2 0.872039 0.203055 0.101539
O O3 0.352621 0.174249 0.213757
O O4 0.500000 0.000000 0.119057
O O5 0.253195 0.968792 0.176159
O O6 0.340937 0.666472 0.650570
O O7 0.089949 0.833560 0.297191
O O8 0.000000 0.000000 0.174969
O O9 0.500000 0.500000 0.597353
O O10 0.500000 0.702268 0.500000
#
# Coordination Sequence:
#
# PCOD9324744 Si02
#       5
#     4   8   4   8   8
#     4  11  28  43  70 100 144 185 232 285 354 416
#     4  11  26  46  66 102 146 184 234 285 347 425
#     4  11  22  49  70 100 146 181 230 299 346 424
#     4  11  24  47  69  99 138 183 230 287 349 421
#     4  10  22  46  76 101 135 183 232 295 359 414
#
# _framework density 21.817997999999999
#
# number of rings (size 3 to 8) (size 9 to 14) (size 15 to 20)
#    0.000    1.250    5.000    0.750    3.500    7.000 
#    0.000    0.000    0.000    0.000    0.000    0.000 
#    0.000    0.000    0.000    0.000    0.000    0.000 
#
# Total GULP energy -89330.070735 kJ/mol
# GULP energy per Si atom -5583.129421 kJ/mol
# Density = 2.176834 g / cm^3
# Si number density = 21.817998 Si / 1000 Ang^3
#
#
#
# Elastic Constant Matrix: (Units=GPa)
#
#
# Indices 1 2 3 4 5 6 
#
# 1 138.4515 42.4843 74.3460 0.0000 0.0000 0.0000
# 2 42.4843 77.9549 44.5135 0.0000 0.0000 0.0000
# 3 74.3460 44.5135 191.8592 0.0000 0.0000 0.0000
# 4 0.0000 0.0000 0.0000 -82.0675 0.0000 0.0000
# 5 0.0000 0.0000 0.0000 0.0000 32.5226 0.0000
# 6 0.0000 0.0000 0.0000 0.0000 0.0000 46.0378
#
#
#
# Elastic Compliance Matrix: (Units=1/GPa)
#
#
# Indices 1 2 3 4 5 6 
#
# 1 0.009977 -0.003723 -0.003003 0.000000 0.000000 0.000000
# 2 -0.003723 0.016176 -0.002310 0.000000 0.000000 0.000000
# 3 -0.003003 -0.002310 0.006912 0.000000 0.000000 0.000000
# 4 0.000000 0.000000 0.000000 -0.012185 0.000000 0.000000
# 5 0.000000 0.000000 0.000000 0.000000 0.030748 0.000000
# 6 0.000000 0.000000 0.000000 0.000000 0.000000 0.021721
#
#
# Mechanical properties :
#
#
# Convention : Reuss Voigt Hill
#
# Bulk Modulus (GPa) = 66.69581 81.21704 73.95642
# Shear Modulus (GPa) = 51.85691 15.76003 33.80847
#
# Velocity S-wave (km/s) = 4.88053 2.69056 3.94073
# Velocity P-wave (km/s) = 7.89905 6.85257 7.39434
#
# Compressibility (1/GPa) = 0.01499345
#
# Stress axis : x y z
#
# Youngs Moduli (GPa) = 100.22563 61.81911 144.68298
#
# Poissons Ratio (x) = 0.23016 0.43441
# Poissons Ratio (y) = 0.37315 0.33427
# Poissons Ratio (z) = 0.30093 0.14282
#
# Static dielectric constant tensor:
#      x y z
#    x 1.786550 0.000000 0.000000 
#    y 0.000000 1.849020 0.000000 
#    z 0.000000 0.000000 1.896470 
# 
# From -- ./inp_files/29939.got.cif
#   From: 2010.05.17/outbox.cif.g08.bks.cpg/sg21_15_cif.got.tgz:29939.got - 2010.06.03 23:14:55.
