data_PCOD9324792
_publ_section_title
;
Structure prediction by ZEFSAII (Michael W. Deem and Ramdas Pophale) SiO2 
 PCOD9324792
Probable space group: C 2 2 2
;
_chemical_formula_sum "Si O2"
_cell_formula_units_Z 32
_cell_length_a 10.686782
_cell_length_b 14.510737
_cell_length_c 10.164938
_cell_angle_alpha 90.000000
_cell_angle_beta 90.000000
_cell_angle_gamma 90.000000
_cell_volume 1576.308274
_symmetry_space_group_name_H-M "C 2 2 2"
_symmetry_group_IT_number 21
_symmetry_cell_setting 'orthorhombic'
loop_
_space_group_symop_operation_xyz
x,y,z
-x,-y,z
x,-y,-z
-x,y,-z
1/2+x,1/2+y,z
1/2-x,1/2-y,z
1/2+x,1/2-y,-z
1/2-x,1/2+y,-z
loop_
_atom_site_type_symbol
_atom_site_label
_atom_site_fract_x
_atom_site_fract_y
_atom_site_fract_z
Si Si1 0.733496 0.645808 0.298023
Si Si2 0.955733 0.842504 0.638180
Si Si3 0.750000 0.250000 0.188979
Si Si4 0.646730 0.108904 0.983152
Si Si5 0.706996 0.500000 0.500000
O O1 0.750000 0.750000 0.347912
O O2 0.583224 0.631954 0.286115
O O3 0.803191 0.637026 0.160023
O O4 0.778152 0.569033 0.402229
O O5 0.867417 0.776831 0.721200
O O6 0.000000 0.798668 0.500000
O O7 0.877709 0.932065 0.590071
O O8 0.719613 0.164382 0.094940
O O9 0.500000 0.130514 0.000000
O O10 0.663879 0.000000 0.000000
#
# Coordination Sequence:
#
# PCOD9324792 Si02
#       5
#     8   8   4   8   4
#     4  11  21  41  69  95 135 176 222 279 341 397
#     4  10  23  40  66  99 136 169 227 287 334 399
#     4  12  24  42  70  98 132 184 232 272 354 412
#     4  11  25  44  66  97 140 180 223 284 336 410
#     4  10  23  42  66 103 134 171 224 286 335 406
#
# _framework density 20.300598000000001
#
# number of rings (size 3 to 8) (size 9 to 14) (size 15 to 20)
#    0.000    1.250    1.250    6.375    7.000    0.000 
#    0.000    1.250    0.000    1.500    0.000    0.000 
#    0.000    0.000    0.000    0.000    0.000    0.000 
#
# Total GULP energy -89400.082467 kJ/mol
# GULP energy per Si atom -5587.505154 kJ/mol
# Density = 2.025439 g / cm^3
# Si number density = 20.300598 Si / 1000 Ang^3
#
#
#
# Elastic Constant Matrix: (Units=GPa)
#
#
# Indices 1 2 3 4 5 6 
#
# 1 74.9547 24.0984 69.3406 0.0000 0.0000 0.0000
# 2 24.0984 77.8721 66.4648 0.0000 0.0000 0.0000
# 3 69.3406 66.4648 152.1633 0.0000 0.0000 0.0000
# 4 0.0000 0.0000 0.0000 25.4486 0.0000 0.0000
# 5 0.0000 0.0000 0.0000 0.0000 -80.4719 0.0000
# 6 0.0000 0.0000 0.0000 0.0000 0.0000 27.3577
#
#
#
# Elastic Compliance Matrix: (Units=1/GPa)
#
#
# Indices 1 2 3 4 5 6 
#
# 1 0.023490 0.002977 -0.012005 0.000000 0.000000 0.000000
# 2 0.002977 0.020852 -0.010465 0.000000 0.000000 0.000000
# 3 -0.012005 -0.010465 0.016613 0.000000 0.000000 0.000000
# 4 0.000000 0.000000 0.000000 0.039295 0.000000 0.000000
# 5 0.000000 0.000000 0.000000 0.000000 -0.012427 0.000000
# 6 0.000000 0.000000 0.000000 0.000000 0.000000 0.036553
#
#
# Mechanical properties :
#
#
# Convention : Reuss Voigt Hill
#
# Bulk Modulus (GPa) = 45.51589 69.42194 57.46892
# Shear Modulus (GPa) = 29.29384 4.13930 16.71657
#
# Velocity S-wave (km/s) = 3.80281 1.42949 2.87270
# Velocity P-wave (km/s) = 6.46154 6.08242 6.27484
#
# Compressibility (1/GPa) = 0.02197035
#
# Stress axis : x y z
#
# Youngs Moduli (GPa) = 42.57186 47.95673 60.19270
#
# Poissons Ratio (x) = -0.14276 0.72258
# Poissons Ratio (y) = -0.12673 0.62990
# Poissons Ratio (z) = 0.51105 0.50185
#
# Static dielectric constant tensor:
#      x y z
#    x 1.745780 0.000000 0.000000 
#    y 0.000000 1.733960 0.000000 
#    z 0.000000 0.000000 1.720480 
# 
# From -- ./inp_files/12356.got.cif
#   From: 2010.05.17/outbox.cif.g08.bks.cpg/sg21_7_cif.got.tgz:12356.got - 2010.06.03 23:14:55.
