data_PCOD9324096
_publ_section_title
;
Structure prediction by ZEFSAII (Michael W. Deem and Ramdas Pophale) SiO2 
 PCOD9324096
Probable space group: C 2 2 2
;
_chemical_formula_sum "Si O2"
_cell_formula_units_Z 24
_cell_length_a 18.608440
_cell_length_b 9.866758
_cell_length_c 4.945761
_cell_angle_alpha 90.000000
_cell_angle_beta 90.000000
_cell_angle_gamma 90.000000
_cell_volume 908.066321
_symmetry_space_group_name_H-M "C 2 2 2"
_symmetry_group_IT_number 21
_symmetry_cell_setting 'orthorhombic'
loop_
_space_group_symop_operation_xyz
x,y,z
-x,-y,z
x,-y,-z
-x,y,-z
1/2+x,1/2+y,z
1/2-x,1/2-y,z
1/2+x,1/2-y,-z
1/2-x,1/2+y,-z
loop_
_atom_site_type_symbol
_atom_site_label
_atom_site_fract_x
_atom_site_fract_y
_atom_site_fract_z
Si Si1 0.084526 0.642052 0.439114
Si Si2 0.721330 0.592974 0.765639
Si Si3 0.917350 0.801305 0.049967
O O1 0.121011 0.500000 0.500000
O O2 0.105153 0.763902 0.645196
O O3 0.000000 0.634813 0.500000
O O4 0.087106 0.663534 0.121232
O O5 0.720408 0.500000 0.500000
O O6 0.750000 0.750000 0.731935
O O7 0.757671 0.500000 0.000000
O O8 0.641024 0.616023 0.882913
O O9 0.000000 0.848354 0.000000
#
# Coordination Sequence:
#
# PCOD9324096 Si02
#       3
#     8   8   8
#     4   9  17  31  56  95 142 188 234 291 365 443
#     4  12  28  51  77 110 153 205 260 314 380 460
#     4  10  21  39  65 101 142 187 245 312 376 439
#
# _framework density 26.429789
#
# number of rings (size 3 to 8) (size 9 to 14) (size 15 to 20)
#    0.000    1.667    0.000    4.000    0.000    8.667 
#    0.000    1.667    0.000    0.000    0.000    2.333 
#    0.000    0.000    0.000    0.000    0.000    0.000 
#
# Total GULP energy -66929.549690 kJ/mol
# GULP energy per Si atom -5577.462474 kJ/mol
# Density = 2.636963 g / cm^3
# Si number density = 26.429789 Si / 1000 Ang^3
#
#
#
# Elastic Constant Matrix: (Units=GPa)
#
#
# Indices 1 2 3 4 5 6 
#
# 1 169.8121 49.5713 40.7189 0.0000 0.0000 0.0000
# 2 49.5713 188.2729 86.5567 0.0000 0.0000 0.0000
# 3 40.7189 86.5567 159.9766 0.0000 0.0000 0.0000
# 4 0.0000 0.0000 0.0000 386.1650 0.0000 0.0000
# 5 0.0000 0.0000 0.0000 0.0000 16.1868 0.0000
# 6 0.0000 0.0000 0.0000 0.0000 0.0000 -0.1881
#
#
#
# Elastic Compliance Matrix: (Units=1/GPa)
#
#
# Indices 1 2 3 4 5 6 
#
# 1 0.006490 -0.001264 -0.000968 0.000000 0.000000 0.000000
# 2 -0.001264 0.007316 -0.003637 0.000000 0.000000 0.000000
# 3 -0.000968 -0.003637 0.008465 0.000000 0.000000 0.000000
# 4 0.000000 0.000000 0.000000 0.002590 0.000000 0.000000
# 5 0.000000 0.000000 0.000000 0.000000 0.061779 0.000000
# 6 0.000000 0.000000 0.000000 0.000000 0.000000 -5.317640
#
#
# Mechanical properties :
#
#
# Convention : Reuss Voigt Hill
#
# Bulk Modulus (GPa) = 94.93220 96.86173 95.89696
# Shear Modulus (GPa) = -0.95863 103.18038 51.11087
#
# Velocity S-wave (km/s) = -0.60291 6.25493 4.40231
# Velocity P-wave (km/s) = 5.95919 9.42835 7.88688
#
# Compressibility (1/GPa) = 0.01053383
#
# Stress axis : x y z
#
# Youngs Moduli (GPa) = 154.08558 136.68386 118.13233
#
# Poissons Ratio (x) = 0.17272 0.11437
# Poissons Ratio (y) = 0.19471 0.42963
# Poissons Ratio (z) = 0.14918 0.49710
#
# Static dielectric constant tensor:
#      x y z
#    x 2.114210 0.000000 0.000000 
#    y 0.000000 2.292660 0.000000 
#    z 0.000000 0.000000 2.032620 
# 
# From -- ./inp_files/6302.got.cif
#   From: 2010.05.17/outbox.cif.g08.bks.cpg/sg21_4_cif.got.tgz:6302.got - 2010.06.03 23:14:55.
