data_PCOD9324808
_publ_section_title
;
Structure prediction by ZEFSAII (Michael W. Deem and Ramdas Pophale) SiO2 
 PCOD9324808
Probable space group: C 2 2 2
;
_chemical_formula_sum "Si O2"
_cell_formula_units_Z 48
_cell_length_a 8.333613
_cell_length_b 30.281681
_cell_length_c 8.673839
_cell_angle_alpha 90.000000
_cell_angle_beta 90.000000
_cell_angle_gamma 90.000000
_cell_volume 2188.893671
_symmetry_space_group_name_H-M "C 2 2 2"
_symmetry_group_IT_number 21
_symmetry_cell_setting 'orthorhombic'
loop_
_space_group_symop_operation_xyz
x,y,z
-x,-y,z
x,-y,-z
-x,y,-z
1/2+x,1/2+y,z
1/2-x,1/2-y,z
1/2+x,1/2-y,-z
1/2-x,1/2+y,-z
loop_
_atom_site_type_symbol
_atom_site_label
_atom_site_fract_x
_atom_site_fract_y
_atom_site_fract_z
Si Si1 0.819038 0.996166 0.686308
Si Si2 0.057654 0.746270 0.673863
Si Si3 0.429843 0.155055 0.171724
Si Si4 0.891940 0.575127 0.366602
Si Si5 0.146281 0.095620 0.608261
Si Si6 0.541950 0.663040 0.174708
O O1 0.703530 0.037047 0.726548
O O2 0.817729 0.000000 0.500000
O O3 0.784129 0.944508 0.711047
O O4 0.000000 0.000000 0.747229
O O5 0.250000 0.750000 0.673797
O O6 0.009757 0.698507 0.738658
O O7 0.001148 0.786500 0.781039
O O8 0.000000 0.752558 0.500000
O O9 0.476854 0.109605 0.255094
O O10 0.234815 0.156328 0.181437
O O11 0.500000 0.156378 0.000000
O O12 0.776561 0.605474 0.476515
O O13 0.000000 0.553270 0.500000
O O14 0.000000 0.078296 0.500000
O O15 0.064118 0.133019 0.710352
O O16 0.500000 0.652806 0.000000
#
# Coordination Sequence:
#
# PCOD9324808 Si02
#       6
#     8   8   8   8   8   8
#     4   9  15  32  59  92 120 156 208 281 326 377
#     4  10  23  41  66  97 132 169 226 282 334 402
#     4  11  24  42  61  92 142 181 216 275 348 412
#     4  11  23  37  66 101 130 170 226 281 345 397
#     4  11  19  38  67  95 127 165 226 288 328 397
#     4  11  24  40  65  96 130 181 227 274 342 410
#
# _framework density 21.928887
#
# number of rings (size 3 to 8) (size 9 to 14) (size 15 to 20)
#    0.000    1.500    5.000    1.500    4.667    4.333 
#    0.000    0.000    0.000    6.500    0.000    0.000 
#    0.000    0.000    0.000    0.000    0.000    0.000 
#
# Total GULP energy -133833.373918 kJ/mol
# GULP energy per Si atom -5576.390580 kJ/mol
# Density = 2.187898 g / cm^3
# Si number density = 21.928887 Si / 1000 Ang^3
#
#
#
# Elastic Constant Matrix: (Units=GPa)
#
#
# Indices 1 2 3 4 5 6 
#
# 1 50.5274 32.1531 14.8078 0.0000 0.0000 0.0000
# 2 32.1531 143.4109 26.9136 0.0000 0.0000 0.0000
# 3 14.8078 26.9136 61.5074 0.0000 0.0000 0.0000
# 4 0.0000 0.0000 0.0000 -6.1971 0.0000 0.0000
# 5 0.0000 0.0000 0.0000 0.0000 31.3229 0.0000
# 6 0.0000 0.0000 0.0000 0.0000 0.0000 17.5694
#
#
#
# Elastic Compliance Matrix: (Units=1/GPa)
#
#
# Indices 1 2 3 4 5 6 
#
# 1 0.023835 -0.004649 -0.003704 0.000000 0.000000 0.000000
# 2 -0.004649 0.008503 -0.002602 0.000000 0.000000 0.000000
# 3 -0.003704 -0.002602 0.018288 0.000000 0.000000 0.000000
# 4 0.000000 0.000000 0.000000 -0.161365 0.000000 0.000000
# 5 0.000000 0.000000 0.000000 0.000000 0.031926 0.000000
# 6 0.000000 0.000000 0.000000 0.000000 0.000000 0.056917
#
#
# Mechanical properties :
#
#
# Convention : Reuss Voigt Hill
#
# Bulk Modulus (GPa) = 34.82158 44.79941 39.81049
# Shear Modulus (GPa) = 521.56581 20.64377 271.10479
#
# Velocity S-wave (km/s) = 15.43893 3.07155 11.13092
# Velocity P-wave (km/s) = 18.26822 5.74917 13.54217
#
# Compressibility (1/GPa) = 0.02871783
#
# Stress axis : x y z
#
# Youngs Moduli (GPa) = 41.95515 117.59904 54.67960
#
# Poissons Ratio (x) = 0.54669 0.20254
# Poissons Ratio (y) = 0.19504 0.14226
# Poissons Ratio (z) = 0.15541 0.30595
#
# Static dielectric constant tensor:
#      x y z
#    x 1.947050 0.000000 0.000000 
#    y 0.000000 1.855310 0.000000 
#    z 0.000000 0.000000 1.747340 
# 
# From -- ./inp_files/11544.got.cif
#   From: 2010.05.17/outbox.cif.g08.bks.cpg/sg21_6_cif.got.tgz:11544.got - 2010.06.03 23:14:55.
