data_PCOD9324316
_publ_section_title
;
Structure prediction by ZEFSAII (Michael W. Deem and Ramdas Pophale) SiO2 
 PCOD9324316
Probable space group: C 2 2 2
;
_chemical_formula_sum "Si O2"
_cell_formula_units_Z 38
_cell_length_a 15.244327
_cell_length_b 23.758915
_cell_length_c 4.997220
_cell_angle_alpha 90.000000
_cell_angle_beta 90.000000
_cell_angle_gamma 90.000000
_cell_volume 1809.936463
_symmetry_space_group_name_H-M "C 2 2 2"
_symmetry_group_IT_number 21
_symmetry_cell_setting 'orthorhombic'
loop_
_space_group_symop_operation_xyz
x,y,z
-x,-y,z
x,-y,-z
-x,y,-z
1/2+x,1/2+y,z
1/2-x,1/2-y,z
1/2+x,1/2-y,-z
1/2-x,1/2+y,-z
loop_
_atom_site_type_symbol
_atom_site_label
_atom_site_fract_x
_atom_site_fract_y
_atom_site_fract_z
Si Si1 0.594861 0.894090 0.940198
Si Si2 0.589518 0.301299 0.082223
Si Si3 0.000000 0.500000 0.000000
Si Si4 0.593330 0.377740 0.578533
Si Si5 0.712028 0.870116 0.443209
Si Si6 0.250000 0.250000 0.186973
O O1 0.657030 0.869452 0.714477
O O2 0.500000 0.865657 0.000000
O O3 0.562698 0.956352 0.847207
O O4 0.651541 0.896315 0.210786
O O5 0.592124 0.356089 0.884157
O O6 0.669056 0.263079 0.003400
O O7 0.500000 0.272004 0.000000
O O8 0.590410 0.323279 0.382288
O O9 0.500000 0.407262 0.500000
O O10 0.692187 0.400259 0.530608
O O11 0.731534 0.805939 0.355562
#
# Coordination Sequence:
#
# PCOD9324316 Si02
#       6
#     8   8   2   8   8   4
#     4  10  23  41  64  91 119 152 207 266 327 377
#     4   9  18  32  48  67 101 159 207 236 284 333
#     4   8  24  46  72  90 126 150 212 286 336 364
#     4   9  18  33  52  75 107 150 203 240 272 350
#     4  11  21  36  58  88 120 163 203 245 308 383
#     4  10  22  34  52  80 126 162 200 250 296 366
#
# _framework density 20.995211000000001
#
# number of rings (size 3 to 8) (size 9 to 14) (size 15 to 20)
#    0.632    1.684    0.000    3.158    0.000   10.105 
#    0.000   14.737    0.000    0.000    0.000    4.421 
#    0.000    0.000    0.000    0.000    0.000    0.000 
#
# Total GULP energy -105838.226019 kJ/mol
# GULP energy per Si atom -5570.432948 kJ/mol
# Density = 2.094743 g / cm^3
# Si number density = 20.995211 Si / 1000 Ang^3
#
#
#
# Elastic Constant Matrix: (Units=GPa)
#
#
# Indices 1 2 3 4 5 6 
#
# 1 215.2347 -1.2597 41.1232 0.0000 0.0000 0.0000
# 2 -1.2597 32.5962 -4.9121 0.0000 0.0000 0.0000
# 3 41.1232 -4.9121 86.6966 0.0000 0.0000 0.0000
# 4 0.0000 0.0000 0.0000 17.4304 0.0000 0.0000
# 5 0.0000 0.0000 0.0000 0.0000 38.9442 0.0000
# 6 0.0000 0.0000 0.0000 0.0000 0.0000 17.4839
#
#
#
# Elastic Compliance Matrix: (Units=1/GPa)
#
#
# Indices 1 2 3 4 5 6 
#
# 1 0.005110 -0.000169 -0.002433 0.000000 0.000000 0.000000
# 2 -0.000169 0.030948 0.001834 0.000000 0.000000 0.000000
# 3 -0.002433 0.001834 0.012793 0.000000 0.000000 0.000000
# 4 0.000000 0.000000 0.000000 0.057371 0.000000 0.000000
# 5 0.000000 0.000000 0.000000 0.000000 0.025678 0.000000
# 6 0.000000 0.000000 0.000000 0.000000 0.000000 0.057196
#
#
# Mechanical properties :
#
#
# Convention : Reuss Voigt Hill
#
# Bulk Modulus (GPa) = 21.13582 44.93670 33.03626
# Shear Modulus (GPa) = 24.22431 34.74343 29.48387
#
# Velocity S-wave (km/s) = 3.40045 4.07237 3.75148
# Velocity P-wave (km/s) = 5.05037 6.60015 5.87658
#
# Compressibility (1/GPa) = 0.04731304
#
# Stress axis : x y z
#
# Youngs Moduli (GPa) = 195.69304 32.31202 78.16991
#
# Poissons Ratio (x) = 0.00547 0.19022
# Poissons Ratio (y) = 0.03312 -0.14334
# Poissons Ratio (z) = 0.47621 -0.05925
#
# Static dielectric constant tensor:
#      x y z
#    x 1.843680 0.000000 0.000000 
#    y 0.000000 1.747380 0.000000 
#    z 0.000000 0.000000 1.738270 
# 
# From -- ./inp_files/3980.got.cif
#   From: 2010.05.17/outbox.cif.g08.bks.cpg/sg21_2_cif.got.tgz:3980.got - 2010.06.03 23:14:55.
