data_PCOD9324311
_publ_section_title
;
Structure prediction by ZEFSAII (Michael W. Deem and Ramdas Pophale) SiO2 
 PCOD9324311
Probable space group: C 2 2 2
;
_chemical_formula_sum "Si O2"
_cell_formula_units_Z 64
_cell_length_a 13.743402
_cell_length_b 20.622118
_cell_length_c 9.140901
_cell_angle_alpha 90.000000
_cell_angle_beta 90.000000
_cell_angle_gamma 90.000000
_cell_volume 2590.696408
_symmetry_space_group_name_H-M "C 2 2 2"
_symmetry_group_IT_number 21
_symmetry_cell_setting 'orthorhombic'
loop_
_space_group_symop_operation_xyz
x,y,z
-x,-y,z
x,-y,-z
-x,y,-z
1/2+x,1/2+y,z
1/2-x,1/2-y,z
1/2+x,1/2-y,-z
1/2-x,1/2+y,-z
loop_
_atom_site_type_symbol
_atom_site_label
_atom_site_fract_x
_atom_site_fract_y
_atom_site_fract_z
Si Si1 0.009622 0.424903 0.834438
Si Si2 0.734846 0.322651 0.939039
Si Si3 0.085097 0.885163 0.320667
Si Si4 0.404836 0.437703 0.121074
Si Si5 0.302764 0.562218 0.575780
Si Si6 0.194312 0.627277 0.214544
Si Si7 0.866889 0.256412 0.404982
Si Si8 0.644842 0.842327 0.342866
O O1 0.113819 0.424072 0.753179
O O2 0.000000 0.500000 0.852140
O O3 0.933331 0.388320 0.731984
O O4 0.000000 0.396445 0.000000
O O5 0.750000 0.250000 0.004471
O O6 0.635023 0.365983 0.932505
O O7 0.784941 0.316303 0.783328
O O8 0.799241 0.367984 0.040441
O O9 0.102768 0.918198 0.479468
O O10 0.195392 0.886201 0.257774
O O11 0.076928 0.808088 0.354274
O O12 0.007016 0.918856 0.209535
O O13 0.333076 0.452321 0.257149
O O14 0.402101 0.500000 0.000000
O O15 0.261082 0.500000 0.500000
O O16 0.221885 0.616990 0.562747
O O17 0.142050 0.691888 0.275199
O O18 0.750000 0.250000 0.436213
O O19 0.902110 0.287646 0.556611
#
# Coordination Sequence:
#
# PCOD9324311 Si02
#       8
#     8   8   8   8   8   8   8   8
#     4  11  26  48  72 109 160 210 274 343 420 498
#     4  11  25  46  80 114 160 208 277 348 414 502
#     4  11  25  51  80 115 165 218 272 351 430 514
#     4  11  29  52  77 124 165 225 290 346 426 530
#     4  11  26  50  78 109 160 214 266 342 422 510
#     4  11  24  48  74 110 154 211 267 346 429 502
#     4  10  21  45  80 110 158 201 261 334 429 502
#     4  11  23  45  78 117 148 205 270 340 423 512
#
# _framework density 24.703782
#
# number of rings (size 3 to 8) (size 9 to 14) (size 15 to 20)
#    0.000    1.125    3.750    1.875    5.250    4.000 
#    9.000    0.625    0.000    0.000    0.000    0.000 
#    0.000    0.000    0.000    0.000    0.000    0.000 
#
# Total GULP energy -178275.135416 kJ/mol
# GULP energy per Si atom -5571.097982 kJ/mol
# Density = 2.464756 g / cm^3
# Si number density = 24.703782 Si / 1000 Ang^3
#
#
#
# Elastic Constant Matrix: (Units=GPa)
#
#
# Indices 1 2 3 4 5 6 
#
# 1 111.7224 46.4376 37.3565 0.0000 0.0000 0.0000
# 2 46.4376 113.8378 43.2982 0.0000 0.0000 0.0000
# 3 37.3565 43.2982 107.8335 0.0000 0.0000 0.0000
# 4 0.0000 0.0000 0.0000 42.9199 0.0000 0.0000
# 5 0.0000 0.0000 0.0000 0.0000 48.0495 0.0000
# 6 0.0000 0.0000 0.0000 0.0000 0.0000 28.4891
#
#
#
# Elastic Compliance Matrix: (Units=1/GPa)
#
#
# Indices 1 2 3 4 5 6 
#
# 1 0.011295 -0.003682 -0.002435 0.000000 0.000000 0.000000
# 2 -0.003682 0.011568 -0.003369 0.000000 0.000000 0.000000
# 3 -0.002435 -0.003369 0.011470 0.000000 0.000000 0.000000
# 4 0.000000 0.000000 0.000000 0.023299 0.000000 0.000000
# 5 0.000000 0.000000 0.000000 0.000000 0.020812 0.000000
# 6 0.000000 0.000000 0.000000 0.000000 0.000000 0.035101
#
#
# Mechanical properties :
#
#
# Convention : Reuss Voigt Hill
#
# Bulk Modulus (GPa) = 65.09775 65.28645 65.19210
# Shear Modulus (GPa) = 36.32751 37.64513 36.98632
#
# Velocity S-wave (km/s) = 3.83890 3.90790 3.87355
# Velocity P-wave (km/s) = 6.78661 6.84451 6.81562
#
# Compressibility (1/GPa) = 0.01536151
#
# Stress axis : x y z
#
# Youngs Moduli (GPa) = 88.53418 86.44699 87.18467
#
# Poissons Ratio (x) = 0.31826 0.21227
# Poissons Ratio (y) = 0.32594 0.29376
# Poissons Ratio (z) = 0.21555 0.29127
#
# Static dielectric constant tensor:
#      x y z
#    x 2.006680 0.000000 0.000000 
#    y 0.000000 1.960170 0.000000 
#    z 0.000000 0.000000 1.996450 
# 
# From -- ./inp_files/16852.got.cif
#   From: 2010.05.17/outbox.cif.g08.bks.cpg/sg21_9_cif.got.tgz:16852.got - 2010.06.03 23:14:55.
