data_PCOD9324516
_publ_section_title
;
Structure prediction by ZEFSAII (Michael W. Deem and Ramdas Pophale) SiO2 
 PCOD9324516
Probable space group: C 2 2 2
;
_chemical_formula_sum "Si O2"
_cell_formula_units_Z 30
_cell_length_a 16.547277
_cell_length_b 15.126744
_cell_length_c 5.416214
_cell_angle_alpha 90.000000
_cell_angle_beta 90.000000
_cell_angle_gamma 90.000000
_cell_volume 1355.713153
_symmetry_space_group_name_H-M "C 2 2 2"
_symmetry_group_IT_number 21
_symmetry_cell_setting 'orthorhombic'
loop_
_space_group_symop_operation_xyz
x,y,z
-x,-y,z
x,-y,-z
-x,y,-z
1/2+x,1/2+y,z
1/2-x,1/2-y,z
1/2+x,1/2-y,-z
1/2-x,1/2+y,-z
loop_
_atom_site_type_symbol
_atom_site_label
_atom_site_fract_x
_atom_site_fract_y
_atom_site_fract_z
Si Si1 0.166937 0.606111 0.510100
Si Si2 0.500000 0.500000 0.500000
Si Si3 0.241729 0.107653 0.993777
Si Si4 0.567943 0.355570 0.181222
Si Si5 0.000000 0.300114 0.500000
O O1 0.164132 0.500000 0.500000
O O2 0.202618 0.632934 0.242287
O O3 0.077606 0.641982 0.564868
O O4 0.222483 0.634006 0.741137
O O5 0.564718 0.430107 0.389021
O O6 0.154090 0.148697 0.945440
O O7 0.234177 0.000000 0.000000
O O8 0.533404 0.264586 0.287395
O O9 0.500000 0.391626 0.000000
#
# Coordination Sequence:
#
# PCOD9324516 Si02
#       5
#     8   2   8   8   4
#     4  10  24  46  73 100 134 186 237 291 334 417
#     4  10  22  40  70  98 134 190 228 280 342 426
#     4  10  23  43  73 100 131 177 237 286 344 406
#     4  11  25  42  67 101 141 183 225 290 348 429
#     4  11  27  45  65 104 142 184 235 283 369 405
#
# _framework density 22.128574
#
# number of rings (size 3 to 8) (size 9 to 14) (size 15 to 20)
#    0.000    1.600    0.000    2.400   16.800    1.067 
#    0.000    4.000    0.000    0.000    0.000    0.000 
#    0.000    0.000    0.000    0.000    0.000    0.000 
#
# Total GULP energy -83807.473600 kJ/mol
# GULP energy per Si atom -5587.164907 kJ/mol
# Density = 2.207821 g / cm^3
# Si number density = 22.128574 Si / 1000 Ang^3
#
#
#
# Elastic Constant Matrix: (Units=GPa)
#
#
# Indices 1 2 3 4 5 6 
#
# 1 186.9927 45.0050 65.9203 0.0000 0.0000 0.0000
# 2 45.0050 52.0362 33.9241 0.0000 0.0000 0.0000
# 3 65.9203 33.9241 112.6621 0.0000 0.0000 0.0000
# 4 0.0000 0.0000 0.0000 5.9977 0.0000 0.0000
# 5 0.0000 0.0000 0.0000 0.0000 21.6694 0.0000
# 6 0.0000 0.0000 0.0000 0.0000 0.0000 32.2007
#
#
#
# Elastic Compliance Matrix: (Units=1/GPa)
#
#
# Indices 1 2 3 4 5 6 
#
# 1 0.007502 -0.004513 -0.003031 0.000000 0.000000 0.000000
# 2 -0.004513 0.026626 -0.005377 0.000000 0.000000 0.000000
# 3 -0.003031 -0.005377 0.012269 0.000000 0.000000 0.000000
# 4 0.000000 0.000000 0.000000 0.166731 0.000000 0.000000
# 5 0.000000 0.000000 0.000000 0.000000 0.046148 0.000000
# 6 0.000000 0.000000 0.000000 0.000000 0.000000 0.031055
#
#
# Mechanical properties :
#
#
# Convention : Reuss Voigt Hill
#
# Bulk Modulus (GPa) = 48.64852 71.26555 59.95703
# Shear Modulus (GPa) = 15.47872 25.76301 20.62087
#
# Velocity S-wave (km/s) = 2.64766 3.41580 3.05596
# Velocity P-wave (km/s) = 5.60170 6.91607 6.29329
#
# Compressibility (1/GPa) = 0.02055561
#
# Stress axis : x y z
#
# Youngs Moduli (GPa) = 133.29071 37.55772 81.50886
#
# Poissons Ratio (x) = 0.16949 0.24705
# Poissons Ratio (y) = 0.60150 0.43827
# Poissons Ratio (z) = 0.40400 0.20194
#
# Static dielectric constant tensor:
#      x y z
#    x 1.753910 0.000000 0.000000 
#    y 0.000000 1.833600 0.000000 
#    z 0.000000 0.000000 1.851930 
# 
# From -- ./inp_files/4611.got.cif
#   From: 2010.05.17/outbox.cif.g08.bks.cpg/sg21_3_cif.got.tgz:4611.got - 2010.06.03 23:14:55.
