data_PCOD9324989
_publ_section_title
;
Structure prediction by ZEFSAII (Michael W. Deem and Ramdas Pophale) SiO2 
 PCOD9324989
Probable space group: C 2 2 2
;
_chemical_formula_sum "Si O2"
_cell_formula_units_Z 38
_cell_length_a 19.901945
_cell_length_b 11.077413
_cell_length_c 8.456826
_cell_angle_alpha 90.000000
_cell_angle_beta 90.000000
_cell_angle_gamma 90.000000
_cell_volume 1864.409317
_symmetry_space_group_name_H-M "C 2 2 2"
_symmetry_group_IT_number 21
_symmetry_cell_setting 'orthorhombic'
loop_
_space_group_symop_operation_xyz
x,y,z
-x,-y,z
x,-y,-z
-x,y,-z
1/2+x,1/2+y,z
1/2-x,1/2-y,z
1/2+x,1/2-y,-z
1/2-x,1/2+y,-z
loop_
_atom_site_type_symbol
_atom_site_label
_atom_site_fract_x
_atom_site_fract_y
_atom_site_fract_z
Si Si1 0.268427 0.500000 0.500000
Si Si2 0.318888 0.190732 0.892638
Si Si3 0.882800 0.148891 0.332600
Si Si4 0.500000 0.500000 0.500000
Si Si5 0.423375 0.138924 0.457965
Si Si6 0.327310 0.081768 0.228937
O O1 0.319083 0.568940 0.381884
O O2 0.222327 0.419856 0.381202
O O3 0.250000 0.250000 0.831632
O O4 0.374253 0.290722 0.840730
O O5 0.334093 0.059578 0.816977
O O6 0.306754 0.156709 0.075396
O O7 0.949982 0.077043 0.386017
O O8 0.881267 0.265647 0.444913
O O9 0.500000 0.164041 0.500000
O O10 0.398371 0.140611 0.279306
O O11 0.411309 0.000000 0.500000
#
# Coordination Sequence:
#
# PCOD9324989 Si02
#       6
#     4   8   8   2   8   8
#     4  11  22  39  69 100 129 182 230 272 337 412
#     4  11  23  41  62  98 148 169 213 290 349 401
#     4  11  22  42  67  96 135 176 232 284 328 404
#     4  10  24  44  74  94 130 188 244 270 330 412
#     4  11  22  39  67  94 128 174 230 275 321 396
#     4  11  23  39  65 102 132 176 222 276 350 397
#
# _framework density 20.381789000000001
#
# number of rings (size 3 to 8) (size 9 to 14) (size 15 to 20)
#    0.000    1.053    6.316    0.000    2.947    0.000 
#    0.000    1.053    0.000    1.263    0.000    0.000 
#    0.000    0.000    0.000    0.000    0.000    0.000 
#
# Total GULP energy -105781.730344 kJ/mol
# GULP energy per Si atom -5567.459492 kJ/mol
# Density = 2.033540 g / cm^3
# Si number density = 20.381789 Si / 1000 Ang^3
#
#
#
# Elastic Constant Matrix: (Units=GPa)
#
#
# Indices 1 2 3 4 5 6 
#
# 1 107.4554 40.0683 40.5286 0.0000 0.0000 0.0000
# 2 40.0683 82.6564 32.6738 0.0000 0.0000 0.0000
# 3 40.5286 32.6738 79.7778 0.0000 0.0000 0.0000
# 4 0.0000 0.0000 0.0000 34.4228 0.0000 0.0000
# 5 0.0000 0.0000 0.0000 0.0000 20.4579 0.0000
# 6 0.0000 0.0000 0.0000 0.0000 0.0000 14.3057
#
#
#
# Elastic Compliance Matrix: (Units=1/GPa)
#
#
# Indices 1 2 3 4 5 6 
#
# 1 0.012672 -0.004293 -0.004679 0.000000 0.000000 0.000000
# 2 -0.004293 0.015890 -0.004327 0.000000 0.000000 0.000000
# 3 -0.004679 -0.004327 0.016684 0.000000 0.000000 0.000000
# 4 0.000000 0.000000 0.000000 0.029051 0.000000 0.000000
# 5 0.000000 0.000000 0.000000 0.000000 0.048881 0.000000
# 6 0.000000 0.000000 0.000000 0.000000 0.000000 0.069902
#
#
# Mechanical properties :
#
#
# Convention : Reuss Voigt Hill
#
# Bulk Modulus (GPa) = 53.62702 55.15899 54.39301
# Shear Modulus (GPa) = 22.13434 24.27855 23.20644
#
# Velocity S-wave (km/s) = 3.29901 3.45510 3.37796
# Velocity P-wave (km/s) = 6.39372 6.56038 6.47759
#
# Compressibility (1/GPa) = 0.01864732
#
# Stress axis : x y z
#
# Youngs Moduli (GPa) = 78.91497 62.93357 59.93742
#
# Poissons Ratio (x) = 0.27018 0.28046
# Poissons Ratio (y) = 0.33879 0.25934
# Poissons Ratio (z) = 0.36926 0.27230
#
# Static dielectric constant tensor:
#      x y z
#    x 1.840640 0.000000 0.000000 
#    y 0.000000 1.719470 0.000000 
#    z 0.000000 0.000000 1.808000 
# 
# From -- ./inp_files/17392.got.cif
#   From: 2010.05.17/outbox.cif.g08.bks.cpg/sg21_9_cif.got.tgz:17392.got - 2010.06.03 23:14:55.
