data_PCOD9324634
_publ_section_title
;
Structure prediction by ZEFSAII (Michael W. Deem and Ramdas Pophale) SiO2 
 PCOD9324634
Probable space group: C 2 2 2
;
_chemical_formula_sum "Si O2"
_cell_formula_units_Z 44
_cell_length_a 14.346804
_cell_length_b 16.026990
_cell_length_c 9.506618
_cell_angle_alpha 90.000000
_cell_angle_beta 90.000000
_cell_angle_gamma 90.000000
_cell_volume 2185.914517
_symmetry_space_group_name_H-M "C 2 2 2"
_symmetry_group_IT_number 21
_symmetry_cell_setting 'orthorhombic'
loop_
_space_group_symop_operation_xyz
x,y,z
-x,-y,z
x,-y,-z
-x,y,-z
1/2+x,1/2+y,z
1/2-x,1/2-y,z
1/2+x,1/2-y,-z
1/2-x,1/2+y,-z
loop_
_atom_site_type_symbol
_atom_site_label
_atom_site_fract_x
_atom_site_fract_y
_atom_site_fract_z
Si Si1 0.168077 0.845733 0.353809
Si Si2 0.802539 0.333428 0.102745
Si Si3 0.521102 0.262549 0.152075
Si Si4 0.390330 0.483601 0.291446
Si Si5 0.787109 0.000000 0.000000
Si Si6 0.151543 0.789394 0.661113
O O1 0.262618 0.839189 0.262906
O O2 0.087273 0.821597 0.243894
O O3 0.151362 0.788582 0.490195
O O4 0.155797 0.943367 0.384661
O O5 0.750000 0.250000 0.045201
O O6 0.912073 0.315161 0.112857
O O7 0.774035 0.415719 0.017864
O O8 0.430530 0.246906 0.247610
O O9 0.500000 0.302405 0.000000
O O10 0.500000 0.500000 0.304850
O O11 0.352283 0.499513 0.135357
O O12 0.362713 0.387880 0.314122
O O13 0.250000 0.750000 0.703775
#
# Coordination Sequence:
#
# PCOD9324634 Si02
#       6
#     8   8   8   8   4   8
#     4  10  22  43  63  93 131 175 215 284 346 404
#     4   9  21  40  65  90 135 171 222 270 341 398
#     4  11  24  37  64  93 131 170 218 278 323 401
#     4  11  23  36  64  98 133 165 221 279 337 402
#     4  10  23  38  67  94 132 178 212 275 347 400
#     4  12  26  39  65  96 133 175 223 274 347 413
#
# _framework density 20.128874
#
# number of rings (size 3 to 8) (size 9 to 14) (size 15 to 20)
#    0.000    1.455    1.818    3.000   10.182    0.727 
#    0.000    0.455    0.000    0.000    0.000    0.000 
#    0.000    0.000    0.000    0.000    0.000    0.000 
#
# Total GULP energy -122710.844255 kJ/mol
# GULP energy per Si atom -5577.765648 kJ/mol
# Density = 2.008306 g / cm^3
# Si number density = 20.128874 Si / 1000 Ang^3
#
#
#
# Elastic Constant Matrix: (Units=GPa)
#
#
# Indices 1 2 3 4 5 6 
#
# 1 122.2023 42.7067 41.2394 0.0000 0.0000 0.0000
# 2 42.7067 112.7939 11.8066 0.0000 0.0000 0.0000
# 3 41.2394 11.8066 107.3988 0.0000 0.0000 0.0000
# 4 0.0000 0.0000 0.0000 33.2231 0.0000 0.0000
# 5 0.0000 0.0000 0.0000 0.0000 34.2809 0.0000
# 6 0.0000 0.0000 0.0000 0.0000 0.0000 33.9168
#
#
#
# Elastic Compliance Matrix: (Units=1/GPa)
#
#
# Indices 1 2 3 4 5 6 
#
# 1 0.010718 -0.003670 -0.003712 0.000000 0.000000 0.000000
# 2 -0.003670 0.010225 0.000285 0.000000 0.000000 0.000000
# 3 -0.003712 0.000285 0.010705 0.000000 0.000000 0.000000
# 4 0.000000 0.000000 0.000000 0.030100 0.000000 0.000000
# 5 0.000000 0.000000 0.000000 0.000000 0.029171 0.000000
# 6 0.000000 0.000000 0.000000 0.000000 0.000000 0.029484
#
#
# Mechanical properties :
#
#
# Convention : Reuss Voigt Hill
#
# Bulk Modulus (GPa) = 57.29006 59.32226 58.30616
# Shear Modulus (GPa) = 35.60865 36.72699 36.16782
#
# Velocity S-wave (km/s) = 4.21055 4.27616 4.24348
# Velocity P-wave (km/s) = 7.22231 7.34275 7.28278
#
# Compressibility (1/GPa) = 0.01745503
#
# Stress axis : x y z
#
# Youngs Moduli (GPa) = 93.29766 97.79635 93.41246
#
# Poissons Ratio (x) = 0.35888 0.34677
# Poissons Ratio (y) = 0.34237 -0.02662
# Poissons Ratio (z) = 0.34635 -0.02787
#
# Static dielectric constant tensor:
#      x y z
#    x 1.743000 0.000000 0.000000 
#    y 0.000000 1.731030 0.000000 
#    z 0.000000 0.000000 1.790260 
# 
# From -- ./inp_files/14881.got.cif
#   From: 2010.05.17/outbox.cif.g08.bks.cpg/sg21_8_cif.got.tgz:14881.got - 2010.06.03 23:14:55.
