data_PCOD9324856
_publ_section_title
;
Structure prediction by ZEFSAII (Michael W. Deem and Ramdas Pophale) SiO2 
 PCOD9324856
Probable space group: C 2 2 2
;
_chemical_formula_sum "Si O2"
_cell_formula_units_Z 40
_cell_length_a 8.399488
_cell_length_b 15.699439
_cell_length_c 13.375860
_cell_angle_alpha 90.000000
_cell_angle_beta 90.000000
_cell_angle_gamma 90.000000
_cell_volume 1763.837868
_symmetry_space_group_name_H-M "C 2 2 2"
_symmetry_group_IT_number 21
_symmetry_cell_setting 'orthorhombic'
loop_
_space_group_symop_operation_xyz
x,y,z
-x,-y,z
x,-y,-z
-x,y,-z
1/2+x,1/2+y,z
1/2-x,1/2-y,z
1/2+x,1/2-y,-z
1/2-x,1/2+y,-z
loop_
_atom_site_type_symbol
_atom_site_label
_atom_site_fract_x
_atom_site_fract_y
_atom_site_fract_z
Si Si1 0.380364 0.574034 0.699568
Si Si2 0.558252 0.095119 0.609869
Si Si3 0.189931 0.485785 0.880667
Si Si4 0.363176 0.682475 0.069072
Si Si5 0.441714 0.246856 0.242170
O O1 0.500000 0.500000 0.675724
O O2 0.247560 0.587843 0.616429
O O3 0.288122 0.546771 0.803892
O O4 0.473412 0.662076 0.707866
O O5 0.500000 0.118288 0.500000
O O6 0.513461 0.166378 0.690821
O O7 0.500000 0.000000 0.633830
O O8 0.266107 0.391152 0.873631
O O9 0.000000 0.500000 0.862265
O O10 0.210715 0.500000 0.000000
O O11 0.250000 0.750000 0.012343
O O12 0.458697 0.745522 0.142223
O O13 0.500000 0.642084 0.000000
O O14 0.250000 0.250000 0.227604
#
# Coordination Sequence:
#
# PCOD9324856 Si02
#       5
#     8   8   8   8   8
#     4  11  22  43  74 110 145 190 248 316 380 449
#     4  10  24  48  76  99 140 191 244 313 388 460
#     4  11  26  43  72 106 154 209 255 300 374 454
#     4  12  27  42  67 110 155 202 254 311 367 455
#     4  10  23  43  73 104 146 190 243 313 375 449
#
# _framework density 22.677820000000001
#
# number of rings (size 3 to 8) (size 9 to 14) (size 15 to 20)
#    0.000    1.200    2.000    2.400   11.200    0.000 
#    0.000   17.000    0.000    0.000    0.000    0.000 
#    0.000    0.000    0.000    0.000    0.000    0.000 
#
# Total GULP energy -111712.017357 kJ/mol
# GULP energy per Si atom -5585.600868 kJ/mol
# Density = 2.262620 g / cm^3
# Si number density = 22.677820 Si / 1000 Ang^3
#
#
#
# Elastic Constant Matrix: (Units=GPa)
#
#
# Indices 1 2 3 4 5 6 
#
# 1 79.2018 37.7603 48.9715 0.0000 0.0000 0.0000
# 2 37.7603 133.7701 32.9396 0.0000 0.0000 0.0000
# 3 48.9715 32.9396 117.2313 0.0000 0.0000 0.0000
# 4 0.0000 0.0000 0.0000 16.3684 0.0000 0.0000
# 5 0.0000 0.0000 0.0000 0.0000 25.1178 0.0000
# 6 0.0000 0.0000 0.0000 0.0000 0.0000 46.1651
#
#
#
# Elastic Compliance Matrix: (Units=1/GPa)
#
#
# Indices 1 2 3 4 5 6 
#
# 1 0.018478 -0.003562 -0.006718 0.000000 0.000000 0.000000
# 2 -0.003562 0.008718 -0.000962 0.000000 0.000000 0.000000
# 3 -0.006718 -0.000962 0.011607 0.000000 0.000000 0.000000
# 4 0.000000 0.000000 0.000000 0.061093 0.000000 0.000000
# 5 0.000000 0.000000 0.000000 0.000000 0.039812 0.000000
# 6 0.000000 0.000000 0.000000 0.000000 0.000000 0.021661
#
#
# Mechanical properties :
#
#
# Convention : Reuss Voigt Hill
#
# Bulk Modulus (GPa) = 61.27637 63.28288 62.27963
# Shear Modulus (GPa) = 26.41421 31.56572 28.98997
#
# Velocity S-wave (km/s) = 3.41656 3.73489 3.57927
# Velocity P-wave (km/s) = 6.53015 6.82385 6.67862
#
# Compressibility (1/GPa) = 0.01631951
#
# Stress axis : x y z
#
# Youngs Moduli (GPa) = 54.11871 114.70935 86.15683
#
# Poissons Ratio (x) = 0.40855 0.57881
# Poissons Ratio (y) = 0.19275 0.08286
# Poissons Ratio (z) = 0.36358 0.11031
#
# Static dielectric constant tensor:
#      x y z
#    x 2.031420 0.000000 0.000000 
#    y 0.000000 1.966090 0.000000 
#    z 0.000000 0.000000 1.845560 
# 
# From -- ./inp_files/30170.got.cif
#   From: 2010.05.17/outbox.cif.g08.bks.cpg/sg21_16_cif.got.tgz:30170.got - 2010.06.03 23:14:55.
