data_PCOD9324573
_publ_section_title
;
Structure prediction by ZEFSAII (Michael W. Deem and Ramdas Pophale) SiO2 
 PCOD9324573
Probable space group: C 2 2 2
;
_chemical_formula_sum "Si O2"
_cell_formula_units_Z 34
_cell_length_a 7.980690
_cell_length_b 11.764701
_cell_length_c 18.320048
_cell_angle_alpha 90.000000
_cell_angle_beta 90.000000
_cell_angle_gamma 90.000000
_cell_volume 1720.077214
_symmetry_space_group_name_H-M "C 2 2 2"
_symmetry_group_IT_number 21
_symmetry_cell_setting 'orthorhombic'
loop_
_space_group_symop_operation_xyz
x,y,z
-x,-y,z
x,-y,-z
-x,y,-z
1/2+x,1/2+y,z
1/2-x,1/2-y,z
1/2+x,1/2-y,-z
1/2-x,1/2+y,-z
loop_
_atom_site_type_symbol
_atom_site_label
_atom_site_fract_x
_atom_site_fract_y
_atom_site_fract_z
Si Si1 0.000000 0.000000 0.000000
Si Si2 0.798471 0.483912 0.761418
Si Si3 0.252610 0.616793 0.606838
Si Si4 0.500000 0.000000 0.500000
Si Si5 0.000000 0.000000 0.500000
Si Si6 0.615166 0.652260 0.875193
Si Si7 0.250000 0.250000 0.155338
O O1 0.114839 0.071999 0.945551
O O2 0.745422 0.464060 0.677803
O O3 0.680485 0.574780 0.805618
O O4 0.780682 0.362498 0.798932
O O5 0.000000 0.500000 0.763452
O O6 0.250000 0.750000 0.626806
O O7 0.099051 0.581719 0.555048
O O8 0.403298 0.583444 0.554233
O O9 0.750000 0.750000 0.880614
O O10 0.430827 0.712623 0.878521
#
# Coordination Sequence:
#
# PCOD9324573 Si02
#       7
#     2   8   8   2   2   8   4
#     4  12  28  46  74 110 144 184 232 296 360 426
#     4  12  24  44  73 104 137 186 244 299 353 423
#     4  11  23  41  65  95 133 183 226 287 350 417
#     4  10  22  42  60  96 136 164 238 274 348 424
#     4  10  26  40  60  96 144 180 226 290 352 426
#     4  12  28  48  72 108 143 187 238 292 361 428
#     4  12  24  48  74 100 146 180 242 296 346 428
#
# _framework density 19.766553999999999
#
# number of rings (size 3 to 8) (size 9 to 14) (size 15 to 20)
#    0.000    0.471    7.059    0.706    4.941    0.000 
#    0.000    2.353    0.000    0.000    0.000    0.000 
#    0.000    0.000    0.000    0.000    0.000    0.000 
#
# Total GULP energy -94653.119751 kJ/mol
# GULP energy per Si atom -5567.830574 kJ/mol
# Density = 1.972156 g / cm^3
# Si number density = 19.766554 Si / 1000 Ang^3
#
#
#
# Elastic Constant Matrix: (Units=GPa)
#
#
# Indices 1 2 3 4 5 6 
#
# 1 127.2226 51.5944 61.2172 0.0000 0.0000 0.0000
# 2 51.5944 121.8177 59.9934 0.0000 0.0000 0.0000
# 3 61.2172 59.9934 152.2804 0.0000 0.0000 0.0000
# 4 0.0000 0.0000 0.0000 19.9208 0.0000 0.0000
# 5 0.0000 0.0000 0.0000 0.0000 35.8813 0.0000
# 6 0.0000 0.0000 0.0000 0.0000 0.0000 49.1281
#
#
#
# Elastic Compliance Matrix: (Units=1/GPa)
#
#
# Indices 1 2 3 4 5 6 
#
# 1 0.010535 -0.002948 -0.003074 0.000000 0.000000 0.000000
# 2 -0.002948 0.011010 -0.003152 0.000000 0.000000 0.000000
# 3 -0.003074 -0.003152 0.009044 0.000000 0.000000 0.000000
# 4 0.000000 0.000000 0.000000 0.050199 0.000000 0.000000
# 5 0.000000 0.000000 0.000000 0.000000 0.027870 0.000000
# 6 0.000000 0.000000 0.000000 0.000000 0.000000 0.020355
#
#
# Mechanical properties :
#
#
# Convention : Reuss Voigt Hill
#
# Bulk Modulus (GPa) = 81.69292 82.99230 82.34261
# Shear Modulus (GPa) = 33.01606 36.22043 34.61824
#
# Velocity S-wave (km/s) = 4.09136 4.28531 4.18946
# Velocity P-wave (km/s) = 7.98358 8.15859 8.07156
#
# Compressibility (1/GPa) = 0.01224096
#
# Stress axis : x y z
#
# Youngs Moduli (GPa) = 94.92360 90.82482 110.56613
#
# Poissons Ratio (x) = 0.26777 0.33983
# Poissons Ratio (y) = 0.27986 0.34856
# Poissons Ratio (z) = 0.29175 0.28632
#
# Static dielectric constant tensor:
#      x y z
#    x 1.815160 0.000000 0.000000 
#    y 0.000000 1.677580 0.000000 
#    z 0.000000 0.000000 1.685700 
# 
# From -- ./inp_files/35444.got.cif
#   From: 2010.05.17/outbox.cif.g08.bks.cpg/sg21_18_cif.got.tgz:35444.got - 2010.06.03 23:14:55.
