data_PCOD9324683
_publ_section_title
;
Structure prediction by ZEFSAII (Michael W. Deem and Ramdas Pophale) SiO2 
 PCOD9324683
Probable space group: C 2 2 2
;
_chemical_formula_sum "Si O2"
_cell_formula_units_Z 48
_cell_length_a 14.256402
_cell_length_b 5.376153
_cell_length_c 29.130166
_cell_angle_alpha 90.000000
_cell_angle_beta 90.000000
_cell_angle_gamma 90.000000
_cell_volume 2232.669874
_symmetry_space_group_name_H-M "C 2 2 2"
_symmetry_group_IT_number 21
_symmetry_cell_setting 'orthorhombic'
loop_
_space_group_symop_operation_xyz
x,y,z
-x,-y,z
x,-y,-z
-x,y,-z
1/2+x,1/2+y,z
1/2-x,1/2-y,z
1/2+x,1/2-y,-z
1/2-x,1/2+y,-z
loop_
_atom_site_type_symbol
_atom_site_label
_atom_site_fract_x
_atom_site_fract_y
_atom_site_fract_z
Si Si1 0.398620 0.123035 0.691931
Si Si2 0.750000 0.750000 0.530216
Si Si3 0.063544 0.754422 0.407552
Si Si4 0.640191 0.247950 0.022749
Si Si5 0.250000 0.250000 0.269924
Si Si6 0.057842 0.756309 0.119432
Si Si7 0.148415 0.120884 0.783452
O O1 0.394929 0.272707 0.644449
O O2 0.403157 0.271182 0.739331
O O3 0.500000 0.000000 0.688455
O O4 0.306865 0.946305 0.698713
O O5 0.747263 0.500000 0.500000
O O6 0.845906 0.742137 0.559846
O O7 0.000000 0.500000 0.411800
O O8 0.000000 0.000000 0.416201
O O9 0.750000 0.250000 0.011786
O O10 0.628866 0.226816 0.077351
O O11 0.602279 0.500000 0.000000
O O12 0.599959 0.000000 0.000000
O O13 0.328872 0.345373 0.234099
O O14 0.099854 0.829372 0.168719
O O15 0.000000 0.500000 0.123544
O O16 0.000000 0.000000 0.105478
O O17 0.250000 0.250000 0.785972
#
# Coordination Sequence:
#
# PCOD9324683 Si02
#       7
#     8   4   8   8   4   8   8
#     4  10  24  41  69  99 141 184 236 291 355 417
#     4  12  28  49  78 110 148 200 245 308 364 428
#     4  11  27  46  74 112 147 193 244 303 365 434
#     4  10  22  44  68  93 124 168 218 278 344 412
#     4  10  24  41  66 100 136 198 229 298 336 428
#     4  12  27  41  66  97 132 175 220 280 344 415
#     4  10  24  42  63  95 134 182 229 278 343 412
#
# _framework density 21.498926000000001
#
# number of rings (size 3 to 8) (size 9 to 14) (size 15 to 20)
#    0.000    1.333    0.000    3.000   15.167    4.667 
#    4.500    0.000    0.000    0.000    0.000    0.000 
#    0.000    0.000    0.000    0.000    0.000    0.000 
#
# Total GULP energy -133946.395199 kJ/mol
# GULP energy per Si atom -5581.099800 kJ/mol
# Density = 2.144999 g / cm^3
# Si number density = 21.498926 Si / 1000 Ang^3
#
#
#
# Elastic Constant Matrix: (Units=GPa)
#
#
# Indices 1 2 3 4 5 6 
#
# 1 95.3525 50.9401 44.9976 0.0000 0.0000 0.0000
# 2 50.9401 132.7128 50.2973 0.0000 0.0000 0.0000
# 3 44.9976 50.2973 141.5325 0.0000 0.0000 0.0000
# 4 0.0000 0.0000 0.0000 47.3688 0.0000 0.0000
# 5 0.0000 0.0000 0.0000 0.0000 38.4008 0.0000
# 6 0.0000 0.0000 0.0000 0.0000 0.0000 11.1556
#
#
#
# Elastic Compliance Matrix: (Units=1/GPa)
#
#
# Indices 1 2 3 4 5 6 
#
# 1 0.014202 -0.004322 -0.002979 0.000000 0.000000 0.000000
# 2 -0.004322 0.010023 -0.002188 0.000000 0.000000 0.000000
# 3 -0.002979 -0.002188 0.008790 0.000000 0.000000 0.000000
# 4 0.000000 0.000000 0.000000 0.021111 0.000000 0.000000
# 5 0.000000 0.000000 0.000000 0.000000 0.026041 0.000000
# 6 0.000000 0.000000 0.000000 0.000000 0.000000 0.089641
#
#
# Mechanical properties :
#
#
# Convention : Reuss Voigt Hill
#
# Bulk Modulus (GPa) = 71.24016 73.56308 72.40162
# Shear Modulus (GPa) = 25.84415 34.27590 30.06002
#
# Velocity S-wave (km/s) = 3.47091 3.99721 3.74332
# Velocity P-wave (km/s) = 7.01937 7.45620 7.24108
#
# Compressibility (1/GPa) = 0.01403703
#
# Stress axis : x y z
#
# Youngs Moduli (GPa) = 70.41024 99.76750 113.76223
#
# Poissons Ratio (x) = 0.43122 0.33894
# Poissons Ratio (y) = 0.30433 0.24890
# Poissons Ratio (z) = 0.20978 0.21828
#
# Static dielectric constant tensor:
#      x y z
#    x 1.599960 0.000000 0.000000 
#    y 0.000000 1.808980 0.000000 
#    z 0.000000 0.000000 1.751540 
# 
# From -- ./inp_files/39350.got.cif
#   From: 2010.05.17/outbox.cif.g08.bks.cpg/sg21_20_cif.got.tgz:39350.got - 2010.06.03 23:14:55.
