data_PCOD9324979
_publ_section_title
;
Structure prediction by ZEFSAII (Michael W. Deem and Ramdas Pophale) SiO2 
 PCOD9324979
Probable space group: C 2 2 2
;
_chemical_formula_sum "Si O2"
_cell_formula_units_Z 32
_cell_length_a 14.091949
_cell_length_b 5.587280
_cell_length_c 18.113522
_cell_angle_alpha 90.000000
_cell_angle_beta 90.000000
_cell_angle_gamma 90.000000
_cell_volume 1426.180197
_symmetry_space_group_name_H-M "C 2 2 2"
_symmetry_group_IT_number 21
_symmetry_cell_setting 'orthorhombic'
loop_
_space_group_symop_operation_xyz
x,y,z
-x,-y,z
x,-y,-z
-x,y,-z
1/2+x,1/2+y,z
1/2-x,1/2-y,z
1/2+x,1/2-y,-z
1/2-x,1/2+y,-z
loop_
_atom_site_type_symbol
_atom_site_label
_atom_site_fract_x
_atom_site_fract_y
_atom_site_fract_z
Si Si1 0.250000 0.250000 0.236868
Si Si2 0.602714 0.410155 0.158258
Si Si3 0.250000 0.750000 0.044726
Si Si4 0.397383 0.889539 0.307209
Si Si5 0.860938 0.752717 0.532019
O O1 0.324670 0.383336 0.183836
O O2 0.186685 0.424755 0.287657
O O3 0.500000 0.500000 0.133066
O O4 0.657467 0.257844 0.097089
O O5 0.589299 0.263070 0.233390
O O6 0.250399 0.500000 0.000000
O O7 0.370221 0.744438 0.379820
O O8 0.500000 0.000000 0.323047
O O9 0.898307 0.500000 0.500000
O O10 0.750000 0.750000 0.511648
O O11 0.899922 0.000000 0.500000
#
# Coordination Sequence:
#
# PCOD9324979 Si02
#       5
#     4   8   4   8   8
#     4  12  23  46  78 113 156 194 254 336 385 446
#     4  12  26  48  79 116 152 203 261 319 384 466
#     4  12  29  54  82 115 162 210 250 316 401 474
#     4  12  26  44  78 114 150 206 266 326 392 463
#     4  10  24  44  71 102 150 206 254 317 388 452
#
# _framework density 22.437559
#
# number of rings (size 3 to 8) (size 9 to 14) (size 15 to 20)
#    0.000    0.500    5.000    2.250    8.750    1.000 
#    0.000    5.000    0.000    0.000    0.000    0.000 
#    0.000    0.000    0.000    0.000    0.000    0.000 
#
# Total GULP energy -89553.958112 kJ/mol
# GULP energy per Si atom -5597.122382 kJ/mol
# Density = 2.238649 g / cm^3
# Si number density = 22.437559 Si / 1000 Ang^3
#
#
#
# Elastic Constant Matrix: (Units=GPa)
#
#
# Indices 1 2 3 4 5 6 
#
# 1 157.6573 35.8540 0.4432 0.0000 0.0000 0.0000
# 2 35.8540 115.3480 46.6158 0.0000 0.0000 0.0000
# 3 0.4432 46.6158 88.0362 0.0000 0.0000 0.0000
# 4 0.0000 0.0000 0.0000 45.8763 0.0000 0.0000
# 5 0.0000 0.0000 0.0000 0.0000 114.3463 0.0000
# 6 0.0000 0.0000 0.0000 0.0000 0.0000 19.1013
#
#
#
# Elastic Compliance Matrix: (Units=1/GPa)
#
#
# Indices 1 2 3 4 5 6 
#
# 1 0.006961 -0.002735 0.001413 0.000000 0.000000 0.000000
# 2 -0.002735 0.012104 -0.006395 0.000000 0.000000 0.000000
# 3 0.001413 -0.006395 0.014738 0.000000 0.000000 0.000000
# 4 0.000000 0.000000 0.000000 0.021798 0.000000 0.000000
# 5 0.000000 0.000000 0.000000 0.000000 0.008745 0.000000
# 6 0.000000 0.000000 0.000000 0.000000 0.000000 0.052353
#
#
# Mechanical properties :
#
#
# Convention : Reuss Voigt Hill
#
# Bulk Modulus (GPa) = 54.43982 58.54085 56.49034
# Shear Modulus (GPa) = 36.16481 54.40667 45.28574
#
# Velocity S-wave (km/s) = 4.01908 4.92957 4.49742
# Velocity P-wave (km/s) = 6.77147 7.65167 7.22499
#
# Compressibility (1/GPa) = 0.01836891
#
# Stress axis : x y z
#
# Youngs Moduli (GPa) = 143.66131 82.61707 67.85061
#
# Poissons Ratio (x) = 0.22593 -0.09587
# Poissons Ratio (y) = 0.39287 0.43393
# Poissons Ratio (z) = -0.20299 0.52837
#
# Static dielectric constant tensor:
#      x y z
#    x 1.710400 0.000000 0.000000 
#    y 0.000000 1.872020 0.000000 
#    z 0.000000 0.000000 1.796720 
# 
# From -- ./inp_files/36372.got.cif
#   From: 2010.05.17/outbox.cif.g08.bks.cpg/sg21_19_cif.got.tgz:36372.got - 2010.06.03 23:14:55.
