data_PCOD9324992
_publ_section_title
;
Structure prediction by ZEFSAII (Michael W. Deem and Ramdas Pophale) SiO2 
 PCOD9324992
Probable space group: C 2 2 2
;
_chemical_formula_sum "Si O2"
_cell_formula_units_Z 48
_cell_length_a 23.828404
_cell_length_b 9.835911
_cell_length_c 9.470825
_cell_angle_alpha 90.000000
_cell_angle_beta 90.000000
_cell_angle_gamma 90.000000
_cell_volume 2219.715716
_symmetry_space_group_name_H-M "C 2 2 2"
_symmetry_group_IT_number 21
_symmetry_cell_setting 'orthorhombic'
loop_
_space_group_symop_operation_xyz
x,y,z
-x,-y,z
x,-y,-z
-x,y,-z
1/2+x,1/2+y,z
1/2-x,1/2-y,z
1/2+x,1/2-y,-z
1/2-x,1/2+y,-z
loop_
_atom_site_type_symbol
_atom_site_label
_atom_site_fract_x
_atom_site_fract_y
_atom_site_fract_z
Si Si1 0.302901 0.839545 0.018977
Si Si2 0.593090 0.051066 0.360570
Si Si3 0.485390 0.705777 0.326605
Si Si4 0.189759 0.260964 0.657461
Si Si5 0.894803 0.728944 0.199991
Si Si6 0.386593 0.507617 0.334211
O O1 0.250000 0.750000 0.965031
O O2 0.360994 0.788998 0.946374
O O3 0.304571 0.820893 0.186421
O O4 0.294801 0.000000 0.000000
O O5 0.552698 0.162375 0.293836
O O6 0.646040 0.138806 0.415871
O O7 0.562834 0.000000 0.500000
O O8 0.609088 0.920971 0.268907
O O9 0.500000 0.699986 0.500000
O O10 0.540289 0.727903 0.230366
O O11 0.445086 0.578778 0.285694
O O12 0.250000 0.250000 0.586608
O O13 0.162801 0.114961 0.682842
O O14 0.868649 0.861693 0.275575
O O15 0.395902 0.500000 0.500000
#
# Coordination Sequence:
#
# PCOD9324992 Si02
#       6
#     8   8   8   8   8   8
#     4  11  26  48  73  96 128 180 237 286 334 400
#     4  11  21  38  64 100 133 177 224 271 340 407
#     4  11  21  39  65  97 137 180 215 271 333 411
#     4  10  24  45  66  91 137 179 222 288 340 396
#     4  12  23  36  69 102 126 177 234 275 329 408
#     4  11  23  40  66 103 139 177 222 276 341 406
#
# _framework density 21.624390999999999
#
# number of rings (size 3 to 8) (size 9 to 14) (size 15 to 20)
#    0.000    1.000    5.000    2.000    4.667    0.667 
#    0.000    5.000    0.000    4.000    0.000    0.000 
#    0.000    0.000    0.000    0.000    0.000    0.000 
#
# Total GULP energy -133761.279784 kJ/mol
# GULP energy per Si atom -5573.386658 kJ/mol
# Density = 2.157517 g / cm^3
# Si number density = 21.624391 Si / 1000 Ang^3
#
#
#
# Elastic Constant Matrix: (Units=GPa)
#
#
# Indices 1 2 3 4 5 6 
#
# 1 113.6531 25.1795 -0.5145 0.0000 0.0000 0.0000
# 2 25.1795 154.2620 -1.5383 0.0000 0.0000 0.0000
# 3 -0.5145 -1.5383 18.0530 0.0000 0.0000 0.0000
# 4 0.0000 0.0000 0.0000 28.4876 0.0000 0.0000
# 5 0.0000 0.0000 0.0000 0.0000 8.6778 0.0000
# 6 0.0000 0.0000 0.0000 0.0000 0.0000 13.2276
#
#
#
# Elastic Compliance Matrix: (Units=1/GPa)
#
#
# Indices 1 2 3 4 5 6 
#
# 1 0.009129 -0.001489 0.000133 0.000000 0.000000 0.000000
# 2 -0.001489 0.006731 0.000531 0.000000 0.000000 0.000000
# 3 0.000133 0.000531 0.055442 0.000000 0.000000 0.000000
# 4 0.000000 0.000000 0.000000 0.035103 0.000000 0.000000
# 5 0.000000 0.000000 0.000000 0.000000 0.115236 0.000000
# 6 0.000000 0.000000 0.000000 0.000000 0.000000 0.075600
#
#
# Mechanical properties :
#
#
# Convention : Reuss Voigt Hill
#
# Bulk Modulus (GPa) = 14.35695 36.91349 25.63522
# Shear Modulus (GPa) = 15.52281 27.60135 21.56208
#
# Velocity S-wave (km/s) = 2.68216 3.57655 3.16114
# Velocity P-wave (km/s) = 4.03058 5.84491 5.02039
#
# Compressibility (1/GPa) = 0.06965269
#
# Stress axis : x y z
#
# Youngs Moduli (GPa) = 109.53927 148.57112 18.03703
#
# Poissons Ratio (x) = 0.22119 -0.00240
# Poissons Ratio (y) = 0.16308 -0.00958
# Poissons Ratio (z) = -0.01460 -0.07891
#
# Static dielectric constant tensor:
#      x y z
#    x 1.863620 0.000000 0.000000 
#    y 0.000000 1.816000 0.000000 
#    z 0.000000 0.000000 1.759840 
# 
# From -- ./inp_files/27308.got.cif
#   From: 2010.05.17/outbox.cif.g08.bks.cpg/sg21_14_cif.got.tgz:27308.got - 2010.06.03 23:14:55.
