data_PCOD9324826
_publ_section_title
;
Structure prediction by ZEFSAII (Michael W. Deem and Ramdas Pophale) SiO2 
 PCOD9324826
Probable space group: C 2 2 2
;
_chemical_formula_sum "Si O2"
_cell_formula_units_Z 48
_cell_length_a 30.930257
_cell_length_b 9.043523
_cell_length_c 8.177098
_cell_angle_alpha 90.000000
_cell_angle_beta 90.000000
_cell_angle_gamma 90.000000
_cell_volume 2287.285510
_symmetry_space_group_name_H-M "C 2 2 2"
_symmetry_group_IT_number 21
_symmetry_cell_setting 'orthorhombic'
loop_
_space_group_symop_operation_xyz
x,y,z
-x,-y,z
x,-y,-z
-x,y,-z
1/2+x,1/2+y,z
1/2-x,1/2-y,z
1/2+x,1/2-y,-z
1/2-x,1/2+y,-z
loop_
_atom_site_type_symbol
_atom_site_label
_atom_site_fract_x
_atom_site_fract_y
_atom_site_fract_z
Si Si1 0.142575 0.530317 0.731898
Si Si2 0.227461 0.406943 0.153655
Si Si3 0.453614 0.423696 0.163936
Si Si4 0.662228 0.748422 0.565301
Si Si5 0.906215 0.000000 0.500000
Si Si6 0.733528 0.500000 0.500000
Si Si7 0.543764 0.928887 0.177974
O O1 0.175341 0.602676 0.861957
O O2 0.158552 0.360213 0.716872
O O3 0.153838 0.636718 0.580197
O O4 0.090818 0.535272 0.746760
O O5 0.250000 0.250000 0.149488
O O6 0.239824 0.474287 0.332719
O O7 0.244077 0.500000 0.000000
O O8 0.500000 0.500000 0.174232
O O9 0.431405 0.452053 0.337988
O O10 0.459167 0.247268 0.153091
O O11 0.432927 0.500000 0.000000
O O12 0.623404 0.633638 0.560957
O O13 0.704083 0.645949 0.534504
O O14 0.500000 0.000000 0.257398
O O15 0.545693 0.000000 0.000000
#
# Coordination Sequence:
#
# PCOD9324826 Si02
#       7
#     8   8   8   8   4   4   8
#     4  11  23  45  68 102 146 181 239 296 351 422
#     4  12  28  46  75 111 145 188 241 288 360 429
#     4  11  24  43  69  98 134 181 230 293 361 419
#     4  10  23  42  70 102 138 189 233 291 354 425
#     4  11  23  44  67 100 140 174 239 290 351 425
#     4  11  24  50  75  96 150 190 233 292 352 427
#     4  11  24  44  68  99 143 188 239 294 358 420
#
# _framework density 20.985574
#
# number of rings (size 3 to 8) (size 9 to 14) (size 15 to 20)
#    0.000    1.000    3.333    3.750    7.000    0.000 
#    0.000    5.833    0.000    0.000    0.000    0.000 
#    0.000    0.000    0.000    0.000    0.000    0.000 
#
# Total GULP energy -133823.358505 kJ/mol
# GULP energy per Si atom -5575.973271 kJ/mol
# Density = 2.093781 g / cm^3
# Si number density = 20.985574 Si / 1000 Ang^3
#
#
#
# Elastic Constant Matrix: (Units=GPa)
#
#
# Indices 1 2 3 4 5 6 
#
# 1 151.3788 68.5802 40.4113 0.0000 0.0000 0.0000
# 2 68.5802 180.3108 44.3913 0.0000 0.0000 0.0000
# 3 40.4113 44.3913 100.8689 0.0000 0.0000 0.0000
# 4 0.0000 0.0000 0.0000 33.9287 0.0000 0.0000
# 5 0.0000 0.0000 0.0000 0.0000 29.8395 0.0000
# 6 0.0000 0.0000 0.0000 0.0000 0.0000 18.1279
#
#
#
# Elastic Compliance Matrix: (Units=1/GPa)
#
#
# Indices 1 2 3 4 5 6 
#
# 1 0.008393 -0.002652 -0.002196 0.000000 0.000000 0.000000
# 2 -0.002652 0.007058 -0.002044 0.000000 0.000000 0.000000
# 3 -0.002196 -0.002044 0.011693 0.000000 0.000000 0.000000
# 4 0.000000 0.000000 0.000000 0.029474 0.000000 0.000000
# 5 0.000000 0.000000 0.000000 0.000000 0.033513 0.000000
# 6 0.000000 0.000000 0.000000 0.000000 0.000000 0.055164
#
#
# Mechanical properties :
#
#
# Convention : Reuss Voigt Hill
#
# Bulk Modulus (GPa) = 74.83992 82.14712 78.49352
# Shear Modulus (GPa) = 30.57543 34.99093 32.78318
#
# Velocity S-wave (km/s) = 3.82117 4.08779 3.95673
# Velocity P-wave (km/s) = 7.43024 7.84280 7.63931
#
# Compressibility (1/GPa) = 0.01336185
#
# Stress axis : x y z
#
# Youngs Moduli (GPa) = 119.14019 141.68883 85.52225
#
# Poissons Ratio (x) = 0.37574 0.18778
# Poissons Ratio (y) = 0.31594 0.17477
# Poissons Ratio (z) = 0.26159 0.28956
#
# Static dielectric constant tensor:
#      x y z
#    x 1.835830 0.000000 0.000000 
#    y 0.000000 1.779220 0.000000 
#    z 0.000000 0.000000 1.922500 
# 
# From -- ./inp_files/19696.got.cif
#   From: 2010.05.17/outbox.cif.g08.bks.cpg/sg21_10_cif.got.tgz:19696.got - 2010.06.03 23:14:55.
