data_PCOD9324718
_publ_section_title
;
Structure prediction by ZEFSAII (Michael W. Deem and Ramdas Pophale) SiO2 
 PCOD9324718
Probable space group: C 2 2 2
;
_chemical_formula_sum "Si O2"
_cell_formula_units_Z 44
_cell_length_a 15.162630
_cell_length_b 14.373831
_cell_length_c 9.343922
_cell_angle_alpha 90.000000
_cell_angle_beta 90.000000
_cell_angle_gamma 90.000000
_cell_volume 2036.461838
_symmetry_space_group_name_H-M "C 2 2 2"
_symmetry_group_IT_number 21
_symmetry_cell_setting 'orthorhombic'
loop_
_space_group_symop_operation_xyz
x,y,z
-x,-y,z
x,-y,-z
-x,y,-z
1/2+x,1/2+y,z
1/2-x,1/2-y,z
1/2+x,1/2-y,-z
1/2-x,1/2+y,-z
loop_
_atom_site_type_symbol
_atom_site_label
_atom_site_fract_x
_atom_site_fract_y
_atom_site_fract_z
Si Si1 0.813623 0.608039 0.113420
Si Si2 0.769401 0.594350 0.802182
Si Si3 0.871422 0.161193 0.420641
Si Si4 0.500000 0.000000 0.500000
Si Si5 0.000000 0.639514 0.000000
Si Si6 0.045536 0.658630 0.305545
Si Si7 0.000000 0.000000 0.500000
Si Si8 0.750000 0.750000 0.339745
O O1 0.764767 0.516405 0.171468
O O2 0.807954 0.686025 0.234213
O O3 0.913677 0.587457 0.060947
O O4 0.771006 0.636534 0.961674
O O5 0.695761 0.643064 0.708509
O O6 0.861080 0.606023 0.716098
O O7 0.931250 0.250967 0.394537
O O8 0.811715 0.185440 0.559744
O O9 0.933244 0.071126 0.424239
O O10 0.481186 0.082584 0.379348
O O11 0.024644 0.692272 0.144668
#
# Coordination Sequence:
#
# PCOD9324718 Si02
#       8
#     8   8   8   2   4   8   2   4
#     4  10  24  41  71 107 137 187 238 300 354 440
#     4  10  22  45  69  98 140 182 238 289 361 422
#     4  12  26  48  70 105 140 201 235 310 348 446
#     4  12  26  36  64 102 144 176 238 300 380 422
#     4  10  24  43  68 105 148 176 234 303 378 423
#     4  11  24  41  68 100 142 185 237 298 366 435
#     4  12  30  46  72 100 160 178 254 294 380 408
#     4  12  26  42  74 102 144 194 254 284 374 434
#
# _framework density 21.606099
#
# number of rings (size 3 to 8) (size 9 to 14) (size 15 to 20)
#    0.000    1.091    1.818    2.727   12.727    7.636 
#    0.000    0.000    0.000    1.091    0.000    0.000 
#    0.000    0.000    0.000    0.000    0.000    0.000 
#
# Total GULP energy -122486.495657 kJ/mol
# GULP energy per Si atom -5567.567984 kJ/mol
# Density = 2.155692 g / cm^3
# Si number density = 21.606099 Si / 1000 Ang^3
#
#
#
# Elastic Constant Matrix: (Units=GPa)
#
#
# Indices 1 2 3 4 5 6 
#
# 1 71.5333 29.9518 52.5481 0.0000 0.0000 0.0000
# 2 29.9518 111.6994 49.9618 0.0000 0.0000 0.0000
# 3 52.5481 49.9618 149.9657 0.0000 0.0000 0.0000
# 4 0.0000 0.0000 0.0000 36.1878 0.0000 0.0000
# 5 0.0000 0.0000 0.0000 0.0000 -220.3619 0.0000
# 6 0.0000 0.0000 0.0000 0.0000 0.0000 21.4340
#
#
#
# Elastic Compliance Matrix: (Units=1/GPa)
#
#
# Indices 1 2 3 4 5 6 
#
# 1 0.019421 -0.002543 -0.005958 0.000000 0.000000 0.000000
# 2 -0.002543 0.010853 -0.002725 0.000000 0.000000 0.000000
# 3 -0.005958 -0.002725 0.009664 0.000000 0.000000 0.000000
# 4 0.000000 0.000000 0.000000 0.027634 0.000000 0.000000
# 5 0.000000 0.000000 0.000000 0.000000 -0.004538 0.000000
# 6 0.000000 0.000000 0.000000 0.000000 0.000000 0.046655
#
#
# Mechanical properties :
#
#
# Convention : Reuss Voigt Hill
#
# Bulk Modulus (GPa) = 57.18629 66.45799 61.82214
# Shear Modulus (GPa) = 36.24027 -19.16557 8.53735
#
# Velocity S-wave (km/s) = 4.09995 -2.98156 1.98996
# Velocity P-wave (km/s) = 6.99556 4.35577 5.82712
#
# Compressibility (1/GPa) = 0.01748671
#
# Stress axis : x y z
#
# Youngs Moduli (GPa) = 51.49101 92.13871 103.48038
#
# Poissons Ratio (x) = 0.23428 0.61653
# Poissons Ratio (y) = 0.13093 0.28197
# Poissons Ratio (z) = 0.30678 0.25106
#
# Static dielectric constant tensor:
#      x y z
#    x 1.845190 0.000000 0.000000 
#    y 0.000000 3.915300 0.000000 
#    z 0.000000 0.000000 1.816270 
# 
# From -- ./inp_files/16389.got.cif
#   From: 2010.05.17/outbox.cif.g08.bks.cpg/sg21_9_cif.got.tgz:16389.got - 2010.06.03 23:14:55.
