data_PCOD9324811
_publ_section_title
;
Structure prediction by ZEFSAII (Michael W. Deem and Ramdas Pophale) SiO2 
 PCOD9324811
Probable space group: C 2 2 2
;
_chemical_formula_sum "Si O2"
_cell_formula_units_Z 26
_cell_length_a 5.522026
_cell_length_b 18.086656
_cell_length_c 11.238469
_cell_angle_alpha 90.000000
_cell_angle_beta 90.000000
_cell_angle_gamma 90.000000
_cell_volume 1122.441919
_symmetry_space_group_name_H-M "C 2 2 2"
_symmetry_group_IT_number 21
_symmetry_cell_setting 'orthorhombic'
loop_
_space_group_symop_operation_xyz
x,y,z
-x,-y,z
x,-y,-z
-x,y,-z
1/2+x,1/2+y,z
1/2-x,1/2-y,z
1/2+x,1/2-y,-z
1/2-x,1/2+y,-z
loop_
_atom_site_type_symbol
_atom_site_label
_atom_site_fract_x
_atom_site_fract_y
_atom_site_fract_z
Si Si1 0.847010 0.928045 0.306664
Si Si2 0.500000 0.000000 0.500000
Si Si3 0.252344 0.160144 0.068347
Si Si4 0.993146 0.222808 0.364591
O O1 0.743395 0.887800 0.189809
O O2 0.017906 0.864961 0.361770
O O3 0.659383 0.950740 0.409581
O O4 0.000000 0.000000 0.274508
O O5 0.250000 0.250000 0.079107
O O6 0.500000 0.141653 0.000000
O O7 0.000000 0.141615 0.000000
O O8 0.750000 0.250000 0.301753
O O9 0.000000 0.251723 0.500000
O O10 0.250000 0.250000 0.317183
#
# Coordination Sequence:
#
# PCOD9324811 Si02
#       4
#     8   2   8   8
#     4  12  28  48  75 112 163 211 259 322 401 476
#     4  12  30  48  74 118 176 212 260 318 406 496
#     4  10  25  52  84 115 149 199 269 337 394 458
#     4  10  23  41  68 102 145 195 257 311 372 455
#
# _framework density 23.163779999999999
#
# number of rings (size 3 to 8) (size 9 to 14) (size 15 to 20)
#    0.000    1.231    0.000    3.231   15.077    4.308 
#    0.000    0.000    0.000    0.000    0.000    0.000 
#    0.000    0.000    0.000    0.000    0.000    0.000 
#
# Total GULP energy -72631.838895 kJ/mol
# GULP energy per Si atom -5587.064530 kJ/mol
# Density = 2.311106 g / cm^3
# Si number density = 23.163780 Si / 1000 Ang^3
#
#
#
# Elastic Constant Matrix: (Units=GPa)
#
#
# Indices 1 2 3 4 5 6 
#
# 1 195.4437 78.8300 80.8850 0.0000 0.0000 0.0000
# 2 78.8300 152.1194 48.1873 0.0000 0.0000 0.0000
# 3 80.8850 48.1873 169.0632 0.0000 0.0000 0.0000
# 4 0.0000 0.0000 0.0000 43.2114 0.0000 0.0000
# 5 0.0000 0.0000 0.0000 0.0000 13.9290 0.0000
# 6 0.0000 0.0000 0.0000 0.0000 0.0000 37.4285
#
#
#
# Elastic Compliance Matrix: (Units=1/GPa)
#
#
# Indices 1 2 3 4 5 6 
#
# 1 0.007448 -0.003002 -0.002708 0.000000 0.000000 0.000000
# 2 -0.003002 0.008436 -0.000968 0.000000 0.000000 0.000000
# 3 -0.002708 -0.000968 0.007486 0.000000 0.000000 0.000000
# 4 0.000000 0.000000 0.000000 0.023142 0.000000 0.000000
# 5 0.000000 0.000000 0.000000 0.000000 0.071793 0.000000
# 6 0.000000 0.000000 0.000000 0.000000 0.000000 0.026718
#
#
# Mechanical properties :
#
#
# Convention : Reuss Voigt Hill
#
# Bulk Modulus (GPa) = 99.85377 103.60342 101.72860
# Shear Modulus (GPa) = 30.91825 39.49539 35.20682
#
# Velocity S-wave (km/s) = 3.65741 4.13370 3.90283
# Velocity P-wave (km/s) = 7.81261 8.22234 8.02009
#
# Compressibility (1/GPa) = 0.01001464
#
# Stress axis : x y z
#
# Youngs Moduli (GPa) = 134.26554 118.53781 133.57565
#
# Poissons Ratio (x) = 0.35584 0.36168
# Poissons Ratio (y) = 0.40305 0.12934
# Poissons Ratio (z) = 0.36355 0.11478
#
# Static dielectric constant tensor:
#      x y z
#    x 1.949110 0.000000 0.000000 
#    y 0.000000 1.883400 0.000000 
#    z 0.000000 0.000000 1.903990 
# 
# From -- ./inp_files/20318.got.cif
#   From: 2010.05.17/outbox.cif.g08.bks.cpg/sg21_11_cif.got.tgz:20318.got - 2010.06.03 23:14:55.
