data_PCOD9324941
_publ_section_title
;
Structure prediction by ZEFSAII (Michael W. Deem and Ramdas Pophale) SiO2 
 PCOD9324941
Probable space group: C 2 2 2
;
_chemical_formula_sum "Si O2"
_cell_formula_units_Z 30
_cell_length_a 6.191914
_cell_length_b 19.383530
_cell_length_c 10.835119
_cell_angle_alpha 90.000000
_cell_angle_beta 90.000000
_cell_angle_gamma 90.000000
_cell_volume 1300.443451
_symmetry_space_group_name_H-M "C 2 2 2"
_symmetry_group_IT_number 21
_symmetry_cell_setting 'orthorhombic'
loop_
_space_group_symop_operation_xyz
x,y,z
-x,-y,z
x,-y,-z
-x,y,-z
1/2+x,1/2+y,z
1/2-x,1/2-y,z
1/2+x,1/2-y,-z
1/2-x,1/2+y,-z
loop_
_atom_site_type_symbol
_atom_site_label
_atom_site_fract_x
_atom_site_fract_y
_atom_site_fract_z
Si Si1 0.500000 0.500000 0.000000
Si Si2 0.500000 0.778752 0.500000
Si Si3 0.330784 0.824810 0.764023
Si Si4 0.029682 0.917653 0.359893
Si Si5 0.859581 0.569378 0.834506
O O1 0.658487 0.549026 0.920726
O O2 0.750000 0.750000 0.523955
O O3 0.448259 0.811139 0.633244
O O4 0.250000 0.750000 0.808415
O O5 0.134622 0.875608 0.725849
O O6 0.483105 0.866486 0.857710
O O7 0.000000 0.892500 0.500000
O O8 0.262002 0.913209 0.299042
O O9 0.000000 0.000000 0.360495
O O10 0.000000 0.500000 0.830445
#
# Coordination Sequence:
#
# PCOD9324941 Si02
#       5
#     2   4   8   8   8
#     4  12  26  48  78 106 132 188 266 332 392 458
#     4  10  24  42  65 108 167 222 244 288 376 478
#     4  11  25  40  69 109 151 200 245 302 374 460
#     4  11  23  42  66 110 154 193 241 294 365 456
#     4  12  24  47  72 111 138 193 255 315 380 458
#
# _framework density 23.069051999999999
#
# number of rings (size 3 to 8) (size 9 to 14) (size 15 to 20)
#    0.000    0.800    4.000    2.000   14.933    0.000 
#    0.000    0.000    0.000    0.000   97.067    0.000 
#    0.000    0.000    0.000    0.000    0.000    0.000 
#
# Total GULP energy -83616.854919 kJ/mol
# GULP energy per Si atom -5574.456995 kJ/mol
# Density = 2.301655 g / cm^3
# Si number density = 23.069052 Si / 1000 Ang^3
#
#
#
# Elastic Constant Matrix: (Units=GPa)
#
#
# Indices 1 2 3 4 5 6 
#
# 1 168.8785 100.9226 54.2653 0.0000 0.0000 0.0000
# 2 100.9226 163.4516 42.3130 0.0000 0.0000 0.0000
# 3 54.2653 42.3130 80.0012 0.0000 0.0000 0.0000
# 4 0.0000 0.0000 0.0000 3.6200 0.0000 0.0000
# 5 0.0000 0.0000 0.0000 0.0000 129.7842 0.0000
# 6 0.0000 0.0000 0.0000 0.0000 0.0000 203.5294
#
#
#
# Elastic Compliance Matrix: (Units=1/GPa)
#
#
# Indices 1 2 3 4 5 6 
#
# 1 0.010516 -0.005383 -0.004285 0.000000 0.000000 0.000000
# 2 -0.005383 0.009845 -0.001555 0.000000 0.000000 0.000000
# 3 -0.004285 -0.001555 0.016229 0.000000 0.000000 0.000000
# 4 0.000000 0.000000 0.000000 0.276244 0.000000 0.000000
# 5 0.000000 0.000000 0.000000 0.000000 0.007705 0.000000
# 6 0.000000 0.000000 0.000000 0.000000 0.000000 0.004913
#
#
# Mechanical properties :
#
#
# Convention : Reuss Voigt Hill
#
# Bulk Modulus (GPa) = 70.71553 89.70367 80.20960
# Shear Modulus (GPa) = 14.17979 81.70874 47.94427
#
# Velocity S-wave (km/s) = 2.48194 5.95786 4.56378
# Velocity P-wave (km/s) = 6.23969 9.28964 7.91300
#
# Compressibility (1/GPa) = 0.01414117
#
# Stress axis : x y z
#
# Youngs Moduli (GPa) = 95.09646 101.57832 61.61709
#
# Poissons Ratio (x) = 0.54684 0.26406
# Poissons Ratio (y) = 0.51195 0.09583
# Poissons Ratio (z) = 0.40754 0.15798
#
# Static dielectric constant tensor:
#      x y z
#    x 1.854790 0.000000 0.000000 
#    y 0.000000 1.581990 0.000000 
#    z 0.000000 0.000000 1.632390 
# 
# From -- ./inp_files/20568.got.cif
#   From: 2010.05.17/outbox.cif.g08.bks.cpg/sg21_11_cif.got.tgz:20568.got - 2010.06.03 23:14:55.
