data_PCOD9324533
_publ_section_title
;
Structure prediction by ZEFSAII (Michael W. Deem and Ramdas Pophale) SiO2 
 PCOD9324533
Probable space group: C 2 2 2
;
_chemical_formula_sum "Si O2"
_cell_formula_units_Z 32
_cell_length_a 8.713493
_cell_length_b 17.096322
_cell_length_c 9.857525
_cell_angle_alpha 90.000000
_cell_angle_beta 90.000000
_cell_angle_gamma 90.000000
_cell_volume 1468.462508
_symmetry_space_group_name_H-M "C 2 2 2"
_symmetry_group_IT_number 21
_symmetry_cell_setting 'orthorhombic'
loop_
_space_group_symop_operation_xyz
x,y,z
-x,-y,z
x,-y,-z
-x,y,-z
1/2+x,1/2+y,z
1/2-x,1/2-y,z
1/2+x,1/2-y,-z
1/2-x,1/2+y,-z
loop_
_atom_site_type_symbol
_atom_site_label
_atom_site_fract_x
_atom_site_fract_y
_atom_site_fract_z
Si Si1 0.500000 0.000000 0.000000
Si Si2 0.000000 0.000000 0.000000
Si Si3 0.815074 0.137859 0.869234
Si Si4 0.500000 0.141865 0.500000
Si Si5 0.250000 0.750000 0.106346
Si Si6 0.542861 0.116251 0.209400
Si Si7 0.250000 0.250000 0.359238
O O1 0.399208 0.051997 0.896943
O O2 0.096323 0.941758 0.901173
O O3 0.632881 0.125507 0.840204
O O4 0.851054 0.192706 0.738794
O O5 0.831504 0.190385 0.003496
O O6 0.547645 0.094262 0.366408
O O7 0.361488 0.196705 0.448599
O O8 0.365208 0.803640 0.190441
#
# Coordination Sequence:
#
# PCOD9324533 Si02
#       7
#     2   2   8   4   4   8   4
#     4  12  22  40  64  98 136 174 220 294 338 416
#     4  12  26  38  66 106 144 188 218 298 374 384
#     4  10  23  39  63 102 138 174 236 292 337 417
#     4  10  22  41  64 101 130 184 230 286 344 421
#     4  11  21  38  72 100 128 186 230 290 346 410
#     4  11  23  42  68 101 137 181 231 290 351 419
#     4   9  21  42  68  96 140 172 240 288 338 428
#
# _framework density 21.791499000000002
#
# number of rings (size 3 to 8) (size 9 to 14) (size 15 to 20)
#    0.000    1.500    2.500    1.500   10.500    0.500 
#    0.000    0.000    0.000    0.750    0.000    0.000 
#    0.000    0.000    0.000    0.000    0.000    0.000 
#
# Total GULP energy -89336.811929 kJ/mol
# GULP energy per Si atom -5583.550746 kJ/mol
# Density = 2.174190 g / cm^3
# Si number density = 21.791499 Si / 1000 Ang^3
#
#
#
# Elastic Constant Matrix: (Units=GPa)
#
#
# Indices 1 2 3 4 5 6 
#
# 1 84.1206 52.0311 32.1751 0.0000 0.0000 0.0000
# 2 52.0311 146.1591 64.0398 0.0000 0.0000 0.0000
# 3 32.1751 64.0398 192.4855 0.0000 0.0000 0.0000
# 4 0.0000 0.0000 0.0000 22.3327 0.0000 0.0000
# 5 0.0000 0.0000 0.0000 0.0000 19.3359 0.0000
# 6 0.0000 0.0000 0.0000 0.0000 0.0000 48.0474
#
#
#
# Elastic Compliance Matrix: (Units=1/GPa)
#
#
# Indices 1 2 3 4 5 6 
#
# 1 0.015370 -0.005087 -0.000877 0.000000 0.000000 0.000000
# 2 -0.005087 0.009693 -0.002375 0.000000 0.000000 0.000000
# 3 -0.000877 -0.002375 0.006132 0.000000 0.000000 0.000000
# 4 0.000000 0.000000 0.000000 0.044777 0.000000 0.000000
# 5 0.000000 0.000000 0.000000 0.000000 0.051717 0.000000
# 6 0.000000 0.000000 0.000000 0.000000 0.000000 0.020813
#
#
# Mechanical properties :
#
#
# Convention : Reuss Voigt Hill
#
# Bulk Modulus (GPa) = 68.88140 79.91744 74.39942
# Shear Modulus (GPa) = 29.40857 36.24447 32.82652
#
# Velocity S-wave (km/s) = 3.67760 4.08271 3.88544
# Velocity P-wave (km/s) = 7.05060 7.67971 7.37187
#
# Compressibility (1/GPa) = 0.01451771
#
# Stress axis : x y z
#
# Youngs Moduli (GPa) = 65.06323 103.16362 163.08580
#
# Poissons Ratio (x) = 0.52483 0.14296
# Poissons Ratio (y) = 0.33100 0.38726
# Poissons Ratio (z) = 0.05703 0.24497
#
# Static dielectric constant tensor:
#      x y z
#    x 1.926030 0.000000 0.000000 
#    y 0.000000 1.935920 0.000000 
#    z 0.000000 0.000000 1.808400 
# 
# From -- ./inp_files/10544.got.cif
#   From: 2010.05.17/outbox.cif.g08.bks.cpg/sg21_6_cif.got.tgz:10544.got - 2010.06.03 23:14:55.
