data_PCOD9324240
_publ_section_title
;
Structure prediction by ZEFSAII (Michael W. Deem and Ramdas Pophale) SiO2 
 PCOD9324240
Probable space group: C 2 2 2
;
_chemical_formula_sum "Si O2"
_cell_formula_units_Z 54
_cell_length_a 26.431016
_cell_length_b 6.248935
_cell_length_c 14.860076
_cell_angle_alpha 90.000000
_cell_angle_beta 90.000000
_cell_angle_gamma 90.000000
_cell_volume 2454.374869
_symmetry_space_group_name_H-M "C 2 2 2"
_symmetry_group_IT_number 21
_symmetry_cell_setting 'orthorhombic'
loop_
_space_group_symop_operation_xyz
x,y,z
-x,-y,z
x,-y,-z
-x,y,-z
1/2+x,1/2+y,z
1/2-x,1/2-y,z
1/2+x,1/2-y,-z
1/2-x,1/2+y,-z
loop_
_atom_site_type_symbol
_atom_site_label
_atom_site_fract_x
_atom_site_fract_y
_atom_site_fract_z
Si Si1 0.196286 0.359622 0.228879
Si Si2 0.500000 0.500000 0.500000
Si Si3 0.582297 0.186219 0.573767
Si Si4 0.192568 0.266437 0.666716
Si Si5 0.947173 0.628999 0.229174
Si Si6 0.116865 0.014825 0.793729
Si Si7 0.334352 0.500000 0.500000
Si Si8 0.132114 0.405114 0.901057
O O1 0.250000 0.250000 0.227555
O O2 0.186401 0.478873 0.323524
O O3 0.156890 0.175267 0.207772
O O4 0.183750 0.534713 0.152214
O O5 0.534810 0.344314 0.558567
O O6 0.575239 0.088160 0.671800
O O7 0.629843 0.339216 0.555917
O O8 0.582351 0.000000 0.500000
O O9 0.250000 0.250000 0.707210
O O10 0.194857 0.146106 0.571790
O O11 0.142924 0.166388 0.716957
O O12 0.936459 0.888421 0.219341
O O13 0.913359 0.520815 0.152197
O O14 0.000000 0.500000 0.225521
O O15 0.120440 0.155562 0.883943
O O16 0.134606 0.500000 0.000000
#
# Coordination Sequence:
#
# PCOD9324240 Si02
#       8
#     8   2   8   8   8   8   4   8
#     4  10  21  41  71  99 134 192 240 305 379 453
#     4  10  22  40  60  94 132 170 238 312 372 420
#     4  11  24  41  66  96 140 183 247 311 368 442
#     4  11  22  43  66  97 141 196 258 306 376 449
#     4  11  24  42  71 103 138 199 251 305 381 457
#     4  10  22  43  70  99 141 186 239 315 370 445
#     4  11  26  41  64 100 138 198 244 323 376 439
#     4  10  25  45  69 107 144 184 241 311 388 464
#
# _framework density 22.001529999999999
#
# number of rings (size 3 to 8) (size 9 to 14) (size 15 to 20)
#    0.000    1.481    2.963    1.111    6.222    4.444 
#    6.667    0.000    0.000    5.333    0.000    0.000 
#    0.000    0.000    0.000    0.000    0.000    0.000 
#
# Total GULP energy -150490.913868 kJ/mol
# GULP energy per Si atom -5573.737551 kJ/mol
# Density = 2.195145 g / cm^3
# Si number density = 22.001530 Si / 1000 Ang^3
#
#
#
# Elastic Constant Matrix: (Units=GPa)
#
#
# Indices 1 2 3 4 5 6 
#
# 1 131.5886 66.0712 36.4440 0.0000 0.0000 0.0000
# 2 66.0712 146.4522 65.7651 0.0000 0.0000 0.0000
# 3 36.4440 65.7651 123.9172 0.0000 0.0000 0.0000
# 4 0.0000 0.0000 0.0000 41.7507 0.0000 0.0000
# 5 0.0000 0.0000 0.0000 0.0000 13.5889 0.0000
# 6 0.0000 0.0000 0.0000 0.0000 0.0000 52.6838
#
#
#
# Elastic Compliance Matrix: (Units=1/GPa)
#
#
# Indices 1 2 3 4 5 6 
#
# 1 0.009872 -0.004136 -0.000709 0.000000 0.000000 0.000000
# 2 -0.004136 0.010697 -0.004461 0.000000 0.000000 0.000000
# 3 -0.000709 -0.004461 0.010646 0.000000 0.000000 0.000000
# 4 0.000000 0.000000 0.000000 0.023952 0.000000 0.000000
# 5 0.000000 0.000000 0.000000 0.000000 0.073590 0.000000
# 6 0.000000 0.000000 0.000000 0.000000 0.000000 0.018981
#
#
# Mechanical properties :
#
#
# Convention : Reuss Voigt Hill
#
# Bulk Modulus (GPa) = 79.33380 82.05764 80.69572
# Shear Modulus (GPa) = 29.31703 37.18319 33.25011
#
# Velocity S-wave (km/s) = 3.65430 4.11545 3.89171
# Velocity P-wave (km/s) = 7.34451 7.74338 7.54658
#
# Compressibility (1/GPa) = 0.01260497
#
# Stress axis : x y z
#
# Youngs Moduli (GPa) = 101.29470 93.48328 93.93419
#
# Poissons Ratio (x) = 0.38661 0.06656
# Poissons Ratio (y) = 0.41891 0.41903
# Poissons Ratio (z) = 0.07177 0.41702
#
# Static dielectric constant tensor:
#      x y z
#    x 1.890240 0.000000 0.000000 
#    y 0.000000 1.908710 0.000000 
#    z 0.000000 0.000000 1.830560 
# 
# From -- ./inp_files/34056.got.cif
#   From: 2010.05.17/outbox.cif.g08.bks.cpg/sg21_18_cif.got.tgz:34056.got - 2010.06.03 23:14:55.
