data_PCOD9324538
_publ_section_title
;
Structure prediction by ZEFSAII (Michael W. Deem and Ramdas Pophale) SiO2 
 PCOD9324538
Probable space group: C 2 2 2
;
_chemical_formula_sum "Si O2"
_cell_formula_units_Z 22
_cell_length_a 19.785907
_cell_length_b 9.204593
_cell_length_c 6.252933
_cell_angle_alpha 90.000000
_cell_angle_beta 90.000000
_cell_angle_gamma 90.000000
_cell_volume 1138.791793
_symmetry_space_group_name_H-M "C 2 2 2"
_symmetry_group_IT_number 21
_symmetry_cell_setting 'orthorhombic'
loop_
_space_group_symop_operation_xyz
x,y,z
-x,-y,z
x,-y,-z
-x,y,-z
1/2+x,1/2+y,z
1/2-x,1/2-y,z
1/2+x,1/2-y,-z
1/2-x,1/2+y,-z
loop_
_atom_site_type_symbol
_atom_site_label
_atom_site_fract_x
_atom_site_fract_y
_atom_site_fract_z
Si Si1 0.000000 0.500000 0.500000
Si Si2 0.439269 0.281030 0.650292
Si Si3 0.104415 0.000000 0.000000
Si Si4 0.690481 0.360520 0.624426
O O1 0.042690 0.390509 0.651049
O O2 0.500000 0.338904 0.500000
O O3 0.368030 0.298095 0.530038
O O4 0.435236 0.378480 0.862088
O O5 0.151616 0.086017 0.165842
O O6 0.719295 0.500000 0.500000
O O7 0.750000 0.250000 0.670693
#
# Coordination Sequence:
#
# PCOD9324538 Si02
#       4
#     2   8   4   8
#     4   8  20  44  64 100 126 170 202 282 336 364
#     4   9  21  41  66  90 129 170 214 271 326 382
#     4  10  22  41  64  96 124 175 222 258 326 403
#     4  10  23  40  63  91 129 170 214 270 321 384
#
# _framework density 19.318719000000002
#
# number of rings (size 3 to 8) (size 9 to 14) (size 15 to 20)
#    1.091    1.455    0.000    0.000    2.545   15.273 
#    0.000    1.818    0.000    0.000    0.000    0.000 
#    0.000    0.000    0.000    0.000    0.000    0.000 
#
# Total GULP energy -61292.206092 kJ/mol
# GULP energy per Si atom -5572.018736 kJ/mol
# Density = 1.927475 g / cm^3
# Si number density = 19.318719 Si / 1000 Ang^3
#
#
#
# Elastic Constant Matrix: (Units=GPa)
#
#
# Indices 1 2 3 4 5 6 
#
# 1 89.0322 65.2382 45.9202 0.0000 0.0000 0.0000
# 2 65.2382 180.6925 78.0265 0.0000 0.0000 0.0000
# 3 45.9202 78.0265 127.8682 0.0000 0.0000 0.0000
# 4 0.0000 0.0000 0.0000 18.3905 0.0000 0.0000
# 5 0.0000 0.0000 0.0000 0.0000 15.9368 0.0000
# 6 0.0000 0.0000 0.0000 0.0000 0.0000 40.9259
#
#
#
# Elastic Compliance Matrix: (Units=1/GPa)
#
#
# Indices 1 2 3 4 5 6 
#
# 1 0.016094 -0.004501 -0.003033 0.000000 0.000000 0.000000
# 2 -0.004501 0.008773 -0.003737 0.000000 0.000000 0.000000
# 3 -0.003033 -0.003737 0.011190 0.000000 0.000000 0.000000
# 4 0.000000 0.000000 0.000000 0.054376 0.000000 0.000000
# 5 0.000000 0.000000 0.000000 0.000000 0.062748 0.000000
# 6 0.000000 0.000000 0.000000 0.000000 0.000000 0.024434
#
#
# Mechanical properties :
#
#
# Convention : Reuss Voigt Hill
#
# Bulk Modulus (GPa) = 73.99112 86.21809 80.10461
# Shear Modulus (GPa) = 24.43034 28.94450 26.68742
#
# Velocity S-wave (km/s) = 3.55997 3.87494 3.72079
# Velocity P-wave (km/s) = 7.43513 8.04651 7.74686
#
# Compressibility (1/GPa) = 0.01351513
#
# Stress axis : x y z
#
# Youngs Moduli (GPa) = 62.13312 113.98565 89.36358
#
# Poissons Ratio (x) = 0.51305 0.27107
# Poissons Ratio (y) = 0.27966 0.33395
# Poissons Ratio (z) = 0.18847 0.42596
#
# Static dielectric constant tensor:
#      x y z
#    x 1.660290 0.000000 0.000000 
#    y 0.000000 1.703430 0.000000 
#    z 0.000000 0.000000 1.668230 
# 
# From -- ./inp_files/1027.got.cif
#   From: 2010.05.17/outbox.cif.g08.bks.cpg/sg21_1_cif.got.tgz:1027.got - 2010.06.03 23:14:55.
