data_PCOD9324557
_publ_section_title
;
Structure prediction by ZEFSAII (Michael W. Deem and Ramdas Pophale) SiO2 
 PCOD9324557
Probable space group: C 2 2 2
;
_chemical_formula_sum "Si O2"
_cell_formula_units_Z 32
_cell_length_a 12.943229
_cell_length_b 13.147670
_cell_length_c 7.734048
_cell_angle_alpha 90.000000
_cell_angle_beta 90.000000
_cell_angle_gamma 90.000000
_cell_volume 1316.128499
_symmetry_space_group_name_H-M "C 2 2 2"
_symmetry_group_IT_number 21
_symmetry_cell_setting 'orthorhombic'
loop_
_space_group_symop_operation_xyz
x,y,z
-x,-y,z
x,-y,-z
-x,y,-z
1/2+x,1/2+y,z
1/2-x,1/2-y,z
1/2+x,1/2-y,-z
1/2-x,1/2+y,-z
loop_
_atom_site_type_symbol
_atom_site_label
_atom_site_fract_x
_atom_site_fract_y
_atom_site_fract_z
Si Si1 0.734898 0.917743 0.771617
Si Si2 0.011033 0.674975 0.292225
Si Si3 0.042051 0.105817 0.693230
Si Si4 0.289731 0.862221 0.830716
O O1 0.620856 0.879053 0.730465
O O2 0.835361 0.874022 0.680978
O O3 0.750191 0.037798 0.733776
O O4 0.743852 0.885212 0.972868
O O5 0.004783 0.790323 0.221149
O O6 0.000000 0.676416 0.500000
O O7 0.912822 0.626245 0.197965
O O8 0.000000 0.104275 0.500000
O O9 0.000000 0.000000 0.774261
O O10 0.250000 0.750000 0.778686
#
# Coordination Sequence:
#
# PCOD9324557 Si02
#       4
#     8   8   8   8
#     4  11  24  43  66  94 131 174 221 275 333 398
#     4  11  24  40  65  98 132 173 222 274 331 395
#     4  10  22  41  66  96 130 173 222 277 334 394
#     4  11  24  43  66  95 131 174 219 272 334 401
#
# _framework density 24.313735999999999
#
# number of rings (size 3 to 8) (size 9 to 14) (size 15 to 20)
#    0.000    1.250    0.000    5.250    0.000   12.000 
#    0.000    7.500    0.000    0.000    0.000    0.000 
#    0.000    0.000    0.000    0.000    0.000    0.000 
#
# Total GULP energy -89327.575848 kJ/mol
# GULP energy per Si atom -5582.973490 kJ/mol
# Density = 2.425840 g / cm^3
# Si number density = 24.313736 Si / 1000 Ang^3
#
#
#
# Elastic Constant Matrix: (Units=GPa)
#
#
# Indices 1 2 3 4 5 6 
#
# 1 127.4310 -14.9673 25.9777 0.0000 0.0000 0.0000
# 2 -14.9673 106.6006 0.8682 0.0000 0.0000 0.0000
# 3 25.9777 0.8682 53.3982 0.0000 0.0000 0.0000
# 4 0.0000 0.0000 0.0000 13.4472 0.0000 0.0000
# 5 0.0000 0.0000 0.0000 0.0000 74.5525 0.0000
# 6 0.0000 0.0000 0.0000 0.0000 0.0000 46.0215
#
#
#
# Elastic Compliance Matrix: (Units=1/GPa)
#
#
# Indices 1 2 3 4 5 6 
#
# 1 0.008883 0.001283 -0.004342 0.000000 0.000000 0.000000
# 2 0.001283 0.009567 -0.000780 0.000000 0.000000 0.000000
# 3 -0.004342 -0.000780 0.020852 0.000000 0.000000 0.000000
# 4 0.000000 0.000000 0.000000 0.074365 0.000000 0.000000
# 5 0.000000 0.000000 0.000000 0.000000 0.013413 0.000000
# 6 0.000000 0.000000 0.000000 0.000000 0.000000 0.021729
#
#
# Mechanical properties :
#
#
# Convention : Reuss Voigt Hill
#
# Bulk Modulus (GPa) = 31.62134 34.57634 33.09884
# Shear Modulus (GPa) = 29.93470 45.17433 37.55452
#
# Velocity S-wave (km/s) = 3.51263 4.31510 3.93438
# Velocity P-wave (km/s) = 5.43003 6.25129 5.85507
#
# Compressibility (1/GPa) = 0.03162421
#
# Stress axis : x y z
#
# Youngs Moduli (GPa) = 112.57105 104.52325 47.95596
#
# Poissons Ratio (x) = -0.13406 0.20825
# Poissons Ratio (y) = -0.14439 0.03738
# Poissons Ratio (z) = 0.48884 0.08148
#
# Static dielectric constant tensor:
#      x y z
#    x 2.115380 0.000000 0.000000 
#    y 0.000000 1.807950 0.000000 
#    z 0.000000 0.000000 1.918470 
# 
# From -- ./inp_files/12141.got.cif
#   From: 2010.05.17/outbox.cif.g08.bks.cpg/sg21_7_cif.got.tgz:12141.got - 2010.06.03 23:14:55.
