data_PCOD9324871
_publ_section_title
;
Structure prediction by ZEFSAII (Michael W. Deem and Ramdas Pophale) SiO2 
 PCOD9324871
Probable space group: C 2 2 2
;
_chemical_formula_sum "Si O2"
_cell_formula_units_Z 34
_cell_length_a 15.347950
_cell_length_b 5.861277
_cell_length_c 16.820983
_cell_angle_alpha 90.000000
_cell_angle_beta 90.000000
_cell_angle_gamma 90.000000
_cell_volume 1513.191851
_symmetry_space_group_name_H-M "C 2 2 2"
_symmetry_group_IT_number 21
_symmetry_cell_setting 'orthorhombic'
loop_
_space_group_symop_operation_xyz
x,y,z
-x,-y,z
x,-y,-z
-x,y,-z
1/2+x,1/2+y,z
1/2-x,1/2-y,z
1/2+x,1/2-y,-z
1/2-x,1/2+y,-z
loop_
_atom_site_type_symbol
_atom_site_label
_atom_site_fract_x
_atom_site_fract_y
_atom_site_fract_z
Si Si1 0.500000 0.000000 0.500000
Si Si2 0.205990 0.000000 0.500000
Si Si3 0.911031 0.626389 0.219206
Si Si4 0.916214 0.849885 0.375168
Si Si5 0.500000 0.500000 0.110512
Si Si6 0.651394 0.163272 0.074710
O O1 0.445759 0.164250 0.441135
O O2 0.250000 0.750000 0.507914
O O3 0.147692 0.017836 0.578998
O O4 0.872805 0.725831 0.300154
O O5 0.942186 0.833498 0.164455
O O6 0.858716 0.461857 0.160162
O O7 0.000000 0.500000 0.244770
O O8 0.000000 0.000000 0.349374
O O9 0.572858 0.344499 0.068915
O O10 0.750000 0.250000 0.068877
O O11 0.637290 0.000000 0.000000
#
# Coordination Sequence:
#
# PCOD9324871 Si02
#       6
#     2   4   8   8   4   8
#     4  12  20  40  80 108 138 198 274 310 378 462
#     4  12  28  48  67 113 162 210 260 326 408 476
#     4  10  23  44  75 112 140 193 254 324 388 466
#     4  12  23  44  77 105 145 202 263 317 382 478
#     4  10  24  49  74 107 150 184 256 307 400 456
#     4  11  28  51  77 110 154 202 257 323 397 488
#
# _framework density 22.469062000000001
#
# number of rings (size 3 to 8) (size 9 to 14) (size 15 to 20)
#    0.000    0.941    4.706    0.706    3.294    5.176 
#    4.235    0.000    0.000    0.000    0.000    0.000 
#    0.000    0.000    0.000    0.000    0.000    0.000 
#
# Total GULP energy -95034.797439 kJ/mol
# GULP energy per Si atom -5590.282202 kJ/mol
# Density = 2.241792 g / cm^3
# Si number density = 22.469062 Si / 1000 Ang^3
#
#
#
# Elastic Constant Matrix: (Units=GPa)
#
#
# Indices 1 2 3 4 5 6 
#
# 1 103.0790 53.6909 51.7279 0.0000 0.0000 0.0000
# 2 53.6909 111.6335 49.7106 0.0000 0.0000 0.0000
# 3 51.7279 49.7106 144.4736 0.0000 0.0000 0.0000
# 4 0.0000 0.0000 0.0000 55.5449 0.0000 0.0000
# 5 0.0000 0.0000 0.0000 0.0000 1.1890 0.0000
# 6 0.0000 0.0000 0.0000 0.0000 0.0000 43.2694
#
#
#
# Elastic Compliance Matrix: (Units=1/GPa)
#
#
# Indices 1 2 3 4 5 6 
#
# 1 0.014098 -0.005353 -0.003206 0.000000 0.000000 0.000000
# 2 -0.005353 0.012611 -0.002423 0.000000 0.000000 0.000000
# 3 -0.003206 -0.002423 0.008903 0.000000 0.000000 0.000000
# 4 0.000000 0.000000 0.000000 0.018003 0.000000 0.000000
# 5 0.000000 0.000000 0.000000 0.000000 0.841063 0.000000
# 6 0.000000 0.000000 0.000000 0.000000 0.000000 0.023111
#
#
# Mechanical properties :
#
#
# Convention : Reuss Voigt Hill
#
# Bulk Modulus (GPa) = 73.26316 74.38275 73.82296
# Shear Modulus (GPa) = 5.29491 33.60443 19.44967
#
# Velocity S-wave (km/s) = 1.53677 3.87148 2.94533
# Velocity P-wave (km/s) = 5.98547 7.29115 6.67033
#
# Compressibility (1/GPa) = 0.01364943
#
# Stress axis : x y z
#
# Youngs Moduli (GPa) = 70.92996 79.29380 112.31990
#
# Poissons Ratio (x) = 0.42447 0.36009
# Poissons Ratio (y) = 0.37970 0.27211
# Poissons Ratio (z) = 0.22740 0.19210
#
# Static dielectric constant tensor:
#      x y z
#    x 1.859970 0.000000 0.000000 
#    y 0.000000 1.862120 0.000000 
#    z 0.000000 0.000000 1.792620 
# 
# From -- ./inp_files/36793.got.cif
#   From: 2010.05.17/outbox.cif.g08.bks.cpg/sg21_19_cif.got.tgz:36793.got - 2010.06.03 23:14:55.
