data_PCOD9324341
_publ_section_title
;
Structure prediction by ZEFSAII (Michael W. Deem and Ramdas Pophale) SiO2 
 PCOD9324341
Probable space group: C 2 2 2
;
_chemical_formula_sum "Si O2"
_cell_formula_units_Z 64
_cell_length_a 25.297833
_cell_length_b 11.723209
_cell_length_c 10.465630
_cell_angle_alpha 90.000000
_cell_angle_beta 90.000000
_cell_angle_gamma 90.000000
_cell_volume 3103.810555
_symmetry_space_group_name_H-M "C 2 2 2"
_symmetry_group_IT_number 21
_symmetry_cell_setting 'orthorhombic'
loop_
_space_group_symop_operation_xyz
x,y,z
-x,-y,z
x,-y,-z
-x,y,-z
1/2+x,1/2+y,z
1/2-x,1/2-y,z
1/2+x,1/2-y,-z
1/2-x,1/2+y,-z
loop_
_atom_site_type_symbol
_atom_site_label
_atom_site_fract_x
_atom_site_fract_y
_atom_site_fract_z
Si Si1 0.207253 0.167588 0.207165
Si Si2 0.395555 0.738633 0.238776
Si Si3 0.184988 0.121436 0.942386
Si Si4 0.836996 0.871077 0.522688
Si Si5 0.389992 0.237387 0.295220
Si Si6 0.368340 0.015390 0.653683
Si Si7 0.755306 0.058432 0.307304
Si Si8 0.001819 0.863088 0.654470
O O1 0.250000 0.250000 0.266330
O O2 0.149547 0.218879 0.187384
O O3 0.209045 0.055690 0.292805
O O4 0.223261 0.144086 0.062636
O O5 0.363155 0.700505 0.111131
O O6 0.363930 0.672098 0.348576
O O7 0.454727 0.692709 0.262656
O O8 0.392624 0.871713 0.280475
O O9 0.226074 0.117951 0.822968
O O10 0.161936 0.000000 0.000000
O O11 0.855769 0.780750 0.418026
O O12 0.775761 0.878991 0.565895
O O13 0.857747 0.000000 0.500000
O O14 0.392585 0.101798 0.292362
O O15 0.444070 0.305030 0.299694
O O16 0.374952 0.000000 0.500000
O O17 0.305642 0.026312 0.683315
O O18 0.000000 0.839727 0.500000
O O19 0.000000 0.000000 0.669244
#
# Coordination Sequence:
#
# PCOD9324341 Si02
#       8
#     8   8   8   8   8   8   8   8
#     4  11  22  39  63  92 129 169 225 272 327 388
#     4  11  24  42  64  95 131 173 215 277 325 400
#     4   9  23  42  65  93 130 172 232 278 325 383
#     4  11  19  35  61  88 127 161 209 265 332 377
#     4  12  24  40  62  96 134 174 214 277 331 415
#     4  12  24  40  57  98 142 176 217 254 347 425
#     4  10  22  36  61  92 127 172 216 274 324 396
#     4  11  23  40  70  99 124 164 218 276 346 399
#
# _framework density 20.619816
#
# number of rings (size 3 to 8) (size 9 to 14) (size 15 to 20)
#    0.000    1.125    5.000    1.125    5.250    2.000 
#    2.250    2.500    0.000    0.000    0.000    1.750 
#    0.000    0.000    0.000    0.000    0.000    0.000 
#
# Total GULP energy -178230.429696 kJ/mol
# GULP energy per Si atom -5569.700928 kJ/mol
# Density = 2.057288 g / cm^3
# Si number density = 20.619816 Si / 1000 Ang^3
#
#
#
# Elastic Constant Matrix: (Units=GPa)
#
#
# Indices 1 2 3 4 5 6 
#
# 1 95.0125 43.4605 -9.2653 0.0000 0.0000 0.0000
# 2 43.4605 150.7563 13.1002 0.0000 0.0000 0.0000
# 3 -9.2653 13.1002 65.1295 0.0000 0.0000 0.0000
# 4 0.0000 0.0000 0.0000 17.5314 0.0000 0.0000
# 5 0.0000 0.0000 0.0000 0.0000 9.7131 0.0000
# 6 0.0000 0.0000 0.0000 0.0000 0.0000 0.8888
#
#
#
# Elastic Compliance Matrix: (Units=1/GPa)
#
#
# Indices 1 2 3 4 5 6 
#
# 1 0.012527 -0.003833 0.002553 0.000000 0.000000 0.000000
# 2 -0.003833 0.007924 -0.002139 0.000000 0.000000 0.000000
# 3 0.002553 -0.002139 0.016148 0.000000 0.000000 0.000000
# 4 0.000000 0.000000 0.000000 0.057041 0.000000 0.000000
# 5 0.000000 0.000000 0.000000 0.000000 0.102954 0.000000
# 6 0.000000 0.000000 0.000000 0.000000 0.000000 1.125175
#
#
# Mechanical properties :
#
#
# Convention : Reuss Voigt Hill
#
# Bulk Modulus (GPa) = 33.60168 45.05432 39.32800
# Shear Modulus (GPa) = 3.73545 23.20017 13.46781
#
# Velocity S-wave (km/s) = 1.34741 3.35795 2.55845
# Velocity P-wave (km/s) = 4.33034 6.07716 5.27654
#
# Compressibility (1/GPa) = 0.02976042
#
# Stress axis : x y z
#
# Youngs Moduli (GPa) = 79.82552 126.19610 61.92900
#
# Poissons Ratio (x) = 0.48374 -0.15811
# Poissons Ratio (y) = 0.30599 0.13248
# Poissons Ratio (z) = -0.20381 0.26996
#
# Static dielectric constant tensor:
#      x y z
#    x 1.834620 0.000000 0.000000 
#    y 0.000000 1.839390 0.000000 
#    z 0.000000 0.000000 1.841880 
# 
# From -- ./inp_files/27491.got.cif
#   From: 2010.05.17/outbox.cif.g08.bks.cpg/sg21_14_cif.got.tgz:27491.got - 2010.06.03 23:14:55.
