data_PCOD9324696
_publ_section_title
;
Structure prediction by ZEFSAII (Michael W. Deem and Ramdas Pophale) SiO2 
 PCOD9324696
Probable space group: C 2 2 2
;
_chemical_formula_sum "Si O2"
_cell_formula_units_Z 20
_cell_length_a 14.990496
_cell_length_b 4.876559
_cell_length_c 11.912098
_cell_angle_alpha 90.000000
_cell_angle_beta 90.000000
_cell_angle_gamma 90.000000
_cell_volume 870.798643
_symmetry_space_group_name_H-M "C 2 2 2"
_symmetry_group_IT_number 21
_symmetry_cell_setting 'orthorhombic'
loop_
_space_group_symop_operation_xyz
x,y,z
-x,-y,z
x,-y,-z
-x,y,-z
1/2+x,1/2+y,z
1/2-x,1/2-y,z
1/2+x,1/2-y,-z
1/2-x,1/2+y,-z
loop_
_atom_site_type_symbol
_atom_site_label
_atom_site_fract_x
_atom_site_fract_y
_atom_site_fract_z
Si Si1 0.559188 0.239196 0.316535
Si Si2 0.189454 0.000000 0.500000
Si Si3 0.317682 0.998415 0.125670
O O1 0.500000 0.500000 0.277331
O O2 0.629243 0.368871 0.403023
O O3 0.609364 0.074820 0.218021
O O4 0.500000 0.000000 0.371876
O O5 0.250000 0.750000 0.544597
O O6 0.250000 0.750000 0.124932
O O7 0.250000 0.250000 0.147454
O O8 0.357866 0.000000 0.000000
#
# Coordination Sequence:
#
# PCOD9324696 Si02
#       3
#     8   4   8
#     4  12  26  45  70 104 144 178 226 292 353 407
#     4  12  27  48  73  98 136 188 238 280 339 422
#     4  10  22  44  72 101 137 184 235 280 334 413
#
# _framework density 22.967421999999999
#
# number of rings (size 3 to 8) (size 9 to 14) (size 15 to 20)
#    0.000    0.800    0.000    6.600    0.000    5.600 
#    0.000    2.000    0.000    0.000    0.000    0.000 
#    0.000    0.000    0.000    0.000    0.000    0.000 
#
# Total GULP energy -55970.332432 kJ/mol
# GULP energy per Si atom -5597.033243 kJ/mol
# Density = 2.291515 g / cm^3
# Si number density = 22.967422 Si / 1000 Ang^3
#
#
#
# Elastic Constant Matrix: (Units=GPa)
#
#
# Indices 1 2 3 4 5 6 
#
# 1 119.4484 77.4624 98.8003 0.0000 0.0000 0.0000
# 2 77.4624 216.5291 78.4426 0.0000 0.0000 0.0000
# 3 98.8003 78.4426 158.4799 0.0000 0.0000 0.0000
# 4 0.0000 0.0000 0.0000 35.3691 0.0000 0.0000
# 5 0.0000 0.0000 0.0000 0.0000 58.4526 0.0000
# 6 0.0000 0.0000 0.0000 0.0000 0.0000 36.6306
#
#
#
# Elastic Compliance Matrix: (Units=1/GPa)
#
#
# Indices 1 2 3 4 5 6 
#
# 1 0.018774 -0.003017 -0.010211 0.000000 0.000000 0.000000
# 2 -0.003017 0.006112 -0.001144 0.000000 0.000000 0.000000
# 3 -0.010211 -0.001144 0.013242 0.000000 0.000000 0.000000
# 4 0.000000 0.000000 0.000000 0.028273 0.000000 0.000000
# 5 0.000000 0.000000 0.000000 0.000000 0.017108 0.000000
# 6 0.000000 0.000000 0.000000 0.000000 0.000000 0.027300
#
#
# Mechanical properties :
#
#
# Convention : Reuss Voigt Hill
#
# Bulk Modulus (GPa) = 106.56853 111.54088 109.05470
# Shear Modulus (GPa) = 35.04277 42.07392 38.55835
#
# Velocity S-wave (km/s) = 3.91034 4.28471 4.10180
# Velocity P-wave (km/s) = 8.17852 8.55269 8.36770
#
# Compressibility (1/GPa) = 0.00938363
#
# Stress axis : x y z
#
# Youngs Moduli (GPa) = 53.26392 163.60426 75.51650
#
# Poissons Ratio (x) = 0.49365 0.77110
# Poissons Ratio (y) = 0.16071 0.08642
# Poissons Ratio (z) = 0.54388 0.18722
#
# Static dielectric constant tensor:
#      x y z
#    x 1.887870 0.000000 0.000000 
#    y 0.000000 1.793400 0.000000 
#    z 0.000000 0.000000 2.234970 
# 
# From -- ./inp_files/20165.got.cif
#   From: 2010.05.17/outbox.cif.g08.bks.cpg/sg21_11_cif.got.tgz:20165.got - 2010.06.03 23:14:55.
