data_PCOD9324679
_publ_section_title
;
Structure prediction by ZEFSAII (Michael W. Deem and Ramdas Pophale) SiO2 
 PCOD9324679
Probable space group: C 2 2 2
;
_chemical_formula_sum "Si O2"
_cell_formula_units_Z 34
_cell_length_a 5.580148
_cell_length_b 13.454233
_cell_length_c 17.820451
_cell_angle_alpha 90.000000
_cell_angle_beta 90.000000
_cell_angle_gamma 90.000000
_cell_volume 1337.899074
_symmetry_space_group_name_H-M "C 2 2 2"
_symmetry_group_IT_number 21
_symmetry_cell_setting 'orthorhombic'
loop_
_space_group_symop_operation_xyz
x,y,z
-x,-y,z
x,-y,-z
-x,y,-z
1/2+x,1/2+y,z
1/2-x,1/2-y,z
1/2+x,1/2-y,-z
1/2-x,1/2+y,-z
loop_
_atom_site_type_symbol
_atom_site_label
_atom_site_fract_x
_atom_site_fract_y
_atom_site_fract_z
Si Si1 0.500000 0.500000 0.000000
Si Si2 0.868069 0.647385 0.922800
Si Si3 0.116883 0.357011 0.223614
Si Si4 0.104730 0.108763 0.580528
Si Si5 0.750000 0.750000 0.690787
Si Si6 0.500000 0.000000 0.342112
O O1 0.667589 0.568084 0.946831
O O2 0.750000 0.750000 0.895408
O O3 0.065575 0.613311 0.861845
O O4 0.000000 0.672380 0.000000
O O5 0.250000 0.250000 0.224578
O O6 0.181596 0.443072 0.283491
O O7 0.854093 0.333556 0.256428
O O8 0.056513 0.197806 0.637397
O O9 0.000000 0.138398 0.500000
O O10 0.382248 0.081271 0.601054
O O11 0.000000 0.000000 0.593178
#
# Coordination Sequence:
#
# PCOD9324679 Si02
#       6
#     2   8   8   8   4   4
#     4  12  30  48  72 108 156 188 264 300 368 448
#     4  12  26  47  72 108 148 199 250 308 375 439
#     4  11  24  43  73 102 144 190 239 305 361 438
#     4  10  22  44  67  98 137 182 232 298 359 437
#     4  10  22  46  64 104 134 184 238 288 374 432
#     4  10  24  43  69 104 144 188 246 298 377 438
#
# _framework density 25.412979
#
# number of rings (size 3 to 8) (size 9 to 14) (size 15 to 20)
#    0.000    1.176    2.353    2.471    3.294    1.882 
#   27.529    0.000    0.000    0.000    0.000    0.000 
#    0.000    0.000    0.000    0.000    0.000    0.000 
#
# Total GULP energy -94785.669406 kJ/mol
# GULP energy per Si atom -5575.627612 kJ/mol
# Density = 2.535514 g / cm^3
# Si number density = 25.412979 Si / 1000 Ang^3
#
#
#
# Elastic Constant Matrix: (Units=GPa)
#
#
# Indices 1 2 3 4 5 6 
#
# 1 42.0055 23.1434 37.3349 0.0000 0.0000 0.0000
# 2 23.1434 124.7701 24.6067 0.0000 0.0000 0.0000
# 3 37.3349 24.6067 184.2054 0.0000 0.0000 0.0000
# 4 0.0000 0.0000 0.0000 38.5793 0.0000 0.0000
# 5 0.0000 0.0000 0.0000 0.0000 35.1968 0.0000
# 6 0.0000 0.0000 0.0000 0.0000 0.0000 51.2546
#
#
#
# Elastic Compliance Matrix: (Units=1/GPa)
#
#
# Indices 1 2 3 4 5 6 
#
# 1 0.031521 -0.004711 -0.005759 0.000000 0.000000 0.000000
# 2 -0.004711 0.008936 -0.000239 0.000000 0.000000 0.000000
# 3 -0.005759 -0.000239 0.006628 0.000000 0.000000 0.000000
# 4 0.000000 0.000000 0.000000 0.025921 0.000000 0.000000
# 5 0.000000 0.000000 0.000000 0.000000 0.028412 0.000000
# 6 0.000000 0.000000 0.000000 0.000000 0.000000 0.019510
#
#
# Mechanical properties :
#
#
# Convention : Reuss Voigt Hill
#
# Bulk Modulus (GPa) = 38.96165 57.90565 48.43365
# Shear Modulus (GPa) = 33.13428 42.73254 37.93341
#
# Velocity S-wave (km/s) = 3.61478 4.10509 3.86771
# Velocity P-wave (km/s) = 5.72598 6.73085 6.24865
#
# Compressibility (1/GPa) = 0.02566626
#
# Stress axis : x y z
#
# Youngs Moduli (GPa) = 31.72489 111.91104 150.87622
#
# Poissons Ratio (x) = 0.52721 0.86896
# Poissons Ratio (y) = 0.14945 0.03603
# Poissons Ratio (z) = 0.18272 0.02673
#
# Static dielectric constant tensor:
#      x y z
#    x 2.257530 0.000000 0.000000 
#    y 0.000000 2.152270 0.000000 
#    z 0.000000 0.000000 1.989990 
# 
# From -- ./inp_files/34546.got.cif
#   From: 2010.05.17/outbox.cif.g08.bks.cpg/sg21_18_cif.got.tgz:34546.got - 2010.06.03 23:14:55.
