data_PCOD9324719
_publ_section_title
;
Structure prediction by ZEFSAII (Michael W. Deem and Ramdas Pophale) SiO2 
 PCOD9324719
Probable space group: C 2 2 2
;
_chemical_formula_sum "Si O2"
_cell_formula_units_Z 52
_cell_length_a 18.943027
_cell_length_b 6.074289
_cell_length_c 20.744021
_cell_angle_alpha 90.000000
_cell_angle_beta 90.000000
_cell_angle_gamma 90.000000
_cell_volume 2386.919500
_symmetry_space_group_name_H-M "C 2 2 2"
_symmetry_group_IT_number 21
_symmetry_cell_setting 'orthorhombic'
loop_
_space_group_symop_operation_xyz
x,y,z
-x,-y,z
x,-y,-z
-x,y,-z
1/2+x,1/2+y,z
1/2-x,1/2-y,z
1/2+x,1/2-y,-z
1/2-x,1/2+y,-z
loop_
_atom_site_type_symbol
_atom_site_label
_atom_site_fract_x
_atom_site_fract_y
_atom_site_fract_z
Si Si1 0.062382 0.178938 0.387405
Si Si2 0.591862 0.000000 0.500000
Si Si3 0.571446 0.638128 0.823963
Si Si4 0.669073 0.749699 0.177819
Si Si5 0.401731 0.022753 0.718528
Si Si6 0.084724 0.479355 0.926353
Si Si7 0.832960 0.202331 0.395131
O O1 0.053937 0.340940 0.448151
O O2 0.061908 0.329504 0.323358
O O3 0.136385 0.046401 0.395173
O O4 0.000000 0.000000 0.385902
O O5 0.637875 0.832584 0.542922
O O6 0.500000 0.500000 0.831274
O O7 0.634933 0.481558 0.802136
O O8 0.558245 0.830212 0.771865
O O9 0.596371 0.747573 0.890769
O O10 0.750000 0.750000 0.158729
O O11 0.658568 0.908658 0.238630
O O12 0.621712 0.841208 0.119015
O O13 0.369701 0.185680 0.666234
O O14 0.000000 0.500000 0.924970
O O15 0.108331 0.500000 0.000000
O O16 0.750000 0.250000 0.391559
#
# Coordination Sequence:
#
# PCOD9324719 Si02
#       7
#     8   4   8   8   8   8   8
#     4  11  26  49  71 105 140 183 231 294 349 416
#     4  10  26  45  74 100 135 178 228 280 349 416
#     4  11  23  44  73 103 140 191 235 292 349 416
#     4  11  25  43  69 106 143 187 230 293 357 413
#     4  10  26  42  71 102 143 180 233 283 350 421
#     4  10  22  45  70 103 139 182 245 292 346 419
#     4  11  26  43  71 102 135 179 227 285 348 415
#
# _framework density 21.785404
#
# number of rings (size 3 to 8) (size 9 to 14) (size 15 to 20)
#    0.000    1.385    1.538    1.385    6.462   11.692 
#    2.769    2.308    0.000    0.000    0.000    0.000 
#    0.000    0.000    0.000    0.000    0.000    0.000 
#
# Total GULP energy -145428.211120 kJ/mol
# GULP energy per Si atom -5593.392735 kJ/mol
# Density = 2.173582 g / cm^3
# Si number density = 21.785404 Si / 1000 Ang^3
#
#
#
# Elastic Constant Matrix: (Units=GPa)
#
#
# Indices 1 2 3 4 5 6 
#
# 1 105.7224 50.9412 31.7148 0.0000 0.0000 0.0000
# 2 50.9412 130.9380 52.1770 0.0000 0.0000 0.0000
# 3 31.7148 52.1770 153.4366 0.0000 0.0000 0.0000
# 4 0.0000 0.0000 0.0000 23.0906 0.0000 0.0000
# 5 0.0000 0.0000 0.0000 0.0000 14.1561 0.0000
# 6 0.0000 0.0000 0.0000 0.0000 0.0000 24.7856
#
#
#
# Elastic Compliance Matrix: (Units=1/GPa)
#
#
# Indices 1 2 3 4 5 6 
#
# 1 0.011776 -0.004177 -0.001013 0.000000 0.000000 0.000000
# 2 -0.004177 0.010316 -0.002645 0.000000 0.000000 0.000000
# 3 -0.001013 -0.002645 0.007626 0.000000 0.000000 0.000000
# 4 0.000000 0.000000 0.000000 0.043308 0.000000 0.000000
# 5 0.000000 0.000000 0.000000 0.000000 0.070641 0.000000
# 6 0.000000 0.000000 0.000000 0.000000 0.000000 0.040346
#
#
# Mechanical properties :
#
#
# Convention : Reuss Voigt Hill
#
# Bulk Modulus (GPa) = 71.18947 73.30699 72.24823
# Shear Modulus (GPa) = 24.46589 29.42405 26.94497
#
# Velocity S-wave (km/s) = 3.35482 3.67908 3.52068
# Velocity P-wave (km/s) = 6.91049 7.19515 7.05426
#
# Compressibility (1/GPa) = 0.01404702
#
# Stress axis : x y z
#
# Youngs Moduli (GPa) = 84.92136 96.93409 131.12781
#
# Poissons Ratio (x) = 0.40494 0.13289
# Poissons Ratio (y) = 0.35475 0.34679
# Poissons Ratio (z) = 0.08606 0.25636
#
# Static dielectric constant tensor:
#      x y z
#    x 1.816080 0.000000 0.000000 
#    y 0.000000 1.822200 0.000000 
#    z 0.000000 0.000000 1.765170 
# 
# From -- ./inp_files/37828.got.cif
#   From: 2010.05.17/outbox.cif.g08.bks.cpg/sg21_19_cif.got.tgz:37828.got - 2010.06.03 23:14:55.
