data_PCOD9324767
_publ_section_title
;
Structure prediction by ZEFSAII (Michael W. Deem and Ramdas Pophale) SiO2 
 PCOD9324767
Probable space group: C 2 2 2
;
_chemical_formula_sum "Si O2"
_cell_formula_units_Z 48
_cell_length_a 16.336494
_cell_length_b 13.665628
_cell_length_c 9.715622
_cell_angle_alpha 90.000000
_cell_angle_beta 90.000000
_cell_angle_gamma 90.000000
_cell_volume 2168.997551
_symmetry_space_group_name_H-M "C 2 2 2"
_symmetry_group_IT_number 21
_symmetry_cell_setting 'orthorhombic'
loop_
_space_group_symop_operation_xyz
x,y,z
-x,-y,z
x,-y,-z
-x,y,-z
1/2+x,1/2+y,z
1/2-x,1/2-y,z
1/2+x,1/2-y,-z
1/2-x,1/2+y,-z
loop_
_atom_site_type_symbol
_atom_site_label
_atom_site_fract_x
_atom_site_fract_y
_atom_site_fract_z
Si Si1 0.284336 0.360048 0.635004
Si Si2 0.045997 0.347747 0.365259
Si Si3 0.855647 0.997538 0.160715
Si Si4 0.048054 0.603576 0.123944
Si Si5 0.680904 0.991749 0.238268
Si Si6 0.919221 0.124200 0.590560
O O1 0.250000 0.250000 0.636959
O O2 0.337427 0.395502 0.769585
O O3 0.208301 0.434082 0.642234
O O4 0.339655 0.387534 0.505151
O O5 0.116950 0.414727 0.299621
O O6 0.079621 0.240059 0.385169
O O7 0.000000 0.386561 0.500000
O O8 0.971361 0.336905 0.258308
O O9 0.764494 0.949166 0.175985
O O10 0.911560 0.937407 0.268585
O O11 0.879808 0.000000 0.000000
O O12 0.139723 0.565132 0.125415
O O13 0.000000 0.500000 0.138557
O O14 0.000000 0.653352 0.000000
O O15 0.000000 0.102744 0.500000
#
# Coordination Sequence:
#
# PCOD9324767 Si02
#       6
#     8   8   8   8   8   8
#     4  10  25  44  68  98 138 185 232 299 359 423
#     4  10  23  38  64 103 138 172 228 283 349 428
#     4  10  25  47  71 103 131 191 239 296 369 425
#     4   9  19  36  61  96 134 180 204 265 352 415
#     4   9  23  41  67  97 145 173 229 289 348 431
#     4  11  26  46  70  99 141 182 244 299 357 427
#
# _framework density 22.130039
#
# number of rings (size 3 to 8) (size 9 to 14) (size 15 to 20)
#    1.000    1.167    0.000    0.500   11.667    5.667 
#    6.000    1.667    0.000    0.000    0.000    0.000 
#    0.000    0.000    0.000    0.000    0.000    0.000 
#
# Total GULP energy -133663.855016 kJ/mol
# GULP energy per Si atom -5569.327292 kJ/mol
# Density = 2.207967 g / cm^3
# Si number density = 22.130039 Si / 1000 Ang^3
#
#
#
# Elastic Constant Matrix: (Units=GPa)
#
#
# Indices 1 2 3 4 5 6 
#
# 1 96.9051 30.6460 44.9799 0.0000 0.0000 0.0000
# 2 30.6460 111.0478 40.8549 0.0000 0.0000 0.0000
# 3 44.9799 40.8549 166.4318 0.0000 0.0000 0.0000
# 4 0.0000 0.0000 0.0000 36.9494 0.0000 0.0000
# 5 0.0000 0.0000 0.0000 0.0000 21.3826 0.0000
# 6 0.0000 0.0000 0.0000 0.0000 0.0000 14.6741
#
#
#
# Elastic Compliance Matrix: (Units=1/GPa)
#
#
# Indices 1 2 3 4 5 6 
#
# 1 0.012354 -0.002398 -0.002750 0.000000 0.000000 0.000000
# 2 -0.002398 0.010364 -0.001896 0.000000 0.000000 0.000000
# 3 -0.002750 -0.001896 0.007217 0.000000 0.000000 0.000000
# 4 0.000000 0.000000 0.000000 0.027064 0.000000 0.000000
# 5 0.000000 0.000000 0.000000 0.000000 0.046767 0.000000
# 6 0.000000 0.000000 0.000000 0.000000 0.000000 0.068147
#
#
# Mechanical properties :
#
#
# Convention : Reuss Voigt Hill
#
# Bulk Modulus (GPa) = 63.10085 67.48291 65.29188
# Shear Modulus (GPa) = 26.13901 31.79480 28.96691
#
# Velocity S-wave (km/s) = 3.44052 3.79453 3.62185
# Velocity P-wave (km/s) = 6.66022 7.05393 6.85990
#
# Compressibility (1/GPa) = 0.01584765
#
# Stress axis : x y z
#
# Youngs Moduli (GPa) = 80.94421 96.48385 138.55705
#
# Poissons Ratio (x) = 0.23133 0.38107
# Poissons Ratio (y) = 0.19407 0.26274
# Poissons Ratio (z) = 0.22262 0.18296
#
# Static dielectric constant tensor:
#      x y z
#    x 1.838170 0.000000 0.000000 
#    y 0.000000 1.867120 0.000000 
#    z 0.000000 0.000000 1.616400 
# 
# From -- ./inp_files/16441.got.cif
#   From: 2010.05.17/outbox.cif.g08.bks.cpg/sg21_9_cif.got.tgz:16441.got - 2010.06.03 23:14:55.
