data_PCOD9324136
_publ_section_title
;
Structure prediction by ZEFSAII (Michael W. Deem and Ramdas Pophale) SiO2 
 PCOD9324136
Probable space group: C 2 2 2
;
_chemical_formula_sum "Si O2"
_cell_formula_units_Z 64
_cell_length_a 14.554698
_cell_length_b 12.621673
_cell_length_c 18.651992
_cell_angle_alpha 90.000000
_cell_angle_beta 90.000000
_cell_angle_gamma 90.000000
_cell_volume 3426.457453
_symmetry_space_group_name_H-M "C 2 2 2"
_symmetry_group_IT_number 21
_symmetry_cell_setting 'orthorhombic'
loop_
_space_group_symop_operation_xyz
x,y,z
-x,-y,z
x,-y,-z
-x,y,-z
1/2+x,1/2+y,z
1/2-x,1/2-y,z
1/2+x,1/2-y,-z
1/2-x,1/2+y,-z
loop_
_atom_site_type_symbol
_atom_site_label
_atom_site_fract_x
_atom_site_fract_y
_atom_site_fract_z
Si Si1 0.653695 0.223151 0.905138
Si Si2 0.706127 0.089200 0.282656
Si Si3 0.591042 0.305445 0.449883
Si Si4 0.409695 0.191902 0.948705
Si Si5 0.790188 0.591589 0.552463
Si Si6 0.898816 0.496825 0.837787
Si Si7 0.994661 0.126606 0.139966
Si Si8 0.403914 0.305811 0.717001
O O1 0.750000 0.250000 0.870803
O O2 0.587754 0.321299 0.889035
O O3 0.611378 0.116371 0.873989
O O4 0.664864 0.201162 0.989560
O O5 0.701405 0.056061 0.365097
O O6 0.677900 0.007977 0.222271
O O7 0.633262 0.185892 0.273444
O O8 0.809796 0.128655 0.271975
O O9 0.500000 0.318531 0.500000
O O10 0.682287 0.378773 0.461712
O O11 0.640963 0.190870 0.457030
O O12 0.564911 0.318574 0.365579
O O13 0.395120 0.093109 0.895499
O O14 0.420790 0.301988 0.904878
O O15 0.500000 0.176887 0.000000
O O16 0.818518 0.500000 0.500000
O O17 0.000000 0.500000 0.803911
O O18 0.975047 0.157364 0.222728
O O19 0.000000 0.000000 0.130385
#
# Coordination Sequence:
#
# PCOD9324136 Si02
#       8
#     8   8   8   8   8   8   8   8
#     4  11  26  41  57  92 126 153 200 263 312 363
#     4   9  19  35  64  90 115 160 209 252 298 365
#     4   9  19  38  63  86 120 165 207 248 299 367
#     4  10  21  40  63  86 115 160 207 244 303 373
#     4   9  19  39  58  88 129 155 199 261 301 354
#     4  12  20  39  68  87 120 163 206 255 306 371
#     4  11  23  41  63  85 126 161 198 254 316 361
#     4   9  18  39  61  88 120 158 211 249 295 372
#
# _framework density 18.678184000000002
#
# number of rings (size 3 to 8) (size 9 to 14) (size 15 to 20)
#    0.000    2.000    3.750    1.875    1.750    3.750 
#   13.500    0.000    0.000    0.000    0.000    0.000 
#    0.000    0.000    0.000    0.000    0.000    0.000 
#
# Total GULP energy -178219.168316 kJ/mol
# GULP energy per Si atom -5569.349010 kJ/mol
# Density = 1.863567 g / cm^3
# Si number density = 18.678184 Si / 1000 Ang^3
#
#
#
# Elastic Constant Matrix: (Units=GPa)
#
#
# Indices 1 2 3 4 5 6 
#
# 1 39.5812 1.8930 15.0206 0.0000 0.0000 0.0000
# 2 1.8930 88.3976 27.3009 0.0000 0.0000 0.0000
# 3 15.0206 27.3009 69.8506 0.0000 0.0000 0.0000
# 4 0.0000 0.0000 0.0000 17.8444 0.0000 0.0000
# 5 0.0000 0.0000 0.0000 0.0000 52.0129 0.0000
# 6 0.0000 0.0000 0.0000 0.0000 0.0000 12.0200
#
#
#
# Elastic Compliance Matrix: (Units=1/GPa)
#
#
# Indices 1 2 3 4 5 6 
#
# 1 0.027664 0.001416 -0.006502 0.000000 0.000000 0.000000
# 2 0.001416 0.012938 -0.005361 0.000000 0.000000 0.000000
# 3 -0.006502 -0.005361 0.017810 0.000000 0.000000 0.000000
# 4 0.000000 0.000000 0.000000 0.056040 0.000000 0.000000
# 5 0.000000 0.000000 0.000000 0.000000 0.019226 0.000000
# 6 0.000000 0.000000 0.000000 0.000000 0.000000 0.083195
#
#
# Mechanical properties :
#
#
# Convention : Reuss Voigt Hill
#
# Bulk Modulus (GPa) = 26.65473 31.80651 29.23062
# Shear Modulus (GPa) = 19.97809 26.61645 23.29727
#
# Velocity S-wave (km/s) = 3.27401 3.77901 3.53554
# Velocity P-wave (km/s) = 5.34731 6.00890 5.68773
#
# Compressibility (1/GPa) = 0.03751679
#
# Stress axis : x y z
#
# Youngs Moduli (GPa) = 36.14757 77.29184 56.14844
#
# Poissons Ratio (x) = -0.10943 0.36509
# Poissons Ratio (y) = -0.05118 0.30102
# Poissons Ratio (z) = 0.23504 0.41438
#
# Static dielectric constant tensor:
#      x y z
#    x 1.733440 0.000000 0.000000 
#    y 0.000000 1.637640 0.000000 
#    z 0.000000 0.000000 1.656340 
# 
# From -- ./inp_files/36725.got.cif
#   From: 2010.05.17/outbox.cif.g08.bks.cpg/sg21_19_cif.got.tgz:36725.got - 2010.06.03 23:14:55.
