data_PCOD9324999
_publ_section_title
;
Structure prediction by ZEFSAII (Michael W. Deem and Ramdas Pophale) SiO2 
 PCOD9324999
Probable space group: C 2 2 2
;
_chemical_formula_sum "Si O2"
_cell_formula_units_Z 56
_cell_length_a 14.531624
_cell_length_b 19.585430
_cell_length_c 8.604930
_cell_angle_alpha 90.000000
_cell_angle_beta 90.000000
_cell_angle_gamma 90.000000
_cell_volume 2449.032818
_symmetry_space_group_name_H-M "C 2 2 2"
_symmetry_group_IT_number 21
_symmetry_cell_setting 'orthorhombic'
loop_
_space_group_symop_operation_xyz
x,y,z
-x,-y,z
x,-y,-z
-x,y,-z
1/2+x,1/2+y,z
1/2-x,1/2-y,z
1/2+x,1/2-y,-z
1/2-x,1/2+y,-z
loop_
_atom_site_type_symbol
_atom_site_label
_atom_site_fract_x
_atom_site_fract_y
_atom_site_fract_z
Si Si1 0.421512 0.604002 0.382045
Si Si2 0.195663 0.929238 0.092609
Si Si3 0.690789 0.690840 0.122276
Si Si4 0.753191 0.831081 0.442623
Si Si5 0.499972 0.269366 0.813315
Si Si6 0.074660 0.358169 0.630660
Si Si7 0.412174 0.071981 0.914000
O O1 0.500000 0.575613 0.500000
O O2 0.360200 0.562494 0.254549
O O3 0.346801 0.638007 0.493737
O O4 0.466322 0.663504 0.276786
O O5 0.304211 0.906170 0.096915
O O6 0.154044 0.866974 0.991780
O O7 0.189935 0.000000 0.000000
O O8 0.750000 0.750000 0.040662
O O9 0.750759 0.655567 0.257914
O O10 0.609800 0.730396 0.214170
O O11 0.750000 0.750000 0.467329
O O12 0.671172 0.860524 0.544509
O O13 0.441135 0.206441 0.745998
O O14 0.500000 0.270373 0.000000
O O15 0.059499 0.424726 0.734946
O O16 0.000000 0.349078 0.500000
O O17 0.500000 0.107734 0.000000
O O18 0.406352 0.000000 0.000000
#
# Coordination Sequence:
#
# PCOD9324999 Si02
#       7
#     8   8   8   8   8   8   8
#     4  12  23  44  74 103 148 194 248 315 374 449
#     4  11  26  49  76 103 149 202 255 311 376 467
#     4  11  25  42  70 109 143 191 247 312 385 454
#     4  11  22  40  67 103 151 187 235 312 384 448
#     4  12  24  40  67 106 145 187 243 304 379 460
#     4  12  24  39  69 107 144 189 240 305 383 453
#     4  10  24  45  70 100 142 190 245 305 377 458
#
# _framework density 22.866168999999999
#
# number of rings (size 3 to 8) (size 9 to 14) (size 15 to 20)
#    0.000    0.714    5.714    2.571    6.000    0.571 
#    0.000    3.571    3.143    0.000    0.000    0.000 
#    0.000    0.000    0.000    0.000    0.000    0.000 
#
# Total GULP energy -156166.323162 kJ/mol
# GULP energy per Si atom -5577.368684 kJ/mol
# Density = 2.281412 g / cm^3
# Si number density = 22.866169 Si / 1000 Ang^3
#
#
#
# Elastic Constant Matrix: (Units=GPa)
#
#
# Indices 1 2 3 4 5 6 
#
# 1 142.5322 17.6849 42.5844 0.0000 0.0000 0.0000
# 2 17.6849 62.9986 36.6362 0.0000 0.0000 0.0000
# 3 42.5844 36.6362 156.6685 0.0000 0.0000 0.0000
# 4 0.0000 0.0000 0.0000 10.7248 0.0000 0.0000
# 5 0.0000 0.0000 0.0000 0.0000 0.1646 0.0000
# 6 0.0000 0.0000 0.0000 0.0000 0.0000 10.0805
#
#
#
# Elastic Compliance Matrix: (Units=1/GPa)
#
#
# Indices 1 2 3 4 5 6 
#
# 1 0.007701 -0.001093 -0.001837 0.000000 0.000000 0.000000
# 2 -0.001093 0.018527 -0.004035 0.000000 0.000000 0.000000
# 3 -0.001837 -0.004035 0.007826 0.000000 0.000000 0.000000
# 4 0.000000 0.000000 0.000000 0.093242 0.000000 0.000000
# 5 0.000000 0.000000 0.000000 0.000000 6.077028 0.000000
# 6 0.000000 0.000000 0.000000 0.000000 0.000000 0.099201
#
#
# Mechanical properties :
#
#
# Convention : Reuss Voigt Hill
#
# Bulk Modulus (GPa) = 49.69770 61.77891 55.73830
# Shear Modulus (GPa) = 0.79062 21.88022 11.33542
#
# Velocity S-wave (km/s) = 0.58865 3.09671 2.22891
# Velocity P-wave (km/s) = 4.71629 6.31367 5.57251
#
# Compressibility (1/GPa) = 0.02012166
#
# Stress axis : x y z
#
# Youngs Moduli (GPa) = 129.86038 53.97549 127.77924
#
# Poissons Ratio (x) = 0.05900 0.23479
# Poissons Ratio (y) = 0.14195 0.51563
# Poissons Ratio (z) = 0.23862 0.21781
#
# Static dielectric constant tensor:
#      x y z
#    x 2.035230 0.000000 0.000000 
#    y 0.000000 1.843580 0.000000 
#    z 0.000000 0.000000 1.883790 
# 
# From -- ./inp_files/15296.got.cif
#   From: 2010.05.17/outbox.cif.g08.bks.cpg/sg21_8_cif.got.tgz:15296.got - 2010.06.03 23:14:55.
