data_PCOD9324227
_publ_section_title
;
Structure prediction by ZEFSAII (Michael W. Deem and Ramdas Pophale) SiO2 
 PCOD9324227
Probable space group: C 2 2 2
;
_chemical_formula_sum "Si O2"
_cell_formula_units_Z 32
_cell_length_a 11.401853
_cell_length_b 21.109538
_cell_length_c 5.014668
_cell_angle_alpha 90.000000
_cell_angle_beta 90.000000
_cell_angle_gamma 90.000000
_cell_volume 1206.969655
_symmetry_space_group_name_H-M "C 2 2 2"
_symmetry_group_IT_number 21
_symmetry_cell_setting 'orthorhombic'
loop_
_space_group_symop_operation_xyz
x,y,z
-x,-y,z
x,-y,-z
-x,y,-z
1/2+x,1/2+y,z
1/2-x,1/2-y,z
1/2+x,1/2-y,-z
1/2-x,1/2+y,-z
loop_
_atom_site_type_symbol
_atom_site_label
_atom_site_fract_x
_atom_site_fract_y
_atom_site_fract_z
Si Si1 0.387201 0.250139 0.678535
Si Si2 0.654429 0.357934 0.889655
Si Si3 0.886019 0.389488 0.125055
Si Si4 0.335823 0.567094 0.382704
O O1 0.500000 0.269133 0.500000
O O2 0.250000 0.250000 0.568864
O O3 0.415379 0.177465 0.743166
O O4 0.376006 0.293945 0.947188
O O5 0.628346 0.378637 0.591671
O O6 0.795042 0.366663 0.898490
O O7 0.614586 0.412404 0.098035
O O8 0.804155 0.430335 0.319997
O O9 0.000000 0.420011 0.000000
O O10 0.367573 0.500000 0.500000
#
# Coordination Sequence:
#
# PCOD9324227 Si02
#       4
#     8   8   8   8
#     4  10  22  43  71 112 154 201 245 317 385 460
#     4   9  22  40  64  98 141 190 248 302 380 440
#     4   9  22  37  64 101 145 192 243 304 380 448
#     4  10  21  41  68  95 147 196 255 304 375 445
#
# _framework density 26.512678000000001
#
# number of rings (size 3 to 8) (size 9 to 14) (size 15 to 20)
#    1.500    1.000    0.000    0.750    3.500    2.000 
#    9.000    3.750    0.000    0.750    0.000    3.500 
#    0.000    0.000    0.000    0.000    0.000    0.000 
#
# Total GULP energy -89282.162157 kJ/mol
# GULP energy per Si atom -5580.135135 kJ/mol
# Density = 2.645233 g / cm^3
# Si number density = 26.512678 Si / 1000 Ang^3
#
#
#
# Elastic Constant Matrix: (Units=GPa)
#
#
# Indices 1 2 3 4 5 6 
#
# 1 220.3196 42.2804 83.0365 0.0000 0.0000 0.0000
# 2 42.2804 95.4654 -2.5428 0.0000 0.0000 0.0000
# 3 83.0365 -2.5428 108.4884 0.0000 0.0000 0.0000
# 4 0.0000 0.0000 0.0000 2.3884 0.0000 0.0000
# 5 0.0000 0.0000 0.0000 0.0000 52.6954 0.0000
# 6 0.0000 0.0000 0.0000 0.0000 0.0000 -90.4862
#
#
#
# Elastic Compliance Matrix: (Units=1/GPa)
#
#
# Indices 1 2 3 4 5 6 
#
# 1 0.007339 -0.003402 -0.005697 0.000000 0.000000 0.000000
# 2 -0.003402 0.012059 0.002887 0.000000 0.000000 0.000000
# 3 -0.005697 0.002887 0.013646 0.000000 0.000000 0.000000
# 4 0.000000 0.000000 0.000000 0.418691 0.000000 0.000000
# 5 0.000000 0.000000 0.000000 0.000000 0.018977 0.000000
# 6 0.000000 0.000000 0.000000 0.000000 0.000000 -0.011051
#
#
# Mechanical properties :
#
#
# Convention : Reuss Voigt Hill
#
# Bulk Modulus (GPa) = 48.50056 74.42461 61.46259
# Shear Modulus (GPa) = 10.43935 13.01947 11.72941
#
# Velocity S-wave (km/s) = 1.98646 2.21840 2.10563
# Velocity P-wave (km/s) = 4.85741 5.89016 5.39854
#
# Compressibility (1/GPa) = 0.02061832
#
# Stress axis : x y z
#
# Youngs Moduli (GPa) = 136.26197 82.92843 73.28399
#
# Poissons Ratio (x) = 0.28212 0.41749
# Poissons Ratio (y) = 0.46356 -0.21154
# Poissons Ratio (z) = 0.77626 -0.23937
#
# Static dielectric constant tensor:
#      x y z
#    x 2.243000 0.000000 0.000000 
#    y 0.000000 2.061990 0.000000 
#    z 0.000000 0.000000 2.237700 
# 
# From -- ./inp_files/2583.got.cif
#   From: 2010.05.17/outbox.cif.g08.bks.cpg/sg21_2_cif.got.tgz:2583.got - 2010.06.03 23:14:55.
