data_PCOD9324558
_publ_section_title
;
Structure prediction by ZEFSAII (Michael W. Deem and Ramdas Pophale) SiO2 
 PCOD9324558
Probable space group: C 2 2 2
;
_chemical_formula_sum "Si O2"
_cell_formula_units_Z 20
_cell_length_a 5.075936
_cell_length_b 15.127854
_cell_length_c 11.721098
_cell_angle_alpha 90.000000
_cell_angle_beta 90.000000
_cell_angle_gamma 90.000000
_cell_volume 900.039893
_symmetry_space_group_name_H-M "C 2 2 2"
_symmetry_group_IT_number 21
_symmetry_cell_setting 'orthorhombic'
loop_
_space_group_symop_operation_xyz
x,y,z
-x,-y,z
x,-y,-z
-x,y,-z
1/2+x,1/2+y,z
1/2-x,1/2-y,z
1/2+x,1/2-y,-z
1/2-x,1/2+y,-z
loop_
_atom_site_type_symbol
_atom_site_label
_atom_site_fract_x
_atom_site_fract_y
_atom_site_fract_z
Si Si1 0.752595 0.143533 0.924162
Si Si2 0.500000 0.198310 0.500000
Si Si3 0.748362 0.561693 0.325607
O O1 0.750000 0.250000 0.908849
O O2 0.780316 0.100331 0.800938
O O3 0.500000 0.118859 0.000000
O O4 0.000000 0.118806 0.000000
O O5 0.250000 0.250000 0.557734
O O6 0.331895 0.139688 0.411211
O O7 0.500000 0.500000 0.357390
O O8 0.000000 0.500000 0.325687
#
# Coordination Sequence:
#
# PCOD9324558 Si02
#       3
#     8   4   8
#     4  10  22  41  66  96 133 179 229 276 331 408
#     4  12  27  48  73  98 136 188 238 280 339 422
#     4  12  26  44  69 102 140 176 225 290 350 404
#
# _framework density 22.221235
#
# number of rings (size 3 to 8) (size 9 to 14) (size 15 to 20)
#    0.000    0.800    0.000    6.600    0.000   11.200 
#    0.000    0.000    0.000    0.000    0.000    0.000 
#    0.000    0.000    0.000    0.000    0.000    0.000 
#
# Total GULP energy -55949.336145 kJ/mol
# GULP energy per Si atom -5594.933614 kJ/mol
# Density = 2.217066 g / cm^3
# Si number density = 22.221235 Si / 1000 Ang^3
#
#
#
# Elastic Constant Matrix: (Units=GPa)
#
#
# Indices 1 2 3 4 5 6 
#
# 1 233.6409 59.9467 56.5490 0.0000 0.0000 0.0000
# 2 59.9467 66.2782 32.1716 0.0000 0.0000 0.0000
# 3 56.5490 32.1716 90.3144 0.0000 0.0000 0.0000
# 4 0.0000 0.0000 0.0000 88.1809 0.0000 0.0000
# 5 0.0000 0.0000 0.0000 0.0000 3628.8271 0.0000
# 6 0.0000 0.0000 0.0000 0.0000 0.0000 48.6172
#
#
#
# Elastic Compliance Matrix: (Units=1/GPa)
#
#
# Indices 1 2 3 4 5 6 
#
# 1 0.005906 -0.004288 -0.002170 0.000000 0.000000 0.000000
# 2 -0.004288 0.021356 -0.004922 0.000000 0.000000 0.000000
# 3 -0.002170 -0.004922 0.014185 0.000000 0.000000 0.000000
# 4 0.000000 0.000000 0.000000 0.011340 0.000000 0.000000
# 5 0.000000 0.000000 0.000000 0.000000 0.000276 0.000000
# 6 0.000000 0.000000 0.000000 0.000000 0.000000 0.020569
#
#
# Mechanical properties :
#
#
# Convention : Reuss Voigt Hill
#
# Bulk Modulus (GPa) = 53.51975 76.39648 64.95812
# Shear Modulus (GPa) = 48.72347 769.22945 408.97646
#
# Velocity S-wave (km/s) = 4.68766 18.62579 13.58113
# Velocity P-wave (km/s) = 7.31000 22.29383 16.58992
#
# Compressibility (1/GPa) = 0.01868469
#
# Stress axis : x y z
#
# Youngs Moduli (GPa) = 169.33305 46.82616 70.49839
#
# Poissons Ratio (x) = 0.20079 0.15300
# Poissons Ratio (y) = 0.72609 0.34702
# Poissons Ratio (z) = 0.36749 0.23050
#
# Static dielectric constant tensor:
#      x y z
#    x 1.760260 0.000000 0.000000 
#    y 0.000000 -3.241750 0.000000 
#    z 0.000000 0.000000 1.742260 
# 
# From -- ./inp_files/20107.got.cif
#   From: 2010.05.17/outbox.cif.g08.bks.cpg/sg21_11_cif.got.tgz:20107.got - 2010.06.03 23:14:55.
