data_PCOD9324196
_publ_section_title
;
Structure prediction by ZEFSAII (Michael W. Deem and Ramdas Pophale) SiO2 
 PCOD9324196
Probable space group: C 2 2 2
;
_chemical_formula_sum "Si O2"
_cell_formula_units_Z 30
_cell_length_a 5.740464
_cell_length_b 28.402537
_cell_length_c 8.514428
_cell_angle_alpha 90.000000
_cell_angle_beta 90.000000
_cell_angle_gamma 90.000000
_cell_volume 1388.224195
_symmetry_space_group_name_H-M "C 2 2 2"
_symmetry_group_IT_number 21
_symmetry_cell_setting 'orthorhombic'
loop_
_space_group_symop_operation_xyz
x,y,z
-x,-y,z
x,-y,-z
-x,y,-z
1/2+x,1/2+y,z
1/2-x,1/2-y,z
1/2+x,1/2-y,-z
1/2-x,1/2+y,-z
loop_
_atom_site_type_symbol
_atom_site_label
_atom_site_fract_x
_atom_site_fract_y
_atom_site_fract_z
Si Si1 0.000000 0.148437 0.000000
Si Si2 0.000000 0.500000 0.000000
Si Si3 0.329460 0.845201 0.260225
Si Si4 0.500000 0.223595 0.500000
Si Si5 0.707604 0.921825 0.214282
Si Si6 0.500000 0.603429 0.500000
O O1 0.868466 0.113710 0.882308
O O2 0.190723 0.173861 0.891144
O O3 0.158719 0.531744 0.885486
O O4 0.499588 0.808403 0.342963
O O5 0.466006 0.893214 0.222509
O O6 0.152436 0.861741 0.394256
O O7 0.250000 0.250000 0.505094
O O8 0.830981 0.926233 0.384279
#
# Coordination Sequence:
#
# PCOD9324196 Si02
#       6
#     4   2   8   4   8   4
#     4  10  22  39  76  95 130 204 223 286 382 457
#     4  12  24  42  66 106 146 182 270 298 364 422
#     4  11  21  44  71 103 141 185 239 293 389 443
#     4  12  27  44  78 112 146 189 255 326 362 455
#     4  11  22  42  68  99 140 188 236 310 354 457
#     4  10  21  40  73  97 132 198 233 284 384 446
#
# _framework density 21.610343
#
# number of rings (size 3 to 8) (size 9 to 14) (size 15 to 20)
#    0.000    1.067    5.333    0.800    3.733    0.533 
#    0.000    4.000    5.867    0.000    0.000    0.000 
#    0.000    0.000    0.000    0.000    0.000    0.000 
#
# Total GULP energy -83743.298734 kJ/mol
# GULP energy per Si atom -5582.886582 kJ/mol
# Density = 2.156116 g / cm^3
# Si number density = 21.610343 Si / 1000 Ang^3
#
#
#
# Elastic Constant Matrix: (Units=GPa)
#
#
# Indices 1 2 3 4 5 6 
#
# 1 77.5858 11.7751 35.0567 0.0000 0.0000 0.0000
# 2 11.7751 57.6273 23.6411 0.0000 0.0000 0.0000
# 3 35.0567 23.6411 130.5553 0.0000 0.0000 0.0000
# 4 0.0000 0.0000 0.0000 24.3023 0.0000 0.0000
# 5 0.0000 0.0000 0.0000 0.0000 67.9729 0.0000
# 6 0.0000 0.0000 0.0000 0.0000 0.0000 12.6567
#
#
#
# Elastic Compliance Matrix: (Units=1/GPa)
#
#
# Indices 1 2 3 4 5 6 
#
# 1 0.014788 -0.001504 -0.003699 0.000000 0.000000 0.000000
# 2 -0.001504 0.018898 -0.003018 0.000000 0.000000 0.000000
# 3 -0.003699 -0.003018 0.009199 0.000000 0.000000 0.000000
# 4 0.000000 0.000000 0.000000 0.041148 0.000000 0.000000
# 5 0.000000 0.000000 0.000000 0.000000 0.014712 0.000000
# 6 0.000000 0.000000 0.000000 0.000000 0.000000 0.079010
#
#
# Mechanical properties :
#
#
# Convention : Reuss Voigt Hill
#
# Bulk Modulus (GPa) = 37.81604 45.19048 41.50326
# Shear Modulus (GPa) = 24.62898 34.00607 29.31752
#
# Velocity S-wave (km/s) = 3.37958 3.97117 3.68726
# Velocity P-wave (km/s) = 5.72414 6.47949 6.11349
#
# Compressibility (1/GPa) = 0.02644381
#
# Stress axis : x y z
#
# Youngs Moduli (GPa) = 67.62026 52.91430 108.70430
#
# Poissons Ratio (x) = 0.07961 0.40205
# Poissons Ratio (y) = 0.10173 0.32809
# Poissons Ratio (z) = 0.25010 0.15971
#
# Static dielectric constant tensor:
#      x y z
#    x 1.752410 0.000000 0.000000 
#    y 0.000000 1.760530 0.000000 
#    z 0.000000 0.000000 1.817410 
# 
# From -- ./inp_files/9120.got.cif
#   From: 2010.05.17/outbox.cif.g08.bks.cpg/sg21_5_cif.got.tgz:9120.got - 2010.06.03 23:14:55.
