data_PCOD9324101
_publ_section_title
;
Structure prediction by ZEFSAII (Michael W. Deem and Ramdas Pophale) SiO2 
 PCOD9324101
Probable space group: C 2 2 2
;
_chemical_formula_sum "Si O2"
_cell_formula_units_Z 44
_cell_length_a 5.125347
_cell_length_b 27.590985
_cell_length_c 15.583003
_cell_angle_alpha 90.000000
_cell_angle_beta 90.000000
_cell_angle_gamma 90.000000
_cell_volume 2203.645003
_symmetry_space_group_name_H-M "C 2 2 2"
_symmetry_group_IT_number 21
_symmetry_cell_setting 'orthorhombic'
loop_
_space_group_symop_operation_xyz
x,y,z
-x,-y,z
x,-y,-z
-x,y,-z
1/2+x,1/2+y,z
1/2-x,1/2-y,z
1/2+x,1/2-y,-z
1/2-x,1/2+y,-z
loop_
_atom_site_type_symbol
_atom_site_label
_atom_site_fract_x
_atom_site_fract_y
_atom_site_fract_z
Si Si1 0.498034 0.217195 0.168600
Si Si2 0.369653 0.880657 0.245482
Si Si3 0.000000 0.914411 0.000000
Si Si4 0.500000 0.500000 0.323235
Si Si5 0.000000 0.653869 0.000000
Si Si6 0.847698 0.932480 0.182583
Si Si7 0.895071 0.444530 0.407452
O O1 0.250000 0.250000 0.192483
O O2 0.580378 0.176195 0.237438
O O3 0.750000 0.250000 0.153406
O O4 0.440054 0.188229 0.080974
O O5 0.573832 0.905335 0.180316
O O6 0.449747 0.904028 0.336647
O O7 0.078350 0.897980 0.220643
O O8 0.934698 0.943914 0.086154
O O9 0.752831 0.879378 0.983296
O O10 0.313521 0.475745 0.251106
O O11 0.593548 0.457515 0.386579
O O12 0.000000 0.500000 0.394752
O O13 0.000000 0.430114 0.500000
#
# Coordination Sequence:
#
# PCOD9324101 Si02
#       7
#     8   8   4   4   4   8   8
#     4  12  23  38  60  86 118 161 208 256 304 355
#     4  11  22  41  59  87 124 161 195 251 309 363
#     4  12  20  36  58  82 121 168 205 250 293 355
#     4  10  22  38  60  90 128 158 204 245 295 368
#     4  12  22  37  56  87 117 152 212 264 310 337
#     4  11  21  37  58  82 123 167 204 243 297 349
#     4  10  21  39  65  95 123 151 193 248 310 367
#
# _framework density 19.966918
#
# number of rings (size 3 to 8) (size 9 to 14) (size 15 to 20)
#    0.000    0.909    5.455    2.727    0.000    1.818 
#    0.000    0.000    0.000    4.364    0.000    0.000 
#    0.000    0.000    0.000    0.000    0.000    0.000 
#
# Total GULP energy -122646.299504 kJ/mol
# GULP energy per Si atom -5574.831796 kJ/mol
# Density = 1.992147 g / cm^3
# Si number density = 19.966918 Si / 1000 Ang^3
#
#
#
# Elastic Constant Matrix: (Units=GPa)
#
#
# Indices 1 2 3 4 5 6 
#
# 1 81.4553 4.9351 5.1544 0.0000 0.0000 0.0000
# 2 4.9351 61.4056 33.5302 0.0000 0.0000 0.0000
# 3 5.1544 33.5302 149.3490 0.0000 0.0000 0.0000
# 4 0.0000 0.0000 0.0000 16.5309 0.0000 0.0000
# 5 0.0000 0.0000 0.0000 0.0000 20.5861 0.0000
# 6 0.0000 0.0000 0.0000 0.0000 0.0000 23.9649
#
#
#
# Elastic Compliance Matrix: (Units=1/GPa)
#
#
# Indices 1 2 3 4 5 6 
#
# 1 0.012344 -0.000866 -0.000232 0.000000 0.000000 0.000000
# 2 -0.000866 0.018621 -0.004151 0.000000 0.000000 0.000000
# 3 -0.000232 -0.004151 0.007636 0.000000 0.000000 0.000000
# 4 0.000000 0.000000 0.000000 0.060493 0.000000 0.000000
# 5 0.000000 0.000000 0.000000 0.000000 0.048576 0.000000
# 6 0.000000 0.000000 0.000000 0.000000 0.000000 0.041728
#
#
# Mechanical properties :
#
#
# Convention : Reuss Voigt Hill
#
# Bulk Modulus (GPa) = 35.58136 42.16106 38.87121
# Shear Modulus (GPa) = 23.89355 28.78908 26.34132
#
# Velocity S-wave (km/s) = 3.46303 3.80127 3.63609
# Velocity P-wave (km/s) = 5.81798 6.35827 6.09411
#
# Compressibility (1/GPa) = 0.02810460
#
# Stress axis : x y z
#
# Youngs Moduli (GPa) = 81.01253 53.70211 130.96536
#
# Poissons Ratio (x) = 0.04648 0.03034
# Poissons Ratio (y) = 0.07012 0.54361
# Poissons Ratio (z) = 0.01877 0.22291
#
# Static dielectric constant tensor:
#      x y z
#    x 1.959810 0.000000 0.000000 
#    y 0.000000 1.725150 0.000000 
#    z 0.000000 0.000000 1.718070 
# 
# From -- ./inp_files/29342.got.cif
#   From: 2010.05.17/outbox.cif.g08.bks.cpg/sg21_15_cif.got.tgz:29342.got - 2010.06.03 23:14:55.
