data_PCOD9324026
_publ_section_title
;
Structure prediction by ZEFSAII (Michael W. Deem and Ramdas Pophale) SiO2 
 PCOD9324026
Probable space group: C 2 2 2
;
_chemical_formula_sum "Si O2"
_cell_formula_units_Z 42
_cell_length_a 14.219862
_cell_length_b 7.479507
_cell_length_c 15.974375
_cell_angle_alpha 90.000000
_cell_angle_beta 90.000000
_cell_angle_gamma 90.000000
_cell_volume 1698.995505
_symmetry_space_group_name_H-M "C 2 2 2"
_symmetry_group_IT_number 21
_symmetry_cell_setting 'orthorhombic'
loop_
_space_group_symop_operation_xyz
x,y,z
-x,-y,z
x,-y,-z
-x,y,-z
1/2+x,1/2+y,z
1/2-x,1/2-y,z
1/2+x,1/2-y,-z
1/2-x,1/2+y,-z
loop_
_atom_site_type_symbol
_atom_site_label
_atom_site_fract_x
_atom_site_fract_y
_atom_site_fract_z
Si Si1 0.375596 0.672261 0.197102
Si Si2 0.612798 0.990783 0.283820
Si Si3 0.000000 0.000000 0.500000
Si Si4 0.646966 0.812862 0.453261
Si Si5 0.092595 0.196419 0.164575
Si Si6 0.355223 0.208905 0.993795
O O1 0.346882 0.812739 0.267225
O O2 0.488563 0.679240 0.201078
O O3 0.347474 0.466491 0.201185
O O4 0.356493 0.732578 0.102056
O O5 0.500000 0.000000 0.301617
O O6 0.655942 0.877154 0.357745
O O7 0.625961 0.886976 0.196353
O O8 0.072723 0.146717 0.458491
O O9 0.750000 0.750000 0.484620
O O10 0.618388 0.000000 0.500000
O O11 0.084704 0.190586 0.064393
O O12 0.250000 0.250000 0.024853
O O13 0.377674 0.000000 0.000000
#
# Coordination Sequence:
#
# PCOD9324026 Si02
#       6
#     8   8   2   8   8   8
#     4  10  21  40  62  92 128 178 229 293 360 441
#     4  10  22  42  70 101 142 184 240 310 374 457
#     4  12  26  52  92 116 172 208 256 344 388 476
#     4  12  27  52  82 122 160 209 264 317 404 490
#     4  10  21  38  64  91 126 174 235 286 368 433
#     4  12  23  37  57  84 128 175 234 296 357 432
#
# _framework density 24.720490999999999
#
# number of rings (size 3 to 8) (size 9 to 14) (size 15 to 20)
#    0.000    1.143    2.857    3.714    0.000    7.619 
#    3.429    0.000    0.000    0.000    0.000    0.000 
#    0.000    0.000    0.000    0.000    0.000    0.000 
#
# Total GULP energy -117288.761993 kJ/mol
# GULP energy per Si atom -5585.179143 kJ/mol
# Density = 2.466423 g / cm^3
# Si number density = 24.720491 Si / 1000 Ang^3
#
#
#
# Elastic Constant Matrix: (Units=GPa)
#
#
# Indices 1 2 3 4 5 6 
#
# 1 95.9850 41.3823 2.0802 0.0000 0.0000 0.0000
# 2 41.3823 141.8770 26.3549 0.0000 0.0000 0.0000
# 3 2.0802 26.3549 74.3538 0.0000 0.0000 0.0000
# 4 0.0000 0.0000 0.0000 39.5200 0.0000 0.0000
# 5 0.0000 0.0000 0.0000 0.0000 -34.2597 0.0000
# 6 0.0000 0.0000 0.0000 0.0000 0.0000 29.2523
#
#
#
# Elastic Compliance Matrix: (Units=1/GPa)
#
#
# Indices 1 2 3 4 5 6 
#
# 1 0.011981 -0.003674 0.000967 0.000000 0.000000 0.000000
# 2 -0.003674 0.008672 -0.002971 0.000000 0.000000 0.000000
# 3 0.000967 -0.002971 0.014475 0.000000 0.000000 0.000000
# 4 0.000000 0.000000 0.000000 0.025304 0.000000 0.000000
# 5 0.000000 0.000000 0.000000 0.000000 -0.029189 0.000000
# 6 0.000000 0.000000 0.000000 0.000000 0.000000 0.034185
#
#
# Mechanical properties :
#
#
# Convention : Reuss Voigt Hill
#
# Bulk Modulus (GPa) = 42.06576 50.20560 46.13568
# Shear Modulus (GPa) = 59.02530 23.06241 41.04385
#
# Velocity S-wave (km/s) = 4.89172 3.05770 4.07912
# Velocity P-wave (km/s) = 6.99705 5.72882 6.39446
#
# Compressibility (1/GPa) = 0.02377230
#
# Stress axis : x y z
#
# Youngs Moduli (GPa) = 83.46211 115.31384 69.08349
#
# Poissons Ratio (x) = 0.42371 -0.06682
# Poissons Ratio (y) = 0.30667 0.20525
# Poissons Ratio (z) = -0.08072 0.34260
#
# Static dielectric constant tensor:
#      x y z
#    x 2.032150 0.000000 0.000000 
#    y 0.000000 1.993200 0.000000 
#    z 0.000000 0.000000 1.944430 
# 
# From -- ./inp_files/32139.got.cif
#   From: 2010.05.17/outbox.cif.g08.bks.cpg/sg21_17_cif.got.tgz:32139.got - 2010.06.03 23:14:55.
