data_PCOD9324798
_publ_section_title
;
Structure prediction by ZEFSAII (Michael W. Deem and Ramdas Pophale) SiO2 
 PCOD9324798
Probable space group: C 2 2 2
;
_chemical_formula_sum "Si O2"
_cell_formula_units_Z 64
_cell_length_a 10.529257
_cell_length_b 17.937434
_cell_length_c 16.267446
_cell_angle_alpha 90.000000
_cell_angle_beta 90.000000
_cell_angle_gamma 90.000000
_cell_volume 3072.397592
_symmetry_space_group_name_H-M "C 2 2 2"
_symmetry_group_IT_number 21
_symmetry_cell_setting 'orthorhombic'
loop_
_space_group_symop_operation_xyz
x,y,z
-x,-y,z
x,-y,-z
-x,y,-z
1/2+x,1/2+y,z
1/2-x,1/2-y,z
1/2+x,1/2-y,-z
1/2-x,1/2+y,-z
loop_
_atom_site_type_symbol
_atom_site_label
_atom_site_fract_x
_atom_site_fract_y
_atom_site_fract_z
Si Si1 0.718204 0.001752 0.090723
Si Si2 0.701906 0.335956 0.521901
Si Si3 0.441962 0.665804 0.677640
Si Si4 0.991013 0.678333 0.729856
Si Si5 0.277159 0.370866 0.670448
Si Si6 0.502969 0.123094 0.091136
Si Si7 0.647824 0.519045 0.259900
Si Si8 0.435304 0.919269 0.580719
O O1 0.613004 0.935973 0.092991
O O2 0.813118 0.993752 0.165934
O O3 0.633587 0.076279 0.098981
O O4 0.777828 0.000000 0.000000
O O5 0.750000 0.250000 0.532222
O O6 0.577712 0.341114 0.579460
O O7 0.707781 0.353020 0.425535
O O8 0.790982 0.400984 0.560034
O O9 0.428103 0.751339 0.700337
O O10 0.585986 0.650293 0.706759
O O11 0.348111 0.606515 0.719108
O O12 0.840537 0.674904 0.707205
O O13 0.006938 0.670647 0.826848
O O14 0.038160 0.612325 0.670745
O O15 0.267385 0.459886 0.688440
O O16 0.500000 0.158717 0.000000
O O17 0.500000 0.500000 0.276736
O O18 0.500000 0.879116 0.500000
O O19 0.500000 0.000000 0.580489
#
# Coordination Sequence:
#
# PCOD9324798 Si02
#       8
#     8   8   8   8   8   8   8   8
#     4   9  18  37  65  96 123 159 206 273 338 393
#     4  12  24  42  64  91 135 172 225 282 344 401
#     4  11  26  40  62  94 129 172 226 270 335 406
#     4  12  22  41  68  90 132 174 217 271 345 400
#     4  11  24  41  67  87 124 182 225 272 328 404
#     4   9  20  36  66 100 125 156 212 273 337 403
#     4  10  23  41  59  93 125 166 224 266 320 403
#     4  11  26  40  60  99 129 164 225 278 330 395
#
# _framework density 20.830636999999999
#
# number of rings (size 3 to 8) (size 9 to 14) (size 15 to 20)
#    0.000    1.375    3.750    2.250    5.250    0.750 
#    0.000    1.875    5.500    0.000    0.000    0.000 
#    0.000    0.000    0.000    0.000    0.000    0.000 
#
# Total GULP energy -178393.194766 kJ/mol
# GULP energy per Si atom -5574.787336 kJ/mol
# Density = 2.078323 g / cm^3
# Si number density = 20.830637 Si / 1000 Ang^3
#
#
#
# Elastic Constant Matrix: (Units=GPa)
#
#
# Indices 1 2 3 4 5 6 
#
# 1 40.8829 14.3352 17.5041 0.0000 0.0000 0.0000
# 2 14.3352 109.8707 42.2588 0.0000 0.0000 0.0000
# 3 17.5041 42.2588 150.9236 0.0000 0.0000 0.0000
# 4 0.0000 0.0000 0.0000 10.1971 0.0000 0.0000
# 5 0.0000 0.0000 0.0000 0.0000 29.2594 0.0000
# 6 0.0000 0.0000 0.0000 0.0000 0.0000 16.5634
#
#
#
# Elastic Compliance Matrix: (Units=1/GPa)
#
#
# Indices 1 2 3 4 5 6 
#
# 1 0.026354 -0.002536 -0.002346 0.000000 0.000000 0.000000
# 2 -0.002536 0.010444 -0.002630 0.000000 0.000000 0.000000
# 3 -0.002346 -0.002630 0.007634 0.000000 0.000000 0.000000
# 4 0.000000 0.000000 0.000000 0.098067 0.000000 0.000000
# 5 0.000000 0.000000 0.000000 0.000000 0.034177 0.000000
# 6 0.000000 0.000000 0.000000 0.000000 0.000000 0.060374
#
#
# Mechanical properties :
#
#
# Convention : Reuss Voigt Hill
#
# Bulk Modulus (GPa) = 34.00526 49.98593 41.99559
# Shear Modulus (GPa) = 19.09281 26.37591 22.73436
#
# Velocity S-wave (km/s) = 3.03078 3.56224 3.30720
# Velocity P-wave (km/s) = 5.34861 6.40061 5.89811
#
# Compressibility (1/GPa) = 0.02940722
#
# Stress axis : x y z
#
# Youngs Moduli (GPa) = 37.94495 95.74744 130.98464
#
# Poissons Ratio (x) = 0.24282 0.30735
# Poissons Ratio (y) = 0.09623 0.34452
# Poissons Ratio (z) = 0.08904 0.25184
#
# Static dielectric constant tensor:
#      x y z
#    x 1.805130 0.000000 0.000000 
#    y 0.000000 1.828950 0.000000 
#    z 0.000000 0.000000 1.730660 
# 
# From -- ./inp_files/31770.got.cif
#   From: 2010.05.17/outbox.cif.g08.bks.cpg/sg21_16_cif.got.tgz:31770.got - 2010.06.03 23:14:55.
