data_PCOD9324641
_publ_section_title
;
Structure prediction by ZEFSAII (Michael W. Deem and Ramdas Pophale) SiO2 
 PCOD9324641
Probable space group: C 2 2 2
;
_chemical_formula_sum "Si O2"
_cell_formula_units_Z 40
_cell_length_a 8.708181
_cell_length_b 25.713396
_cell_length_c 8.425019
_cell_angle_alpha 90.000000
_cell_angle_beta 90.000000
_cell_angle_gamma 90.000000
_cell_volume 1886.504192
_symmetry_space_group_name_H-M "C 2 2 2"
_symmetry_group_IT_number 21
_symmetry_cell_setting 'orthorhombic'
loop_
_space_group_symop_operation_xyz
x,y,z
-x,-y,z
x,-y,-z
-x,y,-z
1/2+x,1/2+y,z
1/2-x,1/2-y,z
1/2+x,1/2-y,-z
1/2-x,1/2+y,-z
loop_
_atom_site_type_symbol
_atom_site_label
_atom_site_fract_x
_atom_site_fract_y
_atom_site_fract_z
Si Si1 0.750000 0.750000 0.330863
Si Si2 0.974499 0.663324 0.187318
Si Si3 0.320650 0.514438 0.179438
Si Si4 0.716867 0.375802 0.320543
Si Si5 0.000000 0.816806 0.500000
Si Si6 0.145839 0.568339 0.613691
O O1 0.863111 0.711033 0.234809
O O2 0.857477 0.783567 0.443679
O O3 0.901203 0.609493 0.251077
O O4 0.141682 0.661525 0.273912
O O5 0.000000 0.662806 0.000000
O O6 0.500000 0.500000 0.204003
O O7 0.292914 0.575485 0.203637
O O8 0.220896 0.481494 0.304653
O O9 0.278627 0.500000 0.000000
O O10 0.556601 0.347427 0.344159
O O11 0.742620 0.401406 0.493849
O O12 0.000000 0.557768 0.500000
#
# Coordination Sequence:
#
# PCOD9324641 Si02
#       6
#     4   8   8   8   4   8
#     4  12  26  44  72  98 136 176 236 296 354 398
#     4  11  25  45  68  99 136 178 224 288 349 413
#     4  11  24  41  66 104 145 182 218 274 345 417
#     4  11  23  42  70 101 132 181 226 281 337 404
#     4  12  24  44  71 104 132 177 234 300 332 406
#     4  10  22  43  66  99 132 178 229 273 334 405
#
# _framework density 21.203237999999999
#
# number of rings (size 3 to 8) (size 9 to 14) (size 15 to 20)
#    0.000    1.000    2.000    4.200    1.400    8.000 
#    0.000    5.000    0.000    0.000    0.000    0.000 
#    0.000    0.000    0.000    0.000    0.000    0.000 
#
# Total GULP energy -111828.574480 kJ/mol
# GULP energy per Si atom -5591.428724 kJ/mol
# Density = 2.115498 g / cm^3
# Si number density = 21.203238 Si / 1000 Ang^3
#
#
#
# Elastic Constant Matrix: (Units=GPa)
#
#
# Indices 1 2 3 4 5 6 
#
# 1 99.8611 56.9388 40.2825 0.0000 0.0000 0.0000
# 2 56.9388 115.9540 57.1218 0.0000 0.0000 0.0000
# 3 40.2825 57.1218 130.9901 0.0000 0.0000 0.0000
# 4 0.0000 0.0000 0.0000 22.1881 0.0000 0.0000
# 5 0.0000 0.0000 0.0000 0.0000 26.8250 0.0000
# 6 0.0000 0.0000 0.0000 0.0000 0.0000 41.8366
#
#
#
# Elastic Compliance Matrix: (Units=1/GPa)
#
#
# Indices 1 2 3 4 5 6 
#
# 1 0.014195 -0.006139 -0.001688 0.000000 0.000000 0.000000
# 2 -0.006139 0.013638 -0.004060 0.000000 0.000000 0.000000
# 3 -0.001688 -0.004060 0.009924 0.000000 0.000000 0.000000
# 4 0.000000 0.000000 0.000000 0.045069 0.000000 0.000000
# 5 0.000000 0.000000 0.000000 0.000000 0.037279 0.000000
# 6 0.000000 0.000000 0.000000 0.000000 0.000000 0.023902
#
#
# Mechanical properties :
#
#
# Convention : Reuss Voigt Hill
#
# Bulk Modulus (GPa) = 71.51129 72.83238 72.17184
# Shear Modulus (GPa) = 28.99523 31.00077 29.99800
#
# Velocity S-wave (km/s) = 3.70197 3.82786 3.76544
# Velocity P-wave (km/s) = 7.21613 7.34581 7.28126
#
# Compressibility (1/GPa) = 0.01398381
#
# Stress axis : x y z
#
# Youngs Moduli (GPa) = 70.44652 73.32254 100.76922
#
# Poissons Ratio (x) = 0.45011 0.17014
# Poissons Ratio (y) = 0.43245 0.40908
# Poissons Ratio (z) = 0.11894 0.29766
#
# Static dielectric constant tensor:
#      x y z
#    x 1.825410 0.000000 0.000000 
#    y 0.000000 1.801620 0.000000 
#    z 0.000000 0.000000 1.735770 
# 
# From -- ./inp_files/10994.got.cif
#   From: 2010.05.17/outbox.cif.g08.bks.cpg/sg21_6_cif.got.tgz:10994.got - 2010.06.03 23:14:55.
