data_PCOD9324022
_publ_section_title
;
Structure prediction by ZEFSAII (Michael W. Deem and Ramdas Pophale) SiO2 
 PCOD9324022
Probable space group: C 2 2 2
;
_chemical_formula_sum "Si O2"
_cell_formula_units_Z 56
_cell_length_a 14.372751
_cell_length_b 11.693008
_cell_length_c 16.037022
_cell_angle_alpha 90.000000
_cell_angle_beta 90.000000
_cell_angle_gamma 90.000000
_cell_volume 2695.193022
_symmetry_space_group_name_H-M "C 2 2 2"
_symmetry_group_IT_number 21
_symmetry_cell_setting 'orthorhombic'
loop_
_space_group_symop_operation_xyz
x,y,z
-x,-y,z
x,-y,-z
-x,y,-z
1/2+x,1/2+y,z
1/2-x,1/2-y,z
1/2+x,1/2-y,-z
1/2-x,1/2+y,-z
loop_
_atom_site_type_symbol
_atom_site_label
_atom_site_fract_x
_atom_site_fract_y
_atom_site_fract_z
Si Si1 0.941278 0.687272 0.915337
Si Si2 0.597878 0.548068 0.907000
Si Si3 0.466681 0.823755 0.409052
Si Si4 0.590009 0.442488 0.408950
Si Si5 0.556588 0.880861 0.240713
Si Si6 0.704282 0.970559 0.832453
Si Si7 0.277794 0.122453 0.658148
O O1 0.899886 0.814590 0.915050
O O2 0.863775 0.588307 0.900680
O O3 0.007963 0.687094 0.834135
O O4 0.000000 0.668291 0.000000
O O5 0.500000 0.500000 0.870773
O O6 0.691412 0.509613 0.861518
O O7 0.601686 0.500000 0.000000
O O8 0.500000 0.858339 0.500000
O O9 0.434839 0.691392 0.415406
O O10 0.540078 0.830795 0.332678
O O11 0.376818 0.899706 0.384177
O O12 0.500000 0.500000 0.366695
O O13 0.598526 0.500000 0.500000
O O14 0.689469 0.454604 0.364591
O O15 0.500000 0.000000 0.241754
O O16 0.658011 0.917413 0.208987
O O17 0.706440 0.880788 0.756470
O O18 0.250000 0.250000 0.632581
#
# Coordination Sequence:
#
# PCOD9324022 Si02
#       7
#     8   8   8   8   8   8   8
#     4  11  22  43  72  98 136 176 226 281 333 414
#     4  11  24  45  65 100 138 178 230 275 345 415
#     4  11  21  41  72  95 142 177 222 297 343 397
#     4  10  21  41  64  97 130 180 236 274 336 421
#     4  10  23  42  65 104 134 169 236 273 338 416
#     4  11  24  43  68  99 137 178 229 278 341 412
#     4  10  21  38  64 100 129 176 231 278 341 415
#
# _framework density 20.777732
#
# number of rings (size 3 to 8) (size 9 to 14) (size 15 to 20)
#    0.000    1.429    5.714    1.286    4.000    4.000 
#    0.000    0.714    0.000    0.000    0.000    0.000 
#    0.000    0.000    0.000    0.000    0.000    0.000 
#
# Total GULP energy -156215.836729 kJ/mol
# GULP energy per Si atom -5579.137026 kJ/mol
# Density = 2.073044 g / cm^3
# Si number density = 20.777732 Si / 1000 Ang^3
#
#
#
# Elastic Constant Matrix: (Units=GPa)
#
#
# Indices 1 2 3 4 5 6 
#
# 1 180.6068 21.5359 72.9317 0.0000 0.0000 0.0000
# 2 21.5359 55.1279 23.8703 0.0000 0.0000 0.0000
# 3 72.9317 23.8703 131.5616 0.0000 0.0000 0.0000
# 4 0.0000 0.0000 0.0000 3.8769 0.0000 0.0000
# 5 0.0000 0.0000 0.0000 0.0000 31.3983 0.0000
# 6 0.0000 0.0000 0.0000 0.0000 0.0000 27.8374
#
#
#
# Elastic Compliance Matrix: (Units=1/GPa)
#
#
# Indices 1 2 3 4 5 6 
#
# 1 0.007204 -0.001178 -0.003780 0.000000 0.000000 0.000000
# 2 -0.001178 0.019879 -0.002954 0.000000 0.000000 0.000000
# 3 -0.003780 -0.002954 0.010232 0.000000 0.000000 0.000000
# 4 0.000000 0.000000 0.000000 0.257936 0.000000 0.000000
# 5 0.000000 0.000000 0.000000 0.000000 0.031849 0.000000
# 6 0.000000 0.000000 0.000000 0.000000 0.000000 0.035923
#
#
# Mechanical properties :
#
#
# Convention : Reuss Voigt Hill
#
# Bulk Modulus (GPa) = 46.52859 67.10799 56.81829
# Shear Modulus (GPa) = 12.95306 29.21976 21.08641
#
# Velocity S-wave (km/s) = 2.49953 3.75414 3.18914
# Velocity P-wave (km/s) = 5.54728 7.15259 6.40046
#
# Compressibility (1/GPa) = 0.02149216
#
# Stress axis : x y z
#
# Youngs Moduli (GPa) = 138.81962 50.30507 97.73014
#
# Poissons Ratio (x) = 0.05923 0.36939
# Poissons Ratio (y) = 0.16346 0.28870
# Poissons Ratio (z) = 0.52470 0.14860
#
# Static dielectric constant tensor:
#      x y z
#    x 1.825540 0.000000 0.000000 
#    y 0.000000 1.769880 0.000000 
#    z 0.000000 0.000000 1.763430 
# 
# From -- ./inp_files/32308.got.cif
#   From: 2010.05.17/outbox.cif.g08.bks.cpg/sg21_17_cif.got.tgz:32308.got - 2010.06.03 23:14:55.
