data_PCOD9324565
_publ_section_title
;
Structure prediction by ZEFSAII (Michael W. Deem and Ramdas Pophale) SiO2 
 PCOD9324565
Probable space group: C 2 2 2
;
_chemical_formula_sum "Si O2"
_cell_formula_units_Z 58
_cell_length_a 7.713439
_cell_length_b 29.459555
_cell_length_c 12.163738
_cell_angle_alpha 90.000000
_cell_angle_beta 90.000000
_cell_angle_gamma 90.000000
_cell_volume 2764.020685
_symmetry_space_group_name_H-M "C 2 2 2"
_symmetry_group_IT_number 21
_symmetry_cell_setting 'orthorhombic'
loop_
_space_group_symop_operation_xyz
x,y,z
-x,-y,z
x,-y,-z
-x,y,-z
1/2+x,1/2+y,z
1/2-x,1/2-y,z
1/2+x,1/2-y,-z
1/2-x,1/2+y,-z
loop_
_atom_site_type_symbol
_atom_site_label
_atom_site_fract_x
_atom_site_fract_y
_atom_site_fract_z
Si Si1 0.000000 0.000000 0.000000
Si Si2 0.941668 0.452457 0.125666
Si Si3 0.358569 0.869090 0.772873
Si Si4 0.451205 0.546207 0.200175
Si Si5 0.622467 0.705462 0.106661
Si Si6 0.040770 0.791167 0.338902
Si Si7 0.427357 0.610768 0.618215
Si Si8 0.943876 0.693671 0.614021
O O1 0.073488 0.964063 0.907887
O O2 0.736425 0.450895 0.145033
O O3 0.000000 0.500000 0.179947
O O4 0.032628 0.407728 0.169434
O O5 0.000000 0.454823 0.000000
O O6 0.232955 0.839513 0.854398
O O7 0.262251 0.894833 0.670929
O O8 0.483597 0.832871 0.717054
O O9 0.500000 0.500000 0.266249
O O10 0.465201 0.587880 0.282496
O O11 0.750000 0.750000 0.095540
O O12 0.492451 0.712900 0.209096
O O13 0.500000 0.699113 0.000000
O O14 0.974675 0.743863 0.385673
O O15 0.239378 0.799943 0.370882
O O16 0.940445 0.834807 0.381121
O O17 0.500000 0.595073 0.500000
O O18 0.000000 0.671081 0.500000
#
# Coordination Sequence:
#
# PCOD9324565 Si02
#       8
#     2   8   8   8   8   8   8   8
#     4   8  20  40  72  92 124 168 222 278 336 404
#     4  11  24  42  68 100 132 170 223 289 347 412
#     4  11  25  41  65 100 133 177 233 277 346 419
#     4  10  22  41  69  95 134 169 224 282 349 413
#     4  11  25  43  67  92 139 183 232 287 351 414
#     4  10  23  41  63  93 131 173 228 278 336 404
#     4  11  23  40  64  96 136 178 226 282 342 408
#     4  11  22  40  67  93 127 174 225 281 339 404
#
# _framework density 20.983923999999998
#
# number of rings (size 3 to 8) (size 9 to 14) (size 15 to 20)
#    0.414    0.966    1.379    3.724    3.862    7.448 
#    1.241    0.000    0.000    2.897    0.000    0.000 
#    0.000    0.000    0.000    0.000    0.000    0.000 
#
# Total GULP energy -161435.760783 kJ/mol
# GULP energy per Si atom -5566.750372 kJ/mol
# Density = 2.093616 g / cm^3
# Si number density = 20.983924 Si / 1000 Ang^3
#
#
#
# Elastic Constant Matrix: (Units=GPa)
#
#
# Indices 1 2 3 4 5 6 
#
# 1 92.2664 38.4833 31.0589 0.0000 0.0000 0.0000
# 2 38.4833 106.5146 52.0002 0.0000 0.0000 0.0000
# 3 31.0589 52.0002 131.2844 0.0000 0.0000 0.0000
# 4 0.0000 0.0000 0.0000 3.2601 0.0000 0.0000
# 5 0.0000 0.0000 0.0000 0.0000 26.4388 0.0000
# 6 0.0000 0.0000 0.0000 0.0000 0.0000 28.4709
#
#
#
# Elastic Compliance Matrix: (Units=1/GPa)
#
#
# Indices 1 2 3 4 5 6 
#
# 1 0.012997 -0.003961 -0.001506 0.000000 0.000000 0.000000
# 2 -0.003961 0.012846 -0.004151 0.000000 0.000000 0.000000
# 3 -0.001506 -0.004151 0.009618 0.000000 0.000000 0.000000
# 4 0.000000 0.000000 0.000000 0.306737 0.000000 0.000000
# 5 0.000000 0.000000 0.000000 0.000000 0.037823 0.000000
# 6 0.000000 0.000000 0.000000 0.000000 0.000000 0.035124
#
#
# Mechanical properties :
#
#
# Convention : Reuss Voigt Hill
#
# Bulk Modulus (GPa) = 61.63318 63.68334 62.65826
# Shear Modulus (GPa) = 11.36912 25.53549 18.45231
#
# Velocity S-wave (km/s) = 2.33019 3.49220 2.96861
# Velocity P-wave (km/s) = 6.05600 6.83192 6.45563
#
# Compressibility (1/GPa) = 0.01622503
#
# Stress axis : x y z
#
# Youngs Moduli (GPa) = 76.94049 77.84600 103.97635
#
# Poissons Ratio (x) = 0.30831 0.15660
# Poissons Ratio (y) = 0.30472 0.43162
# Poissons Ratio (z) = 0.11588 0.32315
#
# Static dielectric constant tensor:
#      x y z
#    x 1.857980 0.000000 0.000000 
#    y 0.000000 1.819780 0.000000 
#    z 0.000000 0.000000 1.786650 
# 
# From -- ./inp_files/23088.got.cif
#   From: 2010.05.17/outbox.cif.g08.bks.cpg/sg21_12_cif.got.tgz:23088.got - 2010.06.03 23:14:55.
