data_PCOD9324599
_publ_section_title
;
Structure prediction by ZEFSAII (Michael W. Deem and Ramdas Pophale) SiO2 
 PCOD9324599
Probable space group: C 2 2 2
;
_chemical_formula_sum "Si O2"
_cell_formula_units_Z 40
_cell_length_a 16.322080
_cell_length_b 12.776108
_cell_length_c 8.329907
_cell_angle_alpha 90.000000
_cell_angle_beta 90.000000
_cell_angle_gamma 90.000000
_cell_volume 1737.057638
_symmetry_space_group_name_H-M "C 2 2 2"
_symmetry_group_IT_number 21
_symmetry_cell_setting 'orthorhombic'
loop_
_space_group_symop_operation_xyz
x,y,z
-x,-y,z
x,-y,-z
-x,y,-z
1/2+x,1/2+y,z
1/2-x,1/2-y,z
1/2+x,1/2-y,-z
1/2-x,1/2+y,-z
loop_
_atom_site_type_symbol
_atom_site_label
_atom_site_fract_x
_atom_site_fract_y
_atom_site_fract_z
Si Si1 0.413078 0.728596 0.916504
Si Si2 0.086146 0.370607 0.586957
Si Si3 0.164953 0.194456 0.749614
Si Si4 0.168446 0.036194 0.180115
Si Si5 0.645917 0.072962 0.740797
O O1 0.387276 0.637898 0.790586
O O2 0.406652 0.842750 0.838424
O O3 0.500000 0.709410 0.000000
O O4 0.347985 0.718527 0.061662
O O5 0.093902 0.256912 0.660001
O O6 0.105729 0.458076 0.721351
O O7 0.150459 0.386619 0.442549
O O8 0.000000 0.387250 0.500000
O O9 0.250000 0.250000 0.702640
O O10 0.161423 0.070809 0.719415
O O11 0.263894 0.066298 0.186621
O O12 0.145713 0.000000 0.000000
#
# Coordination Sequence:
#
# PCOD9324599 Si02
#       5
#     8   8   8   8   8
#     4  11  24  41  68 101 135 178 226 289 348 405
#     4  11  25  44  66  99 138 177 227 287 344 409
#     4  11  22  43  70  95 134 180 230 280 346 416
#     4  10  22  42  68  99 133 176 232 281 340 422
#     4  11  22  42  65  97 139 176 227 287 338 415
#
# _framework density 23.027446000000001
#
# number of rings (size 3 to 8) (size 9 to 14) (size 15 to 20)
#    0.000    1.200    2.000    5.400    0.000    5.200 
#    0.000    1.000    0.000    2.400    0.000    0.000 
#    0.000    0.000    0.000    0.000    0.000    0.000 
#
# Total GULP energy -111801.650973 kJ/mol
# GULP energy per Si atom -5590.082549 kJ/mol
# Density = 2.297503 g / cm^3
# Si number density = 23.027446 Si / 1000 Ang^3
#
#
#
# Elastic Constant Matrix: (Units=GPa)
#
#
# Indices 1 2 3 4 5 6 
#
# 1 107.6840 71.3567 0.1559 0.0000 0.0000 0.0000
# 2 71.3567 145.8359 18.1676 0.0000 0.0000 0.0000
# 3 0.1559 18.1676 14.9621 0.0000 0.0000 0.0000
# 4 0.0000 0.0000 0.0000 27.0149 0.0000 0.0000
# 5 0.0000 0.0000 0.0000 0.0000 27.6938 0.0000
# 6 0.0000 0.0000 0.0000 0.0000 0.0000 30.5779
#
#
#
# Elastic Compliance Matrix: (Units=1/GPa)
#
#
# Indices 1 2 3 4 5 6 
#
# 1 0.014978 -0.008612 0.010301 0.000000 0.000000 0.000000
# 2 -0.008612 0.013031 -0.015733 0.000000 0.000000 0.000000
# 3 0.010301 -0.015733 0.085832 0.000000 0.000000 0.000000
# 4 0.000000 0.000000 0.000000 0.037017 0.000000 0.000000
# 5 0.000000 0.000000 0.000000 0.000000 0.036109 0.000000
# 6 0.000000 0.000000 0.000000 0.000000 0.000000 0.032703
#
#
# Mechanical properties :
#
#
# Convention : Reuss Voigt Hill
#
# Bulk Modulus (GPa) = 11.66137 49.76026 30.71081
# Shear Modulus (GPa) = 18.09353 28.97743 23.53548
#
# Velocity S-wave (km/s) = 2.80614 3.55122 3.20044
# Velocity P-wave (km/s) = 3.94644 6.20249 5.19833
#
# Compressibility (1/GPa) = 0.08575323
#
# Stress axis : x y z
#
# Youngs Moduli (GPa) = 66.76334 76.74151 11.65070
#
# Poissons Ratio (x) = 0.66090 -0.12001
# Poissons Ratio (y) = 0.57497 0.18330
# Poissons Ratio (z) = -0.68773 1.20736
#
# Static dielectric constant tensor:
#      x y z
#    x 1.901960 0.000000 0.000000 
#    y 0.000000 1.914060 0.000000 
#    z 0.000000 0.000000 1.890540 
# 
# From -- ./inp_files/16132.got.cif
#   From: 2010.05.17/outbox.cif.g08.bks.cpg/sg21_9_cif.got.tgz:16132.got - 2010.06.03 23:14:55.
