data_PCOD9324951
_publ_section_title
;
Structure prediction by ZEFSAII (Michael W. Deem and Ramdas Pophale) SiO2 
 PCOD9324951
Probable space group: C 2 2 2
;
_chemical_formula_sum "Si O2"
_cell_formula_units_Z 38
_cell_length_a 21.386379
_cell_length_b 8.293521
_cell_length_c 8.743881
_cell_angle_alpha 90.000000
_cell_angle_beta 90.000000
_cell_angle_gamma 90.000000
_cell_volume 1550.888037
_symmetry_space_group_name_H-M "C 2 2 2"
_symmetry_group_IT_number 21
_symmetry_cell_setting 'orthorhombic'
loop_
_space_group_symop_operation_xyz
x,y,z
-x,-y,z
x,-y,-z
-x,y,-z
1/2+x,1/2+y,z
1/2-x,1/2-y,z
1/2+x,1/2-y,-z
1/2-x,1/2+y,-z
loop_
_atom_site_type_symbol
_atom_site_label
_atom_site_fract_x
_atom_site_fract_y
_atom_site_fract_z
Si Si1 0.569180 0.992185 0.320294
Si Si2 0.250000 0.750000 0.234661
Si Si3 0.896884 0.000000 0.000000
Si Si4 0.121986 0.325946 0.914341
Si Si5 0.720909 0.500000 0.500000
Si Si6 0.500000 0.500000 0.500000
Si Si7 0.884767 0.148602 0.684782
O O1 0.606661 0.834029 0.275005
O O2 0.500000 0.000000 0.252725
O O3 0.565473 0.000000 0.500000
O O4 0.601962 0.148810 0.259906
O O5 0.192584 0.733229 0.113046
O O6 0.248215 0.595598 0.354831
O O7 0.869197 0.960201 0.167849
O O8 0.922197 0.181138 0.026313
O O9 0.117335 0.500000 0.000000
O O10 0.673037 0.370096 0.571710
O O11 0.451115 0.597709 0.607206
#
# Coordination Sequence:
#
# PCOD9324951 Si02
#       7
#     8   4   4   8   4   2   8
#     4  11  25  46  76 107 144 192 245 307 368 443
#     4  12  28  44  80 106 142 194 250 308 370 440
#     4  12  26  49  70 106 150 198 233 308 370 444
#     4  12  28  51  72 107 149 192 248 305 371 447
#     4  11  26  45  72 110 141 192 245 306 364 442
#     4  10  24  42  70 112 140 206 240 292 362 436
#     4  11  24  46  72 104 154 185 246 301 365 440
#
# _framework density 24.502092000000001
#
# number of rings (size 3 to 8) (size 9 to 14) (size 15 to 20)
#    0.000    0.632    4.211    2.526   11.789    0.842 
#    0.000    0.000    0.000    0.000    0.000    0.000 
#    0.000    0.000    0.000    0.000    0.000    0.000 
#
# Total GULP energy -105772.837906 kJ/mol
# GULP energy per Si atom -5566.991469 kJ/mol
# Density = 2.444632 g / cm^3
# Si number density = 24.502092 Si / 1000 Ang^3
#
#
#
# Elastic Constant Matrix: (Units=GPa)
#
#
# Indices 1 2 3 4 5 6 
#
# 1 67.1402 6.4242 -1.0226 0.0000 0.0000 0.0000
# 2 6.4242 154.1306 30.1226 0.0000 0.0000 0.0000
# 3 -1.0226 30.1226 86.2374 0.0000 0.0000 0.0000
# 4 0.0000 0.0000 0.0000 16.2714 0.0000 0.0000
# 5 0.0000 0.0000 0.0000 0.0000 41.7255 0.0000
# 6 0.0000 0.0000 0.0000 0.0000 0.0000 1.8519
#
#
#
# Elastic Compliance Matrix: (Units=1/GPa)
#
#
# Indices 1 2 3 4 5 6 
#
# 1 0.014968 -0.000707 0.000424 0.000000 0.000000 0.000000
# 2 -0.000707 0.006997 -0.002452 0.000000 0.000000 0.000000
# 3 0.000424 -0.002452 0.012458 0.000000 0.000000 0.000000
# 4 0.000000 0.000000 0.000000 0.061458 0.000000 0.000000
# 5 0.000000 0.000000 0.000000 0.000000 0.023966 0.000000
# 6 0.000000 0.000000 0.000000 0.000000 0.000000 0.539999
#
#
# Mechanical properties :
#
#
# Convention : Reuss Voigt Hill
#
# Bulk Modulus (GPa) = 34.53868 42.06182 38.30025
# Shear Modulus (GPa) = 7.40778 30.10202 18.75490
#
# Velocity S-wave (km/s) = 1.74066 3.50887 2.76966
# Velocity P-wave (km/s) = 4.26224 5.79828 5.08855
#
# Compressibility (1/GPa) = 0.02895305
#
# Stress axis : x y z
#
# Youngs Moduli (GPa) = 66.80782 142.92380 80.27279
#
# Poissons Ratio (x) = 0.10102 -0.03407
# Poissons Ratio (y) = 0.04722 0.19686
# Poissons Ratio (z) = -0.02835 0.35050
#
# Static dielectric constant tensor:
#      x y z
#    x 2.191040 0.000000 0.000000 
#    y 0.000000 2.002170 0.000000 
#    z 0.000000 0.000000 2.328240 
# 
# From -- ./inp_files/11036.got.cif
#   From: 2010.05.17/outbox.cif.g08.bks.cpg/sg21_6_cif.got.tgz:11036.got - 2010.06.03 23:14:55.
