data_PCOD9324721
_publ_section_title
;
Structure prediction by ZEFSAII (Michael W. Deem and Ramdas Pophale) SiO2 
 PCOD9324721
Probable space group: C 2 2 2
;
_chemical_formula_sum "Si O2"
_cell_formula_units_Z 32
_cell_length_a 11.839797
_cell_length_b 8.183857
_cell_length_c 14.303758
_cell_angle_alpha 90.000000
_cell_angle_beta 90.000000
_cell_angle_gamma 90.000000
_cell_volume 1385.965572
_symmetry_space_group_name_H-M "C 2 2 2"
_symmetry_group_IT_number 21
_symmetry_cell_setting 'orthorhombic'
loop_
_space_group_symop_operation_xyz
x,y,z
-x,-y,z
x,-y,-z
-x,y,-z
1/2+x,1/2+y,z
1/2-x,1/2-y,z
1/2+x,1/2-y,-z
1/2-x,1/2+y,-z
loop_
_atom_site_type_symbol
_atom_site_label
_atom_site_fract_x
_atom_site_fract_y
_atom_site_fract_z
Si Si1 0.318414 0.976259 0.891736
Si Si2 0.421895 0.360296 0.150137
Si Si3 0.127608 0.310271 0.526683
Si Si4 0.568763 0.166326 0.267927
O O1 0.402302 0.819375 0.894958
O O2 0.203184 0.928301 0.840437
O O3 0.366280 0.123724 0.829125
O O4 0.289878 0.000000 0.000000
O O5 0.500000 0.500000 0.104913
O O6 0.483279 0.311532 0.245354
O O7 0.123574 0.500000 0.500000
O O8 0.250000 0.250000 0.487425
O O9 0.133926 0.294913 0.638754
O O10 0.000000 0.243760 0.500000
O O11 0.500000 0.000000 0.287359
#
# Coordination Sequence:
#
# PCOD9324721 Si02
#       4
#     8   8   8   8
#     4  10  24  43  64  99 142 187 228 283 347 415
#     4  10  24  41  65 100 133 181 237 285 338 414
#     4  11  25  48  73 107 142 187 238 307 370 441
#     4  10  22  45  70  97 142 184 229 291 366 419
#
# _framework density 23.088595000000002
#
# number of rings (size 3 to 8) (size 9 to 14) (size 15 to 20)
#    0.000    1.750    2.500    0.000    3.500   13.500 
#    0.000    0.000    0.000    0.000    0.000    0.000 
#    0.000    0.000    0.000    0.000    0.000    0.000 
#
# Total GULP energy -89148.510092 kJ/mol
# GULP energy per Si atom -5571.781881 kJ/mol
# Density = 2.303604 g / cm^3
# Si number density = 23.088595 Si / 1000 Ang^3
#
#
#
# Elastic Constant Matrix: (Units=GPa)
#
#
# Indices 1 2 3 4 5 6 
#
# 1 179.8913 52.5456 48.9348 0.0000 0.0000 0.0000
# 2 52.5456 69.0848 12.6832 0.0000 0.0000 0.0000
# 3 48.9348 12.6832 99.2058 0.0000 0.0000 0.0000
# 4 0.0000 0.0000 0.0000 -34.5856 0.0000 0.0000
# 5 0.0000 0.0000 0.0000 0.0000 36.0179 0.0000
# 6 0.0000 0.0000 0.0000 0.0000 0.0000 39.9394
#
#
#
# Elastic Compliance Matrix: (Units=1/GPa)
#
#
# Indices 1 2 3 4 5 6 
#
# 1 0.008065 -0.005534 -0.003271 0.000000 0.000000 0.000000
# 2 -0.005534 0.018620 0.000349 0.000000 0.000000 0.000000
# 3 -0.003271 0.000349 0.011649 0.000000 0.000000 0.000000
# 4 0.000000 0.000000 0.000000 -0.028914 0.000000 0.000000
# 5 0.000000 0.000000 0.000000 0.000000 0.027764 0.000000
# 6 0.000000 0.000000 0.000000 0.000000 0.000000 0.025038
#
#
# Mechanical properties :
#
#
# Convention : Reuss Voigt Hill
#
# Bulk Modulus (GPa) = 46.67906 64.05656 55.36781
# Shear Modulus (GPa) = 57.95526 23.87554 40.91540
#
# Velocity S-wave (km/s) = 5.01555 3.21921 4.21420
# Velocity P-wave (km/s) = 7.33500 6.45149 6.90739
#
# Compressibility (1/GPa) = 0.02142288
#
# Stress axis : x y z
#
# Youngs Moduli (GPa) = 123.99231 53.70623 85.84605
#
# Poissons Ratio (x) = 0.29720 0.28078
# Poissons Ratio (y) = 0.68614 -0.02997
# Poissons Ratio (z) = 0.40554 -0.01875
#
# Static dielectric constant tensor:
#      x y z
#    x 1.953580 0.000000 0.000000 
#    y 0.000000 1.855770 0.000000 
#    z 0.000000 0.000000 1.850440 
# 
# From -- ./inp_files/29838.got.cif
#   From: 2010.05.17/outbox.cif.g08.bks.cpg/sg21_15_cif.got.tgz:29838.got - 2010.06.03 23:14:55.
