data_PCOD9324329
_publ_section_title
;
Structure prediction by ZEFSAII (Michael W. Deem and Ramdas Pophale) SiO2 
 PCOD9324329
Probable space group: C 2 2 2
;
_chemical_formula_sum "Si O2"
_cell_formula_units_Z 36
_cell_length_a 27.942342
_cell_length_b 5.224839
_cell_length_c 11.502825
_cell_angle_alpha 90.000000
_cell_angle_beta 90.000000
_cell_angle_gamma 90.000000
_cell_volume 1679.346173
_symmetry_space_group_name_H-M "C 2 2 2"
_symmetry_group_IT_number 21
_symmetry_cell_setting 'orthorhombic'
loop_
_space_group_symop_operation_xyz
x,y,z
-x,-y,z
x,-y,-z
-x,y,-z
1/2+x,1/2+y,z
1/2-x,1/2-y,z
1/2+x,1/2-y,-z
1/2-x,1/2+y,-z
loop_
_atom_site_type_symbol
_atom_site_label
_atom_site_fract_x
_atom_site_fract_y
_atom_site_fract_z
Si Si1 0.897325 0.007509 0.128204
Si Si2 0.218384 0.500000 0.500000
Si Si3 0.853988 0.343961 0.299122
Si Si4 0.778662 0.502883 0.138500
Si Si5 0.555255 0.000519 0.214452
O O1 0.862117 0.067808 0.237659
O O2 0.931755 0.257335 0.132832
O O3 0.928840 0.760892 0.154080
O O4 0.873842 0.000000 0.000000
O O5 0.250000 0.750000 0.535891
O O6 0.183354 0.613648 0.400776
O O7 0.831099 0.498685 0.191287
O O8 0.907185 0.450454 0.320218
O O9 0.750000 0.750000 0.176551
O O10 0.750000 0.250000 0.177019
O O11 0.781278 0.500000 0.000000
O O12 0.500000 0.000000 0.245966
#
# Coordination Sequence:
#
# PCOD9324329 Si02
#       5
#     8   4   8   8   8
#     4  10  23  37  63  98 139 181 221 277 343 416
#     4  12  28  48  73 100 133 184 244 300 358 410
#     4  10  26  40  69  92 136 172 236 278 350 406
#     4  10  22  36  56  86 122 163 210 270 340 408
#     4  10  23  40  63  99 139 178 227 276 346 420
#
# _framework density 21.436917000000001
#
# number of rings (size 3 to 8) (size 9 to 14) (size 15 to 20)
#    1.333    0.444    0.000    2.667    9.333    3.556 
#    0.000    0.556    0.000    0.000    5.778    0.000 
#    0.000    0.000    0.000    0.000    0.000    0.000 
#
# Total GULP energy -100329.464517 kJ/mol
# GULP energy per Si atom -5573.859140 kJ/mol
# Density = 2.138813 g / cm^3
# Si number density = 21.436917 Si / 1000 Ang^3
#
#
#
# Elastic Constant Matrix: (Units=GPa)
#
#
# Indices 1 2 3 4 5 6 
#
# 1 141.1900 44.8750 43.7952 0.0000 0.0000 0.0000
# 2 44.8750 157.7326 20.4275 0.0000 0.0000 0.0000
# 3 43.7952 20.4275 79.7550 0.0000 0.0000 0.0000
# 4 0.0000 0.0000 0.0000 13.7923 0.0000 0.0000
# 5 0.0000 0.0000 0.0000 0.0000 2.1395 0.0000
# 6 0.0000 0.0000 0.0000 0.0000 0.0000 23.7476
#
#
#
# Elastic Compliance Matrix: (Units=1/GPa)
#
#
# Indices 1 2 3 4 5 6 
#
# 1 0.009115 -0.002012 -0.004490 0.000000 0.000000 0.000000
# 2 -0.002012 0.007001 -0.000689 0.000000 0.000000 0.000000
# 3 -0.004490 -0.000689 0.015180 0.000000 0.000000 0.000000
# 4 0.000000 0.000000 0.000000 0.072504 0.000000 0.000000
# 5 0.000000 0.000000 0.000000 0.000000 0.467399 0.000000
# 6 0.000000 0.000000 0.000000 0.000000 0.000000 0.042109
#
#
# Mechanical properties :
#
#
# Convention : Reuss Voigt Hill
#
# Bulk Modulus (GPa) = 59.11530 66.31920 62.71725
# Shear Modulus (GPa) = 7.89480 25.90789 16.90135
#
# Velocity S-wave (km/s) = 1.92115 3.48021 2.81093
# Velocity P-wave (km/s) = 5.70590 6.86682 6.31310
#
# Compressibility (1/GPa) = 0.01691609
#
# Stress axis : x y z
#
# Youngs Moduli (GPa) = 109.71260 142.82974 65.87514
#
# Poissons Ratio (x) = 0.28733 0.29577
# Poissons Ratio (y) = 0.22071 0.04536
# Poissons Ratio (z) = 0.49259 0.09835
#
# Static dielectric constant tensor:
#      x y z
#    x 1.827220 0.000000 0.000000 
#    y 0.000000 1.829230 0.000000 
#    z 0.000000 0.000000 1.789150 
# 
# From -- ./inp_files/27143.got.cif
#   From: 2010.05.17/outbox.cif.g08.bks.cpg/sg21_14_cif.got.tgz:27143.got - 2010.06.03 23:14:55.
