data_PCOD9324470
_publ_section_title
;
Structure prediction by ZEFSAII (Michael W. Deem and Ramdas Pophale) SiO2 
 PCOD9324470
Probable space group: C 2 2 2
;
_chemical_formula_sum "Si O2"
_cell_formula_units_Z 34
_cell_length_a 9.692510
_cell_length_b 12.271788
_cell_length_c 13.464290
_cell_angle_alpha 90.000000
_cell_angle_beta 90.000000
_cell_angle_gamma 90.000000
_cell_volume 1601.502271
_symmetry_space_group_name_H-M "C 2 2 2"
_symmetry_group_IT_number 21
_symmetry_cell_setting 'orthorhombic'
loop_
_space_group_symop_operation_xyz
x,y,z
-x,-y,z
x,-y,-z
-x,y,-z
1/2+x,1/2+y,z
1/2-x,1/2-y,z
1/2+x,1/2-y,-z
1/2-x,1/2+y,-z
loop_
_atom_site_type_symbol
_atom_site_label
_atom_site_fract_x
_atom_site_fract_y
_atom_site_fract_z
Si Si1 0.591531 0.785912 0.090198
Si Si2 0.696239 0.102103 0.622178
Si Si3 0.456646 0.705127 0.697263
Si Si4 0.000000 0.500000 0.000000
Si Si5 0.219124 0.872973 0.395044
O O1 0.750000 0.750000 0.086737
O O2 0.519692 0.749001 0.192380
O O3 0.583648 0.916263 0.069958
O O4 0.500000 0.738798 0.000000
O O5 0.569107 0.185192 0.631139
O O6 0.810158 0.143784 0.698939
O O7 0.765454 0.120732 0.514053
O O8 0.684880 0.973303 0.638460
O O9 0.564551 0.622646 0.647475
O O10 0.250000 0.750000 0.362339
#
# Coordination Sequence:
#
# PCOD9324470 Si02
#       5
#     8   8   8   2   8
#     4  10  22  47  72  96 132 173 221 283 343 402
#     4  10  22  40  63  90 137 173 215 268 321 376
#     4  11  21  42  67  91 131 172 220 269 333 390
#     4   8  24  44  74  94 146 164 210 304 352 370
#     4  11  23  38  62  99 132 179 220 261 323 397
#
# _framework density 21.230066999999998
#
# number of rings (size 3 to 8) (size 9 to 14) (size 15 to 20)
#    0.706    0.941    4.706    1.412    0.000    5.647 
#    4.235    2.941    0.000    0.000    0.000    0.000 
#    0.000    0.000    0.000    0.000    0.000    0.000 
#
# Total GULP energy -94652.698460 kJ/mol
# GULP energy per Si atom -5567.805792 kJ/mol
# Density = 2.118175 g / cm^3
# Si number density = 21.230067 Si / 1000 Ang^3
#
#
#
# Elastic Constant Matrix: (Units=GPa)
#
#
# Indices 1 2 3 4 5 6 
#
# 1 53.0052 18.0640 18.6997 0.0000 0.0000 0.0000
# 2 18.0640 151.1543 17.5111 0.0000 0.0000 0.0000
# 3 18.6997 17.5111 124.4261 0.0000 0.0000 0.0000
# 4 0.0000 0.0000 0.0000 17.9838 0.0000 0.0000
# 5 0.0000 0.0000 0.0000 0.0000 19.5966 0.0000
# 6 0.0000 0.0000 0.0000 0.0000 0.0000 36.9564
#
#
#
# Elastic Compliance Matrix: (Units=1/GPa)
#
#
# Indices 1 2 3 4 5 6 
#
# 1 0.020579 -0.002136 -0.002792 0.000000 0.000000 0.000000
# 2 -0.002136 0.006947 -0.000657 0.000000 0.000000 0.000000
# 3 -0.002792 -0.000657 0.008549 0.000000 0.000000 0.000000
# 4 0.000000 0.000000 0.000000 0.055606 0.000000 0.000000
# 5 0.000000 0.000000 0.000000 0.000000 0.051029 0.000000
# 6 0.000000 0.000000 0.000000 0.000000 0.000000 0.027059
#
#
# Mechanical properties :
#
#
# Convention : Reuss Voigt Hill
#
# Bulk Modulus (GPa) = 40.15168 48.57057 44.36112
# Shear Modulus (GPa) = 26.42145 33.19475 29.80810
#
# Velocity S-wave (km/s) = 3.53162 3.95849 3.75113
# Velocity P-wave (km/s) = 5.96519 6.61972 6.30096
#
# Compressibility (1/GPa) = 0.02490556
#
# Stress axis : x y z
#
# Youngs Moduli (GPa) = 48.59316 143.94520 116.97342
#
# Poissons Ratio (x) = 0.30745 0.32661
# Poissons Ratio (y) = 0.10379 0.07682
# Poissons Ratio (z) = 0.13568 0.09453
#
# Static dielectric constant tensor:
#      x y z
#    x 1.932170 0.000000 0.000000 
#    y 0.000000 1.834470 0.000000 
#    z 0.000000 0.000000 1.778910 
# 
# From -- ./inp_files/23727.got.cif
#   From: 2010.05.17/outbox.cif.g08.bks.cpg/sg21_12_cif.got.tgz:23727.got - 2010.06.03 23:14:55.
