data_PCOD9324828
_publ_section_title
;
Structure prediction by ZEFSAII (Michael W. Deem and Ramdas Pophale) SiO2 
 PCOD9324828
Probable space group: C 2 2 2
;
_chemical_formula_sum "Si O2"
_cell_formula_units_Z 24
_cell_length_a 5.157082
_cell_length_b 25.580956
_cell_length_c 7.301487
_cell_angle_alpha 90.000000
_cell_angle_beta 90.000000
_cell_angle_gamma 90.000000
_cell_volume 963.234710
_symmetry_space_group_name_H-M "C 2 2 2"
_symmetry_group_IT_number 21
_symmetry_cell_setting 'orthorhombic'
loop_
_space_group_symop_operation_xyz
x,y,z
-x,-y,z
x,-y,-z
-x,y,-z
1/2+x,1/2+y,z
1/2-x,1/2-y,z
1/2+x,1/2-y,-z
1/2-x,1/2+y,-z
loop_
_atom_site_type_symbol
_atom_site_label
_atom_site_fract_x
_atom_site_fract_y
_atom_site_fract_z
Si Si1 0.394850 0.699167 0.796799
Si Si2 0.603181 0.137983 0.295929
Si Si3 0.748845 0.975991 0.794644
O O1 0.250000 0.750000 0.716573
O O2 0.654253 0.678240 0.698248
O O3 0.156819 0.657977 0.806097
O O4 0.500000 0.711860 0.000000
O O5 0.500000 0.127373 0.500000
O O6 0.722445 0.085916 0.207013
O O7 0.500000 0.000000 0.702230
O O8 0.000000 0.000000 0.705145
O O9 0.750049 0.000000 0.000000
#
# Coordination Sequence:
#
# PCOD9324828 Si02
#       3
#     8   8   8
#     4  12  27  49  77 112 150 202 261 311 376 466
#     4  12  27  47  77 116 155 198 254 321 390 451
#     4  10  23  42  71 108 143 201 250 307 366 446
#
# _framework density 24.916042999999998
#
# number of rings (size 3 to 8) (size 9 to 14) (size 15 to 20)
#    0.000    0.667    0.000    7.000   14.000    3.333 
#    0.000    3.333    0.000    0.000    0.000    0.000 
#    0.000    0.000    0.000    0.000    0.000    0.000 
#
# Total GULP energy -67147.642165 kJ/mol
# GULP energy per Si atom -5595.636847 kJ/mol
# Density = 2.485933 g / cm^3
# Si number density = 24.916043 Si / 1000 Ang^3
#
#
#
# Elastic Constant Matrix: (Units=GPa)
#
#
# Indices 1 2 3 4 5 6 
#
# 1 263.9581 74.1316 29.5475 0.0000 0.0000 0.0000
# 2 74.1316 142.6313 35.4782 0.0000 0.0000 0.0000
# 3 29.5475 35.4782 105.3649 0.0000 0.0000 0.0000
# 4 0.0000 0.0000 0.0000 -53.6237 0.0000 0.0000
# 5 0.0000 0.0000 0.0000 0.0000 7.7573 0.0000
# 6 0.0000 0.0000 0.0000 0.0000 0.0000 62.4449
#
#
#
# Elastic Compliance Matrix: (Units=1/GPa)
#
#
# Indices 1 2 3 4 5 6 
#
# 1 0.004461 -0.002191 -0.000513 0.000000 0.000000 0.000000
# 2 -0.002191 0.008728 -0.002324 0.000000 0.000000 0.000000
# 3 -0.000513 -0.002324 0.010417 0.000000 0.000000 0.000000
# 4 0.000000 0.000000 0.000000 -0.018648 0.000000 0.000000
# 5 0.000000 0.000000 0.000000 0.000000 0.128911 0.000000
# 6 0.000000 0.000000 0.000000 0.000000 0.000000 0.016014
#
#
# Mechanical properties :
#
#
# Convention : Reuss Voigt Hill
#
# Bulk Modulus (GPa) = 73.80524 87.80765 80.80644
# Shear Modulus (GPa) = 30.40309 28.16884 29.28596
#
# Velocity S-wave (km/s) = 3.49696 3.36601 3.43211
# Velocity P-wave (km/s) = 6.78165 7.10103 6.94318
#
# Compressibility (1/GPa) = 0.01354917
#
# Stress axis : x y z
#
# Youngs Moduli (GPa) = 224.15073 114.57322 95.99271
#
# Poissons Ratio (x) = 0.25103 0.04927
# Poissons Ratio (y) = 0.49112 0.22313
# Poissons Ratio (z) = 0.11506 0.26632
#
# Static dielectric constant tensor:
#      x y z
#    x 1.972780 0.000000 0.000000 
#    y 0.000000 2.029060 0.000000 
#    z 0.000000 0.000000 1.955760 
# 
# From -- ./inp_files/8608.got.cif
#   From: 2010.05.17/outbox.cif.g08.bks.cpg/sg21_5_cif.got.tgz:8608.got - 2010.06.03 23:14:55.
