data_PCOD9324264
_publ_section_title
;
Structure prediction by ZEFSAII (Michael W. Deem and Ramdas Pophale) SiO2 
 PCOD9324264
Probable space group: C 2 2 2
;
_chemical_formula_sum "Si O2"
_cell_formula_units_Z 28
_cell_length_a 12.196020
_cell_length_b 8.193476
_cell_length_c 11.611261
_cell_angle_alpha 90.000000
_cell_angle_beta 90.000000
_cell_angle_gamma 90.000000
_cell_volume 1160.287734
_symmetry_space_group_name_H-M "C 2 2 2"
_symmetry_group_IT_number 21
_symmetry_cell_setting 'orthorhombic'
loop_
_space_group_symop_operation_xyz
x,y,z
-x,-y,z
x,-y,-z
-x,y,-z
1/2+x,1/2+y,z
1/2-x,1/2-y,z
1/2+x,1/2-y,-z
1/2-x,1/2+y,-z
loop_
_atom_site_type_symbol
_atom_site_label
_atom_site_fract_x
_atom_site_fract_y
_atom_site_fract_z
Si Si1 0.154974 0.594891 0.286522
Si Si2 0.308240 0.429187 0.119403
Si Si3 0.250000 0.750000 0.495267
Si Si4 0.436132 0.264330 0.315117
O O1 0.229206 0.569735 0.173701
O O2 0.224057 0.607325 0.403401
O O3 0.099246 0.419425 0.285623
O O4 0.066916 0.739816 0.305647
O O5 0.250000 0.250000 0.101157
O O6 0.394789 0.386583 0.218289
O O7 0.351187 0.500000 0.000000
O O8 0.359614 0.712016 0.571239
#
# Coordination Sequence:
#
# PCOD9324264 Si02
#       4
#     8   8   4   8
#     4  10  22  40  70  99 138 185 231 287 363 415
#     4  10  22  44  75 100 143 187 237 297 353 421
#     4  12  20  36  70 102 142 182 232 292 350 426
#     4  10  21  42  69 104 134 183 239 285 352 431
#
# _framework density 24.131943
#
# number of rings (size 3 to 8) (size 9 to 14) (size 15 to 20)
#    0.000    1.714    4.286    1.714    2.000    2.286 
#    0.000   12.857   18.857    0.000    0.000    0.000 
#    0.000    0.000    0.000    0.000    0.000    0.000 
#
# Total GULP energy -77962.582901 kJ/mol
# GULP energy per Si atom -5568.755922 kJ/mol
# Density = 2.407702 g / cm^3
# Si number density = 24.131943 Si / 1000 Ang^3
#
#
#
# Elastic Constant Matrix: (Units=GPa)
#
#
# Indices 1 2 3 4 5 6 
#
# 1 104.7242 53.8215 52.4811 0.0000 0.0000 0.0000
# 2 53.8215 105.7407 44.9175 0.0000 0.0000 0.0000
# 3 52.4811 44.9175 172.2959 0.0000 0.0000 0.0000
# 4 0.0000 0.0000 0.0000 60.2092 0.0000 0.0000
# 5 0.0000 0.0000 0.0000 0.0000 9.8463 0.0000
# 6 0.0000 0.0000 0.0000 0.0000 0.0000 43.1103
#
#
#
# Elastic Compliance Matrix: (Units=1/GPa)
#
#
# Indices 1 2 3 4 5 6 
#
# 1 0.013966 -0.005962 -0.002700 0.000000 0.000000 0.000000
# 2 -0.005962 0.013180 -0.001620 0.000000 0.000000 0.000000
# 3 -0.002700 -0.001620 0.007049 0.000000 0.000000 0.000000
# 4 0.000000 0.000000 0.000000 0.016609 0.000000 0.000000
# 5 0.000000 0.000000 0.000000 0.000000 0.101561 0.000000
# 6 0.000000 0.000000 0.000000 0.000000 0.000000 0.023196
#
#
# Mechanical properties :
#
#
# Convention : Reuss Voigt Hill
#
# Bulk Modulus (GPa) = 73.36097 76.13344 74.74720
# Shear Modulus (GPa) = 24.91688 38.06919 31.49304
#
# Velocity S-wave (km/s) = 3.21678 3.97614 3.61645
# Velocity P-wave (km/s) = 6.65303 7.25926 6.96275
#
# Compressibility (1/GPa) = 0.01363123
#
# Stress axis : x y z
#
# Youngs Moduli (GPa) = 71.60378 75.87406 141.87125
#
# Poissons Ratio (x) = 0.45234 0.38301
# Poissons Ratio (y) = 0.42688 0.22984
# Poissons Ratio (z) = 0.19331 0.12292
#
# Static dielectric constant tensor:
#      x y z
#    x 2.058880 0.000000 0.000000 
#    y 0.000000 1.934380 0.000000 
#    z 0.000000 0.000000 1.858020 
# 
# From -- ./inp_files/24641.got.cif
#   From: 2010.05.17/outbox.cif.g08.bks.cpg/sg21_13_cif.got.tgz:24641.got - 2010.06.03 23:14:55.
