data_PCOD9324708
_publ_section_title
;
Structure prediction by ZEFSAII (Michael W. Deem and Ramdas Pophale) SiO2 
 PCOD9324708
Probable space group: C 2 2 2
;
_chemical_formula_sum "Si O2"
_cell_formula_units_Z 58
_cell_length_a 8.820171
_cell_length_b 16.559649
_cell_length_c 17.650621
_cell_angle_alpha 90.000000
_cell_angle_beta 90.000000
_cell_angle_gamma 90.000000
_cell_volume 2578.030921
_symmetry_space_group_name_H-M "C 2 2 2"
_symmetry_group_IT_number 21
_symmetry_cell_setting 'orthorhombic'
loop_
_space_group_symop_operation_xyz
x,y,z
-x,-y,z
x,-y,-z
-x,y,-z
1/2+x,1/2+y,z
1/2-x,1/2-y,z
1/2+x,1/2-y,-z
1/2-x,1/2+y,-z
loop_
_atom_site_type_symbol
_atom_site_label
_atom_site_fract_x
_atom_site_fract_y
_atom_site_fract_z
Si Si1 0.000000 0.000000 0.000000
Si Si2 0.428829 0.232605 0.664798
Si Si3 0.500992 0.863511 0.088939
Si Si4 0.951069 0.217230 0.816394
Si Si5 0.778866 0.422855 0.789501
Si Si6 0.638202 0.326049 0.557675
Si Si7 0.826199 0.920894 0.863938
Si Si8 0.906958 0.422895 0.620179
O O1 0.898016 0.052873 0.056069
O O2 0.250000 0.250000 0.659433
O O3 0.484648 0.224787 0.750898
O O4 0.541912 0.300935 0.632007
O O5 0.477299 0.152622 0.619934
O O6 0.553731 0.772044 0.108700
O O7 0.611195 0.919597 0.137944
O O8 0.335787 0.882205 0.120527
O O9 0.500000 0.878667 0.000000
O O10 0.805442 0.164106 0.793146
O O11 0.074130 0.148036 0.827092
O O12 0.679549 0.501112 0.809463
O O13 0.854953 0.434383 0.707861
O O14 0.500000 0.340548 0.500000
O O15 0.750000 0.250000 0.537083
O O16 0.755704 0.397846 0.574616
O O17 0.000000 0.500000 0.593837
#
# Coordination Sequence:
#
# PCOD9324708 Si02
#       8
#     2   8   8   8   8   8   8   8
#     4  12  24  44  66  80 132 180 242 304 388 452
#     4  11  23  43  72 108 146 189 243 301 357 438
#     4  12  27  41  66  96 136 181 241 312 376 430
#     4  12  25  43  65  98 136 180 242 305 364 432
#     4  12  24  46  67  96 139 185 242 303 369 436
#     4  10  22  44  80 117 150 196 244 293 366 440
#     4  12  26  44  63  92 127 182 240 300 370 447
#     4  11  24  44  75 113 150 193 242 304 368 433
#
# _framework density 22.497789999999998
#
# number of rings (size 3 to 8) (size 9 to 14) (size 15 to 20)
#    0.000    0.552    4.138    4.138    2.897    1.655 
#    0.000    0.690    0.000   22.345    0.000    0.000 
#    0.000    0.000    0.000    0.000    0.000    0.000 
#
# Total GULP energy -162205.018292 kJ/mol
# GULP energy per Si atom -5593.276493 kJ/mol
# Density = 2.244658 g / cm^3
# Si number density = 22.497790 Si / 1000 Ang^3
#
#
#
# Elastic Constant Matrix: (Units=GPa)
#
#
# Indices 1 2 3 4 5 6 
#
# 1 164.4137 46.4895 40.9272 0.0000 0.0000 0.0000
# 2 46.4895 87.7613 11.3214 0.0000 0.0000 0.0000
# 3 40.9272 11.3214 93.1191 0.0000 0.0000 0.0000
# 4 0.0000 0.0000 0.0000 -2.3862 0.0000 0.0000
# 5 0.0000 0.0000 0.0000 0.0000 43.5249 0.0000
# 6 0.0000 0.0000 0.0000 0.0000 0.0000 53.8734
#
#
#
# Elastic Compliance Matrix: (Units=1/GPa)
#
#
# Indices 1 2 3 4 5 6 
#
# 1 0.007907 -0.003800 -0.003013 0.000000 0.000000 0.000000
# 2 -0.003800 0.013402 0.000041 0.000000 0.000000 0.000000
# 3 -0.003013 0.000041 0.012058 0.000000 0.000000 0.000000
# 4 0.000000 0.000000 0.000000 -0.419081 0.000000 0.000000
# 5 0.000000 0.000000 0.000000 0.000000 0.022975 0.000000
# 6 0.000000 0.000000 0.000000 0.000000 0.000000 0.018562
#
#
# Mechanical properties :
#
#
# Convention : Reuss Voigt Hill
#
# Bulk Modulus (GPa) = 50.44734 60.30782 55.37758
# Shear Modulus (GPa) = -15.43095 35.43949 10.00427
#
# Velocity S-wave (km/s) = -2.62179 3.97324 2.11103
# Velocity P-wave (km/s) = 3.64786 6.92193 5.53263
#
# Compressibility (1/GPa) = 0.01982265
#
# Stress axis : x y z
#
# Youngs Moduli (GPa) = 126.47554 74.61516 82.93033
#
# Poissons Ratio (x) = 0.28351 0.24988
# Poissons Ratio (y) = 0.48057 -0.00337
# Poissons Ratio (z) = 0.38109 -0.00303
#
# Static dielectric constant tensor:
#      x y z
#    x 1.864410 0.000000 0.000000 
#    y 0.000000 1.835690 0.000000 
#    z 0.000000 0.000000 1.833800 
# 
# From -- ./inp_files/35823.got.cif
#   From: 2010.05.17/outbox.cif.g08.bks.cpg/sg21_18_cif.got.tgz:35823.got - 2010.06.03 23:14:55.
