data_PCOD9324358
_publ_section_title
;
Structure prediction by ZEFSAII (Michael W. Deem and Ramdas Pophale) SiO2 
 PCOD9324358
Probable space group: C 2 2 2
;
_chemical_formula_sum "Si O2"
_cell_formula_units_Z 64
_cell_length_a 12.480212
_cell_length_b 14.553107
_cell_length_c 17.584042
_cell_angle_alpha 90.000000
_cell_angle_beta 90.000000
_cell_angle_gamma 90.000000
_cell_volume 3193.716761
_symmetry_space_group_name_H-M "C 2 2 2"
_symmetry_group_IT_number 21
_symmetry_cell_setting 'orthorhombic'
loop_
_space_group_symop_operation_xyz
x,y,z
-x,-y,z
x,-y,-z
-x,y,-z
1/2+x,1/2+y,z
1/2-x,1/2-y,z
1/2+x,1/2-y,-z
1/2-x,1/2+y,-z
loop_
_atom_site_type_symbol
_atom_site_label
_atom_site_fract_x
_atom_site_fract_y
_atom_site_fract_z
Si Si1 0.945780 0.101933 0.071433
Si Si2 0.775223 0.358791 0.994345
Si Si3 0.128929 0.491730 0.719284
Si Si4 0.217091 0.150225 0.651206
Si Si5 0.204709 0.149774 0.322407
Si Si6 0.484173 0.608581 0.240761
Si Si7 0.874795 0.520996 0.894344
Si Si8 0.377424 0.389980 0.491587
O O1 0.825776 0.100230 0.041200
O O2 0.957783 0.142932 0.155430
O O3 0.000000 0.000000 0.075403
O O4 0.000000 0.153323 0.000000
O O5 0.750000 0.250000 0.977809
O O6 0.863514 0.384902 0.057319
O O7 0.808931 0.430951 0.927088
O O8 0.182978 0.415935 0.666084
O O9 0.200101 0.581463 0.702027
O O10 0.153724 0.465345 0.806595
O O11 0.000000 0.500000 0.709872
O O12 0.250000 0.250000 0.677413
O O13 0.112617 0.122470 0.700102
O O14 0.187457 0.149189 0.562594
O O15 0.250000 0.250000 0.315732
O O16 0.169700 0.131216 0.409241
O O17 0.097315 0.143503 0.272025
O O18 0.500000 0.500000 0.235336
O O19 0.000000 0.500000 0.898079
O O20 0.377796 0.500000 0.500000
O O21 0.500000 0.357458 0.500000
#
# Coordination Sequence:
#
# PCOD9324358 Si02
#       8
#     8   8   8   8   8   8   8   8
#     4  10  22  37  61  95 131 167 215 278 339 389
#     4  11  23  40  65  95 125 167 225 286 339 397
#     4  11  26  45  66  97 140 185 230 278 347 413
#     4  12  25  43  71 105 137 177 228 285 342 406
#     4  12  26  44  69 102 139 177 229 289 340 411
#     4  11  22  43  70  97 133 186 230 282 344 405
#     4  10  23  45  67  88 130 185 225 274 338 417
#     4  11  21  43  74 104 132 176 230 277 339 416
#
# _framework density 20.039348
#
# number of rings (size 3 to 8) (size 9 to 14) (size 15 to 20)
#    0.000    1.000    3.750    3.375    5.250    3.500 
#    2.250    1.250    0.000    0.000    0.000    0.000 
#    0.000    0.000    0.000    0.000    0.000    0.000 
#
# Total GULP energy -178450.485180 kJ/mol
# GULP energy per Si atom -5576.577662 kJ/mol
# Density = 1.999374 g / cm^3
# Si number density = 20.039348 Si / 1000 Ang^3
#
#
#
# Elastic Constant Matrix: (Units=GPa)
#
#
# Indices 1 2 3 4 5 6 
#
# 1 79.6755 2.9111 27.8371 0.0000 0.0000 0.0000
# 2 2.9111 71.3042 -11.4508 0.0000 0.0000 0.0000
# 3 27.8371 -11.4508 110.8039 0.0000 0.0000 0.0000
# 4 0.0000 0.0000 0.0000 1468.5881 0.0000 0.0000
# 5 0.0000 0.0000 0.0000 0.0000 36.1374 0.0000
# 6 0.0000 0.0000 0.0000 0.0000 0.0000 53.6934
#
#
#
# Elastic Compliance Matrix: (Units=1/GPa)
#
#
# Indices 1 2 3 4 5 6 
#
# 1 0.013850 -0.001143 -0.003598 0.000000 0.000000 0.000000
# 2 -0.001143 0.014355 0.001771 0.000000 0.000000 0.000000
# 3 -0.003598 0.001771 0.010112 0.000000 0.000000 0.000000
# 4 0.000000 0.000000 0.000000 0.000681 0.000000 0.000000
# 5 0.000000 0.000000 0.000000 0.000000 0.027672 0.000000
# 6 0.000000 0.000000 0.000000 0.000000 0.000000 0.018624
#
#
# Mechanical properties :
#
#
# Convention : Reuss Voigt Hill
#
# Bulk Modulus (GPa) = 30.88628 33.37538 32.13083
# Shear Modulus (GPa) = 49.00692 327.84952 188.42822
#
# Velocity S-wave (km/s) = 4.95060 12.80461 9.70738
# Velocity P-wave (km/s) = 6.93716 15.33955 11.90433
#
# Compressibility (1/GPa) = 0.03237683
#
# Stress axis : x y z
#
# Youngs Moduli (GPa) = 72.20426 69.65989 98.89479
#
# Poissons Ratio (x) = 0.07963 0.35578
# Poissons Ratio (y) = 0.08254 -0.17512
# Poissons Ratio (z) = 0.25976 -0.12335
#
# Static dielectric constant tensor:
#      x y z
#    x 1.769060 0.000000 0.000000 
#    y 0.000000 1.870490 0.000000 
#    z 0.000000 0.000000 1.681160 
# 
# From -- ./inp_files/36255.got.cif
#   From: 2010.05.17/outbox.cif.g08.bks.cpg/sg21_19_cif.got.tgz:36255.got - 2010.06.03 23:14:55.
