data_PCOD9324394
_publ_section_title
;
Structure prediction by ZEFSAII (Michael W. Deem and Ramdas Pophale) SiO2 
 PCOD9324394
Probable space group: C 2 2 2
;
_chemical_formula_sum "Si O2"
_cell_formula_units_Z 48
_cell_length_a 10.905575
_cell_length_b 23.793405
_cell_length_c 7.448732
_cell_angle_alpha 90.000000
_cell_angle_beta 90.000000
_cell_angle_gamma 90.000000
_cell_volume 1932.802661
_symmetry_space_group_name_H-M "C 2 2 2"
_symmetry_group_IT_number 21
_symmetry_cell_setting 'orthorhombic'
loop_
_space_group_symop_operation_xyz
x,y,z
-x,-y,z
x,-y,-z
-x,y,-z
1/2+x,1/2+y,z
1/2-x,1/2-y,z
1/2+x,1/2-y,-z
1/2-x,1/2+y,-z
loop_
_atom_site_type_symbol
_atom_site_label
_atom_site_fract_x
_atom_site_fract_y
_atom_site_fract_z
Si Si1 0.776787 0.186263 0.737974
Si Si2 0.022752 0.879079 0.216586
Si Si3 0.167484 0.017532 0.806685
Si Si4 0.161615 0.573847 0.651000
Si Si5 0.236385 0.313919 0.831675
Si Si6 0.904259 0.582593 0.756646
O O1 0.750000 0.250000 0.677857
O O2 0.910568 0.157860 0.709366
O O3 0.687960 0.139933 0.656283
O O4 0.751715 0.185438 0.952584
O O5 0.064867 0.941510 0.278602
O O6 0.146714 0.844961 0.249760
O O7 0.000000 0.882137 0.000000
O O8 0.221758 0.963621 0.704000
O O9 0.289957 0.054349 0.855677
O O10 0.122805 0.000000 0.000000
O O11 0.125323 0.563227 0.446566
O O12 0.044681 0.564832 0.781622
O O13 0.250000 0.250000 0.773360
O O14 0.117172 0.350684 0.782497
#
# Coordination Sequence:
#
# PCOD9324394 Si02
#       6
#     8   8   8   8   8   8
#     4  10  22  38  62  93 121 160 212 259 310 374
#     4   9  19  37  58  90 127 156 199 259 322 361
#     4  11  22  38  64  91 120 165 211 262 315 375
#     4  11  23  39  60  87 129 168 206 261 317 379
#     4   9  19  36  62  89 120 165 209 262 311 372
#     4  10  23  40  58  89 126 167 209 258 323 372
#
# _framework density 24.834405
#
# number of rings (size 3 to 8) (size 9 to 14) (size 15 to 20)
#    0.000    2.000    0.000    4.000    2.333    7.667 
#    0.000    3.333    0.000   12.000    0.000    0.000 
#    0.000    0.000    0.000    0.000    0.000    0.000 
#
# Total GULP energy -134132.220796 kJ/mol
# GULP energy per Si atom -5588.842533 kJ/mol
# Density = 2.477788 g / cm^3
# Si number density = 24.834405 Si / 1000 Ang^3
#
#
#
# Elastic Constant Matrix: (Units=GPa)
#
#
# Indices 1 2 3 4 5 6 
#
# 1 154.9399 58.2446 21.0901 0.0000 0.0000 0.0000
# 2 58.2446 204.6472 14.6558 0.0000 0.0000 0.0000
# 3 21.0901 14.6558 48.2824 0.0000 0.0000 0.0000
# 4 0.0000 0.0000 0.0000 11.5739 0.0000 0.0000
# 5 0.0000 0.0000 0.0000 0.0000 11.9402 0.0000
# 6 0.0000 0.0000 0.0000 0.0000 0.0000 35.5143
#
#
#
# Elastic Compliance Matrix: (Units=1/GPa)
#
#
# Indices 1 2 3 4 5 6 
#
# 1 0.007558 -0.001957 -0.002707 0.000000 0.000000 0.000000
# 2 -0.001957 0.005502 -0.000815 0.000000 0.000000 0.000000
# 3 -0.002707 -0.000815 0.022142 0.000000 0.000000 0.000000
# 4 0.000000 0.000000 0.000000 0.086401 0.000000 0.000000
# 5 0.000000 0.000000 0.000000 0.000000 0.083751 0.000000
# 6 0.000000 0.000000 0.000000 0.000000 0.000000 0.028158
#
#
# Mechanical properties :
#
#
# Convention : Reuss Voigt Hill
#
# Bulk Modulus (GPa) = 41.25045 66.20562 53.72803
# Shear Modulus (GPa) = 19.79789 32.73093 26.26441
#
# Velocity S-wave (km/s) = 2.82653 3.63432 3.25558
# Velocity P-wave (km/s) = 5.22481 6.65791 5.98441
#
# Compressibility (1/GPa) = 0.02424216
#
# Stress axis : x y z
#
# Youngs Moduli (GPa) = 132.30248 181.75533 45.16395
#
# Poissons Ratio (x) = 0.35575 0.12228
# Poissons Ratio (y) = 0.25896 0.03681
# Poissons Ratio (z) = 0.35820 0.14815
#
# Static dielectric constant tensor:
#      x y z
#    x 2.017930 0.000000 0.000000 
#    y 0.000000 2.021640 0.000000 
#    z 0.000000 0.000000 1.985020 
# 
# From -- ./inp_files/13328.got.cif
#   From: 2010.05.17/outbox.cif.g08.bks.cpg/sg21_7_cif.got.tgz:13328.got - 2010.06.03 23:14:55.
