data_PCOD9324020
_publ_section_title
;
Structure prediction by ZEFSAII (Michael W. Deem and Ramdas Pophale) SiO2 
 PCOD9324020
Probable space group: C 2 2 2
;
_chemical_formula_sum "Si O2"
_cell_formula_units_Z 32
_cell_length_a 6.151365
_cell_length_b 27.958810
_cell_length_c 8.110815
_cell_angle_alpha 90.000000
_cell_angle_beta 90.000000
_cell_angle_gamma 90.000000
_cell_volume 1394.937263
_symmetry_space_group_name_H-M "C 2 2 2"
_symmetry_group_IT_number 21
_symmetry_cell_setting 'orthorhombic'
loop_
_space_group_symop_operation_xyz
x,y,z
-x,-y,z
x,-y,-z
-x,y,-z
1/2+x,1/2+y,z
1/2-x,1/2-y,z
1/2+x,1/2-y,-z
1/2-x,1/2+y,-z
loop_
_atom_site_type_symbol
_atom_site_label
_atom_site_fract_x
_atom_site_fract_y
_atom_site_fract_z
Si Si1 0.964488 0.946625 0.196589
Si Si2 0.604719 0.123508 0.820195
Si Si3 0.080032 0.786415 0.825142
Si Si4 0.685156 0.356509 0.355442
O O1 0.726368 0.925056 0.230058
O O2 0.125492 0.906658 0.266265
O O3 0.000000 0.000000 0.261163
O O4 0.000000 0.947558 0.000000
O O5 0.785599 0.164414 0.850432
O O6 0.445020 0.140868 0.675200
O O7 0.500000 0.117097 0.000000
O O8 0.250000 0.750000 0.745285
O O9 0.873815 0.805747 0.728212
O O10 0.000000 0.766143 0.000000
O O11 0.500000 0.356965 0.500000
#
# Coordination Sequence:
#
# PCOD9324020 Si02
#       4
#     8   8   8   8
#     4  10  21  38  63  99 131 170 235 292 340 417
#     4  11  19  40  68  91 132 178 225 288 349 404
#     4  11  23  39  64  97 127 173 238 293 344 417
#     4  11  24  42  62  95 137 183 225 286 356 429
#
# _framework density 22.940100999999999
#
# number of rings (size 3 to 8) (size 9 to 14) (size 15 to 20)
#    0.000    1.250    5.000    2.250    0.000    5.500 
#    4.500    0.000    0.000    6.000    0.000    0.000 
#    0.000    0.000    0.000    0.000    0.000    0.000 
#
# Total GULP energy -89140.055212 kJ/mol
# GULP energy per Si atom -5571.253451 kJ/mol
# Density = 2.288789 g / cm^3
# Si number density = 22.940101 Si / 1000 Ang^3
#
#
#
# Elastic Constant Matrix: (Units=GPa)
#
#
# Indices 1 2 3 4 5 6 
#
# 1 104.6625 8.7452 5.7184 0.0000 0.0000 0.0000
# 2 8.7452 107.0169 -15.5333 0.0000 0.0000 0.0000
# 3 5.7184 -15.5333 56.9072 0.0000 0.0000 0.0000
# 4 0.0000 0.0000 0.0000 -6.0131 0.0000 0.0000
# 5 0.0000 0.0000 0.0000 0.0000 30.6416 0.0000
# 6 0.0000 0.0000 0.0000 0.0000 0.0000 34.1323
#
#
#
# Elastic Compliance Matrix: (Units=1/GPa)
#
#
# Indices 1 2 3 4 5 6 
#
# 1 0.009704 -0.000973 -0.001241 0.000000 0.000000 0.000000
# 2 -0.000973 0.009827 0.002780 0.000000 0.000000 0.000000
# 3 -0.001241 0.002780 0.018456 0.000000 0.000000 0.000000
# 4 0.000000 0.000000 0.000000 -0.166303 0.000000 0.000000
# 5 0.000000 0.000000 0.000000 0.000000 0.032635 0.000000
# 6 0.000000 0.000000 0.000000 0.000000 0.000000 0.029298
#
#
# Mechanical properties :
#
#
# Convention : Reuss Voigt Hill
#
# Bulk Modulus (GPa) = 25.56235 29.60526 27.58380
# Shear Modulus (GPa) = -91.78442 29.72924 -31.02759
#
# Velocity S-wave (km/s) = -6.33225 3.60384 -3.68169
# Velocity P-wave (km/s) = 6.50352 5.50003 2.45413
#
# Compressibility (1/GPa) = 0.03912004
#
# Stress axis : x y z
#
# Youngs Moduli (GPa) = 103.05439 101.75650 54.18286
#
# Poissons Ratio (x) = 0.09901 0.06722
# Poissons Ratio (y) = 0.10028 -0.15064
# Poissons Ratio (z) = 0.12786 -0.28291
#
# Static dielectric constant tensor:
#      x y z
#    x 2.068560 0.000000 0.000000 
#    y 0.000000 1.808780 0.000000 
#    z 0.000000 0.000000 1.987980 
# 
# From -- ./inp_files/9022.got.cif
#   From: 2010.05.17/outbox.cif.g08.bks.cpg/sg21_5_cif.got.tgz:9022.got - 2010.06.03 23:14:55.
