data_PCOD9324252
_publ_section_title
;
Structure prediction by ZEFSAII (Michael W. Deem and Ramdas Pophale) SiO2 
 PCOD9324252
Probable space group: C 2 2 2
;
_chemical_formula_sum "Si O2"
_cell_formula_units_Z 44
_cell_length_a 9.175638
_cell_length_b 30.382818
_cell_length_c 8.085528
_cell_angle_alpha 90.000000
_cell_angle_beta 90.000000
_cell_angle_gamma 90.000000
_cell_volume 2254.097560
_symmetry_space_group_name_H-M "C 2 2 2"
_symmetry_group_IT_number 21
_symmetry_cell_setting 'orthorhombic'
loop_
_space_group_symop_operation_xyz
x,y,z
-x,-y,z
x,-y,-z
-x,y,-z
1/2+x,1/2+y,z
1/2-x,1/2-y,z
1/2+x,1/2-y,-z
1/2-x,1/2+y,-z
loop_
_atom_site_type_symbol
_atom_site_label
_atom_site_fract_x
_atom_site_fract_y
_atom_site_fract_z
Si Si1 0.000000 0.705308 0.000000
Si Si2 0.060470 0.642128 0.730465
Si Si3 0.739396 0.836441 0.587642
Si Si4 0.083020 0.543494 0.826951
Si Si5 0.575581 0.453265 0.833203
Si Si6 0.250000 0.250000 0.782094
Si Si7 0.500000 0.599628 0.500000
O O1 0.095174 0.671297 0.890132
O O2 0.888557 0.734765 0.892269
O O3 0.151849 0.664744 0.584848
O O4 0.082574 0.589767 0.730482
O O5 0.887108 0.646875 0.709186
O O6 0.791089 0.790464 0.662381
O O7 0.869062 0.870072 0.563381
O O8 0.253811 0.536944 0.859510
O O9 0.000000 0.500000 0.755035
O O10 0.000000 0.551470 0.000000
O O11 0.500000 0.500000 0.810438
O O12 0.552047 0.427211 0.661956
O O13 0.500000 0.433202 0.000000
#
# Coordination Sequence:
#
# PCOD9324252 Si02
#       7
#     4   8   8   8   8   4   4
#     4  10  22  42  71  98 126 166 223 276 330 412
#     4  10  21  42  65  92 135 171 216 277 324 390
#     4  10  24  42  63  93 132 174 212 277 335 402
#     4  11  22  39  68  98 127 181 229 273 329 399
#     4  11  25  44  65  97 142 175 218 291 335 397
#     4  10  24  44  66  98 128 168 218 278 342 404
#     4  12  25  42  68 100 132 180 224 268 357 408
#
# _framework density 19.520007
#
# number of rings (size 3 to 8) (size 9 to 14) (size 15 to 20)
#    0.000    1.455    2.727    2.455    5.091    5.091 
#    1.636    1.818    0.000    0.000    0.000    0.000 
#    0.000    0.000    0.000    0.000    0.000    0.000 
#
# Total GULP energy -122603.536260 kJ/mol
# GULP energy per Si atom -5572.888012 kJ/mol
# Density = 1.947558 g / cm^3
# Si number density = 19.520007 Si / 1000 Ang^3
#
#
#
# Elastic Constant Matrix: (Units=GPa)
#
#
# Indices 1 2 3 4 5 6 
#
# 1 134.5282 46.4956 42.8430 0.0000 0.0000 0.0000
# 2 46.4956 126.0670 68.9622 0.0000 0.0000 0.0000
# 3 42.8430 68.9622 113.6100 0.0000 0.0000 0.0000
# 4 0.0000 0.0000 0.0000 -92.9708 0.0000 0.0000
# 5 0.0000 0.0000 0.0000 0.0000 17.8901 0.0000
# 6 0.0000 0.0000 0.0000 0.0000 0.0000 -21.4399
#
#
#
# Elastic Compliance Matrix: (Units=1/GPa)
#
#
# Indices 1 2 3 4 5 6 
#
# 1 0.008819 -0.002146 -0.002023 0.000000 0.000000 0.000000
# 2 -0.002146 0.012398 -0.006716 0.000000 0.000000 0.000000
# 3 -0.002023 -0.006716 0.013642 0.000000 0.000000 0.000000
# 4 0.000000 0.000000 0.000000 -0.010756 0.000000 0.000000
# 5 0.000000 0.000000 0.000000 0.000000 0.055897 0.000000
# 6 0.000000 0.000000 0.000000 0.000000 0.000000 -0.046642
#
#
# Mechanical properties :
#
#
# Convention : Reuss Voigt Hill
#
# Bulk Modulus (GPa) = 76.40560 76.75632 76.58096
# Shear Modulus (GPa) = 84.04569 -4.91050 39.56759
#
# Velocity S-wave (km/s) = 6.56884 -1.58779 4.50714
# Velocity P-wave (km/s) = 9.83667 6.00381 8.14880
#
# Compressibility (1/GPa) = 0.01308805
#
# Stress axis : x y z
#
# Youngs Moduli (GPa) = 113.38629 80.65977 73.30390
#
# Poissons Ratio (x) = 0.17309 0.14831
# Poissons Ratio (y) = 0.24333 0.49233
# Poissons Ratio (z) = 0.22941 0.54173
#
# Static dielectric constant tensor:
#      x y z
#    x 1.863340 0.000000 0.000000 
#    y 0.000000 1.705200 0.000000 
#    z 0.000000 0.000000 1.878270 
# 
# From -- ./inp_files/11436.got.cif
#   From: 2010.05.17/outbox.cif.g08.bks.cpg/sg21_6_cif.got.tgz:11436.got - 2010.06.03 23:14:55.
