data_PCOD9324948
_publ_section_title
;
Structure prediction by ZEFSAII (Michael W. Deem and Ramdas Pophale) SiO2 
 PCOD9324948
Probable space group: C 2 2 2
;
_chemical_formula_sum "Si O2"
_cell_formula_units_Z 38
_cell_length_a 14.141882
_cell_length_b 25.783564
_cell_length_c 4.832203
_cell_angle_alpha 90.000000
_cell_angle_beta 90.000000
_cell_angle_gamma 90.000000
_cell_volume 1761.957094
_symmetry_space_group_name_H-M "C 2 2 2"
_symmetry_group_IT_number 21
_symmetry_cell_setting 'orthorhombic'
loop_
_space_group_symop_operation_xyz
x,y,z
-x,-y,z
x,-y,-z
-x,y,-z
1/2+x,1/2+y,z
1/2-x,1/2-y,z
1/2+x,1/2-y,-z
1/2-x,1/2+y,-z
loop_
_atom_site_type_symbol
_atom_site_label
_atom_site_fract_x
_atom_site_fract_y
_atom_site_fract_z
Si Si1 0.208800 0.389832 0.366072
Si Si2 0.097316 0.352565 0.870080
Si Si3 0.361121 0.738775 0.951762
Si Si4 0.897255 0.830583 0.541125
Si Si5 0.000000 0.500000 0.000000
Si Si6 0.639070 0.000000 0.500000
O O1 0.182097 0.375585 0.054209
O O2 0.308374 0.365343 0.452357
O O3 0.199797 0.450959 0.407096
O O4 0.125387 0.364368 0.555918
O O5 0.096769 0.291244 0.925231
O O6 0.000000 0.374681 0.000000
O O7 0.250000 0.750000 0.933602
O O8 0.382416 0.690833 0.152230
O O9 0.395863 0.720691 0.653449
O O10 0.000000 0.855546 0.500000
O O11 0.075329 0.480811 0.762914
#
# Coordination Sequence:
#
# PCOD9324948 Si02
#       6
#     8   8   8   8   2   4
#     4  12  25  42  62  92 127 161 217 260 313 375
#     4  12  25  38  62  94 128 167 204 251 312 384
#     4  12  22  43  62  92 133 166 208 260 313 370
#     4  12  24  42  67  91 127 175 214 258 315 378
#     4  10  24  42  68  90 118 174 200 250 344 390
#     4  11  26  42  65  92 128 164 211 274 317 378
#
# _framework density 21.566925000000001
#
# number of rings (size 3 to 8) (size 9 to 14) (size 15 to 20)
#    0.000    0.211    4.211    5.684    8.842    0.000 
#    0.000    0.526    0.000    0.000    0.000    7.368 
#    0.000    0.000    0.000    0.000    0.000    0.000 
#
# Total GULP energy -106244.325615 kJ/mol
# GULP energy per Si atom -5591.806611 kJ/mol
# Density = 2.151784 g / cm^3
# Si number density = 21.566925 Si / 1000 Ang^3
#
#
#
# Elastic Constant Matrix: (Units=GPa)
#
#
# Indices 1 2 3 4 5 6 
#
# 1 121.5731 12.1950 1.9202 0.0000 0.0000 0.0000
# 2 12.1950 101.3840 -5.6579 0.0000 0.0000 0.0000
# 3 1.9202 -5.6579 91.5746 0.0000 0.0000 0.0000
# 4 0.0000 0.0000 0.0000 22.9539 0.0000 0.0000
# 5 0.0000 0.0000 0.0000 0.0000 18.4458 0.0000
# 6 0.0000 0.0000 0.0000 0.0000 0.0000 26.3031
#
#
#
# Elastic Compliance Matrix: (Units=1/GPa)
#
#
# Indices 1 2 3 4 5 6 
#
# 1 0.008331 -0.001015 -0.000237 0.000000 0.000000 0.000000
# 2 -0.001015 0.010021 0.000640 0.000000 0.000000 0.000000
# 3 -0.000237 0.000640 0.010965 0.000000 0.000000 0.000000
# 4 0.000000 0.000000 0.000000 0.043566 0.000000 0.000000
# 5 0.000000 0.000000 0.000000 0.000000 0.054213 0.000000
# 6 0.000000 0.000000 0.000000 0.000000 0.000000 0.038018
#
#
# Mechanical properties :
#
#
# Convention : Reuss Voigt Hill
#
# Bulk Modulus (GPa) = 35.59681 36.82738 36.21209
# Shear Modulus (GPa) = 28.45717 33.94553 31.20135
#
# Velocity S-wave (km/s) = 3.63641 3.97162 3.80771
# Velocity P-wave (km/s) = 5.84572 6.17614 6.01320
#
# Compressibility (1/GPa) = 0.02809241
#
# Stress axis : x y z
#
# Youngs Moduli (GPa) = 120.03214 99.78685 91.20259
#
# Poissons Ratio (x) = 0.10132 0.02165
# Poissons Ratio (y) = 0.12188 -0.05841
# Poissons Ratio (z) = 0.02850 -0.06391
#
# Static dielectric constant tensor:
#      x y z
#    x 1.811160 0.000000 0.000000 
#    y 0.000000 1.799460 0.000000 
#    z 0.000000 0.000000 1.723260 
# 
# From -- ./inp_files/3866.got.cif
#   From: 2010.05.17/outbox.cif.g08.bks.cpg/sg21_2_cif.got.tgz:3866.got - 2010.06.03 23:14:55.
