data_PCOD9324966
_publ_section_title
;
Structure prediction by ZEFSAII (Michael W. Deem and Ramdas Pophale) SiO2 
 PCOD9324966
Probable space group: C 2 2 2
;
_chemical_formula_sum "Si O2"
_cell_formula_units_Z 38
_cell_length_a 12.809808
_cell_length_b 11.383906
_cell_length_c 12.143715
_cell_angle_alpha 90.000000
_cell_angle_beta 90.000000
_cell_angle_gamma 90.000000
_cell_volume 1770.865135
_symmetry_space_group_name_H-M "C 2 2 2"
_symmetry_group_IT_number 21
_symmetry_cell_setting 'orthorhombic'
loop_
_space_group_symop_operation_xyz
x,y,z
-x,-y,z
x,-y,-z
-x,y,-z
1/2+x,1/2+y,z
1/2-x,1/2-y,z
1/2+x,1/2-y,-z
1/2-x,1/2+y,-z
loop_
_atom_site_type_symbol
_atom_site_label
_atom_site_fract_x
_atom_site_fract_y
_atom_site_fract_z
Si Si1 0.388727 0.940817 0.887664
Si Si2 0.000000 0.000000 0.000000
Si Si3 0.971252 0.193935 0.842650
Si Si4 0.206709 0.055202 0.287362
Si Si5 0.250000 0.250000 0.466148
Si Si6 0.356362 0.293904 0.676011
O O1 0.416518 0.803084 0.903102
O O2 0.307814 0.960003 0.789567
O O3 0.500000 0.000000 0.864306
O O4 0.347811 0.000000 0.000000
O O5 0.039738 0.899686 0.086105
O O6 0.878294 0.121180 0.787349
O O7 0.044161 0.240969 0.745342
O O8 0.237052 0.138048 0.389006
O O9 0.156639 0.934130 0.328573
O O10 0.346149 0.243332 0.552696
O O11 0.250000 0.250000 0.733915
#
# Coordination Sequence:
#
# PCOD9324966 Si02
#       6
#     8   2   8   8   4   8
#     4  11  25  45  68  99 144 189 238 295 362 435
#     4  12  24  40  70  98 138 176 232 290 362 428
#     4  12  24  45  70 105 140 186 244 299 362 434
#     4  12  22  47  71 103 142 187 242 298 358 439
#     4  10  24  44  74 100 144 182 242 292 370 424
#     4  10  24  43  72 101 141 183 238 301 359 425
#
# _framework density 21.458438999999998
#
# number of rings (size 3 to 8) (size 9 to 14) (size 15 to 20)
#    0.632    0.211    4.211    3.158    1.474    0.842 
#    0.000    2.105    0.000    0.000    0.000    0.000 
#    0.000    0.000    0.000    0.000    0.000    0.000 
#
# Total GULP energy -105957.097344 kJ/mol
# GULP energy per Si atom -5576.689334 kJ/mol
# Density = 2.140960 g / cm^3
# Si number density = 21.458439 Si / 1000 Ang^3
#
#
#
# Elastic Constant Matrix: (Units=GPa)
#
#
# Indices 1 2 3 4 5 6 
#
# 1 38.2629 -20.3245 14.8491 0.0000 0.0000 0.0000
# 2 -20.3245 113.1008 15.1230 0.0000 0.0000 0.0000
# 3 14.8491 15.1230 104.2272 0.0000 0.0000 0.0000
# 4 0.0000 0.0000 0.0000 30.8064 0.0000 0.0000
# 5 0.0000 0.0000 0.0000 0.0000 20.8137 0.0000
# 6 0.0000 0.0000 0.0000 0.0000 0.0000 31.4704
#
#
#
# Elastic Compliance Matrix: (Units=1/GPa)
#
#
# Indices 1 2 3 4 5 6 
#
# 1 0.031654 0.006416 -0.005441 0.000000 0.000000 0.000000
# 2 0.006416 0.010317 -0.002411 0.000000 0.000000 0.000000
# 3 -0.005441 -0.002411 0.010719 0.000000 0.000000 0.000000
# 4 0.000000 0.000000 0.000000 0.032461 0.000000 0.000000
# 5 0.000000 0.000000 0.000000 0.000000 0.048045 0.000000
# 6 0.000000 0.000000 0.000000 0.000000 0.000000 0.031776
#
#
# Mechanical properties :
#
#
# Convention : Reuss Voigt Hill
#
# Bulk Modulus (GPa) = 20.07262 30.54290 25.30776
# Shear Modulus (GPa) = 27.10752 33.01433 30.06093
#
# Velocity S-wave (km/s) = 3.55809 3.92666 3.74691
# Velocity P-wave (km/s) = 5.12391 5.90107 5.52617
#
# Compressibility (1/GPa) = 0.04981910
#
# Stress axis : x y z
#
# Youngs Moduli (GPa) = 31.59121 96.92732 93.28894
#
# Poissons Ratio (x) = -0.62187 0.50756
# Poissons Ratio (y) = -0.20269 0.22492
# Poissons Ratio (z) = 0.17188 0.23369
#
# Static dielectric constant tensor:
#      x y z
#    x 1.775410 0.000000 0.000000 
#    y 0.000000 1.811560 0.000000 
#    z 0.000000 0.000000 1.801280 
# 
# From -- ./inp_files/25027.got.cif
#   From: 2010.05.17/outbox.cif.g08.bks.cpg/sg21_13_cif.got.tgz:25027.got - 2010.06.03 23:14:55.
