data_PCOD9324305
_publ_section_title
;
Structure prediction by ZEFSAII (Michael W. Deem and Ramdas Pophale) SiO2 
 PCOD9324305
Probable space group: C 2 2 2
;
_chemical_formula_sum "Si O2"
_cell_formula_units_Z 40
_cell_length_a 9.329469
_cell_length_b 13.659183
_cell_length_c 14.931001
_cell_angle_alpha 90.000000
_cell_angle_beta 90.000000
_cell_angle_gamma 90.000000
_cell_volume 1902.701121
_symmetry_space_group_name_H-M "C 2 2 2"
_symmetry_group_IT_number 21
_symmetry_cell_setting 'orthorhombic'
loop_
_space_group_symop_operation_xyz
x,y,z
-x,-y,z
x,-y,-z
-x,y,-z
1/2+x,1/2+y,z
1/2-x,1/2-y,z
1/2+x,1/2-y,-z
1/2-x,1/2+y,-z
loop_
_atom_site_type_symbol
_atom_site_label
_atom_site_fract_x
_atom_site_fract_y
_atom_site_fract_z
Si Si1 0.000000 0.655807 0.000000
Si Si2 0.750000 0.750000 0.319534
Si Si3 0.490814 0.280711 0.168753
Si Si4 0.155673 0.052986 0.755772
Si Si5 0.216029 0.063504 0.077606
Si Si6 0.334063 0.032861 0.397607
O O1 0.046686 0.709934 0.091579
O O2 0.861874 0.600682 0.035830
O O3 0.613706 0.748485 0.251163
O O4 0.716937 0.852859 0.374872
O O5 0.619793 0.338685 0.214073
O O6 0.387636 0.350961 0.109554
O O7 0.242964 0.000044 0.834252
O O8 0.235782 0.034607 0.664672
O O9 0.000000 0.000000 0.752195
O O10 0.146964 0.000000 0.000000
O O11 0.500000 0.000000 0.377863
O O12 0.310482 0.000000 0.500000
#
# Coordination Sequence:
#
# PCOD9324305 Si02
#       6
#     4   4   8   8   8   8
#     4  12  21  36  59  96 142 184 256 290 368 428
#     4  12  22  52  80 104 158 192 248 332 384 452
#     4  11  22  42  68 100 140 201 244 313 368 442
#     4  10  21  44  71  99 143 190 244 305 378 443
#     4  11  22  37  60  94 136 193 237 306 355 427
#     4  11  26  51  79 114 149 189 246 320 395 470
#
# _framework density 21.022743999999999
#
# number of rings (size 3 to 8) (size 9 to 14) (size 15 to 20)
#    0.000    1.000    6.000    1.500    0.000    6.400 
#    7.200    2.000    0.000    0.000    0.000    0.000 
#    0.000    0.000    0.000    0.000    0.000    0.000 
#
# Total GULP energy -111541.254415 kJ/mol
# GULP energy per Si atom -5577.062721 kJ/mol
# Density = 2.097490 g / cm^3
# Si number density = 21.022744 Si / 1000 Ang^3
#
#
#
# Elastic Constant Matrix: (Units=GPa)
#
#
# Indices 1 2 3 4 5 6 
#
# 1 110.7275 61.5620 85.4484 0.0000 0.0000 0.0000
# 2 61.5620 86.5043 71.4743 0.0000 0.0000 0.0000
# 3 85.4484 71.4743 166.1747 0.0000 0.0000 0.0000
# 4 0.0000 0.0000 0.0000 5.8773 0.0000 0.0000
# 5 0.0000 0.0000 0.0000 0.0000 55.1194 0.0000
# 6 0.0000 0.0000 0.0000 0.0000 0.0000 2259.8330
#
#
#
# Elastic Compliance Matrix: (Units=1/GPa)
#
#
# Indices 1 2 3 4 5 6 
#
# 1 0.017937 -0.007980 -0.005791 0.000000 0.000000 0.000000
# 2 -0.007980 0.021484 -0.005137 0.000000 0.000000 0.000000
# 3 -0.005791 -0.005137 0.011205 0.000000 0.000000 0.000000
# 4 0.000000 0.000000 0.000000 0.170146 0.000000 0.000000
# 5 0.000000 0.000000 0.000000 0.000000 0.018142 0.000000
# 6 0.000000 0.000000 0.000000 0.000000 0.000000 0.000443
#
#
# Mechanical properties :
#
#
# Convention : Reuss Voigt Hill
#
# Bulk Modulus (GPa) = 78.06774 88.93065 83.49919
# Shear Modulus (GPa) = 17.76562 473.82740 245.79651
#
# Velocity S-wave (km/s) = 2.91016 15.02921 10.82465
# Velocity P-wave (km/s) = 6.96473 18.53547 14.00127
#
# Compressibility (1/GPa) = 0.01280939
#
# Stress axis : x y z
#
# Youngs Moduli (GPa) = 55.75117 46.54654 89.24637
#
# Poissons Ratio (x) = 0.37146 0.51681
# Poissons Ratio (y) = 0.44491 0.45846
# Poissons Ratio (z) = 0.32284 0.23911
#
# Static dielectric constant tensor:
#      x y z
#    x 1.775640 0.000000 0.000000 
#    y 0.000000 1.925040 0.000000 
#    z 0.000000 0.000000 1.670170 
# 
# From -- ./inp_files/30231.got.cif
#   From: 2010.05.17/outbox.cif.g08.bks.cpg/sg21_16_cif.got.tgz:30231.got - 2010.06.03 23:14:55.
