data_PCOD9324716
_publ_section_title
;
Structure prediction by ZEFSAII (Michael W. Deem and Ramdas Pophale) SiO2 
 PCOD9324716
Probable space group: C 2 2 2
;
_chemical_formula_sum "Si O2"
_cell_formula_units_Z 32
_cell_length_a 19.491617
_cell_length_b 6.220839
_cell_length_c 12.259716
_cell_angle_alpha 90.000000
_cell_angle_beta 90.000000
_cell_angle_gamma 90.000000
_cell_volume 1486.542193
_symmetry_space_group_name_H-M "C 2 2 2"
_symmetry_group_IT_number 21
_symmetry_cell_setting 'orthorhombic'
loop_
_space_group_symop_operation_xyz
x,y,z
-x,-y,z
x,-y,-z
-x,y,-z
1/2+x,1/2+y,z
1/2-x,1/2-y,z
1/2+x,1/2-y,-z
1/2-x,1/2+y,-z
loop_
_atom_site_type_symbol
_atom_site_label
_atom_site_fract_x
_atom_site_fract_y
_atom_site_fract_z
Si Si1 0.439584 0.370612 0.699597
Si Si2 0.500000 0.000000 0.150793
Si Si3 0.609803 0.341703 0.896738
Si Si4 0.685868 0.110388 0.392369
Si Si5 0.750000 0.750000 0.224143
O O1 0.500000 0.500000 0.636251
O O2 0.419362 0.540105 0.791297
O O3 0.371446 0.280220 0.644682
O O4 0.464668 0.166512 0.767719
O O5 0.440595 0.137153 0.089724
O O6 0.687525 0.300733 0.858655
O O7 0.605915 0.500000 0.000000
O O8 0.750000 0.250000 0.429820
O O9 0.656515 0.000000 0.500000
O O10 0.716755 0.939583 0.302391
#
# Coordination Sequence:
#
# PCOD9324716 Si02
#       5
#     8   4   8   8   4
#     4  10  23  43  71 101 140 178 236 299 354 426
#     4  10  22  45  69  94 142 184 231 288 361 420
#     4  11  25  42  72 105 138 187 239 293 361 433
#     4  12  24  44  77 104 136 191 241 297 369 440
#     4  12  24  44  70 108 146 184 238 302 360 434
#
# _framework density 21.526467
#
# number of rings (size 3 to 8) (size 9 to 14) (size 15 to 20)
#    0.000    1.000    6.250    0.000    0.000    8.500 
#    0.000    0.625    5.500    0.000    0.000    0.000 
#    0.000    0.000    0.000    0.000    0.000    0.000 
#
# Total GULP energy -89175.872648 kJ/mol
# GULP energy per Si atom -5573.492040 kJ/mol
# Density = 2.147747 g / cm^3
# Si number density = 21.526467 Si / 1000 Ang^3
#
#
#
# Elastic Constant Matrix: (Units=GPa)
#
#
# Indices 1 2 3 4 5 6 
#
# 1 124.1849 46.2446 30.3018 0.0000 0.0000 0.0000
# 2 46.2446 103.8753 29.3365 0.0000 0.0000 0.0000
# 3 30.3018 29.3365 77.1160 0.0000 0.0000 0.0000
# 4 0.0000 0.0000 0.0000 46.8067 0.0000 0.0000
# 5 0.0000 0.0000 0.0000 0.0000 57.0508 0.0000
# 6 0.0000 0.0000 0.0000 0.0000 0.0000 58.5226
#
#
#
# Elastic Compliance Matrix: (Units=1/GPa)
#
#
# Indices 1 2 3 4 5 6 
#
# 1 0.010073 -0.003772 -0.002523 0.000000 0.000000 0.000000
# 2 -0.003772 0.012198 -0.003158 0.000000 0.000000 0.000000
# 3 -0.002523 -0.003158 0.015160 0.000000 0.000000 0.000000
# 4 0.000000 0.000000 0.000000 0.021364 0.000000 0.000000
# 5 0.000000 0.000000 0.000000 0.000000 0.017528 0.000000
# 6 0.000000 0.000000 0.000000 0.000000 0.000000 0.017087
#
#
# Mechanical properties :
#
#
# Convention : Reuss Voigt Hill
#
# Bulk Modulus (GPa) = 53.98161 57.43799 55.70980
# Shear Modulus (GPa) = 42.19676 45.76224 43.97950
#
# Velocity S-wave (km/s) = 4.43225 4.61571 4.52491
# Velocity P-wave (km/s) = 7.16410 7.42609 7.29627
#
# Compressibility (1/GPa) = 0.01852483
#
# Stress axis : x y z
#
# Youngs Moduli (GPa) = 99.27829 81.98030 65.96130
#
# Poissons Ratio (x) = 0.30921 0.16643
# Poissons Ratio (y) = 0.37445 0.20833
# Poissons Ratio (z) = 0.25049 0.25892
#
# Static dielectric constant tensor:
#      x y z
#    x 1.733010 0.000000 0.000000 
#    y 0.000000 1.796700 0.000000 
#    z 0.000000 0.000000 1.757340 
# 
# From -- ./inp_files/32612.got.cif
#   From: 2010.05.17/outbox.cif.g08.bks.cpg/sg21_17_cif.got.tgz:32612.got - 2010.06.03 23:14:55.
