data_PCOD9324970
_publ_section_title
;
Structure prediction by ZEFSAII (Michael W. Deem and Ramdas Pophale) SiO2 
 PCOD9324970
Probable space group: C 2 2 2
;
_chemical_formula_sum "Si O2"
_cell_formula_units_Z 64
_cell_length_a 9.079338
_cell_length_b 30.051301
_cell_length_c 11.739088
_cell_angle_alpha 90.000000
_cell_angle_beta 90.000000
_cell_angle_gamma 90.000000
_cell_volume 3202.962255
_symmetry_space_group_name_H-M "C 2 2 2"
_symmetry_group_IT_number 21
_symmetry_cell_setting 'orthorhombic'
loop_
_space_group_symop_operation_xyz
x,y,z
-x,-y,z
x,-y,-z
-x,y,-z
1/2+x,1/2+y,z
1/2-x,1/2-y,z
1/2+x,1/2-y,-z
1/2-x,1/2+y,-z
loop_
_atom_site_type_symbol
_atom_site_label
_atom_site_fract_x
_atom_site_fract_y
_atom_site_fract_z
Si Si1 0.206495 0.370503 0.662704
Si Si2 0.014515 0.699058 0.634921
Si Si3 0.671422 0.486915 0.736739
Si Si4 0.288147 0.342224 0.277050
Si Si5 0.671770 0.577800 0.459301
Si Si6 0.340701 0.931243 0.148564
Si Si7 0.557390 0.703929 0.631737
Si Si8 0.315467 0.914507 0.881361
O O1 0.047045 0.348754 0.672277
O O2 0.231857 0.408758 0.568985
O O3 0.238905 0.391576 0.783872
O O4 0.302029 0.327718 0.629568
O O5 0.934184 0.744687 0.669014
O O6 0.000000 0.697927 0.500000
O O7 0.180746 0.696504 0.677543
O O8 0.500000 0.500000 0.734950
O O9 0.706842 0.467000 0.611123
O O10 0.775034 0.525073 0.790187
O O11 0.697013 0.445939 0.821227
O O12 0.300497 0.381562 0.371597
O O13 0.447725 0.320351 0.280988
O O14 0.227731 0.365196 0.162260
O O15 0.500000 0.577180 0.500000
O O16 0.518717 0.927467 0.160258
O O17 0.311511 0.925175 0.015071
O O18 0.500000 0.703758 0.500000
#
# Coordination Sequence:
#
# PCOD9324970 Si02
#       8
#     8   8   8   8   8   8   8   8
#     4  12  21  37  61  91 126 164 203 243 305 371
#     4  11  21  34  59  95 128 159 207 253 293 372
#     4  11  25  41  65  93 120 155 204 253 303 369
#     4  11  19  38  61  89 122 165 206 246 305 362
#     4  11  21  38  60  89 132 164 187 243 314 370
#     4  11  24  43  65  87 119 164 205 258 313 357
#     4  11  21  36  59  92 133 166 195 247 313 364
#     4  10  24  44  65  86 118 160 211 262 308 354
#
# _framework density 19.981504000000001
#
# number of rings (size 3 to 8) (size 9 to 14) (size 15 to 20)
#    0.000    1.000    5.000    2.250    1.750    5.750 
#    0.000    0.000    0.000    7.500    0.000    0.000 
#    0.000    0.000    0.000    0.000    0.000    0.000 
#
# Total GULP energy -178440.083336 kJ/mol
# GULP energy per Si atom -5576.252604 kJ/mol
# Density = 1.993602 g / cm^3
# Si number density = 19.981504 Si / 1000 Ang^3
#
#
#
# Elastic Constant Matrix: (Units=GPa)
#
#
# Indices 1 2 3 4 5 6 
#
# 1 49.1467 27.4810 29.9612 0.0000 0.0000 0.0000
# 2 27.4810 99.1600 60.0518 0.0000 0.0000 0.0000
# 3 29.9612 60.0518 84.3645 0.0000 0.0000 0.0000
# 4 0.0000 0.0000 0.0000 0.5209 0.0000 0.0000
# 5 0.0000 0.0000 0.0000 0.0000 22.1828 0.0000
# 6 0.0000 0.0000 0.0000 0.0000 0.0000 29.0015
#
#
#
# Elastic Compliance Matrix: (Units=1/GPa)
#
#
# Indices 1 2 3 4 5 6 
#
# 1 0.026431 -0.002883 -0.007334 0.000000 0.000000 0.000000
# 2 -0.002883 0.018041 -0.011818 0.000000 0.000000 0.000000
# 3 -0.007334 -0.011818 0.022870 0.000000 0.000000 0.000000
# 4 0.000000 0.000000 0.000000 1.919571 0.000000 0.000000
# 5 0.000000 0.000000 0.000000 0.000000 0.045080 0.000000
# 6 0.000000 0.000000 0.000000 0.000000 0.000000 0.034481
#
#
# Mechanical properties :
#
#
# Convention : Reuss Voigt Hill
#
# Bulk Modulus (GPa) = 42.97199 51.96215 47.46707
# Shear Modulus (GPa) = 2.36038 18.01953 10.18996
#
# Velocity S-wave (km/s) = 1.08805 3.00627 2.26070
# Velocity P-wave (km/s) = 4.80947 6.17348 5.53366
#
# Compressibility (1/GPa) = 0.02327097
#
# Stress axis : x y z
#
# Youngs Moduli (GPa) = 37.83492 55.43074 43.72572
#
# Poissons Ratio (x) = 0.15983 0.32069
# Poissons Ratio (y) = 0.10909 0.51673
# Poissons Ratio (z) = 0.27749 0.65505
#
# Static dielectric constant tensor:
#      x y z
#    x 1.805190 0.000000 0.000000 
#    y 0.000000 1.749370 0.000000 
#    z 0.000000 0.000000 1.687610 
# 
# From -- ./inp_files/23137.got.cif
#   From: 2010.05.17/outbox.cif.g08.bks.cpg/sg21_12_cif.got.tgz:23137.got - 2010.06.03 23:14:55.
