data_PCOD9324055
_publ_section_title
;
Structure prediction by ZEFSAII (Michael W. Deem and Ramdas Pophale) SiO2 
 PCOD9324055
Probable space group: C 2 2 2
;
_chemical_formula_sum "Si O2"
_cell_formula_units_Z 48
_cell_length_a 8.927435
_cell_length_b 17.032193
_cell_length_c 17.327472
_cell_angle_alpha 90.000000
_cell_angle_beta 90.000000
_cell_angle_gamma 90.000000
_cell_volume 2634.707891
_symmetry_space_group_name_H-M "C 2 2 2"
_symmetry_group_IT_number 21
_symmetry_cell_setting 'orthorhombic'
loop_
_space_group_symop_operation_xyz
x,y,z
-x,-y,z
x,-y,-z
-x,y,-z
1/2+x,1/2+y,z
1/2-x,1/2-y,z
1/2+x,1/2-y,-z
1/2-x,1/2+y,-z
loop_
_atom_site_type_symbol
_atom_site_label
_atom_site_fract_x
_atom_site_fract_y
_atom_site_fract_z
Si Si1 0.180758 0.335090 0.352790
Si Si2 0.195273 0.660288 0.823871
Si Si3 0.102120 0.576644 0.199680
Si Si4 0.169901 0.093359 0.499942
Si Si5 0.823539 0.335146 0.348775
Si Si6 0.674053 0.486937 0.908856
O O1 0.250000 0.250000 0.363296
O O2 0.225735 0.361261 0.266290
O O3 0.244972 0.385704 0.421684
O O4 0.002274 0.328795 0.358302
O O5 0.250000 0.750000 0.835147
O O6 0.276773 0.599560 0.880384
O O7 0.016490 0.642512 0.829815
O O8 0.189969 0.609713 0.273546
O O9 0.217967 0.547072 0.135973
O O10 0.000000 0.500000 0.220217
O O11 0.252794 0.127080 0.574884
O O12 0.000000 0.125279 0.500000
O O13 0.163299 0.000000 0.500000
O O14 0.750000 0.250000 0.335953
O O15 0.500000 0.500000 0.889713
O O16 0.693343 0.500000 0.000000
#
# Coordination Sequence:
#
# PCOD9324055 Si02
#       6
#     8   8   8   8   8   8
#     4  10  21  39  60  82 115 152 195 245 299 343
#     4   9  20  39  63  89 118 155 199 244 297 354
#     4   9  21  39  63  89 118 156 202 237 300 357
#     4  11  25  38  54  82 117 157 203 244 295 348
#     4  11  23  38  60  86 117 153 198 247 295 350
#     4  10  22  40  61  90 124 158 194 241 296 354
#
# _framework density 18.218337999999999
#
# number of rings (size 3 to 8) (size 9 to 14) (size 15 to 20)
#    0.000    2.000    0.000    2.000    7.000    9.000 
#    0.000    4.167    0.000    0.000    0.000    0.000 
#    0.000    0.000    0.000    0.000    0.000    0.000 
#
# Total GULP energy -133922.345958 kJ/mol
# GULP energy per Si atom -5580.097748 kJ/mol
# Density = 1.817687 g / cm^3
# Si number density = 18.218338 Si / 1000 Ang^3
#
#
#
# Elastic Constant Matrix: (Units=GPa)
#
#
# Indices 1 2 3 4 5 6 
#
# 1 91.4977 55.6301 77.0774 0.0000 0.0000 0.0000
# 2 55.6301 93.9590 75.3472 0.0000 0.0000 0.0000
# 3 77.0774 75.3472 124.4613 0.0000 0.0000 0.0000
# 4 0.0000 0.0000 0.0000 24.6313 0.0000 0.0000
# 5 0.0000 0.0000 0.0000 0.0000 32.5516 0.0000
# 6 0.0000 0.0000 0.0000 0.0000 0.0000 22.6272
#
#
#
# Elastic Compliance Matrix: (Units=1/GPa)
#
#
# Indices 1 2 3 4 5 6 
#
# 1 0.023752 -0.004406 -0.012042 0.000000 0.000000 0.000000
# 2 -0.004406 0.021502 -0.010288 0.000000 0.000000 0.000000
# 3 -0.012042 -0.010288 0.021721 0.000000 0.000000 0.000000
# 4 0.000000 0.000000 0.000000 0.040599 0.000000 0.000000
# 5 0.000000 0.000000 0.000000 0.000000 0.030720 0.000000
# 6 0.000000 0.000000 0.000000 0.000000 0.000000 0.044195
#
#
# Mechanical properties :
#
#
# Convention : Reuss Voigt Hill
#
# Bulk Modulus (GPa) = 74.06479 80.66972 77.36725
# Shear Modulus (GPa) = 20.79320 22.75289 21.77304
#
# Velocity S-wave (km/s) = 3.38203 3.53781 3.46080
# Velocity P-wave (km/s) = 7.48285 7.81433 7.65038
#
# Compressibility (1/GPa) = 0.01350169
#
# Stress axis : x y z
#
# Youngs Moduli (GPa) = 42.10085 46.50692 46.03929
#
# Poissons Ratio (x) = 0.20493 0.55441
# Poissons Ratio (y) = 0.18551 0.47367
# Poissons Ratio (z) = 0.50698 0.47848
#
# Static dielectric constant tensor:
#      x y z
#    x 1.619970 0.000000 0.000000 
#    y 0.000000 1.616380 0.000000 
#    z 0.000000 0.000000 1.625640 
# 
# From -- ./inp_files/35772.got.cif
#   From: 2010.05.17/outbox.cif.g08.bks.cpg/sg21_18_cif.got.tgz:35772.got - 2010.06.03 23:14:55.
