data_PCOD9324962
_publ_section_title
;
Structure prediction by ZEFSAII (Michael W. Deem and Ramdas Pophale) SiO2 
 PCOD9324962
Probable space group: C 2 2 2
;
_chemical_formula_sum "Si O2"
_cell_formula_units_Z 48
_cell_length_a 18.153373
_cell_length_b 8.406681
_cell_length_c 13.387093
_cell_angle_alpha 90.000000
_cell_angle_beta 90.000000
_cell_angle_gamma 90.000000
_cell_volume 2042.999121
_symmetry_space_group_name_H-M "C 2 2 2"
_symmetry_group_IT_number 21
_symmetry_cell_setting 'orthorhombic'
loop_
_space_group_symop_operation_xyz
x,y,z
-x,-y,z
x,-y,-z
-x,y,-z
1/2+x,1/2+y,z
1/2-x,1/2-y,z
1/2+x,1/2-y,-z
1/2-x,1/2+y,-z
loop_
_atom_site_type_symbol
_atom_site_label
_atom_site_fract_x
_atom_site_fract_y
_atom_site_fract_z
Si Si1 0.844192 0.362651 0.718296
Si Si2 0.819877 0.837952 0.948584
Si Si3 0.588593 0.821238 0.487214
Si Si4 0.561298 0.625750 0.670310
Si Si5 0.062192 0.378453 0.834437
Si Si6 0.695280 0.454455 0.770547
O O1 0.883045 0.283483 0.622786
O O2 0.888875 0.505684 0.765390
O O3 0.762526 0.427572 0.694996
O O4 0.830807 0.223271 0.799018
O O5 0.750000 0.750000 0.999455
O O6 0.885420 0.719523 0.911731
O O7 0.779216 0.924192 0.854818
O O8 0.850795 0.000000 0.000000
O O9 0.500000 0.827758 0.500000
O O10 0.604646 0.706093 0.578320
O O11 0.616834 0.000000 0.500000
O O12 0.500000 0.500000 0.635407
O O13 0.530255 0.753602 0.751440
O O14 0.623030 0.534318 0.729804
O O15 0.000000 0.500000 0.876112
#
# Coordination Sequence:
#
# PCOD9324962 Si02
#       6
#     8   8   8   8   8   8
#     4  11  22  42  66 101 144 191 245 294 365 434
#     4  11  25  45  78 113 143 189 247 314 380 472
#     4  11  22  38  61  93 134 186 248 301 346 421
#     4  11  23  41  68 100 146 197 255 299 366 429
#     4  11  22  43  76 107 148 197 241 300 378 448
#     4  10  24  43  67 104 143 186 239 303 367 448
#
# _framework density 23.494869999999999
#
# number of rings (size 3 to 8) (size 9 to 14) (size 15 to 20)
#    0.000    1.167    3.333    3.000    2.333    2.333 
#    6.000    0.000    0.000   35.500    0.000    0.000 
#    0.000    0.000    0.000    0.000    0.000    0.000 
#
# Total GULP energy -133839.672783 kJ/mol
# GULP energy per Si atom -5576.653033 kJ/mol
# Density = 2.344139 g / cm^3
# Si number density = 23.494870 Si / 1000 Ang^3
#
#
#
# Elastic Constant Matrix: (Units=GPa)
#
#
# Indices 1 2 3 4 5 6 
#
# 1 81.4748 38.1847 27.3691 0.0000 0.0000 0.0000
# 2 38.1847 141.2912 41.3685 0.0000 0.0000 0.0000
# 3 27.3691 41.3685 69.6567 0.0000 0.0000 0.0000
# 4 0.0000 0.0000 0.0000 30.4130 0.0000 0.0000
# 5 0.0000 0.0000 0.0000 0.0000 28.8247 0.0000
# 6 0.0000 0.0000 0.0000 0.0000 0.0000 29.0190
#
#
#
# Elastic Compliance Matrix: (Units=1/GPa)
#
#
# Indices 1 2 3 4 5 6 
#
# 1 0.015015 -0.002821 -0.004224 0.000000 0.000000 0.000000
# 2 -0.002821 0.009097 -0.004294 0.000000 0.000000 0.000000
# 3 -0.004224 -0.004294 0.018566 0.000000 0.000000 0.000000
# 4 0.000000 0.000000 0.000000 0.032881 0.000000 0.000000
# 5 0.000000 0.000000 0.000000 0.000000 0.034692 0.000000
# 6 0.000000 0.000000 0.000000 0.000000 0.000000 0.034460
#
#
# Mechanical properties :
#
#
# Convention : Reuss Voigt Hill
#
# Bulk Modulus (GPa) = 50.00188 56.25192 53.12690
# Shear Modulus (GPa) = 28.72616 30.01803 29.37210
#
# Velocity S-wave (km/s) = 3.50044 3.57829 3.53958
# Velocity P-wave (km/s) = 6.13724 6.40831 6.27424
#
# Compressibility (1/GPa) = 0.01999925
#
# Stress axis : x y z
#
# Youngs Moduli (GPa) = 66.60073 109.92221 53.86114
#
# Poissons Ratio (x) = 0.31010 0.22752
# Poissons Ratio (y) = 0.18788 0.23130
# Poissons Ratio (z) = 0.28133 0.47205
#
# Static dielectric constant tensor:
#      x y z
#    x 1.878750 0.000000 0.000000 
#    y 0.000000 1.958980 0.000000 
#    z 0.000000 0.000000 2.146280 
# 
# From -- ./inp_files/36889.got.cif
#   From: 2010.05.17/outbox.cif.g08.bks.cpg/sg21_19_cif.got.tgz:36889.got - 2010.06.03 23:14:55.
