data_PCOD9324090
_publ_section_title
;
Structure prediction by ZEFSAII (Michael W. Deem and Ramdas Pophale) SiO2 
 PCOD9324090
Probable space group: C 2 2 2
;
_chemical_formula_sum "Si O2"
_cell_formula_units_Z 58
_cell_length_a 24.166924
_cell_length_b 15.411775
_cell_length_c 7.979869
_cell_angle_alpha 90.000000
_cell_angle_beta 90.000000
_cell_angle_gamma 90.000000
_cell_volume 2972.143666
_symmetry_space_group_name_H-M "C 2 2 2"
_symmetry_group_IT_number 21
_symmetry_cell_setting 'orthorhombic'
loop_
_space_group_symop_operation_xyz
x,y,z
-x,-y,z
x,-y,-z
-x,y,-z
1/2+x,1/2+y,z
1/2-x,1/2-y,z
1/2+x,1/2-y,-z
1/2-x,1/2+y,-z
loop_
_atom_site_type_symbol
_atom_site_label
_atom_site_fract_x
_atom_site_fract_y
_atom_site_fract_z
Si Si1 0.188018 0.426128 0.639004
Si Si2 0.312532 0.251805 0.434894
Si Si3 0.099357 0.755977 0.861014
Si Si4 0.813372 0.071543 0.355294
Si Si5 0.413349 0.872720 0.158155
Si Si6 0.500000 0.000000 0.000000
Si Si7 0.518298 0.718864 0.691990
Si Si8 0.087884 0.083890 0.898840
O O1 0.181000 0.500000 0.500000
O O2 0.184001 0.333852 0.546537
O O3 0.250228 0.434514 0.710165
O O4 0.138204 0.424807 0.768476
O O5 0.250000 0.250000 0.363152
O O6 0.357900 0.252028 0.290425
O O7 0.319840 0.335222 0.554352
O O8 0.036719 0.755783 0.793314
O O9 0.105206 0.677391 0.990656
O O10 0.106053 0.844120 0.966112
O O11 0.859410 0.059660 0.214610
O O12 0.819908 0.000000 0.500000
O O13 0.461905 0.938631 0.113017
O O14 0.437731 0.797134 0.280401
O O15 0.500000 0.706498 0.500000
O O16 0.544152 0.632916 0.777738
O O17 0.067465 0.000000 0.000000
#
# Coordination Sequence:
#
# PCOD9324090 Si02
#       8
#     8   8   8   8   8   2   8   8
#     4  10  23  40  62  91 122 163 210 250 304 371
#     4  10  21  39  64  91 123 159 206 254 302 371
#     4  11  22  40  61  90 125 161 201 254 316 363
#     4  10  21  42  63  89 123 161 205 256 309 369
#     4  11  23  40  61  88 128 160 202 255 303 368
#     4  12  24  40  58  92 126 156 198 248 310 356
#     4  11  23  42  64  87 122 168 209 251 313 370
#     4  11  23  39  62  90 124 158 206 261 312 369
#
# _framework density 19.514534999999999
#
# number of rings (size 3 to 8) (size 9 to 14) (size 15 to 20)
#    0.000    1.379    1.379    5.379    1.931    3.310 
#    1.241    0.690    0.000    0.000    0.000    0.000 
#    0.000    0.000    0.000    0.000    0.000    0.000 
#
# Total GULP energy -162115.897892 kJ/mol
# GULP energy per Si atom -5590.203376 kJ/mol
# Density = 1.947012 g / cm^3
# Si number density = 19.514535 Si / 1000 Ang^3
#
#
#
# Elastic Constant Matrix: (Units=GPa)
#
#
# Indices 1 2 3 4 5 6 
#
# 1 119.1860 8.9957 36.2060 0.0000 0.0000 0.0000
# 2 8.9957 99.2756 6.4724 0.0000 0.0000 0.0000
# 3 36.2060 6.4724 55.4842 0.0000 0.0000 0.0000
# 4 0.0000 0.0000 0.0000 16.2849 0.0000 0.0000
# 5 0.0000 0.0000 0.0000 0.0000 21.2632 0.0000
# 6 0.0000 0.0000 0.0000 0.0000 0.0000 24.1983
#
#
#
# Elastic Compliance Matrix: (Units=1/GPa)
#
#
# Indices 1 2 3 4 5 6 
#
# 1 0.010490 -0.000508 -0.006786 0.000000 0.000000 0.000000
# 2 -0.000508 0.010175 -0.000855 0.000000 0.000000 0.000000
# 3 -0.006786 -0.000855 0.022551 0.000000 0.000000 0.000000
# 4 0.000000 0.000000 0.000000 0.061407 0.000000 0.000000
# 5 0.000000 0.000000 0.000000 0.000000 0.047030 0.000000
# 6 0.000000 0.000000 0.000000 0.000000 0.000000 0.041325
#
#
# Mechanical properties :
#
#
# Convention : Reuss Voigt Hill
#
# Bulk Modulus (GPa) = 37.15120 41.92158 39.53639
# Shear Modulus (GPa) = 22.90967 27.16740 25.03853
#
# Velocity S-wave (km/s) = 3.43006 3.73522 3.58588
# Velocity P-wave (km/s) = 5.89628 6.33493 6.11953
#
# Compressibility (1/GPa) = 0.02691703
#
# Stress axis : x y z
#
# Youngs Moduli (GPa) = 95.32874 98.28227 44.34375
#
# Poissons Ratio (x) = 0.04994 0.30091
# Poissons Ratio (y) = 0.04844 0.03793
# Poissons Ratio (z) = 0.64690 0.08407
#
# Static dielectric constant tensor:
#      x y z
#    x 1.696510 0.000000 0.000000 
#    y 0.000000 1.673950 0.000000 
#    z 0.000000 0.000000 1.651890 
# 
# From -- ./inp_files/17739.got.cif
#   From: 2010.05.17/outbox.cif.g08.bks.cpg/sg21_9_cif.got.tgz:17739.got - 2010.06.03 23:14:55.
