data_PCOD9324659
_publ_section_title
;
Structure prediction by ZEFSAII (Michael W. Deem and Ramdas Pophale) SiO2 
 PCOD9324659
Probable space group: C 2 2 2
;
_chemical_formula_sum "Si O2"
_cell_formula_units_Z 52
_cell_length_a 12.709949
_cell_length_b 9.465483
_cell_length_c 20.449809
_cell_angle_alpha 90.000000
_cell_angle_beta 90.000000
_cell_angle_gamma 90.000000
_cell_volume 2460.230758
_symmetry_space_group_name_H-M "C 2 2 2"
_symmetry_group_IT_number 21
_symmetry_cell_setting 'orthorhombic'
loop_
_space_group_symop_operation_xyz
x,y,z
-x,-y,z
x,-y,-z
-x,y,-z
1/2+x,1/2+y,z
1/2-x,1/2-y,z
1/2+x,1/2-y,-z
1/2-x,1/2+y,-z
loop_
_atom_site_type_symbol
_atom_site_label
_atom_site_fract_x
_atom_site_fract_y
_atom_site_fract_z
Si Si1 0.496059 0.266360 0.636961
Si Si2 0.330518 0.485153 0.344160
Si Si3 0.226891 0.485716 0.208045
Si Si4 0.750000 0.750000 0.868672
Si Si5 0.750000 0.250000 0.899659
Si Si6 0.672390 0.122157 0.447588
Si Si7 0.000000 0.500000 0.267888
Si Si8 0.621807 0.842812 0.989709
O O1 0.411697 0.383158 0.662292
O O2 0.602527 0.355905 0.624689
O O3 0.436089 0.192707 0.576471
O O4 0.513921 0.140179 0.687970
O O5 0.286526 0.439784 0.273803
O O6 0.234281 0.545815 0.387282
O O7 0.280366 0.624484 0.179133
O O8 0.230955 0.377293 0.148998
O O9 0.105999 0.516551 0.226308
O O10 0.657614 0.792258 0.918735
O O11 0.657109 0.260900 0.952202
O O12 0.750000 0.250000 0.469415
O O13 0.656750 0.000000 0.500000
O O14 0.500000 0.855778 0.000000
O O15 0.669828 0.000000 0.000000
#
# Coordination Sequence:
#
# PCOD9324659 Si02
#       8
#     8   8   8   4   4   8   4   8
#     4  10  22  43  69  99 133 183 226 274 348 413
#     4  10  22  46  69  96 143 183 217 291 350 404
#     4  12  24  41  67  99 137 171 228 279 342 407
#     4  11  24  40  70  96 129 180 222 282 339 412
#     4  11  24  40  64 100 127 174 218 270 339 400
#     4  10  22  44  71  99 140 187 232 285 350 416
#     4  12  24  38  67 103 134 174 226 278 342 412
#     4  10  22  45  67  90 132 174 223 276 333 401
#
# _framework density 21.136230999999999
#
# number of rings (size 3 to 8) (size 9 to 14) (size 15 to 20)
#    0.000    1.385    3.077    1.846    3.231    1.231 
#    6.923   10.385    0.000    0.000    0.000    0.000 
#    0.000    0.000    0.000    0.000    0.000    0.000 
#
# Total GULP energy -145230.043521 kJ/mol
# GULP energy per Si atom -5585.770905 kJ/mol
# Density = 2.108812 g / cm^3
# Si number density = 21.136231 Si / 1000 Ang^3
#
#
#
# Elastic Constant Matrix: (Units=GPa)
#
#
# Indices 1 2 3 4 5 6 
#
# 1 82.5141 30.7757 38.0603 0.0000 0.0000 0.0000
# 2 30.7757 105.3783 39.3761 0.0000 0.0000 0.0000
# 3 38.0603 39.3761 88.8045 0.0000 0.0000 0.0000
# 4 0.0000 0.0000 0.0000 53.0206 0.0000 0.0000
# 5 0.0000 0.0000 0.0000 0.0000 117.9928 0.0000
# 6 0.0000 0.0000 0.0000 0.0000 0.0000 25.1790
#
#
#
# Elastic Compliance Matrix: (Units=1/GPa)
#
#
# Indices 1 2 3 4 5 6 
#
# 1 0.015624 -0.002470 -0.005601 0.000000 0.000000 0.000000
# 2 -0.002470 0.011765 -0.004158 0.000000 0.000000 0.000000
# 3 -0.005601 -0.004158 0.015505 0.000000 0.000000 0.000000
# 4 0.000000 0.000000 0.000000 0.018861 0.000000 0.000000
# 5 0.000000 0.000000 0.000000 0.000000 0.008475 0.000000
# 6 0.000000 0.000000 0.000000 0.000000 0.000000 0.039716
#
#
# Mechanical properties :
#
#
# Convention : Reuss Voigt Hill
#
# Bulk Modulus (GPa) = 54.24287 54.79125 54.51706
# Shear Modulus (GPa) = 35.57516 50.47081 43.02299
#
# Velocity S-wave (km/s) = 4.10706 4.89190 4.51656
# Velocity P-wave (km/s) = 6.94332 7.60833 7.28342
#
# Compressibility (1/GPa) = 0.01843560
#
# Stress axis : x y z
#
# Youngs Moduli (GPa) = 64.00455 85.00051 64.49637
#
# Poissons Ratio (x) = 0.20996 0.36124
# Poissons Ratio (y) = 0.15810 0.26816
# Poissons Ratio (z) = 0.35849 0.35342
#
# Static dielectric constant tensor:
#      x y z
#    x 1.748530 0.000000 0.000000 
#    y 0.000000 1.800610 0.000000 
#    z 0.000000 0.000000 1.720470 
# 
# From -- ./inp_files/37575.got.cif
#   From: 2010.05.17/outbox.cif.g08.bks.cpg/sg21_19_cif.got.tgz:37575.got - 2010.06.03 23:14:55.
