data_PCOD9324133
_publ_section_title
;
Structure prediction by ZEFSAII (Michael W. Deem and Ramdas Pophale) SiO2 
 PCOD9324133
Probable space group: C 2 2 2
;
_chemical_formula_sum "Si O2"
_cell_formula_units_Z 32
_cell_length_a 13.780310
_cell_length_b 8.061117
_cell_length_c 11.673439
_cell_angle_alpha 90.000000
_cell_angle_beta 90.000000
_cell_angle_gamma 90.000000
_cell_volume 1296.740367
_symmetry_space_group_name_H-M "C 2 2 2"
_symmetry_group_IT_number 21
_symmetry_cell_setting 'orthorhombic'
loop_
_space_group_symop_operation_xyz
x,y,z
-x,-y,z
x,-y,-z
-x,y,-z
1/2+x,1/2+y,z
1/2-x,1/2-y,z
1/2+x,1/2-y,-z
1/2-x,1/2+y,-z
loop_
_atom_site_type_symbol
_atom_site_label
_atom_site_fract_x
_atom_site_fract_y
_atom_site_fract_z
Si Si1 0.117224 0.811147 0.501801
Si Si2 0.618720 0.305623 0.756184
Si Si3 0.574127 0.839213 0.726940
Si Si4 0.773805 0.507311 0.132097
O O1 0.144111 0.746112 0.626999
O O2 0.132113 0.699008 0.390461
O O3 0.000000 0.821702 0.500000
O O4 0.154462 0.000000 0.500000
O O5 0.502881 0.304696 0.757014
O O6 0.679491 0.467789 0.788521
O O7 0.659617 0.170202 0.844213
O O8 0.500000 0.000000 0.714546
O O9 0.653133 0.866614 0.824855
O O10 0.747666 0.500000 0.000000
#
# Coordination Sequence:
#
# PCOD9324133 Si02
#       4
#     8   8   8   8
#     4   9  18  37  62  92 137 169 214 288 358 427
#     4   9  20  39  60  93 133 165 227 294 336 419
#     4   9  19  37  70  98 129 182 232 277 367 423
#     4  10  21  40  62  92 135 176 236 292 329 412
#
# _framework density 24.677258999999999
#
# number of rings (size 3 to 8) (size 9 to 14) (size 15 to 20)
#    0.000    2.750    0.000    0.000    0.000   16.000 
#   18.000    0.000   11.000    0.000    0.000    0.000 
#    0.000    0.000    0.000    0.000    0.000    0.000 
#
# Total GULP energy -89320.375109 kJ/mol
# GULP energy per Si atom -5582.523444 kJ/mol
# Density = 2.462109 g / cm^3
# Si number density = 24.677259 Si / 1000 Ang^3
#
#
#
# Elastic Constant Matrix: (Units=GPa)
#
#
# Indices 1 2 3 4 5 6 
#
# 1 156.3876 30.7057 57.5735 0.0000 0.0000 0.0000
# 2 30.7057 59.4867 12.4345 0.0000 0.0000 0.0000
# 3 57.5735 12.4345 158.4583 0.0000 0.0000 0.0000
# 4 0.0000 0.0000 0.0000 29.6864 0.0000 0.0000
# 5 0.0000 0.0000 0.0000 0.0000 27.9005 0.0000
# 6 0.0000 0.0000 0.0000 0.0000 0.0000 39.0736
#
#
#
# Elastic Compliance Matrix: (Units=1/GPa)
#
#
# Indices 1 2 3 4 5 6 
#
# 1 0.008081 -0.003617 -0.002652 0.000000 0.000000 0.000000
# 2 -0.003617 0.018710 -0.000154 0.000000 0.000000 0.000000
# 3 -0.002652 -0.000154 0.007287 0.000000 0.000000 0.000000
# 4 0.000000 0.000000 0.000000 0.033685 0.000000 0.000000
# 5 0.000000 0.000000 0.000000 0.000000 0.035842 0.000000
# 6 0.000000 0.000000 0.000000 0.000000 0.000000 0.025593
#
#
# Mechanical properties :
#
#
# Convention : Reuss Voigt Hill
#
# Bulk Modulus (GPa) = 47.10133 63.97333 55.53733
# Shear Modulus (GPa) = 33.53000 37.57335 35.55168
#
# Velocity S-wave (km/s) = 3.69011 3.90627 3.79973
# Velocity P-wave (km/s) = 6.10608 6.80629 6.46567
#
# Compressibility (1/GPa) = 0.02123082
#
# Stress axis : x y z
#
# Youngs Moduli (GPa) = 123.74825 53.44854 137.23897
#
# Poissons Ratio (x) = 0.19331 0.36399
# Poissons Ratio (y) = 0.44757 0.02114
# Poissons Ratio (z) = 0.32821 0.00823
#
# Static dielectric constant tensor:
#      x y z
#    x 1.985940 0.000000 0.000000 
#    y 0.000000 2.109970 0.000000 
#    z 0.000000 0.000000 1.900690 
# 
# From -- ./inp_files/21824.got.cif
#   From: 2010.05.17/outbox.cif.g08.bks.cpg/sg21_11_cif.got.tgz:21824.got - 2010.06.03 23:14:55.
