data_PCOD9324817
_publ_section_title
;
Structure prediction by ZEFSAII (Michael W. Deem and Ramdas Pophale) SiO2 
 PCOD9324817
Probable space group: C 2 2 2
;
_chemical_formula_sum "Si O2"
_cell_formula_units_Z 40
_cell_length_a 9.172200
_cell_length_b 10.895513
_cell_length_c 18.320203
_cell_angle_alpha 90.000000
_cell_angle_beta 90.000000
_cell_angle_gamma 90.000000
_cell_volume 1830.844589
_symmetry_space_group_name_H-M "C 2 2 2"
_symmetry_group_IT_number 21
_symmetry_cell_setting 'orthorhombic'
loop_
_space_group_symop_operation_xyz
x,y,z
-x,-y,z
x,-y,-z
-x,y,-z
1/2+x,1/2+y,z
1/2-x,1/2-y,z
1/2+x,1/2-y,-z
1/2-x,1/2+y,-z
loop_
_atom_site_type_symbol
_atom_site_label
_atom_site_fract_x
_atom_site_fract_y
_atom_site_fract_z
Si Si1 0.899675 0.186767 0.065371
Si Si2 0.165760 0.366662 0.525407
Si Si3 0.397654 0.882282 0.307759
Si Si4 0.164828 0.011409 0.801272
Si Si5 0.068121 0.639542 0.824232
O O1 0.750000 0.250000 0.038820
O O2 0.848457 0.084967 0.123018
O O3 0.001118 0.282139 0.110617
O O4 0.000000 0.141221 0.000000
O O5 0.225585 0.500000 0.500000
O O6 0.250000 0.250000 0.493446
O O7 0.155760 0.349491 0.612527
O O8 0.000000 0.362845 0.500000
O O9 0.258617 0.915622 0.258388
O O10 0.500908 0.807083 0.251677
O O11 0.500000 0.000000 0.322095
O O12 0.259963 0.888887 0.817430
O O13 0.000000 0.000000 0.775131
O O14 0.000000 0.500000 0.831685
#
# Coordination Sequence:
#
# PCOD9324817 Si02
#       5
#     8   8   8   8   8
#     4  12  25  42  63  95 134 177 235 297 360 425
#     4  11  24  45  72 108 151 190 239 297 374 436
#     4   9  18  42  73  91 130 188 230 286 351 439
#     4  10  23  42  64  99 128 168 234 290 351 425
#     4   9  20  41  68  91 121 176 233 273 351 423
#
# _framework density 21.847839
#
# number of rings (size 3 to 8) (size 9 to 14) (size 15 to 20)
#    0.000    2.200    6.000    0.000    5.600    1.200 
#    3.600    0.000    0.000    0.000    0.000    0.000 
#    0.000    0.000    0.000    0.000    0.000    0.000 
#
# Total GULP energy -111598.304809 kJ/mol
# GULP energy per Si atom -5579.915240 kJ/mol
# Density = 2.179811 g / cm^3
# Si number density = 21.847839 Si / 1000 Ang^3
#
#
#
# Elastic Constant Matrix: (Units=GPa)
#
#
# Indices 1 2 3 4 5 6 
#
# 1 173.0003 46.9868 45.7898 0.0000 0.0000 0.0000
# 2 46.9868 104.9248 37.2466 0.0000 0.0000 0.0000
# 3 45.7898 37.2466 136.0025 0.0000 0.0000 0.0000
# 4 0.0000 0.0000 0.0000 15.2392 0.0000 0.0000
# 5 0.0000 0.0000 0.0000 0.0000 4.4435 0.0000
# 6 0.0000 0.0000 0.0000 0.0000 0.0000 22.2552
#
#
#
# Elastic Compliance Matrix: (Units=1/GPa)
#
#
# Indices 1 2 3 4 5 6 
#
# 1 0.006894 -0.002507 -0.001634 0.000000 0.000000 0.000000
# 2 -0.002507 0.011469 -0.002297 0.000000 0.000000 0.000000
# 3 -0.001634 -0.002297 0.008532 0.000000 0.000000 0.000000
# 4 0.000000 0.000000 0.000000 0.065620 0.000000 0.000000
# 5 0.000000 0.000000 0.000000 0.000000 0.225047 0.000000
# 6 0.000000 0.000000 0.000000 0.000000 0.000000 0.044933
#
#
# Mechanical properties :
#
#
# Convention : Reuss Voigt Hill
#
# Bulk Modulus (GPa) = 71.33637 74.88598 73.11118
# Shear Modulus (GPa) = 13.15637 27.31455 20.23546
#
# Velocity S-wave (km/s) = 2.45660 3.53968 3.04665
# Velocity P-wave (km/s) = 6.38505 7.14537 6.77588
#
# Compressibility (1/GPa) = 0.01401810
#
# Stress axis : x y z
#
# Youngs Moduli (GPa) = 145.05715 87.19448 117.20403
#
# Poissons Ratio (x) = 0.21859 0.19157
# Poissons Ratio (y) = 0.36365 0.26920
# Poissons Ratio (z) = 0.23709 0.20027
#
# Static dielectric constant tensor:
#      x y z
#    x 1.824430 0.000000 0.000000 
#    y 0.000000 1.892320 0.000000 
#    z 0.000000 0.000000 1.852210 
# 
# From -- ./inp_files/35466.got.cif
#   From: 2010.05.17/outbox.cif.g08.bks.cpg/sg21_18_cif.got.tgz:35466.got - 2010.06.03 23:14:55.
