data_PCOD9324351
_publ_section_title
;
Structure prediction by ZEFSAII (Michael W. Deem and Ramdas Pophale) SiO2 
 PCOD9324351
Probable space group: C 2 2 2
;
_chemical_formula_sum "Si O2"
_cell_formula_units_Z 36
_cell_length_a 9.819205
_cell_length_b 19.932796
_cell_length_c 8.496406
_cell_angle_alpha 90.000000
_cell_angle_beta 90.000000
_cell_angle_gamma 90.000000
_cell_volume 1662.952353
_symmetry_space_group_name_H-M "C 2 2 2"
_symmetry_group_IT_number 21
_symmetry_cell_setting 'orthorhombic'
loop_
_space_group_symop_operation_xyz
x,y,z
-x,-y,z
x,-y,-z
-x,y,-z
1/2+x,1/2+y,z
1/2-x,1/2-y,z
1/2+x,1/2-y,-z
1/2-x,1/2+y,-z
loop_
_atom_site_type_symbol
_atom_site_label
_atom_site_fract_x
_atom_site_fract_y
_atom_site_fract_z
Si Si1 0.005166 0.285634 0.317444
Si Si2 0.750000 0.250000 0.895676
Si Si3 0.848095 0.588735 0.752884
Si Si4 0.546812 0.626572 0.675409
Si Si5 0.500000 0.000000 0.500000
Si Si6 0.000000 0.500000 0.000000
Si Si7 0.500000 0.340824 0.000000
O O1 0.150053 0.289579 0.227153
O O2 0.000000 0.306956 0.500000
O O3 0.906010 0.336289 0.230479
O O4 0.958304 0.208247 0.323375
O O5 0.638089 0.293719 0.994064
O O6 0.692165 0.596168 0.711179
O O7 0.912776 0.548300 0.608923
O O8 0.899683 0.547004 0.900618
O O9 0.500000 0.606015 0.500000
O O10 0.473793 0.614850 0.843571
#
# Coordination Sequence:
#
# PCOD9324351 Si02
#       7
#     8   4   8   8   2   2   4
#     4  10  22  36  70 103 142 180 224 302 370 435
#     4  10  24  38  58 110 140 188 224 280 376 438
#     4  11  23  44  68  98 139 185 245 295 349 426
#     4  10  24  42  70 107 140 178 229 298 374 438
#     4  10  24  42  66  98 124 194 236 290 332 430
#     4  10  28  44  68 104 136 204 248 294 352 434
#     4  10  24  39  62  97 152 178 232 272 358 442
#
# _framework density 21.648246
#
# number of rings (size 3 to 8) (size 9 to 14) (size 15 to 20)
#    0.000    1.778    1.111    0.667   18.667    0.889 
#    4.000    0.556    0.000    0.000    0.000    0.000 
#    0.000    0.000    0.000    0.000    0.000    0.000 
#
# Total GULP energy -100260.541277 kJ/mol
# GULP energy per Si atom -5570.030071 kJ/mol
# Density = 2.159897 g / cm^3
# Si number density = 21.648246 Si / 1000 Ang^3
#
#
#
# Elastic Constant Matrix: (Units=GPa)
#
#
# Indices 1 2 3 4 5 6 
#
# 1 125.1605 8.0532 50.6980 0.0000 0.0000 0.0000
# 2 8.0532 18.7698 7.2936 0.0000 0.0000 0.0000
# 3 50.6980 7.2936 162.4223 0.0000 0.0000 0.0000
# 4 0.0000 0.0000 0.0000 105.7274 0.0000 0.0000
# 5 0.0000 0.0000 0.0000 0.0000 60.8706 0.0000
# 6 0.0000 0.0000 0.0000 0.0000 0.0000 -44.8243
#
#
#
# Elastic Compliance Matrix: (Units=1/GPa)
#
#
# Indices 1 2 3 4 5 6 
#
# 1 0.009300 -0.002913 -0.002772 0.000000 0.000000 0.000000
# 2 -0.002913 0.055136 -0.001567 0.000000 0.000000 0.000000
# 3 -0.002772 -0.001567 0.007092 0.000000 0.000000 0.000000
# 4 0.000000 0.000000 0.000000 0.009458 0.000000 0.000000
# 5 0.000000 0.000000 0.000000 0.000000 0.016428 0.000000
# 6 0.000000 0.000000 0.000000 0.000000 0.000000 -0.022309
#
#
# Mechanical properties :
#
#
# Convention : Reuss Voigt Hill
#
# Bulk Modulus (GPa) = 17.53628 48.71580 33.12604
# Shear Modulus (GPa) = 46.03336 40.37525 43.20430
#
# Velocity S-wave (km/s) = 4.61632 4.32332 4.47222
# Velocity P-wave (km/s) = 6.04417 6.89011 6.48096
#
# Compressibility (1/GPa) = 0.05702465
#
# Stress axis : x y z
#
# Youngs Moduli (GPa) = 107.52640 18.13711 140.99578
#
# Poissons Ratio (x) = 0.05283 0.39085
# Poissons Ratio (y) = 0.31322 0.22089
# Poissons Ratio (z) = 0.29807 0.02841
#
# Static dielectric constant tensor:
#      x y z
#    x 1.720320 0.000000 0.000000 
#    y 0.000000 1.771570 0.000000 
#    z 0.000000 0.000000 2.214420 
# 
# From -- ./inp_files/10667.got.cif
#   From: 2010.05.17/outbox.cif.g08.bks.cpg/sg21_6_cif.got.tgz:10667.got - 2010.06.03 23:14:55.
