data_PCOD9324545
_publ_section_title
;
Structure prediction by ZEFSAII (Michael W. Deem and Ramdas Pophale) SiO2 
 PCOD9324545
Probable space group: C 2 2 2
;
_chemical_formula_sum "Si O2"
_cell_formula_units_Z 40
_cell_length_a 22.256696
_cell_length_b 7.638088
_cell_length_c 10.918841
_cell_angle_alpha 90.000000
_cell_angle_beta 90.000000
_cell_angle_gamma 90.000000
_cell_volume 1856.187712
_symmetry_space_group_name_H-M "C 2 2 2"
_symmetry_group_IT_number 21
_symmetry_cell_setting 'orthorhombic'
loop_
_space_group_symop_operation_xyz
x,y,z
-x,-y,z
x,-y,-z
-x,y,-z
1/2+x,1/2+y,z
1/2-x,1/2-y,z
1/2+x,1/2-y,-z
1/2-x,1/2+y,-z
loop_
_atom_site_type_symbol
_atom_site_label
_atom_site_fract_x
_atom_site_fract_y
_atom_site_fract_z
Si Si1 0.715766 1.000000 0.134268
Si Si2 0.302676 0.499999 0.631976
Si Si3 0.500000 0.213893 0.859457
Si Si4 0.876961 0.698076 0.264729
Si Si5 0.876961 0.698075 0.735271
O O1 0.670356 0.163469 0.153715
O O2 0.758145 0.000000 0.252534
O O3 0.670357 0.836530 0.153716
O O4 0.742912 0.000000 0.000000
O O5 0.271495 0.500000 0.500000
O O6 0.344876 0.668975 0.645620
O O7 0.344876 0.331023 0.645620
O O8 0.560365 0.264806 0.788506
O O9 0.439635 0.264806 0.788506
O O10 0.500000 0.000000 0.862768
O O11 0.500000 0.273932 0.000000
O O12 0.885530 0.500001 0.315330
#
# Coordination Sequence:
#
# PCOD9324545 Si02
#       5
#     8   8   8   8   8
#     4  10  22  41  65  95 128 162 204 258 315 372
#     4  12  26  43  62  89 126 172 215 256 303 366
#     4   9  16  35  65  92 127 161 198 251 316 377
#     4   9  22  39  62  94 124 161 202 256 310 368
#     4   9  22  39  62  94 124 161 202 256 310 368
#
# _framework density 21.549544999999998
#
# number of rings (size 3 to 8) (size 9 to 14) (size 15 to 20)
#    1.200    1.000    0.000    2.400    0.000    9.600 
#    0.000    3.000    0.000    3.600    0.000    0.000 
#    0.000    0.000    0.000    0.000    0.000    0.000 
#
# Total GULP energy -111518.881646 kJ/mol
# GULP energy per Si atom -5575.944082 kJ/mol
# Density = 2.150050 g / cm^3
# Si number density = 21.549545 Si / 1000 Ang^3
#
#
#
# Elastic Constant Matrix: (Units=GPa)
#
#
# Indices 1 2 3 4 5 6 
#
# 1 139.8726 19.7777 71.4892 0.0000 0.0000 0.0000
# 2 19.7777 67.7954 24.7284 0.0000 0.0000 0.0000
# 3 71.4892 24.7284 143.3454 0.0000 0.0000 0.0000
# 4 0.0000 0.0000 0.0000 16.7437 0.0000 0.0000
# 5 0.0000 0.0000 0.0000 0.0000 4.5595 0.0000
# 6 0.0000 0.0000 0.0000 0.0000 0.0000 -18.0596
#
#
#
# Elastic Compliance Matrix: (Units=1/GPa)
#
#
# Indices 1 2 3 4 5 6 
#
# 1 0.009676 -0.001134 -0.004630 0.000000 0.000000 0.000000
# 2 -0.001134 0.015874 -0.002173 0.000000 0.000000 0.000000
# 3 -0.004630 -0.002173 0.009660 0.000000 0.000000 0.000000
# 4 0.000000 0.000000 0.000000 0.059724 0.000000 0.000000
# 5 0.000000 0.000000 0.000000 0.000000 0.219321 0.000000
# 6 0.000000 0.000000 0.000000 0.000000 0.000000 -0.055372
#
#
# Mechanical properties :
#
#
# Convention : Reuss Voigt Hill
#
# Bulk Modulus (GPa) = 51.71658 64.77822 58.24740
# Shear Modulus (GPa) = 17.78083 16.31661 17.04872
#
# Velocity S-wave (km/s) = 2.87560 2.75465 2.81577
# Velocity P-wave (km/s) = 5.92254 6.34373 6.13675
#
# Compressibility (1/GPa) = 0.01933616
#
# Stress axis : x y z
#
# Youngs Moduli (GPa) = 103.34709 62.99764 103.51875
#
# Poissons Ratio (x) = 0.07144 0.47930
# Poissons Ratio (y) = 0.11719 0.22493
# Poissons Ratio (z) = 0.47850 0.13688
#
# Static dielectric constant tensor:
#      x y z
#    x 1.793750 0.000000 0.000000 
#    y 0.000000 1.853790 0.000000 
#    z 0.000000 0.000000 1.752480 
# 
# From -- ./inp_files/26681.got.cif
#   From: 2010.05.17/outbox.cif.g08.bks.cpg/sg21_14_cif.got.tgz:26681.got - 2010.06.03 23:14:55.
