data_PCOD9324118
_publ_section_title
;
Structure prediction by ZEFSAII (Michael W. Deem and Ramdas Pophale) SiO2 
 PCOD9324118
Probable space group: C 2 2 2
;
_chemical_formula_sum "Si O2"
_cell_formula_units_Z 40
_cell_length_a 8.235691
_cell_length_b 15.993455
_cell_length_c 14.814206
_cell_angle_alpha 90.000000
_cell_angle_beta 90.000000
_cell_angle_gamma 90.000000
_cell_volume 1951.285044
_symmetry_space_group_name_H-M "C 2 2 2"
_symmetry_group_IT_number 21
_symmetry_cell_setting 'orthorhombic'
loop_
_space_group_symop_operation_xyz
x,y,z
-x,-y,z
x,-y,-z
-x,y,-z
1/2+x,1/2+y,z
1/2-x,1/2-y,z
1/2+x,1/2-y,-z
1/2-x,1/2+y,-z
loop_
_atom_site_type_symbol
_atom_site_label
_atom_site_fract_x
_atom_site_fract_y
_atom_site_fract_z
Si Si1 0.500000 0.000000 0.777669
Si Si2 0.409000 0.658182 0.770041
Si Si3 0.947754 0.676014 0.304563
Si Si4 0.500000 0.149296 0.500000
Si Si5 0.815594 0.033634 0.901271
Si Si6 0.250493 0.500000 0.500000
Si Si7 0.000000 0.000000 0.660988
O O1 0.516149 0.915324 0.719622
O O2 0.665967 0.007287 0.836361
O O3 0.244722 0.665053 0.710942
O O4 0.495377 0.747355 0.760962
O O5 0.348204 0.629773 0.869394
O O6 0.504460 0.582434 0.722927
O O7 0.990613 0.699295 0.406980
O O8 0.649145 0.085024 0.498714
O O9 0.000000 0.000000 0.891119
O O10 0.767707 0.000000 0.000000
O O11 0.351041 0.502093 0.592162
#
# Coordination Sequence:
#
# PCOD9324118 Si02
#       7
#     4   8   8   4   8   4   4
#     4  10  21  41  68  92 132 176 212 265 329 392
#     4  10  21  40  62  88 127 161 214 265 330 382
#     4  10  22  38  64  90 125 177 210 264 319 377
#     4  11  20  36  54  87 124 164 218 253 294 381
#     4  10  21  39  70  93 124 164 208 266 333 393
#     4  10  22  32  58  84 120 160 220 258 304 354
#     4  11  20  38  55  84 118 166 199 270 314 363
#
# _framework density 20.499310999999999
#
# number of rings (size 3 to 8) (size 9 to 14) (size 15 to 20)
#    0.000    1.800    3.000    1.500    2.800    1.600 
#    0.000    3.000   35.200    0.000    0.000    0.000 
#    0.000    0.000    0.000    0.000    0.000    0.000 
#
# Total GULP energy -111369.004750 kJ/mol
# GULP energy per Si atom -5568.450238 kJ/mol
# Density = 2.045265 g / cm^3
# Si number density = 20.499311 Si / 1000 Ang^3
#
#
#
# Elastic Constant Matrix: (Units=GPa)
#
#
# Indices 1 2 3 4 5 6 
#
# 1 57.1279 -0.8084 4.1914 0.0000 0.0000 0.0000
# 2 -0.8084 130.3770 45.5826 0.0000 0.0000 0.0000
# 3 4.1914 45.5826 125.1038 0.0000 0.0000 0.0000
# 4 0.0000 0.0000 0.0000 19.7711 0.0000 0.0000
# 5 0.0000 0.0000 0.0000 0.0000 27.6388 0.0000
# 6 0.0000 0.0000 0.0000 0.0000 0.0000 19.6205
#
#
#
# Elastic Compliance Matrix: (Units=1/GPa)
#
#
# Indices 1 2 3 4 5 6 
#
# 1 0.017563 0.000361 -0.000720 0.000000 0.000000 0.000000
# 2 0.000361 0.008797 -0.003217 0.000000 0.000000 0.000000
# 3 -0.000720 -0.003217 0.009190 0.000000 0.000000 0.000000
# 4 0.000000 0.000000 0.000000 0.050579 0.000000 0.000000
# 5 0.000000 0.000000 0.000000 0.000000 0.036181 0.000000
# 6 0.000000 0.000000 0.000000 0.000000 0.000000 0.050967
#
#
# Mechanical properties :
#
#
# Convention : Reuss Voigt Hill
#
# Bulk Modulus (GPa) = 35.21600 45.61554 40.41577
# Shear Modulus (GPa) = 26.33035 30.98230 28.65633
#
# Velocity S-wave (km/s) = 3.58781 3.89187 3.74293
# Velocity P-wave (km/s) = 5.86341 6.51890 6.19982
#
# Compressibility (1/GPa) = 0.02839618
#
# Stress axis : x y z
#
# Youngs Moduli (GPa) = 56.93948 113.67290 108.81677
#
# Poissons Ratio (x) = -0.04098 0.07832
# Poissons Ratio (y) = -0.02053 0.35011
# Poissons Ratio (z) = 0.04098 0.36573
#
# Static dielectric constant tensor:
#      x y z
#    x 1.761440 0.000000 0.000000 
#    y 0.000000 1.790000 0.000000 
#    z 0.000000 0.000000 1.779770 
# 
# From -- ./inp_files/30270.got.cif
#   From: 2010.05.17/outbox.cif.g08.bks.cpg/sg21_16_cif.got.tgz:30270.got - 2010.06.03 23:14:55.
