data_PCOD9324541
_publ_section_title
;
Structure prediction by ZEFSAII (Michael W. Deem and Ramdas Pophale) SiO2 
 PCOD9324541
Probable space group: C 2 2 2
;
_chemical_formula_sum "Si O2"
_cell_formula_units_Z 30
_cell_length_a 16.155394
_cell_length_b 5.288983
_cell_length_c 17.454732
_cell_angle_alpha 90.000000
_cell_angle_beta 90.000000
_cell_angle_gamma 90.000000
_cell_volume 1491.430122
_symmetry_space_group_name_H-M "C 2 2 2"
_symmetry_group_IT_number 21
_symmetry_cell_setting 'orthorhombic'
loop_
_space_group_symop_operation_xyz
x,y,z
-x,-y,z
x,-y,-z
-x,y,-z
1/2+x,1/2+y,z
1/2-x,1/2-y,z
1/2+x,1/2-y,-z
1/2-x,1/2+y,-z
loop_
_atom_site_type_symbol
_atom_site_label
_atom_site_fract_x
_atom_site_fract_y
_atom_site_fract_z
Si Si1 0.349505 0.250893 0.543917
Si Si2 0.917764 0.820124 0.870065
Si Si3 0.445590 0.755315 0.302871
Si Si4 0.750000 0.250000 0.051149
Si Si5 0.000000 0.500000 0.000000
O O1 0.380251 0.500000 0.500000
O O2 0.250000 0.250000 0.540564
O O3 0.377055 0.259310 0.631687
O O4 0.379427 0.000000 0.500000
O O5 0.913550 0.712208 0.784207
O O6 0.823336 0.871659 0.895810
O O7 0.944069 0.653043 0.941959
O O8 0.000000 0.000000 0.866248
O O9 0.500000 0.500000 0.306097
O O10 0.500000 0.000000 0.320396
O O11 0.773672 0.500000 0.000000
#
# Coordination Sequence:
#
# PCOD9324541 Si02
#       5
#     8   8   8   4   2
#     4  10  22  41  65  93 128 170 211 263 332 395
#     4  11  25  42  67  98 135 182 224 289 344 400
#     4  11  24  41  64  97 129 167 221 268 333 395
#     4  12  26  44  68 102 130 178 244 278 342 428
#     4  12  18  44  68  82 140 176 222 276 342 388
#
# _framework density 20.114922
#
# number of rings (size 3 to 8) (size 9 to 14) (size 15 to 20)
#    0.000    1.067    2.667    3.600    1.867    3.200 
#    0.000    0.000    0.000    0.000    0.000    0.000 
#    0.000    0.000    0.000    0.000    0.000    0.000 
#
# Total GULP energy -83506.196965 kJ/mol
# GULP energy per Si atom -5567.079798 kJ/mol
# Density = 2.006914 g / cm^3
# Si number density = 20.114922 Si / 1000 Ang^3
#
#
#
# Elastic Constant Matrix: (Units=GPa)
#
#
# Indices 1 2 3 4 5 6 
#
# 1 76.5958 18.7396 29.1737 0.0000 0.0000 0.0000
# 2 18.7396 113.3248 40.1543 0.0000 0.0000 0.0000
# 3 29.1737 40.1543 164.0742 0.0000 0.0000 0.0000
# 4 0.0000 0.0000 0.0000 44.5276 0.0000 0.0000
# 5 0.0000 0.0000 0.0000 0.0000 415.9899 0.0000
# 6 0.0000 0.0000 0.0000 0.0000 0.0000 60.2815
#
#
#
# Elastic Compliance Matrix: (Units=1/GPa)
#
#
# Indices 1 2 3 4 5 6 
#
# 1 0.014264 -0.001599 -0.002145 0.000000 0.000000 0.000000
# 2 -0.001599 0.009841 -0.002124 0.000000 0.000000 0.000000
# 3 -0.002145 -0.002124 0.006996 0.000000 0.000000 0.000000
# 4 0.000000 0.000000 0.000000 0.022458 0.000000 0.000000
# 5 0.000000 0.000000 0.000000 0.000000 0.002404 0.000000
# 6 0.000000 0.000000 0.000000 0.000000 0.000000 0.016589
#
#
# Mechanical properties :
#
#
# Convention : Reuss Voigt Hill
#
# Bulk Modulus (GPa) = 51.63876 58.90333 55.27105
# Shear Modulus (GPa) = 55.10105 121.88826 88.49466
#
# Velocity S-wave (km/s) = 5.23952 7.79278 6.64003
# Velocity P-wave (km/s) = 7.89500 10.50319 9.29107
#
# Compressibility (1/GPa) = 0.01936530
#
# Stress axis : x y z
#
# Youngs Moduli (GPa) = 70.10834 101.61340 142.93765
#
# Poissons Ratio (x) = 0.16244 0.30659
# Poissons Ratio (y) = 0.11208 0.30363
# Poissons Ratio (z) = 0.15038 0.21585
#
# Static dielectric constant tensor:
#      x y z
#    x 1.804030 0.000000 0.000000 
#    y 0.000000 1.498720 0.000000 
#    z 0.000000 0.000000 0.999730 
# 
# From -- ./inp_files/28649.got.cif
#   From: 2010.05.17/outbox.cif.g08.bks.cpg/sg21_15_cif.got.tgz:28649.got - 2010.06.03 23:14:55.
