data_PCOD9324975
_publ_section_title
;
Structure prediction by ZEFSAII (Michael W. Deem and Ramdas Pophale) SiO2 
 PCOD9324975
Probable space group: C 2 2 2
;
_chemical_formula_sum "Si O2"
_cell_formula_units_Z 20
_cell_length_a 5.161611
_cell_length_b 8.051469
_cell_length_c 19.586246
_cell_angle_alpha 90.000000
_cell_angle_beta 90.000000
_cell_angle_gamma 90.000000
_cell_volume 813.976002
_symmetry_space_group_name_H-M "C 2 2 2"
_symmetry_group_IT_number 21
_symmetry_cell_setting 'orthorhombic'
loop_
_space_group_symop_operation_xyz
x,y,z
-x,-y,z
x,-y,-z
-x,y,-z
1/2+x,1/2+y,z
1/2-x,1/2-y,z
1/2+x,1/2-y,-z
1/2-x,1/2+y,-z
loop_
_atom_site_type_symbol
_atom_site_label
_atom_site_fract_x
_atom_site_fract_y
_atom_site_fract_z
Si Si1 0.500000 0.500000 0.000000
Si Si2 0.000000 0.000000 0.500000
Si Si3 0.250000 0.750000 0.398634
Si Si4 0.250000 0.250000 0.304322
Si Si5 0.250000 0.250000 0.895917
Si Si6 0.000000 0.000000 0.209291
O O1 0.305250 0.606168 0.047261
O O2 0.817348 0.102120 0.449615
O O3 0.498659 0.772015 0.350914
O O4 0.289906 0.414857 0.258356
O O5 0.072748 0.155448 0.839064
#
# Coordination Sequence:
#
# PCOD9324975 Si02
#       6
#     2   2   4   4   4   4
#     4  10  24  44  70 104 148 194 248 308 372 442
#     4  12  30  52  78 114 154 200 256 316 380 456
#     4  12  30  52  80 114 154 202 254 316 382 454
#     4  12  29  51  78 113 155 202 254 316 382 454
#     4  10  25  45  72 107 147 196 248 308 372 444
#     4  11  27  47  74 109 151 197 252 312 376 449
#
# _framework density 24.570751999999999
#
# number of rings (size 3 to 8) (size 9 to 14) (size 15 to 20)
#    0.000    0.800    0.000    3.600    0.000   33.600 
#    0.000    0.000    0.000    0.000    0.000    0.000 
#    0.000    0.000    0.000    0.000    0.000    0.000 
#
# Total GULP energy -55669.378693 kJ/mol
# GULP energy per Si atom -5566.937869 kJ/mol
# Density = 2.451483 g / cm^3
# Si number density = 24.570752 Si / 1000 Ang^3
#
#
#
# Elastic Constant Matrix: (Units=GPa)
#
#
# Indices 1 2 3 4 5 6 
#
# 1 161.1378 71.3214 110.5219 0.0000 0.0000 0.0000
# 2 71.3214 102.9243 77.8245 0.0000 0.0000 0.0000
# 3 110.5219 77.8245 219.0669 0.0000 0.0000 0.0000
# 4 0.0000 0.0000 0.0000 -145.9217 0.0000 0.0000
# 5 0.0000 0.0000 0.0000 0.0000 4.2292 0.0000
# 6 0.0000 0.0000 0.0000 0.0000 0.0000 45.7338
#
#
#
# Elastic Compliance Matrix: (Units=1/GPa)
#
#
# Indices 1 2 3 4 5 6 
#
# 1 0.010902 -0.004643 -0.003851 0.000000 0.000000 0.000000
# 2 -0.004643 0.015262 -0.003079 0.000000 0.000000 0.000000
# 3 -0.003851 -0.003079 0.007602 0.000000 0.000000 0.000000
# 4 0.000000 0.000000 0.000000 -0.006853 0.000000 0.000000
# 5 0.000000 0.000000 0.000000 0.000000 0.236451 0.000000
# 6 0.000000 0.000000 0.000000 0.000000 0.000000 0.021866
#
#
# Mechanical properties :
#
#
# Convention : Reuss Voigt Hill
#
# Bulk Modulus (GPa) = 94.16996 111.38497 102.77746
# Shear Modulus (GPa) = 16.03004 -4.29432 5.86786
#
# Velocity S-wave (km/s) = 2.55699 -1.32345 1.54704
# Velocity P-wave (km/s) = 6.86490 6.56471 6.71648
#
# Compressibility (1/GPa) = 0.01061910
#
# Stress axis : x y z
#
# Youngs Moduli (GPa) = 91.72571 65.52412 131.55192
#
# Poissons Ratio (x) = 0.30422 0.50658
# Poissons Ratio (y) = 0.42587 0.40510
# Poissons Ratio (z) = 0.35322 0.20177
#
# Static dielectric constant tensor:
#      x y z
#    x 2.011990 0.000000 0.000000 
#    y 0.000000 1.933720 0.000000 
#    z 0.000000 0.000000 1.918460 
# 
# From -- ./inp_files/34161.got.cif
#   From: 2010.05.17/outbox.cif.g08.bks.cpg/sg21_18_cif.got.tgz:34161.got - 2010.06.03 23:14:55.
