data_PCOD9324901
_publ_section_title
;
Structure prediction by ZEFSAII (Michael W. Deem and Ramdas Pophale) SiO2 
 PCOD9324901
Probable space group: C 2 2 2
;
_chemical_formula_sum "Si O2"
_cell_formula_units_Z 52
_cell_length_a 20.838369
_cell_length_b 7.741814
_cell_length_c 14.855501
_cell_angle_alpha 90.000000
_cell_angle_beta 90.000000
_cell_angle_gamma 90.000000
_cell_volume 2396.590095
_symmetry_space_group_name_H-M "C 2 2 2"
_symmetry_group_IT_number 21
_symmetry_cell_setting 'orthorhombic'
loop_
_space_group_symop_operation_xyz
x,y,z
-x,-y,z
x,-y,-z
-x,y,-z
1/2+x,1/2+y,z
1/2-x,1/2-y,z
1/2+x,1/2-y,-z
1/2-x,1/2+y,-z
loop_
_atom_site_type_symbol
_atom_site_label
_atom_site_fract_x
_atom_site_fract_y
_atom_site_fract_z
Si Si1 0.975030 0.696693 0.750184
Si Si2 0.000000 0.000000 0.374407
Si Si3 0.223253 0.062664 0.818381
Si Si4 0.854695 0.000000 0.000000
Si Si5 0.048414 0.282728 0.077383
Si Si6 0.113894 0.000000 0.500000
Si Si7 0.864944 0.482201 0.789563
Si Si8 0.177486 0.814712 0.664664
O O1 0.897946 0.660682 0.754674
O O2 0.000000 0.500000 0.735338
O O3 0.999596 0.773300 0.844256
O O4 0.009424 0.829576 0.683768
O O5 0.938719 0.068571 0.429553
O O6 0.250000 0.250000 0.789911
O O7 0.292436 0.969770 0.825923
O O8 0.182173 0.965966 0.740933
O O9 0.187700 0.063891 0.914624
O O10 0.901089 0.854034 0.040214
O O11 0.090228 0.428276 0.127043
O O12 0.000000 0.330412 0.000000
O O13 0.154101 0.121743 0.433403
O O14 0.862911 0.341481 0.709119
O O15 0.250000 0.750000 0.653331
#
# Coordination Sequence:
#
# PCOD9324901 Si02
#       8
#     8   4   8   4   8   4   8   8
#     4  10  24  45  71  99 141 190 232 290 360 420
#     4  11  26  44  75 106 140 181 230 294 350 443
#     4  11  27  42  72 100 137 189 234 293 359 418
#     4  12  27  42  64 106 143 186 240 298 356 426
#     4  11  25  40  65  98 137 188 235 289 353 416
#     4  11  24  44  74 108 140 175 226 288 368 421
#     4  10  23  48  69 100 136 192 237 294 357 430
#     4  10  23  49  73 100 143 182 229 301 359 434
#
# _framework density 21.697493999999999
#
# number of rings (size 3 to 8) (size 9 to 14) (size 15 to 20)
#    0.000    1.385    1.538    2.077    8.615    3.385 
#    2.769    4.615    0.000    0.000    0.000    0.000 
#    0.000    0.000    0.000    0.000    0.000    0.000 
#
# Total GULP energy -144798.089091 kJ/mol
# GULP energy per Si atom -5569.157273 kJ/mol
# Density = 2.164811 g / cm^3
# Si number density = 21.697494 Si / 1000 Ang^3
#
#
#
# Elastic Constant Matrix: (Units=GPa)
#
#
# Indices 1 2 3 4 5 6 
#
# 1 116.5418 30.4041 49.7109 0.0000 0.0000 0.0000
# 2 30.4041 74.3185 42.7929 0.0000 0.0000 0.0000
# 3 49.7109 42.7929 134.1466 0.0000 0.0000 0.0000
# 4 0.0000 0.0000 0.0000 23.7940 0.0000 0.0000
# 5 0.0000 0.0000 0.0000 0.0000 -56.5496 0.0000
# 6 0.0000 0.0000 0.0000 0.0000 0.0000 26.7933
#
#
#
# Elastic Compliance Matrix: (Units=1/GPa)
#
#
# Indices 1 2 3 4 5 6 
#
# 1 0.010567 -0.002534 -0.003108 0.000000 0.000000 0.000000
# 2 -0.002534 0.017091 -0.004513 0.000000 0.000000 0.000000
# 3 -0.003108 -0.004513 0.010046 0.000000 0.000000 0.000000
# 4 0.000000 0.000000 0.000000 0.042027 0.000000 0.000000
# 5 0.000000 0.000000 0.000000 0.000000 -0.017684 0.000000
# 6 0.000000 0.000000 0.000000 0.000000 0.000000 0.037323
#
#
# Mechanical properties :
#
#
# Convention : Reuss Voigt Hill
#
# Bulk Modulus (GPa) = 57.48788 63.42475 60.45631
# Shear Modulus (GPa) = 39.84777 12.28080 26.06429
#
# Velocity S-wave (km/s) = 4.29011 2.38166 3.46968
# Velocity P-wave (km/s) = 7.14792 6.07107 6.63139
#
# Compressibility (1/GPa) = 0.01739497
#
# Stress axis : x y z
#
# Youngs Moduli (GPa) = 94.63255 58.51108 99.54402
#
# Poissons Ratio (x) = 0.14825 0.30935
# Poissons Ratio (y) = 0.23977 0.44925
# Poissons Ratio (z) = 0.29408 0.26406
#
# Static dielectric constant tensor:
#      x y z
#    x 1.924570 0.000000 0.000000 
#    y 0.000000 2.030610 0.000000 
#    z 0.000000 0.000000 1.825440 
# 
# From -- ./inp_files/33264.got.cif
#   From: 2010.05.17/outbox.cif.g08.bks.cpg/sg21_17_cif.got.tgz:33264.got - 2010.06.03 23:14:55.
