data_PCOD9324498
_publ_section_title
;
Structure prediction by ZEFSAII (Michael W. Deem and Ramdas Pophale) SiO2 
 PCOD9324498
Probable space group: C 2 2 2
;
_chemical_formula_sum "Si O2"
_cell_formula_units_Z 30
_cell_length_a 7.324230
_cell_length_b 22.558242
_cell_length_c 8.456106
_cell_angle_alpha 90.000000
_cell_angle_beta 90.000000
_cell_angle_gamma 90.000000
_cell_volume 1397.132655
_symmetry_space_group_name_H-M "C 2 2 2"
_symmetry_group_IT_number 21
_symmetry_cell_setting 'orthorhombic'
loop_
_space_group_symop_operation_xyz
x,y,z
-x,-y,z
x,-y,-z
-x,y,-z
1/2+x,1/2+y,z
1/2-x,1/2-y,z
1/2+x,1/2-y,-z
1/2-x,1/2+y,-z
loop_
_atom_site_type_symbol
_atom_site_label
_atom_site_fract_x
_atom_site_fract_y
_atom_site_fract_z
Si Si1 0.000000 0.500000 0.500000
Si Si2 0.702404 0.592710 0.036749
Si Si3 0.523460 0.090988 0.253318
Si Si4 0.456446 0.228462 0.319661
Si Si5 0.500000 0.708801 0.000000
O O1 0.902915 0.453402 0.385565
O O2 0.821511 0.572887 0.187324
O O3 0.500000 0.567787 0.000000
O O4 0.835952 0.585751 0.889632
O O5 0.661902 0.663203 0.046935
O O6 0.500437 0.158469 0.310261
O O7 0.500000 0.248513 0.500000
O O8 0.250000 0.250000 0.302435
O O9 0.545120 0.255935 0.159915
#
# Coordination Sequence:
#
# PCOD9324498 Si02
#       5
#     2   8   8   8   4
#     4  12  28  46  66 100 144 196 240 286 342 406
#     4   9  21  43  72  98 132 178 238 284 361 422
#     4  11  23  45  67  93 141 184 234 292 340 417
#     4  12  25  38  67 105 140 184 228 287 365 424
#     4  10  22  40  66 104 140 166 224 290 356 438
#
# _framework density 21.472549000000001
#
# number of rings (size 3 to 8) (size 9 to 14) (size 15 to 20)
#    0.800    0.533    4.000    1.600    3.733    2.133 
#    0.000    5.333    0.000    0.000    0.000    0.000 
#    0.000    0.000    0.000    0.000    0.000    0.000 
#
# Total GULP energy -83511.365483 kJ/mol
# GULP energy per Si atom -5567.424366 kJ/mol
# Density = 2.142368 g / cm^3
# Si number density = 21.472549 Si / 1000 Ang^3
#
#
#
# Elastic Constant Matrix: (Units=GPa)
#
#
# Indices 1 2 3 4 5 6 
#
# 1 120.5083 8.4274 24.3599 0.0000 0.0000 0.0000
# 2 8.4274 115.2201 47.4411 0.0000 0.0000 0.0000
# 3 24.3599 47.4411 136.9884 0.0000 0.0000 0.0000
# 4 0.0000 0.0000 0.0000 41.9769 0.0000 0.0000
# 5 0.0000 0.0000 0.0000 0.0000 21.5122 0.0000
# 6 0.0000 0.0000 0.0000 0.0000 0.0000 -5.1950
#
#
#
# Elastic Compliance Matrix: (Units=1/GPa)
#
#
# Indices 1 2 3 4 5 6 
#
# 1 0.008608 0.000001 -0.001531 0.000000 0.000000 0.000000
# 2 0.000001 0.010122 -0.003506 0.000000 0.000000 0.000000
# 3 -0.001531 -0.003506 0.008786 0.000000 0.000000 0.000000
# 4 0.000000 0.000000 0.000000 0.023823 0.000000 0.000000
# 5 0.000000 0.000000 0.000000 0.000000 0.046485 0.000000
# 6 0.000000 0.000000 0.000000 0.000000 0.000000 -0.192493
#
#
# Mechanical properties :
#
#
# Convention : Reuss Voigt Hill
#
# Bulk Modulus (GPa) = 57.32445 59.24152 58.28298
# Shear Modulus (GPa) = -63.46622 31.15805 -16.15409
#
# Velocity S-wave (km/s) = -5.44252 3.81342 -2.74581
# Velocity P-wave (km/s) = 3.56934 6.85849 4.14117
#
# Compressibility (1/GPa) = 0.01744456
#
# Stress axis : x y z
#
# Youngs Moduli (GPa) = 116.17649 98.79060 113.81501
#
# Poissons Ratio (x) = -0.00008 0.17424
# Poissons Ratio (y) = -0.00009 0.39900
# Poissons Ratio (z) = 0.17786 0.34633
#
# Static dielectric constant tensor:
#      x y z
#    x 1.790550 0.000000 0.000000 
#    y 0.000000 1.815330 0.000000 
#    z 0.000000 0.000000 1.835150 
# 
# From -- ./inp_files/10509.got.cif
#   From: 2010.05.17/outbox.cif.g08.bks.cpg/sg21_6_cif.got.tgz:10509.got - 2010.06.03 23:14:55.
