data_PCOD9324357
_publ_section_title
;
Structure prediction by ZEFSAII (Michael W. Deem and Ramdas Pophale) SiO2 
 PCOD9324357
Probable space group: C 2 2 2
;
_chemical_formula_sum "Si O2"
_cell_formula_units_Z 64
_cell_length_a 22.080114
_cell_length_b 15.288680
_cell_length_c 9.207087
_cell_angle_alpha 90.000000
_cell_angle_beta 90.000000
_cell_angle_gamma 90.000000
_cell_volume 3108.089735
_symmetry_space_group_name_H-M "C 2 2 2"
_symmetry_group_IT_number 21
_symmetry_cell_setting 'orthorhombic'
loop_
_space_group_symop_operation_xyz
x,y,z
-x,-y,z
x,-y,-z
-x,y,-z
1/2+x,1/2+y,z
1/2-x,1/2-y,z
1/2+x,1/2-y,-z
1/2-x,1/2+y,-z
loop_
_atom_site_type_symbol
_atom_site_label
_atom_site_fract_x
_atom_site_fract_y
_atom_site_fract_z
Si Si1 0.632859 0.229970 0.079844
Si Si2 0.215977 0.159705 0.448354
Si Si3 0.693285 0.048859 0.148581
Si Si4 0.343283 0.072199 0.383136
Si Si5 0.380027 0.750125 0.743972
Si Si6 0.062070 0.038125 0.664653
Si Si7 0.987409 0.808935 0.835932
Si Si8 0.175659 0.902004 0.247441
O O1 0.663615 0.144045 0.142778
O O2 0.561505 0.234757 0.119866
O O3 0.661707 0.319574 0.143567
O O4 0.641264 0.226709 0.906652
O O5 0.250000 0.250000 0.488851
O O6 0.272262 0.096857 0.410639
O O7 0.168296 0.181939 0.322063
O O8 0.177545 0.127796 0.584968
O O9 0.758699 0.061794 0.217787
O O10 0.652339 0.981990 0.236511
O O11 0.703852 0.000000 0.000000
O O12 0.376675 0.164552 0.360271
O O13 0.362824 0.000000 0.500000
O O14 0.448089 0.716053 0.767686
O O15 0.047642 0.138871 0.706533
O O16 0.123278 0.024565 0.754722
O O17 0.066933 0.000000 0.500000
O O18 0.000000 0.000000 0.726862
O O19 0.000000 0.850026 0.000000
#
# Coordination Sequence:
#
# PCOD9324357 Si02
#       8
#     8   8   8   8   8   8   8   8
#     4  10  22  43  64  94 127 166 220 267 320 389
#     4  10  22  37  60  90 123 170 208 253 317 385
#     4  12  24  39  66  96 131 164 212 272 330 373
#     4  11  23  40  59  94 133 167 207 268 329 387
#     4  10  22  40  68  89 124 170 220 261 317 392
#     4  10  24  41  61  94 130 165 212 262 313 379
#     4   9  21  45  69  91 122 175 220 265 321 383
#     4  11  24  40  63  91 129 175 208 257 320 391
#
# _framework density 20.591425999999998
#
# number of rings (size 3 to 8) (size 9 to 14) (size 15 to 20)
#    0.000    1.625    2.500    1.125    8.750    1.250 
#    4.500    0.625    0.000    0.750    0.000    0.000 
#    0.000    0.000    0.000    0.000    0.000    0.000 
#
# Total GULP energy -178305.383787 kJ/mol
# GULP energy per Si atom -5572.043243 kJ/mol
# Density = 2.054456 g / cm^3
# Si number density = 20.591426 Si / 1000 Ang^3
#
#
#
# Elastic Constant Matrix: (Units=GPa)
#
#
# Indices 1 2 3 4 5 6 
#
# 1 69.4555 2.8926 23.3118 0.0000 0.0000 0.0000
# 2 2.8926 61.6877 28.1908 0.0000 0.0000 0.0000
# 3 23.3118 28.1908 75.7849 0.0000 0.0000 0.0000
# 4 0.0000 0.0000 0.0000 33.6456 0.0000 0.0000
# 5 0.0000 0.0000 0.0000 0.0000 23.9694 0.0000
# 6 0.0000 0.0000 0.0000 0.0000 0.0000 18.5518
#
#
#
# Elastic Compliance Matrix: (Units=1/GPa)
#
#
# Indices 1 2 3 4 5 6 
#
# 1 0.016225 0.001831 -0.005672 0.000000 0.000000 0.000000
# 2 0.001831 0.019738 -0.007905 0.000000 0.000000 0.000000
# 3 -0.005672 -0.007905 0.017881 0.000000 0.000000 0.000000
# 4 0.000000 0.000000 0.000000 0.029722 0.000000 0.000000
# 5 0.000000 0.000000 0.000000 0.000000 0.041720 0.000000
# 6 0.000000 0.000000 0.000000 0.000000 0.000000 0.053903
#
#
# Mechanical properties :
#
#
# Convention : Reuss Voigt Hill
#
# Bulk Modulus (GPa) = 32.94785 35.07982 34.01383
# Shear Modulus (GPa) = 23.49651 25.40221 24.44936
#
# Velocity S-wave (km/s) = 3.38166 3.51612 3.44954
# Velocity P-wave (km/s) = 5.59312 5.79286 5.69386
#
# Compressibility (1/GPa) = 0.03035100
#
# Stress axis : x y z
#
# Youngs Moduli (GPa) = 61.63244 50.66498 55.92621
#
# Poissons Ratio (x) = -0.09278 0.31722
# Poissons Ratio (y) = -0.11287 0.44212
# Poissons Ratio (z) = 0.34959 0.40053
#
# Static dielectric constant tensor:
#      x y z
#    x 1.764540 0.000000 0.000000 
#    y 0.000000 1.767150 0.000000 
#    z 0.000000 0.000000 1.712250 
# 
# From -- ./inp_files/18634.got.cif
#   From: 2010.05.17/outbox.cif.g08.bks.cpg/sg21_10_cif.got.tgz:18634.got - 2010.06.03 23:14:55.
