data_PCOD9324441
_publ_section_title
;
Structure prediction by ZEFSAII (Michael W. Deem and Ramdas Pophale) SiO2 
 PCOD9324441
Probable space group: C 2 2 2
;
_chemical_formula_sum "Si O2"
_cell_formula_units_Z 32
_cell_length_a 11.330230
_cell_length_b 21.746606
_cell_length_c 6.613525
_cell_angle_alpha 90.000000
_cell_angle_beta 90.000000
_cell_angle_gamma 90.000000
_cell_volume 1629.533194
_symmetry_space_group_name_H-M "C 2 2 2"
_symmetry_group_IT_number 21
_symmetry_cell_setting 'orthorhombic'
loop_
_space_group_symop_operation_xyz
x,y,z
-x,-y,z
x,-y,-z
-x,y,-z
1/2+x,1/2+y,z
1/2-x,1/2-y,z
1/2+x,1/2-y,-z
1/2-x,1/2+y,-z
loop_
_atom_site_type_symbol
_atom_site_label
_atom_site_fract_x
_atom_site_fract_y
_atom_site_fract_z
Si Si1 0.387881 0.562444 0.874258
Si Si2 0.000000 0.312382 0.500000
Si Si3 0.637916 0.886302 0.157355
Si Si4 0.500000 0.000000 0.000000
Si Si5 0.384133 0.227662 0.884133
Si Si6 0.000000 0.000000 0.500000
O O1 0.277773 0.605750 0.845150
O O2 0.425712 0.541417 0.652137
O O3 0.355750 0.500000 0.000000
O O4 0.500000 0.587715 0.000000
O O5 0.916943 0.353051 0.647042
O O6 0.918340 0.272612 0.350898
O O7 0.616578 0.842864 0.963185
O O8 0.579858 0.953273 0.129479
O O9 0.250000 0.250000 0.921989
O O10 0.500000 0.255623 0.000000
#
# Coordination Sequence:
#
# PCOD9324441 Si02
#       6
#     8   4   8   2   8   2
#     4   9  19  34  54  78 118 161 200 244 300 376
#     4  10  22  39  62  99 122 163 217 264 318 374
#     4  11  22  39  61  94 128 163 206 258 321 386
#     4  12  20  38  62  96 130 160 204 250 328 384
#     4  10  23  45  66  91 125 167 217 270 322 375
#     4   8  18  32  48  82 112 162 198 244 294 360
#
# _framework density 19.637523999999999
#
# number of rings (size 3 to 8) (size 9 to 14) (size 15 to 20)
#    0.000    2.250    5.000    0.000    0.000   11.500 
#    0.000    0.000    0.000    0.000    0.000    0.000 
#    0.000    0.000    0.000    0.000    0.000    0.000 
#
# Total GULP energy -89093.474830 kJ/mol
# GULP energy per Si atom -5568.342177 kJ/mol
# Density = 1.959283 g / cm^3
# Si number density = 19.637524 Si / 1000 Ang^3
#
#
#
# Elastic Constant Matrix: (Units=GPa)
#
#
# Indices 1 2 3 4 5 6 
#
# 1 168.8719 21.2847 36.5150 0.0000 0.0000 0.0000
# 2 21.2847 42.3064 5.8572 0.0000 0.0000 0.0000
# 3 36.5150 5.8572 112.8156 0.0000 0.0000 0.0000
# 4 0.0000 0.0000 0.0000 9.7714 0.0000 0.0000
# 5 0.0000 0.0000 0.0000 0.0000 7.0629 0.0000
# 6 0.0000 0.0000 0.0000 0.0000 0.0000 25.9268
#
#
#
# Elastic Compliance Matrix: (Units=1/GPa)
#
#
# Indices 1 2 3 4 5 6 
#
# 1 0.006752 -0.003117 -0.002024 0.000000 0.000000 0.000000
# 2 -0.003117 0.025247 -0.000302 0.000000 0.000000 0.000000
# 3 -0.002024 -0.000302 0.009535 0.000000 0.000000 0.000000
# 4 0.000000 0.000000 0.000000 0.102340 0.000000 0.000000
# 5 0.000000 0.000000 0.000000 0.000000 0.141584 0.000000
# 6 0.000000 0.000000 0.000000 0.000000 0.000000 0.038570
#
#
# Mechanical properties :
#
#
# Convention : Reuss Voigt Hill
#
# Bulk Modulus (GPa) = 32.62762 50.14531 41.38646
# Shear Modulus (GPa) = 14.48735 25.90802 20.19769
#
# Velocity S-wave (km/s) = 2.71908 3.63617 3.21054
# Velocity P-wave (km/s) = 5.14868 6.57418 5.90461
#
# Compressibility (1/GPa) = 0.03064888
#
# Stress axis : x y z
#
# Youngs Moduli (GPa) = 148.10294 39.60869 104.88025
#
# Poissons Ratio (x) = 0.12345 0.21224
# Poissons Ratio (y) = 0.46162 0.03167
# Poissons Ratio (z) = 0.29970 0.01196
#
# Static dielectric constant tensor:
#      x y z
#    x 1.740540 0.000000 0.000000 
#    y 0.000000 1.702970 0.000000 
#    z 0.000000 0.000000 1.671650 
# 
# From -- ./inp_files/2626.got.cif
#   From: 2010.05.17/outbox.cif.g08.bks.cpg/sg21_2_cif.got.tgz:2626.got - 2010.06.03 23:14:55.
