data_PCOD9324214
_publ_section_title
;
Structure prediction by ZEFSAII (Michael W. Deem and Ramdas Pophale) SiO2 
 PCOD9324214
Probable space group: C 2 2 2
;
_chemical_formula_sum "Si O2"
_cell_formula_units_Z 48
_cell_length_a 26.226513
_cell_length_b 8.636235
_cell_length_c 10.499038
_cell_angle_alpha 90.000000
_cell_angle_beta 90.000000
_cell_angle_gamma 90.000000
_cell_volume 2378.014568
_symmetry_space_group_name_H-M "C 2 2 2"
_symmetry_group_IT_number 21
_symmetry_cell_setting 'orthorhombic'
loop_
_space_group_symop_operation_xyz
x,y,z
-x,-y,z
x,-y,-z
-x,y,-z
1/2+x,1/2+y,z
1/2-x,1/2-y,z
1/2+x,1/2-y,-z
1/2-x,1/2+y,-z
loop_
_atom_site_type_symbol
_atom_site_label
_atom_site_fract_x
_atom_site_fract_y
_atom_site_fract_z
Si Si1 0.529661 0.334123 0.384651
Si Si2 0.304015 0.329869 0.775392
Si Si3 0.309540 0.699908 0.744616
Si Si4 0.146088 0.824900 0.478573
Si Si5 0.642762 0.829514 0.002801
Si Si6 0.970170 0.664408 0.885858
O O1 0.500000 0.500000 0.368850
O O2 0.500000 0.250187 0.500000
O O3 0.586930 0.342203 0.439716
O O4 0.530132 0.250673 0.248771
O O5 0.250000 0.250000 0.787441
O O6 0.306746 0.514166 0.759800
O O7 0.328286 0.257416 0.647332
O O8 0.332946 0.286834 0.903030
O O9 0.250000 0.750000 0.751021
O O10 0.336483 0.750377 0.611310
O O11 0.345587 0.765459 0.856992
O O12 0.165270 0.000000 0.500000
O O13 0.586030 0.851407 0.945426
O O14 0.667506 0.000000 0.000000
O O15 0.000000 0.500000 0.868228
O O16 0.000000 0.750622 0.000000
#
# Coordination Sequence:
#
# PCOD9324214 Si02
#       6
#     8   8   8   8   8   8
#     4  11  23  42  70  99 133 176 222 277 335 394
#     4  11  23  43  70  96 135 176 221 277 336 400
#     4  11  25  44  70 103 136 177 222 274 336 401
#     4  10  21  41  66 101 134 172 221 273 329 396
#     4  12  24  44  68  95 135 176 227 275 332 394
#     4  11  25  46  65  96 134 180 221 280 334 397
#
# _framework density 20.184906999999999
#
# number of rings (size 3 to 8) (size 9 to 14) (size 15 to 20)
#    0.000    1.000    5.000    2.500    2.333    0.667 
#    3.000    2.500    0.000    0.000    0.000    0.000 
#    0.000    0.000    0.000    0.000    0.000    0.000 
#
# Total GULP energy -133711.561767 kJ/mol
# GULP energy per Si atom -5571.315074 kJ/mol
# Density = 2.013897 g / cm^3
# Si number density = 20.184907 Si / 1000 Ang^3
#
#
#
# Elastic Constant Matrix: (Units=GPa)
#
#
# Indices 1 2 3 4 5 6 
#
# 1 104.8531 25.9434 55.1493 0.0000 0.0000 0.0000
# 2 25.9434 62.0445 43.2524 0.0000 0.0000 0.0000
# 3 55.1493 43.2524 212.0298 0.0000 0.0000 0.0000
# 4 0.0000 0.0000 0.0000 8.4132 0.0000 0.0000
# 5 0.0000 0.0000 0.0000 0.0000 51.3309 0.0000
# 6 0.0000 0.0000 0.0000 0.0000 0.0000 -606.0625
#
#
#
# Elastic Compliance Matrix: (Units=1/GPa)
#
#
# Indices 1 2 3 4 5 6 
#
# 1 0.011567 -0.003193 -0.002357 0.000000 0.000000 0.000000
# 2 -0.003193 0.019671 -0.003182 0.000000 0.000000 0.000000
# 3 -0.002357 -0.003182 0.005979 0.000000 0.000000 0.000000
# 4 0.000000 0.000000 0.000000 0.118860 0.000000 0.000000
# 5 0.000000 0.000000 0.000000 0.000000 0.019481 0.000000
# 6 0.000000 0.000000 0.000000 0.000000 0.000000 -0.001650
#
#
# Mechanical properties :
#
#
# Convention : Reuss Voigt Hill
#
# Bulk Modulus (GPa) = 50.62979 69.73529 60.18254
# Shear Modulus (GPa) = 25.25792 -92.29153 -33.51680
#
# Velocity S-wave (km/s) = 3.54125 -6.76922 -4.07933
# Velocity P-wave (km/s) = 6.46978 5.14521 2.77352
#
# Compressibility (1/GPa) = 0.01975122
#
# Stress axis : x y z
#
# Youngs Moduli (GPa) = 86.45209 50.83601 167.26453
#
# Poissons Ratio (x) = 0.16234 0.39427
# Poissons Ratio (y) = 0.27608 0.53226
# Poissons Ratio (z) = 0.20378 0.16177
#
# Static dielectric constant tensor:
#      x y z
#    x 1.701840 0.000000 0.000000 
#    y 0.000000 1.571550 0.000000 
#    z 0.000000 0.000000 1.820130 
# 
# From -- ./inp_files/18475.got.cif
#   From: 2010.05.17/outbox.cif.g08.bks.cpg/sg21_10_cif.got.tgz:18475.got - 2010.06.03 23:14:55.
