data_PCOD9324053
_publ_section_title
;
Structure prediction by ZEFSAII (Michael W. Deem and Ramdas Pophale) SiO2 
 PCOD9324053
Probable space group: C 2 2 2
;
_chemical_formula_sum "Si O2"
_cell_formula_units_Z 54
_cell_length_a 19.514057
_cell_length_b 5.430399
_cell_length_c 24.062222
_cell_angle_alpha 90.000000
_cell_angle_beta 90.000000
_cell_angle_gamma 90.000000
_cell_volume 2549.852385
_symmetry_space_group_name_H-M "C 2 2 2"
_symmetry_group_IT_number 21
_symmetry_cell_setting 'orthorhombic'
loop_
_space_group_symop_operation_xyz
x,y,z
-x,-y,z
x,-y,-z
-x,y,-z
1/2+x,1/2+y,z
1/2-x,1/2-y,z
1/2+x,1/2-y,-z
1/2-x,1/2+y,-z
loop_
_atom_site_type_symbol
_atom_site_label
_atom_site_fract_x
_atom_site_fract_y
_atom_site_fract_z
Si Si1 0.080126 0.012515 0.822766
Si Si2 0.177443 0.622158 0.557822
Si Si3 0.528284 0.257400 0.564293
Si Si4 0.084042 0.510667 0.761208
Si Si5 0.104719 0.852698 0.942398
Si Si6 0.500000 0.000000 0.000000
Si Si7 0.206513 0.509330 0.323206
Si Si8 0.750000 0.250000 0.963980
O O1 0.104303 0.754391 0.796517
O O2 0.088071 0.014006 0.889133
O O3 0.104454 0.263853 0.794935
O O4 0.000000 0.000000 0.811230
O O5 0.158912 0.500000 0.500000
O O6 0.250000 0.750000 0.548856
O O7 0.109915 0.781614 0.568532
O O8 0.188769 0.455216 0.611613
O O9 0.500000 0.500000 0.592989
O O10 0.500000 0.257945 0.500000
O O11 0.500000 0.000000 0.587639
O O12 0.134005 0.514506 0.708170
O O13 0.000000 0.500000 0.751913
O O14 0.179419 0.742332 0.930836
O O15 0.047551 0.655557 0.958397
O O16 0.109471 0.000000 0.000000
O O17 0.250000 0.750000 0.304732
O O18 0.250000 0.250000 0.318611
O O19 0.751142 0.500000 0.000000
#
# Coordination Sequence:
#
# PCOD9324053 Si02
#       8
#     8   8   8   8   8   2   8   4
#     4  10  22  40  69  99 130 171 228 285 325 403
#     4  11  24  41  68 103 139 182 217 268 344 419
#     4  10  21  39  59  89 134 175 213 266 309 377
#     4  10  23  45  70  95 129 175 228 282 339 385
#     4  11  24  39  64  99 140 181 223 275 345 406
#     4  12  22  36  68 102 132 194 214 276 340 416
#     4  11  25  47  71 100 137 175 223 287 334 404
#     4  10  22  42  58  84 140 182 212 268 324 398
#
# _framework density 21.177695
#
# number of rings (size 3 to 8) (size 9 to 14) (size 15 to 20)
#    0.000    1.481    2.222    2.444    7.259    2.963 
#    4.000    2.222    0.000    0.000    0.000    0.000 
#    0.000    0.000    0.000    0.000    0.000    0.000 
#
# Total GULP energy -150552.963773 kJ/mol
# GULP energy per Si atom -5576.035695 kJ/mol
# Density = 2.112949 g / cm^3
# Si number density = 21.177695 Si / 1000 Ang^3
#
#
#
# Elastic Constant Matrix: (Units=GPa)
#
#
# Indices 1 2 3 4 5 6 
#
# 1 124.3548 46.1880 7.9794 0.0000 0.0000 0.0000
# 2 46.1880 138.6461 36.1803 0.0000 0.0000 0.0000
# 3 7.9794 36.1803 90.9697 0.0000 0.0000 0.0000
# 4 0.0000 0.0000 0.0000 51.2680 0.0000 0.0000
# 5 0.0000 0.0000 0.0000 0.0000 66.2446 0.0000
# 6 0.0000 0.0000 0.0000 0.0000 0.0000 9.5621
#
#
#
# Elastic Compliance Matrix: (Units=1/GPa)
#
#
# Indices 1 2 3 4 5 6 
#
# 1 0.009194 -0.003183 0.000459 0.000000 0.000000 0.000000
# 2 -0.003183 0.009150 -0.003360 0.000000 0.000000 0.000000
# 3 0.000459 -0.003360 0.012289 0.000000 0.000000 0.000000
# 4 0.000000 0.000000 0.000000 0.019505 0.000000 0.000000
# 5 0.000000 0.000000 0.000000 0.000000 0.015096 0.000000
# 6 0.000000 0.000000 0.000000 0.000000 0.000000 0.104579
#
#
# Mechanical properties :
#
#
# Convention : Reuss Voigt Hill
#
# Bulk Modulus (GPa) = 54.15342 59.40734 56.78038
# Shear Modulus (GPa) = 26.57676 42.98981 34.78329
#
# Velocity S-wave (km/s) = 3.54636 4.51039 4.05711
# Velocity P-wave (km/s) = 6.51117 7.43220 6.98688
#
# Compressibility (1/GPa) = 0.01846605
#
# Stress axis : x y z
#
# Youngs Moduli (GPa) = 108.76435 109.29362 81.37603
#
# Poissons Ratio (x) = 0.34786 -0.03738
# Poissons Ratio (y) = 0.34617 0.27341
# Poissons Ratio (z) = -0.04997 0.36721
#
# Static dielectric constant tensor:
#      x y z
#    x 1.555620 0.000000 0.000000 
#    y 0.000000 1.839550 0.000000 
#    z 0.000000 0.000000 1.764190 
# 
# From -- ./inp_files/38876.got.cif
#   From: 2010.05.17/outbox.cif.g08.bks.cpg/sg21_20_cif.got.tgz:38876.got - 2010.06.03 23:14:55.
