data_PCOD9324682
_publ_section_title
;
Structure prediction by ZEFSAII (Michael W. Deem and Ramdas Pophale) SiO2 
 PCOD9324682
Probable space group: C 2 2 2
;
_chemical_formula_sum "Si O2"
_cell_formula_units_Z 34
_cell_length_a 14.335666
_cell_length_b 9.349247
_cell_length_c 12.828568
_cell_angle_alpha 90.000000
_cell_angle_beta 90.000000
_cell_angle_gamma 90.000000
_cell_volume 1719.383237
_symmetry_space_group_name_H-M "C 2 2 2"
_symmetry_group_IT_number 21
_symmetry_cell_setting 'orthorhombic'
loop_
_space_group_symop_operation_xyz
x,y,z
-x,-y,z
x,-y,-z
-x,y,-z
1/2+x,1/2+y,z
1/2-x,1/2-y,z
1/2+x,1/2-y,-z
1/2-x,1/2+y,-z
loop_
_atom_site_type_symbol
_atom_site_label
_atom_site_fract_x
_atom_site_fract_y
_atom_site_fract_z
Si Si1 0.250000 0.250000 0.734217
Si Si2 0.500000 0.000000 0.000000
Si Si3 0.441407 0.256688 0.851238
Si Si4 0.500000 0.500000 0.000000
Si Si5 0.096191 0.790664 0.667832
Si Si6 0.500000 0.500000 0.500000
Si Si7 0.727335 0.037859 0.618895
O O1 0.342208 0.276674 0.798920
O O2 0.217805 0.383714 0.667026
O O3 0.448443 0.111176 0.920657
O O4 0.525846 0.267088 0.765265
O O5 0.446201 0.391893 0.926694
O O6 0.191344 0.881737 0.684080
O O7 0.136242 0.638821 0.625941
O O8 0.049013 0.888327 0.579081
O O9 0.754024 0.000000 0.500000
#
# Coordination Sequence:
#
# PCOD9324682 Si02
#       7
#     4   2   8   2   8   2   8
#     4  12  24  42  66  98 140 168 236 282 354 402
#     4  10  24  48  68  96 140 168 240 288 364 404
#     4  11  24  43  68  98 129 183 219 296 339 422
#     4  10  22  44  68  88 124 168 242 264 360 400
#     4  11  24  42  67  95 138 180 230 271 353 405
#     4  12  22  40  66  98 140 194 228 276 332 436
#     4  11  24  41  63  99 138 182 226 283 329 425
#
# _framework density 19.774532000000001
#
# number of rings (size 3 to 8) (size 9 to 14) (size 15 to 20)
#    0.000    0.941    1.176    6.353    3.294    0.941 
#    0.000    9.412    0.000    0.000    0.000    0.000 
#    0.000    0.000    0.000    0.000    0.000    0.000 
#
# Total GULP energy -94697.039097 kJ/mol
# GULP energy per Si atom -5570.414065 kJ/mol
# Density = 1.972952 g / cm^3
# Si number density = 19.774532 Si / 1000 Ang^3
#
#
#
# Elastic Constant Matrix: (Units=GPa)
#
#
# Indices 1 2 3 4 5 6 
#
# 1 98.0085 43.2995 61.2715 0.0000 0.0000 0.0000
# 2 43.2995 175.1671 61.4271 0.0000 0.0000 0.0000
# 3 61.2715 61.4271 115.8877 0.0000 0.0000 0.0000
# 4 0.0000 0.0000 0.0000 25.6133 0.0000 0.0000
# 5 0.0000 0.0000 0.0000 0.0000 374.2922 0.0000
# 6 0.0000 0.0000 0.0000 0.0000 0.0000 17.5320
#
#
#
# Elastic Compliance Matrix: (Units=1/GPa)
#
#
# Indices 1 2 3 4 5 6 
#
# 1 0.015434 -0.001171 -0.007539 0.000000 0.000000 0.000000
# 2 -0.001171 0.007101 -0.003145 0.000000 0.000000 0.000000
# 3 -0.007539 -0.003145 0.014282 0.000000 0.000000 0.000000
# 4 0.000000 0.000000 0.000000 0.039042 0.000000 0.000000
# 5 0.000000 0.000000 0.000000 0.000000 0.002672 0.000000
# 6 0.000000 0.000000 0.000000 0.000000 0.000000 0.057039
#
#
# Mechanical properties :
#
#
# Convention : Reuss Voigt Hill
#
# Bulk Modulus (GPa) = 76.29781 80.11773 78.20777
# Shear Modulus (GPa) = 30.55314 98.35852 64.45583
#
# Velocity S-wave (km/s) = 3.93501 7.06031 5.71543
# Velocity P-wave (km/s) = 7.70152 10.34734 9.12088
#
# Compressibility (1/GPa) = 0.01310654
#
# Stress axis : x y z
#
# Youngs Moduli (GPa) = 64.79213 140.82226 70.01771
#
# Poissons Ratio (x) = 0.16494 0.52789
# Poissons Ratio (y) = 0.07589 0.22019
# Poissons Ratio (z) = 0.48849 0.44285
#
# Static dielectric constant tensor:
#      x y z
#    x 1.791830 0.000000 0.000000 
#    y 0.000000 1.675840 0.000000 
#    z 0.000000 0.000000 1.518290 
# 
# From -- ./inp_files/22065.got.cif
#   From: 2010.05.17/outbox.cif.g08.bks.cpg/sg21_12_cif.got.tgz:22065.got - 2010.06.03 23:14:55.
