data_PCOD9324435
_publ_section_title
;
Structure prediction by ZEFSAII (Michael W. Deem and Ramdas Pophale) SiO2 
 PCOD9324435
Probable space group: C 2 2 2
;
_chemical_formula_sum "Si O2"
_cell_formula_units_Z 48
_cell_length_a 22.946806
_cell_length_b 9.938220
_cell_length_c 11.457436
_cell_angle_alpha 90.000000
_cell_angle_beta 90.000000
_cell_angle_gamma 90.000000
_cell_volume 2612.872935
_symmetry_space_group_name_H-M "C 2 2 2"
_symmetry_group_IT_number 21
_symmetry_cell_setting 'orthorhombic'
loop_
_space_group_symop_operation_xyz
x,y,z
-x,-y,z
x,-y,-z
-x,y,-z
1/2+x,1/2+y,z
1/2-x,1/2-y,z
1/2+x,1/2-y,-z
1/2-x,1/2+y,-z
loop_
_atom_site_type_symbol
_atom_site_label
_atom_site_fract_x
_atom_site_fract_y
_atom_site_fract_z
Si Si1 0.624375 0.984814 0.139000
Si Si2 0.375479 0.537021 0.137589
Si Si3 0.942481 0.718664 0.759977
Si Si4 0.079964 0.227579 0.255959
Si Si5 0.929407 0.344271 0.495778
Si Si6 0.253122 0.909401 0.116448
O O1 0.572696 0.069435 0.197277
O O2 0.686151 0.050361 0.177141
O O3 0.617095 0.831843 0.178230
O O4 0.619883 0.000000 0.000000
O O5 0.409255 0.675580 0.159041
O O6 0.404850 0.421092 0.214274
O O7 0.308116 0.553762 0.174993
O O8 0.377610 0.500000 0.000000
O O9 0.917837 0.725287 0.628068
O O10 0.011143 0.746304 0.762544
O O11 0.091591 0.263133 0.391287
O O12 0.908911 0.500000 0.500000
O O13 0.000000 0.350096 0.500000
O O14 0.250000 0.750000 0.090375
O O15 0.254202 0.000000 0.000000
#
# Coordination Sequence:
#
# PCOD9324435 Si02
#       6
#     8   8   8   8   8   8
#     4  11  22  35  59  87 116 152 198 240 289 350
#     4  11  24  39  58  86 125 156 190 241 298 351
#     4  11  21  38  60  85 121 158 190 242 295 345
#     4  11  23  36  59  90 118 156 196 236 297 350
#     4   9  18  36  59  83 114 156 205 240 273 341
#     4  10  22  39  60  82 113 159 204 238 280 348
#
# _framework density 18.370581999999999
#
# number of rings (size 3 to 8) (size 9 to 14) (size 15 to 20)
#    0.000    1.500    3.333    2.000    7.000    4.667 
#    0.000    2.500    0.000    6.000    0.000    0.000 
#    0.000    0.000    0.000    0.000    0.000    0.000 
#
# Total GULP energy -133913.901706 kJ/mol
# GULP energy per Si atom -5579.745904 kJ/mol
# Density = 1.832877 g / cm^3
# Si number density = 18.370582 Si / 1000 Ang^3
#
#
#
# Elastic Constant Matrix: (Units=GPa)
#
#
# Indices 1 2 3 4 5 6 
#
# 1 79.1810 -0.0029 1.7908 0.0000 0.0000 0.0000
# 2 -0.0029 36.1765 -16.8284 0.0000 0.0000 0.0000
# 3 1.7908 -16.8284 70.4627 0.0000 0.0000 0.0000
# 4 0.0000 0.0000 0.0000 29.7935 0.0000 0.0000
# 5 0.0000 0.0000 0.0000 0.0000 -15.1039 0.0000
# 6 0.0000 0.0000 0.0000 0.0000 0.0000 34.9858
#
#
#
# Elastic Compliance Matrix: (Units=1/GPa)
#
#
# Indices 1 2 3 4 5 6 
#
# 1 0.012637 -0.000167 -0.000361 0.000000 0.000000 0.000000
# 2 -0.000167 0.031099 0.007432 0.000000 0.000000 0.000000
# 3 -0.000361 0.007432 0.015976 0.000000 0.000000 0.000000
# 4 0.000000 0.000000 0.000000 0.033564 0.000000 0.000000
# 5 0.000000 0.000000 0.000000 0.000000 -0.066208 0.000000
# 6 0.000000 0.000000 0.000000 0.000000 0.000000 0.028583
#
#
# Mechanical properties :
#
#
# Convention : Reuss Voigt Hill
#
# Bulk Modulus (GPa) = 13.60176 17.30433 15.45305
# Shear Modulus (GPa) = 75.35661 23.32580 49.34121
#
# Velocity S-wave (km/s) = 6.41165 3.56720 5.18817
# Velocity P-wave (km/s) = 7.88876 5.13874 6.65730
#
# Compressibility (1/GPa) = 0.07351990
#
# Stress axis : x y z
#
# Youngs Moduli (GPa) = 79.12984 32.15512 62.59410
#
# Poissons Ratio (x) = 0.00537 0.02260
# Poissons Ratio (y) = 0.01321 -0.46517
# Poissons Ratio (z) = 0.02857 -0.23896
#
# Static dielectric constant tensor:
#      x y z
#    x 1.651450 0.000000 0.000000 
#    y 0.000000 1.606720 0.000000 
#    z 0.000000 0.000000 1.543470 
# 
# From -- ./inp_files/22777.got.cif
#   From: 2010.05.17/outbox.cif.g08.bks.cpg/sg21_12_cif.got.tgz:22777.got - 2010.06.03 23:14:55.
