data_PCOD9324082
_publ_section_title
;
Structure prediction by ZEFSAII (Michael W. Deem and Ramdas Pophale) SiO2 
 PCOD9324082
Probable space group: C 2 2 2
;
_chemical_formula_sum "Si O2"
_cell_formula_units_Z 28
_cell_length_a 5.401895
_cell_length_b 26.329433
_cell_length_c 8.601794
_cell_angle_alpha 90.000000
_cell_angle_beta 90.000000
_cell_angle_gamma 90.000000
_cell_volume 1223.423118
_symmetry_space_group_name_H-M "C 2 2 2"
_symmetry_group_IT_number 21
_symmetry_cell_setting 'orthorhombic'
loop_
_space_group_symop_operation_xyz
x,y,z
-x,-y,z
x,-y,-z
-x,y,-z
1/2+x,1/2+y,z
1/2-x,1/2-y,z
1/2+x,1/2-y,-z
1/2-x,1/2+y,-z
loop_
_atom_site_type_symbol
_atom_site_label
_atom_site_fract_x
_atom_site_fract_y
_atom_site_fract_z
Si Si1 0.000000 0.283920 0.500000
Si Si2 0.760007 0.915046 0.906394
Si Si3 0.639978 0.193693 0.165021
Si Si4 0.250371 0.057272 0.563295
O O1 0.750000 0.250000 0.505094
O O2 0.995602 0.312096 0.332051
O O3 0.807154 0.856388 0.853041
O O4 0.739614 0.945315 0.747429
O O5 0.500000 0.918001 0.000000
O O6 0.000000 0.932102 0.000000
O O7 0.750000 0.250000 0.172546
O O8 0.500000 0.193626 0.000000
O O9 0.500000 0.082084 0.500000
O O10 0.000000 0.082739 0.500000
O O11 0.247753 0.000000 0.500000
#
# Coordination Sequence:
#
# PCOD9324082 Si02
#       4
#     4   8   8   8
#     4  10  22  38  58  92 123 174 233 270 320 386
#     4  11  24  42  66  99 132 172 224 270 326 398
#     4  10  21  39  63  92 136 178 220 271 326 382
#     4  10  22  44  68  95 128 169 212 267 345 390
#
# _framework density 22.886603000000001
#
# number of rings (size 3 to 8) (size 9 to 14) (size 15 to 20)
#    0.000    1.714    0.000    3.429    2.000    6.857 
#   10.286   17.143    0.000    0.000    0.000    0.000 
#    0.000    0.000    0.000    0.000    0.000    0.000 
#
# Total GULP energy -78119.652198 kJ/mol
# GULP energy per Si atom -5579.975157 kJ/mol
# Density = 2.283451 g / cm^3
# Si number density = 22.886603 Si / 1000 Ang^3
#
#
#
# Elastic Constant Matrix: (Units=GPa)
#
#
# Indices 1 2 3 4 5 6 
#
# 1 181.4140 3.8132 75.7977 0.0000 0.0000 0.0000
# 2 3.8132 81.7493 45.8661 0.0000 0.0000 0.0000
# 3 75.7977 45.8661 250.3826 0.0000 0.0000 0.0000
# 4 0.0000 0.0000 0.0000 10.2091 0.0000 0.0000
# 5 0.0000 0.0000 0.0000 0.0000 46.3906 0.0000
# 6 0.0000 0.0000 0.0000 0.0000 0.0000 -22.1799
#
#
#
# Elastic Compliance Matrix: (Units=1/GPa)
#
#
# Indices 1 2 3 4 5 6 
#
# 1 0.006366 0.000874 -0.002087 0.000000 0.000000 0.000000
# 2 0.000874 0.013754 -0.002784 0.000000 0.000000 0.000000
# 3 -0.002087 -0.002784 0.005136 0.000000 0.000000 0.000000
# 4 0.000000 0.000000 0.000000 0.097952 0.000000 0.000000
# 5 0.000000 0.000000 0.000000 0.000000 0.021556 0.000000
# 6 0.000000 0.000000 0.000000 0.000000 0.000000 -0.045086
#
#
# Mechanical properties :
#
#
# Convention : Reuss Voigt Hill
#
# Bulk Modulus (GPa) = 57.93391 84.94442 71.43916
# Shear Modulus (GPa) = 44.08162 32.75521 38.41842
#
# Velocity S-wave (km/s) = 4.39348 3.78722 4.10157
# Velocity P-wave (km/s) = 7.14880 7.50466 7.32889
#
# Compressibility (1/GPa) = 0.01726105
#
# Stress axis : x y z
#
# Youngs Moduli (GPa) = 157.08493 72.70730 194.71281
#
# Poissons Ratio (x) = -0.06356 0.40642
# Poissons Ratio (y) = -0.13732 0.54210
# Poissons Ratio (z) = 0.32788 0.20242
#
# Static dielectric constant tensor:
#      x y z
#    x 1.921350 0.000000 0.000000 
#    y 0.000000 1.738560 0.000000 
#    z 0.000000 0.000000 1.873160 
# 
# From -- ./inp_files/8852.got.cif
#   From: 2010.05.17/outbox.cif.g08.bks.cpg/sg21_5_cif.got.tgz:8852.got - 2010.06.03 23:14:55.
