data_PCOD9324997
_publ_section_title
;
Structure prediction by ZEFSAII (Michael W. Deem and Ramdas Pophale) SiO2 
 PCOD9324997
Probable space group: C 2 2 2
;
_chemical_formula_sum "Si O2"
_cell_formula_units_Z 54
_cell_length_a 14.033379
_cell_length_b 15.305131
_cell_length_c 12.224148
_cell_angle_alpha 90.000000
_cell_angle_beta 90.000000
_cell_angle_gamma 90.000000
_cell_volume 2625.535561
_symmetry_space_group_name_H-M "C 2 2 2"
_symmetry_group_IT_number 21
_symmetry_cell_setting 'orthorhombic'
loop_
_space_group_symop_operation_xyz
x,y,z
-x,-y,z
x,-y,-z
-x,y,-z
1/2+x,1/2+y,z
1/2-x,1/2-y,z
1/2+x,1/2-y,-z
1/2-x,1/2+y,-z
loop_
_atom_site_type_symbol
_atom_site_label
_atom_site_fract_x
_atom_site_fract_y
_atom_site_fract_z
Si Si1 0.000000 0.305003 0.000000
Si Si2 0.761521 0.600229 0.456439
Si Si3 0.959667 0.199035 0.779883
Si Si4 0.287527 0.567288 0.783499
Si Si5 0.896677 0.246376 0.548227
Si Si6 0.213017 0.658242 0.988534
Si Si7 0.500000 0.500000 0.000000
Si Si8 0.864009 0.107813 0.164560
O O1 0.028627 0.249596 0.106592
O O2 0.102551 0.348967 0.976873
O O3 0.759874 0.500000 0.500000
O O4 0.766565 0.596916 0.324203
O O5 0.846724 0.664673 0.493108
O O6 0.667863 0.660753 0.476379
O O7 0.887707 0.118226 0.793490
O O8 0.914629 0.250991 0.679362
O O9 0.067207 0.165432 0.760799
O O10 0.233959 0.585622 0.896848
O O11 0.312414 0.466726 0.768147
O O12 0.000000 0.234473 0.500000
O O13 0.250000 0.750000 0.935012
O O14 0.283638 0.652906 0.091660
O O15 0.433224 0.439973 0.924000
#
# Coordination Sequence:
#
# PCOD9324997 Si02
#       8
#     4   8   8   8   8   8   2   8
#     4  12  23  36  58  94 131 176 214 254 319 400
#     4  10  24  45  69  98 127 171 224 283 345 406
#     4  11  20  37  66  97 126 164 212 271 334 395
#     4  11  21  38  65  89 126 165 212 269 336 396
#     4  10  24  45  70  97 132 173 224 283 343 410
#     4  12  22  36  59  90 135 176 215 260 318 401
#     4  12  18  36  60  90 124 164 210 260 322 376
#     4  12  21  35  59  96 128 167 211 271 321 388
#
# _framework density 20.567232000000001
#
# number of rings (size 3 to 8) (size 9 to 14) (size 15 to 20)
#    0.000    0.889    5.926    1.333    4.148    0.593 
#    2.667    1.481    3.259    0.000    0.000    0.000 
#    0.000    0.000    0.000    0.000    0.000    0.000 
#
# Total GULP energy -150636.233929 kJ/mol
# GULP energy per Si atom -5579.119775 kJ/mol
# Density = 2.052042 g / cm^3
# Si number density = 20.567232 Si / 1000 Ang^3
#
#
#
# Elastic Constant Matrix: (Units=GPa)
#
#
# Indices 1 2 3 4 5 6 
#
# 1 127.3109 51.4162 18.9873 0.0000 0.0000 0.0000
# 2 51.4162 97.2879 22.8128 0.0000 0.0000 0.0000
# 3 18.9873 22.8128 47.1935 0.0000 0.0000 0.0000
# 4 0.0000 0.0000 0.0000 24.9954 0.0000 0.0000
# 5 0.0000 0.0000 0.0000 0.0000 18.2201 0.0000
# 6 0.0000 0.0000 0.0000 0.0000 0.0000 28.5827
#
#
#
# Elastic Compliance Matrix: (Units=1/GPa)
#
#
# Indices 1 2 3 4 5 6 
#
# 1 0.010102 -0.004947 -0.001673 0.000000 0.000000 0.000000
# 2 -0.004947 0.014015 -0.004785 0.000000 0.000000 0.000000
# 3 -0.001673 -0.004785 0.024175 0.000000 0.000000 0.000000
# 4 0.000000 0.000000 0.000000 0.040007 0.000000 0.000000
# 5 0.000000 0.000000 0.000000 0.000000 0.054884 0.000000
# 6 0.000000 0.000000 0.000000 0.000000 0.000000 0.034986
#
#
# Mechanical properties :
#
#
# Convention : Reuss Voigt Hill
#
# Bulk Modulus (GPa) = 39.24074 50.91387 45.07730
# Shear Modulus (GPa) = 23.86939 26.26472 25.06705
#
# Velocity S-wave (km/s) = 3.41039 3.57742 3.49490
# Velocity P-wave (km/s) = 5.88458 6.47089 6.18469
#
# Compressibility (1/GPa) = 0.02548372
#
# Stress axis : x y z
#
# Youngs Moduli (GPa) = 98.98972 71.35268 41.36444
#
# Poissons Ratio (x) = 0.35295 0.06921
# Poissons Ratio (y) = 0.48966 0.19791
# Poissons Ratio (z) = 0.16563 0.34139
#
# Static dielectric constant tensor:
#      x y z
#    x 1.682010 0.000000 0.000000 
#    y 0.000000 1.783370 0.000000 
#    z 0.000000 0.000000 1.783700 
# 
# From -- ./inp_files/25328.got.cif
#   From: 2010.05.17/outbox.cif.g08.bks.cpg/sg21_13_cif.got.tgz:25328.got - 2010.06.03 23:14:55.
