data_PCOD9324374
_publ_section_title
;
Structure prediction by ZEFSAII (Michael W. Deem and Ramdas Pophale) SiO2 
 PCOD9324374
Probable space group: C 2 2 2
;
_chemical_formula_sum "Si O2"
_cell_formula_units_Z 30
_cell_length_a 8.358031
_cell_length_b 12.858163
_cell_length_c 12.270470
_cell_angle_alpha 90.000000
_cell_angle_beta 90.000000
_cell_angle_gamma 90.000000
_cell_volume 1318.694220
_symmetry_space_group_name_H-M "C 2 2 2"
_symmetry_group_IT_number 21
_symmetry_cell_setting 'orthorhombic'
loop_
_space_group_symop_operation_xyz
x,y,z
-x,-y,z
x,-y,-z
-x,y,-z
1/2+x,1/2+y,z
1/2-x,1/2-y,z
1/2+x,1/2-y,-z
1/2-x,1/2+y,-z
loop_
_atom_site_type_symbol
_atom_site_label
_atom_site_fract_x
_atom_site_fract_y
_atom_site_fract_z
Si Si1 0.000000 0.000000 0.000000
Si Si2 0.500000 0.731948 0.500000
Si Si3 0.840776 0.899812 0.798487
Si Si4 0.479087 0.124532 0.696312
Si Si5 0.841915 0.123965 0.690879
O O1 0.113891 0.934797 0.080184
O O2 0.571548 0.811017 0.589397
O O3 0.379784 0.657801 0.567320
O O4 0.661576 0.859052 0.784397
O O5 0.998876 0.841004 0.756636
O O6 0.837393 0.001250 0.719064
O O7 0.662397 0.157597 0.721742
O O8 0.500000 0.000000 0.674883
#
# Coordination Sequence:
#
# PCOD9324374 Si02
#       5
#     2   4   8   8   8
#     4   8  16  40  70  94 108 174 214 280 326 350
#     4  12  23  35  58  90 134 182 206 241 313 370
#     4   9  20  40  62  89 123 158 213 273 311 366
#     4  10  22  38  53  86 130 168 213 254 298 389
#     4   9  21  36  53  86 126 165 211 251 301 383
#
# _framework density 22.749776000000001
#
# number of rings (size 3 to 8) (size 9 to 14) (size 15 to 20)
#    0.000    2.667    0.000    1.200    7.467    2.133 
#    4.800   16.667    0.000    0.000  166.400    0.000 
#    0.000    0.000    0.000    0.000    0.000    0.000 
#
# Total GULP energy -83552.978922 kJ/mol
# GULP energy per Si atom -5570.198595 kJ/mol
# Density = 2.269800 g / cm^3
# Si number density = 22.749776 Si / 1000 Ang^3
#
#
#
# Elastic Constant Matrix: (Units=GPa)
#
#
# Indices 1 2 3 4 5 6 
#
# 1 269.6380 62.7798 91.3113 0.0000 0.0000 0.0000
# 2 62.7798 94.9385 36.1071 0.0000 0.0000 0.0000
# 3 91.3113 36.1071 126.7099 0.0000 0.0000 0.0000
# 4 0.0000 0.0000 0.0000 33.4684 0.0000 0.0000
# 5 0.0000 0.0000 0.0000 0.0000 -0.6564 0.0000
# 6 0.0000 0.0000 0.0000 0.0000 0.0000 51.5122
#
#
#
# Elastic Compliance Matrix: (Units=1/GPa)
#
#
# Indices 1 2 3 4 5 6 
#
# 1 0.005323 -0.002311 -0.003177 0.000000 0.000000 0.000000
# 2 -0.002311 0.012817 -0.001987 0.000000 0.000000 0.000000
# 3 -0.003177 -0.001987 0.010748 0.000000 0.000000 0.000000
# 4 0.000000 0.000000 0.000000 0.029879 0.000000 0.000000
# 5 0.000000 0.000000 0.000000 0.000000 -1.523383 0.000000
# 6 0.000000 0.000000 0.000000 0.000000 0.000000 0.019413
#
#
# Mechanical properties :
#
#
# Convention : Reuss Voigt Hill
#
# Bulk Modulus (GPa) = 71.75034 96.85365 84.30200
# Shear Modulus (GPa) = -3.50728 36.93737 16.71505
#
# Velocity S-wave (km/s) = -1.24299 4.03381 2.71354
# Velocity P-wave (km/s) = 5.43575 8.02255 6.85233
#
# Compressibility (1/GPa) = 0.01393722
#
# Stress axis : x y z
#
# Youngs Moduli (GPa) = 187.87284 78.02023 93.04349
#
# Poissons Ratio (x) = 0.18034 0.29561
# Poissons Ratio (y) = 0.43426 0.18485
# Poissons Ratio (z) = 0.59689 0.15500
#
# Static dielectric constant tensor:
#      x y z
#    x 1.908190 0.000000 0.000000 
#    y 0.000000 2.096400 0.000000 
#    z 0.000000 0.000000 1.800870 
# 
# From -- ./inp_files/21867.got.cif
#   From: 2010.05.17/outbox.cif.g08.bks.cpg/sg21_11_cif.got.tgz:21867.got - 2010.06.03 23:14:55.
