data_PCOD9324445
_publ_section_title
;
Structure prediction by ZEFSAII (Michael W. Deem and Ramdas Pophale) SiO2 
 PCOD9324445
Probable space group: C 2 2 2
;
_chemical_formula_sum "Si O2"
_cell_formula_units_Z 48
_cell_length_a 19.062275
_cell_length_b 5.591438
_cell_length_c 22.042950
_cell_angle_alpha 90.000000
_cell_angle_beta 90.000000
_cell_angle_gamma 90.000000
_cell_volume 2349.459482
_symmetry_space_group_name_H-M "C 2 2 2"
_symmetry_group_IT_number 21
_symmetry_cell_setting 'orthorhombic'
loop_
_space_group_symop_operation_xyz
x,y,z
-x,-y,z
x,-y,-z
-x,y,-z
1/2+x,1/2+y,z
1/2-x,1/2-y,z
1/2+x,1/2-y,-z
1/2-x,1/2+y,-z
loop_
_atom_site_type_symbol
_atom_site_label
_atom_site_fract_x
_atom_site_fract_y
_atom_site_fract_z
Si Si1 0.331264 0.249637 0.537358
Si Si2 0.457781 0.255441 0.631217
Si Si3 0.677451 0.820757 0.954229
Si Si4 0.179359 0.608737 0.833193
Si Si5 0.577722 0.503172 0.114865
Si Si6 0.430363 0.838251 0.231920
O O1 0.340849 0.500000 0.500000
O O2 0.250000 0.250000 0.558535
O O3 0.388874 0.245419 0.589963
O O4 0.340376 0.000000 0.500000
O O5 0.500000 0.500000 0.615425
O O6 0.436841 0.276148 0.702080
O O7 0.500000 0.000000 0.624527
O O8 0.750000 0.750000 0.985797
O O9 0.629379 0.605574 0.934427
O O10 0.698018 0.942135 0.890228
O O11 0.639661 0.000000 0.000000
O O12 0.250000 0.750000 0.817380
O O13 0.142840 0.479947 0.776451
O O14 0.115078 0.761089 0.860959
O O15 0.500000 0.500000 0.089201
O O16 0.571478 0.340443 0.175285
O O17 0.500000 0.000000 0.225197
#
# Coordination Sequence:
#
# PCOD9324445 Si02
#       6
#     8   8   8   8   8   8
#     4  10  22  43  66  94 138 183 222 273 337 391
#     4  11  24  41  66 100 132 174 229 278 328 392
#     4  11  24  40  65  88 118 160 207 261 323 388
#     4  11  22  41  63  93 118 162 214 257 318 394
#     4  11  22  41  67  87 124 164 202 259 324 389
#     4  10  22  39  64  91 127 169 204 263 329 385
#
# _framework density 20.430230000000002
#
# number of rings (size 3 to 8) (size 9 to 14) (size 15 to 20)
#    0.000    1.333    3.333    2.000    2.333    2.000 
#    3.000    3.333    0.000    0.000    0.000    0.000 
#    0.000    0.000    0.000    0.000    0.000    0.000 
#
# Total GULP energy -133950.785599 kJ/mol
# GULP energy per Si atom -5581.282733 kJ/mol
# Density = 2.038373 g / cm^3
# Si number density = 20.430230 Si / 1000 Ang^3
#
#
#
# Elastic Constant Matrix: (Units=GPa)
#
#
# Indices 1 2 3 4 5 6 
#
# 1 116.9633 31.5973 42.4550 0.0000 0.0000 0.0000
# 2 31.5973 87.3979 26.5081 0.0000 0.0000 0.0000
# 3 42.4550 26.5081 84.2749 0.0000 0.0000 0.0000
# 4 0.0000 0.0000 0.0000 27.5098 0.0000 0.0000
# 5 0.0000 0.0000 0.0000 0.0000 20.5458 0.0000
# 6 0.0000 0.0000 0.0000 0.0000 0.0000 37.7453
#
#
#
# Elastic Compliance Matrix: (Units=1/GPa)
#
#
# Indices 1 2 3 4 5 6 
#
# 1 0.010945 -0.002526 -0.004719 0.000000 0.000000 0.000000
# 2 -0.002526 0.013231 -0.002890 0.000000 0.000000 0.000000
# 3 -0.004719 -0.002890 0.015152 0.000000 0.000000 0.000000
# 4 0.000000 0.000000 0.000000 0.036351 0.000000 0.000000
# 5 0.000000 0.000000 0.000000 0.000000 0.048672 0.000000
# 6 0.000000 0.000000 0.000000 0.000000 0.000000 0.026493
#
#
# Mechanical properties :
#
#
# Convention : Reuss Voigt Hill
#
# Bulk Modulus (GPa) = 52.46660 54.41743 53.44202
# Shear Modulus (GPa) = 28.17430 29.69855 28.93642
#
# Velocity S-wave (km/s) = 3.71758 3.81682 3.76753
# Velocity P-wave (km/s) = 6.64559 6.79100 6.71869
#
# Compressibility (1/GPa) = 0.01905974
#
# Stress axis : x y z
#
# Youngs Moduli (GPa) = 91.36605 75.57776 65.99679
#
# Poissons Ratio (x) = 0.19088 0.31146
# Poissons Ratio (y) = 0.23075 0.19070
# Poissons Ratio (z) = 0.43119 0.21838
#
# Static dielectric constant tensor:
#      x y z
#    x 1.673400 0.000000 0.000000 
#    y 0.000000 1.838720 0.000000 
#    z 0.000000 0.000000 1.673820 
# 
# From -- ./inp_files/38802.got.cif
#   From: 2010.05.17/outbox.cif.g08.bks.cpg/sg21_20_cif.got.tgz:38802.got - 2010.06.03 23:14:55.
