data_PCOD9324324
_publ_section_title
;
Structure prediction by ZEFSAII (Michael W. Deem and Ramdas Pophale) SiO2 
 PCOD9324324
Probable space group: C 2 2 2
;
_chemical_formula_sum "Si O2"
_cell_formula_units_Z 48
_cell_length_a 27.522379
_cell_length_b 6.075319
_cell_length_c 16.050399
_cell_angle_alpha 90.000000
_cell_angle_beta 90.000000
_cell_angle_gamma 90.000000
_cell_volume 2683.742790
_symmetry_space_group_name_H-M "C 2 2 2"
_symmetry_group_IT_number 21
_symmetry_cell_setting 'orthorhombic'
loop_
_space_group_symop_operation_xyz
x,y,z
-x,-y,z
x,-y,-z
-x,y,-z
1/2+x,1/2+y,z
1/2-x,1/2-y,z
1/2+x,1/2-y,-z
1/2-x,1/2+y,-z
loop_
_atom_site_type_symbol
_atom_site_label
_atom_site_fract_x
_atom_site_fract_y
_atom_site_fract_z
Si Si1 0.449469 0.388113 0.587942
Si Si2 0.804347 0.723174 0.842847
Si Si3 0.000000 0.000000 0.000000
Si Si4 0.956360 0.331538 0.130719
Si Si5 0.334302 0.500000 0.000000
Si Si6 0.000000 0.500000 0.500000
Si Si7 0.628311 0.165055 0.868695
Si Si8 0.606170 0.451609 0.249740
O O1 0.500000 0.500000 0.618811
O O2 0.437034 0.500000 0.500000
O O3 0.407087 0.426875 0.653975
O O4 0.465894 0.144924 0.560368
O O5 0.750000 0.750000 0.810412
O O6 0.822160 0.471774 0.854372
O O7 0.844429 0.834667 0.782391
O O8 0.806321 0.850745 0.932067
O O9 0.970048 0.163677 0.058319
O O10 0.911099 0.484139 0.107539
O O11 0.000000 0.500000 0.149293
O O12 0.937989 0.179455 0.205691
O O13 0.365243 0.338085 0.057653
O O14 0.610496 0.302469 0.787993
#
# Coordination Sequence:
#
# PCOD9324324 Si02
#       8
#     8   8   2   8   4   2   8   8
#     4   9  20  35  60  91 121 153 189 237 285 353
#     4  10  23  38  57  83 110 154 199 254 305 349
#     4  12  26  38  48  74 106 160 214 236 282 342
#     4  11  25  36  53  76 111 160 197 243 287 345
#     4  10  22  35  58  79 110 142 201 250 305 348
#     4   8  18  36  60  94 124 154 190 228 288 354
#     4  10  23  39  54  81 111 152 198 249 297 349
#     4  10  23  38  57  86 115 152 195 244 293 361
#
# _framework density 17.885470000000002
#
# number of rings (size 3 to 8) (size 9 to 14) (size 15 to 20)
#    0.000    2.167    0.000    1.750    7.000   22.000 
#    0.000    0.000    0.000    0.000    6.500    0.000 
#    0.000    0.000    0.000    0.000    0.000    0.000 
#
# Total GULP energy -133948.858276 kJ/mol
# GULP energy per Si atom -5581.202428 kJ/mol
# Density = 1.784476 g / cm^3
# Si number density = 17.885470 Si / 1000 Ang^3
#
#
#
# Elastic Constant Matrix: (Units=GPa)
#
#
# Indices 1 2 3 4 5 6 
#
# 1 95.7915 38.4395 48.5708 0.0000 0.0000 0.0000
# 2 38.4395 119.1537 40.0904 0.0000 0.0000 0.0000
# 3 48.5708 40.0904 103.5262 0.0000 0.0000 0.0000
# 4 0.0000 0.0000 0.0000 2.1762 0.0000 0.0000
# 5 0.0000 0.0000 0.0000 0.0000 16.3172 0.0000
# 6 0.0000 0.0000 0.0000 0.0000 0.0000 17.5825
#
#
#
# Elastic Compliance Matrix: (Units=1/GPa)
#
#
# Indices 1 2 3 4 5 6 
#
# 1 0.014433 -0.002734 -0.005713 0.000000 0.000000 0.000000
# 2 -0.002734 0.010168 -0.002655 0.000000 0.000000 0.000000
# 3 -0.005713 -0.002655 0.013368 0.000000 0.000000 0.000000
# 4 0.000000 0.000000 0.000000 0.459511 0.000000 0.000000
# 5 0.000000 0.000000 0.000000 0.000000 0.061285 0.000000
# 6 0.000000 0.000000 0.000000 0.000000 0.000000 0.056875
#
#
# Mechanical properties :
#
#
# Convention : Reuss Voigt Hill
#
# Bulk Modulus (GPa) = 63.42989 63.63032 63.53010
# Shear Modulus (GPa) = 7.77487 19.97323 13.87405
#
# Velocity S-wave (km/s) = 2.08721 3.34538 2.78819
# Velocity P-wave (km/s) = 6.43040 7.11167 6.77960
#
# Compressibility (1/GPa) = 0.01576544
#
# Stress axis : x y z
#
# Youngs Moduli (GPa) = 69.28523 98.35018 74.80755
#
# Poissons Ratio (x) = 0.26890 0.42735
# Poissons Ratio (y) = 0.18943 0.19859
# Poissons Ratio (z) = 0.39581 0.26109
#
# Static dielectric constant tensor:
#      x y z
#    x 1.637260 0.000000 0.000000 
#    y 0.000000 1.674300 0.000000 
#    z 0.000000 0.000000 1.624750 
# 
# From -- ./inp_files/33857.got.cif
#   From: 2010.05.17/outbox.cif.g08.bks.cpg/sg21_17_cif.got.tgz:33857.got - 2010.06.03 23:14:55.
