data_PCOD9324676
_publ_section_title
;
Structure prediction by ZEFSAII (Michael W. Deem and Ramdas Pophale) SiO2 
 PCOD9324676
Probable space group: C 2 2 2
;
_chemical_formula_sum "Si O2"
_cell_formula_units_Z 24
_cell_length_a 16.187858
_cell_length_b 9.993411
_cell_length_c 6.785627
_cell_angle_alpha 90.000000
_cell_angle_beta 90.000000
_cell_angle_gamma 90.000000
_cell_volume 1097.723896
_symmetry_space_group_name_H-M "C 2 2 2"
_symmetry_group_IT_number 21
_symmetry_cell_setting 'orthorhombic'
loop_
_space_group_symop_operation_xyz
x,y,z
-x,-y,z
x,-y,-z
-x,y,-z
1/2+x,1/2+y,z
1/2-x,1/2-y,z
1/2+x,1/2-y,-z
1/2-x,1/2+y,-z
loop_
_atom_site_type_symbol
_atom_site_label
_atom_site_fract_x
_atom_site_fract_y
_atom_site_fract_z
Si Si1 0.132184 0.480556 0.771067
Si Si2 0.283854 0.500000 0.500000
Si Si3 0.500000 0.000000 0.500000
Si Si4 0.000000 0.000000 0.000000
Si Si5 0.424139 0.317825 0.655780
O O1 0.221324 0.513573 0.682952
O O2 0.102938 0.329700 0.723867
O O3 0.064440 0.567546 0.652005
O O4 0.128462 0.500000 0.000000
O O5 0.344773 0.378678 0.545408
O O6 0.947623 0.093751 0.150857
O O7 0.500000 0.324268 0.500000
#
# Coordination Sequence:
#
# PCOD9324676 Si02
#       5
#     8   4   2   2   8
#     4  11  26  45  77 107 146 192 250 303 377 438
#     4  11  25  49  69 110 150 192 239 309 377 429
#     4  10  22  44  66 108 142 176 240 300 362 428
#     4  12  26  40  82 106 144 202 262 282 380 454
#     4  12  25  50  75 106 154 194 247 311 364 451
#
# _framework density 21.863422
#
# number of rings (size 3 to 8) (size 9 to 14) (size 15 to 20)
#    0.000    0.667    5.000    1.500    7.000    0.000 
#    6.000    0.000    0.000    0.000    0.000    0.000 
#    0.000    0.000    0.000    0.000    0.000    0.000 
#
# Total GULP energy -67027.715363 kJ/mol
# GULP energy per Si atom -5585.642947 kJ/mol
# Density = 2.181366 g / cm^3
# Si number density = 21.863422 Si / 1000 Ang^3
#
#
#
# Elastic Constant Matrix: (Units=GPa)
#
#
# Indices 1 2 3 4 5 6 
#
# 1 209.6503 53.8243 104.5370 0.0000 0.0000 0.0000
# 2 53.8243 120.0912 69.2239 0.0000 0.0000 0.0000
# 3 104.5370 69.2239 243.7848 0.0000 0.0000 0.0000
# 4 0.0000 0.0000 0.0000 44.8198 0.0000 0.0000
# 5 0.0000 0.0000 0.0000 0.0000 -7.5396 0.0000
# 6 0.0000 0.0000 0.0000 0.0000 0.0000 21.7609
#
#
#
# Elastic Compliance Matrix: (Units=1/GPa)
#
#
# Indices 1 2 3 4 5 6 
#
# 1 0.006288 -0.001511 -0.002267 0.000000 0.000000 0.000000
# 2 -0.001511 0.010320 -0.002282 0.000000 0.000000 0.000000
# 3 -0.002267 -0.002282 0.005722 0.000000 0.000000 0.000000
# 4 0.000000 0.000000 0.000000 0.022312 0.000000 0.000000
# 5 0.000000 0.000000 0.000000 0.000000 -0.132633 0.000000
# 6 0.000000 0.000000 0.000000 0.000000 0.000000 0.045954
#
#
# Mechanical properties :
#
#
# Convention : Reuss Voigt Hill
#
# Bulk Modulus (GPa) = 97.95728 114.29964 106.12846
# Shear Modulus (GPa) = -188.59422 34.87095 -76.86163
#
# Velocity S-wave (km/s) = -9.29771 3.99801 -5.93563
# Velocity P-wave (km/s) = 8.38819 8.58513 1.29282
#
# Compressibility (1/GPa) = 0.01020853
#
# Stress axis : x y z
#
# Youngs Moduli (GPa) = 159.02150 96.89907 174.75489
#
# Poissons Ratio (x) = 0.14646 0.39623
# Poissons Ratio (y) = 0.24036 0.39884
# Poissons Ratio (z) = 0.36056 0.22115
#
# Static dielectric constant tensor:
#      x y z
#    x 1.800370 0.000000 0.000000 
#    y 0.000000 2.046820 0.000000 
#    z 0.000000 0.000000 1.774600 
# 
# From -- ./inp_files/1998.got.cif
#   From: 2010.05.17/outbox.cif.g08.bks.cpg/sg21_1_cif.got.tgz:1998.got - 2010.06.03 23:14:55.
