data_PCOD9324988
_publ_section_title
;
Structure prediction by ZEFSAII (Michael W. Deem and Ramdas Pophale) SiO2 
 PCOD9324988
Probable space group: C 2 2 2
;
_chemical_formula_sum "Si O2"
_cell_formula_units_Z 40
_cell_length_a 16.702284
_cell_length_b 8.985114
_cell_length_c 11.255817
_cell_angle_alpha 90.000000
_cell_angle_beta 90.000000
_cell_angle_gamma 90.000000
_cell_volume 1689.182134
_symmetry_space_group_name_H-M "C 2 2 2"
_symmetry_group_IT_number 21
_symmetry_cell_setting 'orthorhombic'
loop_
_space_group_symop_operation_xyz
x,y,z
-x,-y,z
x,-y,-z
-x,y,-z
1/2+x,1/2+y,z
1/2-x,1/2-y,z
1/2+x,1/2-y,-z
1/2-x,1/2+y,-z
loop_
_atom_site_type_symbol
_atom_site_label
_atom_site_fract_x
_atom_site_fract_y
_atom_site_fract_z
Si Si1 0.323823 0.831084 0.531298
Si Si2 0.617914 0.389705 0.327437
Si Si3 0.558644 0.287347 0.699250
Si Si4 0.254370 0.579981 0.123385
Si Si5 0.912560 0.449170 0.862076
O O1 0.250000 0.750000 0.598690
O O2 0.339828 0.719116 0.421204
O O3 0.404612 0.832299 0.608724
O O4 0.302515 0.000000 0.500000
O O5 0.590347 0.557929 0.357693
O O6 0.535872 0.307331 0.292743
O O7 0.676599 0.423377 0.219597
O O8 0.589792 0.225583 0.826488
O O9 0.250000 0.750000 0.088395
O O10 0.170419 0.523285 0.179824
O O11 0.270965 0.500000 0.000000
O O12 0.000000 0.500000 0.814896
O O13 0.913083 0.500000 0.000000
#
# Coordination Sequence:
#
# PCOD9324988 Si02
#       5
#     8   8   8   8   8
#     4  12  28  46  75 113 149 199 256 322 395 475
#     4  11  26  49  72 109 155 200 258 319 394 461
#     4  11  26  46  75 106 150 206 251 324 386 471
#     4  11  26  44  74 107 151 202 255 316 381 460
#     4  10  24  44  74 110 153 200 261 320 387 462
#
# _framework density 23.680098000000001
#
# number of rings (size 3 to 8) (size 9 to 14) (size 15 to 20)
#    0.000    1.000    0.000    4.200   16.800    2.400 
#    0.000    1.000    0.000    0.000    0.000    0.000 
#    0.000    0.000    0.000    0.000    0.000    0.000 
#
# Total GULP energy -111693.995090 kJ/mol
# GULP energy per Si atom -5584.699754 kJ/mol
# Density = 2.362620 g / cm^3
# Si number density = 23.680098 Si / 1000 Ang^3
#
#
#
# Elastic Constant Matrix: (Units=GPa)
#
#
# Indices 1 2 3 4 5 6 
#
# 1 182.1827 48.1921 53.8210 0.0000 0.0000 0.0000
# 2 48.1921 124.4367 25.6726 0.0000 0.0000 0.0000
# 3 53.8210 25.6726 61.2304 0.0000 0.0000 0.0000
# 4 0.0000 0.0000 0.0000 52.0557 0.0000 0.0000
# 5 0.0000 0.0000 0.0000 0.0000 30.9643 0.0000
# 6 0.0000 0.0000 0.0000 0.0000 0.0000 46.0808
#
#
#
# Elastic Compliance Matrix: (Units=1/GPa)
#
#
# Indices 1 2 3 4 5 6 
#
# 1 0.007746 -0.001746 -0.006077 0.000000 0.000000 0.000000
# 2 -0.001746 0.009191 -0.002319 0.000000 0.000000 0.000000
# 3 -0.006077 -0.002319 0.022645 0.000000 0.000000 0.000000
# 4 0.000000 0.000000 0.000000 0.019210 0.000000 0.000000
# 5 0.000000 0.000000 0.000000 0.000000 0.032295 0.000000
# 6 0.000000 0.000000 0.000000 0.000000 0.000000 0.021701
#
#
# Mechanical properties :
#
#
# Convention : Reuss Voigt Hill
#
# Bulk Modulus (GPa) = 51.81546 69.24681 60.53113
# Shear Modulus (GPa) = 35.84112 41.83108 38.83610
#
# Velocity S-wave (km/s) = 3.89466 4.20754 4.05412
# Velocity P-wave (km/s) = 6.49257 7.27397 6.89435
#
# Compressibility (1/GPa) = 0.01929926
#
# Stress axis : x y z
#
# Youngs Moduli (GPa) = 129.09743 108.80372 44.15953
#
# Poissons Ratio (x) = 0.19000 0.26834
# Poissons Ratio (y) = 0.22544 0.10239
# Poissons Ratio (z) = 0.78447 0.25227
#
# Static dielectric constant tensor:
#      x y z
#    x 2.039990 0.000000 0.000000 
#    y 0.000000 1.883990 0.000000 
#    z 0.000000 0.000000 1.840450 
# 
# From -- ./inp_files/22311.got.cif
#   From: 2010.05.17/outbox.cif.g08.bks.cpg/sg21_12_cif.got.tgz:22311.got - 2010.06.03 23:14:55.
