data_PCOD9324395
_publ_section_title
;
Structure prediction by ZEFSAII (Michael W. Deem and Ramdas Pophale) SiO2 
 PCOD9324395
Probable space group: C 2 2 2
;
_chemical_formula_sum "Si O2"
_cell_formula_units_Z 40
_cell_length_a 8.597818
_cell_length_b 21.223130
_cell_length_c 10.381544
_cell_angle_alpha 90.000000
_cell_angle_beta 90.000000
_cell_angle_gamma 90.000000
_cell_volume 1894.347420
_symmetry_space_group_name_H-M "C 2 2 2"
_symmetry_group_IT_number 21
_symmetry_cell_setting 'orthorhombic'
loop_
_space_group_symop_operation_xyz
x,y,z
-x,-y,z
x,-y,-z
-x,y,-z
1/2+x,1/2+y,z
1/2-x,1/2-y,z
1/2+x,1/2-y,-z
1/2-x,1/2+y,-z
loop_
_atom_site_type_symbol
_atom_site_label
_atom_site_fract_x
_atom_site_fract_y
_atom_site_fract_z
Si Si1 0.750000 0.750000 0.817372
Si Si2 0.185645 0.379372 0.684249
Si Si3 0.163466 0.628527 0.776336
Si Si4 0.500000 0.200883 0.000000
Si Si5 0.185813 0.997466 0.154008
Si Si6 0.177997 0.181416 0.456297
O O1 0.743356 0.685564 0.739319
O O2 0.598758 0.756906 0.904593
O O3 0.246579 0.436996 0.770638
O O4 0.238835 0.374867 0.536545
O O5 0.000683 0.374027 0.701021
O O6 0.116746 0.658411 0.914322
O O7 0.232359 0.559495 0.791947
O O8 0.286253 0.668553 0.693522
O O9 0.000000 0.000000 0.172974
O O10 0.215403 0.000000 0.000000
O O11 0.250000 0.250000 0.484609
O O12 0.000000 0.181939 0.500000
#
# Coordination Sequence:
#
# PCOD9324395 Si02
#       6
#     4   8   8   4   8   8
#     4  10  22  38  62  94 134 176 230 282 350 408
#     4  11  23  43  67  96 138 179 230 289 349 426
#     4  11  24  44  68 102 135 185 235 291 359 418
#     4  10  24  40  67 102 137 184 232 296 350 426
#     4  11  24  43  68 100 139 186 236 293 357 425
#     4  12  26  44  70 102 141 185 234 292 358 434
#
# _framework density 21.115451
#
# number of rings (size 3 to 8) (size 9 to 14) (size 15 to 20)
#    0.000    1.000    1.000    6.000    4.200    4.800 
#    0.000    4.000    0.000    0.000    0.000    0.000 
#    0.000    0.000    0.000    0.000    0.000    0.000 
#
# Total GULP energy -111830.096207 kJ/mol
# GULP energy per Si atom -5591.504810 kJ/mol
# Density = 2.106739 g / cm^3
# Si number density = 21.115451 Si / 1000 Ang^3
#
#
#
# Elastic Constant Matrix: (Units=GPa)
#
#
# Indices 1 2 3 4 5 6 
#
# 1 95.6145 51.6287 35.8264 0.0000 0.0000 0.0000
# 2 51.6287 138.4684 50.8703 0.0000 0.0000 0.0000
# 3 35.8264 50.8703 99.9149 0.0000 0.0000 0.0000
# 4 0.0000 0.0000 0.0000 -3.5192 0.0000 0.0000
# 5 0.0000 0.0000 0.0000 0.0000 38.5432 0.0000
# 6 0.0000 0.0000 0.0000 0.0000 0.0000 37.6666
#
#
#
# Elastic Compliance Matrix: (Units=1/GPa)
#
#
# Indices 1 2 3 4 5 6 
#
# 1 0.013724 -0.004071 -0.002849 0.000000 0.000000 0.000000
# 2 -0.004071 0.010091 -0.003678 0.000000 0.000000 0.000000
# 3 -0.002849 -0.003678 0.012903 0.000000 0.000000 0.000000
# 4 0.000000 0.000000 0.000000 -0.284157 0.000000 0.000000
# 5 0.000000 0.000000 0.000000 0.000000 0.025945 0.000000
# 6 0.000000 0.000000 0.000000 0.000000 0.000000 0.026549
#
#
# Mechanical properties :
#
#
# Convention : Reuss Voigt Hill
#
# Bulk Modulus (GPa) = 64.42016 67.84984 66.13500
# Shear Modulus (GPa) = -29.65990 27.58295 -1.03848
#
# Velocity S-wave (km/s) = -3.75194 3.61819 -0.70205
# Velocity P-wave (km/s) = 3.43590 7.04681 5.54360
#
# Compressibility (1/GPa) = 0.01552309
#
# Stress axis : x y z
#
# Youngs Moduli (GPa) = 72.86520 99.09993 77.50423
#
# Poissons Ratio (x) = 0.40339 0.22077
# Poissons Ratio (y) = 0.29660 0.28506
# Poissons Ratio (z) = 0.20756 0.36449
#
# Static dielectric constant tensor:
#      x y z
#    x 1.764530 0.000000 0.000000 
#    y 0.000000 1.714380 0.000000 
#    z 0.000000 0.000000 1.873670 
# 
# From -- ./inp_files/22612.got.cif
#   From: 2010.05.17/outbox.cif.g08.bks.cpg/sg21_12_cif.got.tgz:22612.got - 2010.06.03 23:14:55.
