data_PCOD9324073
_publ_section_title
;
Structure prediction by ZEFSAII (Michael W. Deem and Ramdas Pophale) SiO2 
 PCOD9324073
Probable space group: C 2 2 2
;
_chemical_formula_sum "Si O2"
_cell_formula_units_Z 52
_cell_length_a 19.630981
_cell_length_b 17.073188
_cell_length_c 8.250826
_cell_angle_alpha 90.000000
_cell_angle_beta 90.000000
_cell_angle_gamma 90.000000
_cell_volume 2765.375136
_symmetry_space_group_name_H-M "C 2 2 2"
_symmetry_group_IT_number 21
_symmetry_cell_setting 'orthorhombic'
loop_
_space_group_symop_operation_xyz
x,y,z
-x,-y,z
x,-y,-z
-x,y,-z
1/2+x,1/2+y,z
1/2-x,1/2-y,z
1/2+x,1/2-y,-z
1/2-x,1/2+y,-z
loop_
_atom_site_type_symbol
_atom_site_label
_atom_site_fract_x
_atom_site_fract_y
_atom_site_fract_z
Si Si1 0.619288 0.120782 0.233044
Si Si2 0.000000 0.403065 0.000000
Si Si3 0.733602 0.576577 0.194556
Si Si4 0.776891 0.893916 0.840458
Si Si5 0.108611 0.443692 0.257199
Si Si6 0.693895 0.681022 0.495286
Si Si7 0.079053 0.710423 0.531628
O O1 0.556865 0.138240 0.112102
O O2 0.695200 0.119512 0.165053
O O3 0.615246 0.186626 0.365730
O O4 0.609153 0.034275 0.315645
O O5 0.051067 0.445708 0.121566
O O6 0.710294 0.486328 0.187912
O O7 0.816147 0.572142 0.188645
O O8 0.716813 0.614638 0.367500
O O9 0.705972 0.620057 0.031563
O O10 0.807161 0.849282 0.682704
O O11 0.088357 0.368029 0.361870
O O12 0.750000 0.750000 0.485313
O O13 0.623257 0.714673 0.421533
O O14 0.000000 0.725217 0.500000
#
# Coordination Sequence:
#
# PCOD9324073 Si02
#       7
#     8   4   8   8   8   8   8
#     4  11  20  33  53  81 115 155 195 224 261 336
#     4  12  21  30  50  82 124 160 191 222 259 334
#     4  10  21  39  63  86 111 149 197 243 286 334
#     4  10  21  39  63  86 111 149 197 243 286 334
#     4  11  20  33  53  81 115 155 195 224 261 336
#     4  12  23  39  57  89 119 152 194 240 290 343
#     4  12  25  38  51  78 117 158 192 227 291 345
#
# _framework density 18.80396
#
# number of rings (size 3 to 8) (size 9 to 14) (size 15 to 20)
#    0.000    0.923    6.154    2.308    0.000    3.692 
#    2.769    0.000    0.000    1.846    0.000    2.154 
#    0.000    0.000    0.000    0.000    0.000    0.000 
#
# Total GULP energy -144763.597806 kJ/mol
# GULP energy per Si atom -5567.830685 kJ/mol
# Density = 1.876116 g / cm^3
# Si number density = 18.803960 Si / 1000 Ang^3
#
#
#
# Elastic Constant Matrix: (Units=GPa)
#
#
# Indices 1 2 3 4 5 6 
#
# 1 56.4837 19.6351 11.8966 0.0000 0.0000 0.0000
# 2 19.6351 43.6006 25.5437 0.0000 0.0000 0.0000
# 3 11.8966 25.5437 78.2443 0.0000 0.0000 0.0000
# 4 0.0000 0.0000 0.0000 13.5165 0.0000 0.0000
# 5 0.0000 0.0000 0.0000 0.0000 45.8906 0.0000
# 6 0.0000 0.0000 0.0000 0.0000 0.0000 40.5862
#
#
#
# Elastic Compliance Matrix: (Units=1/GPa)
#
#
# Indices 1 2 3 4 5 6 
#
# 1 0.020991 -0.009377 -0.000130 0.000000 0.000000 0.000000
# 2 -0.009377 0.032548 -0.009200 0.000000 0.000000 0.000000
# 3 -0.000130 -0.009200 0.015804 0.000000 0.000000 0.000000
# 4 0.000000 0.000000 0.000000 0.073983 0.000000 0.000000
# 5 0.000000 0.000000 0.000000 0.000000 0.021791 0.000000
# 6 0.000000 0.000000 0.000000 0.000000 0.000000 0.024639
#
#
# Mechanical properties :
#
#
# Convention : Reuss Voigt Hill
#
# Bulk Modulus (GPa) = 31.31981 32.49770 31.90875
# Shear Modulus (GPa) = 21.02486 28.08221 24.55354
#
# Velocity S-wave (km/s) = 3.34744 3.86867 3.61746
# Velocity P-wave (km/s) = 5.62429 6.10536 5.86975
#
# Compressibility (1/GPa) = 0.03192868
#
# Stress axis : x y z
#
# Youngs Moduli (GPa) = 47.63876 30.72380 63.27611
#
# Poissons Ratio (x) = 0.28809 0.00825
# Poissons Ratio (y) = 0.44670 0.58214
# Poissons Ratio (z) = 0.00621 0.28266
#
# Static dielectric constant tensor:
#      x y z
#    x 1.709830 0.000000 0.000000 
#    y 0.000000 1.640160 0.000000 
#    z 0.000000 0.000000 1.774530 
# 
# From -- ./inp_files/17637.got.cif
#   From: 2010.05.17/outbox.cif.g08.bks.cpg/sg21_9_cif.got.tgz:17637.got - 2010.06.03 23:14:55.
