data_PCOD9324070
_publ_section_title
;
Structure prediction by ZEFSAII (Michael W. Deem and Ramdas Pophale) SiO2 
 PCOD9324070
Probable space group: C 2 2 2
;
_chemical_formula_sum "Si O2"
_cell_formula_units_Z 64
_cell_length_a 6.623006
_cell_length_b 19.125740
_cell_length_c 27.065471
_cell_angle_alpha 90.000000
_cell_angle_beta 90.000000
_cell_angle_gamma 90.000000
_cell_volume 3428.380255
_symmetry_space_group_name_H-M "C 2 2 2"
_symmetry_group_IT_number 21
_symmetry_cell_setting 'orthorhombic'
loop_
_space_group_symop_operation_xyz
x,y,z
-x,-y,z
x,-y,-z
-x,y,-z
1/2+x,1/2+y,z
1/2-x,1/2-y,z
1/2+x,1/2-y,-z
1/2-x,1/2+y,-z
loop_
_atom_site_type_symbol
_atom_site_label
_atom_site_fract_x
_atom_site_fract_y
_atom_site_fract_z
Si Si1 0.360996 0.323420 0.454769
Si Si2 0.100748 0.071465 0.312952
Si Si3 0.770543 0.167958 0.868747
Si Si4 0.022295 0.923460 0.201018
Si Si5 0.463211 0.417359 0.942582
Si Si6 0.113446 0.575467 0.138492
Si Si7 0.676022 0.323966 0.367142
Si Si8 0.559377 0.919481 0.393063
O O1 0.500000 0.348500 0.500000
O O2 0.250000 0.250000 0.467443
O O3 0.520966 0.308268 0.411455
O O4 0.202507 0.380699 0.433582
O O5 0.311751 0.079577 0.341648
O O6 0.084612 0.067865 0.253937
O O7 0.953661 0.133826 0.327872
O O8 0.000000 0.000000 0.332705
O O9 0.750000 0.250000 0.873225
O O10 0.554506 0.134041 0.861608
O O11 0.910820 0.140796 0.824267
O O12 0.874413 0.130020 0.914797
O O13 0.259003 0.915166 0.189481
O O14 0.000000 0.000000 0.175137
O O15 0.500000 0.500000 0.940032
O O16 0.257612 0.411343 0.909508
O O17 0.500000 0.398970 0.000000
O O18 0.000000 0.500000 0.136432
O O19 0.750000 0.250000 0.347516
O O20 0.860608 0.372269 0.385511
O O21 0.500000 0.000000 0.405027
#
# Coordination Sequence:
#
# PCOD9324070 Si02
#       8
#     8   8   8   8   8   8   8   8
#     4  11  24  41  70  95 126 168 219 260 308 381
#     4  10  22  40  64  94 125 167 211 258 308 380
#     4  11  23  41  59  92 129 161 199 263 323 368
#     4  10  21  40  63  93 123 159 218 254 298 383
#     4  10  21  39  62  91 122 159 217 260 295 383
#     4  11  19  39  68  85 119 166 204 251 313 363
#     4  11  22  42  64  95 126 168 209 258 315 370
#     4  11  23  43  68  92 133 168 207 261 321 369
#
# _framework density 18.667708000000001
#
# number of rings (size 3 to 8) (size 9 to 14) (size 15 to 20)
#    0.000    1.375    5.000    1.125    0.000    3.500 
#    6.750    1.875    0.000    0.000    0.000    0.000 
#    0.000    0.000    0.000    0.000    0.000    0.000 
#
# Total GULP energy -178245.043984 kJ/mol
# GULP energy per Si atom -5570.157625 kJ/mol
# Density = 1.862522 g / cm^3
# Si number density = 18.667708 Si / 1000 Ang^3
#
#
#
# Elastic Constant Matrix: (Units=GPa)
#
#
# Indices 1 2 3 4 5 6 
#
# 1 94.6612 33.6321 -0.2637 0.0000 0.0000 0.0000
# 2 33.6321 127.9663 1.9789 0.0000 0.0000 0.0000
# 3 -0.2637 1.9789 50.5011 0.0000 0.0000 0.0000
# 4 0.0000 0.0000 0.0000 24.7969 0.0000 0.0000
# 5 0.0000 0.0000 0.0000 0.0000 7.2757 0.0000
# 6 0.0000 0.0000 0.0000 0.0000 0.0000 32.0789
#
#
#
# Elastic Compliance Matrix: (Units=1/GPa)
#
#
# Indices 1 2 3 4 5 6 
#
# 1 0.011654 -0.003066 0.000181 0.000000 0.000000 0.000000
# 2 -0.003066 0.008626 -0.000354 0.000000 0.000000 0.000000
# 3 0.000181 -0.000354 0.019816 0.000000 0.000000 0.000000
# 4 0.000000 0.000000 0.000000 0.040328 0.000000 0.000000
# 5 0.000000 0.000000 0.000000 0.000000 0.137443 0.000000
# 6 0.000000 0.000000 0.000000 0.000000 0.000000 0.031173
#
#
# Mechanical properties :
#
#
# Convention : Reuss Voigt Hill
#
# Bulk Modulus (GPa) = 29.74554 38.20258 33.97406
# Shear Modulus (GPa) = 18.74603 28.68237 23.71420
#
# Velocity S-wave (km/s) = 3.17234 3.92404 3.56804
# Velocity P-wave (km/s) = 5.42099 6.40622 5.93409
#
# Compressibility (1/GPa) = 0.03361849
#
# Stress axis : x y z
#
# Youngs Moduli (GPa) = 85.80981 115.93213 50.46329
#
# Poissons Ratio (x) = 0.35540 -0.00913
# Poissons Ratio (y) = 0.26306 0.01786
# Poissons Ratio (z) = -0.01553 0.04104
#
# Static dielectric constant tensor:
#      x y z
#    x 1.669160 0.000000 0.000000 
#    y 0.000000 1.618210 0.000000 
#    z 0.000000 0.000000 1.706160 
# 
# From -- ./inp_files/39539.got.cif
#   From: 2010.05.17/outbox.cif.g08.bks.cpg/sg21_20_cif.got.tgz:39539.got - 2010.06.03 23:14:55.
