data_PCOD9324224
_publ_section_title
;
Structure prediction by ZEFSAII (Michael W. Deem and Ramdas Pophale) SiO2 
 PCOD9324224
Probable space group: C 2 2 2
;
_chemical_formula_sum "Si O2"
_cell_formula_units_Z 48
_cell_length_a 15.368192
_cell_length_b 15.459229
_cell_length_c 10.662795
_cell_angle_alpha 90.000000
_cell_angle_beta 90.000000
_cell_angle_gamma 90.000000
_cell_volume 2533.271095
_symmetry_space_group_name_H-M "C 2 2 2"
_symmetry_group_IT_number 21
_symmetry_cell_setting 'orthorhombic'
loop_
_space_group_symop_operation_xyz
x,y,z
-x,-y,z
x,-y,-z
-x,y,-z
1/2+x,1/2+y,z
1/2-x,1/2-y,z
1/2+x,1/2-y,-z
1/2-x,1/2+y,-z
loop_
_atom_site_type_symbol
_atom_site_label
_atom_site_fract_x
_atom_site_fract_y
_atom_site_fract_z
Si Si1 0.098968 0.959045 0.874052
Si Si2 0.605152 0.097852 0.010988
Si Si3 0.932637 0.761148 0.116862
Si Si4 0.660272 0.550663 0.631328
Si Si5 0.954887 0.220234 0.368068
Si Si6 0.191620 0.669986 0.260537
O O1 0.107333 0.856416 0.888240
O O2 0.142733 0.986366 0.745500
O O3 0.000000 0.000000 0.868382
O O4 0.138110 0.000000 0.000000
O O5 0.638531 0.130703 0.145079
O O6 0.500000 0.090413 0.000000
O O7 0.624229 0.175070 0.910543
O O8 0.639546 0.000000 0.000000
O O9 0.983338 0.760588 0.249099
O O10 0.000000 0.763305 0.000000
O O11 0.662641 0.500000 0.500000
O O12 0.583804 0.622975 0.635544
O O13 0.747590 0.602458 0.667513
O O14 0.874907 0.285538 0.355333
O O15 0.000000 0.232198 0.500000
O O16 0.250000 0.750000 0.210479
#
# Coordination Sequence:
#
# PCOD9324224 Si02
#       6
#     8   8   8   8   8   8
#     4  11  20  32  61 100 130 161 207 265 322 399
#     4  10  21  41  68  90 122 169 225 266 312 388
#     4  11  18  35  64  96 125 153 218 264 318 380
#     4  11  24  40  60  92 140 174 208 261 343 400
#     4  11  21  38  67  93 120 171 222 270 315 386
#     4  10  23  43  63  90 133 175 205 266 343 388
#
# _framework density 18.947835000000001
#
# number of rings (size 3 to 8) (size 9 to 14) (size 15 to 20)
#    0.000    1.333    6.667    1.000    2.333    0.667 
#    3.000    0.000    0.000    0.000    0.000    0.000 
#    0.000    0.000    0.000    0.000    0.000    0.000 
#
# Total GULP energy -133815.462394 kJ/mol
# GULP energy per Si atom -5575.644266 kJ/mol
# Density = 1.890471 g / cm^3
# Si number density = 18.947835 Si / 1000 Ang^3
#
#
#
# Elastic Constant Matrix: (Units=GPa)
#
#
# Indices 1 2 3 4 5 6 
#
# 1 37.0658 36.6540 42.7119 0.0000 0.0000 0.0000
# 2 36.6540 185.3931 74.7219 0.0000 0.0000 0.0000
# 3 42.7119 74.7219 172.7514 0.0000 0.0000 0.0000
# 4 0.0000 0.0000 0.0000 24.1692 0.0000 0.0000
# 5 0.0000 0.0000 0.0000 0.0000 18.9713 0.0000
# 6 0.0000 0.0000 0.0000 0.0000 0.0000 -0.8496
#
#
#
# Elastic Compliance Matrix: (Units=1/GPa)
#
#
# Indices 1 2 3 4 5 6 
#
# 1 0.041074 -0.004878 -0.008045 0.000000 0.000000 0.000000
# 2 -0.004878 0.007112 -0.001870 0.000000 0.000000 0.000000
# 3 -0.008045 -0.001870 0.008587 0.000000 0.000000 0.000000
# 4 0.000000 0.000000 0.000000 0.041375 0.000000 0.000000
# 5 0.000000 0.000000 0.000000 0.000000 0.052711 0.000000
# 6 0.000000 0.000000 0.000000 0.000000 0.000000 -1.177047
#
#
# Mechanical properties :
#
#
# Convention : Reuss Voigt Hill
#
# Bulk Modulus (GPa) = 36.78437 78.15398 57.46917
# Shear Modulus (GPa) = -5.06309 24.53301 9.73496
#
# Velocity S-wave (km/s) = -1.63644 3.60219 2.26912
# Velocity P-wave (km/s) = 3.98561 7.65751 6.10420
#
# Compressibility (1/GPa) = 0.02718546
#
# Stress axis : x y z
#
# Youngs Moduli (GPa) = 24.34651 140.60422 116.45820
#
# Poissons Ratio (x) = 0.68587 0.93694
# Poissons Ratio (y) = 0.11876 0.21780
# Poissons Ratio (z) = 0.19588 0.26296
#
# Static dielectric constant tensor:
#      x y z
#    x 1.682540 0.000000 0.000000 
#    y 0.000000 1.728080 0.000000 
#    z 0.000000 0.000000 1.603190 
# 
# From -- ./inp_files/16405.got.cif
#   From: 2010.05.17/outbox.cif.g08.bks.cpg/sg21_9_cif.got.tgz:16405.got - 2010.06.03 23:14:55.
