data_PCOD9324285
_publ_section_title
;
Structure prediction by ZEFSAII (Michael W. Deem and Ramdas Pophale) SiO2 
 PCOD9324285
Probable space group: C 2 2 2
;
_chemical_formula_sum "Si O2"
_cell_formula_units_Z 40
_cell_length_a 9.670173
_cell_length_b 16.868657
_cell_length_c 10.736267
_cell_angle_alpha 90.000000
_cell_angle_beta 90.000000
_cell_angle_gamma 90.000000
_cell_volume 1751.330272
_symmetry_space_group_name_H-M "C 2 2 2"
_symmetry_group_IT_number 21
_symmetry_cell_setting 'orthorhombic'
loop_
_space_group_symop_operation_xyz
x,y,z
-x,-y,z
x,-y,-z
-x,y,-z
1/2+x,1/2+y,z
1/2-x,1/2-y,z
1/2+x,1/2-y,-z
1/2-x,1/2+y,-z
loop_
_atom_site_type_symbol
_atom_site_label
_atom_site_fract_x
_atom_site_fract_y
_atom_site_fract_z
Si Si1 0.062593 0.133913 0.209817
Si Si2 0.010460 0.309804 0.148280
Si Si3 0.802142 0.539672 0.131923
Si Si4 0.251732 0.115150 0.728538
Si Si5 0.344920 0.675073 0.535064
O O1 0.078472 0.227720 0.189422
O O2 0.150643 0.079234 0.119290
O O3 0.126482 0.118888 0.347187
O O4 0.899251 0.120238 0.207978
O O5 0.101182 0.387635 0.171006
O O6 0.862933 0.323362 0.214940
O O7 0.000000 0.304514 0.000000
O O8 0.805368 0.471262 0.234556
O O9 0.841002 0.500000 0.000000
O O10 0.223178 0.132567 0.583922
O O11 0.500000 0.703688 0.500000
O O12 0.250000 0.750000 0.565465
#
# Coordination Sequence:
#
# PCOD9324285 Si02
#       5
#     8   8   8   8   8
#     4  11  26  44  70 104 139 187 243 297 356 435
#     4  12  25  45  72 105 145 190 245 293 366 440
#     4  12  26  45  65 103 148 185 232 304 363 434
#     4  11  24  43  73 103 140 189 233 297 370 418
#     4  10  21  43  70 103 143 185 247 305 353 432
#
# _framework density 22.839780999999999
#
# number of rings (size 3 to 8) (size 9 to 14) (size 15 to 20)
#    0.000    0.800    2.000    6.000    2.800    3.200 
#    0.000    3.000    0.000    4.800    0.000    0.000 
#    0.000    0.000    0.000    0.000    0.000    0.000 
#
# Total GULP energy -111960.195211 kJ/mol
# GULP energy per Si atom -5598.009761 kJ/mol
# Density = 2.278780 g / cm^3
# Si number density = 22.839781 Si / 1000 Ang^3
#
#
#
# Elastic Constant Matrix: (Units=GPa)
#
#
# Indices 1 2 3 4 5 6 
#
# 1 60.5451 -1.2327 19.6372 0.0000 0.0000 0.0000
# 2 -1.2327 83.4003 9.3208 0.0000 0.0000 0.0000
# 3 19.6372 9.3208 71.5325 0.0000 0.0000 0.0000
# 4 0.0000 0.0000 0.0000 -20.8094 0.0000 0.0000
# 5 0.0000 0.0000 0.0000 0.0000 30.8424 0.0000
# 6 0.0000 0.0000 0.0000 0.0000 0.0000 34.6180
#
#
#
# Elastic Compliance Matrix: (Units=1/GPa)
#
#
# Indices 1 2 3 4 5 6 
#
# 1 0.018189 0.000839 -0.005102 0.000000 0.000000 0.000000
# 2 0.000839 0.012206 -0.001821 0.000000 0.000000 0.000000
# 3 -0.005102 -0.001821 0.015618 0.000000 0.000000 0.000000
# 4 0.000000 0.000000 0.000000 -0.048055 0.000000 0.000000
# 5 0.000000 0.000000 0.000000 0.000000 0.032423 0.000000
# 6 0.000000 0.000000 0.000000 0.000000 0.000000 0.028887
#
#
# Mechanical properties :
#
#
# Convention : Reuss Voigt Hill
#
# Bulk Modulus (GPa) = 29.54730 30.10318 29.82524
# Shear Modulus (GPa) = 60.44723 21.44705 40.94714
#
# Velocity S-wave (km/s) = 5.15007 3.06767 4.23874
# Velocity P-wave (km/s) = 6.95192 5.07506 6.08627
#
# Compressibility (1/GPa) = 0.03384404
#
# Stress axis : x y z
#
# Youngs Moduli (GPa) = 54.97943 81.92517 64.03011
#
# Poissons Ratio (x) = -0.06874 0.32671
# Poissons Ratio (y) = -0.04613 0.11659
# Poissons Ratio (z) = 0.28053 0.14917
#
# Static dielectric constant tensor:
#      x y z
#    x 1.921120 0.000000 0.000000 
#    y 0.000000 1.844360 0.000000 
#    z 0.000000 0.000000 1.891790 
# 
# From -- ./inp_files/22304.got.cif
#   From: 2010.05.17/outbox.cif.g08.bks.cpg/sg21_12_cif.got.tgz:22304.got - 2010.06.03 23:14:55.
