data_PCOD9324472
_publ_section_title
;
Structure prediction by ZEFSAII (Michael W. Deem and Ramdas Pophale) SiO2 
 PCOD9324472
Probable space group: C 2 2 2
;
_chemical_formula_sum "Si O2"
_cell_formula_units_Z 48
_cell_length_a 9.632218
_cell_length_b 15.795284
_cell_length_c 12.384781
_cell_angle_alpha 90.000000
_cell_angle_beta 90.000000
_cell_angle_gamma 90.000000
_cell_volume 1884.265400
_symmetry_space_group_name_H-M "C 2 2 2"
_symmetry_group_IT_number 21
_symmetry_cell_setting 'orthorhombic'
loop_
_space_group_symop_operation_xyz
x,y,z
-x,-y,z
x,-y,-z
-x,y,-z
1/2+x,1/2+y,z
1/2-x,1/2-y,z
1/2+x,1/2-y,-z
1/2-x,1/2+y,-z
loop_
_atom_site_type_symbol
_atom_site_label
_atom_site_fract_x
_atom_site_fract_y
_atom_site_fract_z
Si Si1 0.781337 0.000000 0.000000
Si Si2 0.474982 0.880900 0.375658
Si Si3 0.106457 0.793622 0.327283
Si Si4 0.321580 0.462733 0.619547
Si Si5 0.707666 0.926943 0.215429
Si Si6 0.250000 0.250000 0.102181
Si Si7 0.603015 0.688215 0.930939
O O1 0.860771 0.912348 0.963738
O O2 0.692130 0.021259 0.894735
O O3 0.500000 0.900360 0.500000
O O4 0.497969 0.781104 0.355946
O O5 0.321409 0.913692 0.350265
O O6 0.582444 0.924946 0.297766
O O7 0.250000 0.750000 0.367971
O O8 0.074941 0.883692 0.379101
O O9 0.118912 0.807679 0.199151
O O10 0.314128 0.500000 0.500000
O O11 0.331893 0.531504 0.714932
O O12 0.722343 0.832335 0.171961
O O13 0.428785 0.283446 0.068103
O O14 0.750000 0.750000 0.962832
#
# Coordination Sequence:
#
# PCOD9324472 Si02
#       7
#     4   8   8   8   8   4   8
#     4  10  23  40  63  96 128 174 219 270 329 402
#     4  11  23  39  65  96 129 168 222 273 336 401
#     4  10  22  40  63  93 129 173 216 273 340 400
#     4  11  22  41  66  91 126 175 218 270 332 394
#     4  11  22  40  65  93 134 168 218 279 322 392
#     4  10  24  38  58  96 132 168 220 276 330 398
#     4  11  20  39  64  89 129 175 219 264 337 401
#
# _framework density 25.474118000000001
#
# number of rings (size 3 to 8) (size 9 to 14) (size 15 to 20)
#    0.000    1.333    4.167    1.750    0.000    1.333 
#    0.000    6.667    0.000    0.000    0.000    0.000 
#    0.000    0.000    0.000    0.000    0.000    0.000 
#
# Total GULP energy -133867.345366 kJ/mol
# GULP energy per Si atom -5577.806057 kJ/mol
# Density = 2.541614 g / cm^3
# Si number density = 25.474118 Si / 1000 Ang^3
#
#
#
# Elastic Constant Matrix: (Units=GPa)
#
#
# Indices 1 2 3 4 5 6 
#
# 1 91.0911 36.5089 32.9720 0.0000 0.0000 0.0000
# 2 36.5089 228.6498 82.3165 0.0000 0.0000 0.0000
# 3 32.9720 82.3165 190.4669 0.0000 0.0000 0.0000
# 4 0.0000 0.0000 0.0000 -6.7333 0.0000 0.0000
# 5 0.0000 0.0000 0.0000 0.0000 23.4258 0.0000
# 6 0.0000 0.0000 0.0000 0.0000 0.0000 25.3939
#
#
#
# Elastic Compliance Matrix: (Units=1/GPa)
#
#
# Indices 1 2 3 4 5 6 
#
# 1 0.012075 -0.001392 -0.001489 0.000000 0.000000 0.000000
# 2 -0.001392 0.005340 -0.002067 0.000000 0.000000 0.000000
# 3 -0.001489 -0.002067 0.006401 0.000000 0.000000 0.000000
# 4 0.000000 0.000000 0.000000 -0.148515 0.000000 0.000000
# 5 0.000000 0.000000 0.000000 0.000000 0.042688 0.000000
# 6 0.000000 0.000000 0.000000 0.000000 0.000000 0.039380
#
#
# Mechanical properties :
#
#
# Convention : Reuss Voigt Hill
#
# Bulk Modulus (GPa) = 71.83504 90.42251 81.12878
# Shear Modulus (GPa) = -177.95840 32.31129 -72.82356
#
# Velocity S-wave (km/s) = -8.36721 3.56532 -5.35251
# Velocity P-wave (km/s) = 8.06762 7.24718 2.50648
#
# Compressibility (1/GPa) = 0.01392078
#
# Stress axis : x y z
#
# Youngs Moduli (GPa) = 82.81705 187.27120 156.22076
#
# Poissons Ratio (x) = 0.26069 0.23256
# Poissons Ratio (y) = 0.11529 0.32288
# Poissons Ratio (z) = 0.12329 0.38705
#
# Static dielectric constant tensor:
#      x y z
#    x 2.383640 0.000000 0.000000 
#    y 0.000000 2.201990 0.000000 
#    z 0.000000 0.000000 1.890550 
# 
# From -- ./inp_files/25245.got.cif
#   From: 2010.05.17/outbox.cif.g08.bks.cpg/sg21_13_cif.got.tgz:25245.got - 2010.06.03 23:14:55.
