data_PCOD9324456
_publ_section_title
;
Structure prediction by ZEFSAII (Michael W. Deem and Ramdas Pophale) SiO2 
 PCOD9324456
Probable space group: C 2 2 2
;
_chemical_formula_sum "Si O2"
_cell_formula_units_Z 32
_cell_length_a 34.348672
_cell_length_b 5.437226
_cell_length_c 8.144286
_cell_angle_alpha 90.000000
_cell_angle_beta 90.000000
_cell_angle_gamma 90.000000
_cell_volume 1521.039008
_symmetry_space_group_name_H-M "C 2 2 2"
_symmetry_group_IT_number 21
_symmetry_cell_setting 'orthorhombic'
loop_
_space_group_symop_operation_xyz
x,y,z
-x,-y,z
x,-y,-z
-x,y,-z
1/2+x,1/2+y,z
1/2-x,1/2-y,z
1/2+x,1/2-y,-z
1/2-x,1/2+y,-z
loop_
_atom_site_type_symbol
_atom_site_label
_atom_site_fract_x
_atom_site_fract_y
_atom_site_fract_z
Si Si1 0.376571 0.487494 0.301935
Si Si2 0.000000 0.500000 0.500000
Si Si3 0.775081 0.500000 0.500000
Si Si4 0.000000 0.500000 0.000000
Si Si5 0.961762 0.159925 0.249232
Si Si6 0.834024 0.488474 0.192842
O O1 0.371131 0.500000 0.500000
O O2 0.422129 0.514499 0.260739
O O3 0.359966 0.230983 0.232649
O O4 0.356221 0.729772 0.224621
O O5 0.969624 0.335958 0.401158
O O6 0.750000 0.250000 0.501835
O O7 0.800655 0.496603 0.332891
O O8 0.030488 0.329694 0.905327
O O9 0.000000 0.000000 0.251169
O O10 0.821989 0.500000 0.000000
#
# Coordination Sequence:
#
# PCOD9324456 Si02
#       6
#     8   2   4   2   8   8
#     4  12  25  46  76 103 154 204 252 316 375 441
#     4  10  22  40  60  96 124 178 266 326 366 438
#     4  12  26  51  86 114 155 194 239 298 372 456
#     4  10  26  42  60  92 148 174 274 318 386 426
#     4  11  25  41  65  95 136 195 258 317 375 434
#     4  12  28  49  76 120 154 195 248 301 375 451
#
# _framework density 21.038253999999998
#
# number of rings (size 3 to 8) (size 9 to 14) (size 15 to 20)
#    0.000    0.500    2.500    4.500   12.250    3.000 
#    0.000    0.000    0.000    0.000    0.000    0.000 
#    0.000    0.000    0.000    0.000    0.000    0.000 
#
# Total GULP energy -89403.986641 kJ/mol
# GULP energy per Si atom -5587.749165 kJ/mol
# Density = 2.099037 g / cm^3
# Si number density = 21.038254 Si / 1000 Ang^3
#
#
#
# Elastic Constant Matrix: (Units=GPa)
#
#
# Indices 1 2 3 4 5 6 
#
# 1 138.9749 75.4458 61.2268 0.0000 0.0000 0.0000
# 2 75.4458 170.1953 53.0319 0.0000 0.0000 0.0000
# 3 61.2268 53.0319 165.5093 0.0000 0.0000 0.0000
# 4 0.0000 0.0000 0.0000 26.9800 0.0000 0.0000
# 5 0.0000 0.0000 0.0000 0.0000 -70.5522 0.0000
# 6 0.0000 0.0000 0.0000 0.0000 0.0000 46.9658
#
#
#
# Elastic Compliance Matrix: (Units=1/GPa)
#
#
# Indices 1 2 3 4 5 6 
#
# 1 0.010419 -0.003797 -0.002638 0.000000 0.000000 0.000000
# 2 -0.003797 0.007911 -0.001130 0.000000 0.000000 0.000000
# 3 -0.002638 -0.001130 0.007380 0.000000 0.000000 0.000000
# 4 0.000000 0.000000 0.000000 0.037064 0.000000 0.000000
# 5 0.000000 0.000000 0.000000 0.000000 -0.014174 0.000000
# 6 0.000000 0.000000 0.000000 0.000000 0.000000 0.021292
#
#
# Mechanical properties :
#
#
# Convention : Reuss Voigt Hill
#
# Bulk Modulus (GPa) = 94.51599 94.89872 94.70735
# Shear Modulus (GPa) = 56.46665 19.67705 38.07185
#
# Velocity S-wave (km/s) = 5.18635 3.06158 4.25861
# Velocity P-wave (km/s) = 8.99376 7.59627 8.32439
#
# Compressibility (1/GPa) = 0.01058022
#
# Stress axis : x y z
#
# Youngs Moduli (GPa) = 95.98149 126.40972 135.50380
#
# Poissons Ratio (x) = 0.47993 0.35742
# Poissons Ratio (y) = 0.36440 0.15316
# Poissons Ratio (z) = 0.25317 0.14288
#
# Static dielectric constant tensor:
#      x y z
#    x 1.634110 0.000000 0.000000 
#    y 0.000000 2.017810 0.000000 
#    z 0.000000 0.000000 1.808590 
# 
# From -- ./inp_files/9224.got.cif
#   From: 2010.05.17/outbox.cif.g08.bks.cpg/sg21_5_cif.got.tgz:9224.got - 2010.06.03 23:14:55.
