data_PCOD9324000
_publ_section_title
;
Structure prediction by ZEFSAII (Michael W. Deem and Ramdas Pophale) SiO2 
 PCOD9324000
Probable space group: C 2 2 2
;
_chemical_formula_sum "Si O2"
_cell_formula_units_Z 56
_cell_length_a 22.753035
_cell_length_b 9.592689
_cell_length_c 13.679360
_cell_angle_alpha 90.000000
_cell_angle_beta 90.000000
_cell_angle_gamma 90.000000
_cell_volume 2985.695259
_symmetry_space_group_name_H-M "C 2 2 2"
_symmetry_group_IT_number 21
_symmetry_cell_setting 'orthorhombic'
loop_
_space_group_symop_operation_xyz
x,y,z
-x,-y,z
x,-y,-z
-x,y,-z
1/2+x,1/2+y,z
1/2-x,1/2-y,z
1/2+x,1/2-y,-z
1/2-x,1/2+y,-z
loop_
_atom_site_type_symbol
_atom_site_label
_atom_site_fract_x
_atom_site_fract_y
_atom_site_fract_z
Si Si1 0.189870 0.333464 0.387837
Si Si2 0.875373 0.776234 0.799043
Si Si3 0.310597 0.959974 0.112207
Si Si4 0.502394 0.168304 0.115552
Si Si5 0.689628 0.832777 0.615791
Si Si6 0.121932 0.704633 0.798627
Si Si7 0.322463 0.466517 0.114709
O O1 0.250000 0.250000 0.365902
O O2 0.175356 0.309090 0.501669
O O3 0.198146 0.500302 0.373254
O O4 0.139734 0.281356 0.314161
O O5 0.826697 0.698860 0.867163
O O6 0.858878 0.725824 0.690388
O O7 0.938614 0.727168 0.836176
O O8 0.864733 0.938212 0.819213
O O9 0.357870 0.050127 0.170978
O O10 0.244778 0.999443 0.141540
O O11 0.317636 0.000000 0.000000
O O12 0.445089 0.224749 0.171222
O O13 0.500000 0.000000 0.122179
O O14 0.500000 0.203973 0.000000
O O15 0.750000 0.750000 0.637384
O O16 0.162103 0.808089 0.862107
O O17 0.330538 0.500000 0.000000
#
# Coordination Sequence:
#
# PCOD9324000 Si02
#       7
#     8   8   8   8   8   8   8
#     4  10  21  38  62  92 122 154 198 252 310 366
#     4  12  23  38  59  86 120 160 202 248 298 354
#     4  11  20  35  58  84 115 151 195 244 302 366
#     4  11  22  39  62  84 115 164 213 248 287 357
#     4  10  21  38  62  92 122 154 198 252 310 366
#     4  12  23  38  59  86 120 160 202 248 298 354
#     4  11  24  37  56  88 123 155 195 252 314 364
#
# _framework density 18.756101000000001
#
# number of rings (size 3 to 8) (size 9 to 14) (size 15 to 20)
#    0.000    1.000    2.857    5.143    2.000    2.857 
#    0.000    2.143    0.000    2.571    0.000    2.000 
#    0.000    0.000    0.000    0.000    0.000    0.000 
#
# Total GULP energy -156483.509631 kJ/mol
# GULP energy per Si atom -5588.696773 kJ/mol
# Density = 1.871341 g / cm^3
# Si number density = 18.756101 Si / 1000 Ang^3
#
#
#
# Elastic Constant Matrix: (Units=GPa)
#
#
# Indices 1 2 3 4 5 6 
#
# 1 129.2762 5.8665 63.1978 0.0000 0.0000 0.0000
# 2 5.8665 35.1870 11.9181 0.0000 0.0000 0.0000
# 3 63.1978 11.9181 125.7911 0.0000 0.0000 0.0000
# 4 0.0000 0.0000 0.0000 26.1754 0.0000 0.0000
# 5 0.0000 0.0000 0.0000 0.0000 26.2197 0.0000
# 6 0.0000 0.0000 0.0000 0.0000 0.0000 21.7622
#
#
#
# Elastic Compliance Matrix: (Units=1/GPa)
#
#
# Indices 1 2 3 4 5 6 
#
# 1 0.010254 0.000036 -0.005155 0.000000 0.000000 0.000000
# 2 0.000036 0.029362 -0.002800 0.000000 0.000000 0.000000
# 3 -0.005155 -0.002800 0.010805 0.000000 0.000000 0.000000
# 4 0.000000 0.000000 0.000000 0.038204 0.000000 0.000000
# 5 0.000000 0.000000 0.000000 0.000000 0.038139 0.000000
# 6 0.000000 0.000000 0.000000 0.000000 0.000000 0.045951
#
#
# Mechanical properties :
#
#
# Convention : Reuss Voigt Hill
#
# Bulk Modulus (GPa) = 28.91579 50.24655 39.58117
# Shear Modulus (GPa) = 24.99000 28.78293 26.88647
#
# Velocity S-wave (km/s) = 3.65412 3.92163 3.79024
# Velocity P-wave (km/s) = 5.76660 6.88137 6.34850
#
# Compressibility (1/GPa) = 0.03458318
#
# Stress axis : x y z
#
# Youngs Moduli (GPa) = 97.52503 34.05766 92.55082
#
# Poissons Ratio (x) = -0.00124 0.47710
# Poissons Ratio (y) = -0.00356 0.25916
# Poissons Ratio (z) = 0.50274 0.09537
#
# Static dielectric constant tensor:
#      x y z
#    x 1.622080 0.000000 0.000000 
#    y 0.000000 1.630100 0.000000 
#    z 0.000000 0.000000 1.664180 
# 
# From -- ./inp_files/33317.got.cif
#   From: 2010.05.17/outbox.cif.g08.bks.cpg/sg21_17_cif.got.tgz:33317.got - 2010.06.03 23:14:55.
