data_PCOD9324732
_publ_section_title
;
Structure prediction by ZEFSAII (Michael W. Deem and Ramdas Pophale) SiO2 
 PCOD9324732
Probable space group: C 2 2 2
;
_chemical_formula_sum "Si O2"
_cell_formula_units_Z 32
_cell_length_a 5.617710
_cell_length_b 14.562894
_cell_length_c 17.288951
_cell_angle_alpha 90.000000
_cell_angle_beta 90.000000
_cell_angle_gamma 90.000000
_cell_volume 1414.411074
_symmetry_space_group_name_H-M "C 2 2 2"
_symmetry_group_IT_number 21
_symmetry_cell_setting 'orthorhombic'
loop_
_space_group_symop_operation_xyz
x,y,z
-x,-y,z
x,-y,-z
-x,y,-z
1/2+x,1/2+y,z
1/2-x,1/2-y,z
1/2+x,1/2-y,-z
1/2-x,1/2+y,-z
loop_
_atom_site_type_symbol
_atom_site_label
_atom_site_fract_x
_atom_site_fract_y
_atom_site_fract_z
Si Si1 0.360998 0.851288 0.304627
Si Si2 0.421312 0.605423 0.162403
Si Si3 0.750000 0.750000 0.252530
Si Si4 0.000000 0.805381 0.000000
Si Si5 0.251033 0.396678 0.529802
O O1 0.250000 0.750000 0.311409
O O2 0.637020 0.827958 0.306879
O O3 0.261791 0.903879 0.377258
O O4 0.307159 0.888428 0.218996
O O5 0.500000 0.500000 0.168591
O O6 0.582653 0.687343 0.198727
O O7 0.415078 0.633742 0.073000
O O8 0.250000 0.750000 0.980994
O O9 0.251265 0.500000 0.500000
O O10 0.500000 0.354480 0.500000
O O11 0.000000 0.354783 0.500000
#
# Coordination Sequence:
#
# PCOD9324732 Si02
#       5
#     8   8   4   4   8
#     4  10  24  43  70 100 143 192 242 306 379 447
#     4  11  25  43  74 109 146 195 253 307 378 459
#     4  10  22  46  68 102 144 196 240 312 378 450
#     4  12  25  50  77 108 160 200 248 313 377 448
#     4  10  24  41  66  98 137 181 241 303 373 433
#
# _framework density 22.624255999999999
#
# number of rings (size 3 to 8) (size 9 to 14) (size 15 to 20)
#    0.000    1.500    1.250    2.625   10.500    4.000 
#    0.000    1.250    0.000    0.000    0.000    0.000 
#    0.000    0.000    0.000    0.000    0.000    0.000 
#
# Total GULP energy -89089.219458 kJ/mol
# GULP energy per Si atom -5568.076216 kJ/mol
# Density = 2.257276 g / cm^3
# Si number density = 22.624256 Si / 1000 Ang^3
#
#
#
# Elastic Constant Matrix: (Units=GPa)
#
#
# Indices 1 2 3 4 5 6 
#
# 1 118.2200 12.2349 42.5318 0.0000 0.0000 0.0000
# 2 12.2349 118.8062 35.9513 0.0000 0.0000 0.0000
# 3 42.5318 35.9513 164.7357 0.0000 0.0000 0.0000
# 4 0.0000 0.0000 0.0000 17.7905 0.0000 0.0000
# 5 0.0000 0.0000 0.0000 0.0000 14.6800 0.0000
# 6 0.0000 0.0000 0.0000 0.0000 0.0000 9.8839
#
#
#
# Elastic Compliance Matrix: (Units=1/GPa)
#
#
# Indices 1 2 3 4 5 6 
#
# 1 0.009332 -0.000248 -0.002355 0.000000 0.000000 0.000000
# 2 -0.000248 0.009019 -0.001904 0.000000 0.000000 0.000000
# 3 -0.002355 -0.001904 0.007094 0.000000 0.000000 0.000000
# 4 0.000000 0.000000 0.000000 0.056210 0.000000 0.000000
# 5 0.000000 0.000000 0.000000 0.000000 0.068120 0.000000
# 6 0.000000 0.000000 0.000000 0.000000 0.000000 0.101175
#
#
# Mechanical properties :
#
#
# Convention : Reuss Voigt Hill
#
# Bulk Modulus (GPa) = 60.86638 64.79976 62.83307
# Shear Modulus (GPa) = 18.83661 29.20713 24.02187
#
# Velocity S-wave (km/s) = 2.88858 3.59690 3.26202
# Velocity P-wave (km/s) = 6.17145 6.77895 6.48232
#
# Compressibility (1/GPa) = 0.01642943
#
# Stress axis : x y z
#
# Youngs Moduli (GPa) = 107.16043 110.87899 140.96564
#
# Poissons Ratio (x) = 0.02754 0.33199
# Poissons Ratio (y) = 0.02661 0.26842
# Poissons Ratio (z) = 0.25237 0.21113
#
# Static dielectric constant tensor:
#      x y z
#    x 2.171350 0.000000 0.000000 
#    y 0.000000 1.799530 0.000000 
#    z 0.000000 0.000000 1.862880 
# 
# From -- ./inp_files/28645.got.cif
#   From: 2010.05.17/outbox.cif.g08.bks.cpg/sg21_15_cif.got.tgz:28645.got - 2010.06.03 23:14:55.
