data_PCOD9324790
_publ_section_title
;
Structure prediction by ZEFSAII (Michael W. Deem and Ramdas Pophale) SiO2 
 PCOD9324790
Probable space group: C 2 2 2
;
_chemical_formula_sum "Si O2"
_cell_formula_units_Z 24
_cell_length_a 12.900691
_cell_length_b 14.920017
_cell_length_c 5.178585
_cell_angle_alpha 90.000000
_cell_angle_beta 90.000000
_cell_angle_gamma 90.000000
_cell_volume 996.766423
_symmetry_space_group_name_H-M "C 2 2 2"
_symmetry_group_IT_number 21
_symmetry_cell_setting 'orthorhombic'
loop_
_space_group_symop_operation_xyz
x,y,z
-x,-y,z
x,-y,-z
-x,y,-z
1/2+x,1/2+y,z
1/2-x,1/2-y,z
1/2+x,1/2-y,-z
1/2-x,1/2+y,-z
loop_
_atom_site_type_symbol
_atom_site_label
_atom_site_fract_x
_atom_site_fract_y
_atom_site_fract_z
Si Si1 0.547901 0.398916 0.258014
Si Si2 0.119155 0.402011 0.087316
Si Si3 0.724008 0.152506 0.391959
O O1 0.500000 0.500000 0.255418
O O2 0.500000 0.347801 0.500000
O O3 0.669610 0.399269 0.317912
O O4 0.500000 0.357550 0.000000
O O5 0.151362 0.390516 0.385891
O O6 0.158757 0.500000 0.000000
O O7 0.170790 0.334337 0.885485
O O8 0.000000 0.400066 0.000000
O O9 0.750000 0.250000 0.499815
#
# Coordination Sequence:
#
# PCOD9324790 Si02
#       3
#     8   8   8
#     4  10  23  40  65 101 137 186 237 290 359 440
#     4  11  26  47  75 102 141 195 252 299 360 451
#     4  12  26  44  72 109 149 189 242 312 377 430
#
# _framework density 24.077859
#
# number of rings (size 3 to 8) (size 9 to 14) (size 15 to 20)
#    0.000    1.000    0.000    5.000   14.000    6.667 
#    0.000    0.000    0.000    0.000    0.000    0.000 
#    0.000    0.000    0.000    0.000    0.000    0.000 
#
# Total GULP energy -66940.415064 kJ/mol
# GULP energy per Si atom -5578.367922 kJ/mol
# Density = 2.402306 g / cm^3
# Si number density = 24.077859 Si / 1000 Ang^3
#
#
#
# Elastic Constant Matrix: (Units=GPa)
#
#
# Indices 1 2 3 4 5 6 
#
# 1 170.3403 15.9075 66.1383 0.0000 0.0000 0.0000
# 2 15.9075 60.8248 -6.4372 0.0000 0.0000 0.0000
# 3 66.1383 -6.4372 215.2931 0.0000 0.0000 0.0000
# 4 0.0000 0.0000 0.0000 16.7462 0.0000 0.0000
# 5 0.0000 0.0000 0.0000 0.0000 53.6668 0.0000
# 6 0.0000 0.0000 0.0000 0.0000 0.0000 20.9992
#
#
#
# Elastic Compliance Matrix: (Units=1/GPa)
#
#
# Indices 1 2 3 4 5 6 
#
# 1 0.006909 -0.002038 -0.002183 0.000000 0.000000 0.000000
# 2 -0.002038 0.017094 0.001137 0.000000 0.000000 0.000000
# 3 -0.002183 0.001137 0.005350 0.000000 0.000000 0.000000
# 4 0.000000 0.000000 0.000000 0.059715 0.000000 0.000000
# 5 0.000000 0.000000 0.000000 0.000000 0.018633 0.000000
# 6 0.000000 0.000000 0.000000 0.000000 0.000000 0.047621
#
#
# Mechanical properties :
#
#
# Convention : Reuss Voigt Hill
#
# Bulk Modulus (GPa) = 43.13292 66.40836 54.77064
# Shear Modulus (GPa) = 29.54775 43.00576 36.27675
#
# Velocity S-wave (km/s) = 3.50691 4.23083 3.88576
# Velocity P-wave (km/s) = 5.86095 7.17684 6.55201
#
# Compressibility (1/GPa) = 0.02318415
#
# Stress axis : x y z
#
# Youngs Moduli (GPa) = 144.74697 58.50012 186.93229
#
# Poissons Ratio (x) = 0.11922 0.40812
# Poissons Ratio (y) = 0.29498 -0.21257
# Poissons Ratio (z) = 0.31602 -0.06652
#
# Static dielectric constant tensor:
#      x y z
#    x 2.091710 0.000000 0.000000 
#    y 0.000000 1.988220 0.000000 
#    z 0.000000 0.000000 1.763250 
# 
# From -- ./inp_files/2051.got.cif
#   From: 2010.05.17/outbox.cif.g08.bks.cpg/sg21_2_cif.got.tgz:2051.got - 2010.06.03 23:14:55.
