data_PCOD9324307
_publ_section_title
;
Structure prediction by ZEFSAII (Michael W. Deem and Ramdas Pophale) SiO2 
 PCOD9324307
Probable space group: C 2 2 2
;
_chemical_formula_sum "Si O2"
_cell_formula_units_Z 56
_cell_length_a 17.046840
_cell_length_b 8.097413
_cell_length_c 18.898940
_cell_angle_alpha 90.000000
_cell_angle_beta 90.000000
_cell_angle_gamma 90.000000
_cell_volume 2608.720925
_symmetry_space_group_name_H-M "C 2 2 2"
_symmetry_group_IT_number 21
_symmetry_cell_setting 'orthorhombic'
loop_
_space_group_symop_operation_xyz
x,y,z
-x,-y,z
x,-y,-z
-x,y,-z
1/2+x,1/2+y,z
1/2-x,1/2-y,z
1/2+x,1/2-y,-z
1/2-x,1/2+y,-z
loop_
_atom_site_type_symbol
_atom_site_label
_atom_site_fract_x
_atom_site_fract_y
_atom_site_fract_z
Si Si1 0.310900 0.369374 0.556467
Si Si2 0.774210 0.558633 0.318959
Si Si3 0.978926 0.194438 0.420932
Si Si4 0.444652 0.147410 0.282837
Si Si5 0.578777 0.607587 0.147743
Si Si6 0.250934 0.451839 0.161383
Si Si7 0.588797 0.054951 0.919723
O O1 0.341274 0.500000 0.500000
O O2 0.250000 0.250000 0.518123
O O3 0.263345 0.456381 0.618457
O O4 0.386300 0.280985 0.586762
O O5 0.750000 0.750000 0.326951
O O6 0.866698 0.561941 0.311502
O O7 0.747547 0.494173 0.242721
O O8 0.019289 0.271237 0.352806
O O9 0.000000 0.257454 0.500000
O O10 0.000000 0.000000 0.419123
O O11 0.424546 0.283792 0.221946
O O12 0.500000 0.000000 0.255796
O O13 0.500000 0.500000 0.145334
O O14 0.660212 0.506446 0.137257
O O15 0.582946 0.747993 0.088243
O O16 0.250000 0.250000 0.159933
O O17 0.167887 0.499430 0.124213
O O18 0.500000 0.000000 0.898810
O O19 0.601168 0.000000 0.000000
#
# Coordination Sequence:
#
# PCOD9324307 Si02
#       7
#     8   8   8   8   8   8   8
#     4  12  26  42  60  88 127 174 229 284 342 404
#     4  11  21  40  67  93 127 172 217 277 341 399
#     4  11  24  43  62  90 129 179 231 287 346 408
#     4  12  24  40  67  97 132 176 225 285 345 400
#     4  11  23  42  69 103 141 178 226 270 330 405
#     4   9  19  40  67  99 133 173 217 264 325 401
#     4  10  21  44  74 101 135 178 215 270 336 393
#
# _framework density 21.466457999999999
#
# number of rings (size 3 to 8) (size 9 to 14) (size 15 to 20)
#    0.000    1.143    5.714    3.000    4.000    0.286 
#    0.000   10.714    0.000    0.000    0.000    0.000 
#    0.000    0.000    0.000    0.000    0.000    0.000 
#
# Total GULP energy -156208.328487 kJ/mol
# GULP energy per Si atom -5578.868875 kJ/mol
# Density = 2.141760 g / cm^3
# Si number density = 21.466458 Si / 1000 Ang^3
#
#
#
# Elastic Constant Matrix: (Units=GPa)
#
#
# Indices 1 2 3 4 5 6 
#
# 1 178.6394 28.9285 27.7447 0.0000 0.0000 0.0000
# 2 28.9285 33.5347 29.8517 0.0000 0.0000 0.0000
# 3 27.7447 29.8517 121.7611 0.0000 0.0000 0.0000
# 4 0.0000 0.0000 0.0000 21.5348 0.0000 0.0000
# 5 0.0000 0.0000 0.0000 0.0000 0.3316 0.0000
# 6 0.0000 0.0000 0.0000 0.0000 0.0000 18.9002
#
#
#
# Elastic Compliance Matrix: (Units=1/GPa)
#
#
# Indices 1 2 3 4 5 6 
#
# 1 0.006509 -0.005493 -0.000136 0.000000 0.000000 0.000000
# 2 -0.005493 0.042781 -0.009237 0.000000 0.000000 0.000000
# 3 -0.000136 -0.009237 0.010508 0.000000 0.000000 0.000000
# 4 0.000000 0.000000 0.000000 0.046436 0.000000 0.000000
# 5 0.000000 0.000000 0.000000 0.000000 3.016048 0.000000
# 6 0.000000 0.000000 0.000000 0.000000 0.000000 0.052910
#
#
# Mechanical properties :
#
#
# Convention : Reuss Voigt Hill
#
# Bulk Modulus (GPa) = 33.26090 56.33166 44.79628
# Shear Modulus (GPa) = 1.55524 24.64733 13.10128
#
# Velocity S-wave (km/s) = 0.85210 3.39215 2.47313
# Velocity P-wave (km/s) = 4.06154 6.45298 5.39152
#
# Compressibility (1/GPa) = 0.03006533
#
# Stress axis : x y z
#
# Youngs Moduli (GPa) = 153.64252 23.37489 95.16207
#
# Poissons Ratio (x) = 0.12841 0.01297
# Poissons Ratio (y) = 0.84401 0.87899
# Poissons Ratio (z) = 0.02094 0.21591
#
# Static dielectric constant tensor:
#      x y z
#    x 1.846470 0.000000 0.000000 
#    y 0.000000 1.797510 0.000000 
#    z 0.000000 0.000000 1.765170 
# 
# From -- ./inp_files/37605.got.cif
#   From: 2010.05.17/outbox.cif.g08.bks.cpg/sg21_19_cif.got.tgz:37605.got - 2010.06.03 23:14:55.
