data_PCOD9324671
_publ_section_title
;
Structure prediction by ZEFSAII (Michael W. Deem and Ramdas Pophale) SiO2 
 PCOD9324671
Probable space group: C 2 2 2
;
_chemical_formula_sum "Si O2"
_cell_formula_units_Z 58
_cell_length_a 27.970638
_cell_length_b 11.179109
_cell_length_c 9.478962
_cell_angle_alpha 90.000000
_cell_angle_beta 90.000000
_cell_angle_gamma 90.000000
_cell_volume 2963.946399
_symmetry_space_group_name_H-M "C 2 2 2"
_symmetry_group_IT_number 21
_symmetry_cell_setting 'orthorhombic'
loop_
_space_group_symop_operation_xyz
x,y,z
-x,-y,z
x,-y,-z
-x,y,-z
1/2+x,1/2+y,z
1/2-x,1/2-y,z
1/2+x,1/2-y,-z
1/2-x,1/2+y,-z
loop_
_atom_site_type_symbol
_atom_site_label
_atom_site_fract_x
_atom_site_fract_y
_atom_site_fract_z
Si Si1 0.247459 0.388114 0.170882
Si Si2 0.331881 0.004753 0.652232
Si Si3 0.379873 0.244946 0.767597
Si Si4 0.423036 0.155008 0.332234
Si Si5 0.554007 0.142891 0.987815
Si Si6 0.000000 0.500000 0.500000
Si Si7 0.717811 0.361411 0.154947
Si Si8 0.557516 0.638237 0.521955
O O1 0.250000 0.250000 0.226273
O O2 0.196394 0.442986 0.217922
O O3 0.278058 0.504854 0.220583
O O4 0.261514 0.374699 0.005245
O O5 0.377775 0.923031 0.630118
O O6 0.305213 0.000000 0.500000
O O7 0.351843 0.135392 0.691679
O O8 0.411799 0.191663 0.892192
O O9 0.337253 0.324238 0.832520
O O10 0.417207 0.311205 0.663165
O O11 0.467784 0.083648 0.400189
O O12 0.419217 0.283361 0.400600
O O13 0.427650 0.169240 0.166958
O O14 0.500000 0.189762 0.000000
O O15 0.552503 0.000000 0.000000
O O16 0.750000 0.250000 0.215684
O O17 0.567453 0.500000 0.500000
O O18 0.500000 0.654579 0.500000
#
# Coordination Sequence:
#
# PCOD9324671 Si02
#       8
#     8   8   8   8   8   2   8   8
#     4  10  24  44  70  98 133 176 233 292 357 423
#     4  12  24  42  68 105 136 183 233 298 365 430
#     4  12  24  46  74 103 144 189 241 300 363 439
#     4  12  23  38  69 101 142 184 240 292 363 437
#     4  11  24  36  63 109 146 180 231 302 369 429
#     4  12  20  40  68 100 148 184 222 302 364 432
#     4  10  22  43  73  97 134 184 228 288 362 419
#     4  11  25  47  71  99 147 203 243 292 363 437
#
# _framework density 19.568504999999998
#
# number of rings (size 3 to 8) (size 9 to 14) (size 15 to 20)
#    0.000    0.828    5.517    1.655    3.862    1.103 
#    4.966    0.000    0.000    2.483    0.000    0.000 
#    0.000    0.000    0.000    0.000    0.000    0.000 
#
# Total GULP energy -161626.721364 kJ/mol
# GULP energy per Si atom -5573.335219 kJ/mol
# Density = 1.952397 g / cm^3
# Si number density = 19.568505 Si / 1000 Ang^3
#
#
#
# Elastic Constant Matrix: (Units=GPa)
#
#
# Indices 1 2 3 4 5 6 
#
# 1 112.9051 52.4611 43.0895 0.0000 0.0000 0.0000
# 2 52.4611 155.8806 36.9963 0.0000 0.0000 0.0000
# 3 43.0895 36.9963 126.2694 0.0000 0.0000 0.0000
# 4 0.0000 0.0000 0.0000 17.0769 0.0000 0.0000
# 5 0.0000 0.0000 0.0000 0.0000 14.4755 0.0000
# 6 0.0000 0.0000 0.0000 0.0000 0.0000 20.7929
#
#
#
# Elastic Compliance Matrix: (Units=1/GPa)
#
#
# Indices 1 2 3 4 5 6 
#
# 1 0.011460 -0.003148 -0.002989 0.000000 0.000000 0.000000
# 2 -0.003148 0.007759 -0.001199 0.000000 0.000000 0.000000
# 3 -0.002989 -0.001199 0.009291 0.000000 0.000000 0.000000
# 4 0.000000 0.000000 0.000000 0.058558 0.000000 0.000000
# 5 0.000000 0.000000 0.000000 0.000000 0.069082 0.000000
# 6 0.000000 0.000000 0.000000 0.000000 0.000000 0.048093
#
#
# Mechanical properties :
#
#
# Convention : Reuss Voigt Hill
#
# Bulk Modulus (GPa) = 72.25835 73.34988 72.80411
# Shear Modulus (GPa) = 22.36856 27.96961 25.16909
#
# Velocity S-wave (km/s) = 3.38463 3.78473 3.59026
# Velocity P-wave (km/s) = 7.23051 7.52755 7.38052
#
# Compressibility (1/GPa) = 0.01383923
#
# Stress axis : x y z
#
# Youngs Moduli (GPa) = 87.25961 128.88100 107.63348
#
# Poissons Ratio (x) = 0.40566 0.32167
# Poissons Ratio (y) = 0.27465 0.12908
# Poissons Ratio (z) = 0.26078 0.15456
#
# Static dielectric constant tensor:
#      x y z
#    x 1.722330 0.000000 0.000000 
#    y 0.000000 1.774220 0.000000 
#    z 0.000000 0.000000 1.721670 
# 
# From -- ./inp_files/19161.got.cif
#   From: 2010.05.17/outbox.cif.g08.bks.cpg/sg21_10_cif.got.tgz:19161.got - 2010.06.03 23:14:55.
