data_PCOD9324154
_publ_section_title
;
Structure prediction by ZEFSAII (Michael W. Deem and Ramdas Pophale) SiO2 
 PCOD9324154
Probable space group: C 2 2 2
;
_chemical_formula_sum "Si O2"
_cell_formula_units_Z 56
_cell_length_a 15.849396
_cell_length_b 18.755918
_cell_length_c 7.541003
_cell_angle_alpha 90.000000
_cell_angle_beta 90.000000
_cell_angle_gamma 90.000000
_cell_volume 2241.713749
_symmetry_space_group_name_H-M "C 2 2 2"
_symmetry_group_IT_number 21
_symmetry_cell_setting 'orthorhombic'
loop_
_space_group_symop_operation_xyz
x,y,z
-x,-y,z
x,-y,-z
-x,y,-z
1/2+x,1/2+y,z
1/2-x,1/2-y,z
1/2+x,1/2-y,-z
1/2-x,1/2+y,-z
loop_
_atom_site_type_symbol
_atom_site_label
_atom_site_fract_x
_atom_site_fract_y
_atom_site_fract_z
Si Si1 0.993035 0.610697 0.802582
Si Si2 0.899739 0.993191 0.292431
Si Si3 0.509614 0.258531 0.307244
Si Si4 0.156909 0.837019 0.820905
Si Si5 0.183126 0.430680 0.768623
Si Si6 0.161158 0.144084 0.780241
Si Si7 0.182649 0.408447 0.200754
O O1 0.966780 0.693457 0.817877
O O2 0.913764 0.574878 0.708898
O O3 0.088179 0.606312 0.734791
O O4 0.000000 0.579456 0.000000
O O5 0.865470 0.061995 0.191281
O O6 0.875331 0.000000 0.500000
O O7 0.874618 0.918032 0.211285
O O8 0.000000 0.000000 0.286195
O O9 0.500000 0.225391 0.500000
O O10 0.419442 0.290767 0.254087
O O11 0.584241 0.317008 0.317675
O O12 0.252563 0.845277 0.750400
O O13 0.165554 0.819589 0.028519
O O14 0.246702 0.369905 0.695688
O O15 0.209065 0.512545 0.734241
O O16 0.183797 0.416192 0.983659
#
# Coordination Sequence:
#
# PCOD9324154 Si02
#       7
#     8   8   8   8   8   8   8
#     4  10  21  40  65  87 116 157 200 243 293 347
#     4  11  21  33  53  86 124 157 191 234 296 354
#     4  12  26  42  56  81 124 163 201 239 292 356
#     4  11  21  36  61  90 119 151 197 244 292 347
#     4   9  18  35  63  97 120 143 190 252 300 341
#     4  11  21  36  61  90 119 151 197 244 292 347
#     4   9  18  35  63  97 120 143 190 252 300 341
#
# _framework density 24.980889000000001
#
# number of rings (size 3 to 8) (size 9 to 14) (size 15 to 20)
#    0.000    1.571    2.857    3.000    0.000    3.429 
#    0.000    8.571    0.000    0.857    0.000    0.000 
#    0.000    0.000    0.000    0.000    0.000    0.000 
#
# Total GULP energy -156410.503904 kJ/mol
# GULP energy per Si atom -5586.089425 kJ/mol
# Density = 2.492403 g / cm^3
# Si number density = 24.980889 Si / 1000 Ang^3
#
#
#
# Elastic Constant Matrix: (Units=GPa)
#
#
# Indices 1 2 3 4 5 6 
#
# 1 172.7454 13.6728 0.8357 0.0000 0.0000 0.0000
# 2 13.6728 74.7595 -17.3483 0.0000 0.0000 0.0000
# 3 0.8357 -17.3483 50.4848 0.0000 0.0000 0.0000
# 4 0.0000 0.0000 0.0000 1.4849 0.0000 0.0000
# 5 0.0000 0.0000 0.0000 0.0000 -16.2415 0.0000
# 6 0.0000 0.0000 0.0000 0.0000 0.0000 32.1461
#
#
#
# Elastic Compliance Matrix: (Units=1/GPa)
#
#
# Indices 1 2 3 4 5 6 
#
# 1 0.005886 -0.001194 -0.000508 0.000000 0.000000 0.000000
# 2 -0.001194 0.014778 0.005098 0.000000 0.000000 0.000000
# 3 -0.000508 0.005098 0.021568 0.000000 0.000000 0.000000
# 4 0.000000 0.000000 0.000000 0.673454 0.000000 0.000000
# 5 0.000000 0.000000 0.000000 0.000000 -0.061571 0.000000
# 6 0.000000 0.000000 0.000000 0.000000 0.000000 0.031108
#
#
# Mechanical properties :
#
#
# Convention : Reuss Voigt Hill
#
# Bulk Modulus (GPa) = 20.39853 32.47888 26.43870
# Shear Modulus (GPa) = 7.19660 23.53319 15.36489
#
# Velocity S-wave (km/s) = 1.69915 3.07261 2.48274
# Velocity P-wave (km/s) = 3.46884 5.06139 4.33881
#
# Compressibility (1/GPa) = 0.04902315
#
# Stress axis : x y z
#
# Youngs Moduli (GPa) = 169.89892 67.66979 46.36461
#
# Poissons Ratio (x) = 0.08082 0.02355
# Poissons Ratio (y) = 0.20291 -0.23636
# Poissons Ratio (z) = 0.08628 -0.34497
#
# Static dielectric constant tensor:
#      x y z
#    x 2.088390 0.000000 0.000000 
#    y 0.000000 1.922570 0.000000 
#    z 0.000000 0.000000 1.958210 
# 
# From -- ./inp_files/15304.got.cif
#   From: 2010.05.17/outbox.cif.g08.bks.cpg/sg21_8_cif.got.tgz:15304.got - 2010.06.03 23:14:55.
