data_PCOD9324747
_publ_section_title
;
Structure prediction by ZEFSAII (Michael W. Deem and Ramdas Pophale) SiO2 
 PCOD9324747
Probable space group: C 2 2 2
;
_chemical_formula_sum "Si O2"
_cell_formula_units_Z 20
_cell_length_a 6.871162
_cell_length_b 13.678585
_cell_length_c 6.811002
_cell_angle_alpha 90.000000
_cell_angle_beta 90.000000
_cell_angle_gamma 90.000000
_cell_volume 640.150913
_symmetry_space_group_name_H-M "C 2 2 2"
_symmetry_group_IT_number 21
_symmetry_cell_setting 'orthorhombic'
loop_
_space_group_symop_operation_xyz
x,y,z
-x,-y,z
x,-y,-z
-x,y,-z
1/2+x,1/2+y,z
1/2-x,1/2-y,z
1/2+x,1/2-y,-z
1/2-x,1/2+y,-z
loop_
_atom_site_type_symbol
_atom_site_label
_atom_site_fract_x
_atom_site_fract_y
_atom_site_fract_z
Si Si1 0.812884 0.597303 0.876190
Si Si2 0.935995 0.188027 0.708881
Si Si3 0.500000 0.500000 0.500000
Si Si4 0.500000 0.000000 0.500000
O O1 0.889445 0.568553 0.660075
O O2 0.757775 0.500000 0.000000
O O3 0.626881 0.665910 0.839229
O O4 0.000000 0.634183 0.000000
O O5 0.750000 0.250000 0.772354
O O6 0.000000 0.233486 0.500000
O O7 0.887869 0.076490 0.639482
#
# Coordination Sequence:
#
# PCOD9324747 Si02
#       4
#     8   8   2   2
#     4   9  19  40  82 144 188 256 336 398 500 583
#     4  10  22  47  83 147 196 256 337 399 487 603
#     4   8  22  44  86 136 188 260 330 380 500 590
#     4   8  16  36  76 132 182 258 336 396 490 594
#
# _framework density 31.242636000000001
#
# number of rings (size 3 to 8) (size 9 to 14) (size 15 to 20)
#    1.200    2.000    0.000    1.200    0.000    0.000 
#    3.600    2.000    0.000   21.600   62.400    0.000 
#    0.000    0.000    0.000    0.000    0.000    0.000 
#
# Total GULP energy -55985.913556 kJ/mol
# GULP energy per Si atom -5598.591356 kJ/mol
# Density = 3.117153 g / cm^3
# Si number density = 31.242636 Si / 1000 Ang^3
#
#
#
# Elastic Constant Matrix: (Units=GPa)
#
#
# Indices 1 2 3 4 5 6 
#
# 1 337.8524 171.4382 191.2331 0.0000 0.0000 0.0000
# 2 171.4382 244.1547 95.7931 0.0000 0.0000 0.0000
# 3 191.2331 95.7931 286.7520 0.0000 0.0000 0.0000
# 4 0.0000 0.0000 0.0000 15.4502 0.0000 0.0000
# 5 0.0000 0.0000 0.0000 0.0000 122.9853 0.0000
# 6 0.0000 0.0000 0.0000 0.0000 0.0000 112.5800
#
#
#
# Elastic Compliance Matrix: (Units=1/GPa)
#
#
# Indices 1 2 3 4 5 6 
#
# 1 0.006419 -0.003254 -0.003194 0.000000 0.000000 0.000000
# 2 -0.003254 0.006363 0.000044 0.000000 0.000000 0.000000
# 3 -0.003194 0.000044 0.005602 0.000000 0.000000 0.000000
# 4 0.000000 0.000000 0.000000 0.064724 0.000000 0.000000
# 5 0.000000 0.000000 0.000000 0.000000 0.008131 0.000000
# 6 0.000000 0.000000 0.000000 0.000000 0.000000 0.008883
#
#
# Mechanical properties :
#
#
# Convention : Reuss Voigt Hill
#
# Bulk Modulus (GPa) = 179.28215 198.40975 188.84595
# Shear Modulus (GPa) = 43.55860 77.55606 60.55733
#
# Velocity S-wave (km/s) = 3.73795 4.98775 4.40738
# Velocity P-wave (km/s) = 8.72572 9.83942 9.29926
#
# Compressibility (1/GPa) = 0.00557780
#
# Stress axis : x y z
#
# Youngs Moduli (GPa) = 155.79402 157.15221 178.49932
#
# Poissons Ratio (x) = 0.51138 0.57005
# Poissons Ratio (y) = 0.50696 -0.00792
# Poissons Ratio (z) = 0.49754 -0.00698
#
# Static dielectric constant tensor:
#      x y z
#    x 2.645920 0.000000 0.000000 
#    y 0.000000 2.455780 0.000000 
#    z 0.000000 0.000000 2.368260 
# 
# From -- ./inp_files/1033.got.cif
#   From: 2010.05.17/outbox.cif.g08.bks.cpg/sg21_1_cif.got.tgz:1033.got - 2010.06.03 23:14:55.
