data_PCOD9324654
_publ_section_title
;
Structure prediction by ZEFSAII (Michael W. Deem and Ramdas Pophale) SiO2 
 PCOD9324654
Probable space group: C 2 2 2
;
_chemical_formula_sum "Si O2"
_cell_formula_units_Z 26
_cell_length_a 12.311181
_cell_length_b 20.848399
_cell_length_c 5.263337
_cell_angle_alpha 90.000000
_cell_angle_beta 90.000000
_cell_angle_gamma 90.000000
_cell_volume 1350.932358
_symmetry_space_group_name_H-M "C 2 2 2"
_symmetry_group_IT_number 21
_symmetry_cell_setting 'orthorhombic'
loop_
_space_group_symop_operation_xyz
x,y,z
-x,-y,z
x,-y,-z
-x,y,-z
1/2+x,1/2+y,z
1/2-x,1/2-y,z
1/2+x,1/2-y,-z
1/2-x,1/2+y,-z
loop_
_atom_site_type_symbol
_atom_site_label
_atom_site_fract_x
_atom_site_fract_y
_atom_site_fract_z
Si Si1 0.291551 0.822045 0.024662
Si Si2 0.690541 0.558503 0.188189
Si Si3 0.120435 0.380175 0.459777
Si Si4 0.000000 0.000000 0.500000
O O1 0.250000 0.750000 0.026693
O O2 0.343944 0.841947 0.290596
O O3 0.196613 0.874322 0.964410
O O4 0.373669 0.834578 0.789450
O O5 0.787221 0.568133 0.391705
O O6 0.578413 0.543099 0.326472
O O7 0.714858 0.500000 0.000000
O O8 0.000000 0.406304 0.500000
#
# Coordination Sequence:
#
# PCOD9324654 Si02
#       4
#     8   8   8   2
#     4  10  22  43  70 100 141 181 225 280 341 411
#     4  10  24  42  69  96 140 179 229 286 337 411
#     4  10  22  43  69 101 139 179 223 286 343 407
#     4  12  22  48  66 102 136 186 236 282 348 406
#
# _framework density 19.245967
#
# number of rings (size 3 to 8) (size 9 to 14) (size 15 to 20)
#    1.846    0.000    0.000    4.154    0.000    0.000 
#    2.769   17.692    0.000    0.000    0.000    0.000 
#    0.000    0.000    0.000    0.000    0.000    0.000 
#
# Total GULP energy -72430.658773 kJ/mol
# GULP energy per Si atom -5571.589136 kJ/mol
# Density = 1.920216 g / cm^3
# Si number density = 19.245967 Si / 1000 Ang^3
#
#
#
# Elastic Constant Matrix: (Units=GPa)
#
#
# Indices 1 2 3 4 5 6 
#
# 1 142.5556 56.2914 54.8989 0.0000 0.0000 0.0000
# 2 56.2914 141.2341 49.0068 0.0000 0.0000 0.0000
# 3 54.8989 49.0068 152.7518 0.0000 0.0000 0.0000
# 4 0.0000 0.0000 0.0000 5.8407 0.0000 0.0000
# 5 0.0000 0.0000 0.0000 0.0000 9.4923 0.0000
# 6 0.0000 0.0000 0.0000 0.0000 0.0000 14.3794
#
#
#
# Elastic Compliance Matrix: (Units=1/GPa)
#
#
# Indices 1 2 3 4 5 6 
#
# 1 0.009017 -0.002779 -0.002349 0.000000 0.000000 0.000000
# 2 -0.002779 0.008824 -0.001832 0.000000 0.000000 0.000000
# 3 -0.002349 -0.001832 0.007979 0.000000 0.000000 0.000000
# 4 0.000000 0.000000 0.000000 0.171212 0.000000 0.000000
# 5 0.000000 0.000000 0.000000 0.000000 0.105348 0.000000
# 6 0.000000 0.000000 0.000000 0.000000 0.000000 0.069544
#
#
# Mechanical properties :
#
#
# Convention : Reuss Voigt Hill
#
# Bulk Modulus (GPa) = 84.04037 84.10396 84.07216
# Shear Modulus (GPa) = 12.82677 24.36545 18.59611
#
# Velocity S-wave (km/s) = 2.58440 3.56195 3.11180
# Velocity P-wave (km/s) = 7.25719 7.79173 7.52920
#
# Compressibility (1/GPa) = 0.01189904
#
# Stress axis : x y z
#
# Youngs Moduli (GPa) = 110.90555 113.33129 125.33413
#
# Poissons Ratio (x) = 0.31491 0.29443
# Poissons Ratio (y) = 0.30817 0.22964
# Poissons Ratio (z) = 0.26053 0.20765
#
# Static dielectric constant tensor:
#      x y z
#    x 1.660000 0.000000 0.000000 
#    y 0.000000 1.648020 0.000000 
#    z 0.000000 0.000000 1.698580 
# 
# From -- ./inp_files/2091.got.cif
#   From: 2010.05.17/outbox.cif.g08.bks.cpg/sg21_2_cif.got.tgz:2091.got - 2010.06.03 23:14:55.
