data_PCOD9324039
_publ_section_title
;
Structure prediction by ZEFSAII (Michael W. Deem and Ramdas Pophale) SiO2 
 PCOD9324039
Probable space group: C 2 2 2
;
_chemical_formula_sum "Si O2"
_cell_formula_units_Z 40
_cell_length_a 9.439657
_cell_length_b 21.316392
_cell_length_c 9.719331
_cell_angle_alpha 90.000000
_cell_angle_beta 90.000000
_cell_angle_gamma 90.000000
_cell_volume 1955.718234
_symmetry_space_group_name_H-M "C 2 2 2"
_symmetry_group_IT_number 21
_symmetry_cell_setting 'orthorhombic'
loop_
_space_group_symop_operation_xyz
x,y,z
-x,-y,z
x,-y,-z
-x,y,-z
1/2+x,1/2+y,z
1/2-x,1/2-y,z
1/2+x,1/2-y,-z
1/2-x,1/2+y,-z
loop_
_atom_site_type_symbol
_atom_site_label
_atom_site_fract_x
_atom_site_fract_y
_atom_site_fract_z
Si Si1 0.505728 0.570422 0.754752
Si Si2 0.750000 0.750000 0.083724
Si Si3 0.000000 0.166625 0.000000
Si Si4 0.454022 0.144053 0.158724
Si Si5 0.706020 0.941074 0.344768
Si Si6 0.317158 0.912061 0.358732
O O1 0.500000 0.500000 0.818286
O O2 0.480186 0.622531 0.868958
O O3 0.375279 0.564392 0.650320
O O4 0.652807 0.589535 0.684385
O O5 0.640924 0.793050 0.170635
O O6 0.642723 0.708153 0.993066
O O7 0.348453 0.089056 0.204695
O O8 0.587613 0.130942 0.259225
O O9 0.500000 0.140251 0.000000
O O10 0.657138 0.902699 0.478906
O O11 0.655803 0.012851 0.344695
#
# Coordination Sequence:
#
# PCOD9324039 Si02
#       6
#     8   4   4   8   8   8
#     4  10  21  38  68 101 131 165 213 267 325 389
#     4  12  26  42  66  86 130 182 222 276 324 398
#     4  12  23  44  64  92 131 170 224 274 336 374
#     4  12  24  42  63  93 124 170 223 270 319 381
#     4  10  21  41  66  98 136 170 207 261 329 396
#     4  10  22  39  68  99 134 172 203 262 336 393
#
# _framework density 20.452842
#
# number of rings (size 3 to 8) (size 9 to 14) (size 15 to 20)
#    0.000    1.200    3.000    3.300    0.000    5.600 
#    0.000    0.000    8.800    1.200    0.000    0.000 
#    0.000    0.000    0.000    0.000    0.000    0.000 
#
# Total GULP energy -111499.478853 kJ/mol
# GULP energy per Si atom -5574.973943 kJ/mol
# Density = 2.040629 g / cm^3
# Si number density = 20.452842 Si / 1000 Ang^3
#
#
#
# Elastic Constant Matrix: (Units=GPa)
#
#
# Indices 1 2 3 4 5 6 
#
# 1 162.8969 37.7938 39.7893 0.0000 0.0000 0.0000
# 2 37.7938 82.0882 43.9375 0.0000 0.0000 0.0000
# 3 39.7893 43.9375 95.8446 0.0000 0.0000 0.0000
# 4 0.0000 0.0000 0.0000 -20.8549 0.0000 0.0000
# 5 0.0000 0.0000 0.0000 0.0000 5.0822 0.0000
# 6 0.0000 0.0000 0.0000 0.0000 0.0000 32.6332
#
#
#
# Elastic Compliance Matrix: (Units=1/GPa)
#
#
# Indices 1 2 3 4 5 6 
#
# 1 0.007132 -0.002251 -0.001929 0.000000 0.000000 0.000000
# 2 -0.002251 0.016854 -0.006792 0.000000 0.000000 0.000000
# 3 -0.001929 -0.006792 0.014348 0.000000 0.000000 0.000000
# 4 0.000000 0.000000 0.000000 -0.047950 0.000000 0.000000
# 5 0.000000 0.000000 0.000000 0.000000 0.196766 0.000000
# 6 0.000000 0.000000 0.000000 0.000000 0.000000 0.030644
#
#
# Mechanical properties :
#
#
# Convention : Reuss Voigt Hill
#
# Bulk Modulus (GPa) = 61.01174 64.87452 62.94313
# Shear Modulus (GPa) = 20.39149 17.99270 19.19210
#
# Velocity S-wave (km/s) = 3.16096 2.96922 3.06659
# Velocity P-wave (km/s) = 6.57399 6.59871 6.58636
#
# Compressibility (1/GPa) = 0.01639029
#
# Stress axis : x y z
#
# Youngs Moduli (GPa) = 140.20651 59.33424 69.69751
#
# Poissons Ratio (x) = 0.13358 0.13444
# Poissons Ratio (y) = 0.31565 0.47335
# Poissons Ratio (z) = 0.27044 0.40297
#
# Static dielectric constant tensor:
#      x y z
#    x 1.838210 0.000000 0.000000 
#    y 0.000000 1.735330 0.000000 
#    z 0.000000 0.000000 1.722070 
# 
# From -- ./inp_files/22607.got.cif
#   From: 2010.05.17/outbox.cif.g08.bks.cpg/sg21_12_cif.got.tgz:22607.got - 2010.06.03 23:14:55.
