data_PCOD9324582
_publ_section_title
;
Structure prediction by ZEFSAII (Michael W. Deem and Ramdas Pophale) SiO2 
 PCOD9324582
Probable space group: C 2 2 2
;
_chemical_formula_sum "Si O2"
_cell_formula_units_Z 40
_cell_length_a 18.587834
_cell_length_b 10.758014
_cell_length_c 9.185500
_cell_angle_alpha 90.000000
_cell_angle_beta 90.000000
_cell_angle_gamma 90.000000
_cell_volume 1836.807703
_symmetry_space_group_name_H-M "C 2 2 2"
_symmetry_group_IT_number 21
_symmetry_cell_setting 'orthorhombic'
loop_
_space_group_symop_operation_xyz
x,y,z
-x,-y,z
x,-y,-z
-x,y,-z
1/2+x,1/2+y,z
1/2-x,1/2-y,z
1/2+x,1/2-y,-z
1/2-x,1/2+y,-z
loop_
_atom_site_type_symbol
_atom_site_label
_atom_site_fract_x
_atom_site_fract_y
_atom_site_fract_z
Si Si1 0.000000 0.500000 0.000000
Si Si2 0.067486 0.794098 0.076376
Si Si3 0.876852 0.000000 0.500000
Si Si4 0.000000 0.000000 0.286440
Si Si5 0.664244 0.500000 0.000000
Si Si6 0.000000 0.500000 0.500000
Si Si7 0.261003 0.603139 0.286394
Si Si8 0.603497 0.936806 0.747502
O O1 0.936687 0.478701 0.868636
O O2 0.109457 0.692557 0.165264
O O3 0.033365 0.893201 0.186717
O O4 0.000000 0.725805 0.000000
O O5 0.114460 0.879101 0.970027
O O6 0.934488 0.946444 0.383872
O O7 0.821934 0.084500 0.409146
O O8 0.708961 0.541883 0.861342
O O9 0.948475 0.576076 0.608418
O O10 0.250000 0.750000 0.273214
O O11 0.183811 0.535937 0.308171
#
# Coordination Sequence:
#
# PCOD9324582 Si02
#       8
#     2   8   4   4   4   2   8   8
#     4  10  22  42  64  94 128 172 236 270 314 384
#     4  12  20  38  70  99 131 167 222 276 336 383
#     4  11  23  40  63  95 132 174 218 263 333 398
#     4  11  21  38  64  97 134 169 214 281 324 399
#     4  12  22  42  64  98 134 168 214 278 333 397
#     4  10  26  46  66  92 132 176 236 266 322 384
#     4  12  24  42  65  94 137 177 215 270 338 394
#     4  11  23  42  66  95 130 180 220 277 319 395
#
# _framework density 21.776910999999998
#
# number of rings (size 3 to 8) (size 9 to 14) (size 15 to 20)
#    0.000    0.600    7.000    1.200    0.000    3.200 
#    0.000    1.000    0.000    0.000    0.000    0.000 
#    0.000    0.000    0.000    0.000    0.000    0.000 
#
# Total GULP energy -111381.951528 kJ/mol
# GULP energy per Si atom -5569.097576 kJ/mol
# Density = 2.172735 g / cm^3
# Si number density = 21.776911 Si / 1000 Ang^3
#
#
#
# Elastic Constant Matrix: (Units=GPa)
#
#
# Indices 1 2 3 4 5 6 
#
# 1 168.8203 22.8586 55.2670 0.0000 0.0000 0.0000
# 2 22.8586 71.7530 27.8822 0.0000 0.0000 0.0000
# 3 55.2670 27.8822 113.6943 0.0000 0.0000 0.0000
# 4 0.0000 0.0000 0.0000 15.1341 0.0000 0.0000
# 5 0.0000 0.0000 0.0000 0.0000 56.2918 0.0000
# 6 0.0000 0.0000 0.0000 0.0000 0.0000 24.1547
#
#
#
# Elastic Compliance Matrix: (Units=1/GPa)
#
#
# Indices 1 2 3 4 5 6 
#
# 1 0.007111 -0.001019 -0.003207 0.000000 0.000000 0.000000
# 2 -0.001019 0.015551 -0.003318 0.000000 0.000000 0.000000
# 3 -0.003207 -0.003318 0.011168 0.000000 0.000000 0.000000
# 4 0.000000 0.000000 0.000000 0.066076 0.000000 0.000000
# 5 0.000000 0.000000 0.000000 0.000000 0.017765 0.000000
# 6 0.000000 0.000000 0.000000 0.000000 0.000000 0.041400
#
#
# Mechanical properties :
#
#
# Convention : Reuss Voigt Hill
#
# Bulk Modulus (GPa) = 53.35733 62.92035 58.13884
# Shear Modulus (GPa) = 27.71520 35.66677 31.69099
#
# Velocity S-wave (km/s) = 3.57134 4.05140 3.81892
# Velocity P-wave (km/s) = 6.44678 7.13028 6.79713
#
# Compressibility (1/GPa) = 0.01874157
#
# Stress axis : x y z
#
# Youngs Moduli (GPa) = 140.62104 64.30532 89.54068
#
# Poissons Ratio (x) = 0.06555 0.28714
# Poissons Ratio (y) = 0.14334 0.29711
# Poissons Ratio (z) = 0.45095 0.21337
#
# Static dielectric constant tensor:
#      x y z
#    x 1.872190 0.000000 0.000000 
#    y 0.000000 1.707740 0.000000 
#    z 0.000000 0.000000 1.800200 
# 
# From -- ./inp_files/17501.got.cif
#   From: 2010.05.17/outbox.cif.g08.bks.cpg/sg21_9_cif.got.tgz:17501.got - 2010.06.03 23:14:55.
