data_PCOD9324902
_publ_section_title
;
Structure prediction by ZEFSAII (Michael W. Deem and Ramdas Pophale) SiO2 
 PCOD9324902
Probable space group: C 2 2 2
;
_chemical_formula_sum "Si O2"
_cell_formula_units_Z 48
_cell_length_a 12.068669
_cell_length_b 19.945864
_cell_length_c 8.841785
_cell_angle_alpha 90.000000
_cell_angle_beta 90.000000
_cell_angle_gamma 90.000000
_cell_volume 2128.394755
_symmetry_space_group_name_H-M "C 2 2 2"
_symmetry_group_IT_number 21
_symmetry_cell_setting 'orthorhombic'
loop_
_space_group_symop_operation_xyz
x,y,z
-x,-y,z
x,-y,-z
-x,y,-z
1/2+x,1/2+y,z
1/2-x,1/2-y,z
1/2+x,1/2-y,-z
1/2-x,1/2+y,-z
loop_
_atom_site_type_symbol
_atom_site_label
_atom_site_fract_x
_atom_site_fract_y
_atom_site_fract_z
Si Si1 0.000000 0.000000 0.000000
Si Si2 0.883014 0.377016 0.003970
Si Si3 0.377952 0.255356 0.203149
Si Si4 0.372615 0.580119 0.508654
Si Si5 0.336694 0.600865 0.849263
Si Si6 0.500000 0.000000 0.500000
Si Si7 0.000000 0.278884 0.500000
Si Si8 0.345349 0.114339 0.646503
O O1 0.075105 0.953888 0.895413
O O2 0.858591 0.366193 0.179321
O O3 0.897434 0.309046 0.903826
O O4 0.779229 0.413301 0.929201
O O5 0.000000 0.414068 0.000000
O O6 0.250000 0.250000 0.256401
O O7 0.379836 0.324746 0.110889
O O8 0.459182 0.257087 0.346975
O O9 0.374639 0.500000 0.500000
O O10 0.500000 0.603295 0.500000
O O11 0.322931 0.600349 0.669886
O O12 0.284442 0.604777 0.386486
O O13 0.581528 0.951593 0.598939
O O14 0.102000 0.326759 0.546397
#
# Coordination Sequence:
#
# PCOD9324902 Si02
#       8
#     2   8   8   8   8   2   4   8
#     4  12  28  48  72 100 144 220 238 300 388 444
#     4  11  24  46  75 109 143 189 242 306 372 435
#     4  10  23  48  71 107 144 186 239 315 364 434
#     4  11  25  46  72 101 143 192 246 300 358 439
#     4  11  28  47  70 101 151 186 251 304 363 453
#     4  10  24  40  68 112 148 192 240 304 364 436
#     4  11  22  43  80 103 142 185 242 308 372 433
#     4  11  23  42  73 105 147 188 241 297 374 436
#
# _framework density 22.552206999999999
#
# number of rings (size 3 to 8) (size 9 to 14) (size 15 to 20)
#    0.000    1.167    2.500    3.000    9.333    0.000 
#    0.000    7.500    0.000    0.000    0.000    0.000 
#    0.000    0.000    0.000    0.000    0.000    0.000 
#
# Total GULP energy -134249.997781 kJ/mol
# GULP energy per Si atom -5593.749908 kJ/mol
# Density = 2.250088 g / cm^3
# Si number density = 22.552207 Si / 1000 Ang^3
#
#
#
# Elastic Constant Matrix: (Units=GPa)
#
#
# Indices 1 2 3 4 5 6 
#
# 1 179.3181 44.5980 46.5715 0.0000 0.0000 0.0000
# 2 44.5980 79.9313 12.3460 0.0000 0.0000 0.0000
# 3 46.5715 12.3460 112.1106 0.0000 0.0000 0.0000
# 4 0.0000 0.0000 0.0000 15.7301 0.0000 0.0000
# 5 0.0000 0.0000 0.0000 0.0000 27.2922 0.0000
# 6 0.0000 0.0000 0.0000 0.0000 0.0000 23.2220
#
#
#
# Elastic Compliance Matrix: (Units=1/GPa)
#
#
# Indices 1 2 3 4 5 6 
#
# 1 0.007135 -0.003584 -0.002569 0.000000 0.000000 0.000000
# 2 -0.003584 0.014528 -0.000111 0.000000 0.000000 0.000000
# 3 -0.002569 -0.000111 0.009999 0.000000 0.000000 0.000000
# 4 0.000000 0.000000 0.000000 0.063572 0.000000 0.000000
# 5 0.000000 0.000000 0.000000 0.000000 0.036641 0.000000
# 6 0.000000 0.000000 0.000000 0.000000 0.000000 0.043063
#
#
# Mechanical properties :
#
#
# Convention : Reuss Voigt Hill
#
# Bulk Modulus (GPa) = 52.26503 64.26568 58.26536
# Shear Modulus (GPa) = 25.79379 31.10516 28.44948
#
# Velocity S-wave (km/s) = 3.38559 3.71786 3.55561
# Velocity P-wave (km/s) = 6.20551 6.85479 6.53822
#
# Compressibility (1/GPa) = 0.01913325
#
# Stress axis : x y z
#
# Youngs Moduli (GPa) = 140.14508 68.83355 100.00689
#
# Poissons Ratio (x) = 0.24673 0.25696
# Poissons Ratio (y) = 0.50234 0.01109
# Poissons Ratio (z) = 0.36009 0.00763
#
# Static dielectric constant tensor:
#      x y z
#    x 1.837410 0.000000 0.000000 
#    y 0.000000 1.895710 0.000000 
#    z 0.000000 0.000000 0.793400 
# 
# From -- ./inp_files/13388.got.cif
#   From: 2010.05.17/outbox.cif.g08.bks.cpg/sg21_7_cif.got.tgz:13388.got - 2010.06.03 23:14:55.
