data_PCOD9324523
_publ_section_title
;
Structure prediction by ZEFSAII (Michael W. Deem and Ramdas Pophale) SiO2 
 PCOD9324523
Probable space group: C 2 2 2
;
_chemical_formula_sum "Si O2"
_cell_formula_units_Z 36
_cell_length_a 14.905328
_cell_length_b 5.055338
_cell_length_c 22.069306
_cell_angle_alpha 90.000000
_cell_angle_beta 90.000000
_cell_angle_gamma 90.000000
_cell_volume 1662.954672
_symmetry_space_group_name_H-M "C 2 2 2"
_symmetry_group_IT_number 21
_symmetry_cell_setting 'orthorhombic'
loop_
_space_group_symop_operation_xyz
x,y,z
-x,-y,z
x,-y,-z
-x,y,-z
1/2+x,1/2+y,z
1/2-x,1/2-y,z
1/2+x,1/2-y,-z
1/2-x,1/2+y,-z
loop_
_atom_site_type_symbol
_atom_site_label
_atom_site_fract_x
_atom_site_fract_y
_atom_site_fract_z
Si Si1 0.936754 0.747855 0.829413
Si Si2 0.250000 0.750000 0.541181
Si Si3 0.858080 0.246775 0.038099
Si Si4 0.645216 0.799646 0.702070
Si Si5 0.084365 0.174517 0.369579
O O1 0.886147 0.783337 0.892524
O O2 0.873207 0.667893 0.772983
O O3 0.000000 0.500000 0.838574
O O4 0.000000 0.000000 0.816082
O O5 0.225264 0.500000 0.500000
O O6 0.164843 0.828032 0.582088
O O7 0.750000 0.250000 0.037446
O O8 0.889029 0.500000 0.000000
O O9 0.890963 0.000000 0.000000
O O10 0.750000 0.750000 0.688204
O O11 0.603569 0.518126 0.685953
O O12 0.597253 0.028504 0.660655
O O13 0.000000 0.000000 0.397354
#
# Coordination Sequence:
#
# PCOD9324523 Si02
#       5
#     8   4   8   8   8
#     4  12  25  39  61  96 132 170 224 285 349 420
#     4  12  26  48  76 108 152 192 242 296 352 428
#     4  10  22  41  62  85 121 171 223 276 342 418
#     4  12  23  44  70 100 139 182 233 290 360 421
#     4  12  25  46  74 106 143 189 237 292 357 424
#
# _framework density 21.648215
#
# number of rings (size 3 to 8) (size 9 to 14) (size 15 to 20)
#    0.000    0.444    2.222    7.333    0.000    3.111 
#    0.000    7.778    0.000    0.000    0.000    0.000 
#    0.000    0.000    0.000    0.000    0.000    0.000 
#
# Total GULP energy -100377.723879 kJ/mol
# GULP energy per Si atom -5576.540216 kJ/mol
# Density = 2.159894 g / cm^3
# Si number density = 21.648215 Si / 1000 Ang^3
#
#
#
# Elastic Constant Matrix: (Units=GPa)
#
#
# Indices 1 2 3 4 5 6 
#
# 1 137.1982 31.2217 41.2542 0.0000 0.0000 0.0000
# 2 31.2217 140.0440 26.0661 0.0000 0.0000 0.0000
# 3 41.2542 26.0661 128.2487 0.0000 0.0000 0.0000
# 4 0.0000 0.0000 0.0000 27.9118 0.0000 0.0000
# 5 0.0000 0.0000 0.0000 0.0000 21.5331 0.0000
# 6 0.0000 0.0000 0.0000 0.0000 0.0000 107.3416
#
#
#
# Elastic Compliance Matrix: (Units=1/GPa)
#
#
# Indices 1 2 3 4 5 6 
#
# 1 0.008329 -0.001412 -0.002392 0.000000 0.000000 0.000000
# 2 -0.001412 0.007661 -0.001103 0.000000 0.000000 0.000000
# 3 -0.002392 -0.001103 0.008791 0.000000 0.000000 0.000000
# 4 0.000000 0.000000 0.000000 0.035827 0.000000 0.000000
# 5 0.000000 0.000000 0.000000 0.000000 0.046440 0.000000
# 6 0.000000 0.000000 0.000000 0.000000 0.000000 0.009316
#
#
# Mechanical properties :
#
#
# Convention : Reuss Voigt Hill
#
# Bulk Modulus (GPa) = 66.81324 66.95276 66.88300
# Shear Modulus (GPa) = 38.11920 51.82055 44.96988
#
# Velocity S-wave (km/s) = 4.20080 4.89791 4.56269
# Velocity P-wave (km/s) = 7.37964 7.93604 7.66289
#
# Compressibility (1/GPa) = 0.01496709
#
# Stress axis : x y z
#
# Youngs Moduli (GPa) = 120.05738 130.53783 113.75158
#
# Poissons Ratio (x) = 0.18428 0.27214
# Poissons Ratio (y) = 0.16948 0.12546
# Poissons Ratio (z) = 0.28723 0.14397
#
# Static dielectric constant tensor:
#      x y z
#    x 1.910480 0.000000 0.000000 
#    y 0.000000 1.757550 0.000000 
#    z 0.000000 0.000000 1.733850 
# 
# From -- ./inp_files/37455.got.cif
#   From: 2010.05.17/outbox.cif.g08.bks.cpg/sg21_19_cif.got.tgz:37455.got - 2010.06.03 23:14:55.
