data_PCOD9324857
_publ_section_title
;
Structure prediction by ZEFSAII (Michael W. Deem and Ramdas Pophale) SiO2 
 PCOD9324857
Probable space group: C 2 2 2
;
_chemical_formula_sum "Si O2"
_cell_formula_units_Z 48
_cell_length_a 6.770208
_cell_length_b 14.253333
_cell_length_c 17.725113
_cell_angle_alpha 90.000000
_cell_angle_beta 90.000000
_cell_angle_gamma 90.000000
_cell_volume 1710.438470
_symmetry_space_group_name_H-M "C 2 2 2"
_symmetry_group_IT_number 21
_symmetry_cell_setting 'orthorhombic'
loop_
_space_group_symop_operation_xyz
x,y,z
-x,-y,z
x,-y,-z
-x,y,-z
1/2+x,1/2+y,z
1/2-x,1/2-y,z
1/2+x,1/2-y,-z
1/2-x,1/2+y,-z
loop_
_atom_site_type_symbol
_atom_site_label
_atom_site_fract_x
_atom_site_fract_y
_atom_site_fract_z
Si Si1 0.750000 0.250000 0.248573
Si Si2 0.689641 0.618729 0.885649
Si Si3 0.126517 0.572297 0.694943
Si Si4 0.750000 0.750000 0.389896
Si Si5 0.130046 0.927140 0.343726
Si Si6 0.000000 0.122750 0.500000
Si Si7 0.726495 0.089117 0.868384
Si Si8 0.250000 0.250000 0.024380
O O1 0.798452 0.328250 0.182600
O O2 0.864578 0.176937 0.304164
O O3 0.462072 0.607951 0.860367
O O4 0.781254 0.516529 0.900635
O O5 0.672805 0.675912 0.962578
O O6 0.127697 0.675697 0.658712
O O7 0.378083 0.549224 0.673390
O O8 0.147952 0.582766 0.784482
O O9 0.875279 0.547952 0.678569
O O10 0.627444 0.686731 0.446458
O O11 0.135950 0.926524 0.436260
O O12 0.645982 0.175202 0.918969
#
# Coordination Sequence:
#
# PCOD9324857 Si02
#       8
#     4   8   8   4   8   4   8   4
#     4  11  23  40  79 109 142 190 280 313 387 492
#     4  10  23  43  77 108 140 210 265 320 404 485
#     4  12  29  48  77 117 154 207 263 333 390 479
#     4  12  30  50  76 116 160 202 266 322 410 482
#     4  12  25  49  77 107 150 206 261 323 398 483
#     4  12  29  50  77 110 154 206 253 334 407 476
#     4  11  23  48  72 106 156 201 259 333 401 477
#     4  11  23  40  69 113 150 196 258 331 393 478
#
# _framework density 28.062978999999999
#
# number of rings (size 3 to 8) (size 9 to 14) (size 15 to 20)
#    0.000    0.667    3.333    3.250    4.667    2.667 
#    3.000    0.000    0.000    0.000    0.000    0.000 
#    0.000    0.000    0.000    0.000    0.000    0.000 
#
# Total GULP energy -133951.873495 kJ/mol
# GULP energy per Si atom -5581.328062 kJ/mol
# Density = 2.799911 g / cm^3
# Si number density = 28.062979 Si / 1000 Ang^3
#
#
#
# Elastic Constant Matrix: (Units=GPa)
#
#
# Indices 1 2 3 4 5 6 
#
# 1 184.1647 108.9019 72.8989 0.0000 0.0000 0.0000
# 2 108.9019 299.1076 148.6275 0.0000 0.0000 0.0000
# 3 72.8989 148.6275 279.9968 0.0000 0.0000 0.0000
# 4 0.0000 0.0000 0.0000 76.1907 0.0000 0.0000
# 5 0.0000 0.0000 0.0000 0.0000 28.1376 0.0000
# 6 0.0000 0.0000 0.0000 0.0000 0.0000 71.4495
#
#
#
# Elastic Compliance Matrix: (Units=1/GPa)
#
#
# Indices 1 2 3 4 5 6 
#
# 1 0.007003 -0.002233 -0.000638 0.000000 0.000000 0.000000
# 2 -0.002233 0.005253 -0.002207 0.000000 0.000000 0.000000
# 3 -0.000638 -0.002207 0.004909 0.000000 0.000000 0.000000
# 4 0.000000 0.000000 0.000000 0.013125 0.000000 0.000000
# 5 0.000000 0.000000 0.000000 0.000000 0.035540 0.000000
# 6 0.000000 0.000000 0.000000 0.000000 0.000000 0.013996
#
#
# Mechanical properties :
#
#
# Convention : Reuss Voigt Hill
#
# Bulk Modulus (GPa) = 142.66842 158.23619 150.45231
# Shear Modulus (GPa) = 54.16132 64.01163 59.08647
#
# Velocity S-wave (km/s) = 4.39793 4.78116 4.59355
# Velocity P-wave (km/s) = 8.76003 9.32673 9.04782
#
# Compressibility (1/GPa) = 0.00700926
#
# Stress axis : x y z
#
# Youngs Moduli (GPa) = 142.80284 190.37489 203.70145
#
# Poissons Ratio (x) = 0.42501 0.12999
# Poissons Ratio (y) = 0.31881 0.44958
# Poissons Ratio (z) = 0.09113 0.42016
#
# Static dielectric constant tensor:
#      x y z
#    x 2.668700 0.000000 0.000000 
#    y 0.000000 2.173980 0.000000 
#    z 0.000000 0.000000 2.047660 
# 
# From -- ./inp_files/35748.got.cif
#   From: 2010.05.17/outbox.cif.g08.bks.cpg/sg21_18_cif.got.tgz:35748.got - 2010.06.03 23:14:55.
