data_PCOD9324743
_publ_section_title
;
Structure prediction by ZEFSAII (Michael W. Deem and Ramdas Pophale) SiO2 
 PCOD9324743
Probable space group: C 2 2 2
;
_chemical_formula_sum "Si O2"
_cell_formula_units_Z 24
_cell_length_a 13.128835
_cell_length_b 5.709251
_cell_length_c 13.820496
_cell_angle_alpha 90.000000
_cell_angle_beta 90.000000
_cell_angle_gamma 90.000000
_cell_volume 1035.926532
_symmetry_space_group_name_H-M "C 2 2 2"
_symmetry_group_IT_number 21
_symmetry_cell_setting 'orthorhombic'
loop_
_space_group_symop_operation_xyz
x,y,z
-x,-y,z
x,-y,-z
-x,y,-z
1/2+x,1/2+y,z
1/2-x,1/2-y,z
1/2+x,1/2-y,-z
1/2-x,1/2+y,-z
loop_
_atom_site_type_symbol
_atom_site_label
_atom_site_fract_x
_atom_site_fract_y
_atom_site_fract_z
Si Si1 0.500000 0.500000 0.000000
Si Si2 0.899969 0.361512 0.863117
Si Si3 0.643512 0.374153 0.668482
Si Si4 0.250000 0.250000 0.794381
Si Si5 0.000000 0.000000 0.500000
O O1 0.418814 0.643177 0.933717
O O2 0.907517 0.269809 0.754288
O O3 0.804706 0.544033 0.857485
O O4 0.000000 0.500000 0.888007
O O5 0.750000 0.250000 0.645876
O O6 0.670600 0.621312 0.721369
O O7 0.574674 0.371648 0.574408
#
# Coordination Sequence:
#
# PCOD9324743 Si02
#       5
#     2   8   8   4   2
#     4  12  24  40  80 112 144 192 254 308 382 442
#     4  11  23  45  75 102 146 200 240 308 373 443
#     4  10  24  43  69 103 149 191 245 304 366 436
#     4  10  22  46  74  98 148 202 244 298 372 446
#     4  12  22  40  70 112 140 190 246 304 366 432
#
# _framework density 23.167666000000001
#
# number of rings (size 3 to 8) (size 9 to 14) (size 15 to 20)
#    0.000    1.333    0.000    5.500    2.333    0.000 
#    0.000    6.667  165.000    0.000    0.000    0.000 
#    0.000    0.000    0.000    0.000    0.000    0.000 
#
# Total GULP energy -66957.707116 kJ/mol
# GULP energy per Si atom -5579.808926 kJ/mol
# Density = 2.311494 g / cm^3
# Si number density = 23.167666 Si / 1000 Ang^3
#
#
#
# Elastic Constant Matrix: (Units=GPa)
#
#
# Indices 1 2 3 4 5 6 
#
# 1 111.1082 43.8661 94.9179 0.0000 0.0000 0.0000
# 2 43.8661 107.9709 76.3618 0.0000 0.0000 0.0000
# 3 94.9179 76.3618 184.5785 0.0000 0.0000 0.0000
# 4 0.0000 0.0000 0.0000 -23.9456 0.0000 0.0000
# 5 0.0000 0.0000 0.0000 0.0000 -27.4292 0.0000
# 6 0.0000 0.0000 0.0000 0.0000 0.0000 16.5831
#
#
#
# Elastic Compliance Matrix: (Units=1/GPa)
#
#
# Indices 1 2 3 4 5 6 
#
# 1 0.016124 -0.000971 -0.007890 0.000000 0.000000 0.000000
# 2 -0.000971 0.013151 -0.004942 0.000000 0.000000 0.000000
# 3 -0.007890 -0.004942 0.011519 0.000000 0.000000 0.000000
# 4 0.000000 0.000000 0.000000 -0.041761 0.000000 0.000000
# 5 0.000000 0.000000 0.000000 0.000000 -0.036457 0.000000
# 6 0.000000 0.000000 0.000000 0.000000 0.000000 0.060302
#
#
# Mechanical properties :
#
#
# Convention : Reuss Voigt Hill
#
# Bulk Modulus (GPa) = 75.81528 92.66102 84.23815
# Shear Modulus (GPa) = 91.11062 5.60911 48.35987
#
# Velocity S-wave (km/s) = 6.27790 1.55768 4.57375
# Velocity P-wave (km/s) = 9.23824 6.58163 8.02069
#
# Compressibility (1/GPa) = 0.01318995
#
# Stress axis : x y z
#
# Youngs Moduli (GPa) = 62.02073 76.03997 86.80983
#
# Poissons Ratio (x) = 0.07380 0.68492
# Poissons Ratio (y) = 0.06020 0.42898
# Poissons Ratio (z) = 0.48934 0.37576
#
# Static dielectric constant tensor:
#      x y z
#    x 1.935910 0.000000 0.000000 
#    y 0.000000 4.340210 0.000000 
#    z 0.000000 0.000000 1.804010 
# 
# From -- ./inp_files/28416.got.cif
#   From: 2010.05.17/outbox.cif.g08.bks.cpg/sg21_15_cif.got.tgz:28416.got - 2010.06.03 23:14:55.
