data_PCOD9324685
_publ_section_title
;
Structure prediction by ZEFSAII (Michael W. Deem and Ramdas Pophale) SiO2 
 PCOD9324685
Probable space group: C 2 2 2
;
_chemical_formula_sum "Si O2"
_cell_formula_units_Z 32
_cell_length_a 11.249297
_cell_length_b 10.678538
_cell_length_c 10.769354
_cell_angle_alpha 90.000000
_cell_angle_beta 90.000000
_cell_angle_gamma 90.000000
_cell_volume 1293.679908
_symmetry_space_group_name_H-M "C 2 2 2"
_symmetry_group_IT_number 21
_symmetry_cell_setting 'orthorhombic'
loop_
_space_group_symop_operation_xyz
x,y,z
-x,-y,z
x,-y,-z
-x,y,-z
1/2+x,1/2+y,z
1/2-x,1/2-y,z
1/2+x,1/2-y,-z
1/2-x,1/2+y,-z
loop_
_atom_site_type_symbol
_atom_site_label
_atom_site_fract_x
_atom_site_fract_y
_atom_site_fract_z
Si Si1 0.381352 0.808363 0.728930
Si Si2 0.172463 0.627913 0.463745
Si Si3 0.677870 0.070497 0.180026
Si Si4 0.070885 0.176897 0.878945
O O1 0.250000 0.750000 0.728451
O O2 0.407489 0.853841 0.587493
O O3 0.473407 0.703848 0.773220
O O4 0.370525 0.928979 0.821105
O O5 0.240754 0.500000 0.500000
O O6 0.250000 0.750000 0.461673
O O7 0.141922 0.609952 0.320067
O O8 0.819812 0.087432 0.159976
O O9 0.624166 0.182578 0.098051
O O10 0.000000 0.136496 0.000000
#
# Coordination Sequence:
#
# PCOD9324685 Si02
#       4
#     8   8   8   8
#     4  10  23  40  66 102 134 172 231 277 348 426
#     4   9  17  37  65  96 132 174 214 285 356 413
#     4  10  22  44  68  94 139 174 228 293 348 410
#     4  11  24  42  67  96 133 185 231 278 344 407
#
# _framework density 24.735641000000001
#
# number of rings (size 3 to 8) (size 9 to 14) (size 15 to 20)
#    0.000    2.000    2.500    0.750    3.500    4.000 
#    0.000    5.000    0.000    4.500    0.000    0.000 
#    0.000    0.000    0.000    0.000    0.000    0.000 
#
# Total GULP energy -89274.386014 kJ/mol
# GULP energy per Si atom -5579.649126 kJ/mol
# Density = 2.467934 g / cm^3
# Si number density = 24.735641 Si / 1000 Ang^3
#
#
#
# Elastic Constant Matrix: (Units=GPa)
#
#
# Indices 1 2 3 4 5 6 
#
# 1 132.3148 10.4844 38.1954 0.0000 0.0000 0.0000
# 2 10.4844 106.0307 25.6372 0.0000 0.0000 0.0000
# 3 38.1954 25.6372 114.7081 0.0000 0.0000 0.0000
# 4 0.0000 0.0000 0.0000 17.4933 0.0000 0.0000
# 5 0.0000 0.0000 0.0000 0.0000 46.3968 0.0000
# 6 0.0000 0.0000 0.0000 0.0000 0.0000 26.4375
#
#
#
# Elastic Compliance Matrix: (Units=1/GPa)
#
#
# Indices 1 2 3 4 5 6 
#
# 1 0.008364 -0.000162 -0.002749 0.000000 0.000000 0.000000
# 2 -0.000162 0.009973 -0.002175 0.000000 0.000000 0.000000
# 3 -0.002749 -0.002175 0.010119 0.000000 0.000000 0.000000
# 4 0.000000 0.000000 0.000000 0.057165 0.000000 0.000000
# 5 0.000000 0.000000 0.000000 0.000000 0.021553 0.000000
# 6 0.000000 0.000000 0.000000 0.000000 0.000000 0.037825
#
#
# Mechanical properties :
#
#
# Convention : Reuss Voigt Hill
#
# Bulk Modulus (GPa) = 54.69203 55.74308 55.21756
# Shear Modulus (GPa) = 31.00457 36.64793 33.82625
#
# Velocity S-wave (km/s) = 3.54423 3.85331 3.70200
# Velocity P-wave (km/s) = 6.23758 6.51013 6.37531
#
# Compressibility (1/GPa) = 0.01828420
#
# Stress axis : x y z
#
# Youngs Moduli (GPa) = 119.55866 100.26909 98.82245
#
# Poissons Ratio (x) = 0.01629 0.27164
# Poissons Ratio (y) = 0.01942 0.21493
# Poissons Ratio (z) = 0.32864 0.21808
#
# Static dielectric constant tensor:
#      x y z
#    x 2.026920 0.000000 0.000000 
#    y 0.000000 1.980250 0.000000 
#    z 0.000000 0.000000 1.996420 
# 
# From -- ./inp_files/23424.got.cif
#   From: 2010.05.17/outbox.cif.g08.bks.cpg/sg21_12_cif.got.tgz:23424.got - 2010.06.03 23:14:55.
