data_PCOD9324517
_publ_section_title
;
Structure prediction by ZEFSAII (Michael W. Deem and Ramdas Pophale) SiO2 
 PCOD9324517
Probable space group: C 2 2 2
;
_chemical_formula_sum "Si O2"
_cell_formula_units_Z 32
_cell_length_a 31.215305
_cell_length_b 9.122642
_cell_length_c 5.237813
_cell_angle_alpha 90.000000
_cell_angle_beta 90.000000
_cell_angle_gamma 90.000000
_cell_volume 1491.551331
_symmetry_space_group_name_H-M "C 2 2 2"
_symmetry_group_IT_number 21
_symmetry_cell_setting 'orthorhombic'
loop_
_space_group_symop_operation_xyz
x,y,z
-x,-y,z
x,-y,-z
-x,y,-z
1/2+x,1/2+y,z
1/2-x,1/2-y,z
1/2+x,1/2-y,-z
1/2-x,1/2+y,-z
loop_
_atom_site_type_symbol
_atom_site_label
_atom_site_fract_x
_atom_site_fract_y
_atom_site_fract_z
Si Si1 0.959681 0.749555 0.684757
Si Si2 0.500000 0.000000 0.000000
Si Si3 0.500000 0.500000 0.000000
Si Si4 0.755531 0.500000 0.000000
Si Si5 0.634157 0.327805 0.433618
Si Si6 0.313621 0.725674 0.919979
O O1 0.968251 0.604492 0.845089
O O2 0.913173 0.759581 0.565930
O O3 0.000000 0.750814 0.500000
O O4 0.968191 0.894700 0.848019
O O5 0.720245 0.403755 0.843527
O O6 0.788107 0.364454 0.041103
O O7 0.631435 0.500000 0.500000
O O8 0.661551 0.247876 0.655806
O O9 0.654858 0.318246 0.151076
#
# Coordination Sequence:
#
# PCOD9324517 Si02
#       6
#     8   2   2   4   8   8
#     4  11  25  45  71  99 145 191 238 295 365 432
#     4  10  26  48  68 100 136 208 234 298 364 438
#     4  10  22  40  72 104 124 204 238 290 360 438
#     4  10  24  50  72 102 144 190 238 286 384 428
#     4  12  25  44  72 110 142 181 246 295 355 418
#     4  11  26  45  74 105 143 187 235 303 352 441
#
# _framework density 21.454173000000001
#
# number of rings (size 3 to 8) (size 9 to 14) (size 15 to 20)
#    0.000    1.000    2.500    2.250   10.500    8.000 
#    4.500    0.000    0.000    0.000    0.000    0.000 
#    0.000    0.000    0.000    0.000    0.000    0.000 
#
# Total GULP energy -89126.820552 kJ/mol
# GULP energy per Si atom -5570.426284 kJ/mol
# Density = 2.140534 g / cm^3
# Si number density = 21.454173 Si / 1000 Ang^3
#
#
#
# Elastic Constant Matrix: (Units=GPa)
#
#
# Indices 1 2 3 4 5 6 
#
# 1 151.4315 34.5128 43.8942 0.0000 0.0000 0.0000
# 2 34.5128 109.1575 19.4457 0.0000 0.0000 0.0000
# 3 43.8942 19.4457 96.5935 0.0000 0.0000 0.0000
# 4 0.0000 0.0000 0.0000 52.7258 0.0000 0.0000
# 5 0.0000 0.0000 0.0000 0.0000 -17.1267 0.0000
# 6 0.0000 0.0000 0.0000 0.0000 0.0000 -31.6154
#
#
#
# Elastic Compliance Matrix: (Units=1/GPa)
#
#
# Indices 1 2 3 4 5 6 
#
# 1 0.007986 -0.001948 -0.003237 0.000000 0.000000 0.000000
# 2 -0.001948 0.009977 -0.001123 0.000000 0.000000 0.000000
# 3 -0.003237 -0.001123 0.012050 0.000000 0.000000 0.000000
# 4 0.000000 0.000000 0.000000 0.018966 0.000000 0.000000
# 5 0.000000 0.000000 0.000000 0.000000 -0.058388 0.000000
# 6 0.000000 0.000000 0.000000 0.000000 0.000000 -0.031630
#
#
# Mechanical properties :
#
#
# Convention : Reuss Voigt Hill
#
# Bulk Modulus (GPa) = 57.48391 61.43201 59.45796
# Shear Modulus (GPa) = -220.99992 18.08539 -101.45727
#
# Velocity S-wave (km/s) = -10.16041 2.90656 -6.88425
# Velocity P-wave (km/s) = 10.52583 6.32142 5.95117
#
# Compressibility (1/GPa) = 0.01739617
#
# Stress axis : x y z
#
# Youngs Moduli (GPa) = 125.22073 100.22875 82.99016
#
# Poissons Ratio (x) = 0.19528 0.26862
# Poissons Ratio (y) = 0.24397 0.09321
# Poissons Ratio (z) = 0.40531 0.11258
#
# Static dielectric constant tensor:
#      x y z
#    x 1.601370 0.000000 0.000000 
#    y 0.000000 1.769270 0.000000 
#    z 0.000000 0.000000 1.687760 
# 
# From -- ./inp_files/7731.got.cif
#   From: 2010.05.17/outbox.cif.g08.bks.cpg/sg21_4_cif.got.tgz:7731.got - 2010.06.03 23:14:55.
