data_PCOD9324809
_publ_section_title
;
Structure prediction by ZEFSAII (Michael W. Deem and Ramdas Pophale) SiO2 
 PCOD9324809
Probable space group: C 2 2 2
;
_chemical_formula_sum "Si O2"
_cell_formula_units_Z 48
_cell_length_a 21.182082
_cell_length_b 9.096027
_cell_length_c 11.265351
_cell_angle_alpha 90.000000
_cell_angle_beta 90.000000
_cell_angle_gamma 90.000000
_cell_volume 2170.526605
_symmetry_space_group_name_H-M "C 2 2 2"
_symmetry_group_IT_number 21
_symmetry_cell_setting 'orthorhombic'
loop_
_space_group_symop_operation_xyz
x,y,z
-x,-y,z
x,-y,-z
-x,y,-z
1/2+x,1/2+y,z
1/2-x,1/2-y,z
1/2+x,1/2-y,-z
1/2-x,1/2+y,-z
loop_
_atom_site_type_symbol
_atom_site_label
_atom_site_fract_x
_atom_site_fract_y
_atom_site_fract_z
Si Si1 0.513354 0.326475 0.136825
Si Si2 0.790141 0.114809 0.793010
Si Si3 0.348902 0.690996 0.252300
Si Si4 0.328352 0.966916 0.123082
Si Si5 0.604092 0.800089 0.257473
Si Si6 0.820230 0.321958 0.501735
O O1 0.500000 0.500000 0.139669
O O2 0.583964 0.318211 0.187038
O O3 0.466962 0.239524 0.226837
O O4 0.500000 0.277095 0.000000
O O5 0.750000 0.250000 0.734412
O O6 0.854553 0.193305 0.829616
O O7 0.813864 0.965730 0.731024
O O8 0.737129 0.057111 0.881484
O O9 0.314283 0.803646 0.163585
O O10 0.351558 0.764534 0.380852
O O11 0.373824 0.038000 0.221794
O O12 0.361552 0.000000 0.000000
O O13 0.633680 0.775271 0.388468
O O14 0.813970 0.500000 0.500000
O O15 0.750000 0.250000 0.500105
#
# Coordination Sequence:
#
# PCOD9324809 Si02
#       6
#     8   8   8   8   8   8
#     4  11  25  47  74 103 145 202 250 305 368 442
#     4  10  23  41  67 102 146 184 236 313 372 439
#     4  12  25  45  72 108 142 192 257 301 369 465
#     4  11  23  40  67 104 143 186 236 309 378 440
#     4  11  24  46  67 104 146 185 249 300 366 439
#     4  12  27  46  76 107 149 196 238 314 386 446
#
# _framework density 22.114447999999999
#
# number of rings (size 3 to 8) (size 9 to 14) (size 15 to 20)
#    0.000    0.833    3.333    4.000    4.667    6.667 
#    0.000    3.333    0.000    0.000    0.000    0.000 
#    0.000    0.000    0.000    0.000    0.000    0.000 
#
# Total GULP energy -133737.869325 kJ/mol
# GULP energy per Si atom -5572.411222 kJ/mol
# Density = 2.206411 g / cm^3
# Si number density = 22.114448 Si / 1000 Ang^3
#
#
#
# Elastic Constant Matrix: (Units=GPa)
#
#
# Indices 1 2 3 4 5 6 
#
# 1 84.6047 41.5366 50.0479 0.0000 0.0000 0.0000
# 2 41.5366 143.9975 41.1691 0.0000 0.0000 0.0000
# 3 50.0479 41.1691 147.8674 0.0000 0.0000 0.0000
# 4 0.0000 0.0000 0.0000 14.4329 0.0000 0.0000
# 5 0.0000 0.0000 0.0000 0.0000 20.2387 0.0000
# 6 0.0000 0.0000 0.0000 0.0000 0.0000 30.1718
#
#
#
# Elastic Compliance Matrix: (Units=1/GPa)
#
#
# Indices 1 2 3 4 5 6 
#
# 1 0.016151 -0.003364 -0.004530 0.000000 0.000000 0.000000
# 2 -0.003364 0.008246 -0.001157 0.000000 0.000000 0.000000
# 3 -0.004530 -0.001157 0.008618 0.000000 0.000000 0.000000
# 4 0.000000 0.000000 0.000000 0.069286 0.000000 0.000000
# 5 0.000000 0.000000 0.000000 0.000000 0.049410 0.000000
# 6 0.000000 0.000000 0.000000 0.000000 0.000000 0.033144
#
#
# Mechanical properties :
#
#
# Convention : Reuss Voigt Hill
#
# Bulk Modulus (GPa) = 67.05584 71.33076 69.19330
# Shear Modulus (GPa) = 24.04689 29.21643 26.63166
#
# Velocity S-wave (km/s) = 3.30113 3.63870 3.47402
# Velocity P-wave (km/s) = 6.70208 7.06957 6.88828
#
# Compressibility (1/GPa) = 0.01491294
#
# Stress axis : x y z
#
# Youngs Moduli (GPa) = 61.91667 121.27558 116.03276
#
# Poissons Ratio (x) = 0.40793 0.52562
# Poissons Ratio (y) = 0.20826 0.13428
# Poissons Ratio (z) = 0.28048 0.14035
#
# Static dielectric constant tensor:
#      x y z
#    x 1.850600 0.000000 0.000000 
#    y 0.000000 1.805270 0.000000 
#    z 0.000000 0.000000 1.823190 
# 
# From -- ./inp_files/27331.got.cif
#   From: 2010.05.17/outbox.cif.g08.bks.cpg/sg21_14_cif.got.tgz:27331.got - 2010.06.03 23:14:55.
