data_PCOD9324596
_publ_section_title
;
Structure prediction by ZEFSAII (Michael W. Deem and Ramdas Pophale) SiO2 
 PCOD9324596
Probable space group: C 2 2 2
;
_chemical_formula_sum "Si O2"
_cell_formula_units_Z 40
_cell_length_a 16.906325
_cell_length_b 9.405212
_cell_length_c 10.068578
_cell_angle_alpha 90.000000
_cell_angle_beta 90.000000
_cell_angle_gamma 90.000000
_cell_volume 1600.980129
_symmetry_space_group_name_H-M "C 2 2 2"
_symmetry_group_IT_number 21
_symmetry_cell_setting 'orthorhombic'
loop_
_space_group_symop_operation_xyz
x,y,z
-x,-y,z
x,-y,-z
-x,y,-z
1/2+x,1/2+y,z
1/2-x,1/2-y,z
1/2+x,1/2-y,-z
1/2-x,1/2+y,-z
loop_
_atom_site_type_symbol
_atom_site_label
_atom_site_fract_x
_atom_site_fract_y
_atom_site_fract_z
Si Si1 0.063074 0.293588 0.887852
Si Si2 0.072694 0.264515 0.299397
Si Si3 0.185248 0.501143 0.792759
Si Si4 0.865129 0.034087 0.218408
Si Si5 0.836363 0.278456 0.439067
O O1 0.138636 0.394012 0.888709
O O2 0.012715 0.314235 0.751480
O O3 0.092955 0.132098 0.890653
O O4 0.000000 0.324076 0.000000
O O5 0.138104 0.353555 0.218595
O O6 0.084012 0.099623 0.263540
O O7 0.095900 0.286427 0.451755
O O8 0.277329 0.513542 0.822093
O O9 0.175267 0.418047 0.651060
O O10 0.852061 0.145288 0.340796
O O11 0.750000 0.250000 0.505711
#
# Coordination Sequence:
#
# PCOD9324596 Si02
#       5
#     8   8   8   8   8
#     4  11  26  47  63  84 125 172 213 266 326 376
#     4  12  22  36  66 102 128 159 208 266 318 364
#     4  10  22  42  67  93 127 170 211 253 312 385
#     4  10  22  42  67  93 127 170 211 253 312 385
#     4   9  19  38  63  94 135 172 202 246 312 390
#
# _framework density 24.984694000000001
#
# number of rings (size 3 to 8) (size 9 to 14) (size 15 to 20)
#    0.000    1.600    0.000    6.000    0.000    9.600 
#    0.000   16.000    0.000    0.000    0.000    0.000 
#    0.000    0.000    0.000    0.000    0.000    0.000 
#
# Total GULP energy -112101.826310 kJ/mol
# GULP energy per Si atom -5605.091315 kJ/mol
# Density = 2.492783 g / cm^3
# Si number density = 24.984694 Si / 1000 Ang^3
#
#
#
# Elastic Constant Matrix: (Units=GPa)
#
#
# Indices 1 2 3 4 5 6 
#
# 1 100.9263 -16.5187 15.2758 0.0000 0.0000 0.0000
# 2 -16.5187 92.1477 -2.7844 0.0000 0.0000 0.0000
# 3 15.2758 -2.7844 53.2559 0.0000 0.0000 0.0000
# 4 0.0000 0.0000 0.0000 23.8415 0.0000 0.0000
# 5 0.0000 0.0000 0.0000 0.0000 29.4524 0.0000
# 6 0.0000 0.0000 0.0000 0.0000 0.0000 42.9318
#
#
#
# Elastic Compliance Matrix: (Units=1/GPa)
#
#
# Indices 1 2 3 4 5 6 
#
# 1 0.010654 0.001820 -0.002961 0.000000 0.000000 0.000000
# 2 0.001820 0.011180 0.000062 0.000000 0.000000 0.000000
# 3 -0.002961 0.000062 0.019630 0.000000 0.000000 0.000000
# 4 0.000000 0.000000 0.000000 0.041944 0.000000 0.000000
# 5 0.000000 0.000000 0.000000 0.000000 0.033953 0.000000
# 6 0.000000 0.000000 0.000000 0.000000 0.000000 0.023293
#
#
# Mechanical properties :
#
#
# Convention : Reuss Voigt Hill
#
# Bulk Modulus (GPa) = 25.43988 26.47505 25.95746
# Shear Modulus (GPa) = 32.06918 35.93562 34.00240
#
# Velocity S-wave (km/s) = 3.58656 3.79661 3.69308
# Velocity P-wave (km/s) = 5.23025 5.46247 5.34762
#
# Compressibility (1/GPa) = 0.03930837
#
# Stress axis : x y z
#
# Youngs Moduli (GPa) = 93.85858 89.44251 50.94296
#
# Poissons Ratio (x) = -0.16283 0.15084
# Poissons Ratio (y) = -0.17087 -0.00318
# Poissons Ratio (z) = 0.27790 -0.00558
#
# Static dielectric constant tensor:
#      x y z
#    x 1.926440 0.000000 0.000000 
#    y 0.000000 1.926000 0.000000 
#    z 0.000000 0.000000 2.068720 
# 
# From -- ./inp_files/25825.got.cif
#   From: 2010.05.17/outbox.cif.g08.bks.cpg/sg21_13_cif.got.tgz:25825.got - 2010.06.03 23:14:55.
