data_PCOD9324315
_publ_section_title
;
Structure prediction by ZEFSAII (Michael W. Deem and Ramdas Pophale) SiO2 
 PCOD9324315
Probable space group: C 2 2 2
;
_chemical_formula_sum "Si O2"
_cell_formula_units_Z 60
_cell_length_a 24.011048
_cell_length_b 22.534870
_cell_length_c 5.300211
_cell_angle_alpha 90.000000
_cell_angle_beta 90.000000
_cell_angle_gamma 90.000000
_cell_volume 2867.869149
_symmetry_space_group_name_H-M "C 2 2 2"
_symmetry_group_IT_number 21
_symmetry_cell_setting 'orthorhombic'
loop_
_space_group_symop_operation_xyz
x,y,z
-x,-y,z
x,-y,-z
-x,y,-z
1/2+x,1/2+y,z
1/2-x,1/2-y,z
1/2+x,1/2-y,-z
1/2-x,1/2+y,-z
loop_
_atom_site_type_symbol
_atom_site_label
_atom_site_fract_x
_atom_site_fract_y
_atom_site_fract_z
Si Si1 0.347740 0.892493 0.241073
Si Si2 0.241016 0.320178 0.479668
Si Si3 0.335768 0.000000 0.500000
Si Si4 0.437480 0.747928 0.458193
Si Si5 0.131019 0.063862 0.089521
Si Si6 0.739362 0.921641 0.128487
Si Si7 0.437910 0.174811 0.043249
Si Si8 0.136562 0.865103 0.408730
O O1 0.317024 0.838772 0.386917
O O2 0.388789 0.869625 0.027406
O O3 0.374386 0.946806 0.392814
O O4 0.295033 0.926309 0.123655
O O5 0.250000 0.250000 0.474297
O O6 0.238177 0.352203 0.208282
O O7 0.296707 0.351865 0.593101
O O8 0.294586 0.040596 0.330705
O O9 0.500000 0.723597 0.500000
O O10 0.434168 0.775656 0.178823
O O11 0.392715 0.696417 0.477720
O O12 0.431246 0.797021 0.679702
O O13 0.197944 0.058764 0.102544
O O14 0.119016 0.088777 0.369660
O O15 0.119131 0.110553 0.865159
O O16 0.108350 0.000000 0.000000
O O17 0.500000 0.149464 0.000000
#
# Coordination Sequence:
#
# PCOD9324315 Si02
#       8
#     8   8   4   8   8   8   8   8
#     4  11  21  37  59  84 124 159 205 256 306 366
#     4  10  22  34  51  86 127 158 190 249 316 372
#     4  10  22  36  58  83 114 170 213 250 300 370
#     4  10  22  43  66  91 120 160 205 252 306 377
#     4  11  22  37  57  84 124 160 207 250 292 364
#     4  10  22  36  55  82 117 171 207 243 301 376
#     4  10  23  40  66  93 118 162 208 254 308 365
#     4  11  22  37  58  90 118 160 203 245 309 367
#
# _framework density 20.921458000000001
#
# number of rings (size 3 to 8) (size 9 to 14) (size 15 to 20)
#    0.000    1.600    1.333    3.200    9.333    0.533 
#    0.000    0.000    0.000    4.800    0.000    0.000 
#    0.000    0.000    0.000    0.000    0.000    0.000 
#
# Total GULP energy -167292.994713 kJ/mol
# GULP energy per Si atom -5576.433157 kJ/mol
# Density = 2.087384 g / cm^3
# Si number density = 20.921458 Si / 1000 Ang^3
#
#
#
# Elastic Constant Matrix: (Units=GPa)
#
#
# Indices 1 2 3 4 5 6 
#
# 1 56.0286 1.5891 -0.7933 0.0000 0.0000 0.0000
# 2 1.5891 86.2045 10.3866 0.0000 0.0000 0.0000
# 3 -0.7933 10.3866 66.6082 0.0000 0.0000 0.0000
# 4 0.0000 0.0000 0.0000 27.5722 0.0000 0.0000
# 5 0.0000 0.0000 0.0000 0.0000 18.7965 0.0000
# 6 0.0000 0.0000 0.0000 0.0000 0.0000 -1.5188
#
#
#
# Elastic Compliance Matrix: (Units=1/GPa)
#
#
# Indices 1 2 3 4 5 6 
#
# 1 0.017862 -0.000362 0.000269 0.000000 0.000000 0.000000
# 2 -0.000362 0.011830 -0.001849 0.000000 0.000000 0.000000
# 3 0.000269 -0.001849 0.015305 0.000000 0.000000 0.000000
# 4 0.000000 0.000000 0.000000 0.036268 0.000000 0.000000
# 5 0.000000 0.000000 0.000000 0.000000 0.053202 0.000000
# 6 0.000000 0.000000 0.000000 0.000000 0.000000 -0.658403
#
#
# Mechanical properties :
#
#
# Convention : Reuss Voigt Hill
#
# Bulk Modulus (GPa) = 24.32294 25.68957 25.00626
# Shear Modulus (GPa) = -9.87461 22.14722 6.13631
#
# Velocity S-wave (km/s) = -2.17488 3.25713 1.71446
# Velocity P-wave (km/s) = 2.31177 5.14304 3.98718
#
# Compressibility (1/GPa) = 0.04111345
#
# Stress axis : x y z
#
# Youngs Moduli (GPa) = 55.98443 84.53250 65.33939
#
# Poissons Ratio (x) = 0.03058 -0.01758
# Poissons Ratio (y) = 0.02025 0.12081
# Poissons Ratio (z) = -0.01507 0.15630
#
# Static dielectric constant tensor:
#      x y z
#    x 1.743190 0.000000 0.000000 
#    y 0.000000 1.791910 0.000000 
#    z 0.000000 0.000000 1.836890 
# 
# From -- ./inp_files/6829.got.cif
#   From: 2010.05.17/outbox.cif.g08.bks.cpg/sg21_4_cif.got.tgz:6829.got - 2010.06.03 23:14:55.
