data_PCOD9324204
_publ_section_title
;
Structure prediction by ZEFSAII (Michael W. Deem and Ramdas Pophale) SiO2 
 PCOD9324204
Probable space group: C 2 2 2
;
_chemical_formula_sum "Si O2"
_cell_formula_units_Z 58
_cell_length_a 8.674119
_cell_length_b 30.809022
_cell_length_c 11.448637
_cell_angle_alpha 90.000000
_cell_angle_beta 90.000000
_cell_angle_gamma 90.000000
_cell_volume 3059.546610
_symmetry_space_group_name_H-M "C 2 2 2"
_symmetry_group_IT_number 21
_symmetry_cell_setting 'orthorhombic'
loop_
_space_group_symop_operation_xyz
x,y,z
-x,-y,z
x,-y,-z
-x,y,-z
1/2+x,1/2+y,z
1/2-x,1/2-y,z
1/2+x,1/2-y,-z
1/2-x,1/2+y,-z
loop_
_atom_site_type_symbol
_atom_site_label
_atom_site_fract_x
_atom_site_fract_y
_atom_site_fract_z
Si Si1 0.650858 0.125126 0.052974
Si Si2 0.260454 0.391935 0.203115
Si Si3 0.500000 0.500000 0.500000
Si Si4 0.250038 0.065503 0.595608
Si Si5 0.497539 0.951835 0.212702
Si Si6 0.162481 0.640439 0.563854
Si Si7 0.104578 0.860522 0.243253
Si Si8 0.139884 0.211166 0.573960
O O1 0.581249 0.083870 0.126095
O O2 0.777465 0.146743 0.136431
O O3 0.500000 0.149482 0.000000
O O4 0.736511 0.112898 0.934501
O O5 0.168844 0.360493 0.295332
O O6 0.439154 0.382088 0.220959
O O7 0.174196 0.437118 0.230136
O O8 0.616825 0.530468 0.573411
O O9 0.398671 0.048102 0.666650
O O10 0.288045 0.091968 0.477563
O O11 0.187987 0.104287 0.675789
O O12 0.500000 0.000000 0.162636
O O13 0.276087 0.676430 0.511234
O O14 0.000000 0.647845 0.500000
O O15 0.084934 0.816539 0.315699
O O16 0.250000 0.250000 0.609247
O O17 0.000000 0.230152 0.500000
#
# Coordination Sequence:
#
# PCOD9324204 Si02
#       8
#     8   8   2   8   8   8   8   8
#     4   9  21  39  60  88 116 163 218 258 320 379
#     4  11  20  36  64  85 119 165 213 260 317 386
#     4  12  24  32  54  84 126 164 210 264 320 390
#     4  10  23  35  53  83 118 160 202 256 316 379
#     4  10  22  38  57  82 120 162 218 277 322 374
#     4  11  21  38  61  92 122 159 212 256 320 397
#     4  10  21  41  63  88 122 160 212 258 317 393
#     4  11  23  41  65  97 131 161 199 261 329 400
#
# _framework density 18.957058
#
# number of rings (size 3 to 8) (size 9 to 14) (size 15 to 20)
#    0.000    1.655    2.759    1.655    7.724    2.483 
#    0.000    0.000    0.000    5.793    0.000    0.000 
#    0.000    0.000    0.000    0.000    0.000    0.000 
#
# Total GULP energy -161505.447377 kJ/mol
# GULP energy per Si atom -5569.153358 kJ/mol
# Density = 1.891391 g / cm^3
# Si number density = 18.957058 Si / 1000 Ang^3
#
#
#
# Elastic Constant Matrix: (Units=GPa)
#
#
# Indices 1 2 3 4 5 6 
#
# 1 116.3504 23.7217 30.5535 0.0000 0.0000 0.0000
# 2 23.7217 38.2758 17.3639 0.0000 0.0000 0.0000
# 3 30.5535 17.3639 95.6224 0.0000 0.0000 0.0000
# 4 0.0000 0.0000 0.0000 3.3650 0.0000 0.0000
# 5 0.0000 0.0000 0.0000 0.0000 32.2131 0.0000
# 6 0.0000 0.0000 0.0000 0.0000 0.0000 28.8373
#
#
#
# Elastic Compliance Matrix: (Units=1/GPa)
#
#
# Indices 1 2 3 4 5 6 
#
# 1 0.010290 -0.005324 -0.002321 0.000000 0.000000 0.000000
# 2 -0.005324 0.031226 -0.003969 0.000000 0.000000 0.000000
# 3 -0.002321 -0.003969 0.011920 0.000000 0.000000 0.000000
# 4 0.000000 0.000000 0.000000 0.297177 0.000000 0.000000
# 5 0.000000 0.000000 0.000000 0.000000 0.031043 0.000000
# 6 0.000000 0.000000 0.000000 0.000000 0.000000 0.034677
#
#
# Mechanical properties :
#
#
# Convention : Reuss Voigt Hill
#
# Bulk Modulus (GPa) = 33.10419 43.72522 38.41471
# Shear Modulus (GPa) = 11.12022 24.79038 17.95530
#
# Velocity S-wave (km/s) = 2.42461 3.62015 3.08093
# Velocity P-wave (km/s) = 5.03378 6.37099 5.74145
#
# Compressibility (1/GPa) = 0.03020765
#
# Stress axis : x y z
#
# Youngs Moduli (GPa) = 97.18432 32.02409 83.89155
#
# Poissons Ratio (x) = 0.17050 0.19471
# Poissons Ratio (y) = 0.51743 0.33298
# Poissons Ratio (z) = 0.22556 0.12711
#
# Static dielectric constant tensor:
#      x y z
#    x 1.715450 0.000000 0.000000 
#    y 0.000000 1.633480 0.000000 
#    z 0.000000 0.000000 1.705460 
# 
# From -- ./inp_files/23026.got.cif
#   From: 2010.05.17/outbox.cif.g08.bks.cpg/sg21_12_cif.got.tgz:23026.got - 2010.06.03 23:14:55.
