data_PCOD9324695
_publ_section_title
;
Structure prediction by ZEFSAII (Michael W. Deem and Ramdas Pophale) SiO2 
 PCOD9324695
Probable space group: C 2 2 2
;
_chemical_formula_sum "Si O2"
_cell_formula_units_Z 64
_cell_length_a 19.047862
_cell_length_b 18.595164
_cell_length_c 8.260894
_cell_angle_alpha 90.000000
_cell_angle_beta 90.000000
_cell_angle_gamma 90.000000
_cell_volume 2925.993106
_symmetry_space_group_name_H-M "C 2 2 2"
_symmetry_group_IT_number 21
_symmetry_cell_setting 'orthorhombic'
loop_
_space_group_symop_operation_xyz
x,y,z
-x,-y,z
x,-y,-z
-x,y,-z
1/2+x,1/2+y,z
1/2-x,1/2-y,z
1/2+x,1/2-y,-z
1/2-x,1/2+y,-z
loop_
_atom_site_type_symbol
_atom_site_label
_atom_site_fract_x
_atom_site_fract_y
_atom_site_fract_z
Si Si1 0.598445 0.390953 0.360270
Si Si2 0.960560 0.575840 0.353029
Si Si3 0.582578 0.476865 0.836150
Si Si4 0.438984 0.660004 0.695386
Si Si5 0.296246 0.080653 0.450185
Si Si6 0.056897 0.698350 0.872345
Si Si7 0.737912 0.335221 0.234656
Si Si8 0.781233 0.330013 0.879436
O O1 0.606660 0.474833 0.314788
O O2 0.605954 0.367793 0.545004
O O3 0.519501 0.364684 0.324937
O O4 0.656008 0.349509 0.260540
O O5 0.879381 0.571759 0.406670
O O6 0.970166 0.623189 0.195609
O O7 0.000000 0.500000 0.332974
O O8 0.000000 0.614586 0.500000
O O9 0.500000 0.500000 0.842047
O O10 0.588201 0.391448 0.835846
O O11 0.618731 0.500000 0.000000
O O12 0.436399 0.742996 0.730434
O O13 0.278562 0.127488 0.612360
O O14 0.270629 0.120526 0.282496
O O15 0.270748 0.000000 0.500000
O O16 0.136538 0.683499 0.920316
O O17 0.000000 0.726561 0.000000
O O18 0.750000 0.250000 0.240365
O O19 0.754387 0.360583 0.051399
O O20 0.750000 0.250000 0.848073
#
# Coordination Sequence:
#
# PCOD9324695 Si02
#       8
#     8   8   8   8   8   8   8   8
#     4  10  23  43  62 100 129 190 226 288 359 416
#     4  10  22  44  72 100 137 176 222 299 371 437
#     4   9  19  37  63  91 133 174 212 276 341 406
#     4  10  23  39  69 100 137 169 239 296 342 434
#     4  11  24  45  73 104 137 188 244 293 367 439
#     4  11  27  40  71 108 135 182 238 302 366 434
#     4  11  27  45  73  97 146 196 239 293 361 451
#     4  10  26  49  69 101 147 192 236 307 361 439
#
# _framework density 21.872916
#
# number of rings (size 3 to 8) (size 9 to 14) (size 15 to 20)
#    0.000    1.750    1.250    0.750   15.750    3.250 
#    2.250    2.500    0.000    0.000    0.000    0.000 
#    0.000    0.000    0.000    0.000    0.000    0.000 
#
# Total GULP energy -178344.428833 kJ/mol
# GULP energy per Si atom -5573.263401 kJ/mol
# Density = 2.182313 g / cm^3
# Si number density = 21.872916 Si / 1000 Ang^3
#
#
#
# Elastic Constant Matrix: (Units=GPa)
#
#
# Indices 1 2 3 4 5 6 
#
# 1 67.2248 16.7528 44.0400 0.0000 0.0000 0.0000
# 2 16.7528 98.7793 57.7999 0.0000 0.0000 0.0000
# 3 44.0400 57.7999 142.0035 0.0000 0.0000 0.0000
# 4 0.0000 0.0000 0.0000 17.7690 0.0000 0.0000
# 5 0.0000 0.0000 0.0000 0.0000 17.8389 0.0000
# 6 0.0000 0.0000 0.0000 0.0000 0.0000 20.5488
#
#
#
# Elastic Compliance Matrix: (Units=1/GPa)
#
#
# Indices 1 2 3 4 5 6 
#
# 1 0.018675 0.000291 -0.005910 0.000000 0.000000 0.000000
# 2 0.000291 0.013293 -0.005501 0.000000 0.000000 0.000000
# 3 -0.005910 -0.005501 0.011114 0.000000 0.000000 0.000000
# 4 0.000000 0.000000 0.000000 0.056278 0.000000 0.000000
# 5 0.000000 0.000000 0.000000 0.000000 0.056057 0.000000
# 6 0.000000 0.000000 0.000000 0.000000 0.000000 0.048665
#
#
# Mechanical properties :
#
#
# Convention : Reuss Voigt Hill
#
# Bulk Modulus (GPa) = 47.98047 60.57700 54.27874
# Shear Modulus (GPa) = 21.43446 23.85898 22.64672
#
# Velocity S-wave (km/s) = 3.13382 3.30631 3.22122
# Velocity P-wave (km/s) = 5.92267 6.50620 6.22128
#
# Compressibility (1/GPa) = 0.02084181
#
# Stress axis : x y z
#
# Youngs Moduli (GPa) = 53.54825 75.22726 89.97600
#
# Poissons Ratio (x) = -0.02190 0.53177
# Poissons Ratio (y) = -0.01559 0.49495
# Poissons Ratio (z) = 0.31648 0.41382
#
# Static dielectric constant tensor:
#      x y z
#    x 1.826500 0.000000 0.000000 
#    y 0.000000 1.820420 0.000000 
#    z 0.000000 0.000000 1.887630 
# 
# From -- ./inp_files/16865.got.cif
#   From: 2010.05.17/outbox.cif.g08.bks.cpg/sg21_9_cif.got.tgz:16865.got - 2010.06.03 23:14:55.
