data_PCOD9324720
_publ_section_title
;
Structure prediction by ZEFSAII (Michael W. Deem and Ramdas Pophale) SiO2 
 PCOD9324720
Probable space group: C 2 2 2
;
_chemical_formula_sum "Si O2"
_cell_formula_units_Z 32
_cell_length_a 16.499569
_cell_length_b 13.767230
_cell_length_c 6.223959
_cell_angle_alpha 90.000000
_cell_angle_beta 90.000000
_cell_angle_gamma 90.000000
_cell_volume 1413.793208
_symmetry_space_group_name_H-M "C 2 2 2"
_symmetry_group_IT_number 21
_symmetry_cell_setting 'orthorhombic'
loop_
_space_group_symop_operation_xyz
x,y,z
-x,-y,z
x,-y,-z
-x,y,-z
1/2+x,1/2+y,z
1/2-x,1/2-y,z
1/2+x,1/2-y,-z
1/2-x,1/2+y,-z
loop_
_atom_site_type_symbol
_atom_site_label
_atom_site_fract_x
_atom_site_fract_y
_atom_site_fract_z
Si Si1 0.130359 0.641056 0.800114
Si Si2 0.765960 0.500000 0.500000
Si Si3 0.426793 0.652290 0.829511
Si Si4 0.000000 0.000000 0.500000
Si Si5 0.265868 0.601629 0.089167
Si Si6 0.000000 0.500000 0.000000
O O1 0.180246 0.580308 0.624503
O O2 0.094858 0.743974 0.724742
O O3 0.189987 0.665783 0.006027
O O4 0.057398 0.571292 0.866709
O O5 0.719572 0.428239 0.335125
O O6 0.449135 0.570709 0.656318
O O7 0.500000 0.663159 0.000000
O O8 0.347725 0.621910 0.964018
O O9 0.232825 0.500000 0.000000
#
# Coordination Sequence:
#
# PCOD9324720 Si02
#       6
#     8   4   8   2   8   2
#     4  11  24  44  74 107 146 188 241 304 378 429
#     4  10  22  46  78 108 140 196 236 303 361 459
#     4  12  27  47  73 105 148 195 244 308 356 433
#     4  12  30  50  72 106 140 202 250 302 352 432
#     4  10  22  45  70 103 143 190 235 302 365 425
#     4  12  20  46  72 110 144 180 232 310 368 426
#
# _framework density 22.634145
#
# number of rings (size 3 to 8) (size 9 to 14) (size 15 to 20)
#    0.000    1.000    5.000    2.625    0.000   13.500 
#    0.000   10.000    0.000    0.000    0.000    0.000 
#    0.000    0.000    0.000    0.000    0.000    0.000 
#
# Total GULP energy -89275.896774 kJ/mol
# GULP energy per Si atom -5579.743548 kJ/mol
# Density = 2.258263 g / cm^3
# Si number density = 22.634145 Si / 1000 Ang^3
#
#
#
# Elastic Constant Matrix: (Units=GPa)
#
#
# Indices 1 2 3 4 5 6 
#
# 1 120.6944 54.1871 54.1057 0.0000 0.0000 0.0000
# 2 54.1871 173.1615 66.8365 0.0000 0.0000 0.0000
# 3 54.1057 66.8365 113.1725 0.0000 0.0000 0.0000
# 4 0.0000 0.0000 0.0000 25.6098 0.0000 0.0000
# 5 0.0000 0.0000 0.0000 0.0000 36.1343 0.0000
# 6 0.0000 0.0000 0.0000 0.0000 0.0000 33.7927
#
#
#
# Elastic Compliance Matrix: (Units=1/GPa)
#
#
# Indices 1 2 3 4 5 6 
#
# 1 0.010973 -0.001825 -0.004168 0.000000 0.000000 0.000000
# 2 -0.001825 0.007784 -0.003724 0.000000 0.000000 0.000000
# 3 -0.004168 -0.003724 0.013028 0.000000 0.000000 0.000000
# 4 0.000000 0.000000 0.000000 0.039048 0.000000 0.000000
# 5 0.000000 0.000000 0.000000 0.000000 0.027675 0.000000
# 6 0.000000 0.000000 0.000000 0.000000 0.000000 0.029592
#
#
# Mechanical properties :
#
#
# Convention : Reuss Voigt Hill
#
# Bulk Modulus (GPa) = 80.97158 84.14300 82.55729
# Shear Modulus (GPa) = 32.97035 34.56729 33.76882
#
# Velocity S-wave (km/s) = 3.82077 3.91220 3.86676
# Velocity P-wave (km/s) = 7.43748 7.59362 7.51596
#
# Compressibility (1/GPa) = 0.01235001
#
# Stress axis : x y z
#
# Youngs Moduli (GPa) = 91.12975 128.47661 76.75578
#
# Poissons Ratio (x) = 0.23447 0.31995
# Poissons Ratio (y) = 0.16631 0.28586
# Poissons Ratio (z) = 0.37986 0.47848
#
# Static dielectric constant tensor:
#      x y z
#    x 1.859530 0.000000 0.000000 
#    y 0.000000 1.906680 0.000000 
#    z 0.000000 0.000000 2.003290 
# 
# From -- ./inp_files/4688.got.cif
#   From: 2010.05.17/outbox.cif.g08.bks.cpg/sg21_3_cif.got.tgz:4688.got - 2010.06.03 23:14:55.
