data_PCOD9324656
_publ_section_title
;
Structure prediction by ZEFSAII (Michael W. Deem and Ramdas Pophale) SiO2 
 PCOD9324656
Probable space group: C 2 2 2
;
_chemical_formula_sum "Si O2"
_cell_formula_units_Z 40
_cell_length_a 9.469584
_cell_length_b 14.496930
_cell_length_c 15.369957
_cell_angle_alpha 90.000000
_cell_angle_beta 90.000000
_cell_angle_gamma 90.000000
_cell_volume 2109.986104
_symmetry_space_group_name_H-M "C 2 2 2"
_symmetry_group_IT_number 21
_symmetry_cell_setting 'orthorhombic'
loop_
_space_group_symop_operation_xyz
x,y,z
-x,-y,z
x,-y,-z
-x,y,-z
1/2+x,1/2+y,z
1/2-x,1/2-y,z
1/2+x,1/2-y,-z
1/2-x,1/2+y,-z
loop_
_atom_site_type_symbol
_atom_site_label
_atom_site_fract_x
_atom_site_fract_y
_atom_site_fract_z
Si Si1 0.168117 0.890855 0.014384
Si Si2 0.250000 0.750000 0.165879
Si Si3 0.473045 0.246356 0.272609
Si Si4 0.922369 0.902902 0.413479
Si Si5 0.250000 0.250000 0.122949
Si Si6 0.915392 0.595143 0.415345
O O1 0.252974 0.837781 0.939451
O O2 0.212984 0.837918 0.103389
O O3 0.000000 0.874482 0.000000
O O4 0.191515 0.000000 0.000000
O O5 0.375532 0.770174 0.231971
O O6 0.451623 0.335630 0.333146
O O7 0.379560 0.256437 0.187317
O O8 0.428880 0.162126 0.333806
O O9 0.753769 0.915395 0.429898
O O10 0.000000 0.865268 0.500000
O O11 0.000000 0.000000 0.396762
O O12 0.000000 0.500000 0.398225
O O13 0.000000 0.633222 0.500000
#
# Coordination Sequence:
#
# PCOD9324656 Si02
#       6
#     8   4   8   8   4   8
#     4  10  22  43  69  91 124 167 204 253 321 385
#     4  11  26  40  65 102 124 164 211 264 314 379
#     4  12  25  41  65  92 132 165 211 264 316 365
#     4  11  24  42  64  92 128 175 215 258 313 377
#     4  11  22  44  61  94 128 156 205 266 306 379
#     4  11  24  42  63  93 131 171 212 265 314 368
#
# _framework density 18.957471999999999
#
# number of rings (size 3 to 8) (size 9 to 14) (size 15 to 20)
#    0.000    1.000    4.000    3.000    5.600    3.200 
#    0.000    1.000    0.000    0.000    0.000    0.000 
#    0.000    0.000    0.000    0.000    0.000    0.000 
#
# Total GULP energy -111582.334941 kJ/mol
# GULP energy per Si atom -5579.116747 kJ/mol
# Density = 1.891432 g / cm^3
# Si number density = 18.957472 Si / 1000 Ang^3
#
#
#
# Elastic Constant Matrix: (Units=GPa)
#
#
# Indices 1 2 3 4 5 6 
#
# 1 147.5911 31.5164 47.3513 0.0000 0.0000 0.0000
# 2 31.5164 107.0938 48.9930 0.0000 0.0000 0.0000
# 3 47.3513 48.9930 110.9763 0.0000 0.0000 0.0000
# 4 0.0000 0.0000 0.0000 18.9070 0.0000 0.0000
# 5 0.0000 0.0000 0.0000 0.0000 11.7234 0.0000
# 6 0.0000 0.0000 0.0000 0.0000 0.0000 -32.0004
#
#
#
# Elastic Compliance Matrix: (Units=1/GPa)
#
#
# Indices 1 2 3 4 5 6 
#
# 1 0.007932 -0.000985 -0.002950 0.000000 0.000000 0.000000
# 2 -0.000985 0.011823 -0.004799 0.000000 0.000000 0.000000
# 3 -0.002950 -0.004799 0.012388 0.000000 0.000000 0.000000
# 4 0.000000 0.000000 0.000000 0.052890 0.000000 0.000000
# 5 0.000000 0.000000 0.000000 0.000000 0.085299 0.000000
# 6 0.000000 0.000000 0.000000 0.000000 0.000000 -0.031250
#
#
# Mechanical properties :
#
#
# Convention : Reuss Voigt Hill
#
# Bulk Modulus (GPa) = 68.14009 69.04250 68.59129
# Shear Modulus (GPa) = 30.97062 15.57938 23.27500
#
# Velocity S-wave (km/s) = 4.04628 2.86983 3.50772
# Velocity P-wave (km/s) = 7.60602 6.89057 7.25712
#
# Compressibility (1/GPa) = 0.01467565
#
# Stress axis : x y z
#
# Youngs Moduli (GPa) = 126.06962 84.58075 80.72168
#
# Poissons Ratio (x) = 0.08331 0.23810
# Poissons Ratio (y) = 0.12417 0.38741
# Poissons Ratio (z) = 0.37186 0.40593
#
# Static dielectric constant tensor:
#      x y z
#    x 1.591660 0.000000 0.000000 
#    y 0.000000 1.665170 0.000000 
#    z 0.000000 0.000000 1.645260 
# 
# From -- ./inp_files/30223.got.cif
#   From: 2010.05.17/outbox.cif.g08.bks.cpg/sg21_16_cif.got.tgz:30223.got - 2010.06.03 23:14:55.
