data_PCOD9324734
_publ_section_title
;
Structure prediction by ZEFSAII (Michael W. Deem and Ramdas Pophale) SiO2 
 PCOD9324734
Probable space group: C 2 2 2
;
_chemical_formula_sum "Si O2"
_cell_formula_units_Z 38
_cell_length_a 10.420863
_cell_length_b 13.178635
_cell_length_c 10.582207
_cell_angle_alpha 90.000000
_cell_angle_beta 90.000000
_cell_angle_gamma 90.000000
_cell_volume 1453.283587
_symmetry_space_group_name_H-M "C 2 2 2"
_symmetry_group_IT_number 21
_symmetry_cell_setting 'orthorhombic'
loop_
_space_group_symop_operation_xyz
x,y,z
-x,-y,z
x,-y,-z
-x,y,-z
1/2+x,1/2+y,z
1/2-x,1/2-y,z
1/2+x,1/2-y,-z
1/2-x,1/2+y,-z
loop_
_atom_site_type_symbol
_atom_site_label
_atom_site_fract_x
_atom_site_fract_y
_atom_site_fract_z
Si Si1 0.215973 0.606811 0.774699
Si Si2 0.856388 0.622896 0.500415
Si Si3 0.500000 0.500000 0.500000
Si Si4 0.750000 0.250000 0.987019
Si Si5 0.171533 0.107465 0.708348
Si Si6 0.459143 0.215481 0.858165
O O1 0.219932 0.643419 0.628867
O O2 0.294142 0.669092 0.879365
O O3 0.272298 0.494082 0.774511
O O4 0.321483 0.823441 0.089278
O O5 0.866400 0.500000 0.500000
O O6 0.793845 0.651962 0.632593
O O7 0.000000 0.665595 0.500000
O O8 0.587170 0.566500 0.591119
O O9 0.565276 0.135099 0.810310
O O10 0.078452 0.185933 0.778888
O O11 0.500000 0.249966 0.000000
#
# Coordination Sequence:
#
# PCOD9324734 Si02
#       6
#     8   8   2   4   8   8
#     4  10  22  46  69 102 155 199 253 334 396 467
#     4   9  19  41  70 105 145 196 257 320 393 485
#     4  12  24  44  68 116 148 196 278 312 404 516
#     4  10  24  46  66 106 152 200 274 324 386 494
#     4  11  24  45  77 111 153 206 268 326 408 489
#     4  10  25  46  71 107 154 206 270 329 392 485
#
# _framework density 26.147684000000002
#
# number of rings (size 3 to 8) (size 9 to 14) (size 15 to 20)
#    0.000    1.895    3.158    0.000    8.842    0.842 
#    5.684    0.000    9.263    0.000    0.000    0.000 
#    0.000    0.000    0.000    0.000    0.000    0.000 
#
# Total GULP energy -105832.594380 kJ/mol
# GULP energy per Si atom -5570.136546 kJ/mol
# Density = 2.608817 g / cm^3
# Si number density = 26.147684 Si / 1000 Ang^3
#
#
#
# Elastic Constant Matrix: (Units=GPa)
#
#
# Indices 1 2 3 4 5 6 
#
# 1 93.5629 51.0292 6.8191 0.0000 0.0000 0.0000
# 2 51.0292 165.5374 75.7464 0.0000 0.0000 0.0000
# 3 6.8191 75.7464 143.4488 0.0000 0.0000 0.0000
# 4 0.0000 0.0000 0.0000 35.3201 0.0000 0.0000
# 5 0.0000 0.0000 0.0000 0.0000 33.5516 0.0000
# 6 0.0000 0.0000 0.0000 0.0000 0.0000 72.5844
#
#
#
# Elastic Compliance Matrix: (Units=1/GPa)
#
#
# Indices 1 2 3 4 5 6 
#
# 1 0.013277 -0.005016 0.002017 0.000000 0.000000 0.000000
# 2 -0.005016 0.009861 -0.004968 0.000000 0.000000 0.000000
# 3 0.002017 -0.004968 0.009499 0.000000 0.000000 0.000000
# 4 0.000000 0.000000 0.000000 0.028313 0.000000 0.000000
# 5 0.000000 0.000000 0.000000 0.000000 0.029805 0.000000
# 6 0.000000 0.000000 0.000000 0.000000 0.000000 0.013777
#
#
# Mechanical properties :
#
#
# Convention : Reuss Voigt Hill
#
# Bulk Modulus (GPa) = 59.87168 74.41540 67.14354
# Shear Modulus (GPa) = 39.67275 46.22149 42.94712
#
# Velocity S-wave (km/s) = 3.89942 4.20897 4.05715
# Velocity P-wave (km/s) = 6.57429 7.22095 6.90519
#
# Compressibility (1/GPa) = 0.01670239
#
# Stress axis : x y z
#
# Youngs Moduli (GPa) = 75.32051 101.41464 105.27788
#
# Poissons Ratio (x) = 0.50868 -0.21239
# Poissons Ratio (y) = 0.37779 0.52305
# Poissons Ratio (z) = -0.15195 0.50386
#
# Static dielectric constant tensor:
#      x y z
#    x 2.626430 0.000000 0.000000 
#    y 0.000000 2.139090 0.000000 
#    z 0.000000 0.000000 0.055810 
# 
# From -- ./inp_files/23849.got.cif
#   From: 2010.05.17/outbox.cif.g08.bks.cpg/sg21_12_cif.got.tgz:23849.got - 2010.06.03 23:14:55.
