data_PCOD9324701
_publ_section_title
;
Structure prediction by ZEFSAII (Michael W. Deem and Ramdas Pophale) SiO2 
 PCOD9324701
Probable space group: C 2 2 2
;
_chemical_formula_sum "Si O2"
_cell_formula_units_Z 40
_cell_length_a 9.168333
_cell_length_b 11.769062
_cell_length_c 17.333200
_cell_angle_alpha 90.000000
_cell_angle_beta 90.000000
_cell_angle_gamma 90.000000
_cell_volume 1870.298725
_symmetry_space_group_name_H-M "C 2 2 2"
_symmetry_group_IT_number 21
_symmetry_cell_setting 'orthorhombic'
loop_
_space_group_symop_operation_xyz
x,y,z
-x,-y,z
x,-y,-z
-x,y,-z
1/2+x,1/2+y,z
1/2-x,1/2-y,z
1/2+x,1/2-y,-z
1/2-x,1/2+y,-z
loop_
_atom_site_type_symbol
_atom_site_label
_atom_site_fract_x
_atom_site_fract_y
_atom_site_fract_z
Si Si1 0.372766 0.675786 0.623538
Si Si2 0.000000 0.000000 0.000000
Si Si3 0.000000 0.500000 0.500000
Si Si4 0.178190 0.005152 0.738832
Si Si5 0.000000 0.500000 0.000000
Si Si6 0.641062 0.162310 0.378308
Si Si7 0.251353 0.614322 0.099964
Si Si8 0.500000 0.500000 0.500000
O O1 0.250000 0.750000 0.585250
O O2 0.295918 0.614508 0.696548
O O3 0.504568 0.759619 0.647722
O O4 0.420028 0.582374 0.561045
O O5 0.893132 0.079847 0.049905
O O6 0.907624 0.424547 0.442403
O O7 0.264865 0.097078 0.686556
O O8 0.232849 0.036428 0.823677
O O9 0.000000 0.000000 0.738050
O O10 0.107323 0.576558 0.052812
O O11 0.750000 0.250000 0.415440
O O12 0.250000 0.750000 0.116719
#
# Coordination Sequence:
#
# PCOD9324701 Si02
#       8
#     8   2   2   8   2   8   8   2
#     4  12  28  46  70 103 141 190 242 305 374 426
#     4  10  22  44  72 112 144 188 238 274 344 442
#     4  12  30  44  70 102 130 182 248 296 366 428
#     4  12  25  48  71 105 140 190 247 294 351 439
#     4  10  26  48  72 124 144 180 238 282 348 438
#     4  12  26  47  69  96 142 185 240 304 366 422
#     4  11  24  45  77 105 150 188 229 290 353 421
#     4  12  26  48  72 100 146 182 252 304 358 456
#
# _framework density 21.386956999999999
#
# number of rings (size 3 to 8) (size 9 to 14) (size 15 to 20)
#    0.000    0.400    4.000    3.000    0.000   14.400 
#    0.000    1.000    0.000    0.000    0.000    0.000 
#    0.000    0.000    0.000    0.000    0.000    0.000 
#
# Total GULP energy -111703.931534 kJ/mol
# GULP energy per Si atom -5585.196577 kJ/mol
# Density = 2.133828 g / cm^3
# Si number density = 21.386957 Si / 1000 Ang^3
#
#
#
# Elastic Constant Matrix: (Units=GPa)
#
#
# Indices 1 2 3 4 5 6 
#
# 1 147.9590 77.6079 68.3475 0.0000 0.0000 0.0000
# 2 77.6079 147.8854 69.0452 0.0000 0.0000 0.0000
# 3 68.3475 69.0452 162.0771 0.0000 0.0000 0.0000
# 4 0.0000 0.0000 0.0000 10.7196 0.0000 0.0000
# 5 0.0000 0.0000 0.0000 0.0000 -0.2220 0.0000
# 6 0.0000 0.0000 0.0000 0.0000 0.0000 46.5572
#
#
#
# Elastic Compliance Matrix: (Units=1/GPa)
#
#
# Indices 1 2 3 4 5 6 
#
# 1 0.010072 -0.004122 -0.002491 0.000000 0.000000 0.000000
# 2 -0.004122 0.010128 -0.002576 0.000000 0.000000 0.000000
# 3 -0.002491 -0.002576 0.008318 0.000000 0.000000 0.000000
# 4 0.000000 0.000000 0.000000 0.093287 0.000000 0.000000
# 5 0.000000 0.000000 0.000000 0.000000 -4.504398 0.000000
# 6 0.000000 0.000000 0.000000 0.000000 0.000000 0.021479
#
#
# Mechanical properties :
#
#
# Convention : Reuss Voigt Hill
#
# Bulk Modulus (GPa) = 98.63559 98.65809 98.64684
# Shear Modulus (GPa) = -1.15225 27.60568 13.22672
#
# Velocity S-wave (km/s) = -0.73480 3.59663 2.48956
# Velocity P-wave (km/s) = 6.74535 7.96730 7.38165
#
# Compressibility (1/GPa) = 0.01013833
#
# Stress axis : x y z
#
# Youngs Moduli (GPa) = 99.28892 98.73465 120.22365
#
# Poissons Ratio (x) = 0.40702 0.29948
# Poissons Ratio (y) = 0.40931 0.30972
# Poissons Ratio (z) = 0.24733 0.25436
#
# Static dielectric constant tensor:
#      x y z
#    x 1.854150 0.000000 0.000000 
#    y 0.000000 1.989310 0.000000 
#    z 0.000000 0.000000 1.745000 
# 
# From -- ./inp_files/35541.got.cif
#   From: 2010.05.17/outbox.cif.g08.bks.cpg/sg21_18_cif.got.tgz:35541.got - 2010.06.03 23:14:55.
