data_PCOD9324388
_publ_section_title
;
Structure prediction by ZEFSAII (Michael W. Deem and Ramdas Pophale) SiO2 
 PCOD9324388
Probable space group: C 2 2 2
;
_chemical_formula_sum "Si O2"
_cell_formula_units_Z 32
_cell_length_a 11.043080
_cell_length_b 11.043043
_cell_length_c 13.958513
_cell_angle_alpha 90.000000
_cell_angle_beta 90.000000
_cell_angle_gamma 90.000000
_cell_volume 1702.229595
_symmetry_space_group_name_H-M "C 2 2 2"
_symmetry_group_IT_number 21
_symmetry_cell_setting 'orthorhombic'
loop_
_space_group_symop_operation_xyz
x,y,z
-x,-y,z
x,-y,-z
-x,y,-z
1/2+x,1/2+y,z
1/2-x,1/2-y,z
1/2+x,1/2-y,-z
1/2-x,1/2+y,-z
loop_
_atom_site_type_symbol
_atom_site_label
_atom_site_fract_x
_atom_site_fract_y
_atom_site_fract_z
Si Si1 0.852433 0.352434 0.851886
Si Si2 0.500000 0.306927 0.500000
Si Si3 0.099894 0.400106 0.367702
Si Si4 0.500000 0.703079 0.000000
Si Si5 0.296922 0.500000 0.000000
Si Si6 0.193073 0.000000 0.500000
O O1 0.750000 0.250000 0.841327
O O2 0.889484 0.389485 0.745943
O O3 0.789549 0.459257 0.913041
O O4 0.959256 0.289550 0.913041
O O5 0.444154 0.223109 0.417572
O O6 0.606104 0.393897 0.462012
O O7 0.223109 0.444154 0.417572
O O8 0.000000 0.500000 0.390563
O O9 0.386336 0.613664 0.022003
#
# Coordination Sequence:
#
# PCOD9324388 Si02
#       6
#     8   4   8   4   4   4
#     4  10  22  38  60  87 120 157 198 246 292 353
#     4  11  23  42  66  88 121 163 202 250 302 357
#     4  12  24  40  62  94 125 160 200 253 301 363
#     4   9  20  39  60  86 120 157 198 243 292 346
#     4   9  20  39  60  86 120 157 198 243 292 346
#     4  11  23  42  66  88 121 163 202 250 302 357
#
# _framework density 18.798873
#
# number of rings (size 3 to 8) (size 9 to 14) (size 15 to 20)
#    0.000    1.500    2.500    2.250    3.500    2.000 
#    0.000    5.000    0.000    0.000    0.000    0.000 
#    0.000    0.000    0.000    0.000    0.000    0.000 
#
# Total GULP energy -89348.360156 kJ/mol
# GULP energy per Si atom -5584.272510 kJ/mol
# Density = 1.875609 g / cm^3
# Si number density = 18.798873 Si / 1000 Ang^3
#
#
#
# Elastic Constant Matrix: (Units=GPa)
#
#
# Indices 1 2 3 4 5 6 
#
# 1 112.5970 69.9171 70.4064 0.0000 0.0000 0.0000
# 2 69.9171 112.5938 70.4058 0.0000 0.0000 0.0000
# 3 70.4064 70.4058 158.0234 0.0000 0.0000 0.0000
# 4 0.0000 0.0000 0.0000 0.2345 0.0000 0.0000
# 5 0.0000 0.0000 0.0000 0.0000 0.2358 0.0000
# 6 0.0000 0.0000 0.0000 0.0000 0.0000 30.2448
#
#
#
# Elastic Compliance Matrix: (Units=1/GPa)
#
#
# Indices 1 2 3 4 5 6 
#
# 1 0.015890 -0.007541 -0.003720 0.000000 0.000000 0.000000
# 2 -0.007541 0.015890 -0.003720 0.000000 0.000000 0.000000
# 3 -0.003720 -0.003720 0.009643 0.000000 0.000000 0.000000
# 4 0.000000 0.000000 0.000000 4.265139 0.000000 0.000000
# 5 0.000000 0.000000 0.000000 0.000000 4.240113 0.000000
# 6 0.000000 0.000000 0.000000 0.000000 0.000000 0.033063
#
#
# Mechanical properties :
#
#
# Convention : Reuss Voigt Hill
#
# Bulk Modulus (GPa) = 87.24834 89.40810 88.32822
# Shear Modulus (GPa) = 0.58048 17.64201 9.11125
#
# Velocity S-wave (km/s) = 0.55629 3.06675 2.20391
# Velocity P-wave (km/s) = 6.85017 7.75910 7.31876
#
# Compressibility (1/GPa) = 0.01146154
#
# Stress axis : x y z
#
# Youngs Moduli (GPa) = 62.93337 62.93132 103.70353
#
# Poissons Ratio (x) = 0.47457 0.38575
# Poissons Ratio (y) = 0.47458 0.38577
# Poissons Ratio (z) = 0.23410 0.23410
#
# Static dielectric constant tensor:
#      x y z
#    x 1.669570 0.000000 0.000000 
#    y 0.000000 1.669570 0.000000 
#    z 0.000000 0.000000 1.609480 
# 
# From -- ./inp_files/29984.got.cif
#   From: 2010.05.17/outbox.cif.g08.bks.cpg/sg21_15_cif.got.tgz:29984.got - 2010.06.03 23:14:55.
