data_PCOD9324739
_publ_section_title
;
Structure prediction by ZEFSAII (Michael W. Deem and Ramdas Pophale) SiO2 
 PCOD9324739
Probable space group: C 2 2 2
;
_chemical_formula_sum "Si O2"
_cell_formula_units_Z 34
_cell_length_a 6.842716
_cell_length_b 19.482323
_cell_length_c 11.527058
_cell_angle_alpha 90.000000
_cell_angle_beta 90.000000
_cell_angle_gamma 90.000000
_cell_volume 1536.695194
_symmetry_space_group_name_H-M "C 2 2 2"
_symmetry_group_IT_number 21
_symmetry_cell_setting 'orthorhombic'
loop_
_space_group_symop_operation_xyz
x,y,z
-x,-y,z
x,-y,-z
-x,y,-z
1/2+x,1/2+y,z
1/2-x,1/2-y,z
1/2+x,1/2-y,-z
1/2-x,1/2+y,-z
loop_
_atom_site_type_symbol
_atom_site_label
_atom_site_fract_x
_atom_site_fract_y
_atom_site_fract_z
Si Si1 0.000000 0.909644 0.500000
Si Si2 0.750000 0.250000 0.833509
Si Si3 0.606479 0.071768 0.610184
Si Si4 0.500000 0.000000 0.000000
Si Si5 0.375880 0.688871 0.295984
Si Si6 0.469660 0.867921 0.153162
O O1 0.826219 0.943796 0.427611
O O2 0.904374 0.865230 0.602680
O O3 0.580290 0.284716 0.755646
O O4 0.625970 0.188599 0.898383
O O5 0.500000 0.106077 0.500000
O O6 0.578310 0.113996 0.726045
O O7 0.500000 0.000000 0.628978
O O8 0.576354 0.059634 0.088980
O O9 0.250000 0.750000 0.349667
O O10 0.238018 0.663309 0.190611
#
# Coordination Sequence:
#
# PCOD9324739 Si02
#       6
#     4   4   8   2   8   8
#     4  12  22  37  68 104 142 197 226 288 360 440
#     4  10  22  46  72 104 152 186 240 310 362 442
#     4  11  23  40  65 100 147 186 235 292 360 442
#     4  12  28  52  80  96 144 192 256 318 362 440
#     4  10  23  38  69 106 149 185 233 285 364 444
#     4  11  23  48  71 107 142 191 246 306 364 441
#
# _framework density 22.125402999999999
#
# number of rings (size 3 to 8) (size 9 to 14) (size 15 to 20)
#    0.000    1.176    5.882    0.000    1.647    1.882 
#    6.353    4.706    0.000    0.000    0.000    0.000 
#    0.000    0.000    0.000    0.000    0.000    0.000 
#
# Total GULP energy -94650.753407 kJ/mol
# GULP energy per Si atom -5567.691377 kJ/mol
# Density = 2.207505 g / cm^3
# Si number density = 22.125403 Si / 1000 Ang^3
#
#
#
# Elastic Constant Matrix: (Units=GPa)
#
#
# Indices 1 2 3 4 5 6 
#
# 1 183.1514 56.9182 25.8950 0.0000 0.0000 0.0000
# 2 56.9182 115.2527 15.0274 0.0000 0.0000 0.0000
# 3 25.8950 15.0274 61.3161 0.0000 0.0000 0.0000
# 4 0.0000 0.0000 0.0000 31.3808 0.0000 0.0000
# 5 0.0000 0.0000 0.0000 0.0000 15.1930 0.0000
# 6 0.0000 0.0000 0.0000 0.0000 0.0000 36.5723
#
#
#
# Elastic Compliance Matrix: (Units=1/GPa)
#
#
# Indices 1 2 3 4 5 6 
#
# 1 0.006698 -0.003036 -0.002085 0.000000 0.000000 0.000000
# 2 -0.003036 0.010339 -0.001252 0.000000 0.000000 0.000000
# 3 -0.002085 -0.001252 0.017496 0.000000 0.000000 0.000000
# 4 0.000000 0.000000 0.000000 0.031867 0.000000 0.000000
# 5 0.000000 0.000000 0.000000 0.000000 0.065820 0.000000
# 6 0.000000 0.000000 0.000000 0.000000 0.000000 0.027343
#
#
# Mechanical properties :
#
#
# Convention : Reuss Voigt Hill
#
# Bulk Modulus (GPa) = 45.89593 61.71128 53.80360
# Shear Modulus (GPa) = 27.84410 34.08784 30.96597
#
# Velocity S-wave (km/s) = 3.55134 3.92939 3.74514
# Velocity P-wave (km/s) = 6.13226 6.96699 6.56291
#
# Compressibility (1/GPa) = 0.02178843
#
# Stress axis : x y z
#
# Youngs Moduli (GPa) = 149.29245 96.71913 57.15559
#
# Poissons Ratio (x) = 0.29365 0.11915
# Poissons Ratio (y) = 0.45328 0.07154
# Poissons Ratio (z) = 0.31123 0.12107
#
# Static dielectric constant tensor:
#      x y z
#    x 1.796740 0.000000 0.000000 
#    y 0.000000 1.936040 0.000000 
#    z 0.000000 0.000000 1.876350 
# 
# From -- ./inp_files/21004.got.cif
#   From: 2010.05.17/outbox.cif.g08.bks.cpg/sg21_11_cif.got.tgz:21004.got - 2010.06.03 23:14:55.
