data_PCOD9324647
_publ_section_title
;
Structure prediction by ZEFSAII (Michael W. Deem and Ramdas Pophale) SiO2 
 PCOD9324647
Probable space group: C 2 2 2
;
_chemical_formula_sum "Si O2"
_cell_formula_units_Z 26
_cell_length_a 8.141129
_cell_length_b 24.492992
_cell_length_c 5.661227
_cell_angle_alpha 90.000000
_cell_angle_beta 90.000000
_cell_angle_gamma 90.000000
_cell_volume 1128.852103
_symmetry_space_group_name_H-M "C 2 2 2"
_symmetry_group_IT_number 21
_symmetry_cell_setting 'orthorhombic'
loop_
_space_group_symop_operation_xyz
x,y,z
-x,-y,z
x,-y,-z
-x,y,-z
1/2+x,1/2+y,z
1/2-x,1/2-y,z
1/2+x,1/2-y,-z
1/2-x,1/2+y,-z
loop_
_atom_site_type_symbol
_atom_site_label
_atom_site_fract_x
_atom_site_fract_y
_atom_site_fract_z
Si Si1 0.500000 0.846230 0.500000
Si Si2 0.500000 0.500000 0.500000
Si Si3 0.500000 0.909853 0.000000
Si Si4 0.170018 0.802226 0.644406
Si Si5 0.158279 0.077672 0.148541
O O1 0.493585 0.878476 0.747678
O O2 0.327322 0.814569 0.478188
O O3 0.627465 0.542083 0.378560
O O4 0.323034 0.937478 0.989315
O O5 0.250000 0.750000 0.781092
O O6 0.150220 0.857322 0.796305
O O7 0.000000 0.793764 0.500000
O O8 0.000000 0.063715 0.000000
#
# Coordination Sequence:
#
# PCOD9324647 Si02
#       5
#     4   2   4   8   8
#     4  10  22  43  68 109 142 200 244 316 388 458
#     4  12  26  50  86 106 160 212 274 322 424 456
#     4  10  24  44  79 100 152 190 258 319 384 462
#     4  11  21  41  73 104 153 198 253 319 391 465
#     4  11  25  49  75 111 152 208 261 333 390 483
#
# _framework density 23.032246000000001
#
# number of rings (size 3 to 8) (size 9 to 14) (size 15 to 20)
#    0.000    1.231    3.077    2.308    4.308    0.000 
#   11.077    6.154    0.000    0.000    0.000    0.000 
#    0.000    0.000    0.000    0.000    0.000    0.000 
#
# Total GULP energy -72375.621391 kJ/mol
# GULP energy per Si atom -5567.355492 kJ/mol
# Density = 2.297982 g / cm^3
# Si number density = 23.032246 Si / 1000 Ang^3
#
#
#
# Elastic Constant Matrix: (Units=GPa)
#
#
# Indices 1 2 3 4 5 6 
#
# 1 251.4640 28.9008 33.9430 0.0000 0.0000 0.0000
# 2 28.9008 140.8876 31.7972 0.0000 0.0000 0.0000
# 3 33.9430 31.7972 70.1917 0.0000 0.0000 0.0000
# 4 0.0000 0.0000 0.0000 -44.0873 0.0000 0.0000
# 5 0.0000 0.0000 0.0000 0.0000 32.1595 0.0000
# 6 0.0000 0.0000 0.0000 0.0000 0.0000 62.8345
#
#
#
# Elastic Compliance Matrix: (Units=1/GPa)
#
#
# Indices 1 2 3 4 5 6 
#
# 1 0.004281 -0.000458 -0.001863 0.000000 0.000000 0.000000
# 2 -0.000458 0.007955 -0.003382 0.000000 0.000000 0.000000
# 3 -0.001863 -0.003382 0.016680 0.000000 0.000000 0.000000
# 4 0.000000 0.000000 0.000000 -0.022682 0.000000 0.000000
# 5 0.000000 0.000000 0.000000 0.000000 0.031095 0.000000
# 6 0.000000 0.000000 0.000000 0.000000 0.000000 0.015915
#
#
# Mechanical properties :
#
#
# Convention : Reuss Voigt Hill
#
# Bulk Modulus (GPa) = 57.11037 72.42503 64.76770
# Shear Modulus (GPa) = 70.93660 34.70814 52.82237
#
# Velocity S-wave (km/s) = 5.55569 3.88614 4.79415
# Velocity P-wave (km/s) = 8.12428 7.18675 7.66985
#
# Compressibility (1/GPa) = 0.01750995
#
# Stress axis : x y z
#
# Youngs Moduli (GPa) = 233.60384 125.70511 59.95309
#
# Poissons Ratio (x) = 0.05754 0.11168
# Poissons Ratio (y) = 0.10693 0.20278
# Poissons Ratio (z) = 0.43514 0.42518
#
# Static dielectric constant tensor:
#      x y z
#    x 2.004960 0.000000 0.000000 
#    y 0.000000 1.989710 0.000000 
#    z 0.000000 0.000000 1.867260 
# 
# From -- ./inp_files/1183.got.cif
#   From: 2010.05.17/outbox.cif.g08.bks.cpg/sg21_1_cif.got.tgz:1183.got - 2010.06.03 23:14:55.
