data_PCOD9324891
_publ_section_title
;
Structure prediction by ZEFSAII (Michael W. Deem and Ramdas Pophale) SiO2 
 PCOD9324891
Probable space group: C 2 2 2
;
_chemical_formula_sum "Si O2"
_cell_formula_units_Z 58
_cell_length_a 24.984437
_cell_length_b 9.418940
_cell_length_c 11.270818
_cell_angle_alpha 90.000000
_cell_angle_beta 90.000000
_cell_angle_gamma 90.000000
_cell_volume 2652.326807
_symmetry_space_group_name_H-M "C 2 2 2"
_symmetry_group_IT_number 21
_symmetry_cell_setting 'orthorhombic'
loop_
_space_group_symop_operation_xyz
x,y,z
-x,-y,z
x,-y,-z
-x,y,-z
1/2+x,1/2+y,z
1/2-x,1/2-y,z
1/2+x,1/2-y,-z
1/2-x,1/2+y,-z
loop_
_atom_site_type_symbol
_atom_site_label
_atom_site_fract_x
_atom_site_fract_y
_atom_site_fract_z
Si Si1 0.696071 0.795264 0.338375
Si Si2 0.593054 0.969028 0.370562
Si Si3 0.629983 0.477728 0.635009
Si Si4 0.415761 0.733527 0.237764
Si Si5 0.461876 0.310028 0.276209
Si Si6 0.000000 0.500000 0.000000
Si Si7 0.795504 0.641544 0.076076
Si Si8 0.582248 0.236767 0.955573
O O1 0.750000 0.750000 0.406016
O O2 0.651051 0.895954 0.392950
O O3 0.666317 0.646536 0.310286
O O4 0.713588 0.873225 0.217036
O O5 0.558384 0.847594 0.308336
O O6 0.569853 0.000000 0.500000
O O7 0.595873 0.109147 0.289144
O O8 0.647350 0.500000 0.500000
O O9 0.626504 0.622205 0.708925
O O10 0.570302 0.411295 0.635815
O O11 0.474890 0.689226 0.280571
O O12 0.419185 0.729190 0.095026
O O13 0.439617 0.345769 0.143160
O O14 0.958905 0.605670 0.063469
O O15 0.750000 0.750000 0.032911
O O16 0.856475 0.696738 0.068272
O O17 0.792015 0.500000 0.000000
#
# Coordination Sequence:
#
# PCOD9324891 Si02
#       8
#     8   8   8   8   8   2   8   8
#     4  10  23  46  70  90 131 179 220 280 351 396
#     4  11  23  40  64  97 131 172 232 281 322 397
#     4  11  25  45  65  92 134 178 220 273 338 401
#     4  12  24  37  67 100 132 173 226 276 327 410
#     4  11  23  42  62  94 135 181 217 267 344 402
#     4  12  20  36  68  98 134 176 216 284 336 386
#     4  11  23  42  69  97 136 184 225 280 347 416
#     4  12  22  38  67 100 133 175 226 277 341 402
#
# _framework density 21.867592999999999
#
# number of rings (size 3 to 8) (size 9 to 14) (size 15 to 20)
#    0.000    0.828    4.828    4.138    0.000    6.621 
#    0.000    2.069    0.000    0.000    0.000    0.000 
#    0.000    0.000    0.000    0.000    0.000    0.000 
#
# Total GULP energy -161958.265906 kJ/mol
# GULP energy per Si atom -5584.767790 kJ/mol
# Density = 2.181782 g / cm^3
# Si number density = 21.867593 Si / 1000 Ang^3
#
#
#
# Elastic Constant Matrix: (Units=GPa)
#
#
# Indices 1 2 3 4 5 6 
#
# 1 124.2838 15.4322 -9.6639 0.0000 0.0000 0.0000
# 2 15.4322 97.9255 29.3155 0.0000 0.0000 0.0000
# 3 -9.6639 29.3155 105.4598 0.0000 0.0000 0.0000
# 4 0.0000 0.0000 0.0000 24.6321 0.0000 0.0000
# 5 0.0000 0.0000 0.0000 0.0000 16.3127 0.0000
# 6 0.0000 0.0000 0.0000 0.0000 0.0000 21.2902
#
#
#
# Elastic Compliance Matrix: (Units=1/GPa)
#
#
# Indices 1 2 3 4 5 6 
#
# 1 0.008351 -0.001685 0.001234 0.000000 0.000000 0.000000
# 2 -0.001685 0.011479 -0.003345 0.000000 0.000000 0.000000
# 3 0.001234 -0.003345 0.010525 0.000000 0.000000 0.000000
# 4 0.000000 0.000000 0.000000 0.040598 0.000000 0.000000
# 5 0.000000 0.000000 0.000000 0.000000 0.061302 0.000000
# 6 0.000000 0.000000 0.000000 0.000000 0.000000 0.046970
#
#
# Mechanical properties :
#
#
# Convention : Reuss Voigt Hill
#
# Bulk Modulus (GPa) = 43.93375 44.20408 44.06891
# Shear Modulus (GPa) = 25.71936 31.95267 28.83601
#
# Velocity S-wave (km/s) = 3.43321 3.82670 3.63528
# Velocity P-wave (km/s) = 5.98751 6.30739 6.14953
#
# Compressibility (1/GPa) = 0.02276155
#
# Stress axis : x y z
#
# Youngs Moduli (GPa) = 119.74157 87.11604 95.00934
#
# Poissons Ratio (x) = 0.14683 -0.11722
# Poissons Ratio (y) = 0.20182 0.31784
# Poissons Ratio (z) = -0.14774 0.29143
#
# Static dielectric constant tensor:
#      x y z
#    x 1.834020 0.000000 0.000000 
#    y 0.000000 1.852810 0.000000 
#    z 0.000000 0.000000 1.794390 
# 
# From -- ./inp_files/27797.got.cif
#   From: 2010.05.17/outbox.cif.g08.bks.cpg/sg21_14_cif.got.tgz:27797.got - 2010.06.03 23:14:55.
