data_PCOD9324563
_publ_section_title
;
Structure prediction by ZEFSAII (Michael W. Deem and Ramdas Pophale) SiO2 
 PCOD9324563
Probable space group: C 2 2 2
;
_chemical_formula_sum "Si O2"
_cell_formula_units_Z 18
_cell_length_a 8.988983
_cell_length_b 18.600111
_cell_length_c 5.240147
_cell_angle_alpha 90.000000
_cell_angle_beta 90.000000
_cell_angle_gamma 90.000000
_cell_volume 876.132045
_symmetry_space_group_name_H-M "C 2 2 2"
_symmetry_group_IT_number 21
_symmetry_cell_setting 'orthorhombic'
loop_
_space_group_symop_operation_xyz
x,y,z
-x,-y,z
x,-y,-z
-x,y,-z
1/2+x,1/2+y,z
1/2-x,1/2-y,z
1/2+x,1/2-y,-z
1/2-x,1/2+y,-z
loop_
_atom_site_type_symbol
_atom_site_label
_atom_site_fract_x
_atom_site_fract_y
_atom_site_fract_z
Si Si1 0.903180 0.293475 0.751781
Si Si2 0.000000 0.000000 0.500000
Si Si3 0.712974 0.955032 0.256946
O O1 0.750000 0.250000 0.746409
O O2 0.859747 0.377649 0.761218
O O3 0.000000 0.279620 0.500000
O O4 0.000000 0.275144 0.000000
O O5 0.890099 0.047512 0.674916
O O6 0.656701 0.000000 0.500000
O O7 0.691639 0.000000 0.000000
#
# Coordination Sequence:
#
# PCOD9324563 Si02
#       3
#     8   2   8
#     4  12  28  47  72 103 143 189 232 293 348 416
#     4   8  22  36  68 104 130 184 206 296 334 428
#     4  10  22  41  69 101 135 178 231 276 350 409
#
# _framework density 20.544848000000002
#
# number of rings (size 3 to 8) (size 9 to 14) (size 15 to 20)
#    1.333    0.000    0.000    4.667    3.111    8.889 
#    0.000    0.000    0.000    0.000    0.000    0.000 
#    0.000    0.000    0.000    0.000    0.000    0.000 
#
# Total GULP energy -50290.106273 kJ/mol
# GULP energy per Si atom -5587.789586 kJ/mol
# Density = 2.049809 g / cm^3
# Si number density = 20.544848 Si / 1000 Ang^3
#
#
#
# Elastic Constant Matrix: (Units=GPa)
#
#
# Indices 1 2 3 4 5 6 
#
# 1 184.4397 61.0259 98.7557 0.0000 0.0000 0.0000
# 2 61.0259 104.6826 74.2870 0.0000 0.0000 0.0000
# 3 98.7557 74.2870 232.7276 0.0000 0.0000 0.0000
# 4 0.0000 0.0000 0.0000 -18.3342 0.0000 0.0000
# 5 0.0000 0.0000 0.0000 0.0000 181.2726 0.0000
# 6 0.0000 0.0000 0.0000 0.0000 0.0000 50.4517
#
#
#
# Elastic Compliance Matrix: (Units=1/GPa)
#
#
# Indices 1 2 3 4 5 6 
#
# 1 0.007588 -0.002765 -0.002337 0.000000 0.000000 0.000000
# 2 -0.002765 0.013358 -0.003091 0.000000 0.000000 0.000000
# 3 -0.002337 -0.003091 0.006275 0.000000 0.000000 0.000000
# 4 0.000000 0.000000 0.000000 -0.054543 0.000000 0.000000
# 5 0.000000 0.000000 0.000000 0.000000 0.005517 0.000000
# 6 0.000000 0.000000 0.000000 0.000000 0.000000 0.019821
#
#
# Mechanical properties :
#
#
# Convention : Reuss Voigt Hill
#
# Bulk Modulus (GPa) = 92.28999 109.99856 101.14428
# Shear Modulus (GPa) = 277.57378 61.86344 169.71861
#
# Velocity S-wave (km/s) = 11.63613 5.49334 9.09880
# Velocity P-wave (km/s) = 15.01837 9.68982 12.63812
#
# Compressibility (1/GPa) = 0.01083541
#
# Stress axis : x y z
#
# Youngs Moduli (GPa) = 131.78378 74.86333 159.35664
#
# Poissons Ratio (x) = 0.20699 0.37248
# Poissons Ratio (y) = 0.36437 0.49250
# Poissons Ratio (z) = 0.30803 0.23137
#
# Static dielectric constant tensor:
#      x y z
#    x 1.780480 0.000000 0.000000 
#    y 0.000000 1.637880 0.000000 
#    z 0.000000 0.000000 1.692280 
# 
# From -- ./inp_files/946.got.cif
#   From: 2010.05.17/outbox.cif.g08.bks.cpg/sg21_1_cif.got.tgz:946.got - 2010.06.03 23:14:55.
