data_PCOD9324095
_publ_section_title
;
Structure prediction by ZEFSAII (Michael W. Deem and Ramdas Pophale) SiO2 
 PCOD9324095
Probable space group: C 2 2 2
;
_chemical_formula_sum "Si O2"
_cell_formula_units_Z 56
_cell_length_a 8.324700
_cell_length_b 21.637438
_cell_length_c 15.372686
_cell_angle_alpha 90.000000
_cell_angle_beta 90.000000
_cell_angle_gamma 90.000000
_cell_volume 2769.007835
_symmetry_space_group_name_H-M "C 2 2 2"
_symmetry_group_IT_number 21
_symmetry_cell_setting 'orthorhombic'
loop_
_space_group_symop_operation_xyz
x,y,z
-x,-y,z
x,-y,-z
-x,y,-z
1/2+x,1/2+y,z
1/2-x,1/2-y,z
1/2+x,1/2-y,-z
1/2-x,1/2+y,-z
loop_
_atom_site_type_symbol
_atom_site_label
_atom_site_fract_x
_atom_site_fract_y
_atom_site_fract_z
Si Si1 0.000000 0.173617 0.000000
Si Si2 0.436441 0.756613 0.168779
Si Si3 0.750000 0.250000 0.711353
Si Si4 0.745433 0.432610 0.971190
Si Si5 0.328127 0.570157 0.469954
Si Si6 0.607793 0.939630 0.677165
Si Si7 0.098043 0.658937 0.576908
Si Si8 0.034749 0.597635 0.135406
O O1 0.127690 0.125062 0.038650
O O2 0.941954 0.216637 0.079564
O O3 0.250000 0.750000 0.202794
O O4 0.588168 0.737946 0.230912
O O5 0.471708 0.828610 0.148515
O O6 0.792943 0.304185 0.643872
O O7 0.862408 0.432235 0.887768
O O8 0.680856 0.500000 0.000000
O O9 0.855184 0.414801 0.053030
O O10 0.316881 0.500000 0.500000
O O11 0.500000 0.594386 0.500000
O O12 0.280652 0.564708 0.368864
O O13 0.198977 0.610289 0.520938
O O14 0.518295 0.879938 0.638899
O O15 0.610117 0.932773 0.779749
O O16 0.500000 0.000000 0.653412
O O17 0.000000 0.694889 0.500000
#
# Coordination Sequence:
#
# PCOD9324095 Si02
#       8
#     4   8   4   8   8   8   8   8
#     4  12  25  42  68  96 141 182 226 284 350 400
#     4  12  26  45  70 102 136 182 238 292 335 415
#     4  12  26  48  70 100 142 180 244 286 342 422
#     4  11  23  42  66  98 137 178 224 279 350 417
#     4  10  21  39  64  96 130 170 222 277 344 413
#     4  11  20  38  68  94 129 172 222 283 339 412
#     4  10  23  42  66  97 128 180 221 280 350 404
#     4  11  22  41  67  99 129 177 232 278 343 407
#
# _framework density 20.223849999999999
#
# number of rings (size 3 to 8) (size 9 to 14) (size 15 to 20)
#    0.000    1.000    4.286    3.643    1.000    1.714 
#    1.286    0.000    3.143    0.000    0.000    0.000 
#    0.000    0.000    0.000    0.000    0.000    0.000 
#
# Total GULP energy -156085.053573 kJ/mol
# GULP energy per Si atom -5574.466199 kJ/mol
# Density = 2.017782 g / cm^3
# Si number density = 20.223850 Si / 1000 Ang^3
#
#
#
# Elastic Constant Matrix: (Units=GPa)
#
#
# Indices 1 2 3 4 5 6 
#
# 1 94.9542 10.6741 38.4774 0.0000 0.0000 0.0000
# 2 10.6741 78.9801 10.7263 0.0000 0.0000 0.0000
# 3 38.4774 10.7263 105.9221 0.0000 0.0000 0.0000
# 4 0.0000 0.0000 0.0000 27.7845 0.0000 0.0000
# 5 0.0000 0.0000 0.0000 0.0000 17.6107 0.0000
# 6 0.0000 0.0000 0.0000 0.0000 0.0000 15.3968
#
#
#
# Elastic Compliance Matrix: (Units=1/GPa)
#
#
# Indices 1 2 3 4 5 6 
#
# 1 0.012440 -0.001082 -0.004409 0.000000 0.000000 0.000000
# 2 -0.001082 0.012932 -0.000916 0.000000 0.000000 0.000000
# 3 -0.004409 -0.000916 0.011135 0.000000 0.000000 0.000000
# 4 0.000000 0.000000 0.000000 0.035991 0.000000 0.000000
# 5 0.000000 0.000000 0.000000 0.000000 0.056784 0.000000
# 6 0.000000 0.000000 0.000000 0.000000 0.000000 0.064949
#
#
# Mechanical properties :
#
#
# Convention : Reuss Voigt Hill
#
# Bulk Modulus (GPa) = 42.20973 44.40133 43.30553
# Shear Modulus (GPa) = 23.26183 26.82362 25.04272
#
# Velocity S-wave (km/s) = 3.39517 3.64584 3.52273
# Velocity P-wave (km/s) = 6.02379 6.30281 6.16488
#
# Compressibility (1/GPa) = 0.02369122
#
# Stress axis : x y z
#
# Youngs Moduli (GPa) = 80.38705 77.32664 89.80344
#
# Poissons Ratio (x) = 0.08370 0.39597
# Poissons Ratio (y) = 0.08701 0.08229
# Poissons Ratio (z) = 0.35445 0.07086
#
# Static dielectric constant tensor:
#      x y z
#    x 1.839750 0.000000 0.000000 
#    y 0.000000 1.724150 0.000000 
#    z 0.000000 0.000000 1.734720 
# 
# From -- ./inp_files/30789.got.cif
#   From: 2010.05.17/outbox.cif.g08.bks.cpg/sg21_16_cif.got.tgz:30789.got - 2010.06.03 23:14:55.
