data_PCOD9324692
_publ_section_title
;
Structure prediction by ZEFSAII (Michael W. Deem and Ramdas Pophale) SiO2 
 PCOD9324692
Probable space group: C 2 2 2
;
_chemical_formula_sum "Si O2"
_cell_formula_units_Z 28
_cell_length_a 18.658650
_cell_length_b 11.518902
_cell_length_c 6.313929
_cell_angle_alpha 90.000000
_cell_angle_beta 90.000000
_cell_angle_gamma 90.000000
_cell_volume 1357.034833
_symmetry_space_group_name_H-M "C 2 2 2"
_symmetry_group_IT_number 21
_symmetry_cell_setting 'orthorhombic'
loop_
_space_group_symop_operation_xyz
x,y,z
-x,-y,z
x,-y,-z
-x,y,-z
1/2+x,1/2+y,z
1/2-x,1/2-y,z
1/2+x,1/2-y,-z
1/2-x,1/2+y,-z
loop_
_atom_site_type_symbol
_atom_site_label
_atom_site_fract_x
_atom_site_fract_y
_atom_site_fract_z
Si Si1 0.914509 0.868647 0.983241
Si Si2 0.114518 0.500000 0.000000
Si Si3 0.928439 0.325408 0.352130
Si Si4 0.328244 0.802232 0.723369
O O1 0.907598 0.794538 0.767337
O O2 0.879977 0.795191 0.173063
O O3 0.000000 0.873338 0.000000
O O4 0.886671 0.000000 0.000000
O O5 0.069064 0.424528 0.829302
O O6 0.165163 0.591556 0.883811
O O7 0.862621 0.347325 0.507644
O O8 0.000000 0.321165 0.500000
O O9 0.250000 0.750000 0.700229
#
# Coordination Sequence:
#
# PCOD9324692 Si02
#       4
#     8   4   8   8
#     4  10  22  44  70  97 134 175 221 277 333 398
#     4  10  26  45  68  98 141 174 220 286 339 390
#     4  11  23  45  70 101 132 178 230 276 334 402
#     4  11  25  44  68 101 135 174 227 275 342 403
#
# _framework density 20.633220999999999
#
# number of rings (size 3 to 8) (size 9 to 14) (size 15 to 20)
#    0.000    1.429    2.857    0.857    2.000    9.143 
#    5.143    0.000    0.000    0.000    0.000    0.000 
#    0.000    0.000    0.000    0.000    0.000    0.000 
#
# Total GULP energy -78154.809011 kJ/mol
# GULP energy per Si atom -5582.486358 kJ/mol
# Density = 2.058626 g / cm^3
# Si number density = 20.633221 Si / 1000 Ang^3
#
#
#
# Elastic Constant Matrix: (Units=GPa)
#
#
# Indices 1 2 3 4 5 6 
#
# 1 95.9506 34.7939 50.6932 0.0000 0.0000 0.0000
# 2 34.7939 153.0693 63.0146 0.0000 0.0000 0.0000
# 3 50.6932 63.0146 130.8989 0.0000 0.0000 0.0000
# 4 0.0000 0.0000 0.0000 21.9940 0.0000 0.0000
# 5 0.0000 0.0000 0.0000 0.0000 17.6461 0.0000
# 6 0.0000 0.0000 0.0000 0.0000 0.0000 20.8410
#
#
#
# Elastic Compliance Matrix: (Units=1/GPa)
#
#
# Indices 1 2 3 4 5 6 
#
# 1 0.013256 -0.001122 -0.004593 0.000000 0.000000 0.000000
# 2 -0.001122 0.008243 -0.003533 0.000000 0.000000 0.000000
# 3 -0.004593 -0.003533 0.011119 0.000000 0.000000 0.000000
# 4 0.000000 0.000000 0.000000 0.045467 0.000000 0.000000
# 5 0.000000 0.000000 0.000000 0.000000 0.056670 0.000000
# 6 0.000000 0.000000 0.000000 0.000000 0.000000 0.047982
#
#
# Mechanical properties :
#
#
# Convention : Reuss Voigt Hill
#
# Bulk Modulus (GPa) = 70.82223 75.21359 73.01791
# Shear Modulus (GPa) = 24.27876 27.52403 25.90139
#
# Velocity S-wave (km/s) = 3.43400 3.65631 3.54690
# Velocity P-wave (km/s) = 7.07969 7.37270 7.22768
#
# Compressibility (1/GPa) = 0.01411986
#
# Stress axis : x y z
#
# Youngs Moduli (GPa) = 75.43910 121.31957 89.93341
#
# Poissons Ratio (x) = 0.13614 0.41309
# Poissons Ratio (y) = 0.08466 0.31777
# Poissons Ratio (z) = 0.34652 0.42868
#
# Static dielectric constant tensor:
#      x y z
#    x 1.707070 0.000000 0.000000 
#    y 0.000000 1.781540 0.000000 
#    z 0.000000 0.000000 1.782150 
# 
# From -- ./inp_files/2277.got.cif
#   From: 2010.05.17/outbox.cif.g08.bks.cpg/sg21_2_cif.got.tgz:2277.got - 2010.06.03 23:14:55.
