data_PCOD9324703
_publ_section_title
;
Structure prediction by ZEFSAII (Michael W. Deem and Ramdas Pophale) SiO2 
 PCOD9324703
Probable space group: C 2 2 2
;
_chemical_formula_sum "Si O2"
_cell_formula_units_Z 32
_cell_length_a 7.606042
_cell_length_b 14.256085
_cell_length_c 12.997038
_cell_angle_alpha 90.000000
_cell_angle_beta 90.000000
_cell_angle_gamma 90.000000
_cell_volume 1409.299780
_symmetry_space_group_name_H-M "C 2 2 2"
_symmetry_group_IT_number 21
_symmetry_cell_setting 'orthorhombic'
loop_
_space_group_symop_operation_xyz
x,y,z
-x,-y,z
x,-y,-z
-x,y,-z
1/2+x,1/2+y,z
1/2-x,1/2-y,z
1/2+x,1/2-y,-z
1/2-x,1/2+y,-z
loop_
_atom_site_type_symbol
_atom_site_label
_atom_site_fract_x
_atom_site_fract_y
_atom_site_fract_z
Si Si1 0.494486 0.197495 0.882101
Si Si2 0.630175 0.368561 0.802343
Si Si3 0.187684 0.450217 0.748003
Si Si4 0.392517 0.334995 0.604975
O O1 0.506103 0.310615 0.880391
O O2 0.673894 0.167715 0.826103
O O3 0.348642 0.142666 0.816313
O O4 0.500000 0.165096 0.000000
O O5 0.675454 0.478870 0.801032
O O6 0.541424 0.335891 0.694801
O O7 0.272090 0.422495 0.639245
O O8 0.000000 0.500000 0.735515
O O9 0.500000 0.340098 0.500000
O O10 0.250000 0.250000 0.603921
#
# Coordination Sequence:
#
# PCOD9324703 Si02
#       4
#     8   8   8   8
#     4  10  22  44  74 110 151 200 242 303 378 440
#     4  10  23  43  71 105 147 190 249 297 365 443
#     4  10  23  46  74 107 149 194 246 313 367 449
#     4  12  27  46  75 106 142 196 249 308 384 451
#
# _framework density 22.706310999999999
#
# number of rings (size 3 to 8) (size 9 to 14) (size 15 to 20)
#    0.000    1.500    2.500    0.750    3.500   10.500 
#    0.000    6.250    0.000    0.000    0.000    0.000 
#    0.000    0.000    0.000    0.000    0.000    0.000 
#
# Total GULP energy -89088.289618 kJ/mol
# GULP energy per Si atom -5568.018101 kJ/mol
# Density = 2.265463 g / cm^3
# Si number density = 22.706311 Si / 1000 Ang^3
#
#
#
# Elastic Constant Matrix: (Units=GPa)
#
#
# Indices 1 2 3 4 5 6 
#
# 1 194.0878 55.1697 53.6386 0.0000 0.0000 0.0000
# 2 55.1697 139.3253 24.0932 0.0000 0.0000 0.0000
# 3 53.6386 24.0932 133.7847 0.0000 0.0000 0.0000
# 4 0.0000 0.0000 0.0000 -25.8581 0.0000 0.0000
# 5 0.0000 0.0000 0.0000 0.0000 -57.4321 0.0000
# 6 0.0000 0.0000 0.0000 0.0000 0.0000 32.6442
#
#
#
# Elastic Compliance Matrix: (Units=1/GPa)
#
#
# Indices 1 2 3 4 5 6 
#
# 1 0.006360 -0.002144 -0.002164 0.000000 0.000000 0.000000
# 2 -0.002144 0.008131 -0.000605 0.000000 0.000000 0.000000
# 3 -0.002164 -0.000605 0.008451 0.000000 0.000000 0.000000
# 4 0.000000 0.000000 0.000000 -0.038673 0.000000 0.000000
# 5 0.000000 0.000000 0.000000 0.000000 -0.017412 0.000000
# 6 0.000000 0.000000 0.000000 0.000000 0.000000 0.030633
#
#
# Mechanical properties :
#
#
# Convention : Reuss Voigt Hill
#
# Bulk Modulus (GPa) = 76.23763 81.44452 78.84107
# Shear Modulus (GPa) = 427.79214 12.15723 219.97469
#
# Velocity S-wave (km/s) = 13.74086 2.31641 9.85335
# Velocity P-wave (km/s) = 16.89369 6.56512 12.81596
#
# Compressibility (1/GPa) = 0.01311688
#
# Stress axis : x y z
#
# Youngs Moduli (GPa) = 157.23887 122.98537 118.32800
#
# Poissons Ratio (x) = 0.26370 0.25603
# Poissons Ratio (y) = 0.33714 0.07155
# Poissons Ratio (z) = 0.34022 0.07436
#
# Static dielectric constant tensor:
#      x y z
#    x 2.017290 0.000000 0.000000 
#    y 0.000000 2.030510 0.000000 
#    z 0.000000 0.000000 1.796000 
# 
# From -- ./inp_files/21955.got.cif
#   From: 2010.05.17/outbox.cif.g08.bks.cpg/sg21_11_cif.got.tgz:21955.got - 2010.06.03 23:14:55.
