data_PCOD9324250
_publ_section_title
;
Structure prediction by ZEFSAII (Michael W. Deem and Ramdas Pophale) SiO2 
 PCOD9324250
Probable space group: C 2 2 2
;
_chemical_formula_sum "Si O2"
_cell_formula_units_Z 64
_cell_length_a 10.402322
_cell_length_b 17.974938
_cell_length_c 15.922143
_cell_angle_alpha 90.000000
_cell_angle_beta 90.000000
_cell_angle_gamma 90.000000
_cell_volume 2977.139701
_symmetry_space_group_name_H-M "C 2 2 2"
_symmetry_group_IT_number 21
_symmetry_cell_setting 'orthorhombic'
loop_
_space_group_symop_operation_xyz
x,y,z
-x,-y,z
x,-y,-z
-x,y,-z
1/2+x,1/2+y,z
1/2-x,1/2-y,z
1/2+x,1/2-y,-z
1/2-x,1/2+y,-z
loop_
_atom_site_type_symbol
_atom_site_label
_atom_site_fract_x
_atom_site_fract_y
_atom_site_fract_z
Si Si1 0.346859 0.989099 0.402387
Si Si2 0.743445 0.638823 0.337490
Si Si3 0.774055 0.415719 0.977748
Si Si4 0.946803 0.196220 0.912622
Si Si5 0.460088 0.252008 0.402961
Si Si6 0.106510 0.351353 0.176417
Si Si7 0.368270 0.153246 0.701342
Si Si8 0.719156 0.666231 0.865060
O O1 0.326188 0.907349 0.366458
O O2 0.500000 0.000000 0.390975
O O3 0.318799 0.000000 0.500000
O O4 0.267000 0.052683 0.355802
O O5 0.610399 0.674801 0.367654
O O6 0.854315 0.685939 0.387577
O O7 0.770925 0.649288 0.238813
O O8 0.662265 0.361851 0.940226
O O9 0.877902 0.405521 0.903548
O O10 0.737754 0.500000 0.000000
O O11 0.800610 0.382360 0.069839
O O12 0.911174 0.267248 0.857046
O O13 0.067807 0.152925 0.873953
O O14 0.000000 0.229186 0.000000
O O15 0.500000 0.257603 0.500000
O O16 0.580702 0.225664 0.347274
O O17 0.989343 0.371098 0.239124
O O18 0.258603 0.161175 0.769404
O O19 0.750000 0.750000 0.891914
#
# Coordination Sequence:
#
# PCOD9324250 Si02
#       8
#     8   8   8   8   8   8   8   8
#     4  11  21  41  66  94 136 182 221 278 361 420
#     4  10  23  38  66 103 136 183 229 282 359 425
#     4  11  26  41  67  95 138 182 228 280 347 427
#     4  10  22  42  67  90 132 189 227 281 343 409
#     4  10  21  42  65 101 139 176 235 290 347 417
#     4  11  22  39  66  99 136 175 232 287 345 404
#     4  11  24  38  70 105 134 179 232 296 349 418
#     4  11  23  43  64  99 132 173 236 282 341 403
#
# _framework density 21.497143000000001
#
# number of rings (size 3 to 8) (size 9 to 14) (size 15 to 20)
#    0.000    1.375    3.750    2.625    8.750    2.250 
#    4.500    0.625    2.750    0.375    0.000    0.000 
#    0.000    0.000    0.000    0.000    0.000    0.000 
#
# Total GULP energy -178730.348972 kJ/mol
# GULP energy per Si atom -5585.323405 kJ/mol
# Density = 2.144821 g / cm^3
# Si number density = 21.497143 Si / 1000 Ang^3
#
#
#
# Elastic Constant Matrix: (Units=GPa)
#
#
# Indices 1 2 3 4 5 6 
#
# 1 49.7516 15.4586 42.8237 0.0000 0.0000 0.0000
# 2 15.4586 100.8942 53.0081 0.0000 0.0000 0.0000
# 3 42.8237 53.0081 167.5512 0.0000 0.0000 0.0000
# 4 0.0000 0.0000 0.0000 35.0166 0.0000 0.0000
# 5 0.0000 0.0000 0.0000 0.0000 29.8141 0.0000
# 6 0.0000 0.0000 0.0000 0.0000 0.0000 13.2061
#
#
#
# Elastic Compliance Matrix: (Units=1/GPa)
#
#
# Indices 1 2 3 4 5 6 
#
# 1 0.025798 -0.000586 -0.006408 0.000000 0.000000 0.000000
# 2 -0.000586 0.011901 -0.003615 0.000000 0.000000 0.000000
# 3 -0.006408 -0.003615 0.008750 0.000000 0.000000 0.000000
# 4 0.000000 0.000000 0.000000 0.028558 0.000000 0.000000
# 5 0.000000 0.000000 0.000000 0.000000 0.033541 0.000000
# 6 0.000000 0.000000 0.000000 0.000000 0.000000 0.075722
#
#
# Mechanical properties :
#
#
# Convention : Reuss Voigt Hill
#
# Bulk Modulus (GPa) = 39.63592 60.08640 49.86116
# Shear Modulus (GPa) = 23.37562 29.40114 26.38838
#
# Velocity S-wave (km/s) = 3.30113 3.70222 3.50741
# Velocity P-wave (km/s) = 5.74523 6.80344 6.29661
#
# Compressibility (1/GPa) = 0.02522964
#
# Stress axis : x y z
#
# Youngs Moduli (GPa) = 38.76306 84.03002 114.28692
#
# Poissons Ratio (x) = 0.04923 0.73237
# Poissons Ratio (y) = 0.02271 0.41317
# Poissons Ratio (z) = 0.24840 0.30379
#
# Static dielectric constant tensor:
#      x y z
#    x 1.872750 0.000000 0.000000 
#    y 0.000000 1.795960 0.000000 
#    z 0.000000 0.000000 1.789480 
# 
# From -- ./inp_files/31748.got.cif
#   From: 2010.05.17/outbox.cif.g08.bks.cpg/sg21_16_cif.got.tgz:31748.got - 2010.06.03 23:14:55.
