data_PCOD9324257
_publ_section_title
;
Structure prediction by ZEFSAII (Michael W. Deem and Ramdas Pophale) SiO2 
 PCOD9324257
Probable space group: C 2 2 2
;
_chemical_formula_sum "Si O2"
_cell_formula_units_Z 48
_cell_length_a 15.130322
_cell_length_b 10.164012
_cell_length_c 15.261171
_cell_angle_alpha 90.000000
_cell_angle_beta 90.000000
_cell_angle_gamma 90.000000
_cell_volume 2346.935739
_symmetry_space_group_name_H-M "C 2 2 2"
_symmetry_group_IT_number 21
_symmetry_cell_setting 'orthorhombic'
loop_
_space_group_symop_operation_xyz
x,y,z
-x,-y,z
x,-y,-z
-x,y,-z
1/2+x,1/2+y,z
1/2-x,1/2-y,z
1/2+x,1/2-y,-z
1/2-x,1/2+y,-z
loop_
_atom_site_type_symbol
_atom_site_label
_atom_site_fract_x
_atom_site_fract_y
_atom_site_fract_z
Si Si1 0.606577 0.025541 0.238621
Si Si2 0.082382 0.781228 0.340913
Si Si3 0.624538 0.259718 0.696459
Si Si4 0.394271 0.495225 0.805104
Si Si5 0.321642 0.650880 0.505138
Si Si6 0.236837 0.596586 0.079612
O O1 0.644956 0.888149 0.274609
O O2 0.500000 0.000000 0.222323
O O3 0.618088 0.138986 0.311767
O O4 0.661303 0.075266 0.154214
O O5 0.096685 0.825443 0.440249
O O6 0.979557 0.769536 0.321019
O O7 0.118109 0.894375 0.276254
O O8 0.640182 0.363215 0.773493
O O9 0.663940 0.307080 0.604818
O O10 0.500000 0.500000 0.824369
O O11 0.331818 0.446852 0.881922
O O12 0.294277 0.500000 0.500000
O O13 0.250000 0.750000 0.466415
O O14 0.250000 0.750000 0.055956
O O15 0.214296 0.500000 0.000000
#
# Coordination Sequence:
#
# PCOD9324257 Si02
#       6
#     8   8   8   8   8   8
#     4  10  24  45  71 100 135 178 222 272 337 402
#     4  10  21  42  66  91 129 182 219 272 326 390
#     4  10  23  40  66  95 129 175 228 270 324 383
#     4  10  22  43  71 100 131 176 225 270 328 396
#     4  12  27  38  57  94 134 176 225 280 326 379
#     4  12  28  47  72 102 135 174 214 277 346 410
#
# _framework density 20.452200999999999
#
# number of rings (size 3 to 8) (size 9 to 14) (size 15 to 20)
#    0.000    1.333    3.333    0.500    9.333    1.333 
#    0.000    4.167    0.000    0.000    0.000    0.000 
#    0.000    0.000    0.000    0.000    0.000    0.000 
#
# Total GULP energy -134030.666458 kJ/mol
# GULP energy per Si atom -5584.611102 kJ/mol
# Density = 2.040565 g / cm^3
# Si number density = 20.452201 Si / 1000 Ang^3
#
#
#
# Elastic Constant Matrix: (Units=GPa)
#
#
# Indices 1 2 3 4 5 6 
#
# 1 47.0037 27.3734 19.6277 0.0000 0.0000 0.0000
# 2 27.3734 184.1065 35.4122 0.0000 0.0000 0.0000
# 3 19.6277 35.4122 65.1250 0.0000 0.0000 0.0000
# 4 0.0000 0.0000 0.0000 24.9740 0.0000 0.0000
# 5 0.0000 0.0000 0.0000 0.0000 154.5959 0.0000
# 6 0.0000 0.0000 0.0000 0.0000 0.0000 23.2127
#
#
#
# Elastic Compliance Matrix: (Units=1/GPa)
#
#
# Indices 1 2 3 4 5 6 
#
# 1 0.025383 -0.002572 -0.006252 0.000000 0.000000 0.000000
# 2 -0.002572 0.006327 -0.002665 0.000000 0.000000 0.000000
# 3 -0.006252 -0.002665 0.018688 0.000000 0.000000 0.000000
# 4 0.000000 0.000000 0.000000 0.040042 0.000000 0.000000
# 5 0.000000 0.000000 0.000000 0.000000 0.006468 0.000000
# 6 0.000000 0.000000 0.000000 0.000000 0.000000 0.043080
#
#
# Mechanical properties :
#
#
# Convention : Reuss Voigt Hill
#
# Bulk Modulus (GPa) = 36.46801 51.22909 43.84855
# Shear Modulus (GPa) = 29.05194 54.81131 41.93163
#
# Velocity S-wave (km/s) = 3.77301 5.18246 4.53285
# Velocity P-wave (km/s) = 6.07045 7.80468 6.99155
#
# Compressibility (1/GPa) = 0.02742130
#
# Stress axis : x y z
#
# Youngs Moduli (GPa) = 39.39633 158.06265 53.50891
#
# Poissons Ratio (x) = 0.40646 0.33453
# Poissons Ratio (y) = 0.10131 0.14261
# Poissons Ratio (z) = 0.24630 0.42126
#
# Static dielectric constant tensor:
#      x y z
#    x 1.803280 0.000000 0.000000 
#    y 0.000000 1.606960 0.000000 
#    z 0.000000 0.000000 1.687210 
# 
# From -- ./inp_files/32819.got.cif
#   From: 2010.05.17/outbox.cif.g08.bks.cpg/sg21_17_cif.got.tgz:32819.got - 2010.06.03 23:14:55.
