data_PCOD9324261
_publ_section_title
;
Structure prediction by ZEFSAII (Michael W. Deem and Ramdas Pophale) SiO2 
 PCOD9324261
Probable space group: C 2 2 2
;
_chemical_formula_sum "Si O2"
_cell_formula_units_Z 64
_cell_length_a 15.986527
_cell_length_b 8.549912
_cell_length_c 21.855442
_cell_angle_alpha 90.000000
_cell_angle_beta 90.000000
_cell_angle_gamma 90.000000
_cell_volume 2987.276100
_symmetry_space_group_name_H-M "C 2 2 2"
_symmetry_group_IT_number 21
_symmetry_cell_setting 'orthorhombic'
loop_
_space_group_symop_operation_xyz
x,y,z
-x,-y,z
x,-y,-z
-x,y,-z
1/2+x,1/2+y,z
1/2-x,1/2-y,z
1/2+x,1/2-y,-z
1/2-x,1/2+y,-z
loop_
_atom_site_type_symbol
_atom_site_label
_atom_site_fract_x
_atom_site_fract_y
_atom_site_fract_z
Si Si1 0.929640 0.113735 0.125983
Si Si2 0.430858 0.872626 0.632253
Si Si3 0.703832 0.889525 0.754293
Si Si4 0.259937 0.430567 0.142300
Si Si5 0.827344 0.644038 0.958044
Si Si6 0.754470 0.066725 0.648309
Si Si7 0.482895 0.176952 0.758713
Si Si8 0.416101 0.431666 0.432206
O O1 0.892122 0.238960 0.076772
O O2 0.972211 0.203825 0.184361
O O3 0.854125 0.998582 0.148224
O O4 0.000000 0.000000 0.098208
O O5 0.340773 0.952953 0.628422
O O6 0.453940 0.797977 0.700429
O O7 0.431364 0.750797 0.577168
O O8 0.500000 0.000000 0.624149
O O9 0.750000 0.750000 0.789607
O O10 0.612448 0.838301 0.734408
O O11 0.704756 0.039946 0.797087
O O12 0.765033 0.939375 0.700469
O O13 0.250000 0.250000 0.126707
O O14 0.218408 0.543153 0.093403
O O15 0.750000 0.750000 0.985500
O O16 0.862082 0.500000 0.000000
O O17 0.750000 0.250000 0.668322
O O18 0.828182 0.042570 0.600915
O O19 0.500000 0.000000 0.782129
O O20 0.500000 0.500000 0.401605
O O21 0.411639 0.500000 0.500000
#
# Coordination Sequence:
#
# PCOD9324261 Si02
#       8
#     8   8   8   8   8   8   8   8
#     4  11  25  41  66 108 145 187 238 298 374 438
#     4  10  21  42  67  98 131 179 232 282 355 435
#     4  12  21  38  61 103 142 176 231 289 347 435
#     4  11  23  40  66  99 140 186 239 289 357 430
#     4  10  21  44  73 101 133 188 251 302 358 430
#     4  10  22  40  65  97 131 175 229 282 349 434
#     4  11  22  40  67 101 149 184 229 298 372 437
#     4  10  24  45  65  93 134 173 229 292 355 425
#
# _framework density 21.424199999999999
#
# number of rings (size 3 to 8) (size 9 to 14) (size 15 to 20)
#    0.000    1.375    5.000    1.125    3.500    2.500 
#    0.000   10.625    0.000   29.625    0.000    0.000 
#    0.000    0.000    0.000    0.000    0.000    0.000 
#
# Total GULP energy -178158.881447 kJ/mol
# GULP energy per Si atom -5567.465045 kJ/mol
# Density = 2.137544 g / cm^3
# Si number density = 21.424200 Si / 1000 Ang^3
#
#
#
# Elastic Constant Matrix: (Units=GPa)
#
#
# Indices 1 2 3 4 5 6 
#
# 1 131.4500 49.2063 32.3185 0.0000 0.0000 0.0000
# 2 49.2063 117.1060 52.8015 0.0000 0.0000 0.0000
# 3 32.3185 52.8015 71.0739 0.0000 0.0000 0.0000
# 4 0.0000 0.0000 0.0000 21.4130 0.0000 0.0000
# 5 0.0000 0.0000 0.0000 0.0000 8.1275 0.0000
# 6 0.0000 0.0000 0.0000 0.0000 0.0000 37.7077
#
#
#
# Elastic Compliance Matrix: (Units=1/GPa)
#
#
# Indices 1 2 3 4 5 6 
#
# 1 0.009208 -0.002979 -0.001974 0.000000 0.000000 0.000000
# 2 -0.002979 0.013804 -0.008901 0.000000 0.000000 0.000000
# 3 -0.001974 -0.008901 0.021580 0.000000 0.000000 0.000000
# 4 0.000000 0.000000 0.000000 0.046701 0.000000 0.000000
# 5 0.000000 0.000000 0.000000 0.000000 0.123039 0.000000
# 6 0.000000 0.000000 0.000000 0.000000 0.000000 0.026520
#
#
# Mechanical properties :
#
#
# Convention : Reuss Voigt Hill
#
# Bulk Modulus (GPa) = 59.22476 65.36471 62.29473
# Shear Modulus (GPa) = 18.23573 25.80321 22.01947
#
# Velocity S-wave (km/s) = 2.92065 3.47421 3.20939
# Velocity P-wave (km/s) = 6.25120 6.83150 6.54778
#
# Compressibility (1/GPa) = 0.01688483
#
# Stress axis : x y z
#
# Youngs Moduli (GPa) = 108.60230 72.44164 46.33973
#
# Poissons Ratio (x) = 0.21581 0.09147
# Poissons Ratio (y) = 0.32353 0.41245
# Poissons Ratio (z) = 0.21436 0.64478
#
# Static dielectric constant tensor:
#      x y z
#    x 1.824830 0.000000 0.000000 
#    y 0.000000 1.927370 0.000000 
#    z 0.000000 0.000000 1.830470 
# 
# From -- ./inp_files/38753.got.cif
#   From: 2010.05.17/outbox.cif.g08.bks.cpg/sg21_20_cif.got.tgz:38753.got - 2010.06.03 23:14:55.
