data_PCOD9324756
_publ_section_title
;
Structure prediction by ZEFSAII (Michael W. Deem and Ramdas Pophale) SiO2 
 PCOD9324756
Probable space group: C 2 2 2
;
_chemical_formula_sum "Si O2"
_cell_formula_units_Z 54
_cell_length_a 14.239464
_cell_length_b 11.418430
_cell_length_c 15.160201
_cell_angle_alpha 90.000000
_cell_angle_beta 90.000000
_cell_angle_gamma 90.000000
_cell_volume 2464.932297
_symmetry_space_group_name_H-M "C 2 2 2"
_symmetry_group_IT_number 21
_symmetry_cell_setting 'orthorhombic'
loop_
_space_group_symop_operation_xyz
x,y,z
-x,-y,z
x,-y,-z
-x,y,-z
1/2+x,1/2+y,z
1/2-x,1/2-y,z
1/2+x,1/2-y,-z
1/2-x,1/2+y,-z
loop_
_atom_site_type_symbol
_atom_site_label
_atom_site_fract_x
_atom_site_fract_y
_atom_site_fract_z
Si Si1 0.865134 0.663185 0.111833
Si Si2 0.406352 0.060976 0.594961
Si Si3 0.293095 0.905642 0.697001
Si Si4 0.390466 0.488721 0.735890
Si Si5 0.500000 0.000000 0.000000
Si Si6 0.750000 0.750000 0.448938
Si Si7 0.410571 0.665783 0.439139
Si Si8 0.838947 0.928578 0.083498
O O1 0.842977 0.635863 0.214542
O O2 0.886752 0.802122 0.102972
O O3 0.767312 0.617907 0.068509
O O4 0.942058 0.584654 0.064870
O O5 0.422492 0.197079 0.581666
O O6 0.500000 0.000000 0.630984
O O7 0.388969 0.000000 0.500000
O O8 0.325843 0.033027 0.665482
O O9 0.317095 0.822526 0.615563
O O10 0.179734 0.907879 0.703251
O O11 0.500000 0.500000 0.756722
O O12 0.395902 0.401496 0.652518
O O13 0.344240 0.481498 0.833626
O O14 0.686644 0.663150 0.506288
O O15 0.500000 0.629520 0.500000
O O16 0.874186 0.000000 0.000000
#
# Coordination Sequence:
#
# PCOD9324756 Si02
#       8
#     8   8   8   8   2   4   8   8
#     4  10  24  45  74 110 145 177 230 303 365 442
#     4  11  21  41  63  91 128 179 235 282 350 415
#     4  11  23  42  65  94 137 186 230 283 350 436
#     4  11  26  43  63  99 138 180 243 284 354 423
#     4  12  24  48  78 124 136 176 240 306 388 424
#     4  12  22  38  68  90 130 192 234 268 354 410
#     4  12  24  40  63  97 135 179 236 302 342 413
#     4  10  22  50  77 102 144 192 233 293 377 447
#
# _framework density 21.907295999999999
#
# number of rings (size 3 to 8) (size 9 to 14) (size 15 to 20)
#    0.000    1.037    3.704    3.556    1.037    4.148 
#    2.667    1.481    0.000    0.000    0.000    0.000 
#    0.000    0.000    0.000    0.000    0.000    0.000 
#
# Total GULP energy -150502.403416 kJ/mol
# GULP energy per Si atom -5574.163089 kJ/mol
# Density = 2.185743 g / cm^3
# Si number density = 21.907296 Si / 1000 Ang^3
#
#
#
# Elastic Constant Matrix: (Units=GPa)
#
#
# Indices 1 2 3 4 5 6 
#
# 1 87.3632 29.8540 33.2682 0.0000 0.0000 0.0000
# 2 29.8540 119.0998 81.9282 0.0000 0.0000 0.0000
# 3 33.2682 81.9282 122.2069 0.0000 0.0000 0.0000
# 4 0.0000 0.0000 0.0000 39.9346 0.0000 0.0000
# 5 0.0000 0.0000 0.0000 0.0000 13.5861 0.0000
# 6 0.0000 0.0000 0.0000 0.0000 0.0000 21.7039
#
#
#
# Elastic Compliance Matrix: (Units=1/GPa)
#
#
# Indices 1 2 3 4 5 6 
#
# 1 0.012917 -0.001520 -0.002497 0.000000 0.000000 0.000000
# 2 -0.001520 0.015761 -0.010153 0.000000 0.000000 0.000000
# 3 -0.002497 -0.010153 0.015669 0.000000 0.000000 0.000000
# 4 0.000000 0.000000 0.000000 0.025041 0.000000 0.000000
# 5 0.000000 0.000000 0.000000 0.000000 0.073605 0.000000
# 6 0.000000 0.000000 0.000000 0.000000 0.000000 0.046075
#
#
# Mechanical properties :
#
#
# Convention : Reuss Voigt Hill
#
# Bulk Modulus (GPa) = 62.47128 68.75230 65.61179
# Shear Modulus (GPa) = 22.44734 27.28621 24.86678
#
# Velocity S-wave (km/s) = 3.20449 3.53304 3.37277
# Velocity P-wave (km/s) = 6.50152 6.93502 6.72177
#
# Compressibility (1/GPa) = 0.01600735
#
# Stress axis : x y z
#
# Youngs Moduli (GPa) = 77.41822 63.44652 63.81960
#
# Poissons Ratio (x) = 0.09643 0.15939
# Poissons Ratio (y) = 0.11766 0.64794
# Poissons Ratio (z) = 0.19335 0.64416
#
# Static dielectric constant tensor:
#      x y z
#    x 1.893690 0.000000 0.000000 
#    y 0.000000 1.837260 0.000000 
#    z 0.000000 0.000000 1.824200 
# 
# From -- ./inp_files/32355.got.cif
#   From: 2010.05.17/outbox.cif.g08.bks.cpg/sg21_17_cif.got.tgz:32355.got - 2010.06.03 23:14:55.
