data_PCOD9324528
_publ_section_title
;
Structure prediction by ZEFSAII (Michael W. Deem and Ramdas Pophale) SiO2 
 PCOD9324528
Probable space group: C 2 2 2
;
_chemical_formula_sum "Si O2"
_cell_formula_units_Z 40
_cell_length_a 23.165000
_cell_length_b 16.035884
_cell_length_c 4.975584
_cell_angle_alpha 90.000000
_cell_angle_beta 90.000000
_cell_angle_gamma 90.000000
_cell_volume 1848.286422
_symmetry_space_group_name_H-M "C 2 2 2"
_symmetry_group_IT_number 21
_symmetry_cell_setting 'orthorhombic'
loop_
_space_group_symop_operation_xyz
x,y,z
-x,-y,z
x,-y,-z
-x,y,-z
1/2+x,1/2+y,z
1/2-x,1/2-y,z
1/2+x,1/2-y,-z
1/2-x,1/2+y,-z
loop_
_atom_site_type_symbol
_atom_site_label
_atom_site_fract_x
_atom_site_fract_y
_atom_site_fract_z
Si Si1 0.051224 0.717322 0.778063
Si Si2 0.684964 0.441426 0.249814
Si Si3 0.614000 0.721668 0.726182
Si Si4 0.211722 0.328045 0.941120
Si Si5 0.624597 0.939885 0.250285
O O1 0.062398 0.757405 0.481901
O O2 0.070692 0.622529 0.721311
O O3 0.096082 0.768998 0.962754
O O4 0.000000 0.713978 0.000000
O O5 0.694151 0.500000 0.500000
O O6 0.638455 0.370041 0.316409
O O7 0.743507 0.392482 0.183665
O O8 0.668179 0.500000 0.000000
O O9 0.666125 0.789740 0.724701
O O10 0.250000 0.250000 0.044111
O O11 0.176868 0.379108 0.164790
O O12 0.635198 0.000000 0.500000
O O13 0.614055 0.000000 0.000000
#
# Coordination Sequence:
#
# PCOD9324528 Si02
#       5
#     8   8   8   8   8
#     4  11  23  42  66  90 117 163 213 258 317 381
#     4  11  23  38  61  93 128 166 208 255 311 373
#     4  10  22  41  63  89 125 163 209 261 306 370
#     4   9  21  39  60  91 132 179 217 248 301 380
#     4  11  23  40  61  90 130 165 205 265 318 366
#
# _framework density 21.641666000000001
#
# number of rings (size 3 to 8) (size 9 to 14) (size 15 to 20)
#    0.000    1.600    0.000    4.800    0.000    8.400 
#    0.000   17.000    0.000    9.000    0.000    0.000 
#    0.000    0.000    0.000    0.000    0.000    0.000 
#
# Total GULP energy -111620.720540 kJ/mol
# GULP energy per Si atom -5581.036027 kJ/mol
# Density = 2.159241 g / cm^3
# Si number density = 21.641666 Si / 1000 Ang^3
#
#
#
# Elastic Constant Matrix: (Units=GPa)
#
#
# Indices 1 2 3 4 5 6 
#
# 1 61.6832 37.6809 18.2548 0.0000 0.0000 0.0000
# 2 37.6809 146.2781 63.1242 0.0000 0.0000 0.0000
# 3 18.2548 63.1242 137.8457 0.0000 0.0000 0.0000
# 4 0.0000 0.0000 0.0000 22.3164 0.0000 0.0000
# 5 0.0000 0.0000 0.0000 0.0000 32.7864 0.0000
# 6 0.0000 0.0000 0.0000 0.0000 0.0000 21.0369
#
#
#
# Elastic Compliance Matrix: (Units=1/GPa)
#
#
# Indices 1 2 3 4 5 6 
#
# 1 0.019253 -0.004810 -0.000347 0.000000 0.000000 0.000000
# 2 -0.004810 0.009721 -0.003815 0.000000 0.000000 0.000000
# 3 -0.000347 -0.003815 0.009047 0.000000 0.000000 0.000000
# 4 0.000000 0.000000 0.000000 0.044810 0.000000 0.000000
# 5 0.000000 0.000000 0.000000 0.000000 0.030500 0.000000
# 6 0.000000 0.000000 0.000000 0.000000 0.000000 0.047535
#
#
# Mechanical properties :
#
#
# Convention : Reuss Voigt Hill
#
# Bulk Modulus (GPa) = 49.80490 64.88074 57.34282
# Shear Modulus (GPa) = 26.95363 30.34442 28.64902
#
# Velocity S-wave (km/s) = 3.53292 3.74856 3.64234
# Velocity P-wave (km/s) = 6.30123 6.98429 6.65153
#
# Compressibility (1/GPa) = 0.02007835
#
# Stress axis : x y z
#
# Youngs Moduli (GPa) = 51.94075 102.86487 110.52886
#
# Poissons Ratio (x) = 0.49474 0.03837
# Poissons Ratio (y) = 0.24982 0.42165
# Poissons Ratio (z) = 0.01803 0.39242
#
# Static dielectric constant tensor:
#      x y z
#    x 1.910940 0.000000 0.000000 
#    y 0.000000 1.707630 0.000000 
#    z 0.000000 0.000000 1.755700 
# 
# From -- ./inp_files/6608.got.cif
#   From: 2010.05.17/outbox.cif.g08.bks.cpg/sg21_4_cif.got.tgz:6608.got - 2010.06.03 23:14:55.
