data_PCOD9324903
_publ_section_title
;
Structure prediction by ZEFSAII (Michael W. Deem and Ramdas Pophale) SiO2 
 PCOD9324903
Probable space group: C 2 2 2
;
_chemical_formula_sum "Si O2"
_cell_formula_units_Z 34
_cell_length_a 10.307945
_cell_length_b 11.276155
_cell_length_c 11.906210
_cell_angle_alpha 90.000000
_cell_angle_beta 90.000000
_cell_angle_gamma 90.000000
_cell_volume 1383.906241
_symmetry_space_group_name_H-M "C 2 2 2"
_symmetry_group_IT_number 21
_symmetry_cell_setting 'orthorhombic'
loop_
_space_group_symop_operation_xyz
x,y,z
-x,-y,z
x,-y,-z
-x,y,-z
1/2+x,1/2+y,z
1/2-x,1/2-y,z
1/2+x,1/2-y,-z
1/2-x,1/2+y,-z
loop_
_atom_site_type_symbol
_atom_site_label
_atom_site_fract_x
_atom_site_fract_y
_atom_site_fract_z
Si Si1 0.892922 0.813190 0.593829
Si Si2 0.000000 0.000000 0.000000
Si Si3 0.040230 0.368682 0.775223
Si Si4 0.679538 0.450661 0.195767
Si Si5 0.813121 0.628996 0.064416
O O1 0.750000 0.750000 0.564217
O O2 0.966881 0.720046 0.673827
O O3 0.868419 0.922737 0.679552
O O4 0.000000 0.841562 0.500000
O O5 0.084067 0.925729 0.090455
O O6 0.189805 0.373998 0.809668
O O7 0.000000 0.500000 0.737347
O O8 0.951202 0.342360 0.881231
O O9 0.721862 0.585305 0.169332
O O10 0.750000 0.750000 0.021983
O O11 0.824513 0.500000 0.000000
#
# Coordination Sequence:
#
# PCOD9324903 Si02
#       5
#     8   2   8   8   8
#     4  10  23  48  79 110 151 204 271 341 400 471
#     4  12  24  44  72 108 170 196 264 324 414 460
#     4   9  22  44  74 106 150 202 274 312 394 492
#     4  10  24  46  69 112 153 205 259 328 393 485
#     4  11  25  45  76 113 159 211 266 327 405 491
#
# _framework density 24.568135999999999
#
# number of rings (size 3 to 8) (size 9 to 14) (size 15 to 20)
#    0.000    1.882    1.176    0.000    4.941    7.529 
#    4.235    0.588    0.000    0.000    0.000    0.000 
#    0.000    0.000    0.000    0.000    0.000    0.000 
#
# Total GULP energy -94784.119337 kJ/mol
# GULP energy per Si atom -5575.536432 kJ/mol
# Density = 2.451222 g / cm^3
# Si number density = 24.568136 Si / 1000 Ang^3
#
#
#
# Elastic Constant Matrix: (Units=GPa)
#
#
# Indices 1 2 3 4 5 6 
#
# 1 178.4786 54.1475 96.1830 0.0000 0.0000 0.0000
# 2 54.1475 121.8764 56.5304 0.0000 0.0000 0.0000
# 3 96.1830 56.5304 170.0054 0.0000 0.0000 0.0000
# 4 0.0000 0.0000 0.0000 22.1685 0.0000 0.0000
# 5 0.0000 0.0000 0.0000 0.0000 36.6102 0.0000
# 6 0.0000 0.0000 0.0000 0.0000 0.0000 33.9047
#
#
#
# Elastic Compliance Matrix: (Units=1/GPa)
#
#
# Indices 1 2 3 4 5 6 
#
# 1 0.008383 -0.001802 -0.004143 0.000000 0.000000 0.000000
# 2 -0.001802 0.010089 -0.002335 0.000000 0.000000 0.000000
# 3 -0.004143 -0.002335 0.009003 0.000000 0.000000 0.000000
# 4 0.000000 0.000000 0.000000 0.045109 0.000000 0.000000
# 5 0.000000 0.000000 0.000000 0.000000 0.027315 0.000000
# 6 0.000000 0.000000 0.000000 0.000000 0.000000 0.029494
#
#
# Mechanical properties :
#
#
# Convention : Reuss Voigt Hill
#
# Bulk Modulus (GPa) = 91.63550 98.23135 94.93342
# Shear Modulus (GPa) = 33.42442 36.10332 34.76387
#
# Velocity S-wave (km/s) = 3.69247 3.83759 3.76573
# Velocity P-wave (km/s) = 7.45376 7.72697 7.59160
#
# Compressibility (1/GPa) = 0.01091280
#
# Stress axis : x y z
#
# Youngs Moduli (GPa) = 119.29574 99.11900 111.07819
#
# Poissons Ratio (x) = 0.17866 0.46022
# Poissons Ratio (y) = 0.21503 0.25937
# Poissons Ratio (z) = 0.49426 0.23144
#
# Static dielectric constant tensor:
#      x y z
#    x 2.286460 0.000000 0.000000 
#    y 0.000000 1.953580 0.000000 
#    z 0.000000 0.000000 2.085110 
# 
# From -- ./inp_files/23554.got.cif
#   From: 2010.05.17/outbox.cif.g08.bks.cpg/sg21_12_cif.got.tgz:23554.got - 2010.06.03 23:14:55.
