data_PCOD9324870
_publ_section_title
;
Structure prediction by ZEFSAII (Michael W. Deem and Ramdas Pophale) SiO2 
 PCOD9324870
Probable space group: C 2 2 2
;
_chemical_formula_sum "Si O2"
_cell_formula_units_Z 30
_cell_length_a 14.958399
_cell_length_b 6.899514
_cell_length_c 12.910561
_cell_angle_alpha 90.000000
_cell_angle_beta 90.000000
_cell_angle_gamma 90.000000
_cell_volume 1332.443270
_symmetry_space_group_name_H-M "C 2 2 2"
_symmetry_group_IT_number 21
_symmetry_cell_setting 'orthorhombic'
loop_
_space_group_symop_operation_xyz
x,y,z
-x,-y,z
x,-y,-z
-x,y,-z
1/2+x,1/2+y,z
1/2-x,1/2-y,z
1/2+x,1/2-y,-z
1/2-x,1/2+y,-z
loop_
_atom_site_type_symbol
_atom_site_label
_atom_site_fract_x
_atom_site_fract_y
_atom_site_fract_z
Si Si1 0.786987 0.555858 0.798477
Si Si2 0.000000 0.000000 0.355728
Si Si3 0.389340 0.301958 0.176745
Si Si4 0.000000 0.000000 0.000000
Si Si5 0.091969 0.381454 0.600696
O O1 0.750000 0.750000 0.851294
O O2 0.700274 0.421125 0.797342
O O3 0.864249 0.420525 0.843884
O O4 0.832740 0.611999 0.689085
O O5 0.936077 0.155227 0.414085
O O6 0.051676 0.144223 0.276770
O O7 0.437959 0.378299 0.075893
O O8 0.125192 0.500000 0.500000
O O9 0.000000 0.500000 0.626030
#
# Coordination Sequence:
#
# PCOD9324870 Si02
#       5
#     8   4   8   2   8
#     4  11  22  45  70 103 146 189 229 291 367 418
#     4  11  20  44  73  94 144 194 241 295 357 417
#     4  10  23  44  74 103 138 187 232 293 371 430
#     4  10  24  52  72 112 140 178 246 298 364 450
#     4  11  24  42  65 105 143 194 249 288 343 416
#
# _framework density 22.515031
#
# number of rings (size 3 to 8) (size 9 to 14) (size 15 to 20)
#    0.000    1.333    5.333    0.000    0.000    2.133 
#    9.600    1.333    0.000    0.000    0.000    0.000 
#    0.000    0.000    0.000    0.000    0.000    0.000 
#
# Total GULP energy -83619.711295 kJ/mol
# GULP energy per Si atom -5574.647420 kJ/mol
# Density = 2.246379 g / cm^3
# Si number density = 22.515031 Si / 1000 Ang^3
#
#
#
# Elastic Constant Matrix: (Units=GPa)
#
#
# Indices 1 2 3 4 5 6 
#
# 1 72.1424 33.9637 34.0193 0.0000 0.0000 0.0000
# 2 33.9637 189.8190 57.3508 0.0000 0.0000 0.0000
# 3 34.0193 57.3508 70.4994 0.0000 0.0000 0.0000
# 4 0.0000 0.0000 0.0000 11.3705 0.0000 0.0000
# 5 0.0000 0.0000 0.0000 0.0000 23.0886 0.0000
# 6 0.0000 0.0000 0.0000 0.0000 0.0000 16.8023
#
#
#
# Elastic Compliance Matrix: (Units=1/GPa)
#
#
# Indices 1 2 3 4 5 6 
#
# 1 0.018034 -0.000792 -0.008058 0.000000 0.000000 0.000000
# 2 -0.000792 0.007020 -0.005328 0.000000 0.000000 0.000000
# 3 -0.008058 -0.005328 0.022407 0.000000 0.000000 0.000000
# 4 0.000000 0.000000 0.000000 0.087947 0.000000 0.000000
# 5 0.000000 0.000000 0.000000 0.000000 0.043311 0.000000
# 6 0.000000 0.000000 0.000000 0.000000 0.000000 0.059516
#
#
# Mechanical properties :
#
#
# Convention : Reuss Voigt Hill
#
# Bulk Modulus (GPa) = 52.34350 64.79205 58.56778
# Shear Modulus (GPa) = 18.31770 24.06075 21.18923
#
# Velocity S-wave (km/s) = 2.85542 3.27257 3.07109
# Velocity P-wave (km/s) = 5.84551 6.56653 6.21648
#
# Compressibility (1/GPa) = 0.01910457
#
# Stress axis : x y z
#
# Youngs Moduli (GPa) = 55.45018 142.45467 44.62825
#
# Poissons Ratio (x) = 0.11286 0.35961
# Poissons Ratio (y) = 0.04393 0.23779
# Poissons Ratio (z) = 0.44681 0.75903
#
# Static dielectric constant tensor:
#      x y z
#    x 1.841610 0.000000 0.000000 
#    y 0.000000 1.907810 0.000000 
#    z 0.000000 0.000000 1.851120 
# 
# From -- ./inp_files/32556.got.cif
#   From: 2010.05.17/outbox.cif.g08.bks.cpg/sg21_17_cif.got.tgz:32556.got - 2010.06.03 23:14:55.
