data_PCOD9324864
_publ_section_title
;
Structure prediction by ZEFSAII (Michael W. Deem and Ramdas Pophale) SiO2 
 PCOD9324864
Probable space group: C 2 2 2
;
_chemical_formula_sum "Si O2"
_cell_formula_units_Z 34
_cell_length_a 15.611003
_cell_length_b 11.971475
_cell_length_c 7.752716
_cell_angle_alpha 90.000000
_cell_angle_beta 90.000000
_cell_angle_gamma 90.000000
_cell_volume 1448.879758
_symmetry_space_group_name_H-M "C 2 2 2"
_symmetry_group_IT_number 21
_symmetry_cell_setting 'orthorhombic'
loop_
_space_group_symop_operation_xyz
x,y,z
-x,-y,z
x,-y,-z
-x,y,-z
1/2+x,1/2+y,z
1/2-x,1/2-y,z
1/2+x,1/2-y,-z
1/2-x,1/2+y,-z
loop_
_atom_site_type_symbol
_atom_site_label
_atom_site_fract_x
_atom_site_fract_y
_atom_site_fract_z
Si Si1 0.283970 0.000000 0.500000
Si Si2 0.999503 0.837618 0.707242
Si Si3 0.696226 0.000000 0.000000
Si Si4 0.424466 0.909023 0.300726
Si Si5 0.000000 0.000000 0.000000
Si Si6 0.697913 0.357777 0.774841
O O1 0.352993 0.904619 0.451434
O O2 0.222849 0.959066 0.649472
O O3 0.098011 0.836535 0.768926
O O4 0.000000 0.868041 0.500000
O O5 0.962215 0.713378 0.722168
O O6 0.956410 0.918213 0.853944
O O7 0.758244 0.898110 0.049463
O O8 0.632109 0.043149 0.145906
O O9 0.500000 0.000000 0.324124
O O10 0.750000 0.250000 0.716244
#
# Coordination Sequence:
#
# PCOD9324864 Si02
#       6
#     4   8   4   8   2   8
#     4  10  23  44  69 108 136 180 246 302 367 430
#     4  12  27  49  75 106 149 200 252 300 366 451
#     4  10  24  44  70 110 146 182 244 306 374 436
#     4  11  22  42  77 111 139 184 247 314 368 434
#     4  12  32  44  70 104 148 196 252 298 358 442
#     4  11  24  44  70  99 144 187 233 301 372 435
#
# _framework density 23.466407
#
# number of rings (size 3 to 8) (size 9 to 14) (size 15 to 20)
#    0.000    0.941    0.000    7.412    9.882    0.000 
#    0.000    2.353    0.000    0.000    0.000    0.000 
#    0.000    0.000    0.000    0.000    0.000    0.000 
#
# Total GULP energy -94874.146208 kJ/mol
# GULP energy per Si atom -5580.832130 kJ/mol
# Density = 2.341300 g / cm^3
# Si number density = 23.466407 Si / 1000 Ang^3
#
#
#
# Elastic Constant Matrix: (Units=GPa)
#
#
# Indices 1 2 3 4 5 6 
#
# 1 142.0006 25.2713 29.9110 0.0000 0.0000 0.0000
# 2 25.2713 124.9594 18.6205 0.0000 0.0000 0.0000
# 3 29.9110 18.6205 109.1073 0.0000 0.0000 0.0000
# 4 0.0000 0.0000 0.0000 29.8662 0.0000 0.0000
# 5 0.0000 0.0000 0.0000 0.0000 23.6037 0.0000
# 6 0.0000 0.0000 0.0000 0.0000 0.0000 -37.3709
#
#
#
# Elastic Compliance Matrix: (Units=1/GPa)
#
#
# Indices 1 2 3 4 5 6 
#
# 1 0.007665 -0.001269 -0.001885 0.000000 0.000000 0.000000
# 2 -0.001269 0.008422 -0.001089 0.000000 0.000000 0.000000
# 3 -0.001885 -0.001089 0.009868 0.000000 0.000000 0.000000
# 4 0.000000 0.000000 0.000000 0.033483 0.000000 0.000000
# 5 0.000000 0.000000 0.000000 0.000000 0.042366 0.000000
# 6 0.000000 0.000000 0.000000 0.000000 0.000000 -0.026759
#
#
# Mechanical properties :
#
#
# Convention : Reuss Voigt Hill
#
# Bulk Modulus (GPa) = 57.24758 58.18587 57.71673
# Shear Modulus (GPa) = 55.95720 23.37076 39.66398
#
# Velocity S-wave (km/s) = 4.88850 3.15925 4.11572
# Velocity P-wave (km/s) = 7.50412 6.17714 6.87273
#
# Compressibility (1/GPa) = 0.01746799
#
# Stress axis : x y z
#
# Youngs Moduli (GPa) = 130.46116 118.74205 101.33896
#
# Poissons Ratio (x) = 0.15072 0.19100
# Poissons Ratio (y) = 0.16560 0.11039
# Poissons Ratio (z) = 0.24588 0.12934
#
# Static dielectric constant tensor:
#      x y z
#    x 1.849480 0.000000 0.000000 
#    y 0.000000 1.896760 0.000000 
#    z 0.000000 0.000000 2.122920 
# 
# From -- ./inp_files/14178.got.cif
#   From: 2010.05.17/outbox.cif.g08.bks.cpg/sg21_8_cif.got.tgz:14178.got - 2010.06.03 23:14:55.
