data_PCOD9324144
_publ_section_title
;
Structure prediction by ZEFSAII (Michael W. Deem and Ramdas Pophale) SiO2 
 PCOD9324144
Probable space group: C 2 2 2
;
_chemical_formula_sum "Si O2"
_cell_formula_units_Z 64
_cell_length_a 24.680335
_cell_length_b 14.624553
_cell_length_c 9.216556
_cell_angle_alpha 90.000000
_cell_angle_beta 90.000000
_cell_angle_gamma 90.000000
_cell_volume 3326.613283
_symmetry_space_group_name_H-M "C 2 2 2"
_symmetry_group_IT_number 21
_symmetry_cell_setting 'orthorhombic'
loop_
_space_group_symop_operation_xyz
x,y,z
-x,-y,z
x,-y,-z
-x,y,-z
1/2+x,1/2+y,z
1/2-x,1/2-y,z
1/2+x,1/2-y,-z
1/2-x,1/2+y,-z
loop_
_atom_site_type_symbol
_atom_site_label
_atom_site_fract_x
_atom_site_fract_y
_atom_site_fract_z
Si Si1 0.253502 0.858423 0.712576
Si Si2 0.760775 0.641133 0.624057
Si Si3 0.957581 0.751787 0.136165
Si Si4 0.015316 0.397839 0.668178
Si Si5 0.359639 0.880928 0.888467
Si Si6 0.942815 0.966458 0.166998
Si Si7 0.666148 0.504550 0.672789
Si Si8 0.130669 0.569604 0.225825
O O1 0.250000 0.750000 0.709522
O O2 0.269082 0.883734 0.546327
O O3 0.297628 0.875625 0.836707
O O4 0.198501 0.915423 0.731845
O O5 0.750000 0.750000 0.636531
O O6 0.708392 0.588299 0.687093
O O7 0.813923 0.603686 0.703290
O O8 0.898146 0.706717 0.119433
O O9 0.946622 0.856879 0.173562
O O10 0.985593 0.685360 0.252845
O O11 0.000000 0.749101 0.000000
O O12 0.079219 0.386509 0.696549
O O13 0.000000 0.500000 0.726442
O O14 0.000000 0.396897 0.500000
O O15 0.379385 0.960513 0.778687
O O16 0.364967 0.907524 0.055999
O O17 0.890895 0.007722 0.247256
O O18 0.000000 0.000000 0.229519
O O19 0.940110 0.000000 0.000000
O O20 0.656409 0.500000 0.500000
#
# Coordination Sequence:
#
# PCOD9324144 Si02
#       8
#     8   8   8   8   8   8   8   8
#     4  10  21  40  63  95 126 169 221 268 335 407
#     4  10  23  40  65  94 130 172 217 274 337 404
#     4  12  23  44  68  94 134 176 224 282 336 404
#     4  11  25  42  64  99 136 176 217 272 339 409
#     4  11  23  36  65  94 128 172 214 269 331 397
#     4  11  25  46  69  97 127 177 231 283 344 399
#     4  10  22  43  65  92 134 174 219 284 344 406
#     4  11  23  39  60  95 134 170 217 265 330 403
#
# _framework density 19.238786000000001
#
# number of rings (size 3 to 8) (size 9 to 14) (size 15 to 20)
#    0.000    1.250    5.000    0.750    1.750    4.000 
#    2.250    0.000    0.000    0.000    0.000    0.000 
#    0.000    0.000    0.000    0.000    0.000    0.000 
#
# Total GULP energy -178426.106401 kJ/mol
# GULP energy per Si atom -5575.815825 kJ/mol
# Density = 1.919500 g / cm^3
# Si number density = 19.238786 Si / 1000 Ang^3
#
#
#
# Elastic Constant Matrix: (Units=GPa)
#
#
# Indices 1 2 3 4 5 6 
#
# 1 164.1597 38.8232 51.7299 0.0000 0.0000 0.0000
# 2 38.8232 101.5393 19.2993 0.0000 0.0000 0.0000
# 3 51.7299 19.2993 50.6258 0.0000 0.0000 0.0000
# 4 0.0000 0.0000 0.0000 23.0326 0.0000 0.0000
# 5 0.0000 0.0000 0.0000 0.0000 42.9523 0.0000
# 6 0.0000 0.0000 0.0000 0.0000 0.0000 29.1478
#
#
#
# Elastic Compliance Matrix: (Units=1/GPa)
#
#
# Indices 1 2 3 4 5 6 
#
# 1 0.009309 -0.001888 -0.008792 0.000000 0.000000 0.000000
# 2 -0.001888 0.011001 -0.002264 0.000000 0.000000 0.000000
# 3 -0.008792 -0.002264 0.029600 0.000000 0.000000 0.000000
# 4 0.000000 0.000000 0.000000 0.043417 0.000000 0.000000
# 5 0.000000 0.000000 0.000000 0.000000 0.023282 0.000000
# 6 0.000000 0.000000 0.000000 0.000000 0.000000 0.034308
#
#
# Mechanical properties :
#
#
# Convention : Reuss Voigt Hill
#
# Bulk Modulus (GPa) = 41.63152 59.55884 50.59518
# Shear Modulus (GPa) = 27.05472 32.79137 29.92305
#
# Velocity S-wave (km/s) = 3.75408 4.13297 3.94807
# Velocity P-wave (km/s) = 6.36217 7.33486 6.86576
#
# Compressibility (1/GPa) = 0.02402026
#
# Stress axis : x y z
#
# Youngs Moduli (GPa) = 107.42697 90.90346 33.78421
#
# Poissons Ratio (x) = 0.17163 0.29703
# Poissons Ratio (y) = 0.20283 0.07650
# Poissons Ratio (z) = 0.94449 0.20584
#
# Static dielectric constant tensor:
#      x y z
#    x 1.650350 0.000000 0.000000 
#    y 0.000000 1.709090 0.000000 
#    z 0.000000 0.000000 1.654280 
# 
# From -- ./inp_files/18643.got.cif
#   From: 2010.05.17/outbox.cif.g08.bks.cpg/sg21_10_cif.got.tgz:18643.got - 2010.06.03 23:14:55.
