data_PCOD9324125
_publ_section_title
;
Structure prediction by ZEFSAII (Michael W. Deem and Ramdas Pophale) SiO2 
 PCOD9324125
Probable space group: C 2 2 2
;
_chemical_formula_sum "Si O2"
_cell_formula_units_Z 48
_cell_length_a 7.355292
_cell_length_b 15.076584
_cell_length_c 18.280646
_cell_angle_alpha 90.000000
_cell_angle_beta 90.000000
_cell_angle_gamma 90.000000
_cell_volume 2027.189785
_symmetry_space_group_name_H-M "C 2 2 2"
_symmetry_group_IT_number 21
_symmetry_cell_setting 'orthorhombic'
loop_
_space_group_symop_operation_xyz
x,y,z
-x,-y,z
x,-y,-z
-x,y,-z
1/2+x,1/2+y,z
1/2-x,1/2-y,z
1/2+x,1/2-y,-z
1/2-x,1/2+y,-z
loop_
_atom_site_type_symbol
_atom_site_label
_atom_site_fract_x
_atom_site_fract_y
_atom_site_fract_z
Si Si1 0.000000 0.500000 0.000000
Si Si2 0.617378 0.167562 0.408596
Si Si3 0.750000 0.250000 0.646922
Si Si4 0.500000 0.000000 0.500000
Si Si5 0.147748 0.894092 0.767515
Si Si6 0.523483 0.674706 0.083219
Si Si7 0.606012 0.145141 0.109435
Si Si8 0.783712 0.580653 0.744299
O O1 0.105493 0.436702 0.945388
O O2 0.750000 0.250000 0.430552
O O3 0.413882 0.208689 0.401182
O O4 0.674205 0.133903 0.328495
O O5 0.614356 0.073663 0.453422
O O6 0.818882 0.177434 0.704729
O O7 0.150604 0.869476 0.854978
O O8 0.931836 0.909714 0.759394
O O9 0.282326 0.974200 0.746295
O O10 0.539364 0.781996 0.082091
O O11 0.317117 0.670745 0.110422
O O12 0.500000 0.640780 0.000000
O O13 0.584404 0.119265 0.193350
#
# Coordination Sequence:
#
# PCOD9324125 Si02
#       8
#     2   8   4   2   8   8   8   8
#     4  12  24  38  50  96 124 184 252 330 408 474
#     4  12  27  54  85 122 173 207 265 330 388 481
#     4  12  24  44  84 118 148 214 264 314 402 462
#     4  12  32  54  86 134 164 228 260 304 414 492
#     4  10  22  39  70 109 138 194 268 314 403 462
#     4  10  21  40  57  83 131 193 245 317 394 475
#     4  10  23  37  60  84 130 182 244 314 399 455
#     4  10  22  46  69 103 147 192 247 338 378 457
#
# _framework density 23.678097999999999
#
# number of rings (size 3 to 8) (size 9 to 14) (size 15 to 20)
#    0.000    1.333    2.500    2.000    5.833    4.667 
#    0.000    0.833    0.000    0.000    0.000    0.000 
#    0.000    0.000    0.000    0.000    0.000    0.000 
#
# Total GULP energy -133765.104940 kJ/mol
# GULP energy per Si atom -5573.546039 kJ/mol
# Density = 2.362421 g / cm^3
# Si number density = 23.678098 Si / 1000 Ang^3
#
#
#
# Elastic Constant Matrix: (Units=GPa)
#
#
# Indices 1 2 3 4 5 6 
#
# 1 70.1684 24.7843 16.3066 0.0000 0.0000 0.0000
# 2 24.7843 118.5534 52.3523 0.0000 0.0000 0.0000
# 3 16.3066 52.3523 108.5103 0.0000 0.0000 0.0000
# 4 0.0000 0.0000 0.0000 29.4131 0.0000 0.0000
# 5 0.0000 0.0000 0.0000 0.0000 30.8817 0.0000
# 6 0.0000 0.0000 0.0000 0.0000 0.0000 -70.1517
#
#
#
# Elastic Compliance Matrix: (Units=1/GPa)
#
#
# Indices 1 2 3 4 5 6 
#
# 1 0.015468 -0.002805 -0.000971 0.000000 0.000000 0.000000
# 2 -0.002805 0.011227 -0.004995 0.000000 0.000000 0.000000
# 3 -0.000971 -0.004995 0.011772 0.000000 0.000000 0.000000
# 4 0.000000 0.000000 0.000000 0.033999 0.000000 0.000000
# 5 0.000000 0.000000 0.000000 0.000000 0.032382 0.000000
# 6 0.000000 0.000000 0.000000 0.000000 0.000000 -0.014255
#
#
# Mechanical properties :
#
#
# Convention : Reuss Voigt Hill
#
# Bulk Modulus (GPa) = 47.79145 53.79094 50.79120
# Shear Modulus (GPa) = 43.43699 11.61455 27.52577
#
# Velocity S-wave (km/s) = 4.28773 2.21717 3.41324
# Velocity P-wave (km/s) = 6.68883 5.41492 6.08530
#
# Compressibility (1/GPa) = 0.02092424
#
# Stress axis : x y z
#
# Youngs Moduli (GPa) = 64.65037 89.06917 84.94946
#
# Poissons Ratio (x) = 0.24981 0.08251
# Poissons Ratio (y) = 0.18133 0.42434
# Poissons Ratio (z) = 0.06279 0.44492
#
# Static dielectric constant tensor:
#      x y z
#    x 1.925000 0.000000 0.000000 
#    y 0.000000 2.135690 0.000000 
#    z 0.000000 0.000000 2.029660 
# 
# From -- ./inp_files/35747.got.cif
#   From: 2010.05.17/outbox.cif.g08.bks.cpg/sg21_18_cif.got.tgz:35747.got - 2010.06.03 23:14:55.
