data_PCOD9324164
_publ_section_title
;
Structure prediction by ZEFSAII (Michael W. Deem and Ramdas Pophale) SiO2 
 PCOD9324164
Probable space group: C 2 2 2
;
_chemical_formula_sum "Si O2"
_cell_formula_units_Z 28
_cell_length_a 32.655386
_cell_length_b 7.294110
_cell_length_c 5.215511
_cell_angle_alpha 90.000000
_cell_angle_beta 90.000000
_cell_angle_gamma 90.000000
_cell_volume 1242.292879
_symmetry_space_group_name_H-M "C 2 2 2"
_symmetry_group_IT_number 21
_symmetry_cell_setting 'orthorhombic'
loop_
_space_group_symop_operation_xyz
x,y,z
-x,-y,z
x,-y,-z
-x,y,-z
1/2+x,1/2+y,z
1/2-x,1/2-y,z
1/2+x,1/2-y,-z
1/2-x,1/2+y,-z
loop_
_atom_site_type_symbol
_atom_site_label
_atom_site_fract_x
_atom_site_fract_y
_atom_site_fract_z
Si Si1 0.846841 0.194282 0.094605
Si Si2 0.798099 0.289163 0.579161
Si Si3 0.907603 0.500000 0.000000
Si Si4 0.019611 0.702055 0.752908
O O1 0.819428 0.256678 0.852392
O O2 0.879842 0.353220 0.148435
O O3 0.818974 0.176507 0.346799
O O4 0.865087 0.000000 0.000000
O O5 0.803222 0.500000 0.500000
O O6 0.750000 0.250000 0.597633
O O7 0.934078 0.363477 0.814298
O O8 0.000000 0.500000 0.748183
O O9 0.000000 0.789640 0.500000
O O10 0.000000 0.795900 0.000000
#
# Coordination Sequence:
#
# PCOD9324164 Si02
#       4
#     8   8   4   8
#     4  12  25  42  64  98 129 169 221 272 328 384
#     4  12  24  44  64  91 129 173 219 274 329 392
#     4  10  21  40  66  92 132 166 218 268 322 390
#     4   8  16  30  54  86 114 156 200 238 306 380
#
# _framework density 22.538965999999999
#
# number of rings (size 3 to 8) (size 9 to 14) (size 15 to 20)
#    0.000    1.714    2.857    3.429    0.000    9.143 
#    0.000    0.000    0.000   15.429    0.000    0.000 
#    0.000    0.000    0.000    0.000    0.000    0.000 
#
# Total GULP energy -78020.212636 kJ/mol
# GULP energy per Si atom -5572.872331 kJ/mol
# Density = 2.248767 g / cm^3
# Si number density = 22.538966 Si / 1000 Ang^3
#
#
#
# Elastic Constant Matrix: (Units=GPa)
#
#
# Indices 1 2 3 4 5 6 
#
# 1 117.5303 23.1463 50.2286 0.0000 0.0000 0.0000
# 2 23.1463 110.8782 19.4843 0.0000 0.0000 0.0000
# 3 50.2286 19.4843 197.0583 0.0000 0.0000 0.0000
# 4 0.0000 0.0000 0.0000 18.7126 0.0000 0.0000
# 5 0.0000 0.0000 0.0000 0.0000 26.4615 0.0000
# 6 0.0000 0.0000 0.0000 0.0000 0.0000 100.5176
#
#
#
# Elastic Compliance Matrix: (Units=1/GPa)
#
#
# Indices 1 2 3 4 5 6 
#
# 1 0.009833 -0.001641 -0.002344 0.000000 0.000000 0.000000
# 2 -0.001641 0.009452 -0.000516 0.000000 0.000000 0.000000
# 3 -0.002344 -0.000516 0.005723 0.000000 0.000000 0.000000
# 4 0.000000 0.000000 0.000000 0.053440 0.000000 0.000000
# 5 0.000000 0.000000 0.000000 0.000000 0.037791 0.000000
# 6 0.000000 0.000000 0.000000 0.000000 0.000000 0.009949
#
#
# Mechanical properties :
#
#
# Convention : Reuss Voigt Hill
#
# Bulk Modulus (GPa) = 62.47657 67.90948 65.19302
# Shear Modulus (GPa) = 35.58056 51.31218 43.44637
#
# Velocity S-wave (km/s) = 3.97750 4.77655 4.39522
# Velocity P-wave (km/s) = 6.99096 7.78561 7.39896
#
# Compressibility (1/GPa) = 0.01600600
#
# Stress axis : x y z
#
# Youngs Moduli (GPa) = 101.69387 105.79581 174.72679
#
# Poissons Ratio (x) = 0.17359 0.40960
# Poissons Ratio (y) = 0.16686 0.09022
# Poissons Ratio (z) = 0.23839 0.05463
#
# Static dielectric constant tensor:
#      x y z
#    x 1.928830 0.000000 0.000000 
#    y 0.000000 1.814980 0.000000 
#    z 0.000000 0.000000 1.609020 
# 
# From -- ./inp_files/7657.got.cif
#   From: 2010.05.17/outbox.cif.g08.bks.cpg/sg21_4_cif.got.tgz:7657.got - 2010.06.03 23:14:55.
