data_PCOD9324365
_publ_section_title
;
Structure prediction by ZEFSAII (Michael W. Deem and Ramdas Pophale) SiO2 
 PCOD9324365
Probable space group: C 2 2 2
;
_chemical_formula_sum "Si O2"
_cell_formula_units_Z 38
_cell_length_a 13.923128
_cell_length_b 13.923064
_cell_length_c 10.390972
_cell_angle_alpha 90.000000
_cell_angle_beta 90.000000
_cell_angle_gamma 90.000000
_cell_volume 2014.316962
_symmetry_space_group_name_H-M "C 2 2 2"
_symmetry_group_IT_number 21
_symmetry_cell_setting 'orthorhombic'
loop_
_space_group_symop_operation_xyz
x,y,z
-x,-y,z
x,-y,-z
-x,y,-z
1/2+x,1/2+y,z
1/2-x,1/2-y,z
1/2+x,1/2-y,-z
1/2-x,1/2+y,-z
loop_
_atom_site_type_symbol
_atom_site_label
_atom_site_fract_x
_atom_site_fract_y
_atom_site_fract_z
Si Si1 0.075940 0.424060 0.220282
Si Si2 0.793263 0.500000 0.000000
Si Si3 0.750000 0.750000 0.663782
Si Si4 0.500000 0.793262 0.000000
Si Si5 0.500000 0.500000 0.000000
Si Si6 0.614883 0.114884 0.514743
Si Si7 0.146711 0.853289 0.102279
O O1 0.017489 0.355187 0.126441
O O2 0.130781 0.369219 0.332757
O O3 0.000000 0.500000 0.278180
O O4 0.144812 0.482511 0.126441
O O5 0.732039 0.595284 0.974158
O O6 0.681011 0.818989 0.576980
O O7 0.814941 0.814942 0.761143
O O8 0.404716 0.732039 0.025842
O O9 0.564803 0.564803 0.905665
O O10 0.500000 0.134890 0.500000
O O11 0.634888 0.000000 0.500000
#
# Coordination Sequence:
#
# PCOD9324365 Si02
#       7
#     8   4   4   4   2   8   8
#     4  12  21  38  60  87 122 158 212 256 319 386
#     4  11  21  37  63  96 118 162 199 269 329 371
#     4  12  24  42  62  96 126 180 220 266 318 386
#     4  11  21  37  63  96 118 162 199 269 329 371
#     4   8  20  44  60 100 126 176 192 270 344 380
#     4  11  24  41  62  85 125 177 217 266 322 383
#     4  10  22  37  64  90 132 153 210 258 326 384
#
# _framework density 18.864957
#
# number of rings (size 3 to 8) (size 9 to 14) (size 15 to 20)
#    0.000    1.053    4.211    3.789    0.000    1.684 
#    0.000    6.316    0.000    0.000    0.000    0.000 
#    0.000    0.000    0.000    0.000    0.000    0.000 
#
# Total GULP energy -105945.457795 kJ/mol
# GULP energy per Si atom -5576.076726 kJ/mol
# Density = 1.882202 g / cm^3
# Si number density = 18.864957 Si / 1000 Ang^3
#
#
#
# Elastic Constant Matrix: (Units=GPa)
#
#
# Indices 1 2 3 4 5 6 
#
# 1 107.9843 63.1133 54.6043 0.0000 0.0000 0.0000
# 2 63.1133 107.9815 54.6039 0.0000 0.0000 0.0000
# 3 54.6043 54.6039 139.1238 0.0000 0.0000 0.0000
# 4 0.0000 0.0000 0.0000 47.1117 0.0000 0.0000
# 5 0.0000 0.0000 0.0000 0.0000 47.1146 0.0000
# 6 0.0000 0.0000 0.0000 0.0000 0.0000 40.2443
#
#
#
# Elastic Compliance Matrix: (Units=1/GPa)
#
#
# Indices 1 2 3 4 5 6 
#
# 1 0.015042 -0.007244 -0.003061 0.000000 0.000000 0.000000
# 2 -0.007244 0.015043 -0.003061 0.000000 0.000000 0.000000
# 3 -0.003061 -0.003061 0.009590 0.000000 0.000000 0.000000
# 4 0.000000 0.000000 0.000000 0.021226 0.000000 0.000000
# 5 0.000000 0.000000 0.000000 0.000000 0.021225 0.000000
# 6 0.000000 0.000000 0.000000 0.000000 0.000000 0.024848
#
#
# Mechanical properties :
#
#
# Convention : Reuss Voigt Hill
#
# Bulk Modulus (GPa) = 77.25519 77.74807 77.50163
# Shear Modulus (GPa) = 36.22644 39.07867 37.65255
#
# Velocity S-wave (km/s) = 4.38688 4.55631 4.47240
# Velocity P-wave (km/s) = 8.16702 8.30556 8.23658
#
# Compressibility (1/GPa) = 0.01294411
#
# Stress axis : x y z
#
# Youngs Moduli (GPa) = 66.47914 66.47721 104.27085
#
# Poissons Ratio (x) = 0.48158 0.31914
# Poissons Ratio (y) = 0.48159 0.31915
# Poissons Ratio (z) = 0.20347 0.20347
#
# Static dielectric constant tensor:
#      x y z
#    x 1.642400 0.000000 0.000000 
#    y 0.000000 1.642400 0.000000 
#    z 0.000000 0.000000 1.642280 
# 
# From -- ./inp_files/14475.got.cif
#   From: 2010.05.17/outbox.cif.g08.bks.cpg/sg21_8_cif.got.tgz:14475.got - 2010.06.03 23:14:55.
