data_PCOD9324052
_publ_section_title
;
Structure prediction by ZEFSAII (Michael W. Deem and Ramdas Pophale) SiO2 
 PCOD9324052
Probable space group: C 2 2 2
;
_chemical_formula_sum "Si O2"
_cell_formula_units_Z 38
_cell_length_a 11.919398
_cell_length_b 14.130685
_cell_length_c 9.373915
_cell_angle_alpha 90.000000
_cell_angle_beta 90.000000
_cell_angle_gamma 90.000000
_cell_volume 1578.841553
_symmetry_space_group_name_H-M "C 2 2 2"
_symmetry_group_IT_number 21
_symmetry_cell_setting 'orthorhombic'
loop_
_space_group_symop_operation_xyz
x,y,z
-x,-y,z
x,-y,-z
-x,y,-z
1/2+x,1/2+y,z
1/2-x,1/2-y,z
1/2+x,1/2-y,-z
1/2-x,1/2+y,-z
loop_
_atom_site_type_symbol
_atom_site_label
_atom_site_fract_x
_atom_site_fract_y
_atom_site_fract_z
Si Si1 0.500000 0.000000 0.500000
Si Si2 0.662278 0.819046 0.907730
Si Si3 0.701677 0.500000 0.000000
Si Si4 0.700252 0.853757 0.466551
Si Si5 0.093573 0.071161 0.296799
Si Si6 0.063680 0.275776 0.205692
O O1 0.398930 0.080991 0.539482
O O2 0.750000 0.750000 0.833856
O O3 0.548920 0.832526 0.822664
O O4 0.720594 0.915341 0.947321
O O5 0.625191 0.767232 0.054145
O O6 0.635622 0.465684 0.859107
O O7 0.750000 0.750000 0.520452
O O8 0.807955 0.912305 0.411019
O O9 0.642100 0.826824 0.316680
O O10 0.038235 0.172952 0.266398
O O11 0.000000 0.000000 0.345960
#
# Coordination Sequence:
#
# PCOD9324052 Si02
#       6
#     2   8   4   8   8   8
#     4  12  28  52  82 100 128 172 232 310 372 424
#     4  11  20  33  53  93 131 177 218 254 302 388
#     4  12  21  31  60  92 134 183 227 244 304 400
#     4  10  24  51  71  99 133 172 224 292 362 409
#     4  11  22  39  64  97 135 181 219 269 325 399
#     4  10  21  39  59  85 138 172 212 274 321 385
#
# _framework density 24.068279
#
# number of rings (size 3 to 8) (size 9 to 14) (size 15 to 20)
#    0.000    1.263    4.211    2.211    5.895    1.684 
#    7.579    0.000    0.000    0.000    0.000    0.000 
#    0.000    0.000    0.000    0.000    0.000    0.000 
#
# Total GULP energy -105977.443073 kJ/mol
# GULP energy per Si atom -5577.760162 kJ/mol
# Density = 2.401350 g / cm^3
# Si number density = 24.068279 Si / 1000 Ang^3
#
#
#
# Elastic Constant Matrix: (Units=GPa)
#
#
# Indices 1 2 3 4 5 6 
#
# 1 162.8325 80.7868 38.2499 0.0000 0.0000 0.0000
# 2 80.7868 144.8840 32.3813 0.0000 0.0000 0.0000
# 3 38.2499 32.3813 97.7407 0.0000 0.0000 0.0000
# 4 0.0000 0.0000 0.0000 11.6326 0.0000 0.0000
# 5 0.0000 0.0000 0.0000 0.0000 -4.7129 0.0000
# 6 0.0000 0.0000 0.0000 0.0000 0.0000 7.4521
#
#
#
# Elastic Compliance Matrix: (Units=1/GPa)
#
#
# Indices 1 2 3 4 5 6 
#
# 1 0.008828 -0.004482 -0.001970 0.000000 0.000000 0.000000
# 2 -0.004482 0.009730 -0.001469 0.000000 0.000000 0.000000
# 3 -0.001970 -0.001469 0.011489 0.000000 0.000000 0.000000
# 4 0.000000 0.000000 0.000000 0.085965 0.000000 0.000000
# 5 0.000000 0.000000 0.000000 0.000000 -0.212182 0.000000
# 6 0.000000 0.000000 0.000000 0.000000 0.000000 0.134191
#
#
# Mechanical properties :
#
#
# Convention : Reuss Voigt Hill
#
# Bulk Modulus (GPa) = 70.40392 78.69924 74.55158
# Shear Modulus (GPa) = 85.32737 19.81028 52.56883
#
# Velocity S-wave (km/s) = 5.96064 2.87206 4.67856
# Velocity P-wave (km/s) = 8.75714 6.61571 7.76064
#
# Compressibility (1/GPa) = 0.01420375
#
# Stress axis : x y z
#
# Youngs Moduli (GPa) = 113.28003 102.77845 87.04124
#
# Poissons Ratio (x) = 0.46066 0.17145
# Poissons Ratio (y) = 0.50773 0.12790
# Poissons Ratio (z) = 0.22313 0.15102
#
# Static dielectric constant tensor:
#      x y z
#    x 1.819060 0.000000 0.000000 
#    y 0.000000 1.980590 0.000000 
#    z 0.000000 0.000000 1.936400 
# 
# From -- ./inp_files/23825.got.cif
#   From: 2010.05.17/outbox.cif.g08.bks.cpg/sg21_12_cif.got.tgz:23825.got - 2010.06.03 23:14:55.
