data_PCOD9324940
_publ_section_title
;
Structure prediction by ZEFSAII (Michael W. Deem and Ramdas Pophale) SiO2 
 PCOD9324940
Probable space group: C 2 2 2
;
_chemical_formula_sum "Si O2"
_cell_formula_units_Z 28
_cell_length_a 21.356707
_cell_length_b 11.980959
_cell_length_c 4.915840
_cell_angle_alpha 90.000000
_cell_angle_beta 90.000000
_cell_angle_gamma 90.000000
_cell_volume 1257.834813
_symmetry_space_group_name_H-M "C 2 2 2"
_symmetry_group_IT_number 21
_symmetry_cell_setting 'orthorhombic'
loop_
_space_group_symop_operation_xyz
x,y,z
-x,-y,z
x,-y,-z
-x,y,-z
1/2+x,1/2+y,z
1/2-x,1/2-y,z
1/2+x,1/2-y,-z
1/2-x,1/2+y,-z
loop_
_atom_site_type_symbol
_atom_site_label
_atom_site_fract_x
_atom_site_fract_y
_atom_site_fract_z
Si Si1 0.932369 0.221579 0.364532
Si Si2 0.657192 0.077871 0.256485
Si Si3 0.370616 0.618586 0.856754
Si Si4 0.250000 0.750000 0.000344
O O1 0.897772 0.341174 0.362479
O O2 0.897618 0.130932 0.555769
O O3 0.000000 0.232513 0.500000
O O4 0.921066 0.179083 0.057225
O O5 0.713978 0.157362 0.172872
O O6 0.677782 0.000000 0.500000
O O7 0.639191 0.000000 0.000000
O O8 0.359704 0.500000 0.000000
O O9 0.305820 0.687356 0.846664
#
# Coordination Sequence:
#
# PCOD9324940 Si02
#       4
#     8   8   8   4
#     4  11  25  44  64  94 131 166 215 266 311 379
#     4  11  24  42  66  94 126 169 212 261 323 380
#     4  11  24  41  67  96 127 170 210 260 323 378
#     4  10  24  42  64  94 130 160 210 266 314 382
#
# _framework density 22.260477000000002
#
# number of rings (size 3 to 8) (size 9 to 14) (size 15 to 20)
#    0.000    1.143    0.000    6.000    0.000   18.857 
#    0.000    4.286    0.000    0.000    0.000    0.000 
#    0.000    0.000    0.000    0.000    0.000    0.000 
#
# Total GULP energy -78270.130103 kJ/mol
# GULP energy per Si atom -5590.723579 kJ/mol
# Density = 2.220981 g / cm^3
# Si number density = 22.260477 Si / 1000 Ang^3
#
#
#
# Elastic Constant Matrix: (Units=GPa)
#
#
# Indices 1 2 3 4 5 6 
#
# 1 127.4740 27.6852 21.3243 0.0000 0.0000 0.0000
# 2 27.6852 115.3962 17.6372 0.0000 0.0000 0.0000
# 3 21.3243 17.6372 93.4412 0.0000 0.0000 0.0000
# 4 0.0000 0.0000 0.0000 34.4472 0.0000 0.0000
# 5 0.0000 0.0000 0.0000 0.0000 -10.0542 0.0000
# 6 0.0000 0.0000 0.0000 0.0000 0.0000 -1.0596
#
#
#
# Elastic Compliance Matrix: (Units=1/GPa)
#
#
# Indices 1 2 3 4 5 6 
#
# 1 0.008503 -0.001795 -0.001602 0.000000 0.000000 0.000000
# 2 -0.001795 0.009302 -0.001346 0.000000 0.000000 0.000000
# 3 -0.001602 -0.001346 0.011321 0.000000 0.000000 0.000000
# 4 0.000000 0.000000 0.000000 0.029030 0.000000 0.000000
# 5 0.000000 0.000000 0.000000 0.000000 -0.099461 0.000000
# 6 0.000000 0.000000 0.000000 0.000000 0.000000 -0.943785
#
#
# Mechanical properties :
#
#
# Convention : Reuss Voigt Hill
#
# Bulk Modulus (GPa) = 50.91481 52.17832 51.54657
# Shear Modulus (GPa) = -5.15965 22.64433 8.74234
#
# Velocity S-wave (km/s) = -1.52410 3.19289 1.98389
# Velocity P-wave (km/s) = 4.45250 6.08962 5.33424
#
# Compressibility (1/GPa) = 0.01964065
#
# Stress axis : x y z
#
# Youngs Moduli (GPa) = 117.61228 107.50129 88.32752
#
# Poissons Ratio (x) = 0.19297 0.14146
# Poissons Ratio (y) = 0.21112 0.11890
# Poissons Ratio (z) = 0.18836 0.14471
#
# Static dielectric constant tensor:
#      x y z
#    x 1.797840 0.000000 0.000000 
#    y 0.000000 2.574540 0.000000 
#    z 0.000000 0.000000 1.804490 
# 
# From -- ./inp_files/5525.got.cif
#   From: 2010.05.17/outbox.cif.g08.bks.cpg/sg21_3_cif.got.tgz:5525.got - 2010.06.03 23:14:55.
