data_PCOD9324193
_publ_section_title
;
Structure prediction by ZEFSAII (Michael W. Deem and Ramdas Pophale) SiO2 
 PCOD9324193
Probable space group: C 2 2 2
;
_chemical_formula_sum "Si O2"
_cell_formula_units_Z 58
_cell_length_a 15.538515
_cell_length_b 18.833548
_cell_length_c 8.720318
_cell_angle_alpha 90.000000
_cell_angle_beta 90.000000
_cell_angle_gamma 90.000000
_cell_volume 2551.960671
_symmetry_space_group_name_H-M "C 2 2 2"
_symmetry_group_IT_number 21
_symmetry_cell_setting 'orthorhombic'
loop_
_space_group_symop_operation_xyz
x,y,z
-x,-y,z
x,-y,-z
-x,y,-z
1/2+x,1/2+y,z
1/2-x,1/2-y,z
1/2+x,1/2-y,-z
1/2-x,1/2+y,-z
loop_
_atom_site_type_symbol
_atom_site_label
_atom_site_fract_x
_atom_site_fract_y
_atom_site_fract_z
Si Si1 0.644680 0.582615 0.820994
Si Si2 0.131086 0.288609 0.534784
Si Si3 0.555478 0.176712 0.145279
Si Si4 0.446100 0.085272 0.348769
Si Si5 0.000000 0.000000 0.000000
Si Si6 0.811066 0.140039 0.483135
Si Si7 0.231572 0.455835 0.263592
Si Si8 0.763072 0.329907 0.979562
O O1 0.630635 0.609219 0.650269
O O2 0.720352 0.523209 0.806770
O O3 0.681674 0.648049 0.917613
O O4 0.562461 0.548003 0.897694
O O5 0.074224 0.284217 0.690258
O O6 0.096925 0.340911 0.404248
O O7 0.145015 0.211972 0.459022
O O8 0.220923 0.327300 0.581451
O O9 0.505531 0.105807 0.204743
O O10 0.649697 0.165376 0.076425
O O11 0.500000 0.206426 0.000000
O O12 0.500000 0.067808 0.500000
O O13 0.367585 0.032546 0.311970
O O14 0.785412 0.076751 0.595331
O O15 0.230427 0.390230 0.147345
O O16 0.750000 0.250000 0.920723
#
# Coordination Sequence:
#
# PCOD9324193 Si02
#       8
#     8   8   8   8   2   8   8   8
#     4  12  25  51  73 101 142 189 240 300 364 426
#     4   9  19  38  65  99 144 179 227 293 353 421
#     4  11  20  36  62  99 141 176 225 287 350 432
#     4   9  20  38  64 103 149 179 225 290 347 433
#     4  12  28  52  74 100 146 188 252 312 352 432
#     4  10  21  40  71  99 130 189 240 280 355 430
#     4  11  23  43  74  99 142 191 234 287 359 444
#     4  12  25  44  72 103 139 190 237 289 369 434
#
# _framework density 22.727622
#
# number of rings (size 3 to 8) (size 9 to 14) (size 15 to 20)
#    0.000    1.379    4.138    1.241    3.862    0.000 
#    4.966    7.586    3.034    0.000    0.000    0.000 
#    0.000    0.000    0.000    0.000    0.000    0.000 
#
# Total GULP energy -161996.333008 kJ/mol
# GULP energy per Si atom -5586.080449 kJ/mol
# Density = 2.267589 g / cm^3
# Si number density = 22.727622 Si / 1000 Ang^3
#
#
#
# Elastic Constant Matrix: (Units=GPa)
#
#
# Indices 1 2 3 4 5 6 
#
# 1 80.1623 8.5268 -4.9443 0.0000 0.0000 0.0000
# 2 8.5268 96.3647 -9.4373 0.0000 0.0000 0.0000
# 3 -4.9443 -9.4373 45.4620 0.0000 0.0000 0.0000
# 4 0.0000 0.0000 0.0000 18.8792 0.0000 0.0000
# 5 0.0000 0.0000 0.0000 0.0000 13.1128 0.0000
# 6 0.0000 0.0000 0.0000 0.0000 0.0000 7.1773
#
#
#
# Elastic Compliance Matrix: (Units=1/GPa)
#
#
# Indices 1 2 3 4 5 6 
#
# 1 0.012654 -0.001005 0.001167 0.000000 0.000000 0.000000
# 2 -0.001005 0.010672 0.002106 0.000000 0.000000 0.000000
# 3 0.001167 0.002106 0.022561 0.000000 0.000000 0.000000
# 4 0.000000 0.000000 0.000000 0.052968 0.000000 0.000000
# 5 0.000000 0.000000 0.000000 0.000000 0.076261 0.000000
# 6 0.000000 0.000000 0.000000 0.000000 0.000000 0.139327
#
#
# Mechanical properties :
#
#
# Convention : Reuss Voigt Hill
#
# Bulk Modulus (GPa) = 19.83214 23.36438 21.59826
# Shear Modulus (GPa) = 15.30386 23.02345 19.16365
#
# Velocity S-wave (km/s) = 2.59773 3.18624 2.90692
# Velocity P-wave (km/s) = 4.21219 4.88249 4.55967
#
# Compressibility (1/GPa) = 0.05042320
#
# Stress axis : x y z
#
# Youngs Moduli (GPa) = 79.02863 93.69913 44.32518
#
# Poissons Ratio (x) = 0.09420 -0.05175
# Poissons Ratio (y) = 0.07945 -0.09335
# Poissons Ratio (z) = -0.09226 -0.19734
#
# Static dielectric constant tensor:
#      x y z
#    x 1.885370 0.000000 0.000000 
#    y 0.000000 1.829420 0.000000 
#    z 0.000000 0.000000 1.876330 
# 
# From -- ./inp_files/16684.got.cif
#   From: 2010.05.17/outbox.cif.g08.bks.cpg/sg21_9_cif.got.tgz:16684.got - 2010.06.03 23:14:55.
