data_PCOD9324106
_publ_section_title
;
Structure prediction by ZEFSAII (Michael W. Deem and Ramdas Pophale) SiO2 
 PCOD9324106
Probable space group: C 2 2 2
;
_chemical_formula_sum "Si O2"
_cell_formula_units_Z 58
_cell_length_a 17.741532
_cell_length_b 17.580701
_cell_length_c 8.921672
_cell_angle_alpha 90.000000
_cell_angle_beta 90.000000
_cell_angle_gamma 90.000000
_cell_volume 2782.745950
_symmetry_space_group_name_H-M "C 2 2 2"
_symmetry_group_IT_number 21
_symmetry_cell_setting 'orthorhombic'
loop_
_space_group_symop_operation_xyz
x,y,z
-x,-y,z
x,-y,-z
-x,y,-z
1/2+x,1/2+y,z
1/2-x,1/2-y,z
1/2+x,1/2-y,-z
1/2-x,1/2+y,-z
loop_
_atom_site_type_symbol
_atom_site_label
_atom_site_fract_x
_atom_site_fract_y
_atom_site_fract_z
Si Si1 0.101249 0.311468 0.159081
Si Si2 0.929153 0.857671 0.111498
Si Si3 0.061302 0.636883 0.169510
Si Si4 0.241999 0.342820 0.348786
Si Si5 0.292440 0.830660 0.314790
Si Si6 0.879673 0.964100 0.335896
Si Si7 0.000000 0.500000 0.000000
Si Si8 0.802506 0.931124 0.901863
O O1 0.096259 0.221483 0.185030
O O2 0.174550 0.351894 0.227724
O O3 0.023289 0.344832 0.219853
O O4 0.090140 0.319948 0.980378
O O5 0.944356 0.919377 0.242895
O O6 0.859516 0.886047 0.009294
O O7 0.000000 0.848148 0.000000
O O8 0.118643 0.665437 0.292433
O O9 0.052705 0.551452 0.106299
O O10 0.250000 0.250000 0.345434
O O11 0.220421 0.361556 0.519378
O O12 0.312887 0.399578 0.329777
O O13 0.250000 0.750000 0.304806
O O14 0.258776 0.880457 0.179983
O O15 0.893940 0.000000 0.500000
O O16 0.851570 0.031951 0.230531
O O17 0.769445 0.000000 0.000000
#
# Coordination Sequence:
#
# PCOD9324106 Si02
#       8
#     8   8   8   8   8   8   2   8
#     4  10  21  39  66  97 123 175 222 278 332 398
#     4  11  22  43  70  93 134 176 234 278 337 406
#     4  10  22  39  64  95 135 165 227 275 339 403
#     4  11  23  41  67  94 131 177 219 273 336 420
#     4  11  24  39  63  95 135 171 226 276 343 409
#     4  11  23  44  67  98 138 173 226 276 351 418
#     4   8  20  40  60  94 128 168 212 274 344 400
#     4  10  24  39  62  97 129 171 222 285 335 403
#
# _framework density 20.842721000000001
#
# number of rings (size 3 to 8) (size 9 to 14) (size 15 to 20)
#    0.000    1.655    4.138    0.828    4.828    4.690 
#    0.000    1.379    3.034    3.310    0.000    0.000 
#    0.000    0.000    0.000    0.000    0.000    0.000 
#
# Total GULP energy -161637.678219 kJ/mol
# GULP energy per Si atom -5573.713042 kJ/mol
# Density = 2.079528 g / cm^3
# Si number density = 20.842721 Si / 1000 Ang^3
#
#
#
# Elastic Constant Matrix: (Units=GPa)
#
#
# Indices 1 2 3 4 5 6 
#
# 1 61.7109 11.2288 16.8833 0.0000 0.0000 0.0000
# 2 11.2288 69.3893 10.3679 0.0000 0.0000 0.0000
# 3 16.8833 10.3679 84.5192 0.0000 0.0000 0.0000
# 4 0.0000 0.0000 0.0000 5.6851 0.0000 0.0000
# 5 0.0000 0.0000 0.0000 0.0000 15.9569 0.0000
# 6 0.0000 0.0000 0.0000 0.0000 0.0000 16.0909
#
#
#
# Elastic Compliance Matrix: (Units=1/GPa)
#
#
# Indices 1 2 3 4 5 6 
#
# 1 0.017511 -0.002354 -0.003209 0.000000 0.000000 0.000000
# 2 -0.002354 0.014997 -0.001369 0.000000 0.000000 0.000000
# 3 -0.003209 -0.001369 0.012641 0.000000 0.000000 0.000000
# 4 0.000000 0.000000 0.000000 0.175898 0.000000 0.000000
# 5 0.000000 0.000000 0.000000 0.000000 0.062669 0.000000
# 6 0.000000 0.000000 0.000000 0.000000 0.000000 0.062147
#
#
# Mechanical properties :
#
#
# Convention : Reuss Voigt Hill
#
# Bulk Modulus (GPa) = 31.96606 32.50879 32.23742
# Shear Modulus (GPa) = 13.50784 19.35587 16.43186
#
# Velocity S-wave (km/s) = 2.54851 3.05070 2.81085
# Velocity P-wave (km/s) = 4.90204 5.29529 5.10245
#
# Compressibility (1/GPa) = 0.03128318
#
# Stress axis : x y z
#
# Youngs Moduli (GPa) = 57.10714 66.67990 79.10974
#
# Poissons Ratio (x) = 0.15698 0.25387
# Poissons Ratio (y) = 0.13444 0.10833
# Poissons Ratio (z) = 0.18327 0.09131
#
# Static dielectric constant tensor:
#      x y z
#    x 1.885140 0.000000 0.000000 
#    y 0.000000 1.813290 0.000000 
#    z 0.000000 0.000000 1.791410 
# 
# From -- ./inp_files/16700.got.cif
#   From: 2010.05.17/outbox.cif.g08.bks.cpg/sg21_9_cif.got.tgz:16700.got - 2010.06.03 23:14:55.
