data_PCOD9324602
_publ_section_title
;
Structure prediction by ZEFSAII (Michael W. Deem and Ramdas Pophale) SiO2 
 PCOD9324602
Probable space group: C 2 2 2
;
_chemical_formula_sum "Si O2"
_cell_formula_units_Z 48
_cell_length_a 9.250897
_cell_length_b 30.069412
_cell_length_c 8.336044
_cell_angle_alpha 90.000000
_cell_angle_beta 90.000000
_cell_angle_gamma 90.000000
_cell_volume 2318.829301
_symmetry_space_group_name_H-M "C 2 2 2"
_symmetry_group_IT_number 21
_symmetry_cell_setting 'orthorhombic'
loop_
_space_group_symop_operation_xyz
x,y,z
-x,-y,z
x,-y,-z
-x,y,-z
1/2+x,1/2+y,z
1/2-x,1/2-y,z
1/2+x,1/2-y,-z
1/2-x,1/2+y,-z
loop_
_atom_site_type_symbol
_atom_site_label
_atom_site_fract_x
_atom_site_fract_y
_atom_site_fract_z
Si Si1 0.500000 0.852827 0.500000
Si Si2 0.000000 0.077079 0.500000
Si Si3 0.718302 0.500000 0.500000
Si Si4 0.834598 0.515266 0.164079
Si Si5 0.014272 0.137271 0.807512
Si Si6 0.190611 0.381061 0.224867
Si Si7 0.786389 0.298421 0.265366
Si Si8 0.000000 0.318599 0.000000
O O1 0.604976 0.881698 0.390881
O O2 0.389881 0.824346 0.389940
O O3 0.952068 0.103014 0.339008
O O4 0.127205 0.043565 0.457241
O O5 0.793690 0.492013 0.331086
O O6 0.807499 0.568167 0.167581
O O7 0.000000 0.500000 0.151068
O O8 0.757617 0.500000 0.000000
O O9 0.140442 0.174369 0.784218
O O10 0.844721 0.143801 0.763415
O O11 0.000000 0.125344 0.000000
O O12 0.095642 0.351102 0.107943
O O13 0.750000 0.250000 0.332281
O O14 0.888506 0.291699 0.109494
#
# Coordination Sequence:
#
# PCOD9324602 Si02
#       8
#     4   4   4   8   8   8   8   4
#     4  10  26  45  71 103 142 190 233 303 361 452
#     4  11  26  43  64 101 144 180 247 284 367 435
#     4  11  25  40  64 100 137 191 228 306 346 418
#     4  11  25  41  65  99 138 184 237 298 357 412
#     4  12  25  45  75 104 139 198 238 298 373 438
#     4  11  23  45  68 104 139 189 247 289 361 451
#     4  11  26  45  73 107 143 184 239 308 377 447
#     4  10  22  42  69 100 140 180 236 289 366 442
#
# _framework density 20.700101
#
# number of rings (size 3 to 8) (size 9 to 14) (size 15 to 20)
#    0.000    1.000    3.333    2.250    5.833    3.333 
#    0.000    5.000    0.000    0.000    0.000    0.000 
#    0.000    0.000    0.000    0.000    0.000    0.000 
#
# Total GULP energy -133631.277523 kJ/mol
# GULP energy per Si atom -5567.969897 kJ/mol
# Density = 2.065299 g / cm^3
# Si number density = 20.700101 Si / 1000 Ang^3
#
#
#
# Elastic Constant Matrix: (Units=GPa)
#
#
# Indices 1 2 3 4 5 6 
#
# 1 125.5475 27.7424 26.8196 0.0000 0.0000 0.0000
# 2 27.7424 77.9425 25.9531 0.0000 0.0000 0.0000
# 3 26.8196 25.9531 126.2795 0.0000 0.0000 0.0000
# 4 0.0000 0.0000 0.0000 12.2048 0.0000 0.0000
# 5 0.0000 0.0000 0.0000 0.0000 44.0651 0.0000
# 6 0.0000 0.0000 0.0000 0.0000 0.0000 -4.5508
#
#
#
# Elastic Compliance Matrix: (Units=1/GPa)
#
#
# Indices 1 2 3 4 5 6 
#
# 1 0.008846 -0.002708 -0.001322 0.000000 0.000000 0.000000
# 2 -0.002708 0.014602 -0.002426 0.000000 0.000000 0.000000
# 3 -0.001322 -0.002426 0.008698 0.000000 0.000000 0.000000
# 4 0.000000 0.000000 0.000000 0.081935 0.000000 0.000000
# 5 0.000000 0.000000 0.000000 0.000000 0.022694 0.000000
# 6 0.000000 0.000000 0.000000 0.000000 0.000000 -0.219744
#
#
# Mechanical properties :
#
#
# Convention : Reuss Voigt Hill
#
# Bulk Modulus (GPa) = 51.99253 54.53330 53.26291
# Shear Modulus (GPa) = -78.56037 26.96078 -25.79979
#
# Velocity S-wave (km/s) = -6.16718 3.61286 -3.53421
# Velocity P-wave (km/s) = 5.05376 6.61856 3.02198
#
# Compressibility (1/GPa) = 0.01923353
#
# Stress axis : x y z
#
# Youngs Moduli (GPa) = 113.04524 68.48523 114.96536
#
# Poissons Ratio (x) = 0.18548 0.15200
# Poissons Ratio (y) = 0.30617 0.27888
# Poissons Ratio (z) = 0.14946 0.16613
#
# Static dielectric constant tensor:
#      x y z
#    x 1.766390 0.000000 0.000000 
#    y 0.000000 1.698430 0.000000 
#    z 0.000000 0.000000 2.229900 
# 
# From -- ./inp_files/11622.got.cif
#   From: 2010.05.17/outbox.cif.g08.bks.cpg/sg21_6_cif.got.tgz:11622.got - 2010.06.03 23:14:55.
