data_PCOD9324737
_publ_section_title
;
Structure prediction by ZEFSAII (Michael W. Deem and Ramdas Pophale) SiO2 
 PCOD9324737
Probable space group: C 2 2 2
;
_chemical_formula_sum "Si O2"
_cell_formula_units_Z 20
_cell_length_a 7.239677
_cell_length_b 7.105102
_cell_length_c 16.693897
_cell_angle_alpha 90.000000
_cell_angle_beta 90.000000
_cell_angle_gamma 90.000000
_cell_volume 858.711417
_symmetry_space_group_name_H-M "C 2 2 2"
_symmetry_group_IT_number 21
_symmetry_cell_setting 'orthorhombic'
loop_
_space_group_symop_operation_xyz
x,y,z
-x,-y,z
x,-y,-z
-x,y,-z
1/2+x,1/2+y,z
1/2-x,1/2-y,z
1/2+x,1/2-y,-z
1/2-x,1/2+y,-z
loop_
_atom_site_type_symbol
_atom_site_label
_atom_site_fract_x
_atom_site_fract_y
_atom_site_fract_z
Si Si1 0.297771 0.974954 0.381273
Si Si2 0.000000 0.000000 0.000000
Si Si3 0.000000 0.500000 0.227808
Si Si4 0.000000 0.000000 0.500000
Si Si5 0.250000 0.750000 0.115892
O O1 0.250000 0.750000 0.379210
O O2 0.500000 0.000000 0.417342
O O3 0.334261 0.047121 0.290867
O O4 0.145390 0.077447 0.434656
O O5 0.864116 0.885876 0.941995
O O6 0.905198 0.346801 0.171565
#
# Coordination Sequence:
#
# PCOD9324737 Si02
#       5
#     8   2   4   2   4
#     4  10  24  45  65 105 141 199 252 300 370 416
#     4  12  28  46  80 112 136 194 228 292 390 428
#     4  10  22  46  70 104 150 190 246 298 366 430
#     4  12  26  38  74  94 160 186 266 306 352 432
#     4  12  24  50  72 110 148 182 238 304 354 466
#
# _framework density 23.290713
#
# number of rings (size 3 to 8) (size 9 to 14) (size 15 to 20)
#    1.200    0.000    2.000    3.000    5.600    1.600 
#    7.200    0.000    0.000    0.000    0.000    0.000 
#    0.000    0.000    0.000    0.000    0.000    0.000 
#
# Total GULP energy -55693.336148 kJ/mol
# GULP energy per Si atom -5569.333615 kJ/mol
# Density = 2.323770 g / cm^3
# Si number density = 23.290713 Si / 1000 Ang^3
#
#
#
# Elastic Constant Matrix: (Units=GPa)
#
#
# Indices 1 2 3 4 5 6 
#
# 1 189.8416 82.3752 85.5494 0.0000 0.0000 0.0000
# 2 82.3752 121.1024 76.2754 0.0000 0.0000 0.0000
# 3 85.5494 76.2754 230.6035 0.0000 0.0000 0.0000
# 4 0.0000 0.0000 0.0000 33.2576 0.0000 0.0000
# 5 0.0000 0.0000 0.0000 0.0000 65.7229 0.0000
# 6 0.0000 0.0000 0.0000 0.0000 0.0000 60.8404
#
#
#
# Elastic Compliance Matrix: (Units=1/GPa)
#
#
# Indices 1 2 3 4 5 6 
#
# 1 0.007837 -0.004421 -0.001445 0.000000 0.000000 0.000000
# 2 -0.004421 0.012924 -0.002635 0.000000 0.000000 0.000000
# 3 -0.001445 -0.002635 0.005744 0.000000 0.000000 0.000000
# 4 0.000000 0.000000 0.000000 0.030068 0.000000 0.000000
# 5 0.000000 0.000000 0.000000 0.000000 0.015215 0.000000
# 6 0.000000 0.000000 0.000000 0.000000 0.000000 0.016436
#
#
# Mechanical properties :
#
#
# Convention : Reuss Voigt Hill
#
# Bulk Modulus (GPa) = 105.22094 114.43860 109.82977
# Shear Modulus (GPa) = 46.12795 51.78735 48.95765
#
# Velocity S-wave (km/s) = 4.45514 4.72054 4.58976
# Velocity P-wave (km/s) = 8.46993 8.88554 8.68022
#
# Compressibility (1/GPa) = 0.00950381
#
# Stress axis : x y z
#
# Youngs Moduli (GPa) = 127.60077 77.37607 174.09177
#
# Poissons Ratio (x) = 0.34204 0.25160
# Poissons Ratio (y) = 0.56406 0.45870
# Poissons Ratio (z) = 0.18441 0.20387
#
# Static dielectric constant tensor:
#      x y z
#    x 1.817450 0.000000 0.000000 
#    y 0.000000 1.933620 0.000000 
#    z 0.000000 0.000000 1.882970 
# 
# From -- ./inp_files/34139.got.cif
#   From: 2010.05.17/outbox.cif.g08.bks.cpg/sg21_18_cif.got.tgz:34139.got - 2010.06.03 23:14:55.
