data_PCOD9324513
_publ_section_title
;
Structure prediction by ZEFSAII (Michael W. Deem and Ramdas Pophale) SiO2 
 PCOD9324513
Probable space group: C 2 2 2
;
_chemical_formula_sum "Si O2"
_cell_formula_units_Z 30
_cell_length_a 6.983250
_cell_length_b 32.563667
_cell_length_c 6.285476
_cell_angle_alpha 90.000000
_cell_angle_beta 90.000000
_cell_angle_gamma 90.000000
_cell_volume 1429.318673
_symmetry_space_group_name_H-M "C 2 2 2"
_symmetry_group_IT_number 21
_symmetry_cell_setting 'orthorhombic'
loop_
_space_group_symop_operation_xyz
x,y,z
-x,-y,z
x,-y,-z
-x,y,-z
1/2+x,1/2+y,z
1/2-x,1/2-y,z
1/2+x,1/2-y,-z
1/2-x,1/2+y,-z
loop_
_atom_site_type_symbol
_atom_site_label
_atom_site_fract_x
_atom_site_fract_y
_atom_site_fract_z
Si Si1 0.000000 0.394126 0.500000
Si Si2 0.000000 0.000000 0.000000
Si Si3 0.304702 0.457960 0.378128
Si Si4 0.000000 0.787784 0.000000
Si Si5 0.803651 0.170345 0.368720
Si Si6 0.750000 0.750000 0.354227
O O1 0.141218 0.424265 0.373239
O O2 0.144962 0.364731 0.626457
O O3 0.130221 0.028209 0.147055
O O4 0.244427 0.500000 0.500000
O O5 0.500000 0.444081 0.500000
O O6 0.080658 0.760015 0.810120
O O7 0.852240 0.816418 0.872105
O O8 0.729450 0.210168 0.499113
O O9 0.000000 0.158988 0.500000
#
# Coordination Sequence:
#
# PCOD9324513 Si02
#       6
#     4   2   8   4   8   4
#     4  12  23  40  72 100 136 176 226 286 333 398
#     4   8  18  44  76  94 136 186 214 268 338 412
#     4   9  20  43  70 100 138 176 216 274 339 401
#     4  10  22  42  67  92 128 177 227 284 354 405
#     4  10  24  42  62  95 135 175 224 287 342 401
#     4  10  22  40  68  90 130 174 230 288 346 406
#
# _framework density 20.989021999999999
#
# number of rings (size 3 to 8) (size 9 to 14) (size 15 to 20)
#    0.000    2.400    0.000    2.000    9.333    0.000 
#    0.000   42.667    0.000    0.000    0.000    0.000 
#    0.000    0.000    0.000    0.000    0.000    0.000 
#
# Total GULP energy -83740.612917 kJ/mol
# GULP energy per Si atom -5582.707528 kJ/mol
# Density = 2.094125 g / cm^3
# Si number density = 20.989022 Si / 1000 Ang^3
#
#
#
# Elastic Constant Matrix: (Units=GPa)
#
#
# Indices 1 2 3 4 5 6 
#
# 1 139.3187 87.8395 55.9265 0.0000 0.0000 0.0000
# 2 87.8395 146.8760 67.5452 0.0000 0.0000 0.0000
# 3 55.9265 67.5452 140.2542 0.0000 0.0000 0.0000
# 4 0.0000 0.0000 0.0000 -20.3215 0.0000 0.0000
# 5 0.0000 0.0000 0.0000 0.0000 11.0124 0.0000
# 6 0.0000 0.0000 0.0000 0.0000 0.0000 60.9373
#
#
#
# Elastic Compliance Matrix: (Units=1/GPa)
#
#
# Indices 1 2 3 4 5 6 
#
# 1 0.011824 -0.006298 -0.001682 0.000000 0.000000 0.000000
# 2 -0.006298 0.012100 -0.003316 0.000000 0.000000 0.000000
# 3 -0.001682 -0.003316 0.009397 0.000000 0.000000 0.000000
# 4 0.000000 0.000000 0.000000 -0.049209 0.000000 0.000000
# 5 0.000000 0.000000 0.000000 0.000000 0.090807 0.000000
# 6 0.000000 0.000000 0.000000 0.000000 0.000000 0.016410
#
#
# Mechanical properties :
#
#
# Convention : Reuss Voigt Hill
#
# Bulk Modulus (GPa) = 93.19660 94.34126 93.76893
# Shear Modulus (GPa) = 42.55471 24.66816 33.61143
#
# Velocity S-wave (km/s) = 4.50763 3.43197 4.00607
# Velocity P-wave (km/s) = 8.46112 7.79423 8.13451
#
# Compressibility (1/GPa) = 0.01073000
#
# Stress axis : x y z
#
# Youngs Moduli (GPa) = 84.57703 82.64642 106.41222
#
# Poissons Ratio (x) = 0.52048 0.17896
# Poissons Ratio (y) = 0.53264 0.35285
# Poissons Ratio (z) = 0.14224 0.27405
#
# Static dielectric constant tensor:
#      x y z
#    x 1.839920 0.000000 0.000000 
#    y 0.000000 1.776330 0.000000 
#    z 0.000000 0.000000 1.712060 
# 
# From -- ./inp_files/1525.got.cif
#   From: 2010.05.17/outbox.cif.g08.bks.cpg/sg21_1_cif.got.tgz:1525.got - 2010.06.03 23:14:55.
