data_PCOD9324199
_publ_section_title
;
Structure prediction by ZEFSAII (Michael W. Deem and Ramdas Pophale) SiO2 
 PCOD9324199
Probable space group: C 2 2 2
;
_chemical_formula_sum "Si O2"
_cell_formula_units_Z 24
_cell_length_a 14.105417
_cell_length_b 7.455672
_cell_length_c 11.777350
_cell_angle_alpha 90.000000
_cell_angle_beta 90.000000
_cell_angle_gamma 90.000000
_cell_volume 1238.569283
_symmetry_space_group_name_H-M "C 2 2 2"
_symmetry_group_IT_number 21
_symmetry_cell_setting 'orthorhombic'
loop_
_space_group_symop_operation_xyz
x,y,z
-x,-y,z
x,-y,-z
-x,y,-z
1/2+x,1/2+y,z
1/2-x,1/2-y,z
1/2+x,1/2-y,-z
1/2-x,1/2+y,-z
loop_
_atom_site_type_symbol
_atom_site_label
_atom_site_fract_x
_atom_site_fract_y
_atom_site_fract_z
Si Si1 0.250000 0.250000 0.809711
Si Si2 0.000000 0.000000 0.695773
Si Si3 0.457626 0.199588 0.880343
Si Si4 0.790975 0.054576 0.625692
O O1 0.343607 0.210906 0.882751
O O2 0.260859 0.418155 0.724535
O O3 0.094948 0.957999 0.626862
O O4 0.985298 0.829140 0.777530
O O5 0.500000 0.000000 0.862204
O O6 0.500000 0.263240 0.000000
O O7 0.750000 0.250000 0.651175
O O8 0.756213 0.000000 0.500000
#
# Coordination Sequence:
#
# PCOD9324199 Si02
#       4
#     4   4   8   8
#     4  10  22  40  62  88 126 158 202 252 304 364
#     4  10  22  38  60  88 126 156 204 252 302 360
#     4  10  21  41  60  90 123 160 205 249 304 364
#     4  11  21  38  62  89 121 162 201 251 308 363
#
# _framework density 19.377196999999999
#
# number of rings (size 3 to 8) (size 9 to 14) (size 15 to 20)
#    0.000    1.667    1.667    3.000    0.000    0.000 
#   27.000    0.000    0.000    0.000    0.000    0.000 
#    0.000    0.000    0.000    0.000    0.000    0.000 
#
# Total GULP energy -66993.178402 kJ/mol
# GULP energy per Si atom -5582.764867 kJ/mol
# Density = 1.933309 g / cm^3
# Si number density = 19.377197 Si / 1000 Ang^3
#
#
#
# Elastic Constant Matrix: (Units=GPa)
#
#
# Indices 1 2 3 4 5 6 
#
# 1 143.5289 48.7955 61.7043 0.0000 0.0000 0.0000
# 2 48.7955 133.0259 30.1331 0.0000 0.0000 0.0000
# 3 61.7043 30.1331 81.7225 0.0000 0.0000 0.0000
# 4 0.0000 0.0000 0.0000 -7.7329 0.0000 0.0000
# 5 0.0000 0.0000 0.0000 0.0000 30.0077 0.0000
# 6 0.0000 0.0000 0.0000 0.0000 0.0000 25.7522
#
#
#
# Elastic Compliance Matrix: (Units=1/GPa)
#
#
# Indices 1 2 3 4 5 6 
#
# 1 0.010944 -0.002338 -0.007401 0.000000 0.000000 0.000000
# 2 -0.002338 0.008702 -0.001443 0.000000 0.000000 0.000000
# 3 -0.007401 -0.001443 0.018357 0.000000 0.000000 0.000000
# 4 0.000000 0.000000 0.000000 -0.129317 0.000000 0.000000
# 5 0.000000 0.000000 0.000000 0.000000 0.033325 0.000000
# 6 0.000000 0.000000 0.000000 0.000000 0.000000 0.038832
#
#
# Mechanical properties :
#
#
# Convention : Reuss Voigt Hill
#
# Bulk Modulus (GPa) = 63.94706 71.06034 67.50370
# Shear Modulus (GPa) = 593.91621 24.11504 309.01562
#
# Velocity S-wave (km/s) = 17.52621 3.53158 12.64200
# Velocity P-wave (km/s) = 21.03878 7.30624 15.74820
#
# Compressibility (1/GPa) = 0.01563794
#
# Stress axis : x y z
#
# Youngs Moduli (GPa) = 91.37582 114.91827 54.47537
#
# Poissons Ratio (x) = 0.26866 0.40318
# Poissons Ratio (y) = 0.21362 0.07863
# Poissons Ratio (z) = 0.67628 0.16587
#
# Static dielectric constant tensor:
#      x y z
#    x 1.688850 0.000000 0.000000 
#    y 0.000000 1.658210 0.000000 
#    z 0.000000 0.000000 1.646670 
# 
# From -- ./inp_files/13832.got.cif
#   From: 2010.05.17/outbox.cif.g08.bks.cpg/sg21_7_cif.got.tgz:13832.got - 2010.06.03 23:14:55.
