data_PCOD9324973
_publ_section_title
;
Structure prediction by ZEFSAII (Michael W. Deem and Ramdas Pophale) SiO2 
 PCOD9324973
Probable space group: C 2 2 2
;
_chemical_formula_sum "Si O2"
_cell_formula_units_Z 30
_cell_length_a 10.459032
_cell_length_b 14.557669
_cell_length_c 7.209497
_cell_angle_alpha 90.000000
_cell_angle_beta 90.000000
_cell_angle_gamma 90.000000
_cell_volume 1097.711712
_symmetry_space_group_name_H-M "C 2 2 2"
_symmetry_group_IT_number 21
_symmetry_cell_setting 'orthorhombic'
loop_
_space_group_symop_operation_xyz
x,y,z
-x,-y,z
x,-y,-z
-x,y,-z
1/2+x,1/2+y,z
1/2-x,1/2-y,z
1/2+x,1/2-y,-z
1/2-x,1/2+y,-z
loop_
_atom_site_type_symbol
_atom_site_label
_atom_site_fract_x
_atom_site_fract_y
_atom_site_fract_z
Si Si1 0.257034 0.142983 0.146348
Si Si2 0.352776 0.890249 0.471958
Si Si3 0.000000 0.299679 0.000000
Si Si4 0.000000 0.000000 0.500000
Si Si5 0.368220 0.366034 0.797782
O O1 0.250000 0.250000 0.095588
O O2 0.253817 0.136618 0.364063
O O3 0.402643 0.128219 0.092609
O O4 0.158396 0.097540 0.007558
O O5 0.500000 0.856724 0.500000
O O6 0.276448 0.859263 0.288115
O O7 0.359224 0.000000 0.500000
O O8 0.049366 0.226255 0.841254
O O9 0.069175 0.932493 0.352518
#
# Coordination Sequence:
#
# PCOD9324973 Si02
#       5
#     8   8   4   2   8
#     4  10  24  44  69 103 146 194 248 310 385 457
#     4  11  25  45  71 107 147 201 253 314 386 467
#     4  10  24  47  72 107 146 198 244 324 386 454
#     4  12  28  46  74 112 154 208 254 332 392 464
#     4  11  26  47  72 110 148 200 256 317 391 462
#
# _framework density 27.32958
#
# number of rings (size 3 to 8) (size 9 to 14) (size 15 to 20)
#    0.000    1.333    1.333    1.600    7.467    9.067 
#    0.000    2.667    0.000    0.000    0.000    0.000 
#    0.000    0.000    0.000    0.000    0.000    0.000 
#
# Total GULP energy -83650.819217 kJ/mol
# GULP energy per Si atom -5576.721281 kJ/mol
# Density = 2.726738 g / cm^3
# Si number density = 27.329580 Si / 1000 Ang^3
#
#
#
# Elastic Constant Matrix: (Units=GPa)
#
#
# Indices 1 2 3 4 5 6 
#
# 1 105.5177 21.2679 35.4428 0.0000 0.0000 0.0000
# 2 21.2679 96.5733 34.1350 0.0000 0.0000 0.0000
# 3 35.4428 34.1350 174.0970 0.0000 0.0000 0.0000
# 4 0.0000 0.0000 0.0000 -216.4156 0.0000 0.0000
# 5 0.0000 0.0000 0.0000 0.0000 42.3016 0.0000
# 6 0.0000 0.0000 0.0000 0.0000 0.0000 22.4715
#
#
#
# Elastic Compliance Matrix: (Units=1/GPa)
#
#
# Indices 1 2 3 4 5 6 
#
# 1 0.010414 -0.001659 -0.001795 0.000000 0.000000 0.000000
# 2 -0.001659 0.011390 -0.001896 0.000000 0.000000 0.000000
# 3 -0.001795 -0.001896 0.006481 0.000000 0.000000 0.000000
# 4 0.000000 0.000000 0.000000 -0.004621 0.000000 0.000000
# 5 0.000000 0.000000 0.000000 0.000000 0.023640 0.000000
# 6 0.000000 0.000000 0.000000 0.000000 0.000000 0.044501
#
#
# Mechanical properties :
#
#
# Convention : Reuss Voigt Hill
#
# Bulk Modulus (GPa) = 56.86145 61.98661 59.42403
# Shear Modulus (GPa) = 46.13971 -11.30568 17.41702
#
# Velocity S-wave (km/s) = 4.11331 -2.03612 2.52721
# Velocity P-wave (km/s) = 6.58864 4.14761 5.50513
#
# Compressibility (1/GPa) = 0.01758661
#
# Stress axis : x y z
#
# Youngs Moduli (GPa) = 96.02115 87.79486 154.29784
#
# Poissons Ratio (x) = 0.14566 0.27694
# Poissons Ratio (y) = 0.15931 0.29247
# Poissons Ratio (z) = 0.17235 0.16642
#
# Static dielectric constant tensor:
#      x y z
#    x 3.042080 0.000000 0.000000 
#    y 0.000000 2.182200 0.000000 
#    z 0.000000 0.000000 2.099450 
# 
# From -- ./inp_files/2427.got.cif
#   From: 2010.05.17/outbox.cif.g08.bks.cpg/sg21_2_cif.got.tgz:2427.got - 2010.06.03 23:14:55.
