data_PCOD9324306
_publ_section_title
;
Structure prediction by ZEFSAII (Michael W. Deem and Ramdas Pophale) SiO2 
 PCOD9324306
Probable space group: C 2 2 2
;
_chemical_formula_sum "Si O2"
_cell_formula_units_Z 32
_cell_length_a 14.543156
_cell_length_b 7.930190
_cell_length_c 11.172747
_cell_angle_alpha 90.000000
_cell_angle_beta 90.000000
_cell_angle_gamma 90.000000
_cell_volume 1288.552803
_symmetry_space_group_name_H-M "C 2 2 2"
_symmetry_group_IT_number 21
_symmetry_cell_setting 'orthorhombic'
loop_
_space_group_symop_operation_xyz
x,y,z
-x,-y,z
x,-y,-z
-x,y,-z
1/2+x,1/2+y,z
1/2-x,1/2-y,z
1/2+x,1/2-y,-z
1/2-x,1/2+y,-z
loop_
_atom_site_type_symbol
_atom_site_label
_atom_site_fract_x
_atom_site_fract_y
_atom_site_fract_z
Si Si1 0.355185 0.701140 0.495683
Si Si2 0.437337 0.169412 0.745757
Si Si3 0.385205 0.689755 0.767646
Si Si4 0.227643 0.502927 0.862596
O O1 0.369564 0.500000 0.500000
O O2 0.250000 0.750000 0.472502
O O3 0.413048 0.785720 0.390805
O O4 0.376660 0.755437 0.631018
O O5 0.507224 0.311042 0.794825
O O6 0.500000 0.000000 0.753129
O O7 0.342958 0.140150 0.818243
O O8 0.318568 0.529108 0.781890
O O9 0.335302 0.830070 0.847388
O O10 0.255533 0.500000 0.000000
#
# Coordination Sequence:
#
# PCOD9324306 Si02
#       4
#     8   8   8   8
#     4  12  25  44  74 108 154 191 237 309 385 453
#     4  10  24  43  77 109 144 194 248 299 387 452
#     4  10  22  43  68 103 147 177 250 311 352 454
#     4  10  21  44  72 100 143 201 244 304 369 434
#
# _framework density 24.834064000000001
#
# number of rings (size 3 to 8) (size 9 to 14) (size 15 to 20)
#    0.000    1.500    2.500    2.250    3.500    9.500 
#   13.500    0.000    5.500    0.000    0.000    0.000 
#    0.000    0.000    0.000    0.000    0.000    0.000 
#
# Total GULP energy -89539.411878 kJ/mol
# GULP energy per Si atom -5596.213242 kJ/mol
# Density = 2.477754 g / cm^3
# Si number density = 24.834064 Si / 1000 Ang^3
#
#
#
# Elastic Constant Matrix: (Units=GPa)
#
#
# Indices 1 2 3 4 5 6 
#
# 1 225.6948 28.9250 42.0104 0.0000 0.0000 0.0000
# 2 28.9250 82.5946 -6.0252 0.0000 0.0000 0.0000
# 3 42.0104 -6.0252 111.7798 0.0000 0.0000 0.0000
# 4 0.0000 0.0000 0.0000 29.6468 0.0000 0.0000
# 5 0.0000 0.0000 0.0000 0.0000 4.6845 0.0000
# 6 0.0000 0.0000 0.0000 0.0000 0.0000 41.9492
#
#
#
# Elastic Compliance Matrix: (Units=1/GPa)
#
#
# Indices 1 2 3 4 5 6 
#
# 1 0.005048 -0.001914 -0.002001 0.000000 0.000000 0.000000
# 2 -0.001914 0.012881 0.001414 0.000000 0.000000 0.000000
# 3 -0.002001 0.001414 0.009774 0.000000 0.000000 0.000000
# 4 0.000000 0.000000 0.000000 0.033730 0.000000 0.000000
# 5 0.000000 0.000000 0.000000 0.000000 0.213471 0.000000
# 6 0.000000 0.000000 0.000000 0.000000 0.000000 0.023838
#
#
# Mechanical properties :
#
#
# Convention : Reuss Voigt Hill
#
# Bulk Modulus (GPa) = 44.04958 61.09886 52.57422
# Shear Modulus (GPa) = 16.06107 38.93334 27.49721
#
# Velocity S-wave (km/s) = 2.54586 3.96376 3.33113
# Velocity P-wave (km/s) = 5.13984 6.75313 6.00095
#
# Compressibility (1/GPa) = 0.02270169
#
# Stress axis : x y z
#
# Youngs Moduli (GPa) = 198.08162 77.63545 102.30995
#
# Poissons Ratio (x) = 0.14859 0.20467
# Poissons Ratio (y) = 0.37911 -0.14463
# Poissons Ratio (z) = 0.39627 -0.10975
#
# Static dielectric constant tensor:
#      x y z
#    x 1.968040 0.000000 0.000000 
#    y 0.000000 2.066650 0.000000 
#    z 0.000000 0.000000 1.877080 
# 
# From -- ./inp_files/21949.got.cif
#   From: 2010.05.17/outbox.cif.g08.bks.cpg/sg21_11_cif.got.tgz:21949.got - 2010.06.03 23:14:55.
