data_PCOD9324149
_publ_section_title
;
Structure prediction by ZEFSAII (Michael W. Deem and Ramdas Pophale) SiO2 
 PCOD9324149
Probable space group: C 2 2 2
;
_chemical_formula_sum "Si O2"
_cell_formula_units_Z 34
_cell_length_a 13.615110
_cell_length_b 5.265707
_cell_length_c 23.224501
_cell_angle_alpha 90.000000
_cell_angle_beta 90.000000
_cell_angle_gamma 90.000000
_cell_volume 1665.038331
_symmetry_space_group_name_H-M "C 2 2 2"
_symmetry_group_IT_number 21
_symmetry_cell_setting 'orthorhombic'
loop_
_space_group_symop_operation_xyz
x,y,z
-x,-y,z
x,-y,-z
-x,y,-z
1/2+x,1/2+y,z
1/2-x,1/2-y,z
1/2+x,1/2-y,-z
1/2-x,1/2+y,-z
loop_
_atom_site_type_symbol
_atom_site_label
_atom_site_fract_x
_atom_site_fract_y
_atom_site_fract_z
Si Si1 0.500000 0.500000 0.000000
Si Si2 0.500000 0.000000 0.146885
Si Si3 0.651903 0.867810 0.060052
Si Si4 0.318376 0.500295 0.561745
Si Si5 0.000000 0.000000 0.775966
Si Si6 0.681372 0.499305 0.310742
O O1 0.570702 0.334100 0.960150
O O2 0.594888 0.036911 0.105841
O O3 0.510612 0.750268 0.185125
O O4 0.750000 0.750000 0.085527
O O5 0.681045 0.000000 0.000000
O O6 0.373430 0.500000 0.500000
O O7 0.250000 0.250000 0.561713
O O8 0.366187 0.504231 0.624785
O O9 0.250000 0.750000 0.561083
O O10 0.903672 0.985356 0.736147
O O11 0.750000 0.250000 0.306733
O O12 0.750000 0.750000 0.304296
#
# Coordination Sequence:
#
# PCOD9324149 Si02
#       6
#     2   4   8   8   4   8
#     4  12  20  44  68 100 136 152 200 238 310 376
#     4  12  27  46  66  94 135 162 212 260 300 364
#     4  12  25  42  71  97 125 165 195 250 315 378
#     4   8  14  27  52  85 117 153 199 257 320 373
#     4  12  27  44  64  90 126 175 216 262 300 362
#     4  10  21  40  64  88 123 168 215 263 316 373
#
# _framework density 20.419951000000001
#
# number of rings (size 3 to 8) (size 9 to 14) (size 15 to 20)
#    0.000    1.412    3.529    2.118    0.000    2.824 
#    0.000    2.941    0.000    0.000    0.000   18.118 
#    0.000    0.000    0.000    0.000    0.000    0.000 
#
# Total GULP energy -94884.554304 kJ/mol
# GULP energy per Si atom -5581.444371 kJ/mol
# Density = 2.037347 g / cm^3
# Si number density = 20.419951 Si / 1000 Ang^3
#
#
#
# Elastic Constant Matrix: (Units=GPa)
#
#
# Indices 1 2 3 4 5 6 
#
# 1 96.1392 21.2037 40.0263 0.0000 0.0000 0.0000
# 2 21.2037 123.6099 27.2211 0.0000 0.0000 0.0000
# 3 40.0263 27.2211 134.9386 0.0000 0.0000 0.0000
# 4 0.0000 0.0000 0.0000 41.7160 0.0000 0.0000
# 5 0.0000 0.0000 0.0000 0.0000 -27.4887 0.0000
# 6 0.0000 0.0000 0.0000 0.0000 0.0000 27.6863
#
#
#
# Elastic Compliance Matrix: (Units=1/GPa)
#
#
# Indices 1 2 3 4 5 6 
#
# 1 0.012076 -0.001342 -0.003311 0.000000 0.000000 0.000000
# 2 -0.001342 0.008615 -0.001340 0.000000 0.000000 0.000000
# 3 -0.003311 -0.001340 0.008663 0.000000 0.000000 0.000000
# 4 0.000000 0.000000 0.000000 0.023972 0.000000 0.000000
# 5 0.000000 0.000000 0.000000 0.000000 -0.036379 0.000000
# 6 0.000000 0.000000 0.000000 0.000000 0.000000 0.036119
#
#
# Mechanical properties :
#
#
# Convention : Reuss Voigt Hill
#
# Bulk Modulus (GPa) = 57.57741 59.06553 58.32147
# Shear Modulus (GPa) = 70.57859 26.13183 48.35521
#
# Velocity S-wave (km/s) = 5.88545 3.58120 4.87153
# Velocity P-wave (km/s) = 8.62801 6.78883 7.76308
#
# Compressibility (1/GPa) = 0.01736792
#
# Stress axis : x y z
#
# Youngs Moduli (GPa) = 82.80693 116.07298 115.42957
#
# Poissons Ratio (x) = 0.15581 0.38223
# Poissons Ratio (y) = 0.11115 0.15465
# Poissons Ratio (z) = 0.27420 0.15551
#
# Static dielectric constant tensor:
#      x y z
#    x 1.678130 0.000000 0.000000 
#    y 0.000000 1.759650 0.000000 
#    z 0.000000 0.000000 1.782290 
# 
# From -- ./inp_files/37492.got.cif
#   From: 2010.05.17/outbox.cif.g08.bks.cpg/sg21_19_cif.got.tgz:37492.got - 2010.06.03 23:14:55.
