data_PCOD9324272
_publ_section_title
;
Structure prediction by ZEFSAII (Michael W. Deem and Ramdas Pophale) SiO2 
 PCOD9324272
Probable space group: C 2 2 2
;
_chemical_formula_sum "Si O2"
_cell_formula_units_Z 48
_cell_length_a 12.107777
_cell_length_b 9.070143
_cell_length_c 18.116766
_cell_angle_alpha 90.000000
_cell_angle_beta 90.000000
_cell_angle_gamma 90.000000
_cell_volume 1989.569995
_symmetry_space_group_name_H-M "C 2 2 2"
_symmetry_group_IT_number 21
_symmetry_cell_setting 'orthorhombic'
loop_
_space_group_symop_operation_xyz
x,y,z
-x,-y,z
x,-y,-z
-x,y,-z
1/2+x,1/2+y,z
1/2-x,1/2-y,z
1/2+x,1/2-y,-z
1/2-x,1/2+y,-z
loop_
_atom_site_type_symbol
_atom_site_label
_atom_site_fract_x
_atom_site_fract_y
_atom_site_fract_z
Si Si1 0.369407 0.829576 0.694856
Si Si2 0.622878 0.562245 0.819599
Si Si3 0.006392 0.671079 0.852831
Si Si4 0.531157 0.329161 0.419479
Si Si5 0.838318 0.132112 0.945275
Si Si6 0.272005 0.403407 0.673936
O O1 0.250000 0.750000 0.690128
O O2 0.421679 0.825243 0.776533
O O3 0.458755 0.756794 0.640603
O O4 0.335345 0.995158 0.668183
O O5 0.500000 0.500000 0.832950
O O6 0.605367 0.734980 0.837917
O O7 0.699473 0.462550 0.872479
O O8 0.648718 0.524398 0.734947
O O9 0.065541 0.761060 0.917493
O O10 0.000000 0.500000 0.871969
O O11 0.500000 0.500000 0.419378
O O12 0.500000 0.268362 0.500000
O O13 0.659107 0.348237 0.396722
O O14 0.750000 0.250000 0.974336
O O15 0.867871 0.000000 0.000000
O O16 0.250000 0.250000 0.713357
#
# Coordination Sequence:
#
# PCOD9324272 Si02
#       6
#     8   8   8   8   8   8
#     4  12  23  42  75 102 138 191 245 301 363 434
#     4  10  21  42  70  98 136 179 239 295 350 428
#     4  11  23  42  74 106 140 182 241 303 357 427
#     4  11  25  47  68 100 147 193 241 307 377 440
#     4  11  26  46  67 100 141 189 233 294 361 431
#     4  12  24  41  70 104 139 184 242 300 362 433
#
# _framework density 24.125814999999999
#
# number of rings (size 3 to 8) (size 9 to 14) (size 15 to 20)
#    0.000    0.833    3.333    5.000    0.000    5.667 
#    0.000    1.667    0.000    0.000    0.000    0.000 
#    0.000    0.000    0.000    0.000    0.000    0.000 
#
# Total GULP energy -133996.401856 kJ/mol
# GULP energy per Si atom -5583.183411 kJ/mol
# Density = 2.407090 g / cm^3
# Si number density = 24.125815 Si / 1000 Ang^3
#
#
#
# Elastic Constant Matrix: (Units=GPa)
#
#
# Indices 1 2 3 4 5 6 
#
# 1 67.1812 52.9140 41.6597 0.0000 0.0000 0.0000
# 2 52.9140 183.4175 52.9902 0.0000 0.0000 0.0000
# 3 41.6597 52.9902 129.4745 0.0000 0.0000 0.0000
# 4 0.0000 0.0000 0.0000 62.0388 0.0000 0.0000
# 5 0.0000 0.0000 0.0000 0.0000 21.1355 0.0000
# 6 0.0000 0.0000 0.0000 0.0000 0.0000 43.9795
#
#
#
# Elastic Compliance Matrix: (Units=1/GPa)
#
#
# Indices 1 2 3 4 5 6 
#
# 1 0.021823 -0.004839 -0.005041 0.000000 0.000000 0.000000
# 2 -0.004839 0.007256 -0.001413 0.000000 0.000000 0.000000
# 3 -0.005041 -0.001413 0.009924 0.000000 0.000000 0.000000
# 4 0.000000 0.000000 0.000000 0.016119 0.000000 0.000000
# 5 0.000000 0.000000 0.000000 0.000000 0.047314 0.000000
# 6 0.000000 0.000000 0.000000 0.000000 0.000000 0.022738
#
#
# Mechanical properties :
#
#
# Convention : Reuss Voigt Hill
#
# Bulk Modulus (GPa) = 60.91396 75.02234 67.96815
# Shear Modulus (GPa) = 32.63037 40.93137 36.78087
#
# Velocity S-wave (km/s) = 3.68164 4.12342 3.90878
# Velocity P-wave (km/s) = 6.58604 7.33716 6.97172
#
# Compressibility (1/GPa) = 0.01641660
#
# Stress axis : x y z
#
# Youngs Moduli (GPa) = 45.82385 137.81236 100.76845
#
# Poissons Ratio (x) = 0.66690 0.50799
# Poissons Ratio (y) = 0.22175 0.14236
# Poissons Ratio (z) = 0.23100 0.19469
#
# Static dielectric constant tensor:
#      x y z
#    x 0.785800 0.000000 0.000000 
#    y 0.000000 2.083250 0.000000 
#    z 0.000000 0.000000 1.958450 
# 
# From -- ./inp_files/36625.got.cif
#   From: 2010.05.17/outbox.cif.g08.bks.cpg/sg21_19_cif.got.tgz:36625.got - 2010.06.03 23:14:55.
