data_PCOD9324926
_publ_section_title
;
Structure prediction by ZEFSAII (Michael W. Deem and Ramdas Pophale) SiO2 
 PCOD9324926
Probable space group: C 2 2 2
;
_chemical_formula_sum "Si O2"
_cell_formula_units_Z 20
_cell_length_a 4.944641
_cell_length_b 22.840433
_cell_length_c 8.061275
_cell_angle_alpha 90.000000
_cell_angle_beta 90.000000
_cell_angle_gamma 90.000000
_cell_volume 910.422192
_symmetry_space_group_name_H-M "C 2 2 2"
_symmetry_group_IT_number 21
_symmetry_cell_setting 'orthorhombic'
loop_
_space_group_symop_operation_xyz
x,y,z
-x,-y,z
x,-y,-z
-x,y,-z
1/2+x,1/2+y,z
1/2-x,1/2-y,z
1/2+x,1/2-y,-z
1/2-x,1/2+y,-z
loop_
_atom_site_type_symbol
_atom_site_label
_atom_site_fract_x
_atom_site_fract_y
_atom_site_fract_z
Si Si1 0.000000 0.500000 0.000000
Si Si2 0.000000 0.080242 0.500000
Si Si3 0.500000 0.208432 0.000000
Si Si4 0.000000 0.500000 0.500000
Si Si5 0.792064 0.109842 0.847566
O O1 0.169843 0.545019 0.885553
O O2 0.732619 0.044715 0.434850
O O3 0.911935 0.112001 0.665944
O O4 0.750000 0.250000 0.039437
O O5 0.577788 0.162146 0.858083
O O6 0.000000 0.119241 0.000000
#
# Coordination Sequence:
#
# PCOD9324926 Si02
#       5
#     2   4   4   2   8
#     4  10  24  40  66 116 148 194 222 272 362 414
#     4  11  26  42  64 105 144 187 234 277 344 416
#     4  11  24  47  76  99 134 185 240 296 356 407
#     4  10  26  38  62 102 156 186 218 282 330 430
#     4  11  25  42  73 102 144 185 231 287 344 423
#
# _framework density 21.967828999999998
#
# number of rings (size 3 to 8) (size 9 to 14) (size 15 to 20)
#    0.000    1.200    2.000    1.800   22.400    0.000 
#    0.000    0.000    8.800    0.000    0.000    0.000 
#    0.000    0.000    0.000    0.000    0.000    0.000 
#
# Total GULP energy -55726.758028 kJ/mol
# GULP energy per Si atom -5572.675803 kJ/mol
# Density = 2.191783 g / cm^3
# Si number density = 21.967829 Si / 1000 Ang^3
#
#
#
# Elastic Constant Matrix: (Units=GPa)
#
#
# Indices 1 2 3 4 5 6 
#
# 1 153.3226 75.2271 52.0051 0.0000 0.0000 0.0000
# 2 75.2271 157.6036 55.2568 0.0000 0.0000 0.0000
# 3 52.0051 55.2568 171.9391 0.0000 0.0000 0.0000
# 4 0.0000 0.0000 0.0000 -6.7580 0.0000 0.0000
# 5 0.0000 0.0000 0.0000 0.0000 36.2046 0.0000
# 6 0.0000 0.0000 0.0000 0.0000 0.0000 6.1639
#
#
#
# Elastic Compliance Matrix: (Units=1/GPa)
#
#
# Indices 1 2 3 4 5 6 
#
# 1 0.008841 -0.003699 -0.001485 0.000000 0.000000 0.000000
# 2 -0.003699 0.008699 -0.001677 0.000000 0.000000 0.000000
# 3 -0.001485 -0.001677 0.006804 0.000000 0.000000 0.000000
# 4 0.000000 0.000000 0.000000 -0.147972 0.000000 0.000000
# 5 0.000000 0.000000 0.000000 0.000000 0.027621 0.000000
# 6 0.000000 0.000000 0.000000 0.000000 0.000000 0.162234
#
#
# Mechanical properties :
#
#
# Convention : Reuss Voigt Hill
#
# Bulk Modulus (GPa) = 94.14902 94.20482 94.17692
# Shear Modulus (GPa) = 59.88765 27.14718 43.51742
#
# Velocity S-wave (km/s) = 5.22692 3.51917 4.45563
# Velocity P-wave (km/s) = 8.90945 7.71290 8.33268
#
# Compressibility (1/GPa) = 0.01062146
#
# Stress axis : x y z
#
# Youngs Moduli (GPa) = 113.10963 114.96124 146.97102
#
# Poissons Ratio (x) = 0.42527 0.21828
# Poissons Ratio (y) = 0.41842 0.24642
# Poissons Ratio (z) = 0.16799 0.19275
#
# Static dielectric constant tensor:
#      x y z
#    x 1.950450 0.000000 0.000000 
#    y 0.000000 1.817750 0.000000 
#    z 0.000000 0.000000 1.946950 
# 
# From -- ./inp_files/8570.got.cif
#   From: 2010.05.17/outbox.cif.g08.bks.cpg/sg21_5_cif.got.tgz:8570.got - 2010.06.03 23:14:55.
