data_PCOD9324157
_publ_section_title
;
Structure prediction by ZEFSAII (Michael W. Deem and Ramdas Pophale) SiO2 
 PCOD9324157
Probable space group: C 2 2 2
;
_chemical_formula_sum "Si O2"
_cell_formula_units_Z 64
_cell_length_a 9.906854
_cell_length_b 22.461688
_cell_length_c 12.980861
_cell_angle_alpha 90.000000
_cell_angle_beta 90.000000
_cell_angle_gamma 90.000000
_cell_volume 2888.561727
_symmetry_space_group_name_H-M "C 2 2 2"
_symmetry_group_IT_number 21
_symmetry_cell_setting 'orthorhombic'
loop_
_space_group_symop_operation_xyz
x,y,z
-x,-y,z
x,-y,-z
-x,y,-z
1/2+x,1/2+y,z
1/2-x,1/2-y,z
1/2+x,1/2-y,-z
1/2-x,1/2+y,-z
loop_
_atom_site_type_symbol
_atom_site_label
_atom_site_fract_x
_atom_site_fract_y
_atom_site_fract_z
Si Si1 0.253235 0.118458 0.857015
Si Si2 0.846125 0.008001 0.826688
Si Si3 0.500950 0.320994 0.884925
Si Si4 0.273532 0.133780 0.099677
Si Si5 0.093780 0.273703 0.401246
Si Si6 0.274982 0.006842 0.622854
Si Si7 0.021908 0.297409 0.807011
Si Si8 0.007888 0.411802 0.382463
O O1 0.102267 0.137988 0.824514
O O2 0.352262 0.159758 0.790773
O O3 0.248896 0.047398 0.858480
O O4 0.284671 0.136802 0.975944
O O5 0.780127 0.068755 0.867848
O O6 0.845451 0.003177 0.702055
O O7 0.000000 0.000000 0.864875
O O8 0.656890 0.322543 0.857947
O O9 0.445634 0.254334 0.887669
O O10 0.500000 0.347140 0.000000
O O11 0.408718 0.157485 0.151887
O O12 0.250000 0.250000 0.409906
O O13 0.025424 0.258244 0.291673
O O14 0.070380 0.345708 0.388443
O O15 0.000000 0.256461 0.500000
O O16 0.355672 0.068466 0.646881
O O17 0.244500 0.000000 0.500000
O O18 0.380990 0.956188 0.661363
O O19 0.000000 0.431509 0.500000
#
# Coordination Sequence:
#
# PCOD9324157 Si02
#       8
#     8   8   8   8   8   8   8   8
#     4  11  24  41  64  94 128 171 212 266 335 397
#     4  12  24  39  60  88 130 177 217 262 333 407
#     4  10  21  40  65  91 125 169 211 264 329 388
#     4  11  23  41  66  93 128 168 214 271 330 395
#     4  11  24  42  65  92 132 175 215 260 319 384
#     4   9  18  35  63  93 120 161 217 276 323 375
#     4  12  24  41  66  97 127 161 218 275 317 376
#     4   8  16  36  64  86 114 156 206 261 319 368
#
# _framework density 22.156357
#
# number of rings (size 3 to 8) (size 9 to 14) (size 15 to 20)
#    0.000    1.500    1.250    5.250    0.000    5.250 
#    0.000    1.250    0.000    0.000    0.000    0.000 
#    0.000    0.000    0.000    0.000    0.000    0.000 
#
# Total GULP energy -178139.798293 kJ/mol
# GULP energy per Si atom -5566.868697 kJ/mol
# Density = 2.210593 g / cm^3
# Si number density = 22.156357 Si / 1000 Ang^3
#
#
#
# Elastic Constant Matrix: (Units=GPa)
#
#
# Indices 1 2 3 4 5 6 
#
# 1 74.9751 4.6911 5.1896 0.0000 0.0000 0.0000
# 2 4.6911 101.1248 -1.3973 0.0000 0.0000 0.0000
# 3 5.1896 -1.3973 78.7774 0.0000 0.0000 0.0000
# 4 0.0000 0.0000 0.0000 22.4490 0.0000 0.0000
# 5 0.0000 0.0000 0.0000 0.0000 13.6629 0.0000
# 6 0.0000 0.0000 0.0000 0.0000 0.0000 31.4939
#
#
#
# Elastic Compliance Matrix: (Units=1/GPa)
#
#
# Indices 1 2 3 4 5 6 
#
# 1 0.013440 -0.000636 -0.000897 0.000000 0.000000 0.000000
# 2 -0.000636 0.009921 0.000218 0.000000 0.000000 0.000000
# 3 -0.000897 0.000218 0.012757 0.000000 0.000000 0.000000
# 4 0.000000 0.000000 0.000000 0.044545 0.000000 0.000000
# 5 0.000000 0.000000 0.000000 0.000000 0.073191 0.000000
# 6 0.000000 0.000000 0.000000 0.000000 0.000000 0.031752
#
#
# Mechanical properties :
#
#
# Convention : Reuss Voigt Hill
#
# Bulk Modulus (GPa) = 29.86093 30.20491 30.03292
# Shear Modulus (GPa) = 25.07542 29.94742 27.51142
#
# Velocity S-wave (km/s) = 3.36780 3.68045 3.52759
# Velocity P-wave (km/s) = 5.35064 5.63234 5.49329
#
# Compressibility (1/GPa) = 0.03348857
#
# Stress axis : x y z
#
# Youngs Moduli (GPa) = 74.40697 100.79352 78.38881
#
# Poissons Ratio (x) = 0.06409 0.07029
# Poissons Ratio (y) = 0.04731 -0.01708
# Poissons Ratio (z) = 0.06672 -0.02196
#
# Static dielectric constant tensor:
#      x y z
#    x 1.894680 0.000000 0.000000 
#    y 0.000000 1.852770 0.000000 
#    z 0.000000 0.000000 1.919830 
# 
# From -- ./inp_files/30917.got.cif
#   From: 2010.05.17/outbox.cif.g08.bks.cpg/sg21_16_cif.got.tgz:30917.got - 2010.06.03 23:14:55.
