data_PCOD9324838
_publ_section_title
;
Structure prediction by ZEFSAII (Michael W. Deem and Ramdas Pophale) SiO2 
 PCOD9324838
Probable space group: C 2 2 2
;
_chemical_formula_sum "Si O2"
_cell_formula_units_Z 34
_cell_length_a 14.282652
_cell_length_b 6.025950
_cell_length_c 18.622333
_cell_angle_alpha 90.000000
_cell_angle_beta 90.000000
_cell_angle_gamma 90.000000
_cell_volume 1602.759895
_symmetry_space_group_name_H-M "C 2 2 2"
_symmetry_group_IT_number 21
_symmetry_cell_setting 'orthorhombic'
loop_
_space_group_symop_operation_xyz
x,y,z
-x,-y,z
x,-y,-z
-x,y,-z
1/2+x,1/2+y,z
1/2-x,1/2-y,z
1/2+x,1/2-y,-z
1/2-x,1/2+y,-z
loop_
_atom_site_type_symbol
_atom_site_label
_atom_site_fract_x
_atom_site_fract_y
_atom_site_fract_z
Si Si1 0.500000 0.000000 0.707631
Si Si2 0.803022 0.000000 0.500000
Si Si3 0.852604 0.821494 0.942319
Si Si4 0.354160 0.349364 0.350855
Si Si5 0.097630 0.124499 0.786656
Si Si6 0.000000 0.500000 0.000000
O O1 0.562907 0.170182 0.661175
O O2 0.428911 0.131511 0.759387
O O3 0.750000 0.750000 0.506199
O O4 0.861514 0.974685 0.426756
O O5 0.750000 0.750000 0.966720
O O6 0.845719 0.894131 0.859894
O O7 0.930407 0.633482 0.948462
O O8 0.885285 0.000000 0.000000
O O9 0.250000 0.250000 0.351207
O O10 0.358197 0.507993 0.282202
O O11 0.000000 0.000000 0.801548
#
# Coordination Sequence:
#
# PCOD9324838 Si02
#       6
#     4   4   8   8   8   2
#     4  10  23  44  69 106 132 182 246 285 374 435
#     4  10  24  44  75 107 146 196 248 296 376 447
#     4  12  26  44  69 102 138 186 242 291 371 434
#     4  10  24  43  73 100 141 186 234 295 361 437
#     4  10  23  43  66  99 136 179 233 297 360 435
#     4  12  24  48  68  90 144 184 228 310 352 428
#
# _framework density 21.213408999999999
#
# number of rings (size 3 to 8) (size 9 to 14) (size 15 to 20)
#    0.000    1.412    1.176    2.471    9.882    2.824 
#    0.000    6.471    0.000    0.000    0.000    0.000 
#    0.000    0.000    0.000    0.000    0.000    0.000 
#
# Total GULP energy -94844.658807 kJ/mol
# GULP energy per Si atom -5579.097577 kJ/mol
# Density = 2.116513 g / cm^3
# Si number density = 21.213409 Si / 1000 Ang^3
#
#
#
# Elastic Constant Matrix: (Units=GPa)
#
#
# Indices 1 2 3 4 5 6 
#
# 1 74.8984 21.7405 25.9329 0.0000 0.0000 0.0000
# 2 21.7405 91.6387 60.9443 0.0000 0.0000 0.0000
# 3 25.9329 60.9443 165.9619 0.0000 0.0000 0.0000
# 4 0.0000 0.0000 0.0000 2.2137 0.0000 0.0000
# 5 0.0000 0.0000 0.0000 0.0000 28.0161 0.0000
# 6 0.0000 0.0000 0.0000 0.0000 0.0000 23.9258
#
#
#
# Elastic Compliance Matrix: (Units=1/GPa)
#
#
# Indices 1 2 3 4 5 6 
#
# 1 0.014558 -0.002568 -0.001332 0.000000 0.000000 0.000000
# 2 -0.002568 0.014892 -0.005067 0.000000 0.000000 0.000000
# 3 -0.001332 -0.005067 0.008094 0.000000 0.000000 0.000000
# 4 0.000000 0.000000 0.000000 0.451734 0.000000 0.000000
# 5 0.000000 0.000000 0.000000 0.000000 0.035694 0.000000
# 6 0.000000 0.000000 0.000000 0.000000 0.000000 0.041796
#
#
# Mechanical properties :
#
#
# Convention : Reuss Voigt Hill
#
# Bulk Modulus (GPa) = 50.99469 61.08157 56.03813
# Shear Modulus (GPa) = 8.45683 25.75654 17.10669
#
# Velocity S-wave (km/s) = 1.99880 3.48826 2.84282
# Velocity P-wave (km/s) = 5.42384 6.71419 6.10321
#
# Compressibility (1/GPa) = 0.01960988
#
# Stress axis : x y z
#
# Youngs Moduli (GPa) = 68.69098 67.15193 123.54303
#
# Poissons Ratio (x) = 0.17245 0.16453
# Poissons Ratio (y) = 0.17640 0.62602
# Poissons Ratio (z) = 0.09148 0.34027
#
# Static dielectric constant tensor:
#      x y z
#    x 1.808580 0.000000 0.000000 
#    y 0.000000 1.847670 0.000000 
#    z 0.000000 0.000000 1.786500 
# 
# From -- ./inp_files/36512.got.cif
#   From: 2010.05.17/outbox.cif.g08.bks.cpg/sg21_19_cif.got.tgz:36512.got - 2010.06.03 23:14:55.
