data_PCOD9324321
_publ_section_title
;
Structure prediction by ZEFSAII (Michael W. Deem and Ramdas Pophale) SiO2 
 PCOD9324321
Probable space group: C 2 2 2
;
_chemical_formula_sum "Si O2"
_cell_formula_units_Z 32
_cell_length_a 5.069651
_cell_length_b 31.173017
_cell_length_c 9.132864
_cell_angle_alpha 90.000000
_cell_angle_beta 90.000000
_cell_angle_gamma 90.000000
_cell_volume 1443.324188
_symmetry_space_group_name_H-M "C 2 2 2"
_symmetry_group_IT_number 21
_symmetry_cell_setting 'orthorhombic'
loop_
_space_group_symop_operation_xyz
x,y,z
-x,-y,z
x,-y,-z
-x,y,-z
1/2+x,1/2+y,z
1/2-x,1/2-y,z
1/2+x,1/2-y,-z
1/2-x,1/2+y,-z
loop_
_atom_site_type_symbol
_atom_site_label
_atom_site_fract_x
_atom_site_fract_y
_atom_site_fract_z
Si Si1 0.317125 0.958769 0.248113
Si Si2 0.250000 0.750000 0.898200
Si Si3 0.966935 0.629590 0.328384
Si Si4 0.000000 0.000000 0.000000
Si Si5 0.500000 0.500000 0.500000
Si Si6 0.526804 0.684338 0.672923
O O1 0.458366 0.913453 0.245524
O O2 0.500000 0.000000 0.253776
O O3 0.149908 0.966972 0.394027
O O4 0.154446 0.967784 0.103993
O O5 0.405774 0.717849 0.787925
O O6 0.500000 0.766020 0.000000
O O7 0.175111 0.668335 0.298034
O O8 0.000000 0.620323 0.500000
O O9 0.667535 0.643857 0.307617
O O10 0.500000 0.698023 0.500000
#
# Coordination Sequence:
#
# PCOD9324321 Si02
#       6
#     8   4   8   2   2   8
#     4  11  23  41  62  93 132 180 229 281 341 404
#     4  12  26  48  72 106 148 184 230 284 360 436
#     4  10  22  40  70 102 133 168 232 294 340 397
#     4  10  26  42  56  88 132 186 230 274 334 422
#     4  10  22  34  68  92 120 178 222 286 338 386
#     4  10  24  45  71 103 134 180 230 289 347 421
#
# _framework density 22.171040999999999
#
# number of rings (size 3 to 8) (size 9 to 14) (size 15 to 20)
#    0.000    1.500    0.000    3.750   12.250    4.000 
#    6.750    0.000    0.000    0.000    0.000    0.000 
#    0.000    0.000    0.000    0.000    0.000    0.000 
#
# Total GULP energy -89336.253541 kJ/mol
# GULP energy per Si atom -5583.515846 kJ/mol
# Density = 2.212058 g / cm^3
# Si number density = 22.171041 Si / 1000 Ang^3
#
#
#
# Elastic Constant Matrix: (Units=GPa)
#
#
# Indices 1 2 3 4 5 6 
#
# 1 84.1728 -1.3740 44.4484 0.0000 0.0000 0.0000
# 2 -1.3740 64.0156 48.2596 0.0000 0.0000 0.0000
# 3 44.4484 48.2596 130.8635 0.0000 0.0000 0.0000
# 4 0.0000 0.0000 0.0000 -22.8838 0.0000 0.0000
# 5 0.0000 0.0000 0.0000 0.0000 138.7026 0.0000
# 6 0.0000 0.0000 0.0000 0.0000 0.0000 25.9882
#
#
#
# Elastic Compliance Matrix: (Units=1/GPa)
#
#
# Indices 1 2 3 4 5 6 
#
# 1 0.016065 0.006175 -0.007734 0.000000 0.000000 0.000000
# 2 0.006175 0.024010 -0.010952 0.000000 0.000000 0.000000
# 3 -0.007734 -0.010952 0.014307 0.000000 0.000000 0.000000
# 4 0.000000 0.000000 0.000000 -0.043699 0.000000 0.000000
# 5 0.000000 0.000000 0.000000 0.000000 0.007210 0.000000
# 6 0.000000 0.000000 0.000000 0.000000 0.000000 0.038479
#
#
# Mechanical properties :
#
#
# Convention : Reuss Voigt Hill
#
# Bulk Modulus (GPa) = 34.05846 51.30219 42.68032
# Shear Modulus (GPa) = 54.83671 40.87592 47.85632
#
# Velocity S-wave (km/s) = 4.97867 4.29845 4.65101
# Velocity P-wave (km/s) = 6.96022 6.91557 6.93793
#
# Compressibility (1/GPa) = 0.02936128
#
# Stress axis : x y z
#
# Youngs Moduli (GPa) = 62.24689 41.64936 69.89517
#
# Poissons Ratio (x) = -0.25719 0.54056
# Poissons Ratio (y) = -0.38438 0.76548
# Poissons Ratio (z) = 0.48141 0.45613
#
# Static dielectric constant tensor:
#      x y z
#    x 1.855240 0.000000 0.000000 
#    y 0.000000 1.650600 0.000000 
#    z 0.000000 0.000000 1.779280 
# 
# From -- ./inp_files/9257.got.cif
#   From: 2010.05.17/outbox.cif.g08.bks.cpg/sg21_5_cif.got.tgz:9257.got - 2010.06.03 23:14:55.
