data_PCOD9324260
_publ_section_title
;
Structure prediction by ZEFSAII (Michael W. Deem and Ramdas Pophale) SiO2 
 PCOD9324260
Probable space group: C 2 2 2
;
_chemical_formula_sum "Si O2"
_cell_formula_units_Z 34
_cell_length_a 18.423686
_cell_length_b 11.277483
_cell_length_c 7.538387
_cell_angle_alpha 90.000000
_cell_angle_beta 90.000000
_cell_angle_gamma 90.000000
_cell_volume 1566.271817
_symmetry_space_group_name_H-M "C 2 2 2"
_symmetry_group_IT_number 21
_symmetry_cell_setting 'orthorhombic'
loop_
_space_group_symop_operation_xyz
x,y,z
-x,-y,z
x,-y,-z
-x,y,-z
1/2+x,1/2+y,z
1/2-x,1/2-y,z
1/2+x,1/2-y,-z
1/2-x,1/2+y,-z
loop_
_atom_site_type_symbol
_atom_site_label
_atom_site_fract_x
_atom_site_fract_y
_atom_site_fract_z
Si Si1 0.474440 0.626966 0.707351
Si Si2 0.913784 0.681034 0.738603
Si Si3 0.335880 0.758891 0.618280
Si Si4 0.500000 0.000000 0.500000
Si Si5 0.699094 0.129788 0.957162
O O1 0.500000 0.500000 0.775993
O O2 0.500000 0.630747 0.500000
O O3 0.523207 0.728283 0.794507
O O4 0.388850 0.658977 0.706475
O O5 0.864229 0.733857 0.581176
O O6 0.864064 0.644727 0.900090
O O7 0.952700 0.578197 0.630628
O O8 0.250000 0.750000 0.599688
O O9 0.337926 0.866106 0.761517
O O10 0.750000 0.250000 0.968319
O O11 0.733883 0.000000 0.000000
#
# Coordination Sequence:
#
# PCOD9324260 Si02
#       5
#     8   8   8   2   8
#     4   9  19  39  64  95 130 173 223 274 332 402
#     4  11  22  41  66  94 133 177 217 278 332 393
#     4  10  21  42  66  97 132 172 222 275 334 403
#     4  12  20  40  64  92 136 162 238 266 318 408
#     4  11  26  44  66  99 136 175 226 275 340 406
#
# _framework density 21.707599999999999
#
# number of rings (size 3 to 8) (size 9 to 14) (size 15 to 20)
#    0.000    1.647    3.529    2.118    0.000    4.706 
#    0.000   15.294    0.000    0.000    0.000    0.000 
#    0.000    0.000    0.000    0.000    0.000    0.000 
#
# Total GULP energy -94691.760832 kJ/mol
# GULP energy per Si atom -5570.103578 kJ/mol
# Density = 2.165819 g / cm^3
# Si number density = 21.707600 Si / 1000 Ang^3
#
#
#
# Elastic Constant Matrix: (Units=GPa)
#
#
# Indices 1 2 3 4 5 6 
#
# 1 162.3684 55.6739 16.3949 0.0000 0.0000 0.0000
# 2 55.6739 105.0692 -9.6790 0.0000 0.0000 0.0000
# 3 16.3949 -9.6790 78.1740 0.0000 0.0000 0.0000
# 4 0.0000 0.0000 0.0000 12.0320 0.0000 0.0000
# 5 0.0000 0.0000 0.0000 0.0000 7.5509 0.0000
# 6 0.0000 0.0000 0.0000 0.0000 0.0000 23.1977
#
#
#
# Elastic Compliance Matrix: (Units=1/GPa)
#
#
# Indices 1 2 3 4 5 6 
#
# 1 0.007882 -0.004379 -0.002195 0.000000 0.000000 0.000000
# 2 -0.004379 0.012060 0.002411 0.000000 0.000000 0.000000
# 3 -0.002195 0.002411 0.013551 0.000000 0.000000 0.000000
# 4 0.000000 0.000000 0.000000 0.083112 0.000000 0.000000
# 5 0.000000 0.000000 0.000000 0.000000 0.132435 0.000000
# 6 0.000000 0.000000 0.000000 0.000000 0.000000 0.043108
#
#
# Mechanical properties :
#
#
# Convention : Reuss Voigt Hill
#
# Bulk Modulus (GPa) = 39.73301 52.26569 45.99935
# Shear Modulus (GPa) = 16.18853 27.43756 21.81305
#
# Velocity S-wave (km/s) = 2.73381 3.55908 3.17339
# Velocity P-wave (km/s) = 5.32057 6.40459 5.88758
#
# Compressibility (1/GPa) = 0.02516799
#
# Stress axis : x y z
#
# Youngs Moduli (GPa) = 126.87352 82.91984 73.79569
#
# Poissons Ratio (x) = 0.36308 0.16199
# Poissons Ratio (y) = 0.55553 -0.17796
# Poissons Ratio (z) = 0.27851 -0.19996
#
# Static dielectric constant tensor:
#      x y z
#    x 1.822490 0.000000 0.000000 
#    y 0.000000 1.895620 0.000000 
#    z 0.000000 0.000000 1.809470 
# 
# From -- ./inp_files/14154.got.cif
#   From: 2010.05.17/outbox.cif.g08.bks.cpg/sg21_8_cif.got.tgz:14154.got - 2010.06.03 23:14:55.
