data_PCOD9324410
_publ_section_title
;
Structure prediction by ZEFSAII (Michael W. Deem and Ramdas Pophale) SiO2 
 PCOD9324410
Probable space group: C 2 2 2
;
_chemical_formula_sum "Si O2"
_cell_formula_units_Z 60
_cell_length_a 20.384287
_cell_length_b 10.906593
_cell_length_c 13.975950
_cell_angle_alpha 90.000000
_cell_angle_beta 90.000000
_cell_angle_gamma 90.000000
_cell_volume 3107.176836
_symmetry_space_group_name_H-M "C 2 2 2"
_symmetry_group_IT_number 21
_symmetry_cell_setting 'orthorhombic'
loop_
_space_group_symop_operation_xyz
x,y,z
-x,-y,z
x,-y,-z
-x,y,-z
1/2+x,1/2+y,z
1/2-x,1/2-y,z
1/2+x,1/2-y,-z
1/2-x,1/2+y,-z
loop_
_atom_site_type_symbol
_atom_site_label
_atom_site_fract_x
_atom_site_fract_y
_atom_site_fract_z
Si Si1 0.535007 0.743307 0.296631
Si Si2 0.661844 0.180753 0.165896
Si Si3 0.486695 0.856607 0.105032
Si Si4 0.115400 0.796631 0.355816
Si Si5 0.148988 0.944245 0.717203
Si Si6 0.787942 0.939399 0.896573
Si Si7 0.124115 0.363694 0.456989
Si Si8 0.750000 0.250000 0.633958
O O1 0.529351 0.800710 0.190936
O O2 0.460936 0.708522 0.325182
O O3 0.580090 0.623937 0.291913
O O4 0.571141 0.833716 0.373013
O O5 0.589292 0.153939 0.131468
O O6 0.656322 0.217245 0.277729
O O7 0.714469 0.074683 0.146456
O O8 0.684874 0.300912 0.107615
O O9 0.500000 0.000000 0.101203
O O10 0.500000 0.801931 0.000000
O O11 0.116208 0.735657 0.458953
O O12 0.144567 0.933366 0.347559
O O13 0.203990 0.845437 0.689723
O O14 0.165874 0.987589 0.823819
O O15 0.786532 0.000000 0.000000
O O16 0.116134 0.500000 0.500000
O O17 0.197765 0.336170 0.420850
#
# Coordination Sequence:
#
# PCOD9324410 Si02
#       8
#     8   8   8   8   8   8   8   4
#     4  10  23  42  65 100 126 164 219 273 318 390
#     4   9  22  40  57  95 119 164 217 251 330 387
#     4  10  23  39  64  89 128 171 206 262 330 390
#     4  10  22  42  69  87 132 173 209 269 321 398
#     4  10  23  43  64  93 132 167 216 268 331 380
#     4  10  22  38  65  88 124 167 214 269 317 388
#     4  11  26  40  67  98 131 172 219 267 325 387
#     4  10  26  40  58 100 128 170 214 266 324 388
#
# _framework density 19.310133
#
# number of rings (size 3 to 8) (size 9 to 14) (size 15 to 20)
#    0.000    2.000    0.000    0.800   11.200    5.333 
#    0.000    2.667    0.000    0.000    0.000    0.000 
#    0.000    0.000    0.000    0.000    0.000    0.000 
#
# Total GULP energy -167397.504164 kJ/mol
# GULP energy per Si atom -5579.916805 kJ/mol
# Density = 1.926618 g / cm^3
# Si number density = 19.310133 Si / 1000 Ang^3
#
#
#
# Elastic Constant Matrix: (Units=GPa)
#
#
# Indices 1 2 3 4 5 6 
#
# 1 61.2988 17.8477 16.7534 0.0000 0.0000 0.0000
# 2 17.8477 72.3187 37.6560 0.0000 0.0000 0.0000
# 3 16.7534 37.6560 91.3361 0.0000 0.0000 0.0000
# 4 0.0000 0.0000 0.0000 44.6562 0.0000 0.0000
# 5 0.0000 0.0000 0.0000 0.0000 25.2330 0.0000
# 6 0.0000 0.0000 0.0000 0.0000 0.0000 20.7811
#
#
#
# Elastic Compliance Matrix: (Units=1/GPa)
#
#
# Indices 1 2 3 4 5 6 
#
# 1 0.017820 -0.003433 -0.001853 0.000000 0.000000 0.000000
# 2 -0.003433 0.018269 -0.006902 0.000000 0.000000 0.000000
# 3 -0.001853 -0.006902 0.014134 0.000000 0.000000 0.000000
# 4 0.000000 0.000000 0.000000 0.022393 0.000000 0.000000
# 5 0.000000 0.000000 0.000000 0.000000 0.039631 0.000000
# 6 0.000000 0.000000 0.000000 0.000000 0.000000 0.048121
#
#
# Mechanical properties :
#
#
# Convention : Reuss Voigt Hill
#
# Bulk Modulus (GPa) = 38.69069 41.05198 39.87133
# Shear Modulus (GPa) = 25.85865 28.31382 27.08623
#
# Velocity S-wave (km/s) = 3.66337 3.83334 3.74932
# Velocity P-wave (km/s) = 6.16228 6.39516 6.27980
#
# Compressibility (1/GPa) = 0.02584601
#
# Stress axis : x y z
#
# Youngs Moduli (GPa) = 56.11823 54.73815 70.75056
#
# Poissons Ratio (x) = 0.18790 0.13112
# Poissons Ratio (y) = 0.19264 0.48833
# Poissons Ratio (z) = 0.10401 0.37781
#
# Static dielectric constant tensor:
#      x y z
#    x 1.684450 0.000000 0.000000 
#    y 0.000000 1.667960 0.000000 
#    z 0.000000 0.000000 1.685360 
# 
# From -- ./inp_files/26915.got.cif
#   From: 2010.05.17/outbox.cif.g08.bks.cpg/sg21_14_cif.got.tgz:26915.got - 2010.06.03 23:14:55.
