data_PCOD9324916
_publ_section_title
;
Structure prediction by ZEFSAII (Michael W. Deem and Ramdas Pophale) SiO2 
 PCOD9324916
Probable space group: C 2 2 2
;
_chemical_formula_sum "Si O2"
_cell_formula_units_Z 24
_cell_length_a 17.275493
_cell_length_b 12.681960
_cell_length_c 4.658722
_cell_angle_alpha 90.000000
_cell_angle_beta 90.000000
_cell_angle_gamma 90.000000
_cell_volume 1020.665945
_symmetry_space_group_name_H-M "C 2 2 2"
_symmetry_group_IT_number 21
_symmetry_cell_setting 'orthorhombic'
loop_
_space_group_symop_operation_xyz
x,y,z
-x,-y,z
x,-y,-z
-x,y,-z
1/2+x,1/2+y,z
1/2-x,1/2-y,z
1/2+x,1/2-y,-z
1/2-x,1/2+y,-z
loop_
_atom_site_type_symbol
_atom_site_label
_atom_site_fract_x
_atom_site_fract_y
_atom_site_fract_z
Si Si1 0.000000 0.500000 0.500000
Si Si2 0.500000 0.500000 0.000000
Si Si3 0.110425 0.500000 0.000000
Si Si4 0.574270 0.690621 0.682104
Si Si5 0.665096 0.782944 0.183886
O O1 0.941801 0.548949 0.739091
O O2 0.552515 0.426646 0.206296
O O3 0.158071 0.590887 0.838817
O O4 0.500000 0.727587 0.500000
O O5 0.646022 0.720753 0.476950
O O6 0.596843 0.745254 0.976177
O O7 0.750000 0.750000 0.086599
#
# Coordination Sequence:
#
# PCOD9324916 Si02
#       5
#     2   2   4   8   8
#     4  10  24  38  76 102 136 192 262 302 376 458
#     4  12  26  50  82 124 146 204 268 348 386 444
#     4  11  26  45  72 107 149 204 250 328 387 445
#     4  12  26  47  78 114 149 201 265 320 388 469
#     4  12  28  48  74 113 161 205 261 322 399 474
#
# _framework density 23.514059
#
# number of rings (size 3 to 8) (size 9 to 14) (size 15 to 20)
#    0.000    0.333    3.333    3.500   14.000    1.333 
#    0.000    0.000    0.000    0.000    0.000    0.000 
#    0.000    0.000    0.000    0.000    0.000    0.000 
#
# Total GULP energy -66868.415186 kJ/mol
# GULP energy per Si atom -5572.367932 kJ/mol
# Density = 2.346054 g / cm^3
# Si number density = 23.514059 Si / 1000 Ang^3
#
#
#
# Elastic Constant Matrix: (Units=GPa)
#
#
# Indices 1 2 3 4 5 6 
#
# 1 100.6483 53.0520 29.1260 0.0000 0.0000 0.0000
# 2 53.0520 157.9622 40.8918 0.0000 0.0000 0.0000
# 3 29.1260 40.8918 156.1890 0.0000 0.0000 0.0000
# 4 0.0000 0.0000 0.0000 -88.0791 0.0000 0.0000
# 5 0.0000 0.0000 0.0000 0.0000 36.4316 0.0000
# 6 0.0000 0.0000 0.0000 0.0000 0.0000 16.6487
#
#
#
# Elastic Compliance Matrix: (Units=1/GPa)
#
#
# Indices 1 2 3 4 5 6 
#
# 1 0.012315 -0.003799 -0.001302 0.000000 0.000000 0.000000
# 2 -0.003799 0.007963 -0.001376 0.000000 0.000000 0.000000
# 3 -0.001302 -0.001376 0.007006 0.000000 0.000000 0.000000
# 4 0.000000 0.000000 0.000000 -0.011353 0.000000 0.000000
# 5 0.000000 0.000000 0.000000 0.000000 0.027449 0.000000
# 6 0.000000 0.000000 0.000000 0.000000 0.000000 0.060065
#
#
# Mechanical properties :
#
#
# Convention : Reuss Voigt Hill
#
# Bulk Modulus (GPa) = 69.78875 73.43767 71.61321
# Shear Modulus (GPa) = 41.26308 12.44889 26.85598
#
# Velocity S-wave (km/s) = 4.19361 2.30342 3.38320
# Velocity P-wave (km/s) = 7.29332 6.19463 6.76631
#
# Compressibility (1/GPa) = 0.01432896
#
# Stress axis : x y z
#
# Youngs Moduli (GPa) = 81.20347 125.58401 142.74290
#
# Poissons Ratio (x) = 0.47708 0.18583
# Poissons Ratio (y) = 0.30849 0.19646
# Poissons Ratio (z) = 0.10571 0.17284
#
# Static dielectric constant tensor:
#      x y z
#    x 1.906760 0.000000 0.000000 
#    y 0.000000 2.092230 0.000000 
#    z 0.000000 0.000000 1.923990 
# 
# From -- ./inp_files/3217.got.cif
#   From: 2010.05.17/outbox.cif.g08.bks.cpg/sg21_2_cif.got.tgz:3217.got - 2010.06.03 23:14:55.
