data_PCOD9324833
_publ_section_title
;
Structure prediction by ZEFSAII (Michael W. Deem and Ramdas Pophale) SiO2 
 PCOD9324833
Probable space group: C 2 2 2
;
_chemical_formula_sum "Si O2"
_cell_formula_units_Z 64
_cell_length_a 11.826578
_cell_length_b 17.226495
_cell_length_c 14.271344
_cell_angle_alpha 90.000000
_cell_angle_beta 90.000000
_cell_angle_gamma 90.000000
_cell_volume 2907.507860
_symmetry_space_group_name_H-M "C 2 2 2"
_symmetry_group_IT_number 21
_symmetry_cell_setting 'orthorhombic'
loop_
_space_group_symop_operation_xyz
x,y,z
-x,-y,z
x,-y,-z
-x,y,-z
1/2+x,1/2+y,z
1/2-x,1/2-y,z
1/2+x,1/2-y,-z
1/2-x,1/2+y,-z
loop_
_atom_site_type_symbol
_atom_site_label
_atom_site_fract_x
_atom_site_fract_y
_atom_site_fract_z
Si Si1 0.641770 0.968588 0.396004
Si Si2 0.197301 0.167359 0.460935
Si Si3 0.445168 0.079724 0.204978
Si Si4 0.018043 0.846643 0.686054
Si Si5 0.374667 0.288015 0.974320
Si Si6 0.105468 0.281890 0.781177
Si Si7 0.790428 0.841311 0.158361
Si Si8 0.218754 0.114522 0.671770
O O1 0.725936 0.899541 0.418367
O O2 0.557743 0.931296 0.318962
O O3 0.609665 0.000000 0.500000
O O4 0.707269 0.037952 0.343456
O O5 0.250000 0.250000 0.434273
O O6 0.076493 0.153309 0.414400
O O7 0.204064 0.156307 0.571743
O O8 0.526759 0.150074 0.178908
O O9 0.319701 0.104315 0.171273
O O10 0.500000 0.000000 0.167699
O O11 0.117091 0.857004 0.761788
O O12 0.963524 0.761512 0.700668
O O13 0.910623 0.902773 0.699765
O O14 0.250000 0.250000 0.983563
O O15 0.382946 0.283583 0.861866
O O16 0.500000 0.255637 0.000000
O O17 0.353413 0.351029 0.057254
O O18 0.212489 0.327571 0.739168
O O19 0.750000 0.750000 0.170266
#
# Coordination Sequence:
#
# PCOD9324833 Si02
#       8
#     8   8   8   8   8   8   8   8
#     4  10  23  43  63  96 145 198 248 302 375 463
#     4  11  22  41  64  93 139 187 261 311 362 443
#     4  12  23  44  69 104 150 196 251 307 383 466
#     4  12  21  37  66  96 136 182 247 312 374 442
#     4  11  22  41  71 112 146 183 246 329 390 466
#     4  12  23  41  69 105 141 187 249 318 386 458
#     4  11  22  42  70 109 137 184 252 309 387 454
#     4  11  25  40  58 101 144 196 240 301 389 457
#
# _framework density 22.011977999999999
#
# number of rings (size 3 to 8) (size 9 to 14) (size 15 to 20)
#    0.000    0.750    5.000    4.125    0.000    0.750 
#    0.000    3.125    0.000    9.375    0.000    0.875 
#    0.000    0.000    0.000    0.000    0.000    0.000 
#
# Total GULP energy -178279.015418 kJ/mol
# GULP energy per Si atom -5571.219232 kJ/mol
# Density = 2.196188 g / cm^3
# Si number density = 22.011978 Si / 1000 Ang^3
#
#
#
# Elastic Constant Matrix: (Units=GPa)
#
#
# Indices 1 2 3 4 5 6 
#
# 1 167.2444 34.0132 43.0169 0.0000 0.0000 0.0000
# 2 34.0132 80.1864 25.6863 0.0000 0.0000 0.0000
# 3 43.0169 25.6863 118.9128 0.0000 0.0000 0.0000
# 4 0.0000 0.0000 0.0000 -7.1407 0.0000 0.0000
# 5 0.0000 0.0000 0.0000 0.0000 38.1368 0.0000
# 6 0.0000 0.0000 0.0000 0.0000 0.0000 16.3366
#
#
#
# Elastic Compliance Matrix: (Units=1/GPa)
#
#
# Indices 1 2 3 4 5 6 
#
# 1 0.006969 -0.002308 -0.002022 0.000000 0.000000 0.000000
# 2 -0.002308 0.014163 -0.002224 0.000000 0.000000 0.000000
# 3 -0.002022 -0.002224 0.009622 0.000000 0.000000 0.000000
# 4 0.000000 0.000000 0.000000 -0.140042 0.000000 0.000000
# 5 0.000000 0.000000 0.000000 0.000000 0.026221 0.000000
# 6 0.000000 0.000000 0.000000 0.000000 0.000000 0.061212
#
#
# Mechanical properties :
#
#
# Convention : Reuss Voigt Hill
#
# Bulk Modulus (GPa) = 56.67878 63.53073 60.10475
# Shear Modulus (GPa) = -1745.58307 27.04168 -859.27070
#
# Velocity S-wave (km/s) = -28.19107 3.50880 -19.77909
# Velocity P-wave (km/s) = 32.15344 6.73350 22.23178
#
# Compressibility (1/GPa) = 0.01764329
#
# Stress axis : x y z
#
# Youngs Moduli (GPa) = 143.49501 70.60885 103.93290
#
# Poissons Ratio (x) = 0.16298 0.21019
# Poissons Ratio (y) = 0.33121 0.23117
# Poissons Ratio (z) = 0.29021 0.15705
#
# Static dielectric constant tensor:
#      x y z
#    x 2.502840 0.000000 0.000000 
#    y 0.000000 1.812370 0.000000 
#    z 0.000000 0.000000 1.886750 
# 
# From -- ./inp_files/31759.got.cif
#   From: 2010.05.17/outbox.cif.g08.bks.cpg/sg21_16_cif.got.tgz:31759.got - 2010.06.03 23:14:55.
