data_PCOD9324166
_publ_section_title
;
Structure prediction by ZEFSAII (Michael W. Deem and Ramdas Pophale) SiO2 
 PCOD9324166
Probable space group: C 2 2 2
;
_chemical_formula_sum "Si O2"
_cell_formula_units_Z 64
_cell_length_a 10.107045
_cell_length_b 21.681175
_cell_length_c 15.105065
_cell_angle_alpha 90.000000
_cell_angle_beta 90.000000
_cell_angle_gamma 90.000000
_cell_volume 3310.012338
_symmetry_space_group_name_H-M "C 2 2 2"
_symmetry_group_IT_number 21
_symmetry_cell_setting 'orthorhombic'
loop_
_space_group_symop_operation_xyz
x,y,z
-x,-y,z
x,-y,-z
-x,y,-z
1/2+x,1/2+y,z
1/2-x,1/2-y,z
1/2+x,1/2-y,-z
1/2-x,1/2+y,-z
loop_
_atom_site_type_symbol
_atom_site_label
_atom_site_fract_x
_atom_site_fract_y
_atom_site_fract_z
Si Si1 0.493425 0.148152 0.269682
Si Si2 0.398435 0.175790 0.072049
Si Si3 0.408773 0.253331 0.410356
Si Si4 0.542436 0.640349 0.263538
Si Si5 0.225371 0.443455 0.310433
Si Si6 0.152523 0.925835 0.503937
Si Si7 0.398517 0.321350 0.070880
Si Si8 0.760231 0.910204 0.685140
O O1 0.450380 0.169698 0.172255
O O2 0.449707 0.196058 0.346352
O O3 0.414838 0.084593 0.286196
O O4 0.647802 0.132880 0.275041
O O5 0.387533 0.248539 0.052202
O O6 0.248867 0.151044 0.065627
O O7 0.500000 0.148753 0.000000
O O8 0.500000 0.254800 0.500000
O O9 0.250000 0.250000 0.430847
O O10 0.432054 0.312260 0.344878
O O11 0.657966 0.589511 0.256456
O O12 0.546178 0.674346 0.170081
O O13 0.404059 0.606649 0.278709
O O14 0.263840 0.418636 0.408029
O O15 0.232205 0.516968 0.303669
O O16 0.229734 0.899955 0.420418
O O17 0.000000 0.903582 0.500000
O O18 0.141561 0.000000 0.500000
O O19 0.500000 0.348841 0.000000
#
# Coordination Sequence:
#
# PCOD9324166 Si02
#       8
#     8   8   8   8   8   8   8   8
#     4  12  25  43  66  91 136 169 207 263 325 386
#     4  10  21  41  65  93 125 160 206 262 321 378
#     4  12  28  45  64  94 134 178 211 254 329 388
#     4  12  23  41  70  90 133 170 211 262 316 385
#     4  11  22  42  66  89 126 177 216 263 314 370
#     4   9  18  35  57  84 117 161 220 262 292 340
#     4  10  21  40  66  95 121 160 211 262 315 376
#     4  11  26  38  63  99 124 169 226 266 304 368
#
# _framework density 19.335276
#
# number of rings (size 3 to 8) (size 9 to 14) (size 15 to 20)
#    0.000    1.125    5.000    0.750    7.000    0.000 
#    0.000    1.875    0.000    4.500    0.000    0.000 
#    0.000    0.000    0.000    0.000    0.000    0.000 
#
# Total GULP energy -178535.565683 kJ/mol
# GULP energy per Si atom -5579.236428 kJ/mol
# Density = 1.929127 g / cm^3
# Si number density = 19.335276 Si / 1000 Ang^3
#
#
#
# Elastic Constant Matrix: (Units=GPa)
#
#
# Indices 1 2 3 4 5 6 
#
# 1 51.3840 18.9154 53.4298 0.0000 0.0000 0.0000
# 2 18.9154 60.0528 11.5916 0.0000 0.0000 0.0000
# 3 53.4298 11.5916 119.4467 0.0000 0.0000 0.0000
# 4 0.0000 0.0000 0.0000 7.6720 0.0000 0.0000
# 5 0.0000 0.0000 0.0000 0.0000 20.6514 0.0000
# 6 0.0000 0.0000 0.0000 0.0000 0.0000 19.9510
#
#
#
# Elastic Compliance Matrix: (Units=1/GPa)
#
#
# Indices 1 2 3 4 5 6 
#
# 1 0.041178 -0.009594 -0.017488 0.000000 0.000000 0.000000
# 2 -0.009594 0.019205 0.002428 0.000000 0.000000 0.000000
# 3 -0.017488 0.002428 0.015959 0.000000 0.000000 0.000000
# 4 0.000000 0.000000 0.000000 0.130344 0.000000 0.000000
# 5 0.000000 0.000000 0.000000 0.000000 0.048423 0.000000
# 6 0.000000 0.000000 0.000000 0.000000 0.000000 0.050123
#
#
# Mechanical properties :
#
#
# Convention : Reuss Voigt Hill
#
# Bulk Modulus (GPa) = 36.99228 44.30635 40.64931
# Shear Modulus (GPa) = 13.75321 19.45131 16.60226
#
# Velocity S-wave (km/s) = 2.66992 3.17519 2.93345
# Velocity P-wave (km/s) = 5.35520 6.03382 5.70461
#
# Compressibility (1/GPa) = 0.02703267
#
# Stress axis : x y z
#
# Youngs Moduli (GPa) = 24.28507 52.06856 62.66081
#
# Poissons Ratio (x) = 0.49957 1.09582
# Poissons Ratio (y) = 0.23300 -0.15214
# Poissons Ratio (z) = 0.42470 -0.12642
#
# Static dielectric constant tensor:
#      x y z
#    x 1.711020 0.000000 0.000000 
#    y 0.000000 1.690490 0.000000 
#    z 0.000000 0.000000 1.687580 
# 
# From -- ./inp_files/30905.got.cif
#   From: 2010.05.17/outbox.cif.g08.bks.cpg/sg21_16_cif.got.tgz:30905.got - 2010.06.03 23:14:55.
