data_PCOD9324780
_publ_section_title
;
Structure prediction by ZEFSAII (Michael W. Deem and Ramdas Pophale) SiO2 
 PCOD9324780
Probable space group: C 2 2 2
;
_chemical_formula_sum "Si O2"
_cell_formula_units_Z 58
_cell_length_a 23.974872
_cell_length_b 14.226238
_cell_length_c 7.271506
_cell_angle_alpha 90.000000
_cell_angle_beta 90.000000
_cell_angle_gamma 90.000000
_cell_volume 2480.108804
_symmetry_space_group_name_H-M "C 2 2 2"
_symmetry_group_IT_number 21
_symmetry_cell_setting 'orthorhombic'
loop_
_space_group_symop_operation_xyz
x,y,z
-x,-y,z
x,-y,-z
-x,y,-z
1/2+x,1/2+y,z
1/2-x,1/2-y,z
1/2+x,1/2-y,-z
1/2-x,1/2+y,-z
loop_
_atom_site_type_symbol
_atom_site_label
_atom_site_fract_x
_atom_site_fract_y
_atom_site_fract_z
Si Si1 0.397435 0.126562 0.179650
Si Si2 0.587416 0.376142 0.353352
Si Si3 0.899645 0.420212 0.256758
Si Si4 0.814016 0.253714 0.298548
Si Si5 0.689546 0.283820 0.860964
Si Si6 0.485331 0.263988 0.195207
Si Si7 0.000000 0.500000 0.500000
Si Si8 0.402526 0.423631 0.230880
O O1 0.350559 0.202944 0.208811
O O2 0.448533 0.180493 0.279022
O O3 0.378462 0.027305 0.256447
O O4 0.407317 0.108396 0.959789
O O5 0.647351 0.328513 0.373966
O O6 0.539755 0.302692 0.295455
O O7 0.591507 0.464286 0.212887
O O8 0.576444 0.408406 0.559714
O O9 0.851841 0.347704 0.324380
O O10 0.957579 0.438154 0.368941
O O11 0.750000 0.250000 0.364141
O O12 0.811390 0.228281 0.081397
O O13 0.750000 0.250000 0.798050
O O14 0.659337 0.382080 0.807263
O O15 0.445582 0.352061 0.137447
O O16 0.500000 0.222112 0.000000
#
# Coordination Sequence:
#
# PCOD9324780 Si02
#       8
#     8   8   8   8   8   8   2   8
#     4   9  21  40  63  91 132 175 207 270 338 387
#     4  11  23  40  60  90 127 171 209 258 333 384
#     4  10  23  43  62  94 133 172 218 268 337 395
#     4  10  23  44  66  91 125 169 224 278 323 387
#     4   9  19  39  66  95 122 163 225 274 326 390
#     4  11  22  37  62  92 124 167 213 262 318 387
#     4  12  28  38  64 100 136 176 224 274 332 422
#     4  10  23  40  59  91 128 166 206 264 328 394
#
# _framework density 23.38607
#
# number of rings (size 3 to 8) (size 9 to 14) (size 15 to 20)
#    0.000    1.931    0.000    3.310    3.862    8.276 
#    0.000    4.138    0.000    0.000    0.000    0.000 
#    0.000    0.000    0.000    0.000    0.000    0.000 
#
# Total GULP energy -161710.289165 kJ/mol
# GULP energy per Si atom -5576.216868 kJ/mol
# Density = 2.333284 g / cm^3
# Si number density = 23.386070 Si / 1000 Ang^3
#
#
#
# Elastic Constant Matrix: (Units=GPa)
#
#
# Indices 1 2 3 4 5 6 
#
# 1 142.9089 36.1990 12.2417 0.0000 0.0000 0.0000
# 2 36.1990 112.6414 -3.3017 0.0000 0.0000 0.0000
# 3 12.2417 -3.3017 50.2039 0.0000 0.0000 0.0000
# 4 0.0000 0.0000 0.0000 20.7815 0.0000 0.0000
# 5 0.0000 0.0000 0.0000 0.0000 10.7183 0.0000
# 6 0.0000 0.0000 0.0000 0.0000 0.0000 21.5724
#
#
#
# Elastic Compliance Matrix: (Units=1/GPa)
#
#
# Indices 1 2 3 4 5 6 
#
# 1 0.007828 -0.002577 -0.002078 0.000000 0.000000 0.000000
# 2 -0.002577 0.009743 0.001269 0.000000 0.000000 0.000000
# 3 -0.002078 0.001269 0.020509 0.000000 0.000000 0.000000
# 4 0.000000 0.000000 0.000000 0.048120 0.000000 0.000000
# 5 0.000000 0.000000 0.000000 0.000000 0.093298 0.000000
# 6 0.000000 0.000000 0.000000 0.000000 0.000000 0.046356
#
#
# Mechanical properties :
#
#
# Convention : Reuss Voigt Hill
#
# Bulk Modulus (GPa) = 31.94027 44.00358 37.97193
# Shear Modulus (GPa) = 20.57094 27.98879 24.27987
#
# Velocity S-wave (km/s) = 2.96906 3.46325 3.22564
# Velocity P-wave (km/s) = 5.04393 5.90332 5.49047
#
# Compressibility (1/GPa) = 0.03130843
#
# Stress axis : x y z
#
# Youngs Moduli (GPa) = 127.74415 102.63822 48.75905
#
# Poissons Ratio (x) = 0.26446 0.10133
# Poissons Ratio (y) = 0.32915 -0.06188
# Poissons Ratio (z) = 0.26549 -0.13025
#
# Static dielectric constant tensor:
#      x y z
#    x 1.885770 0.000000 0.000000 
#    y 0.000000 1.933330 0.000000 
#    z 0.000000 0.000000 2.068370 
# 
# From -- ./inp_files/18620.got.cif
#   From: 2010.05.17/outbox.cif.g08.bks.cpg/sg21_10_cif.got.tgz:18620.got - 2010.06.03 23:14:55.
