data_PCOD9324852
_publ_section_title
;
Structure prediction by ZEFSAII (Michael W. Deem and Ramdas Pophale) SiO2 
 PCOD9324852
Probable space group: C 2 2 2
;
_chemical_formula_sum "Si O2"
_cell_formula_units_Z 48
_cell_length_a 7.944107
_cell_length_b 18.483718
_cell_length_c 14.262939
_cell_angle_alpha 90.000000
_cell_angle_beta 90.000000
_cell_angle_gamma 90.000000
_cell_volume 2094.321947
_symmetry_space_group_name_H-M "C 2 2 2"
_symmetry_group_IT_number 21
_symmetry_cell_setting 'orthorhombic'
loop_
_space_group_symop_operation_xyz
x,y,z
-x,-y,z
x,-y,-z
-x,y,-z
1/2+x,1/2+y,z
1/2-x,1/2-y,z
1/2+x,1/2-y,-z
1/2-x,1/2+y,-z
loop_
_atom_site_type_symbol
_atom_site_label
_atom_site_fract_x
_atom_site_fract_y
_atom_site_fract_z
Si Si1 0.881011 0.805430 0.071247
Si Si2 0.683664 0.075277 0.044188
Si Si3 0.025685 0.422541 0.231096
Si Si4 0.548989 0.653245 0.603669
Si Si5 0.448861 0.820967 0.396086
Si Si6 0.417736 0.578074 0.787398
O O1 0.750000 0.750000 0.116292
O O2 0.973462 0.855156 0.147065
O O3 0.789852 0.860511 0.000090
O O4 0.000000 0.761741 0.000000
O O5 0.625171 0.081443 0.153703
O O6 0.500000 0.078622 0.000000
O O7 0.756589 0.000000 0.000000
O O8 0.025033 0.361112 0.307768
O O9 0.000000 0.500000 0.279435
O O10 0.216977 0.424265 0.193517
O O11 0.500000 0.627138 0.500000
O O12 0.493976 0.737324 0.610664
O O13 0.749992 0.662513 0.612520
O O14 0.468500 0.602645 0.682888
O O15 0.500000 0.846261 0.500000
O O16 0.500000 0.500000 0.808219
#
# Coordination Sequence:
#
# PCOD9324852 Si02
#       6
#     8   8   8   8   8   8
#     4  12  30  46  71 103 148 188 248 300 365 432
#     4  11  22  44  71  98 138 190 237 297 366 426
#     4  12  24  42  72  98 143 183 246 290 368 434
#     4  10  23  45  71 103 143 182 235 294 365 440
#     4  10  23  43  71 104 139 187 234 297 368 437
#     4  12  28  45  71 107 142 191 240 302 364 429
#
# _framework density 22.919111999999998
#
# number of rings (size 3 to 8) (size 9 to 14) (size 15 to 20)
#    0.000    0.833    3.333    2.500    9.333    2.000 
#    0.000    3.333    0.000    0.000    0.000    0.000 
#    0.000    0.000    0.000    0.000    0.000    0.000 
#
# Total GULP energy -134031.559677 kJ/mol
# GULP energy per Si atom -5584.648320 kJ/mol
# Density = 2.286695 g / cm^3
# Si number density = 22.919112 Si / 1000 Ang^3
#
#
#
# Elastic Constant Matrix: (Units=GPa)
#
#
# Indices 1 2 3 4 5 6 
#
# 1 45.3309 9.1578 29.1440 0.0000 0.0000 0.0000
# 2 9.1578 84.9092 60.6915 0.0000 0.0000 0.0000
# 3 29.1440 60.6915 146.0021 0.0000 0.0000 0.0000
# 4 0.0000 0.0000 0.0000 52.2302 0.0000 0.0000
# 5 0.0000 0.0000 0.0000 0.0000 36.2417 0.0000
# 6 0.0000 0.0000 0.0000 0.0000 0.0000 24.5940
#
#
#
# Elastic Compliance Matrix: (Units=1/GPa)
#
#
# Indices 1 2 3 4 5 6 
#
# 1 0.025402 0.001259 -0.005594 0.000000 0.000000 0.000000
# 2 0.001259 0.016818 -0.007242 0.000000 0.000000 0.000000
# 3 -0.005594 -0.007242 0.010976 0.000000 0.000000 0.000000
# 4 0.000000 0.000000 0.000000 0.019146 0.000000 0.000000
# 5 0.000000 0.000000 0.000000 0.000000 0.027593 0.000000
# 6 0.000000 0.000000 0.000000 0.000000 0.000000 0.040660
#
#
# Mechanical properties :
#
#
# Convention : Reuss Voigt Hill
#
# Bulk Modulus (GPa) = 33.28717 52.69209 42.98963
# Shear Modulus (GPa) = 28.77453 34.42976 31.60214
#
# Velocity S-wave (km/s) = 3.54712 3.88007 3.71732
# Velocity P-wave (km/s) = 5.59744 6.56609 6.10102
#
# Compressibility (1/GPa) = 0.03004160
#
# Stress axis : x y z
#
# Youngs Moduli (GPa) = 39.36684 59.45905 91.10443
#
# Poissons Ratio (x) = -0.07484 0.50962
# Poissons Ratio (y) = -0.04955 0.65982
# Poissons Ratio (z) = 0.22021 0.43063
#
# Static dielectric constant tensor:
#      x y z
#    x 1.857610 0.000000 0.000000 
#    y 0.000000 1.861050 0.000000 
#    z 0.000000 0.000000 1.863250 
# 
# From -- ./inp_files/30513.got.cif
#   From: 2010.05.17/outbox.cif.g08.bks.cpg/sg21_16_cif.got.tgz:30513.got - 2010.06.03 23:14:55.
