data_PCOD9324110
_publ_section_title
;
Structure prediction by ZEFSAII (Michael W. Deem and Ramdas Pophale) SiO2 
 PCOD9324110
Probable space group: C 2 2 2
;
_chemical_formula_sum "Si O2"
_cell_formula_units_Z 46
_cell_length_a 17.937460
_cell_length_b 9.820120
_cell_length_c 11.351499
_cell_angle_alpha 90.000000
_cell_angle_beta 90.000000
_cell_angle_gamma 90.000000
_cell_volume 1999.543956
_symmetry_space_group_name_H-M "C 2 2 2"
_symmetry_group_IT_number 21
_symmetry_cell_setting 'orthorhombic'
loop_
_space_group_symop_operation_xyz
x,y,z
-x,-y,z
x,-y,-z
-x,y,-z
1/2+x,1/2+y,z
1/2-x,1/2-y,z
1/2+x,1/2-y,-z
1/2-x,1/2+y,-z
loop_
_atom_site_type_symbol
_atom_site_label
_atom_site_fract_x
_atom_site_fract_y
_atom_site_fract_z
Si Si1 0.215331 0.609870 0.376281
Si Si2 0.369505 0.932686 0.147572
Si Si3 0.128567 0.756454 0.851039
Si Si4 0.113896 0.718400 0.579047
Si Si5 0.500000 0.000000 0.500000
Si Si6 0.500000 0.213194 0.000000
Si Si7 0.348911 0.500000 0.500000
Si Si8 0.250000 0.750000 0.014268
O O1 0.250000 0.750000 0.331788
O O2 0.148896 0.573873 0.287301
O O3 0.179570 0.646551 0.503894
O O4 0.289145 0.518041 0.392893
O O5 0.368351 0.093135 0.122320
O O6 0.445471 0.870001 0.091587
O O7 0.300955 0.849033 0.091297
O O8 0.132198 0.760885 0.711640
O O9 0.194810 0.825727 0.922876
O O10 0.052212 0.799043 0.912970
O O11 0.048402 0.607618 0.575129
O O12 0.103843 0.862877 0.512761
#
# Coordination Sequence:
#
# PCOD9324110 Si02
#       8
#     8   8   8   8   2   4   4   4
#     4  10  21  39  67  96 134 170 225 290 367 425
#     4  11  20  39  60  92 133 180 231 296 349 426
#     4  11  23  38  64  93 136 173 237 295 349 429
#     4  11  26  42  70 106 136 182 234 298 366 437
#     4  12  26  46  68 106 134 186 244 290 370 472
#     4  10  23  38  58  90 135 188 233 293 350 403
#     4  10  23  45  66 107 139 178 224 302 384 427
#     4  10  22  36  56  94 126 182 232 284 350 402
#
# _framework density 23.005244000000001
#
# number of rings (size 3 to 8) (size 9 to 14) (size 15 to 20)
#    0.000    1.391    0.870    5.739   10.957    0.348 
#    0.000    0.000    0.000    0.000    0.000   26.783 
#    0.000    0.000    0.000    0.000    0.000    0.000 
#
# Total GULP energy -128236.978296 kJ/mol
# GULP energy per Si atom -5575.520795 kJ/mol
# Density = 2.295288 g / cm^3
# Si number density = 23.005244 Si / 1000 Ang^3
#
#
#
# Elastic Constant Matrix: (Units=GPa)
#
#
# Indices 1 2 3 4 5 6 
#
# 1 117.0862 31.1236 49.0948 0.0000 0.0000 0.0000
# 2 31.1236 85.4714 -2.4452 0.0000 0.0000 0.0000
# 3 49.0948 -2.4452 149.4518 0.0000 0.0000 0.0000
# 4 0.0000 0.0000 0.0000 11.2034 0.0000 0.0000
# 5 0.0000 0.0000 0.0000 0.0000 21.4838 0.0000
# 6 0.0000 0.0000 0.0000 0.0000 0.0000 31.4294
#
#
#
# Elastic Compliance Matrix: (Units=1/GPa)
#
#
# Indices 1 2 3 4 5 6 
#
# 1 0.011233 -0.004198 -0.003759 0.000000 0.000000 0.000000
# 2 -0.004198 0.013274 0.001596 0.000000 0.000000 0.000000
# 3 -0.003759 0.001596 0.007952 0.000000 0.000000 0.000000
# 4 0.000000 0.000000 0.000000 0.089258 0.000000 0.000000
# 5 0.000000 0.000000 0.000000 0.000000 0.046547 0.000000
# 6 0.000000 0.000000 0.000000 0.000000 0.000000 0.031817
#
#
# Mechanical properties :
#
#
# Convention : Reuss Voigt Hill
#
# Bulk Modulus (GPa) = 50.66325 56.39507 53.52916
# Shear Modulus (GPa) = 22.79144 31.10575 26.94859
#
# Velocity S-wave (km/s) = 3.15096 3.68110 3.42630
# Velocity P-wave (km/s) = 5.94209 6.52952 6.24271
#
# Compressibility (1/GPa) = 0.01973817
#
# Stress axis : x y z
#
# Youngs Moduli (GPa) = 89.02717 75.33495 125.75581
#
# Poissons Ratio (x) = 0.31624 0.47266
# Poissons Ratio (y) = 0.37371 -0.20072
# Poissons Ratio (z) = 0.33461 -0.12024
#
# Static dielectric constant tensor:
#      x y z
#    x 1.930800 0.000000 0.000000 
#    y 0.000000 1.888790 0.000000 
#    z 0.000000 0.000000 1.988390 
# 
# From -- ./inp_files/26100.got.cif
#   From: 2010.05.17/outbox.cif.g08.bks.cpg/sg21_14_cif.got.tgz:26100.got - 2010.06.03 23:14:55.
