data_PCOD9324707
_publ_section_title
;
Structure prediction by ZEFSAII (Michael W. Deem and Ramdas Pophale) SiO2 
 PCOD9324707
Probable space group: C 2 2 2
;
_chemical_formula_sum "Si O2"
_cell_formula_units_Z 34
_cell_length_a 34.676395
_cell_length_b 5.355294
_cell_length_c 8.133805
_cell_angle_alpha 90.000000
_cell_angle_beta 90.000000
_cell_angle_gamma 90.000000
_cell_volume 1510.466216
_symmetry_space_group_name_H-M "C 2 2 2"
_symmetry_group_IT_number 21
_symmetry_cell_setting 'orthorhombic'
loop_
_space_group_symop_operation_xyz
x,y,z
-x,-y,z
x,-y,-z
-x,y,-z
1/2+x,1/2+y,z
1/2-x,1/2-y,z
1/2+x,1/2-y,-z
1/2-x,1/2+y,-z
loop_
_atom_site_type_symbol
_atom_site_label
_atom_site_fract_x
_atom_site_fract_y
_atom_site_fract_z
Si Si1 0.600431 0.500000 0.000000
Si Si2 0.834895 0.323131 0.161522
Si Si3 0.635213 0.000000 0.500000
Si Si4 0.750000 0.250000 0.103687
Si Si5 0.500000 0.000000 0.500000
Si Si6 0.961643 0.863015 0.232169
Si Si7 0.912612 0.000000 0.500000
O O1 0.630282 0.370512 0.126458
O O2 0.570240 0.688909 0.091554
O O3 0.842173 0.463222 0.330985
O O4 0.792027 0.209653 0.183965
O O5 0.835955 0.500000 0.000000
O O6 0.611517 0.747257 0.469748
O O7 0.755283 0.500000 0.000000
O O8 0.474417 0.159011 0.368368
O O9 0.939348 0.061055 0.345139
O O10 0.000000 0.000000 0.171661
#
# Coordination Sequence:
#
# PCOD9324707 Si02
#       7
#     4   8   4   4   2   8   4
#     4  12  25  48  74 110 150 196 264 322 385 466
#     4  11  25  47  76 113 151 205 252 322 388 472
#     4  12  27  44  78 112 147 192 261 314 384 460
#     4  10  22  44  80 110 154 206 250 312 400 468
#     4  12  24  48  74 102 150 212 242 330 382 470
#     4  12  25  43  72 101 144 196 257 309 386 449
#     4  12  23  46  71 104 140 196 248 312 379 452
#
# _framework density 22.509606999999999
#
# number of rings (size 3 to 8) (size 9 to 14) (size 15 to 20)
#    0.000    0.471    5.882    2.471    0.000    1.882 
#    0.000    9.412    0.000    0.000    0.000    0.000 
#    0.000    0.000    0.000    0.000    0.000    0.000 
#
# Total GULP energy -94796.743917 kJ/mol
# GULP energy per Si atom -5576.279054 kJ/mol
# Density = 2.245837 g / cm^3
# Si number density = 22.509607 Si / 1000 Ang^3
#
#
#
# Elastic Constant Matrix: (Units=GPa)
#
#
# Indices 1 2 3 4 5 6 
#
# 1 208.4879 53.4628 68.9076 0.0000 0.0000 0.0000
# 2 53.4628 89.8125 29.1892 0.0000 0.0000 0.0000
# 3 68.9076 29.1892 137.6808 0.0000 0.0000 0.0000
# 4 0.0000 0.0000 0.0000 24.8680 0.0000 0.0000
# 5 0.0000 0.0000 0.0000 0.0000 48.0176 0.0000
# 6 0.0000 0.0000 0.0000 0.0000 0.0000 28.7590
#
#
#
# Elastic Compliance Matrix: (Units=1/GPa)
#
#
# Indices 1 2 3 4 5 6 
#
# 1 0.006412 -0.002979 -0.002578 0.000000 0.000000 0.000000
# 2 -0.002979 0.013343 -0.001338 0.000000 0.000000 0.000000
# 3 -0.002578 -0.001338 0.008837 0.000000 0.000000 0.000000
# 4 0.000000 0.000000 0.000000 0.040212 0.000000 0.000000
# 5 0.000000 0.000000 0.000000 0.000000 0.020826 0.000000
# 6 0.000000 0.000000 0.000000 0.000000 0.000000 0.034772
#
#
# Mechanical properties :
#
#
# Convention : Reuss Voigt Hill
#
# Bulk Modulus (GPa) = 67.55586 82.12226 74.83906
# Shear Modulus (GPa) = 34.93450 39.29037 37.11243
#
# Velocity S-wave (km/s) = 3.94379 4.18244 4.06487
# Velocity P-wave (km/s) = 7.12848 7.73862 7.43980
#
# Compressibility (1/GPa) = 0.01480257
#
# Stress axis : x y z
#
# Youngs Moduli (GPa) = 155.94792 74.94821 113.16250
#
# Poissons Ratio (x) = 0.22330 0.29170
# Poissons Ratio (y) = 0.46463 0.15136
# Poissons Ratio (z) = 0.40198 0.10025
#
# Static dielectric constant tensor:
#      x y z
#    x 1.919210 0.000000 0.000000 
#    y 0.000000 1.938500 0.000000 
#    z 0.000000 0.000000 1.885400 
# 
# From -- ./inp_files/9275.got.cif
#   From: 2010.05.17/outbox.cif.g08.bks.cpg/sg21_5_cif.got.tgz:9275.got - 2010.06.03 23:14:55.
