data_PCOD9324036
_publ_section_title
;
Structure prediction by ZEFSAII (Michael W. Deem and Ramdas Pophale) SiO2 
 PCOD9324036
Probable space group: C 2 2 2
;
_chemical_formula_sum "Si O2"
_cell_formula_units_Z 64
_cell_length_a 24.993047
_cell_length_b 15.560488
_cell_length_c 7.699955
_cell_angle_alpha 90.000000
_cell_angle_beta 90.000000
_cell_angle_gamma 90.000000
_cell_volume 2994.543360
_symmetry_space_group_name_H-M "C 2 2 2"
_symmetry_group_IT_number 21
_symmetry_cell_setting 'orthorhombic'
loop_
_space_group_symop_operation_xyz
x,y,z
-x,-y,z
x,-y,-z
-x,y,-z
1/2+x,1/2+y,z
1/2-x,1/2-y,z
1/2+x,1/2-y,-z
1/2-x,1/2+y,-z
loop_
_atom_site_type_symbol
_atom_site_label
_atom_site_fract_x
_atom_site_fract_y
_atom_site_fract_z
Si Si1 0.487526 0.596563 0.291560
Si Si2 0.170632 0.518759 0.298251
Si Si3 0.696513 0.699024 0.153659
Si Si4 0.619300 0.156628 0.817313
Si Si5 0.214196 0.986362 0.704284
Si Si6 0.509110 0.220785 0.797816
Si Si7 0.389547 0.191069 0.767241
Si Si8 0.865236 0.870058 0.820617
O O1 0.500000 0.500000 0.235257
O O2 0.500000 0.599828 0.500000
O O3 0.520387 0.677264 0.217160
O O4 0.427542 0.612841 0.220008
O O5 0.178009 0.500000 0.500000
O O6 0.140585 0.439009 0.209703
O O7 0.230297 0.524645 0.221407
O O8 0.138021 0.605943 0.296481
O O9 0.750000 0.750000 0.089126
O O10 0.661437 0.772206 0.248931
O O11 0.713345 0.615233 0.260812
O O12 0.657744 0.657183 0.007991
O O13 0.560918 0.170125 0.735022
O O14 0.613134 0.178160 0.022564
O O15 0.166062 0.043671 0.775837
O O16 0.211272 0.000000 0.500000
O O17 0.451716 0.200813 0.712597
O O18 0.500000 0.200434 0.000000
O O19 0.358271 0.278736 0.719584
#
# Coordination Sequence:
#
# PCOD9324036 Si02
#       8
#     8   8   8   8   8   8   8   8
#     4  10  23  41  64  95 134 174 214 266 342 408
#     4  11  24  40  58  91 126 169 216 270 332 409
#     4  11  23  43  68  98 131 174 228 283 340 400
#     4  10  21  38  66  88 122 168 212 274 334 387
#     4  11  26  42  63  95 135 172 221 272 346 409
#     4   9  20  40  61  92 121 163 219 276 326 394
#     4   9  21  41  62  89 125 159 219 269 333 384
#     4  10  24  42  67  99 127 175 226 273 327 407
#
# _framework density 21.372205999999998
#
# number of rings (size 3 to 8) (size 9 to 14) (size 15 to 20)
#    0.000    1.875    1.250    1.500    7.000    4.750 
#    4.500    2.500    0.000    0.000    0.000    0.000 
#    0.000    0.000    0.000    0.000    0.000    0.000 
#
# Total GULP energy -178379.020096 kJ/mol
# GULP energy per Si atom -5574.344378 kJ/mol
# Density = 2.132356 g / cm^3
# Si number density = 21.372206 Si / 1000 Ang^3
#
#
#
# Elastic Constant Matrix: (Units=GPa)
#
#
# Indices 1 2 3 4 5 6 
#
# 1 80.5289 26.8114 5.8275 0.0000 0.0000 0.0000
# 2 26.8114 111.8622 -4.0271 0.0000 0.0000 0.0000
# 3 5.8275 -4.0271 36.0978 0.0000 0.0000 0.0000
# 4 0.0000 0.0000 0.0000 11.0789 0.0000 0.0000
# 5 0.0000 0.0000 0.0000 0.0000 9.6828 0.0000
# 6 0.0000 0.0000 0.0000 0.0000 0.0000 52.2020
#
#
#
# Elastic Compliance Matrix: (Units=1/GPa)
#
#
# Indices 1 2 3 4 5 6 
#
# 1 0.013733 -0.003385 -0.002595 0.000000 0.000000 0.000000
# 2 -0.003385 0.009810 0.001641 0.000000 0.000000 0.000000
# 3 -0.002595 0.001641 0.028304 0.000000 0.000000 0.000000
# 4 0.000000 0.000000 0.000000 0.090261 0.000000 0.000000
# 5 0.000000 0.000000 0.000000 0.000000 0.103276 0.000000
# 6 0.000000 0.000000 0.000000 0.000000 0.000000 0.019156
#
#
# Mechanical properties :
#
#
# Convention : Reuss Voigt Hill
#
# Bulk Modulus (GPa) = 23.16436 31.74585 27.45510
# Shear Modulus (GPa) = 17.38479 27.91789 22.65134
#
# Velocity S-wave (km/s) = 2.85516 3.61816 3.25907
# Velocity P-wave (km/s) = 4.66169 5.68690 5.19962
#
# Compressibility (1/GPa) = 0.04316977
#
# Stress axis : x y z
#
# Youngs Moduli (GPa) = 72.81931 101.93745 35.33018
#
# Poissons Ratio (x) = 0.34505 0.09167
# Poissons Ratio (y) = 0.24648 -0.05797
# Poissons Ratio (z) = 0.18893 -0.16726
#
# Static dielectric constant tensor:
#      x y z
#    x 1.850590 0.000000 0.000000 
#    y 0.000000 1.773100 0.000000 
#    z 0.000000 0.000000 1.797890 
# 
# From -- ./inp_files/18631.got.cif
#   From: 2010.05.17/outbox.cif.g08.bks.cpg/sg21_10_cif.got.tgz:18631.got - 2010.06.03 23:14:55.
