data_PCOD9324868
_publ_section_title
;
Structure prediction by ZEFSAII (Michael W. Deem and Ramdas Pophale) SiO2 
 PCOD9324868
Probable space group: C 2 2 2
;
_chemical_formula_sum "Si O2"
_cell_formula_units_Z 50
_cell_length_a 14.020237
_cell_length_b 5.495595
_cell_length_c 26.390837
_cell_angle_alpha 90.000000
_cell_angle_beta 90.000000
_cell_angle_gamma 90.000000
_cell_volume 2033.401966
_symmetry_space_group_name_H-M "C 2 2 2"
_symmetry_group_IT_number 21
_symmetry_cell_setting 'orthorhombic'
loop_
_space_group_symop_operation_xyz
x,y,z
-x,-y,z
x,-y,-z
-x,y,-z
1/2+x,1/2+y,z
1/2-x,1/2-y,z
1/2+x,1/2-y,-z
1/2-x,1/2+y,-z
loop_
_atom_site_type_symbol
_atom_site_label
_atom_site_fract_x
_atom_site_fract_y
_atom_site_fract_z
Si Si1 0.000000 0.000000 0.500000
Si Si2 0.141903 0.337208 0.449659
Si Si3 0.145873 0.124917 0.737718
Si Si4 0.114799 0.988663 0.943036
Si Si5 0.000000 0.500000 0.258758
Si Si6 0.750000 0.250000 0.806795
Si Si7 0.636496 0.244159 0.663042
Si Si8 0.115052 0.489276 0.883538
O O1 0.929738 0.873247 0.461847
O O2 0.128466 0.500000 0.500000
O O3 0.250000 0.250000 0.450867
O O4 0.119239 0.386916 0.391118
O O5 0.250000 0.250000 0.731340
O O6 0.058769 0.273296 0.764005
O O7 0.174239 0.900561 0.773885
O O8 0.112504 0.020141 0.682370
O O9 0.134571 0.723030 0.919833
O O10 0.137951 0.228022 0.909231
O O11 0.000000 0.000000 0.946582
O O12 0.154741 0.000000 0.000000
O O13 0.083243 0.412012 0.295829
O O14 0.813236 0.443860 0.838079
O O15 0.750000 0.250000 0.667738
O O16 0.000000 0.500000 0.871959
#
# Coordination Sequence:
#
# PCOD9324868 Si02
#       8
#     2   8   8   8   4   4   8   8
#     4  12  26  44  72 104 144 200 234 292 384 452
#     4  11  26  48  71 107 154 193 238 307 383 465
#     4  12  26  53  75 113 148 205 260 344 398 481
#     4   9  18  39  73 114 159 209 270 329 399 480
#     4  12  26  48  83 108 146 194 267 324 408 472
#     4  12  28  50  74 106 172 202 270 350 408 476
#     4  11  25  50  76 110 148 190 255 322 387 473
#     4  10  23  44  72 114 158 219 267 330 410 487
#
# _framework density 24.589331999999999
#
# number of rings (size 3 to 8) (size 9 to 14) (size 15 to 20)
#    0.000    1.120    3.200    1.200    6.720    1.920 
#    8.640    1.600    0.000    0.000    0.000    0.000 
#    0.000    0.000    0.000    0.000    0.000    0.000 
#
# Total GULP energy -139461.935704 kJ/mol
# GULP energy per Si atom -5578.477428 kJ/mol
# Density = 2.453337 g / cm^3
# Si number density = 24.589332 Si / 1000 Ang^3
#
#
#
# Elastic Constant Matrix: (Units=GPa)
#
#
# Indices 1 2 3 4 5 6 
#
# 1 132.2389 29.1793 35.9649 0.0000 0.0000 0.0000
# 2 29.1793 119.7183 53.9113 0.0000 0.0000 0.0000
# 3 35.9649 53.9113 127.3048 0.0000 0.0000 0.0000
# 4 0.0000 0.0000 0.0000 36.1440 0.0000 0.0000
# 5 0.0000 0.0000 0.0000 0.0000 39.3108 0.0000
# 6 0.0000 0.0000 0.0000 0.0000 0.0000 49.9338
#
#
#
# Elastic Compliance Matrix: (Units=1/GPa)
#
#
# Indices 1 2 3 4 5 6 
#
# 1 0.008328 -0.001199 -0.001845 0.000000 0.000000 0.000000
# 2 -0.001199 0.010494 -0.004105 0.000000 0.000000 0.000000
# 3 -0.001845 -0.004105 0.010115 0.000000 0.000000 0.000000
# 4 0.000000 0.000000 0.000000 0.027667 0.000000 0.000000
# 5 0.000000 0.000000 0.000000 0.000000 0.025438 0.000000
# 6 0.000000 0.000000 0.000000 0.000000 0.000000 0.020027
#
#
# Mechanical properties :
#
#
# Convention : Reuss Voigt Hill
#
# Bulk Modulus (GPa) = 68.31302 68.59700 68.45501
# Shear Modulus (GPa) = 41.23804 42.42484 41.83144
#
# Velocity S-wave (km/s) = 4.09965 4.15822 4.12904
# Velocity P-wave (km/s) = 7.08882 7.14227 7.11560
#
# Compressibility (1/GPa) = 0.01463850
#
# Stress axis : x y z
#
# Youngs Moduli (GPa) = 120.07029 95.29406 98.86402
#
# Poissons Ratio (x) = 0.11426 0.18241
# Poissons Ratio (y) = 0.14397 0.40586
# Poissons Ratio (z) = 0.22154 0.39120
#
# Static dielectric constant tensor:
#      x y z
#    x 1.943960 0.000000 0.000000 
#    y 0.000000 2.111460 0.000000 
#    z 0.000000 0.000000 2.313840 
# 
# From -- ./inp_files/39355.got.cif
#   From: 2010.05.17/outbox.cif.g08.bks.cpg/sg21_20_cif.got.tgz:39355.got - 2010.06.03 23:14:55.
