data_PCOD9324010
_publ_section_title
;
Structure prediction by ZEFSAII (Michael W. Deem and Ramdas Pophale) SiO2 
 PCOD9324010
Probable space group: C 2 2 2
;
_chemical_formula_sum "Si O2"
_cell_formula_units_Z 60
_cell_length_a 21.325578
_cell_length_b 11.321965
_cell_length_c 11.218426
_cell_angle_alpha 90.000000
_cell_angle_beta 90.000000
_cell_angle_gamma 90.000000
_cell_volume 2708.660325
_symmetry_space_group_name_H-M "C 2 2 2"
_symmetry_group_IT_number 21
_symmetry_cell_setting 'orthorhombic'
loop_
_space_group_symop_operation_xyz
x,y,z
-x,-y,z
x,-y,-z
-x,y,-z
1/2+x,1/2+y,z
1/2-x,1/2-y,z
1/2+x,1/2-y,-z
1/2-x,1/2+y,-z
loop_
_atom_site_type_symbol
_atom_site_label
_atom_site_fract_x
_atom_site_fract_y
_atom_site_fract_z
Si Si1 0.802932 0.513904 0.273051
Si Si2 0.500000 0.715851 0.500000
Si Si3 0.817788 0.278859 0.917144
Si Si4 0.623556 0.173942 0.549828
Si Si5 0.877427 0.301234 0.266043
Si Si6 0.564348 0.867818 0.949789
Si Si7 0.439061 0.562885 0.291711
Si Si8 0.670704 0.613857 0.310503
O O1 0.812157 0.600862 0.160502
O O2 0.850727 0.563302 0.374968
O O3 0.816495 0.379969 0.233932
O O4 0.733017 0.536257 0.320176
O O5 0.449373 0.794242 0.572249
O O6 0.466802 0.631169 0.405209
O O7 0.750000 0.250000 0.972285
O O8 0.829896 0.176936 0.818820
O O9 0.875852 0.295454 0.003984
O O10 0.624001 0.180197 0.407512
O O11 0.667813 0.279944 0.595962
O O12 0.931964 0.368843 0.192846
O O13 0.894458 0.165424 0.235404
O O14 0.500000 0.816126 0.000000
O O15 0.569073 0.000000 0.000000
O O16 0.500000 0.500000 0.231011
O O17 0.391344 0.461236 0.327267
#
# Coordination Sequence:
#
# PCOD9324010 Si02
#       8
#     8   4   8   8   8   8   8   8
#     4  10  21  45  66 100 137 177 226 284 354 422
#     4  10  21  38  63  90 130 181 221 258 332 408
#     4   9  20  43  72  94 130 184 231 274 359 431
#     4  10  21  40  63 101 134 176 224 275 345 422
#     4  11  25  42  64 101 137 176 232 294 346 425
#     4  11  24  45  71 102 132 176 232 308 372 418
#     4  11  23  41  64  95 134 183 232 278 340 414
#     4  10  22  41  72  94 134 192 226 278 342 434
#
# _framework density 22.151171000000001
#
# number of rings (size 3 to 8) (size 9 to 14) (size 15 to 20)
#    0.000    1.733    2.667    1.800    3.733    1.600 
#   16.800    3.333    0.000    0.000    0.000    0.000 
#    0.000    0.000    0.000    0.000    0.000    0.000 
#
# Total GULP energy -167257.881818 kJ/mol
# GULP energy per Si atom -5575.262727 kJ/mol
# Density = 2.210075 g / cm^3
# Si number density = 22.151171 Si / 1000 Ang^3
#
#
#
# Elastic Constant Matrix: (Units=GPa)
#
#
# Indices 1 2 3 4 5 6 
#
# 1 151.8589 27.1249 30.3907 0.0000 0.0000 0.0000
# 2 27.1249 74.3643 -6.4346 0.0000 0.0000 0.0000
# 3 30.3907 -6.4346 66.6043 0.0000 0.0000 0.0000
# 4 0.0000 0.0000 0.0000 4.6956 0.0000 0.0000
# 5 0.0000 0.0000 0.0000 0.0000 -379.4738 0.0000
# 6 0.0000 0.0000 0.0000 0.0000 0.0000 7.3937
#
#
#
# Elastic Compliance Matrix: (Units=1/GPa)
#
#
# Indices 1 2 3 4 5 6 
#
# 1 0.007953 -0.003242 -0.003942 0.000000 0.000000 0.000000
# 2 -0.003242 0.014882 0.002917 0.000000 0.000000 0.000000
# 3 -0.003942 0.002917 0.017095 0.000000 0.000000 0.000000
# 4 0.000000 0.000000 0.000000 0.212963 0.000000 0.000000
# 5 0.000000 0.000000 0.000000 0.000000 -0.002635 0.000000
# 6 0.000000 0.000000 0.000000 0.000000 0.000000 0.135250
#
#
# Mechanical properties :
#
#
# Convention : Reuss Voigt Hill
#
# Bulk Modulus (GPa) = 31.85138 43.88773 37.86956
# Shear Modulus (GPa) = 12.36071 -57.36045 -22.49987
#
# Velocity S-wave (km/s) = 2.36480 -5.09423 -3.19053
# Velocity P-wave (km/s) = 4.67618 3.84002 1.88692
#
# Compressibility (1/GPa) = 0.03139581
#
# Stress axis : x y z
#
# Youngs Moduli (GPa) = 125.73775 67.19404 58.49802
#
# Poissons Ratio (x) = 0.21785 0.23060
# Poissons Ratio (y) = 0.40765 -0.17064
# Poissons Ratio (z) = 0.49567 -0.19601
#
# Static dielectric constant tensor:
#      x y z
#    x 1.856810 0.000000 0.000000 
#    y 0.000000 1.900880 0.000000 
#    z 0.000000 0.000000 1.959590 
# 
# From -- ./inp_files/26902.got.cif
#   From: 2010.05.17/outbox.cif.g08.bks.cpg/sg21_14_cif.got.tgz:26902.got - 2010.06.03 23:14:55.
