data_PCOD9324192
_publ_section_title
;
Structure prediction by ZEFSAII (Michael W. Deem and Ramdas Pophale) SiO2 
 PCOD9324192
Probable space group: C 2 2 2
;
_chemical_formula_sum "Si O2"
_cell_formula_units_Z 38
_cell_length_a 9.195989
_cell_length_b 11.724974
_cell_length_c 17.762581
_cell_angle_alpha 90.000000
_cell_angle_beta 90.000000
_cell_angle_gamma 90.000000
_cell_volume 1915.210010
_symmetry_space_group_name_H-M "C 2 2 2"
_symmetry_group_IT_number 21
_symmetry_cell_setting 'orthorhombic'
loop_
_space_group_symop_operation_xyz
x,y,z
-x,-y,z
x,-y,-z
-x,y,-z
1/2+x,1/2+y,z
1/2-x,1/2-y,z
1/2+x,1/2-y,-z
1/2-x,1/2+y,-z
loop_
_atom_site_type_symbol
_atom_site_label
_atom_site_fract_x
_atom_site_fract_y
_atom_site_fract_z
Si Si1 0.498821 0.811906 0.239894
Si Si2 0.257399 0.990368 0.250168
Si Si3 0.370016 0.350045 0.367224
Si Si4 0.500000 0.500000 0.500000
Si Si5 0.075825 0.236527 0.074100
Si Si6 0.500000 0.500000 0.130150
O O1 0.627911 0.906098 0.238709
O O2 0.532079 0.714989 0.302589
O O3 0.504773 0.774215 0.153263
O O4 0.349891 0.876186 0.257791
O O5 0.182450 0.035646 0.324819
O O6 0.139177 0.980250 0.184464
O O7 0.250000 0.250000 0.382415
O O8 0.424203 0.407396 0.443995
O O9 0.250000 0.250000 0.074355
O O10 0.041868 0.104075 0.078361
O O11 0.000000 0.288441 0.000000
#
# Coordination Sequence:
#
# PCOD9324192 Si02
#       6
#     8   8   8   2   8   4
#     4  10  21  44  70  92 129 177 224 269 330 390
#     4  10  21  40  71  97 121 175 224 270 321 397
#     4  10  22  44  66  92 138 168 214 275 321 397
#     4  12  26  40  62 108 130 172 208 268 332 400
#     4  12  26  45  64  96 139 177 225 283 334 386
#     4  12  22  42  65  93 130 164 222 282 322 389
#
# _framework density 19.841166000000001
#
# number of rings (size 3 to 8) (size 9 to 14) (size 15 to 20)
#    0.000    1.263    4.211    1.579    2.947    1.684 
#    0.000    2.105    0.000    0.000    0.000    0.000 
#    0.000    0.000    0.000    0.000    0.000    0.000 
#
# Total GULP energy -105847.854659 kJ/mol
# GULP energy per Si atom -5570.939719 kJ/mol
# Density = 1.979601 g / cm^3
# Si number density = 19.841166 Si / 1000 Ang^3
#
#
#
# Elastic Constant Matrix: (Units=GPa)
#
#
# Indices 1 2 3 4 5 6 
#
# 1 93.3334 55.3017 69.5017 0.0000 0.0000 0.0000
# 2 55.3017 102.1541 78.0692 0.0000 0.0000 0.0000
# 3 69.5017 78.0692 182.1954 0.0000 0.0000 0.0000
# 4 0.0000 0.0000 0.0000 58.1729 0.0000 0.0000
# 5 0.0000 0.0000 0.0000 0.0000 26.6688 0.0000
# 6 0.0000 0.0000 0.0000 0.0000 0.0000 27.6364
#
#
#
# Elastic Compliance Matrix: (Units=1/GPa)
#
#
# Indices 1 2 3 4 5 6 
#
# 1 0.017440 -0.006478 -0.003877 0.000000 0.000000 0.000000
# 2 -0.006478 0.016962 -0.004797 0.000000 0.000000 0.000000
# 3 -0.003877 -0.004797 0.009023 0.000000 0.000000 0.000000
# 4 0.000000 0.000000 0.000000 0.017190 0.000000 0.000000
# 5 0.000000 0.000000 0.000000 0.000000 0.037497 0.000000
# 6 0.000000 0.000000 0.000000 0.000000 0.000000 0.036184
#
#
# Mechanical properties :
#
#
# Convention : Reuss Voigt Hill
#
# Bulk Modulus (GPa) = 76.21497 87.04757 81.63127
# Shear Modulus (GPa) = 29.59046 34.14965 31.87006
#
# Velocity S-wave (km/s) = 3.86601 4.15318 4.01216
# Velocity P-wave (km/s) = 7.64356 8.18327 7.91802
#
# Compressibility (1/GPa) = 0.01312078
#
# Stress axis : x y z
#
# Youngs Moduli (GPa) = 57.34057 58.95495 110.82935
#
# Poissons Ratio (x) = 0.38193 0.42966
# Poissons Ratio (y) = 0.37147 0.53163
# Poissons Ratio (z) = 0.22230 0.28280
#
# Static dielectric constant tensor:
#      x y z
#    x 1.761090 0.000000 0.000000 
#    y 0.000000 1.691760 0.000000 
#    z 0.000000 0.000000 1.806590 
# 
# From -- ./inp_files/35504.got.cif
#   From: 2010.05.17/outbox.cif.g08.bks.cpg/sg21_18_cif.got.tgz:35504.got - 2010.06.03 23:14:55.
