data_PCOD9324289
_publ_section_title
;
Structure prediction by ZEFSAII (Michael W. Deem and Ramdas Pophale) SiO2 
 PCOD9324289
Probable space group: C 2 2 2
;
_chemical_formula_sum "Si O2"
_cell_formula_units_Z 22
_cell_length_a 20.964037
_cell_length_b 9.454612
_cell_length_c 5.180177
_cell_angle_alpha 90.000000
_cell_angle_beta 90.000000
_cell_angle_gamma 90.000000
_cell_volume 1026.746492
_symmetry_space_group_name_H-M "C 2 2 2"
_symmetry_group_IT_number 21
_symmetry_cell_setting 'orthorhombic'
loop_
_space_group_symop_operation_xyz
x,y,z
-x,-y,z
x,-y,-z
-x,y,-z
1/2+x,1/2+y,z
1/2-x,1/2-y,z
1/2+x,1/2-y,-z
1/2-x,1/2+y,-z
loop_
_atom_site_type_symbol
_atom_site_label
_atom_site_fract_x
_atom_site_fract_y
_atom_site_fract_z
Si Si1 0.824535 0.237921 0.777950
Si Si2 0.899927 0.709362 0.708448
Si Si3 0.610945 0.500000 0.500000
Si Si4 0.000000 0.500000 0.500000
O O1 0.750000 0.250000 0.826278
O O2 0.847278 0.316546 0.516514
O O3 0.844660 0.076980 0.711008
O O4 0.866184 0.290494 0.017038
O O5 0.924068 0.868942 0.636590
O O6 0.955918 0.599261 0.674539
#
# Coordination Sequence:
#
# PCOD9324289 Si02
#       4
#     8   8   4   2
#     4  10  21  43  71 105 140 181 235 296 358 427
#     4  10  24  43  68 101 141 190 238 289 355 412
#     4   8  22  44  64 104 127 189 238 286 362 406
#     4  12  28  50  68 106 150 196 244 292 344 436
#
# _framework density 21.426908000000001
#
# number of rings (size 3 to 8) (size 9 to 14) (size 15 to 20)
#    2.182    0.000    0.000    2.182    0.000    6.545 
#    6.545    0.000    8.000    0.000    0.000    0.000 
#    0.000    0.000    0.000    0.000    0.000    0.000 
#
# Total GULP energy -61337.327375 kJ/mol
# GULP energy per Si atom -5576.120670 kJ/mol
# Density = 2.137814 g / cm^3
# Si number density = 21.426908 Si / 1000 Ang^3
#
#
#
# Elastic Constant Matrix: (Units=GPa)
#
#
# Indices 1 2 3 4 5 6 
#
# 1 108.7581 70.6334 48.3171 0.0000 0.0000 0.0000
# 2 70.6334 130.5701 32.4640 0.0000 0.0000 0.0000
# 3 48.3171 32.4640 152.4983 0.0000 0.0000 0.0000
# 4 0.0000 0.0000 0.0000 -5.1036 0.0000 0.0000
# 5 0.0000 0.0000 0.0000 0.0000 -30.8012 0.0000
# 6 0.0000 0.0000 0.0000 0.0000 0.0000 8.9847
#
#
#
# Elastic Compliance Matrix: (Units=1/GPa)
#
#
# Indices 1 2 3 4 5 6 
#
# 1 0.015625 -0.007625 -0.003327 0.000000 0.000000 0.000000
# 2 -0.007625 0.011808 -0.000098 0.000000 0.000000 0.000000
# 3 -0.003327 -0.000098 0.007632 0.000000 0.000000 0.000000
# 4 0.000000 0.000000 0.000000 -0.195940 0.000000 0.000000
# 5 0.000000 0.000000 0.000000 0.000000 -0.032466 0.000000
# 6 0.000000 0.000000 0.000000 0.000000 0.000000 0.111300
#
#
# Mechanical properties :
#
#
# Convention : Reuss Voigt Hill
#
# Bulk Modulus (GPa) = 77.13133 77.18395 77.15764
# Shear Modulus (GPa) = -89.89884 10.64346 -39.62769
#
# Velocity S-wave (km/s) = -6.48438 2.23117 -4.30517
# Velocity P-wave (km/s) = 4.47071 6.53740 3.37271
#
# Compressibility (1/GPa) = 0.01296490
#
# Stress axis : x y z
#
# Youngs Moduli (GPa) = 63.99880 84.68790 131.01899
#
# Poissons Ratio (x) = 0.64578 0.43595
# Poissons Ratio (y) = 0.48802 0.01280
# Poissons Ratio (z) = 0.21295 0.00827
#
# Static dielectric constant tensor:
#      x y z
#    x 1.720110 0.000000 0.000000 
#    y 0.000000 1.858830 0.000000 
#    z 0.000000 0.000000 1.770460 
# 
# From -- ./inp_files/3153.got.cif
#   From: 2010.05.17/outbox.cif.g08.bks.cpg/sg21_2_cif.got.tgz:3153.got - 2010.06.03 23:14:55.
