data_PCOD9324972
_publ_section_title
;
Structure prediction by ZEFSAII (Michael W. Deem and Ramdas Pophale) SiO2 
 PCOD9324972
Probable space group: C 2 2 2
;
_chemical_formula_sum "Si O2"
_cell_formula_units_Z 38
_cell_length_a 12.119553
_cell_length_b 17.384731
_cell_length_c 7.661012
_cell_angle_alpha 90.000000
_cell_angle_beta 90.000000
_cell_angle_gamma 90.000000
_cell_volume 1614.138216
_symmetry_space_group_name_H-M "C 2 2 2"
_symmetry_group_IT_number 21
_symmetry_cell_setting 'orthorhombic'
loop_
_space_group_symop_operation_xyz
x,y,z
-x,-y,z
x,-y,-z
-x,y,-z
1/2+x,1/2+y,z
1/2-x,1/2-y,z
1/2+x,1/2-y,-z
1/2-x,1/2+y,-z
loop_
_atom_site_type_symbol
_atom_site_label
_atom_site_fract_x
_atom_site_fract_y
_atom_site_fract_z
Si Si1 0.000000 0.500000 0.000000
Si Si2 0.750000 0.250000 0.616553
Si Si3 0.027694 0.781684 0.809350
Si Si4 0.391726 0.162316 0.616022
Si Si5 0.099915 0.041604 0.190075
Si Si6 0.158141 0.501977 0.293206
O O1 0.917041 0.538501 0.144351
O O2 0.857765 0.247415 0.733080
O O3 0.718737 0.178089 0.494444
O O4 0.054204 0.872012 0.821140
O O5 0.930077 0.744838 0.693763
O O6 0.000000 0.752381 0.000000
O O7 0.500000 0.140997 0.500000
O O8 0.360476 0.093224 0.745411
O O9 0.218828 0.029409 0.273741
O O10 0.000000 0.000000 0.287695
O O11 0.110995 0.000000 0.000000
O O12 0.129455 0.500000 0.500000
#
# Coordination Sequence:
#
# PCOD9324972 Si02
#       6
#     2   4   8   8   8   8
#     4  12  26  44  74 106 152 188 260 322 376 450
#     4  10  24  44  68 100 156 188 252 306 390 452
#     4  11  24  44  73 108 146 195 250 316 377 459
#     4  10  24  45  70 108 147 195 252 315 379 467
#     4  11  24  47  71 108 154 198 256 313 386 470
#     4  12  26  47  77 111 151 204 255 321 390 465
#
# _framework density 23.541975000000001
#
# number of rings (size 3 to 8) (size 9 to 14) (size 15 to 20)
#    0.000    1.053    3.158    2.842    4.421    4.632 
#    3.789    0.000    0.000    0.000    0.000    0.000 
#    0.000    0.000    0.000    0.000    0.000    0.000 
#
# Total GULP energy -105874.845375 kJ/mol
# GULP energy per Si atom -5572.360283 kJ/mol
# Density = 2.348839 g / cm^3
# Si number density = 23.541975 Si / 1000 Ang^3
#
#
#
# Elastic Constant Matrix: (Units=GPa)
#
#
# Indices 1 2 3 4 5 6 
#
# 1 158.5711 28.9137 54.3139 0.0000 0.0000 0.0000
# 2 28.9137 110.4836 27.5932 0.0000 0.0000 0.0000
# 3 54.3139 27.5932 128.6045 0.0000 0.0000 0.0000
# 4 0.0000 0.0000 0.0000 26.2501 0.0000 0.0000
# 5 0.0000 0.0000 0.0000 0.0000 24.6484 0.0000
# 6 0.0000 0.0000 0.0000 0.0000 0.0000 12.7856
#
#
#
# Elastic Compliance Matrix: (Units=1/GPa)
#
#
# Indices 1 2 3 4 5 6 
#
# 1 0.007531 -0.001243 -0.002914 0.000000 0.000000 0.000000
# 2 -0.001243 0.009769 -0.001571 0.000000 0.000000 0.000000
# 3 -0.002914 -0.001571 0.009343 0.000000 0.000000 0.000000
# 4 0.000000 0.000000 0.000000 0.038095 0.000000 0.000000
# 5 0.000000 0.000000 0.000000 0.000000 0.040571 0.000000
# 6 0.000000 0.000000 0.000000 0.000000 0.000000 0.078213
#
#
# Mechanical properties :
#
#
# Convention : Reuss Voigt Hill
#
# Bulk Modulus (GPa) = 65.84428 68.81119 67.32774
# Shear Modulus (GPa) = 24.99494 31.85937 28.42715
#
# Velocity S-wave (km/s) = 3.26194 3.68271 3.47869
# Velocity P-wave (km/s) = 6.49743 6.88301 6.69299
#
# Compressibility (1/GPa) = 0.01518735
#
# Stress axis : x y z
#
# Youngs Moduli (GPa) = 132.78344 102.36674 107.02668
#
# Poissons Ratio (x) = 0.12726 0.31186
# Poissons Ratio (y) = 0.16507 0.16813
# Poissons Ratio (z) = 0.38692 0.16081
#
# Static dielectric constant tensor:
#      x y z
#    x 1.916850 0.000000 0.000000 
#    y 0.000000 -1.753020 0.000000 
#    z 0.000000 0.000000 1.977040 
# 
# From -- ./inp_files/12772.got.cif
#   From: 2010.05.17/outbox.cif.g08.bks.cpg/sg21_7_cif.got.tgz:12772.got - 2010.06.03 23:14:55.
