data_PCOD9324802
_publ_section_title
;
Structure prediction by ZEFSAII (Michael W. Deem and Ramdas Pophale) SiO2 
 PCOD9324802
Probable space group: C 2 2 2
;
_chemical_formula_sum "Si O2"
_cell_formula_units_Z 30
_cell_length_a 15.320914
_cell_length_b 8.908887
_cell_length_c 11.018596
_cell_angle_alpha 90.000000
_cell_angle_beta 90.000000
_cell_angle_gamma 90.000000
_cell_volume 1503.953418
_symmetry_space_group_name_H-M "C 2 2 2"
_symmetry_group_IT_number 21
_symmetry_cell_setting 'orthorhombic'
loop_
_space_group_symop_operation_xyz
x,y,z
-x,-y,z
x,-y,-z
-x,y,-z
1/2+x,1/2+y,z
1/2-x,1/2-y,z
1/2+x,1/2-y,-z
1/2-x,1/2+y,-z
loop_
_atom_site_type_symbol
_atom_site_label
_atom_site_fract_x
_atom_site_fract_y
_atom_site_fract_z
Si Si1 0.602241 0.533612 0.228603
Si Si2 0.500000 0.000000 0.000000
Si Si3 0.851575 0.374205 0.834581
Si Si4 0.793981 0.000000 0.000000
Si Si5 0.258463 0.070124 0.628422
O O1 0.500000 0.500000 0.237721
O O2 0.628906 0.708902 0.215956
O O3 0.642010 0.450064 0.108705
O O4 0.660055 0.480191 0.340288
O O5 0.437688 0.089658 0.089883
O O6 0.821671 0.493973 0.730846
O O7 0.773931 0.391751 0.932475
O O8 0.250000 0.250000 0.629282
O O9 0.285131 0.000000 0.500000
#
# Coordination Sequence:
#
# PCOD9324802 Si02
#       5
#     8   2   8   4   8
#     4  11  24  39  65  96 135 170 226 275 338 391
#     4  10  24  36  70  96 142 164 216 274 332 374
#     4  10  23  41  64  95 135 173 224 269 329 400
#     4   9  19  37  59  92 128 180 211 265 323 395
#     4  11  24  45  72  94 129 178 227 277 336 400
#
# _framework density 19.947426
#
# number of rings (size 3 to 8) (size 9 to 14) (size 15 to 20)
#    0.000    1.600    0.000    5.200    7.467   11.200 
#    0.000    0.667    0.000    0.000    0.000    0.000 
#    0.000    0.000    0.000    0.000    0.000    0.000 
#
# Total GULP energy -83548.183853 kJ/mol
# GULP energy per Si atom -5569.878924 kJ/mol
# Density = 1.990202 g / cm^3
# Si number density = 19.947426 Si / 1000 Ang^3
#
#
#
# Elastic Constant Matrix: (Units=GPa)
#
#
# Indices 1 2 3 4 5 6 
#
# 1 136.1649 54.6591 31.7993 0.0000 0.0000 0.0000
# 2 54.6591 188.0637 65.2058 0.0000 0.0000 0.0000
# 3 31.7993 65.2058 112.4542 0.0000 0.0000 0.0000
# 4 0.0000 0.0000 0.0000 0.9361 0.0000 0.0000
# 5 0.0000 0.0000 0.0000 0.0000 16.4604 0.0000
# 6 0.0000 0.0000 0.0000 0.0000 0.0000 12.4126
#
#
#
# Elastic Compliance Matrix: (Units=1/GPa)
#
#
# Indices 1 2 3 4 5 6 
#
# 1 0.008443 -0.002035 -0.001207 0.000000 0.000000 0.000000
# 2 -0.002035 0.007146 -0.003568 0.000000 0.000000 0.000000
# 3 -0.001207 -0.003568 0.011303 0.000000 0.000000 0.000000
# 4 0.000000 0.000000 0.000000 1.068287 0.000000 0.000000
# 5 0.000000 0.000000 0.000000 0.000000 0.060752 0.000000
# 6 0.000000 0.000000 0.000000 0.000000 0.000000 0.080564
#
#
# Mechanical properties :
#
#
# Convention : Reuss Voigt Hill
#
# Bulk Modulus (GPa) = 75.35499 82.22346 78.78923
# Shear Modulus (GPa) = 3.98553 24.96305 14.47429
#
# Velocity S-wave (km/s) = 1.41505 3.54141 2.69666
# Velocity P-wave (km/s) = 6.36621 7.61785 7.01998
#
# Compressibility (1/GPa) = 0.01327052
#
# Stress axis : x y z
#
# Youngs Moduli (GPa) = 118.44147 139.93847 88.47358
#
# Poissons Ratio (x) = 0.28481 0.10682
# Poissons Ratio (y) = 0.24106 0.31568
# Poissons Ratio (z) = 0.14300 0.49930
#
# Static dielectric constant tensor:
#      x y z
#    x 1.762120 0.000000 0.000000 
#    y 0.000000 2.370490 0.000000 
#    z 0.000000 0.000000 1.723940 
# 
# From -- ./inp_files/21880.got.cif
#   From: 2010.05.17/outbox.cif.g08.bks.cpg/sg21_11_cif.got.tgz:21880.got - 2010.06.03 23:14:55.
