data_PCOD9324717
_publ_section_title
;
Structure prediction by ZEFSAII (Michael W. Deem and Ramdas Pophale) SiO2 
 PCOD9324717
Probable space group: C 2 2 2
;
_chemical_formula_sum "Si O2"
_cell_formula_units_Z 28
_cell_length_a 18.567446
_cell_length_b 6.339343
_cell_length_c 11.708740
_cell_angle_alpha 90.000000
_cell_angle_beta 90.000000
_cell_angle_gamma 90.000000
_cell_volume 1378.182029
_symmetry_space_group_name_H-M "C 2 2 2"
_symmetry_group_IT_number 21
_symmetry_cell_setting 'orthorhombic'
loop_
_space_group_symop_operation_xyz
x,y,z
-x,-y,z
x,-y,-z
-x,y,-z
1/2+x,1/2+y,z
1/2-x,1/2-y,z
1/2+x,1/2-y,-z
1/2-x,1/2+y,-z
loop_
_atom_site_type_symbol
_atom_site_label
_atom_site_fract_x
_atom_site_fract_y
_atom_site_fract_z
Si Si1 0.094724 0.000000 0.000000
Si Si2 0.929744 0.347533 0.817347
Si Si3 0.833789 0.727983 0.808326
Si Si4 0.413778 0.510032 0.629479
O O1 0.056336 0.828168 0.915736
O O2 0.144339 0.127813 0.913946
O O3 0.862484 0.498217 0.841948
O O4 0.000000 0.500000 0.806462
O O5 0.905694 0.222904 0.703340
O O6 0.750000 0.750000 0.783379
O O7 0.879720 0.819630 0.701896
O O8 0.500000 0.500000 0.624751
O O9 0.386037 0.500000 0.500000
#
# Coordination Sequence:
#
# PCOD9324717 Si02
#       4
#     4   8   8   8
#     4  10  26  39  68  96 141 172 222 264 329 398
#     4  11  23  44  69  99 132 178 220 274 327 388
#     4  11  25  43  66 101 134 172 217 270 335 392
#     4  10  22  45  69  97 130 168 226 275 324 397
#
# _framework density 20.316618999999999
#
# number of rings (size 3 to 8) (size 9 to 14) (size 15 to 20)
#    0.000    1.429    2.857    0.857    4.000    8.000 
#    5.143    0.000    0.000    0.000    0.000    0.000 
#    0.000    0.000    0.000    0.000    0.000    0.000 
#
# Total GULP energy -78121.803816 kJ/mol
# GULP energy per Si atom -5580.128844 kJ/mol
# Density = 2.027038 g / cm^3
# Si number density = 20.316619 Si / 1000 Ang^3
#
#
#
# Elastic Constant Matrix: (Units=GPa)
#
#
# Indices 1 2 3 4 5 6 
#
# 1 79.9224 42.5490 24.2010 0.0000 0.0000 0.0000
# 2 42.5490 132.4125 61.2850 0.0000 0.0000 0.0000
# 3 24.2010 61.2850 166.0841 0.0000 0.0000 0.0000
# 4 0.0000 0.0000 0.0000 9.2150 0.0000 0.0000
# 5 0.0000 0.0000 0.0000 0.0000 -87.4729 0.0000
# 6 0.0000 0.0000 0.0000 0.0000 0.0000 16.0051
#
#
#
# Elastic Compliance Matrix: (Units=1/GPa)
#
#
# Indices 1 2 3 4 5 6 
#
# 1 0.015128 -0.004632 -0.000495 0.000000 0.000000 0.000000
# 2 -0.004632 0.010526 -0.003209 0.000000 0.000000 0.000000
# 3 -0.000495 -0.003209 0.007277 0.000000 0.000000 0.000000
# 4 0.000000 0.000000 0.000000 0.108519 0.000000 0.000000
# 5 0.000000 0.000000 0.000000 0.000000 -0.011432 0.000000
# 6 0.000000 0.000000 0.000000 0.000000 0.000000 0.062480
#
#
# Mechanical properties :
#
#
# Convention : Reuss Voigt Hill
#
# Bulk Modulus (GPa) = 61.50546 70.49878 66.00212
# Shear Modulus (GPa) = 23.30024 4.24169 13.77096
#
# Velocity S-wave (km/s) = 3.39020 1.44649 2.60632
# Velocity P-wave (km/s) = 6.75750 6.12904 6.45093
#
# Compressibility (1/GPa) = 0.01625872
#
# Stress axis : x y z
#
# Youngs Moduli (GPa) = 66.10230 95.00401 137.41257
#
# Poissons Ratio (x) = 0.44006 0.06804
# Poissons Ratio (y) = 0.30619 0.44097
# Poissons Ratio (z) = 0.03273 0.30488
#
# Static dielectric constant tensor:
#      x y z
#    x 1.745120 0.000000 0.000000 
#    y 0.000000 1.863910 0.000000 
#    z 0.000000 0.000000 1.746480 
# 
# From -- ./inp_files/20528.got.cif
#   From: 2010.05.17/outbox.cif.g08.bks.cpg/sg21_11_cif.got.tgz:20528.got - 2010.06.03 23:14:55.
