data_PCOD9324539
_publ_section_title
;
Structure prediction by ZEFSAII (Michael W. Deem and Ramdas Pophale) SiO2 
 PCOD9324539
Probable space group: C 2 2 2
;
_chemical_formula_sum "Si O2"
_cell_formula_units_Z 26
_cell_length_a 23.495701
_cell_length_b 10.679301
_cell_length_c 5.200367
_cell_angle_alpha 90.000000
_cell_angle_beta 90.000000
_cell_angle_gamma 90.000000
_cell_volume 1304.863935
_symmetry_space_group_name_H-M "C 2 2 2"
_symmetry_group_IT_number 21
_symmetry_cell_setting 'orthorhombic'
loop_
_space_group_symop_operation_xyz
x,y,z
-x,-y,z
x,-y,-z
-x,y,-z
1/2+x,1/2+y,z
1/2-x,1/2-y,z
1/2+x,1/2-y,-z
1/2-x,1/2+y,-z
loop_
_atom_site_type_symbol
_atom_site_label
_atom_site_fract_x
_atom_site_fract_y
_atom_site_fract_z
Si Si1 0.314743 0.780283 0.070945
Si Si2 0.370933 0.866939 0.557969
Si Si3 0.000000 0.000000 0.000000
Si Si4 0.902376 0.118235 0.326071
O O1 0.250000 0.750000 0.010725
O O2 0.345001 0.852976 0.839564
O O3 0.321320 0.854390 0.340441
O O4 0.352259 0.656126 0.128578
O O5 0.408351 0.743970 0.497072
O O6 0.399295 0.000000 0.500000
O O7 0.040830 0.083430 0.823758
O O8 0.886431 0.000000 0.500000
#
# Coordination Sequence:
#
# PCOD9324539 Si02
#       4
#     8   8   2   8
#     4  10  22  41  65 104 138 181 227 277 348 422
#     4  10  22  42  64  99 136 182 220 285 350 409
#     4  12  22  48  68 100 136 182 248 294 344 406
#     4  10  24  41  70  97 134 183 234 294 341 409
#
# _framework density 19.925450000000001
#
# number of rings (size 3 to 8) (size 9 to 14) (size 15 to 20)
#    1.846    0.000    0.000    4.154    0.000    1.231 
#   11.077    0.000    0.000   25.846    0.000    0.000 
#    0.000    0.000    0.000    0.000    0.000    0.000 
#
# Total GULP energy -72430.324950 kJ/mol
# GULP energy per Si atom -5571.563458 kJ/mol
# Density = 1.988010 g / cm^3
# Si number density = 19.925450 Si / 1000 Ang^3
#
#
#
# Elastic Constant Matrix: (Units=GPa)
#
#
# Indices 1 2 3 4 5 6 
#
# 1 90.0854 38.0709 23.1001 0.0000 0.0000 0.0000
# 2 38.0709 158.4906 38.5145 0.0000 0.0000 0.0000
# 3 23.1001 38.5145 115.3083 0.0000 0.0000 0.0000
# 4 0.0000 0.0000 0.0000 21.8057 0.0000 0.0000
# 5 0.0000 0.0000 0.0000 0.0000 23.9100 0.0000
# 6 0.0000 0.0000 0.0000 0.0000 0.0000 15.4762
#
#
#
# Elastic Compliance Matrix: (Units=1/GPa)
#
#
# Indices 1 2 3 4 5 6 
#
# 1 0.012637 -0.002634 -0.001652 0.000000 0.000000 0.000000
# 2 -0.002634 0.007416 -0.001949 0.000000 0.000000 0.000000
# 3 -0.001652 -0.001949 0.009654 0.000000 0.000000 0.000000
# 4 0.000000 0.000000 0.000000 0.045860 0.000000 0.000000
# 5 0.000000 0.000000 0.000000 0.000000 0.041823 0.000000
# 6 0.000000 0.000000 0.000000 0.000000 0.000000 0.064615
#
#
# Mechanical properties :
#
#
# Convention : Reuss Voigt Hill
#
# Bulk Modulus (GPa) = 58.01448 62.58393 60.29920
# Shear Modulus (GPa) = 24.97224 29.85165 27.41194
#
# Velocity S-wave (km/s) = 3.54402 3.87482 3.71310
# Velocity P-wave (km/s) = 6.77685 7.17608 6.97932
#
# Compressibility (1/GPa) = 0.01723708
#
# Stress axis : x y z
#
# Youngs Moduli (GPa) = 79.13022 134.84388 103.57950
#
# Poissons Ratio (x) = 0.35521 0.17110
# Poissons Ratio (y) = 0.20845 0.20191
# Poissons Ratio (z) = 0.13071 0.26285
#
# Static dielectric constant tensor:
#      x y z
#    x 1.648190 0.000000 0.000000 
#    y 0.000000 1.744410 0.000000 
#    z 0.000000 0.000000 1.735860 
# 
# From -- ./inp_files/5484.got.cif
#   From: 2010.05.17/outbox.cif.g08.bks.cpg/sg21_3_cif.got.tgz:5484.got - 2010.06.03 23:14:55.
