data_PCOD9324788
_publ_section_title
;
Structure prediction by ZEFSAII (Michael W. Deem and Ramdas Pophale) SiO2 
 PCOD9324788
Probable space group: C 2 2 2
;
_chemical_formula_sum "Si O2"
_cell_formula_units_Z 40
_cell_length_a 16.674416
_cell_length_b 7.963335
_cell_length_c 14.106339
_cell_angle_alpha 90.000000
_cell_angle_beta 90.000000
_cell_angle_gamma 90.000000
_cell_volume 1873.095561
_symmetry_space_group_name_H-M "C 2 2 2"
_symmetry_group_IT_number 21
_symmetry_cell_setting 'orthorhombic'
loop_
_space_group_symop_operation_xyz
x,y,z
-x,-y,z
x,-y,-z
-x,y,-z
1/2+x,1/2+y,z
1/2-x,1/2-y,z
1/2+x,1/2-y,-z
1/2-x,1/2+y,-z
loop_
_atom_site_type_symbol
_atom_site_label
_atom_site_fract_x
_atom_site_fract_y
_atom_site_fract_z
Si Si1 0.018787 0.801479 0.606676
Si Si2 0.825624 0.627591 0.917665
Si Si3 0.763446 0.052759 0.264117
Si Si4 0.064726 0.141725 0.793209
Si Si5 0.818054 0.356321 0.568656
O O1 0.111253 0.752962 0.612138
O O2 0.000000 0.737918 0.500000
O O3 0.970280 0.752826 0.702433
O O4 0.000000 0.000000 0.603699
O O5 0.750000 0.750000 0.945101
O O6 0.788701 0.522696 0.829952
O O7 0.898659 0.738817 0.875067
O O8 0.848169 0.500000 0.000000
O O9 0.750000 0.250000 0.285246
O O10 0.857199 0.040744 0.243097
O O11 0.730823 0.942735 0.347730
O O12 0.000000 0.000000 0.822139
O O13 0.850478 0.500000 0.500000
O O14 0.750000 0.250000 0.514276
#
# Coordination Sequence:
#
# PCOD9324788 Si02
#       5
#     8   8   8   8   8
#     4  10  23  40  64  91 133 185 228 281 342 395
#     4   9  20  40  73 103 132 175 226 286 338 411
#     4   9  21  42  67  95 131 174 223 290 329 408
#     4   9  18  39  71  98 137 178 221 282 352 398
#     4  12  26  38  65  96 131 179 230 278 331 409
#
# _framework density 21.355022999999999
#
# number of rings (size 3 to 8) (size 9 to 14) (size 15 to 20)
#    0.000    2.600    0.000    3.000   11.200    1.200 
#    0.000    0.000    0.000   37.200    0.000    0.000 
#    0.000    0.000    0.000    0.000    0.000    0.000 
#
# Total GULP energy -111515.271296 kJ/mol
# GULP energy per Si atom -5575.763565 kJ/mol
# Density = 2.130642 g / cm^3
# Si number density = 21.355023 Si / 1000 Ang^3
#
#
#
# Elastic Constant Matrix: (Units=GPa)
#
#
# Indices 1 2 3 4 5 6 
#
# 1 165.7441 68.3979 63.1499 0.0000 0.0000 0.0000
# 2 68.3979 79.6218 65.0032 0.0000 0.0000 0.0000
# 3 63.1499 65.0032 128.6349 0.0000 0.0000 0.0000
# 4 0.0000 0.0000 0.0000 42.2311 0.0000 0.0000
# 5 0.0000 0.0000 0.0000 0.0000 13.2426 0.0000
# 6 0.0000 0.0000 0.0000 0.0000 0.0000 24.1512
#
#
#
# Elastic Compliance Matrix: (Units=1/GPa)
#
#
# Indices 1 2 3 4 5 6 
#
# 1 0.009409 -0.007340 -0.000910 0.000000 0.000000 0.000000
# 2 -0.007340 0.027105 -0.010094 0.000000 0.000000 0.000000
# 3 -0.000910 -0.010094 0.013321 0.000000 0.000000 0.000000
# 4 0.000000 0.000000 0.000000 0.023679 0.000000 0.000000
# 5 0.000000 0.000000 0.000000 0.000000 0.075514 0.000000
# 6 0.000000 0.000000 0.000000 0.000000 0.000000 0.041406
#
#
# Mechanical properties :
#
#
# Convention : Reuss Voigt Hill
#
# Bulk Modulus (GPa) = 76.05556 85.23364 80.64460
# Shear Modulus (GPa) = 21.59792 27.75500 24.67646
#
# Velocity S-wave (km/s) = 3.18366 3.60904 3.40300
# Velocity P-wave (km/s) = 7.01473 7.57405 7.29975
#
# Compressibility (1/GPa) = 0.01314828
#
# Stress axis : x y z
#
# Youngs Moduli (GPa) = 106.28093 36.89377 75.06696
#
# Poissons Ratio (x) = 0.27079 0.06832
# Poissons Ratio (y) = 0.78006 0.75771
# Poissons Ratio (z) = 0.09673 0.37240
#
# Static dielectric constant tensor:
#      x y z
#    x 1.859590 0.000000 0.000000 
#    y 0.000000 1.821050 0.000000 
#    z 0.000000 0.000000 1.807850 
# 
# From -- ./inp_files/32104.got.cif
#   From: 2010.05.17/outbox.cif.g08.bks.cpg/sg21_17_cif.got.tgz:32104.got - 2010.06.03 23:14:55.
