data_PCOD9324863
_publ_section_title
;
Structure prediction by ZEFSAII (Michael W. Deem and Ramdas Pophale) SiO2 
 PCOD9324863
Probable space group: C 2 2 2
;
_chemical_formula_sum "Si O2"
_cell_formula_units_Z 24
_cell_length_a 10.937889
_cell_length_b 8.194934
_cell_length_c 11.609143
_cell_angle_alpha 90.000000
_cell_angle_beta 90.000000
_cell_angle_gamma 90.000000
_cell_volume 1040.588765
_symmetry_space_group_name_H-M "C 2 2 2"
_symmetry_group_IT_number 21
_symmetry_cell_setting 'orthorhombic'
loop_
_space_group_symop_operation_xyz
x,y,z
-x,-y,z
x,-y,-z
-x,y,-z
1/2+x,1/2+y,z
1/2-x,1/2-y,z
1/2+x,1/2-y,-z
1/2-x,1/2+y,-z
loop_
_atom_site_type_symbol
_atom_site_label
_atom_site_fract_x
_atom_site_fract_y
_atom_site_fract_z
Si Si1 0.363025 0.872704 0.390126
Si Si2 0.379419 0.318073 0.048323
Si Si3 0.120461 0.699361 0.696605
O O1 0.250000 0.750000 0.387286
O O2 0.493303 0.781515 0.372845
O O3 0.361328 0.000000 0.500000
O O4 0.362386 0.004565 0.286051
O O5 0.250000 0.250000 0.010447
O O6 0.387031 0.299981 0.186028
O O7 0.381136 0.500000 0.000000
O O8 0.500000 0.231323 0.000000
O O9 0.250000 0.750000 0.640061
#
# Coordination Sequence:
#
# PCOD9324863 Si02
#       3
#     8   8   8
#     4  11  25  46  71 101 138 179 230 290 350 415
#     4  10  24  43  66 100 140 184 234 284 338 403
#     4  10  23  44  69 101 138 182 232 281 342 410
#
# _framework density 23.063865
#
# number of rings (size 3 to 8) (size 9 to 14) (size 15 to 20)
#    0.000    1.667    0.000    3.000    0.000   24.667 
#    0.000    3.333    0.000    0.000    0.000    0.000 
#    0.000    0.000    0.000    0.000    0.000    0.000 
#
# Total GULP energy -66871.677080 kJ/mol
# GULP energy per Si atom -5572.639757 kJ/mol
# Density = 2.301137 g / cm^3
# Si number density = 23.063865 Si / 1000 Ang^3
#
#
#
# Elastic Constant Matrix: (Units=GPa)
#
#
# Indices 1 2 3 4 5 6 
#
# 1 317.7723 84.2463 50.4142 0.0000 0.0000 0.0000
# 2 84.2463 95.8565 58.8281 0.0000 0.0000 0.0000
# 3 50.4142 58.8281 99.1273 0.0000 0.0000 0.0000
# 4 0.0000 0.0000 0.0000 46.2330 0.0000 0.0000
# 5 0.0000 0.0000 0.0000 0.0000 26.7209 0.0000
# 6 0.0000 0.0000 0.0000 0.0000 0.0000 54.2170
#
#
#
# Elastic Compliance Matrix: (Units=1/GPa)
#
#
# Indices 1 2 3 4 5 6 
#
# 1 0.004103 -0.003658 0.000084 0.000000 0.000000 0.000000
# 2 -0.003658 0.019669 -0.009813 0.000000 0.000000 0.000000
# 3 0.000084 -0.009813 0.015869 0.000000 0.000000 0.000000
# 4 0.000000 0.000000 0.000000 0.021630 0.000000 0.000000
# 5 0.000000 0.000000 0.000000 0.000000 0.037424 0.000000
# 6 0.000000 0.000000 0.000000 0.000000 0.000000 0.018444
#
#
# Mechanical properties :
#
#
# Convention : Reuss Voigt Hill
#
# Bulk Modulus (GPa) = 77.71073 99.97036 88.84054
# Shear Modulus (GPa) = 33.73786 46.71868 40.22827
#
# Velocity S-wave (km/s) = 3.82881 4.50557 4.18091
# Velocity P-wave (km/s) = 7.30159 8.39679 7.86827
#
# Compressibility (1/GPa) = 0.01286824
#
# Stress axis : x y z
#
# Youngs Moduli (GPa) = 243.70363 50.84110 63.01705
#
# Poissons Ratio (x) = 0.18597 -0.00529
# Poissons Ratio (y) = 0.89143 0.61836
# Poissons Ratio (z) = -0.02045 0.49888
#
# Static dielectric constant tensor:
#      x y z
#    x 1.982760 0.000000 0.000000 
#    y 0.000000 1.887490 0.000000 
#    z 0.000000 0.000000 2.000270 
# 
# From -- ./inp_files/23256.got.cif
#   From: 2010.05.17/outbox.cif.g08.bks.cpg/sg21_12_cif.got.tgz:23256.got - 2010.06.03 23:14:55.
