data_PCOD9324879
_publ_section_title
;
Structure prediction by ZEFSAII (Michael W. Deem and Ramdas Pophale) SiO2 
 PCOD9324879
Probable space group: C 2 2 2
;
_chemical_formula_sum "Si O2"
_cell_formula_units_Z 48
_cell_length_a 9.274287
_cell_length_b 17.307387
_cell_length_c 13.790094
_cell_angle_alpha 90.000000
_cell_angle_beta 90.000000
_cell_angle_gamma 90.000000
_cell_volume 2213.498656
_symmetry_space_group_name_H-M "C 2 2 2"
_symmetry_group_IT_number 21
_symmetry_cell_setting 'orthorhombic'
loop_
_space_group_symop_operation_xyz
x,y,z
-x,-y,z
x,-y,-z
-x,y,-z
1/2+x,1/2+y,z
1/2-x,1/2-y,z
1/2+x,1/2-y,-z
1/2-x,1/2+y,-z
loop_
_atom_site_type_symbol
_atom_site_label
_atom_site_fract_x
_atom_site_fract_y
_atom_site_fract_z
Si Si1 0.457727 0.412244 0.790980
Si Si2 0.444411 0.086866 0.204355
Si Si3 0.799370 0.664448 0.881291
Si Si4 0.579452 0.850329 0.598918
Si Si5 0.188624 0.918232 0.938415
Si Si6 0.583020 0.663771 0.597920
O O1 0.500000 0.500000 0.772674
O O2 0.291394 0.393757 0.812929
O O3 0.535765 0.394711 0.893110
O O4 0.494773 0.365259 0.695177
O O5 0.535629 0.145721 0.137585
O O6 0.486715 0.114826 0.312231
O O7 0.285831 0.081631 0.159033
O O8 0.500000 0.000000 0.192067
O O9 0.750000 0.750000 0.854222
O O10 0.754987 0.643889 0.989536
O O11 0.500000 0.873800 0.500000
O O12 0.579834 0.756803 0.603652
O O13 0.751636 0.867637 0.597535
O O14 0.188280 0.000000 0.000000
O O15 0.500000 0.640632 0.500000
#
# Coordination Sequence:
#
# PCOD9324879 Si02
#       6
#     8   8   8   8   8   8
#     4  12  24  43  71 102 142 187 235 301 360 431
#     4  12  24  43  71 102 142 187 235 301 360 431
#     4  12  26  46  71 101 141 187 240 300 360 426
#     4  10  23  45  71 101 142 188 237 297 364 432
#     4  12  26  44  67 105 146 189 242 293 365 426
#     4  10  23  45  71 101 142 188 237 297 364 432
#
# _framework density 21.685127000000001
#
# number of rings (size 3 to 8) (size 9 to 14) (size 15 to 20)
#    0.000    0.667    5.000    2.000    2.333    4.667 
#    0.000    1.667    0.000    0.000    0.000    0.000 
#    0.000    0.000    0.000    0.000    0.000    0.000 
#
# Total GULP energy -134015.248625 kJ/mol
# GULP energy per Si atom -5583.968693 kJ/mol
# Density = 2.163577 g / cm^3
# Si number density = 21.685127 Si / 1000 Ang^3
#
#
#
# Elastic Constant Matrix: (Units=GPa)
#
#
# Indices 1 2 3 4 5 6 
#
# 1 78.5204 12.4837 43.8348 0.0000 0.0000 0.0000
# 2 12.4837 51.8251 12.0085 0.0000 0.0000 0.0000
# 3 43.8348 12.0085 145.1994 0.0000 0.0000 0.0000
# 4 0.0000 0.0000 0.0000 34.3082 0.0000 0.0000
# 5 0.0000 0.0000 0.0000 0.0000 36.9327 0.0000
# 6 0.0000 0.0000 0.0000 0.0000 0.0000 23.7215
#
#
#
# Elastic Compliance Matrix: (Units=1/GPa)
#
#
# Indices 1 2 3 4 5 6 
#
# 1 0.015688 -0.002734 -0.004510 0.000000 0.000000 0.000000
# 2 -0.002734 0.020149 -0.000841 0.000000 0.000000 0.000000
# 3 -0.004510 -0.000841 0.008318 0.000000 0.000000 0.000000
# 4 0.000000 0.000000 0.000000 0.029148 0.000000 0.000000
# 5 0.000000 0.000000 0.000000 0.000000 0.027076 0.000000
# 6 0.000000 0.000000 0.000000 0.000000 0.000000 0.042156
#
#
# Mechanical properties :
#
#
# Convention : Reuss Voigt Hill
#
# Bulk Modulus (GPa) = 35.73301 45.79987 40.76644
# Shear Modulus (GPa) = 29.75602 32.80700 31.28151
#
# Velocity S-wave (km/s) = 3.70832 3.89380 3.80219
# Velocity P-wave (km/s) = 5.90334 6.43287 6.17378
#
# Compressibility (1/GPa) = 0.02798533
#
# Stress axis : x y z
#
# Youngs Moduli (GPa) = 63.74321 49.62996 120.21864
#
# Poissons Ratio (x) = 0.13568 0.54218
# Poissons Ratio (y) = 0.17427 0.10111
# Poissons Ratio (z) = 0.28748 0.04174
#
# Static dielectric constant tensor:
#      x y z
#    x 1.870700 0.000000 0.000000 
#    y 0.000000 1.772810 0.000000 
#    z 0.000000 0.000000 1.815110 
# 
# From -- ./inp_files/30506.got.cif
#   From: 2010.05.17/outbox.cif.g08.bks.cpg/sg21_16_cif.got.tgz:30506.got - 2010.06.03 23:14:55.
