data_PCOD9324386
_publ_section_title
;
Structure prediction by ZEFSAII (Michael W. Deem and Ramdas Pophale) SiO2 
 PCOD9324386
Probable space group: C 2 2 2
;
_chemical_formula_sum "Si O2"
_cell_formula_units_Z 48
_cell_length_a 23.267612
_cell_length_b 9.536390
_cell_length_c 10.507459
_cell_angle_alpha 90.000000
_cell_angle_beta 90.000000
_cell_angle_gamma 90.000000
_cell_volume 2331.489805
_symmetry_space_group_name_H-M "C 2 2 2"
_symmetry_group_IT_number 21
_symmetry_cell_setting 'orthorhombic'
loop_
_space_group_symop_operation_xyz
x,y,z
-x,-y,z
x,-y,-z
-x,y,-z
1/2+x,1/2+y,z
1/2-x,1/2-y,z
1/2+x,1/2-y,-z
1/2-x,1/2+y,-z
loop_
_atom_site_type_symbol
_atom_site_label
_atom_site_fract_x
_atom_site_fract_y
_atom_site_fract_z
Si Si1 0.616408 0.301480 0.311384
Si Si2 0.750000 0.250000 0.971710
Si Si3 0.501614 0.165530 0.656210
Si Si4 0.327208 0.000000 0.000000
Si Si5 0.671214 0.995679 0.720170
Si Si6 0.879019 0.755784 0.398776
Si Si7 0.196291 0.049536 0.233205
O O1 0.551270 0.250873 0.282381
O O2 0.653501 0.161748 0.301713
O O3 0.613354 0.325015 0.463443
O O4 0.650304 0.421947 0.234050
O O5 0.710160 0.136854 0.039339
O O6 0.790776 0.145089 0.890558
O O7 0.500000 0.162601 0.500000
O O8 0.561003 0.247630 0.677343
O O9 0.500000 0.000000 0.694198
O O10 0.352791 0.960647 0.862175
O O11 0.643291 0.096272 0.614478
O O12 0.739968 0.007972 0.721998
O O13 0.830351 0.843239 0.331532
#
# Coordination Sequence:
#
# PCOD9324386 Si02
#       7
#     8   4   8   4   8   8   8
#     4  11  23  34  60  90 118 162 200 235 290 365
#     4  10  22  40  60  82 122 160 202 252 294 370
#     4   9  18  35  57  82 115 162 205 235 277 344
#     4  10  22  38  60  81 112 155 202 248 300 346
#     4  11  22  38  58  88 116 154 202 239 304 357
#     4  11  20  38  59  82 127 159 192 243 292 355
#     4  11  22  38  52  91 124 150 193 237 311 351
#
# _framework density 20.587693999999999
#
# number of rings (size 3 to 8) (size 9 to 14) (size 15 to 20)
#    0.000    1.500    5.000    1.500    4.667    4.667 
#    0.000    2.500    0.000    2.000    0.000    0.000 
#    0.000    0.000    0.000    0.000    0.000    0.000 
#
# Total GULP energy -133615.239915 kJ/mol
# GULP energy per Si atom -5567.301663 kJ/mol
# Density = 2.054084 g / cm^3
# Si number density = 20.587694 Si / 1000 Ang^3
#
#
#
# Elastic Constant Matrix: (Units=GPa)
#
#
# Indices 1 2 3 4 5 6 
#
# 1 114.5112 30.1117 17.1122 0.0000 0.0000 0.0000
# 2 30.1117 109.3699 11.5121 0.0000 0.0000 0.0000
# 3 17.1122 11.5121 26.1485 0.0000 0.0000 0.0000
# 4 0.0000 0.0000 0.0000 15.8374 0.0000 0.0000
# 5 0.0000 0.0000 0.0000 0.0000 14.2364 0.0000
# 6 0.0000 0.0000 0.0000 0.0000 0.0000 31.8296
#
#
#
# Elastic Compliance Matrix: (Units=1/GPa)
#
#
# Indices 1 2 3 4 5 6 
#
# 1 0.010160 -0.002199 -0.005681 0.000000 0.000000 0.000000
# 2 -0.002199 0.010064 -0.002991 0.000000 0.000000 0.000000
# 3 -0.005681 -0.002991 0.043278 0.000000 0.000000 0.000000
# 4 0.000000 0.000000 0.000000 0.063142 0.000000 0.000000
# 5 0.000000 0.000000 0.000000 0.000000 0.070242 0.000000
# 6 0.000000 0.000000 0.000000 0.000000 0.000000 0.031417
#
#
# Mechanical properties :
#
#
# Convention : Reuss Voigt Hill
#
# Bulk Modulus (GPa) = 23.94714 40.83351 32.39033
# Shear Modulus (GPa) = 18.94193 25.13360 22.03777
#
# Velocity S-wave (km/s) = 3.03654 3.49780 3.27530
# Velocity P-wave (km/s) = 4.89399 6.01579 5.48365
#
# Compressibility (1/GPa) = 0.04175864
#
# Stress axis : x y z
#
# Youngs Moduli (GPa) = 98.42519 99.36746 23.10665
#
# Poissons Ratio (x) = 0.21854 0.13126
# Poissons Ratio (y) = 0.21647 0.06912
# Poissons Ratio (z) = 0.55912 0.29724
#
# Static dielectric constant tensor:
#      x y z
#    x 1.767170 0.000000 0.000000 
#    y 0.000000 1.771060 0.000000 
#    z 0.000000 0.000000 1.854960 
# 
# From -- ./inp_files/27384.got.cif
#   From: 2010.05.17/outbox.cif.g08.bks.cpg/sg21_14_cif.got.tgz:27384.got - 2010.06.03 23:14:55.
