data_PCOD9324187
_publ_section_title
;
Structure prediction by ZEFSAII (Michael W. Deem and Ramdas Pophale) SiO2 
 PCOD9324187
Probable space group: C 2 2 2
;
_chemical_formula_sum "Si O2"
_cell_formula_units_Z 56
_cell_length_a 12.514242
_cell_length_b 14.441912
_cell_length_c 15.310599
_cell_angle_alpha 90.000000
_cell_angle_beta 90.000000
_cell_angle_gamma 90.000000
_cell_volume 2767.078153
_symmetry_space_group_name_H-M "C 2 2 2"
_symmetry_group_IT_number 21
_symmetry_cell_setting 'orthorhombic'
loop_
_space_group_symop_operation_xyz
x,y,z
-x,-y,z
x,-y,-z
-x,y,-z
1/2+x,1/2+y,z
1/2-x,1/2-y,z
1/2+x,1/2-y,-z
1/2-x,1/2+y,-z
loop_
_atom_site_type_symbol
_atom_site_label
_atom_site_fract_x
_atom_site_fract_y
_atom_site_fract_z
Si Si1 0.718521 0.546028 0.910468
Si Si2 0.015422 0.667695 0.369828
Si Si3 0.076563 0.077091 0.204822
Si Si4 0.574328 0.911066 0.819921
Si Si5 0.559189 0.713180 0.908267
Si Si6 0.160151 0.181580 0.356699
Si Si7 0.824772 0.606307 0.484340
O O1 0.630493 0.473467 0.877088
O O2 0.806480 0.552605 0.835349
O O3 0.663858 0.647405 0.917937
O O4 0.761423 0.500000 0.000000
O O5 0.047461 0.628535 0.275819
O O6 0.117076 0.657815 0.434522
O O7 0.954416 0.767386 0.366964
O O8 0.918313 0.608126 0.410911
O O9 0.151982 0.104584 0.283485
O O10 0.011735 0.164062 0.166966
O O11 0.000000 0.000000 0.243797
O O12 0.569589 0.820840 0.882965
O O13 0.500000 0.000000 0.839379
O O14 0.500000 0.706734 0.000000
O O15 0.250000 0.250000 0.318964
O O16 0.216380 0.150542 0.446493
O O17 0.802175 0.500000 0.500000
#
# Coordination Sequence:
#
# PCOD9324187 Si02
#       7
#     8   8   8   8   8   8   8
#     4  11  25  43  67  99 133 177 230 270 331 402
#     4  10  21  43  65  96 136 171 214 273 339 393
#     4  10  22  42  70  96 131 177 221 272 325 395
#     4  12  27  42  67 103 137 176 222 280 333 401
#     4  11  23  46  68  95 138 179 216 277 341 390
#     4  10  22  41  67  98 130 171 226 264 336 398
#     4  10  21  40  70  95 125 173 218 268 330 404
#
# _framework density 20.237953999999998
#
# number of rings (size 3 to 8) (size 9 to 14) (size 15 to 20)
#    0.000    1.429    2.857    2.143    8.000    0.000 
#    0.000   14.286    0.000    0.000    0.000    0.000 
#    0.000    0.000    0.000    0.000    0.000    0.000 
#
# Total GULP energy -156065.883930 kJ/mol
# GULP energy per Si atom -5573.781569 kJ/mol
# Density = 2.019189 g / cm^3
# Si number density = 20.237954 Si / 1000 Ang^3
#
#
#
# Elastic Constant Matrix: (Units=GPa)
#
#
# Indices 1 2 3 4 5 6 
#
# 1 62.0343 25.4027 37.4333 0.0000 0.0000 0.0000
# 2 25.4027 99.4810 39.3238 0.0000 0.0000 0.0000
# 3 37.4333 39.3238 80.1558 0.0000 0.0000 0.0000
# 4 0.0000 0.0000 0.0000 7.1056 0.0000 0.0000
# 5 0.0000 0.0000 0.0000 0.0000 71.1042 0.0000
# 6 0.0000 0.0000 0.0000 0.0000 0.0000 14.1887
#
#
#
# Elastic Compliance Matrix: (Units=1/GPa)
#
#
# Indices 1 2 3 4 5 6 
#
# 1 0.022761 -0.001998 -0.009649 0.000000 0.000000 0.000000
# 2 -0.001998 0.012646 -0.005271 0.000000 0.000000 0.000000
# 3 -0.009649 -0.005271 0.019568 0.000000 0.000000 0.000000
# 4 0.000000 0.000000 0.000000 0.140734 0.000000 0.000000
# 5 0.000000 0.000000 0.000000 0.000000 0.014064 0.000000
# 6 0.000000 0.000000 0.000000 0.000000 0.000000 0.070479
#
#
# Mechanical properties :
#
#
# Convention : Reuss Voigt Hill
#
# Bulk Modulus (GPa) = 47.30725 49.55454 48.43090
# Shear Modulus (GPa) = 15.56983 27.78045 21.67514
#
# Velocity S-wave (km/s) = 2.77670 3.70900 3.27619
# Velocity P-wave (km/s) = 5.80572 6.54839 6.18820
#
# Compressibility (1/GPa) = 0.02113841
#
# Stress axis : x y z
#
# Youngs Moduli (GPa) = 43.93490 79.07716 51.10390
#
# Poissons Ratio (x) = 0.15797 0.49312
# Poissons Ratio (y) = 0.08777 0.26937
# Poissons Ratio (z) = 0.42395 0.41682
#
# Static dielectric constant tensor:
#      x y z
#    x 1.747310 0.000000 0.000000 
#    y 0.000000 1.641070 0.000000 
#    z 0.000000 0.000000 1.715800 
# 
# From -- ./inp_files/31574.got.cif
#   From: 2010.05.17/outbox.cif.g08.bks.cpg/sg21_16_cif.got.tgz:31574.got - 2010.06.03 23:14:55.
