data_PCOD9324297
_publ_section_title
;
Structure prediction by ZEFSAII (Michael W. Deem and Ramdas Pophale) SiO2 
 PCOD9324297
Probable space group: C 2 2 2
;
_chemical_formula_sum "Si O2"
_cell_formula_units_Z 56
_cell_length_a 13.940780
_cell_length_b 14.056501
_cell_length_c 13.112891
_cell_angle_alpha 90.000000
_cell_angle_beta 90.000000
_cell_angle_gamma 90.000000
_cell_volume 2569.583605
_symmetry_space_group_name_H-M "C 2 2 2"
_symmetry_group_IT_number 21
_symmetry_cell_setting 'orthorhombic'
loop_
_space_group_symop_operation_xyz
x,y,z
-x,-y,z
x,-y,-z
-x,y,-z
1/2+x,1/2+y,z
1/2-x,1/2-y,z
1/2+x,1/2-y,-z
1/2-x,1/2+y,-z
loop_
_atom_site_type_symbol
_atom_site_label
_atom_site_fract_x
_atom_site_fract_y
_atom_site_fract_z
Si Si1 0.389697 0.809121 0.155011
Si Si2 0.392335 0.206232 0.461106
Si Si3 0.098153 0.797727 0.958385
Si Si4 0.409113 0.162811 0.223506
Si Si5 0.252174 0.945616 0.904532
Si Si6 0.294879 0.605970 0.460447
Si Si7 0.184701 0.888805 0.220610
O O1 0.480151 0.864058 0.201590
O O2 0.291914 0.855301 0.191062
O O3 0.384177 0.698545 0.191290
O O4 0.393288 0.793604 0.033386
O O5 0.500000 0.190977 0.500000
O O6 0.388713 0.181576 0.341417
O O7 0.359851 0.314738 0.483407
O O8 0.314155 0.142003 0.520336
O O9 0.095785 0.759020 0.843815
O O10 0.189405 0.864425 0.959212
O O11 0.000000 0.844310 0.000000
O O12 0.330354 0.093816 0.174040
O O13 0.178028 0.013172 0.841827
O O14 0.298604 0.000000 0.000000
O O15 0.307253 0.500000 0.500000
O O16 0.319066 0.603125 0.341405
#
# Coordination Sequence:
#
# PCOD9324297 Si02
#       7
#     8   8   8   8   8   8   8
#     4  10  21  44  63  94 127 182 222 266 346 428
#     4  11  24  46  71 100 138 183 241 293 355 421
#     4  10  23  41  64  95 134 175 220 270 337 418
#     4  11  24  40  71  97 133 178 229 288 348 405
#     4  12  24  40  67 103 137 175 224 285 341 412
#     4  11  25  42  66 101 137 178 235 299 353 414
#     4  11  22  40  68  86 135 181 224 273 348 410
#
# _framework density 21.793416000000001
#
# number of rings (size 3 to 8) (size 9 to 14) (size 15 to 20)
#    0.000    1.143    1.429    5.571    8.000    1.429 
#    0.000    3.571    0.000    0.000    0.000    0.000 
#    0.000    0.000    0.000    0.000    0.000    0.000 
#
# Total GULP energy -156502.910331 kJ/mol
# GULP energy per Si atom -5589.389655 kJ/mol
# Density = 2.174381 g / cm^3
# Si number density = 21.793416 Si / 1000 Ang^3
#
#
#
# Elastic Constant Matrix: (Units=GPa)
#
#
# Indices 1 2 3 4 5 6 
#
# 1 62.8126 -0.9993 20.5597 0.0000 0.0000 0.0000
# 2 -0.9993 44.3597 36.9277 0.0000 0.0000 0.0000
# 3 20.5597 36.9277 123.3716 0.0000 0.0000 0.0000
# 4 0.0000 0.0000 0.0000 29.0270 0.0000 0.0000
# 5 0.0000 0.0000 0.0000 0.0000 27.5820 0.0000
# 6 0.0000 0.0000 0.0000 0.0000 0.0000 11.3592
#
#
#
# Elastic Compliance Matrix: (Units=1/GPa)
#
#
# Indices 1 2 3 4 5 6 
#
# 1 0.017286 0.003713 -0.003992 0.000000 0.000000 0.000000
# 2 0.003713 0.030822 -0.009844 0.000000 0.000000 0.000000
# 3 -0.003992 -0.009844 0.011717 0.000000 0.000000 0.000000
# 4 0.000000 0.000000 0.000000 0.034451 0.000000 0.000000
# 5 0.000000 0.000000 0.000000 0.000000 0.036256 0.000000
# 6 0.000000 0.000000 0.000000 0.000000 0.000000 0.088034
#
#
# Mechanical properties :
#
#
# Convention : Reuss Voigt Hill
#
# Bulk Modulus (GPa) = 25.26671 38.16890 31.71780
# Shear Modulus (GPa) = 19.84086 25.19736 22.51911
#
# Velocity S-wave (km/s) = 3.02057 3.40397 3.21798
# Velocity P-wave (km/s) = 4.87688 5.74468 5.32848
#
# Compressibility (1/GPa) = 0.03957778
#
# Stress axis : x y z
#
# Youngs Moduli (GPa) = 57.85005 32.44488 85.34299
#
# Poissons Ratio (x) = -0.12045 0.34068
# Poissons Ratio (y) = -0.21477 0.84013
# Poissons Ratio (z) = 0.23093 0.31939
#
# Static dielectric constant tensor:
#      x y z
#    x 1.832920 0.000000 0.000000 
#    y 0.000000 1.846420 0.000000 
#    z 0.000000 0.000000 1.814090 
# 
# From -- ./inp_files/25283.got.cif
#   From: 2010.05.17/outbox.cif.g08.bks.cpg/sg21_13_cif.got.tgz:25283.got - 2010.06.03 23:14:55.
