data_PCOD9324178
_publ_section_title
;
Structure prediction by ZEFSAII (Michael W. Deem and Ramdas Pophale) SiO2 
 PCOD9324178
Probable space group: C 2 2 2
;
_chemical_formula_sum "Si O2"
_cell_formula_units_Z 32
_cell_length_a 10.761295
_cell_length_b 14.678255
_cell_length_c 8.272227
_cell_angle_alpha 90.000000
_cell_angle_beta 90.000000
_cell_angle_gamma 90.000000
_cell_volume 1306.656426
_symmetry_space_group_name_H-M "C 2 2 2"
_symmetry_group_IT_number 21
_symmetry_cell_setting 'orthorhombic'
loop_
_space_group_symop_operation_xyz
x,y,z
-x,-y,z
x,-y,-z
-x,y,-z
1/2+x,1/2+y,z
1/2-x,1/2-y,z
1/2+x,1/2-y,-z
1/2-x,1/2+y,-z
loop_
_atom_site_type_symbol
_atom_site_label
_atom_site_fract_x
_atom_site_fract_y
_atom_site_fract_z
Si Si1 0.384443 0.291435 0.556942
Si Si2 0.723874 0.445048 0.653858
Si Si3 0.132369 0.393872 0.053907
Si Si4 0.115805 0.107007 0.877755
O O1 0.500000 0.232096 0.500000
O O2 0.250000 0.250000 0.552078
O O3 0.371645 0.376064 0.431288
O O4 0.410232 0.322100 0.737756
O O5 0.776397 0.500000 0.500000
O O6 0.830208 0.395382 0.757806
O O7 0.654082 0.514176 0.778481
O O8 0.124737 0.500000 0.000000
O O9 0.258033 0.361325 0.966854
O O10 0.000000 0.352409 0.000000
O O11 0.000000 0.099800 0.000000
#
# Coordination Sequence:
#
# PCOD9324178 Si02
#       4
#     8   8   8   8
#     4  11  25  43  62  91 131 175 217 263 329 404
#     4   9  20  38  66  97 124 162 219 282 330 377
#     4   9  18  33  55  90 127 156 196 257 329 389
#     4  10  21  40  68  97 123 161 222 284 328 376
#
# _framework density 24.489985999999998
#
# number of rings (size 3 to 8) (size 9 to 14) (size 15 to 20)
#    0.000    2.250    0.000    1.500    0.000   19.000 
#    0.000   28.750    0.000    3.000    0.000    0.000 
#    0.000    0.000    0.000    0.000    0.000    0.000 
#
# Total GULP energy -89386.693087 kJ/mol
# GULP energy per Si atom -5586.668318 kJ/mol
# Density = 2.443425 g / cm^3
# Si number density = 24.489986 Si / 1000 Ang^3
#
#
#
# Elastic Constant Matrix: (Units=GPa)
#
#
# Indices 1 2 3 4 5 6 
#
# 1 227.1107 24.1698 138.8939 0.0000 0.0000 0.0000
# 2 24.1698 30.4552 32.1042 0.0000 0.0000 0.0000
# 3 138.8939 32.1042 197.5385 0.0000 0.0000 0.0000
# 4 0.0000 0.0000 0.0000 13.3420 0.0000 0.0000
# 5 0.0000 0.0000 0.0000 0.0000 29.3768 0.0000
# 6 0.0000 0.0000 0.0000 0.0000 0.0000 5.7088
#
#
#
# Elastic Compliance Matrix: (Units=1/GPa)
#
#
# Indices 1 2 3 4 5 6 
#
# 1 0.007731 -0.000489 -0.005356 0.000000 0.000000 0.000000
# 2 -0.000489 0.039654 -0.006101 0.000000 0.000000 0.000000
# 3 -0.005356 -0.006101 0.009820 0.000000 0.000000 0.000000
# 4 0.000000 0.000000 0.000000 0.074951 0.000000 0.000000
# 5 0.000000 0.000000 0.000000 0.000000 0.034040 0.000000
# 6 0.000000 0.000000 0.000000 0.000000 0.000000 0.175168
#
#
# Mechanical properties :
#
#
# Convention : Reuss Voigt Hill
#
# Bulk Modulus (GPa) = 30.01840 93.93779 61.97810
# Shear Modulus (GPa) = 13.28508 27.01461 20.14984
#
# Velocity S-wave (km/s) = 2.33163 3.32488 2.87152
# Velocity P-wave (km/s) = 4.41958 7.29251 6.02965
#
# Compressibility (1/GPa) = 0.03331290
#
# Stress axis : x y z
#
# Youngs Moduli (GPa) = 129.35018 25.21789 101.83336
#
# Poissons Ratio (x) = 0.01233 0.54545
# Poissons Ratio (y) = 0.06326 0.62126
# Poissons Ratio (z) = 0.69284 0.15385
#
# Static dielectric constant tensor:
#      x y z
#    x 2.173680 0.000000 0.000000 
#    y 0.000000 2.022980 0.000000 
#    z 0.000000 0.000000 1.925070 
# 
# From -- ./inp_files/12591.got.cif
#   From: 2010.05.17/outbox.cif.g08.bks.cpg/sg21_7_cif.got.tgz:12591.got - 2010.06.03 23:14:55.
