data_PCOD9324560
_publ_section_title
;
Structure prediction by ZEFSAII (Michael W. Deem and Ramdas Pophale) SiO2 
 PCOD9324560
Probable space group: C 2 2 2
;
_chemical_formula_sum "Si O2"
_cell_formula_units_Z 52
_cell_length_a 24.452211
_cell_length_b 13.185914
_cell_length_c 8.320783
_cell_angle_alpha 90.000000
_cell_angle_beta 90.000000
_cell_angle_gamma 90.000000
_cell_volume 2682.826390
_symmetry_space_group_name_H-M "C 2 2 2"
_symmetry_group_IT_number 21
_symmetry_cell_setting 'orthorhombic'
loop_
_space_group_symop_operation_xyz
x,y,z
-x,-y,z
x,-y,-z
-x,y,-z
1/2+x,1/2+y,z
1/2-x,1/2-y,z
1/2+x,1/2-y,-z
1/2-x,1/2+y,-z
loop_
_atom_site_type_symbol
_atom_site_label
_atom_site_fract_x
_atom_site_fract_y
_atom_site_fract_z
Si Si1 0.119668 0.320309 0.178311
Si Si2 0.750000 0.250000 0.145837
Si Si3 0.651180 0.617455 0.703125
Si Si4 0.011117 0.389229 0.313862
Si Si5 0.671763 0.383769 0.680524
Si Si6 0.052533 0.226817 0.892585
Si Si7 0.275645 0.092037 0.110841
O O1 0.073121 0.355869 0.296929
O O2 0.145568 0.213687 0.234844
O O3 0.163340 0.411248 0.175474
O O4 0.088900 0.293558 0.013783
O O5 0.704788 0.318938 0.236194
O O6 0.718086 0.179463 0.021655
O O7 0.653134 0.496262 0.735650
O O8 0.657268 0.625504 0.508551
O O9 0.596099 0.657800 0.792442
O O10 0.000000 0.500000 0.239691
O O11 0.000000 0.394126 0.500000
O O12 0.975164 0.303412 0.231014
O O13 0.734700 0.383782 0.743402
O O14 0.000000 0.183549 0.000000
O O15 0.256190 0.000000 0.000000
#
# Coordination Sequence:
#
# PCOD9324560 Si02
#       7
#     8   4   8   8   8   8   8
#     4  11  23  39  65  91 124 173 215 272 322 391
#     4  12  22  38  64  88 134 172 216 268 324 396
#     4  11  24  42  63  97 134 172 220 276 334 396
#     4  10  23  43  63  92 127 168 215 278 335 389
#     4  11  24  42  64  94 137 173 213 277 336 393
#     4  10  22  41  67  93 123 168 221 268 328 388
#     4  12  23  39  61  97 131 173 220 264 324 398
#
# _framework density 19.382543999999999
#
# number of rings (size 3 to 8) (size 9 to 14) (size 15 to 20)
#    0.000    1.077    4.615    0.923    4.308    2.154 
#    0.000    6.923    0.000    8.308    0.000    0.000 
#    0.000    0.000    0.000    0.000    0.000    0.000 
#
# Total GULP energy -144745.820867 kJ/mol
# GULP energy per Si atom -5567.146956 kJ/mol
# Density = 1.933843 g / cm^3
# Si number density = 19.382544 Si / 1000 Ang^3
#
#
#
# Elastic Constant Matrix: (Units=GPa)
#
#
# Indices 1 2 3 4 5 6 
#
# 1 137.9394 20.5295 49.8778 0.0000 0.0000 0.0000
# 2 20.5295 55.3664 21.6701 0.0000 0.0000 0.0000
# 3 49.8778 21.6701 91.5198 0.0000 0.0000 0.0000
# 4 0.0000 0.0000 0.0000 27.8635 0.0000 0.0000
# 5 0.0000 0.0000 0.0000 0.0000 36.9060 0.0000
# 6 0.0000 0.0000 0.0000 0.0000 0.0000 26.8852
#
#
#
# Elastic Compliance Matrix: (Units=1/GPa)
#
#
# Indices 1 2 3 4 5 6 
#
# 1 0.009154 -0.001589 -0.004613 0.000000 0.000000 0.000000
# 2 -0.001589 0.020182 -0.003913 0.000000 0.000000 0.000000
# 3 -0.004613 -0.003913 0.014367 0.000000 0.000000 0.000000
# 4 0.000000 0.000000 0.000000 0.035889 0.000000 0.000000
# 5 0.000000 0.000000 0.000000 0.000000 0.027096 0.000000
# 6 0.000000 0.000000 0.000000 0.000000 0.000000 0.037195
#
#
# Mechanical properties :
#
#
# Convention : Reuss Voigt Hill
#
# Bulk Modulus (GPa) = 42.59967 52.10891 47.35429
# Shear Modulus (GPa) = 29.08048 31.18081 30.13064
#
# Velocity S-wave (km/s) = 3.87763 4.01522 3.94702
# Velocity P-wave (km/s) = 6.48645 6.95980 6.72729
#
# Compressibility (1/GPa) = 0.02347436
#
# Stress axis : x y z
#
# Youngs Moduli (GPa) = 109.24285 49.54896 69.60431
#
# Poissons Ratio (x) = 0.07873 0.32106
# Poissons Ratio (y) = 0.17357 0.27235
# Poissons Ratio (z) = 0.50390 0.19387
#
# Static dielectric constant tensor:
#      x y z
#    x 1.720220 0.000000 0.000000 
#    y 0.000000 1.654220 0.000000 
#    z 0.000000 0.000000 1.689310 
# 
# From -- ./inp_files/17646.got.cif
#   From: 2010.05.17/outbox.cif.g08.bks.cpg/sg21_9_cif.got.tgz:17646.got - 2010.06.03 23:14:55.
