data_PCOD9324025
_publ_section_title
;
Structure prediction by ZEFSAII (Michael W. Deem and Ramdas Pophale) SiO2 
 PCOD9324025
Probable space group: C 2 2 2
;
_chemical_formula_sum "Si O2"
_cell_formula_units_Z 64
_cell_length_a 26.760890
_cell_length_b 9.039245
_cell_length_c 13.431163
_cell_angle_alpha 90.000000
_cell_angle_beta 90.000000
_cell_angle_gamma 90.000000
_cell_volume 3248.974706
_symmetry_space_group_name_H-M "C 2 2 2"
_symmetry_group_IT_number 21
_symmetry_cell_setting 'orthorhombic'
loop_
_space_group_symop_operation_xyz
x,y,z
-x,-y,z
x,-y,-z
-x,y,-z
1/2+x,1/2+y,z
1/2-x,1/2-y,z
1/2+x,1/2-y,-z
1/2-x,1/2+y,-z
loop_
_atom_site_type_symbol
_atom_site_label
_atom_site_fract_x
_atom_site_fract_y
_atom_site_fract_z
Si Si1 0.307756 0.224553 0.047708
Si Si2 0.865716 0.250546 0.156028
Si Si3 0.821445 0.033437 0.780751
Si Si4 0.304441 0.771029 0.618446
Si Si5 0.490964 0.333353 0.382368
Si Si6 0.951719 0.596361 0.749750
Si Si7 0.209226 0.513709 0.207828
Si Si8 0.093460 0.607201 0.588677
O O1 0.250000 0.250000 0.016462
O O2 0.321412 0.344905 0.131851
O O3 0.307462 0.068844 0.106086
O O4 0.343978 0.245748 0.955179
O O5 0.919423 0.326375 0.165376
O O6 0.826340 0.347765 0.219750
O O7 0.864057 0.086282 0.201217
O O8 0.820480 0.121072 0.676309
O O9 0.767933 0.952433 0.795170
O O10 0.250000 0.750000 0.568512
O O11 0.351162 0.838240 0.559943
O O12 0.295397 0.891172 0.706007
O O13 0.500000 0.500000 0.345083
O O14 0.500000 0.335441 0.500000
O O15 0.527317 0.221840 0.324531
O O16 0.437021 0.254454 0.381249
O O17 0.914077 0.492519 0.686756
O O18 0.000000 0.500000 0.780572
O O19 0.073555 0.500000 0.500000
#
# Coordination Sequence:
#
# PCOD9324025 Si02
#       8
#     8   8   8   8   8   8   8   8
#     4   9  18  32  51  82 119 154 191 230 279 328
#     4  12  19  29  53  82 114 144 184 236 291 334
#     4   9  19  31  52  82 119 147 191 235 277 321
#     4   9  19  36  55  79 117 158 189 218 270 340
#     4  10  21  38  64  91 108 128 180 253 296 327
#     4  10  23  38  55  87 110 139 190 236 295 341
#     4   9  17  32  51  81 110 155 194 233 263 325
#     4  11  20  38  66  81 111 151 186 228 291 345
#
# _framework density 19.698523000000002
#
# number of rings (size 3 to 8) (size 9 to 14) (size 15 to 20)
#    0.000    2.125    2.500    3.375    1.750    2.000 
#    0.000    0.000    8.250    1.500    0.000    0.000 
#    0.000    0.000    0.000    0.000    0.000    0.000 
#
# Total GULP energy -178371.214623 kJ/mol
# GULP energy per Si atom -5574.100457 kJ/mol
# Density = 1.965369 g / cm^3
# Si number density = 19.698523 Si / 1000 Ang^3
#
#
#
# Elastic Constant Matrix: (Units=GPa)
#
#
# Indices 1 2 3 4 5 6 
#
# 1 78.9049 46.2546 4.8248 0.0000 0.0000 0.0000
# 2 46.2546 105.3835 7.6023 0.0000 0.0000 0.0000
# 3 4.8248 7.6023 13.1537 0.0000 0.0000 0.0000
# 4 0.0000 0.0000 0.0000 10.4389 0.0000 0.0000
# 5 0.0000 0.0000 0.0000 0.0000 17.1200 0.0000
# 6 0.0000 0.0000 0.0000 0.0000 0.0000 23.8796
#
#
#
# Elastic Compliance Matrix: (Units=1/GPa)
#
#
# Indices 1 2 3 4 5 6 
#
# 1 0.017115 -0.007366 -0.002020 0.000000 0.000000 0.000000
# 2 -0.007366 0.013073 -0.004853 0.000000 0.000000 0.000000
# 3 -0.002020 -0.004853 0.079570 0.000000 0.000000 0.000000
# 4 0.000000 0.000000 0.000000 0.095796 0.000000 0.000000
# 5 0.000000 0.000000 0.000000 0.000000 0.058411 0.000000
# 6 0.000000 0.000000 0.000000 0.000000 0.000000 0.041877
#
#
# Mechanical properties :
#
#
# Convention : Reuss Voigt Hill
#
# Bulk Modulus (GPa) = 12.30348 34.97837 23.64092
# Shear Modulus (GPa) = 13.83452 19.53839 16.68645
#
# Velocity S-wave (km/s) = 2.65299 3.15281 2.91364
# Velocity P-wave (km/s) = 3.95524 5.57217 4.83182
#
# Compressibility (1/GPa) = 0.08127779
#
# Stress axis : x y z
#
# Youngs Moduli (GPa) = 58.42739 76.49638 12.56750
#
# Poissons Ratio (x) = 0.56350 0.02539
# Poissons Ratio (y) = 0.43040 0.06099
# Poissons Ratio (z) = 0.11805 0.37126
#
# Static dielectric constant tensor:
#      x y z
#    x 1.741930 0.000000 0.000000 
#    y 0.000000 1.717980 0.000000 
#    z 0.000000 0.000000 1.673680 
# 
# From -- ./inp_files/33645.got.cif
#   From: 2010.05.17/outbox.cif.g08.bks.cpg/sg21_17_cif.got.tgz:33645.got - 2010.06.03 23:14:55.
