data_PCOD9324488
_publ_section_title
;
Structure prediction by ZEFSAII (Michael W. Deem and Ramdas Pophale) SiO2 
 PCOD9324488
Probable space group: C 2 2 2
;
_chemical_formula_sum "Si O2"
_cell_formula_units_Z 28
_cell_length_a 7.525734
_cell_length_b 28.567018
_cell_length_c 6.355652
_cell_angle_alpha 90.000000
_cell_angle_beta 90.000000
_cell_angle_gamma 90.000000
_cell_volume 1366.387505
_symmetry_space_group_name_H-M "C 2 2 2"
_symmetry_group_IT_number 21
_symmetry_cell_setting 'orthorhombic'
loop_
_space_group_symop_operation_xyz
x,y,z
-x,-y,z
x,-y,-z
-x,y,-z
1/2+x,1/2+y,z
1/2-x,1/2-y,z
1/2+x,1/2-y,-z
1/2-x,1/2+y,-z
loop_
_atom_site_type_symbol
_atom_site_label
_atom_site_fract_x
_atom_site_fract_y
_atom_site_fract_z
Si Si1 0.170313 0.939346 0.848270
Si Si2 0.500000 0.000000 0.000000
Si Si3 0.317356 0.162687 0.131514
Si Si4 0.500000 0.500000 0.500000
Si Si5 0.500000 0.212343 0.500000
Si Si6 0.250000 0.250000 0.847192
O O1 0.203670 0.884031 0.850118
O O2 0.117350 0.964768 0.634997
O O3 0.356980 0.964147 0.901076
O O4 0.000000 0.948158 0.000000
O O5 0.363954 0.180548 0.366555
O O6 0.500000 0.152601 0.000000
O O7 0.232458 0.204867 0.996089
O O8 0.411524 0.242219 0.685668
#
# Coordination Sequence:
#
# PCOD9324488 Si02
#       6
#     8   2   8   2   4   4
#     4  12  26  47  72 106 139 183 236 292 355 423
#     4  12  22  50  76  90 146 180 222 298 344 416
#     4  10  23  42  70  97 137 190 232 285 356 418
#     4  12  26  46  70 110 138 176 248 294 352 420
#     4  10  22  40  65 101 138 183 237 278 348 422
#     4  10  22  42  66 100 142 184 228 290 348 416
#
# _framework density 20.491990999999999
#
# number of rings (size 3 to 8) (size 9 to 14) (size 15 to 20)
#    0.000    1.143    4.286    0.857    0.000   13.143 
#    0.000    1.429    0.000    0.000    0.000    0.000 
#    0.000    0.000    0.000    0.000    0.000    0.000 
#
# Total GULP energy -78081.453630 kJ/mol
# GULP energy per Si atom -5577.246688 kJ/mol
# Density = 2.044535 g / cm^3
# Si number density = 20.491991 Si / 1000 Ang^3
#
#
#
# Elastic Constant Matrix: (Units=GPa)
#
#
# Indices 1 2 3 4 5 6 
#
# 1 131.3133 72.2833 64.8031 0.0000 0.0000 0.0000
# 2 72.2833 212.7601 94.4286 0.0000 0.0000 0.0000
# 3 64.8031 94.4286 140.2896 0.0000 0.0000 0.0000
# 4 0.0000 0.0000 0.0000 43.5951 0.0000 0.0000
# 5 0.0000 0.0000 0.0000 0.0000 35.8018 0.0000
# 6 0.0000 0.0000 0.0000 0.0000 0.0000 22.2691
#
#
#
# Elastic Compliance Matrix: (Units=1/GPa)
#
#
# Indices 1 2 3 4 5 6 
#
# 1 0.010431 -0.002004 -0.003469 0.000000 0.000000 0.000000
# 2 -0.002004 0.007087 -0.003845 0.000000 0.000000 0.000000
# 3 -0.003469 -0.003845 0.011319 0.000000 0.000000 0.000000
# 4 0.000000 0.000000 0.000000 0.022938 0.000000 0.000000
# 5 0.000000 0.000000 0.000000 0.000000 0.027932 0.000000
# 6 0.000000 0.000000 0.000000 0.000000 0.000000 0.044905
#
#
# Mechanical properties :
#
#
# Convention : Reuss Voigt Hill
#
# Bulk Modulus (GPa) = 98.03492 105.26591 101.65042
# Shear Modulus (GPa) = 34.09522 37.18972 35.64247
#
# Velocity S-wave (km/s) = 4.08343 4.26472 4.17506
# Velocity P-wave (km/s) = 8.37717 8.70237 8.54132
#
# Compressibility (1/GPa) = 0.01020045
#
# Stress axis : x y z
#
# Youngs Moduli (GPa) = 95.87217 141.09564 88.35000
#
# Poissons Ratio (x) = 0.28274 0.30651
# Poissons Ratio (y) = 0.19212 0.33969
# Poissons Ratio (z) = 0.33261 0.54249
#
# Static dielectric constant tensor:
#      x y z
#    x 1.719680 0.000000 0.000000 
#    y 0.000000 1.746510 0.000000 
#    z 0.000000 0.000000 1.715150 
# 
# From -- ./inp_files/1371.got.cif
#   From: 2010.05.17/outbox.cif.g08.bks.cpg/sg21_1_cif.got.tgz:1371.got - 2010.06.03 23:14:55.
