data_PCOD9324245
_publ_section_title
;
Structure prediction by ZEFSAII (Michael W. Deem and Ramdas Pophale) SiO2 
 PCOD9324245
Probable space group: C 2 2 2
;
_chemical_formula_sum "Si O2"
_cell_formula_units_Z 64
_cell_length_a 17.233565
_cell_length_b 23.270523
_cell_length_c 7.313381
_cell_angle_alpha 90.000000
_cell_angle_beta 90.000000
_cell_angle_gamma 90.000000
_cell_volume 2932.914953
_symmetry_space_group_name_H-M "C 2 2 2"
_symmetry_group_IT_number 21
_symmetry_cell_setting 'orthorhombic'
loop_
_space_group_symop_operation_xyz
x,y,z
-x,-y,z
x,-y,-z
-x,y,-z
1/2+x,1/2+y,z
1/2-x,1/2-y,z
1/2+x,1/2-y,-z
1/2-x,1/2+y,-z
loop_
_atom_site_type_symbol
_atom_site_label
_atom_site_fract_x
_atom_site_fract_y
_atom_site_fract_z
Si Si1 0.413070 0.853115 0.718288
Si Si2 0.812423 0.801682 0.163982
Si Si3 0.784542 0.452663 0.241988
Si Si4 0.474901 0.268275 0.199452
Si Si5 0.531053 0.940436 0.791267
Si Si6 0.270223 0.920714 0.835399
Si Si7 0.352752 0.730777 0.253618
Si Si8 0.285759 0.165806 0.593989
O O1 0.442520 0.796561 0.820022
O O2 0.492074 0.887760 0.687477
O O3 0.358337 0.897714 0.826033
O O4 0.354338 0.833727 0.557141
O O5 0.750000 0.750000 0.203119
O O6 0.896357 0.798677 0.259272
O O7 0.777334 0.863597 0.211583
O O8 0.831764 0.795474 0.945583
O O9 0.877193 0.445523 0.222476
O O10 0.765454 0.519551 0.276780
O O11 0.763854 0.400292 0.374018
O O12 0.750683 0.437017 0.043374
O O13 0.556443 0.271750 0.304026
O O14 0.500000 0.289791 0.000000
O O15 0.500000 0.000000 0.714033
O O16 0.500000 0.936479 0.000000
O O17 0.328868 0.798248 0.244178
O O18 0.296030 0.700440 0.401616
#
# Coordination Sequence:
#
# PCOD9324245 Si02
#       8
#     8   8   8   8   8   8   8   8
#     4  12  23  35  57  96 123 163 216 252 306 383
#     4  11  18  35  66  94 117 155 211 272 313 377
#     4  11  21  38  59  82 119 176 203 247 317 372
#     4  10  23  36  64  97 122 158 212 279 325 366
#     4  11  19  34  56  82 121 166 205 251 301 363
#     4  11  21  36  61  90 118 161 217 255 298 383
#     4  10  21  42  60  83 125 172 204 254 333 384
#     4  11  24  38  60  83 125 176 207 246 321 395
#
# _framework density 21.821294000000002
#
# number of rings (size 3 to 8) (size 9 to 14) (size 15 to 20)
#    0.000    1.125    6.250    1.875    1.750    4.500 
#    0.000    0.625    0.000    0.750    0.000    0.000 
#    0.000    2.000    0.000    0.000    0.000    0.000 
#
# Total GULP energy -178472.593256 kJ/mol
# GULP energy per Si atom -5577.268539 kJ/mol
# Density = 2.177163 g / cm^3
# Si number density = 21.821294 Si / 1000 Ang^3
#
#
#
# Elastic Constant Matrix: (Units=GPa)
#
#
# Indices 1 2 3 4 5 6 
#
# 1 154.2158 66.1187 21.8555 0.0000 0.0000 0.0000
# 2 66.1187 147.6032 14.2275 0.0000 0.0000 0.0000
# 3 21.8555 14.2275 58.8580 0.0000 0.0000 0.0000
# 4 0.0000 0.0000 0.0000 5.9671 0.0000 0.0000
# 5 0.0000 0.0000 0.0000 0.0000 29.4088 0.0000
# 6 0.0000 0.0000 0.0000 0.0000 0.0000 41.7761
#
#
#
# Elastic Compliance Matrix: (Units=1/GPa)
#
#
# Indices 1 2 3 4 5 6 
#
# 1 0.008304 -0.003504 -0.002236 0.000000 0.000000 0.000000
# 2 -0.003504 0.008415 -0.000733 0.000000 0.000000 0.000000
# 3 -0.002236 -0.000733 0.017998 0.000000 0.000000 0.000000
# 4 0.000000 0.000000 0.000000 0.167585 0.000000 0.000000
# 5 0.000000 0.000000 0.000000 0.000000 0.034003 0.000000
# 6 0.000000 0.000000 0.000000 0.000000 0.000000 0.023937
#
#
# Mechanical properties :
#
#
# Convention : Reuss Voigt Hill
#
# Bulk Modulus (GPa) = 45.93550 62.78673 54.36111
# Shear Modulus (GPa) = 17.82880 32.66210 25.24545
#
# Velocity S-wave (km/s) = 2.86149 3.87305 3.40504
# Velocity P-wave (km/s) = 5.65809 6.98829 6.35807
#
# Compressibility (1/GPa) = 0.02176966
#
# Stress axis : x y z
#
# Youngs Moduli (GPa) = 120.42838 118.83234 55.56284
#
# Poissons Ratio (x) = 0.41640 0.12426
# Poissons Ratio (y) = 0.42199 0.04073
# Poissons Ratio (z) = 0.26932 0.08711
#
# Static dielectric constant tensor:
#      x y z
#    x 1.844140 0.000000 0.000000 
#    y 0.000000 1.845100 0.000000 
#    z 0.000000 0.000000 1.936700 
# 
# From -- ./inp_files/16869.got.cif
#   From: 2010.05.17/outbox.cif.g08.bks.cpg/sg21_9_cif.got.tgz:16869.got - 2010.06.03 23:14:55.
