data_PCOD9324072
_publ_section_title
;
Structure prediction by ZEFSAII (Michael W. Deem and Ramdas Pophale) SiO2 
 PCOD9324072
Probable space group: C 2 2 2
;
_chemical_formula_sum "Si O2"
_cell_formula_units_Z 20
_cell_length_a 4.876159
_cell_length_b 13.489316
_cell_length_c 12.544899
_cell_angle_alpha 90.000000
_cell_angle_beta 90.000000
_cell_angle_gamma 90.000000
_cell_volume 825.153899
_symmetry_space_group_name_H-M "C 2 2 2"
_symmetry_group_IT_number 21
_symmetry_cell_setting 'orthorhombic'
loop_
_space_group_symop_operation_xyz
x,y,z
-x,-y,z
x,-y,-z
-x,y,-z
1/2+x,1/2+y,z
1/2-x,1/2-y,z
1/2+x,1/2-y,-z
1/2-x,1/2+y,-z
loop_
_atom_site_type_symbol
_atom_site_label
_atom_site_fract_x
_atom_site_fract_y
_atom_site_fract_z
Si Si1 0.750000 0.250000 0.569063
Si Si2 0.453827 0.619104 0.881649
Si Si3 0.958528 0.382645 0.257219
O O1 0.500000 0.296386 0.500000
O O2 0.914462 0.327030 0.642610
O O3 0.500000 0.500000 0.888759
O O4 0.147923 0.640303 0.844783
O O5 0.655585 0.645126 0.783224
O O6 0.500000 0.659098 0.000000
O O7 0.000000 0.500000 0.276146
#
# Coordination Sequence:
#
# PCOD9324072 Si02
#       3
#     4   8   8
#     4  12  26  44  64  88 126 170 220 284 328 362
#     4   9  17  33  61  94 127 163 201 247 311 389
#     4  10  21  39  62  91 126 164 210 260 317 386
#
# _framework density 24.237902999999999
#
# number of rings (size 3 to 8) (size 9 to 14) (size 15 to 20)
#    0.000    2.000    0.000    3.600    0.000    5.600 
#    0.000    6.000    0.000    0.000    0.000    0.000 
#    0.000    0.000    0.000    0.000    0.000    0.000 
#
# Total GULP energy -55947.369177 kJ/mol
# GULP energy per Si atom -5594.736918 kJ/mol
# Density = 2.418274 g / cm^3
# Si number density = 24.237903 Si / 1000 Ang^3
#
#
#
# Elastic Constant Matrix: (Units=GPa)
#
#
# Indices 1 2 3 4 5 6 
#
# 1 110.8286 -0.9794 33.1800 0.0000 0.0000 0.0000
# 2 -0.9794 92.1737 32.7462 0.0000 0.0000 0.0000
# 3 33.1800 32.7462 126.0516 0.0000 0.0000 0.0000
# 4 0.0000 0.0000 0.0000 2.9741 0.0000 0.0000
# 5 0.0000 0.0000 0.0000 0.0000 29.3224 0.0000
# 6 0.0000 0.0000 0.0000 0.0000 0.0000 30.2925
#
#
#
# Elastic Compliance Matrix: (Units=1/GPa)
#
#
# Indices 1 2 3 4 5 6 
#
# 1 0.009902 0.001136 -0.002901 0.000000 0.000000 0.000000
# 2 0.001136 0.012083 -0.003438 0.000000 0.000000 0.000000
# 3 -0.002901 -0.003438 0.009590 0.000000 0.000000 0.000000
# 4 0.000000 0.000000 0.000000 0.336239 0.000000 0.000000
# 5 0.000000 0.000000 0.000000 0.000000 0.034104 0.000000
# 6 0.000000 0.000000 0.000000 0.000000 0.000000 0.033012
#
#
# Mechanical properties :
#
#
# Convention : Reuss Voigt Hill
#
# Bulk Modulus (GPa) = 47.24209 50.99417 49.11813
# Shear Modulus (GPa) = 11.05239 30.12493 20.58866
#
# Velocity S-wave (km/s) = 2.13772 3.52928 2.91768
# Velocity P-wave (km/s) = 5.06226 6.13942 5.62667
#
# Compressibility (1/GPa) = 0.02116756
#
# Stress axis : x y z
#
# Youngs Moduli (GPa) = 100.99350 82.76423 104.27411
#
# Poissons Ratio (x) = -0.09402 0.30255
# Poissons Ratio (y) = -0.11473 0.35848
# Poissons Ratio (z) = 0.29303 0.28453
#
# Static dielectric constant tensor:
#      x y z
#    x 1.879930 0.000000 0.000000 
#    y 0.000000 2.013320 0.000000 
#    z 0.000000 0.000000 1.899760 
# 
# From -- ./inp_files/20093.got.cif
#   From: 2010.05.17/outbox.cif.g08.bks.cpg/sg21_11_cif.got.tgz:20093.got - 2010.06.03 23:14:55.
