data_PCOD9324141
_publ_section_title
;
Structure prediction by ZEFSAII (Michael W. Deem and Ramdas Pophale) SiO2 
 PCOD9324141
Probable space group: C 2 2 2
;
_chemical_formula_sum "Si O2"
_cell_formula_units_Z 40
_cell_length_a 7.196656
_cell_length_b 31.147396
_cell_length_c 8.750392
_cell_angle_alpha 90.000000
_cell_angle_beta 90.000000
_cell_angle_gamma 90.000000
_cell_volume 1961.462445
_symmetry_space_group_name_H-M "C 2 2 2"
_symmetry_group_IT_number 21
_symmetry_cell_setting 'orthorhombic'
loop_
_space_group_symop_operation_xyz
x,y,z
-x,-y,z
x,-y,-z
-x,y,-z
1/2+x,1/2+y,z
1/2-x,1/2-y,z
1/2+x,1/2-y,-z
1/2-x,1/2+y,-z
loop_
_atom_site_type_symbol
_atom_site_label
_atom_site_fract_x
_atom_site_fract_y
_atom_site_fract_z
Si Si1 0.399652 0.415403 0.850645
Si Si2 0.238451 0.875567 0.654081
Si Si3 0.786115 0.954962 0.554056
Si Si4 0.791201 0.299979 0.443414
Si Si5 0.907868 0.345512 0.150447
O O1 0.562275 0.391579 0.752882
O O2 0.298868 0.448167 0.735239
O O3 0.241246 0.381490 0.897357
O O4 0.500000 0.433940 0.000000
O O5 0.288317 0.912913 0.532193
O O6 0.188385 0.832908 0.557176
O O7 0.418430 0.866103 0.757580
O O8 0.000000 0.955929 0.500000
O O9 0.703613 0.000000 0.500000
O O10 0.750000 0.250000 0.459321
O O11 0.796804 0.315045 0.267736
O O12 0.000000 0.305589 0.500000
O O13 0.000000 0.324824 0.000000
#
# Coordination Sequence:
#
# PCOD9324141 Si02
#       5
#     8   8   8   8   8
#     4  11  21  37  67  90 124 171 201 250 321 373
#     4  10  21  40  63  91 119 166 210 258 305 363
#     4   9  19  37  63  95 120 158 215 256 303 368
#     4  10  23  39  64  91 122 161 215 264 302 371
#     4  11  22  40  61  91 128 161 207 257 316 368
#
# _framework density 20.392948000000001
#
# number of rings (size 3 to 8) (size 9 to 14) (size 15 to 20)
#    0.000    1.800    4.000    0.000    2.800    0.000 
#    0.000   15.000    0.000    1.200    0.000    0.000 
#    0.000    0.000    0.000    0.000    0.000    0.000 
#
# Total GULP energy -111544.850205 kJ/mol
# GULP energy per Si atom -5577.242510 kJ/mol
# Density = 2.034653 g / cm^3
# Si number density = 20.392948 Si / 1000 Ang^3
#
#
#
# Elastic Constant Matrix: (Units=GPa)
#
#
# Indices 1 2 3 4 5 6 
#
# 1 75.9663 -2.3309 7.7460 0.0000 0.0000 0.0000
# 2 -2.3309 102.3181 45.6703 0.0000 0.0000 0.0000
# 3 7.7460 45.6703 136.4317 0.0000 0.0000 0.0000
# 4 0.0000 0.0000 0.0000 13.7467 0.0000 0.0000
# 5 0.0000 0.0000 0.0000 0.0000 31.7185 0.0000
# 6 0.0000 0.0000 0.0000 0.0000 0.0000 -19.0992
#
#
#
# Elastic Compliance Matrix: (Units=1/GPa)
#
#
# Indices 1 2 3 4 5 6 
#
# 1 0.013289 0.000752 -0.001006 0.000000 0.000000 0.000000
# 2 0.000752 0.011533 -0.003903 0.000000 0.000000 0.000000
# 3 -0.001006 -0.003903 0.008693 0.000000 0.000000 0.000000
# 4 0.000000 0.000000 0.000000 0.072745 0.000000 0.000000
# 5 0.000000 0.000000 0.000000 0.000000 0.031527 0.000000
# 6 0.000000 0.000000 0.000000 0.000000 0.000000 -0.052358
#
#
# Mechanical properties :
#
#
# Convention : Reuss Voigt Hill
#
# Bulk Modulus (GPa) = 39.68188 46.32076 43.00132
# Shear Modulus (GPa) = 48.95020 22.84861 35.89940
#
# Velocity S-wave (km/s) = 4.90465 3.35089 4.20024
# Velocity P-wave (km/s) = 7.18157 6.14286 6.68243
#
# Compressibility (1/GPa) = 0.02520042
#
# Stress axis : x y z
#
# Youngs Moduli (GPa) = 75.24798 86.70901 115.02953
#
# Poissons Ratio (x) = -0.06519 0.11574
# Poissons Ratio (y) = -0.05658 0.44899
# Poissons Ratio (z) = 0.07571 0.33845
#
# Static dielectric constant tensor:
#      x y z
#    x 1.752840 0.000000 0.000000 
#    y 0.000000 1.815190 0.000000 
#    z 0.000000 0.000000 1.767850 
# 
# From -- ./inp_files/11162.got.cif
#   From: 2010.05.17/outbox.cif.g08.bks.cpg/sg21_6_cif.got.tgz:11162.got - 2010.06.03 23:14:55.
