data_PCOD9324666
_publ_section_title
;
Structure prediction by ZEFSAII (Michael W. Deem and Ramdas Pophale) SiO2 
 PCOD9324666
Probable space group: C 2 2 2
;
_chemical_formula_sum "Si O2"
_cell_formula_units_Z 60
_cell_length_a 22.712603
_cell_length_b 5.327570
_cell_length_c 20.768926
_cell_angle_alpha 90.000000
_cell_angle_beta 90.000000
_cell_angle_gamma 90.000000
_cell_volume 2513.101987
_symmetry_space_group_name_H-M "C 2 2 2"
_symmetry_group_IT_number 21
_symmetry_cell_setting 'orthorhombic'
loop_
_space_group_symop_operation_xyz
x,y,z
-x,-y,z
x,-y,-z
-x,y,-z
1/2+x,1/2+y,z
1/2-x,1/2-y,z
1/2+x,1/2-y,-z
1/2-x,1/2+y,-z
loop_
_atom_site_type_symbol
_atom_site_label
_atom_site_fract_x
_atom_site_fract_y
_atom_site_fract_z
Si Si1 0.416658 0.078671 0.929184
Si Si2 0.685862 0.765008 0.363343
Si Si3 0.802831 0.550706 0.766529
Si Si4 0.934846 0.398793 0.571678
Si Si5 0.892248 0.084657 0.280115
Si Si6 0.063278 0.911608 0.847189
Si Si7 0.500000 0.500000 0.633358
Si Si8 0.716179 0.013545 0.907738
O O1 0.422495 0.361484 0.898988
O O2 0.347272 0.038117 0.934495
O O3 0.438761 0.856705 0.881862
O O4 0.439633 0.000000 0.000000
O O5 0.750000 0.750000 0.399410
O O6 0.630202 0.913000 0.396172
O O7 0.654946 0.515106 0.333065
O O8 0.703641 0.909363 0.299362
O O9 0.750000 0.750000 0.769115
O O10 0.797720 0.411489 0.833675
O O11 0.865607 0.682310 0.757784
O O12 0.930518 0.500000 0.500000
O O13 0.952221 0.112393 0.583586
O O14 0.000000 0.500000 0.597270
O O15 0.900001 0.896764 0.219475
O O16 0.953549 0.129016 0.316848
O O17 0.000000 0.000000 0.823555
O O18 0.750000 0.750000 0.908885
O O19 0.750000 0.250000 0.937692
#
# Coordination Sequence:
#
# PCOD9324666 Si02
#       8
#     8   8   8   8   8   8   4   8
#     4  12  27  46  69  96 138 192 244 295 364 451
#     4  11  22  39  66 101 142 181 231 289 362 437
#     4  11  21  35  62  94 138 173 221 283 365 431
#     4  10  23  44  70  98 138 186 240 289 342 418
#     4  11  22  40  66 103 139 178 226 303 370 439
#     4  12  26  47  69 103 139 184 242 311 374 437
#     4  10  22  43  72 106 133 178 238 290 362 420
#     4  11  24  40  66  98 136 179 236 298 367 433
#
# _framework density 23.874877000000001
#
# number of rings (size 3 to 8) (size 9 to 14) (size 15 to 20)
#    0.000    0.933    3.333    3.600    3.733    3.200 
#    0.000    0.667    5.867    0.000    0.000    0.000 
#    0.000    0.000    0.000    0.000    0.000    0.000 
#
# Total GULP energy -167017.917953 kJ/mol
# GULP energy per Si atom -5567.263932 kJ/mol
# Density = 2.382054 g / cm^3
# Si number density = 23.874877 Si / 1000 Ang^3
#
#
#
# Elastic Constant Matrix: (Units=GPa)
#
#
# Indices 1 2 3 4 5 6 
#
# 1 179.1153 26.3871 43.0431 0.0000 0.0000 0.0000
# 2 26.3871 69.0338 25.6023 0.0000 0.0000 0.0000
# 3 43.0431 25.6023 129.3895 0.0000 0.0000 0.0000
# 4 0.0000 0.0000 0.0000 24.1617 0.0000 0.0000
# 5 0.0000 0.0000 0.0000 0.0000 93.1348 0.0000
# 6 0.0000 0.0000 0.0000 0.0000 0.0000 41.9747
#
#
#
# Elastic Compliance Matrix: (Units=1/GPa)
#
#
# Indices 1 2 3 4 5 6 
#
# 1 0.006258 -0.001748 -0.001736 0.000000 0.000000 0.000000
# 2 -0.001748 0.016121 -0.002608 0.000000 0.000000 0.000000
# 3 -0.001736 -0.002608 0.008822 0.000000 0.000000 0.000000
# 4 0.000000 0.000000 0.000000 0.041388 0.000000 0.000000
# 5 0.000000 0.000000 0.000000 0.000000 0.010737 0.000000
# 6 0.000000 0.000000 0.000000 0.000000 0.000000 0.023824
#
#
# Mechanical properties :
#
#
# Convention : Reuss Voigt Hill
#
# Bulk Modulus (GPa) = 52.58609 63.06706 57.82658
# Shear Modulus (GPa) = 39.78570 50.68797 45.23684
#
# Velocity S-wave (km/s) = 4.08662 4.61267 4.35759
# Velocity P-wave (km/s) = 6.65889 7.40554 7.04212
#
# Compressibility (1/GPa) = 0.01901644
#
# Stress axis : x y z
#
# Youngs Moduli (GPa) = 159.80420 62.03005 113.35100
#
# Poissons Ratio (x) = 0.10844 0.19675
# Poissons Ratio (y) = 0.27936 0.29566
# Poissons Ratio (z) = 0.27739 0.16180
#
# Static dielectric constant tensor:
#      x y z
#    x 2.001350 0.000000 0.000000 
#    y 0.000000 2.224640 0.000000 
#    z 0.000000 0.000000 1.963300 
# 
# From -- ./inp_files/37930.got.cif
#   From: 2010.05.17/outbox.cif.g08.bks.cpg/sg21_19_cif.got.tgz:37930.got - 2010.06.03 23:14:55.
