data_PCOD9324674
_publ_section_title
;
Structure prediction by ZEFSAII (Michael W. Deem and Ramdas Pophale) SiO2 
 PCOD9324674
Probable space group: C 2 2 2
;
_chemical_formula_sum "Si O2"
_cell_formula_units_Z 40
_cell_length_a 11.042085
_cell_length_b 30.984409
_cell_length_c 5.907368
_cell_angle_alpha 90.000000
_cell_angle_beta 90.000000
_cell_angle_gamma 90.000000
_cell_volume 2021.102451
_symmetry_space_group_name_H-M "C 2 2 2"
_symmetry_group_IT_number 21
_symmetry_cell_setting 'orthorhombic'
loop_
_space_group_symop_operation_xyz
x,y,z
-x,-y,z
x,-y,-z
-x,y,-z
1/2+x,1/2+y,z
1/2-x,1/2-y,z
1/2+x,1/2-y,-z
1/2-x,1/2+y,-z
loop_
_atom_site_type_symbol
_atom_site_label
_atom_site_fract_x
_atom_site_fract_y
_atom_site_fract_z
Si Si1 0.750000 0.750000 0.661480
Si Si2 0.642395 0.484315 0.251329
Si Si3 0.823686 0.326454 0.642628
Si Si4 0.500000 0.133037 0.000000
Si Si5 0.225845 0.606449 0.269063
Si Si6 0.638248 0.316847 0.020788
O O1 0.828697 0.714300 0.525551
O O2 0.659850 0.724517 0.825354
O O3 0.500000 0.500000 0.251623
O O4 0.688739 0.500000 0.500000
O O5 0.686683 0.434696 0.262815
O O6 0.686475 0.500000 0.000000
O O7 0.803906 0.371751 0.511029
O O8 0.704331 0.313740 0.782457
O O9 0.931947 0.336302 0.817323
O O10 0.599342 0.104029 0.130966
O O11 0.297247 0.643935 0.143233
O O12 0.500000 0.326472 0.000000
#
# Coordination Sequence:
#
# PCOD9324674 Si02
#       6
#     4   8   8   4   8   8
#     4  10  22  44  56 102 130 176 228 284 346 402
#     4  10  24  42  71 111 139 180 223 292 354 429
#     4  10  22  44  64  96 132 181 232 284 344 411
#     4  10  22  44  71  94 128 190 228 284 333 424
#     4  10  23  42  71  97 135 178 230 276 350 414
#     4  10  23  41  63  95 131 176 220 286 335 415
#
# _framework density 19.791180000000001
#
# number of rings (size 3 to 8) (size 9 to 14) (size 15 to 20)
#    0.000    2.000    0.000    1.200    8.400    4.800 
#   43.200    0.500    0.000    0.000    0.000    0.000 
#    0.000    0.000    0.000    0.000    0.000    0.000 
#
# Total GULP energy -111361.571602 kJ/mol
# GULP energy per Si atom -5568.078580 kJ/mol
# Density = 1.974613 g / cm^3
# Si number density = 19.791180 Si / 1000 Ang^3
#
#
#
# Elastic Constant Matrix: (Units=GPa)
#
#
# Indices 1 2 3 4 5 6 
#
# 1 95.9434 16.4150 20.5712 0.0000 0.0000 0.0000
# 2 16.4150 88.7526 38.7242 0.0000 0.0000 0.0000
# 3 20.5712 38.7242 122.3041 0.0000 0.0000 0.0000
# 4 0.0000 0.0000 0.0000 18.8761 0.0000 0.0000
# 5 0.0000 0.0000 0.0000 0.0000 9.5396 0.0000
# 6 0.0000 0.0000 0.0000 0.0000 0.0000 -33.2479
#
#
#
# Elastic Compliance Matrix: (Units=1/GPa)
#
#
# Indices 1 2 3 4 5 6 
#
# 1 0.010965 -0.001419 -0.001395 0.000000 0.000000 0.000000
# 2 -0.001419 0.013257 -0.003959 0.000000 0.000000 0.000000
# 3 -0.001395 -0.003959 0.009664 0.000000 0.000000 0.000000
# 4 0.000000 0.000000 0.000000 0.052977 0.000000 0.000000
# 5 0.000000 0.000000 0.000000 0.000000 0.104827 0.000000
# 6 0.000000 0.000000 0.000000 0.000000 0.000000 -0.030077
#
#
# Mechanical properties :
#
#
# Convention : Reuss Voigt Hill
#
# Bulk Modulus (GPa) = 49.16356 50.93564 50.04960
# Shear Modulus (GPa) = 27.48175 14.45286 20.96731
#
# Velocity S-wave (km/s) = 3.73042 2.70528 3.25841
# Velocity P-wave (km/s) = 6.59164 5.96242 6.28491
#
# Compressibility (1/GPa) = 0.02034027
#
# Stress axis : x y z
#
# Youngs Moduli (GPa) = 91.20169 75.43159 103.47285
#
# Poissons Ratio (x) = 0.10706 0.14433
# Poissons Ratio (y) = 0.12945 0.40962
# Poissons Ratio (z) = 0.12721 0.29861
#
# Static dielectric constant tensor:
#      x y z
#    x 1.696990 0.000000 0.000000 
#    y 0.000000 1.696380 0.000000 
#    z 0.000000 0.000000 1.955370 
# 
# From -- ./inp_files/2899.got.cif
#   From: 2010.05.17/outbox.cif.g08.bks.cpg/sg21_2_cif.got.tgz:2899.got - 2010.06.03 23:14:55.
