data_PCOD9324161
_publ_section_title
;
Structure prediction by ZEFSAII (Michael W. Deem and Ramdas Pophale) SiO2 
 PCOD9324161
Probable space group: C 2 2 2
;
_chemical_formula_sum "Si O2"
_cell_formula_units_Z 64
_cell_length_a 6.708089
_cell_length_b 18.040632
_cell_length_c 26.539902
_cell_angle_alpha 90.000000
_cell_angle_beta 90.000000
_cell_angle_gamma 90.000000
_cell_volume 3211.810241
_symmetry_space_group_name_H-M "C 2 2 2"
_symmetry_group_IT_number 21
_symmetry_cell_setting 'orthorhombic'
loop_
_space_group_symop_operation_xyz
x,y,z
-x,-y,z
x,-y,-z
-x,y,-z
1/2+x,1/2+y,z
1/2-x,1/2-y,z
1/2+x,1/2-y,-z
1/2-x,1/2+y,-z
loop_
_atom_site_type_symbol
_atom_site_label
_atom_site_fract_x
_atom_site_fract_y
_atom_site_fract_z
Si Si1 0.611803 0.573711 0.878764
Si Si2 0.543307 0.918436 0.616921
Si Si3 0.908557 0.424005 0.211846
Si Si4 0.803145 0.836508 0.701007
Si Si5 0.649901 0.329814 0.629124
Si Si6 0.226025 0.338166 0.146535
Si Si7 0.469367 0.910576 0.058351
Si Si8 0.414079 0.421139 0.556100
O O1 0.500000 0.500000 0.896340
O O2 0.773162 0.553425 0.835969
O O3 0.445978 0.626864 0.855311
O O4 0.744968 0.606808 0.923340
O O5 0.668062 0.871380 0.656949
O O6 0.329533 0.882366 0.613428
O O7 0.677411 0.923792 0.566402
O O8 0.500000 0.000000 0.636471
O O9 0.764981 0.380493 0.249754
O O10 0.000000 0.500000 0.233305
O O11 0.086503 0.371590 0.190971
O O12 0.750000 0.750000 0.706300
O O13 0.030758 0.844316 0.681273
O O14 0.750000 0.250000 0.630630
O O15 0.490462 0.348823 0.585866
O O16 0.250000 0.250000 0.149766
O O17 0.117126 0.366222 0.095291
O O18 0.500000 0.000000 0.064622
O O19 0.500000 0.893039 0.000000
O O20 0.500000 0.500000 0.577549
O O21 0.500000 0.417335 0.500000
#
# Coordination Sequence:
#
# PCOD9324161 Si02
#       8
#     8   8   8   8   8   8   8   8
#     4  11  20  42  68  91 129 172 212 269 324 385
#     4  11  22  43  69  93 132 175 215 271 324 387
#     4  11  24  44  66  97 129 167 222 267 323 400
#     4  11  25  42  65  96 129 170 220 272 332 390
#     4  11  23  45  65  93 134 175 214 273 328 385
#     4  11  24  42  65  96 133 171 210 273 336 384
#     4  10  21  40  65  95 128 171 227 267 314 395
#     4  10  22  41  66 101 131 170 224 267 324 394
#
# _framework density 19.926458
#
# number of rings (size 3 to 8) (size 9 to 14) (size 15 to 20)
#    0.000    1.250    5.000    1.125    1.750    3.500 
#    6.750    0.000    0.000    0.000    0.000    0.000 
#    0.000    0.000    0.000    0.000    0.000    0.000 
#
# Total GULP energy -178540.992682 kJ/mol
# GULP energy per Si atom -5579.406021 kJ/mol
# Density = 1.988110 g / cm^3
# Si number density = 19.926458 Si / 1000 Ang^3
#
#
#
# Elastic Constant Matrix: (Units=GPa)
#
#
# Indices 1 2 3 4 5 6 
#
# 1 121.0817 36.3337 32.7015 0.0000 0.0000 0.0000
# 2 36.3337 110.4457 25.9536 0.0000 0.0000 0.0000
# 3 32.7015 25.9536 96.0160 0.0000 0.0000 0.0000
# 4 0.0000 0.0000 0.0000 -158.5445 0.0000 0.0000
# 5 0.0000 0.0000 0.0000 0.0000 28.9839 0.0000
# 6 0.0000 0.0000 0.0000 0.0000 0.0000 29.4803
#
#
#
# Elastic Compliance Matrix: (Units=1/GPa)
#
#
# Indices 1 2 3 4 5 6 
#
# 1 0.009743 -0.002590 -0.002618 0.000000 0.000000 0.000000
# 2 -0.002590 0.010357 -0.001917 0.000000 0.000000 0.000000
# 3 -0.002618 -0.001917 0.011825 0.000000 0.000000 0.000000
# 4 0.000000 0.000000 0.000000 -0.006307 0.000000 0.000000
# 5 0.000000 0.000000 0.000000 0.000000 0.034502 0.000000
# 6 0.000000 0.000000 0.000000 0.000000 0.000000 0.033921
#
#
# Mechanical properties :
#
#
# Convention : Reuss Voigt Hill
#
# Bulk Modulus (GPa) = 56.58140 57.50234 57.04187
# Shear Modulus (GPa) = 43.78935 -4.51241 19.63847
#
# Velocity S-wave (km/s) = 4.69289 -1.50647 3.14275
# Velocity P-wave (km/s) = 7.60401 5.08861 6.46974
#
# Compressibility (1/GPa) = 0.01767365
#
# Stress axis : x y z
#
# Youngs Moduli (GPa) = 102.63547 96.55466 84.56693
#
# Poissons Ratio (x) = 0.25008 0.22142
# Poissons Ratio (y) = 0.26582 0.16215
# Poissons Ratio (z) = 0.26873 0.18513
#
# Static dielectric constant tensor:
#      x y z
#    x 2.847890 0.000000 0.000000 
#    y 0.000000 1.685570 0.000000 
#    z 0.000000 0.000000 1.711520 
# 
# From -- ./inp_files/39540.got.cif
#   From: 2010.05.17/outbox.cif.g08.bks.cpg/sg21_20_cif.got.tgz:39540.got - 2010.06.03 23:14:55.
