data_PCOD9324454
_publ_section_title
;
Structure prediction by ZEFSAII (Michael W. Deem and Ramdas Pophale) SiO2 
 PCOD9324454
Probable space group: C 2 2 2
;
_chemical_formula_sum "Si O2"
_cell_formula_units_Z 46
_cell_length_a 20.459842
_cell_length_b 17.588139
_cell_length_c 6.267190
_cell_angle_alpha 90.000000
_cell_angle_beta 90.000000
_cell_angle_gamma 90.000000
_cell_volume 2255.251737
_symmetry_space_group_name_H-M "C 2 2 2"
_symmetry_group_IT_number 21
_symmetry_cell_setting 'orthorhombic'
loop_
_space_group_symop_operation_xyz
x,y,z
-x,-y,z
x,-y,-z
-x,y,-z
1/2+x,1/2+y,z
1/2-x,1/2-y,z
1/2+x,1/2-y,-z
1/2-x,1/2+y,-z
loop_
_atom_site_type_symbol
_atom_site_label
_atom_site_fract_x
_atom_site_fract_y
_atom_site_fract_z
Si Si1 0.250000 0.250000 0.450642
Si Si2 0.500000 0.000000 0.000000
Si Si3 0.204760 0.000000 0.500000
Si Si4 0.268265 0.117107 0.782410
Si Si5 0.388252 0.734111 0.797100
Si Si6 0.662140 0.580868 0.109656
Si Si7 0.080467 0.358734 0.850577
Si Si8 0.000000 0.265893 0.500000
O O1 0.242701 0.180255 0.616647
O O2 0.316646 0.247080 0.307645
O O3 0.452949 0.940502 0.118805
O O4 0.250432 0.961695 0.326732
O O5 0.164973 0.939063 0.639281
O O6 0.344391 0.129622 0.795096
O O7 0.230920 0.110582 0.008208
O O8 0.381710 0.655226 0.926367
O O9 0.443311 0.720794 0.620041
O O10 0.414355 0.803804 0.941828
O O11 0.644381 0.500000 0.000000
O O12 0.039864 0.316721 0.668485
#
# Coordination Sequence:
#
# PCOD9324454 Si02
#       8
#     4   2   4   8   8   8   8   4
#     4  12  22  40  74 106 142 186 248 304 368 432
#     4  12  28  46  64 104 144 204 236 288 348 452
#     4  10  22  40  60 108 136 178 220 296 364 422
#     4  11  23  39  67 107 137 184 231 299 354 421
#     4  12  24  46  69 104 140 189 243 302 361 444
#     4  10  23  41  70 104 144 176 233 308 372 431
#     4  12  27  46  68  98 147 192 245 286 356 429
#     4  12  26  47  70  97 140 192 238 298 351 437
#
# _framework density 20.396834999999999
#
# number of rings (size 3 to 8) (size 9 to 14) (size 15 to 20)
#    0.000    0.696    5.217    2.087    3.652    1.739 
#    0.000    0.000    0.000    7.826    0.000    0.000 
#    0.000    0.000    0.000    0.000    0.000    0.000 
#
# Total GULP energy -128244.521822 kJ/mol
# GULP energy per Si atom -5575.848775 kJ/mol
# Density = 2.035041 g / cm^3
# Si number density = 20.396835 Si / 1000 Ang^3
#
#
#
# Elastic Constant Matrix: (Units=GPa)
#
#
# Indices 1 2 3 4 5 6 
#
# 1 95.3510 32.4013 32.4311 0.0000 0.0000 0.0000
# 2 32.4013 100.2411 20.8972 0.0000 0.0000 0.0000
# 3 32.4311 20.8972 67.9156 0.0000 0.0000 0.0000
# 4 0.0000 0.0000 0.0000 43.6775 0.0000 0.0000
# 5 0.0000 0.0000 0.0000 0.0000 59.6413 0.0000
# 6 0.0000 0.0000 0.0000 0.0000 0.0000 -3.1880
#
#
#
# Elastic Compliance Matrix: (Units=1/GPa)
#
#
# Indices 1 2 3 4 5 6 
#
# 1 0.013422 -0.003208 -0.005422 0.000000 0.000000 0.000000
# 2 -0.003208 0.011427 -0.001984 0.000000 0.000000 0.000000
# 3 -0.005422 -0.001984 0.017924 0.000000 0.000000 0.000000
# 4 0.000000 0.000000 0.000000 0.022895 0.000000 0.000000
# 5 0.000000 0.000000 0.000000 0.000000 0.016767 0.000000
# 6 0.000000 0.000000 0.000000 0.000000 0.000000 -0.313672
#
#
# Mechanical properties :
#
#
# Convention : Reuss Voigt Hill
#
# Bulk Modulus (GPa) = 46.41686 48.32966 47.37326
# Shear Modulus (GPa) = -24.65139 31.87802 3.61332
#
# Velocity S-wave (km/s) = -3.48025 3.95763 1.33242
# Velocity P-wave (km/s) = 2.58008 6.68056 5.06393
#
# Compressibility (1/GPa) = 0.02154390
#
# Stress axis : x y z
#
# Youngs Moduli (GPa) = 74.50507 87.51585 55.79172
#
# Poissons Ratio (x) = 0.28076 0.30251
# Poissons Ratio (y) = 0.23902 0.11069
# Poissons Ratio (z) = 0.40398 0.17363
#
# Static dielectric constant tensor:
#      x y z
#    x 1.651090 0.000000 0.000000 
#    y 0.000000 1.698350 0.000000 
#    z 0.000000 0.000000 1.774360 
# 
# From -- ./inp_files/6742.got.cif
#   From: 2010.05.17/outbox.cif.g08.bks.cpg/sg21_4_cif.got.tgz:6742.got - 2010.06.03 23:14:55.
