data_PCOD9324706
_publ_section_title
;
Structure prediction by ZEFSAII (Michael W. Deem and Ramdas Pophale) SiO2 
 PCOD9324706
Probable space group: C 2 2 2
;
_chemical_formula_sum "Si O2"
_cell_formula_units_Z 32
_cell_length_a 8.590381
_cell_length_b 30.079732
_cell_length_c 5.004665
_cell_angle_alpha 90.000000
_cell_angle_beta 90.000000
_cell_angle_gamma 90.000000
_cell_volume 1293.187210
_symmetry_space_group_name_H-M "C 2 2 2"
_symmetry_group_IT_number 21
_symmetry_cell_setting 'orthorhombic'
loop_
_space_group_symop_operation_xyz
x,y,z
-x,-y,z
x,-y,-z
-x,y,-z
1/2+x,1/2+y,z
1/2-x,1/2-y,z
1/2+x,1/2-y,-z
1/2-x,1/2+y,-z
loop_
_atom_site_type_symbol
_atom_site_label
_atom_site_fract_x
_atom_site_fract_y
_atom_site_fract_z
Si Si1 0.000000 0.613693 0.000000
Si Si2 0.251741 0.565035 0.331509
Si Si3 0.500000 0.694258 0.000000
Si Si4 0.000000 0.000000 0.500000
Si Si5 0.000000 0.680320 0.500000
Si Si6 0.000000 0.135357 0.500000
Si Si7 0.750000 0.750000 0.690513
Si Si8 0.500000 0.000000 0.500000
O O1 0.855440 0.581855 0.913011
O O2 0.021410 0.647225 0.750830
O O3 0.392145 0.529884 0.307642
O O4 0.347003 0.607069 0.433617
O O5 0.133763 0.538997 0.527696
O O6 0.547000 0.663929 0.246190
O O7 0.365437 0.723943 0.118058
O O8 0.147007 0.713770 0.468004
#
# Coordination Sequence:
#
# PCOD9324706 Si02
#       8
#     4   8   4   2   4   4   4   2
#     4  12  27  47  80 116 153 200 255 316 378 449
#     4  10  23  45  77 112 154 200 252 310 376 449
#     4  12  29  50  78 113 153 202 255 315 380 450
#     4   8  20  50  78 112 156 202 252 308 378 452
#     4  12  30  52  79 113 153 202 255 315 381 452
#     4  11  27  49  76 109 153 204 255 311 376 451
#     4  12  30  52  78 112 154 202 254 316 382 452
#     4  10  22  44  76 114 152 198 248 310 376 448
#
# _framework density 24.745063999999999
#
# number of rings (size 3 to 8) (size 9 to 14) (size 15 to 20)
#    0.000    1.000    0.000    3.750    0.000   23.500 
#    0.000    5.000    0.000   14.250    0.000    0.000 
#    0.000    0.000    0.000    0.000    0.000    0.000 
#
# Total GULP energy -89333.493847 kJ/mol
# GULP energy per Si atom -5583.343365 kJ/mol
# Density = 2.468874 g / cm^3
# Si number density = 24.745064 Si / 1000 Ang^3
#
#
#
# Elastic Constant Matrix: (Units=GPa)
#
#
# Indices 1 2 3 4 5 6 
#
# 1 202.2574 100.7698 68.4680 0.0000 0.0000 0.0000
# 2 100.7698 174.8764 93.2819 0.0000 0.0000 0.0000
# 3 68.4680 93.2819 160.0354 0.0000 0.0000 0.0000
# 4 0.0000 0.0000 0.0000 -2.0231 0.0000 0.0000
# 5 0.0000 0.0000 0.0000 0.0000 47.9826 0.0000
# 6 0.0000 0.0000 0.0000 0.0000 0.0000 -17.2850
#
#
#
# Elastic Compliance Matrix: (Units=1/GPa)
#
#
# Indices 1 2 3 4 5 6 
#
# 1 0.007031 -0.003551 -0.000938 0.000000 0.000000 0.000000
# 2 -0.003551 0.010092 -0.004363 0.000000 0.000000 0.000000
# 3 -0.000938 -0.004363 0.009193 0.000000 0.000000 0.000000
# 4 0.000000 0.000000 0.000000 -0.494302 0.000000 0.000000
# 5 0.000000 0.000000 0.000000 0.000000 0.020841 0.000000
# 6 0.000000 0.000000 0.000000 0.000000 0.000000 -0.057854
#
#
# Mechanical properties :
#
#
# Convention : Reuss Voigt Hill
#
# Bulk Modulus (GPa) = 116.12664 118.02319 117.07492
# Shear Modulus (GPa) = -10.32155 24.04488 6.86166
#
# Velocity S-wave (km/s) = -2.04456 3.12060 1.66702
# Velocity P-wave (km/s) = 6.43875 7.79637 7.14985
#
# Compressibility (1/GPa) = 0.00861129
#
# Stress axis : x y z
#
# Youngs Moduli (GPa) = 142.22660 99.08892 108.77550
#
# Poissons Ratio (x) = 0.35187 0.10206
# Poissons Ratio (y) = 0.50505 0.47461
# Poissons Ratio (z) = 0.13344 0.43234
#
# Static dielectric constant tensor:
#      x y z
#    x 1.940500 0.000000 0.000000 
#    y 0.000000 1.967530 0.000000 
#    z 0.000000 0.000000 1.989560 
# 
# From -- ./inp_files/1564.got.cif
#   From: 2010.05.17/outbox.cif.g08.bks.cpg/sg21_1_cif.got.tgz:1564.got - 2010.06.03 23:14:55.
