data_PCOD9324309
_publ_section_title
;
Structure prediction by ZEFSAII (Michael W. Deem and Ramdas Pophale) SiO2 
 PCOD9324309
Probable space group: C 2 2 2
;
_chemical_formula_sum "Si O2"
_cell_formula_units_Z 32
_cell_length_a 6.705490
_cell_length_b 13.572355
_cell_length_c 16.958449
_cell_angle_alpha 90.000000
_cell_angle_beta 90.000000
_cell_angle_gamma 90.000000
_cell_volume 1543.376415
_symmetry_space_group_name_H-M "C 2 2 2"
_symmetry_group_IT_number 21
_symmetry_cell_setting 'orthorhombic'
loop_
_space_group_symop_operation_xyz
x,y,z
-x,-y,z
x,-y,-z
-x,y,-z
1/2+x,1/2+y,z
1/2-x,1/2-y,z
1/2+x,1/2-y,-z
1/2-x,1/2+y,-z
loop_
_atom_site_type_symbol
_atom_site_label
_atom_site_fract_x
_atom_site_fract_y
_atom_site_fract_z
Si Si1 0.000000 0.000000 0.000000
Si Si2 0.181132 0.860826 0.132529
Si Si3 0.000000 0.500000 0.783397
Si Si4 0.886918 0.101432 0.724693
Si Si5 0.500000 0.000000 0.500000
Si Si6 0.176457 0.146182 0.444181
O O1 0.883489 0.074405 0.057661
O O2 0.250000 0.750000 0.114319
O O3 0.000789 0.858146 0.197653
O O4 0.361098 0.924202 0.169119
O O5 0.159330 0.570071 0.739961
O O6 0.898637 0.163257 0.644950
O O7 0.000000 0.000000 0.705808
O O8 0.643369 0.931092 0.448066
O O9 0.250000 0.250000 0.477449
O O10 0.000000 0.110577 0.500000
#
# Coordination Sequence:
#
# PCOD9324309 Si02
#       6
#     2   8   4   8   2   8
#     4  12  24  54  64 110 144 160 244 290 336 438
#     4  11  26  45  73 104 139 183 225 283 354 418
#     4  10  21  45  72 104 136 180 230 283 343 419
#     4  10  22  45  68 102 142 180 233 288 343 416
#     4  12  24  48  68  98 144 190 238 298 348 392
#     4  12  26  44  69 105 144 189 242 292 347 411
#
# _framework density 20.733761999999999
#
# number of rings (size 3 to 8) (size 9 to 14) (size 15 to 20)
#    0.000    1.000    5.000    2.625    3.500    5.500 
#    0.000    0.000    0.000    0.000    0.000    0.000 
#    0.000    0.000    0.000    0.000    0.000    0.000 
#
# Total GULP energy -89329.491272 kJ/mol
# GULP energy per Si atom -5583.093205 kJ/mol
# Density = 2.068657 g / cm^3
# Si number density = 20.733762 Si / 1000 Ang^3
#
#
#
# Elastic Constant Matrix: (Units=GPa)
#
#
# Indices 1 2 3 4 5 6 
#
# 1 135.1897 33.4839 68.6483 0.0000 0.0000 0.0000
# 2 33.4839 121.8053 39.5355 0.0000 0.0000 0.0000
# 3 68.6483 39.5355 130.7886 0.0000 0.0000 0.0000
# 4 0.0000 0.0000 0.0000 33.2434 0.0000 0.0000
# 5 0.0000 0.0000 0.0000 0.0000 -0.3784 0.0000
# 6 0.0000 0.0000 0.0000 0.0000 0.0000 24.0309
#
#
#
# Elastic Compliance Matrix: (Units=1/GPa)
#
#
# Indices 1 2 3 4 5 6 
#
# 1 0.010237 -0.001187 -0.005015 0.000000 0.000000 0.000000
# 2 -0.001187 0.009240 -0.002170 0.000000 0.000000 0.000000
# 3 -0.005015 -0.002170 0.010934 0.000000 0.000000 0.000000
# 4 0.000000 0.000000 0.000000 0.030081 0.000000 0.000000
# 5 0.000000 0.000000 0.000000 0.000000 -2.642902 0.000000
# 6 0.000000 0.000000 0.000000 0.000000 0.000000 0.041613
#
#
# Mechanical properties :
#
#
# Convention : Reuss Voigt Hill
#
# Bulk Modulus (GPa) = 73.16073 74.56879 73.86476
# Shear Modulus (GPa) = -1.98452 27.78693 12.90120
#
# Velocity S-wave (km/s) = -0.97940 3.66482 2.49716
# Velocity P-wave (km/s) = 5.83810 7.34512 6.63454
#
# Compressibility (1/GPa) = 0.01366853
#
# Stress axis : x y z
#
# Youngs Moduli (GPa) = 97.68188 108.21937 91.45675
#
# Poissons Ratio (x) = 0.12841 0.45863
# Poissons Ratio (y) = 0.11590 0.19850
# Poissons Ratio (z) = 0.48984 0.23489
#
# Static dielectric constant tensor:
#      x y z
#    x 1.766660 0.000000 0.000000 
#    y 0.000000 1.837390 0.000000 
#    z 0.000000 0.000000 1.766520 
# 
# From -- ./inp_files/34541.got.cif
#   From: 2010.05.17/outbox.cif.g08.bks.cpg/sg21_18_cif.got.tgz:34541.got - 2010.06.03 23:14:55.
