data_PCOD9324881
_publ_section_title
;
Structure prediction by ZEFSAII (Michael W. Deem and Ramdas Pophale) SiO2 
 PCOD9324881
Probable space group: C 2 2 2
;
_chemical_formula_sum "Si O2"
_cell_formula_units_Z 64
_cell_length_a 22.619282
_cell_length_b 8.888894
_cell_length_c 14.741754
_cell_angle_alpha 90.000000
_cell_angle_beta 90.000000
_cell_angle_gamma 90.000000
_cell_volume 2963.982957
_symmetry_space_group_name_H-M "C 2 2 2"
_symmetry_group_IT_number 21
_symmetry_cell_setting 'orthorhombic'
loop_
_space_group_symop_operation_xyz
x,y,z
-x,-y,z
x,-y,-z
-x,y,-z
1/2+x,1/2+y,z
1/2-x,1/2-y,z
1/2+x,1/2-y,-z
1/2-x,1/2+y,-z
loop_
_atom_site_type_symbol
_atom_site_label
_atom_site_fract_x
_atom_site_fract_y
_atom_site_fract_z
Si Si1 0.105858 0.827517 0.855588
Si Si2 0.797821 0.638270 0.244671
Si Si3 0.585417 0.165267 0.040177
Si Si4 0.671243 0.416596 0.403988
Si Si5 0.507748 0.172520 0.208514
Si Si6 0.567399 0.439382 0.269558
Si Si7 0.784851 0.405154 0.092521
Si Si8 0.688777 0.062754 0.399379
O O1 0.165290 0.749154 0.821129
O O2 0.056321 0.745498 0.794532
O O3 0.093220 0.998919 0.826701
O O4 0.096659 0.783384 0.959857
O O5 0.750000 0.750000 0.288732
O O6 0.771405 0.511453 0.177664
O O7 0.834579 0.548810 0.321083
O O8 0.532409 0.198773 0.107076
O O9 0.646041 0.138881 0.095009
O O10 0.573269 0.000000 0.000000
O O11 0.663346 0.500000 0.500000
O O12 0.619502 0.477967 0.338980
O O13 0.667329 0.234721 0.401483
O O14 0.740190 0.441911 0.379263
O O15 0.554524 0.261960 0.268536
O O16 0.500000 0.000000 0.229282
O O17 0.500000 0.500000 0.285121
O O18 0.750000 0.250000 0.092365
O O19 0.774815 0.500000 0.000000
O O20 0.679458 0.000000 0.500000
#
# Coordination Sequence:
#
# PCOD9324881 Si02
#       8
#     8   8   8   8   8   8   8   8
#     4  11  23  40  62  92 129 174 226 273 328 394
#     4  12  25  41  68  96 138 183 221 281 351 410
#     4  11  21  38  61  89 123 177 224 273 330 383
#     4  10  23  45  71  96 138 173 212 283 342 415
#     4  11  22  39  66  89 129 169 221 280 327 385
#     4  10  25  43  64 100 132 173 225 272 343 406
#     4  11  24  42  59  92 138 179 232 275 337 416
#     4  10  25  42  69 107 131 170 227 274 349 416
#
# _framework density 21.592566999999999
#
# number of rings (size 3 to 8) (size 9 to 14) (size 15 to 20)
#    0.000    1.250    3.750    1.500   10.500    1.750 
#    0.000    1.875    0.000    0.000    0.000    0.000 
#    0.000    0.000    0.000    0.000    0.000    0.000 
#
# Total GULP energy -178631.670981 kJ/mol
# GULP energy per Si atom -5582.239718 kJ/mol
# Density = 2.154342 g / cm^3
# Si number density = 21.592567 Si / 1000 Ang^3
#
#
#
# Elastic Constant Matrix: (Units=GPa)
#
#
# Indices 1 2 3 4 5 6 
#
# 1 47.4074 20.7501 12.5504 0.0000 0.0000 0.0000
# 2 20.7501 120.3052 30.4930 0.0000 0.0000 0.0000
# 3 12.5504 30.4930 80.2847 0.0000 0.0000 0.0000
# 4 0.0000 0.0000 0.0000 30.5742 0.0000 0.0000
# 5 0.0000 0.0000 0.0000 0.0000 20.2739 0.0000
# 6 0.0000 0.0000 0.0000 0.0000 0.0000 21.5248
#
#
#
# Elastic Compliance Matrix: (Units=1/GPa)
#
#
# Indices 1 2 3 4 5 6 
#
# 1 0.023204 -0.003411 -0.002332 0.000000 0.000000 0.000000
# 2 -0.003411 0.009699 -0.003151 0.000000 0.000000 0.000000
# 3 -0.002332 -0.003151 0.014017 0.000000 0.000000 0.000000
# 4 0.000000 0.000000 0.000000 0.032707 0.000000 0.000000
# 5 0.000000 0.000000 0.000000 0.000000 0.049324 0.000000
# 6 0.000000 0.000000 0.000000 0.000000 0.000000 0.046458
#
#
# Mechanical properties :
#
#
# Convention : Reuss Voigt Hill
#
# Bulk Modulus (GPa) = 34.32535 41.73158 38.02847
# Shear Modulus (GPa) = 24.64173 26.75484 25.69829
#
# Velocity S-wave (km/s) = 3.38185 3.52387 3.45359
# Velocity P-wave (km/s) = 5.58396 5.99380 5.79251
#
# Compressibility (1/GPa) = 0.02913298
#
# Stress axis : x y z
#
# Youngs Moduli (GPa) = 43.09579 103.10232 71.34291
#
# Poissons Ratio (x) = 0.35170 0.16635
# Poissons Ratio (y) = 0.14701 0.22477
# Poissons Ratio (z) = 0.10049 0.32483
#
# Static dielectric constant tensor:
#      x y z
#    x 1.826340 0.000000 0.000000 
#    y 0.000000 1.844850 0.000000 
#    z 0.000000 0.000000 1.791610 
# 
# From -- ./inp_files/33609.got.cif
#   From: 2010.05.17/outbox.cif.g08.bks.cpg/sg21_17_cif.got.tgz:33609.got - 2010.06.03 23:14:55.
