data_PCOD9324504
_publ_section_title
;
Structure prediction by ZEFSAII (Michael W. Deem and Ramdas Pophale) SiO2 
 PCOD9324504
Probable space group: C 2 2 2
;
_chemical_formula_sum "Si O2"
_cell_formula_units_Z 64
_cell_length_a 12.322647
_cell_length_b 14.153299
_cell_length_c 16.775858
_cell_angle_alpha 90.000000
_cell_angle_beta 90.000000
_cell_angle_gamma 90.000000
_cell_volume 2925.812093
_symmetry_space_group_name_H-M "C 2 2 2"
_symmetry_group_IT_number 21
_symmetry_cell_setting 'orthorhombic'
loop_
_space_group_symop_operation_xyz
x,y,z
-x,-y,z
x,-y,-z
-x,y,-z
1/2+x,1/2+y,z
1/2-x,1/2-y,z
1/2+x,1/2-y,-z
1/2-x,1/2+y,-z
loop_
_atom_site_type_symbol
_atom_site_label
_atom_site_fract_x
_atom_site_fract_y
_atom_site_fract_z
Si Si1 0.190433 0.343089 0.178102
Si Si2 0.214398 0.650824 0.163919
Si Si3 0.084743 0.779803 0.390617
Si Si4 0.377644 0.508735 0.379369
Si Si5 0.975115 0.605026 0.720255
Si Si6 0.376999 0.506607 0.806968
Si Si7 0.128791 0.390394 0.004436
Si Si8 0.343962 0.315013 0.432124
O O1 0.250000 0.250000 0.206867
O O2 0.288135 0.417568 0.168066
O O3 0.149938 0.337626 0.087197
O O4 0.088300 0.365434 0.236055
O O5 0.250000 0.750000 0.200460
O O6 0.117068 0.599581 0.211211
O O7 0.322059 0.590602 0.169811
O O8 0.175442 0.660450 0.073298
O O9 0.147930 0.878950 0.371560
O O10 0.077830 0.682775 0.340101
O O11 0.125962 0.770178 0.481483
O O12 0.957876 0.807866 0.387179
O O13 0.500000 0.500000 0.412830
O O14 0.380114 0.477877 0.287981
O O15 0.314029 0.426930 0.428309
O O16 0.000000 0.500000 0.686187
O O17 0.500000 0.500000 0.836536
O O18 0.169538 0.500000 0.000000
O O19 0.000000 0.396283 0.000000
O O20 0.250000 0.250000 0.398023
#
# Coordination Sequence:
#
# PCOD9324504 Si02
#       8
#     8   8   8   8   8   8   8   8
#     4  12  27  43  71 105 137 184 245 299 361 430
#     4  12  25  43  71 101 143 191 247 296 365 436
#     4  10  23  42  65 101 137 176 240 293 349 433
#     4   9  20  39  67  94 137 185 231 286 350 431
#     4  12  25  47  71 104 140 193 242 302 368 440
#     4  11  25  42  64 105 141 180 235 298 362 412
#     4  11  21  44  71  98 141 191 246 293 357 443
#     4  10  22  40  66  99 139 187 228 282 364 433
#
# _framework density 21.874267
#
# number of rings (size 3 to 8) (size 9 to 14) (size 15 to 20)
#    0.000    1.125    3.750    1.500    8.750    3.000 
#    0.000    3.750    0.000    0.000    0.000    0.000 
#    0.000    0.000    0.000    0.000    0.000    0.000 
#
# Total GULP energy -178295.655557 kJ/mol
# GULP energy per Si atom -5571.739236 kJ/mol
# Density = 2.182448 g / cm^3
# Si number density = 21.874267 Si / 1000 Ang^3
#
#
#
# Elastic Constant Matrix: (Units=GPa)
#
#
# Indices 1 2 3 4 5 6 
#
# 1 120.7568 46.8782 7.4452 0.0000 0.0000 0.0000
# 2 46.8782 140.0400 21.9479 0.0000 0.0000 0.0000
# 3 7.4452 21.9479 85.2725 0.0000 0.0000 0.0000
# 4 0.0000 0.0000 0.0000 27.9873 0.0000 0.0000
# 5 0.0000 0.0000 0.0000 0.0000 8.2379 0.0000
# 6 0.0000 0.0000 0.0000 0.0000 0.0000 17.4424
#
#
#
# Elastic Compliance Matrix: (Units=1/GPa)
#
#
# Indices 1 2 3 4 5 6 
#
# 1 0.009518 -0.003184 -0.000011 0.000000 0.000000 0.000000
# 2 -0.003184 0.008506 -0.001911 0.000000 0.000000 0.000000
# 3 -0.000011 -0.001911 0.012220 0.000000 0.000000 0.000000
# 4 0.000000 0.000000 0.000000 0.035730 0.000000 0.000000
# 5 0.000000 0.000000 0.000000 0.000000 0.121390 0.000000
# 6 0.000000 0.000000 0.000000 0.000000 0.000000 0.057332
#
#
# Mechanical properties :
#
#
# Convention : Reuss Voigt Hill
#
# Bulk Modulus (GPa) = 49.92488 55.40135 52.66311
# Shear Modulus (GPa) = 19.11405 28.72006 23.91705
#
# Velocity S-wave (km/s) = 2.95924 3.62741 3.31023
# Velocity P-wave (km/s) = 5.87786 6.55182 6.22397
#
# Compressibility (1/GPa) = 0.02003009
#
# Stress axis : x y z
#
# Youngs Moduli (GPa) = 105.06427 117.55947 81.83263
#
# Poissons Ratio (x) = 0.37435 0.00093
# Poissons Ratio (y) = 0.33456 0.15641
# Poissons Ratio (z) = 0.00120 0.22470
#
# Static dielectric constant tensor:
#      x y z
#    x 1.796530 0.000000 0.000000 
#    y 0.000000 1.924660 0.000000 
#    z 0.000000 0.000000 1.846710 
# 
# From -- ./inp_files/36256.got.cif
#   From: 2010.05.17/outbox.cif.g08.bks.cpg/sg21_19_cif.got.tgz:36256.got - 2010.06.03 23:14:55.
