data_PCOD9324477
_publ_section_title
;
Structure prediction by ZEFSAII (Michael W. Deem and Ramdas Pophale) SiO2 
 PCOD9324477
Probable space group: C 2 2 2
;
_chemical_formula_sum "Si O2"
_cell_formula_units_Z 38
_cell_length_a 14.129051
_cell_length_b 17.789718
_cell_length_c 6.306925
_cell_angle_alpha 90.000000
_cell_angle_beta 90.000000
_cell_angle_gamma 90.000000
_cell_volume 1585.257159
_symmetry_space_group_name_H-M "C 2 2 2"
_symmetry_group_IT_number 21
_symmetry_cell_setting 'orthorhombic'
loop_
_space_group_symop_operation_xyz
x,y,z
-x,-y,z
x,-y,-z
-x,y,-z
1/2+x,1/2+y,z
1/2-x,1/2-y,z
1/2+x,1/2-y,-z
1/2-x,1/2+y,-z
loop_
_atom_site_type_symbol
_atom_site_label
_atom_site_fract_x
_atom_site_fract_y
_atom_site_fract_z
Si Si1 0.131220 0.354199 0.759278
Si Si2 0.422911 0.621234 0.686783
Si Si3 0.288556 0.878996 0.674635
Si Si4 0.000000 0.000000 0.000000
Si Si5 0.351460 0.000000 0.000000
Si Si6 0.500000 0.741046 0.000000
Si Si7 0.250000 0.250000 0.003821
O O1 0.137412 0.373154 0.513725
O O2 0.101270 0.430304 0.879303
O O3 0.060136 0.289661 0.835812
O O4 0.233635 0.318187 0.828035
O O5 0.500000 0.625619 0.500000
O O6 0.318805 0.621076 0.592759
O O7 0.439329 0.550028 0.838835
O O8 0.432742 0.687972 0.859764
O O9 0.297582 0.953999 0.815940
O O10 0.299853 0.805284 0.819286
#
# Coordination Sequence:
#
# PCOD9324477 Si02
#       7
#     8   8   8   2   4   4   4
#     4  11  24  43  72 100 143 188 239 298 371 436
#     4  11  25  41  69 104 143 192 240 298 368 437
#     4  11  23  43  70 102 140 191 244 297 365 434
#     4  10  24  44  60 100 154 190 230 308 358 434
#     4  10  25  43  68 107 137 186 244 302 349 446
#     4  11  26  46  68 109 146 184 240 315 368 434
#     4  10  22  40  64 102 134 180 238 294 346 428
#
# _framework density 23.970874999999999
#
# number of rings (size 3 to 8) (size 9 to 14) (size 15 to 20)
#    0.000    1.263    2.105    2.211    5.895    5.474 
#    0.000    0.000    0.000    5.053    0.000    0.000 
#    0.000    0.000    0.000    0.000    0.000    0.000 
#
# Total GULP energy -105785.365212 kJ/mol
# GULP energy per Si atom -5567.650801 kJ/mol
# Density = 2.391632 g / cm^3
# Si number density = 23.970875 Si / 1000 Ang^3
#
#
#
# Elastic Constant Matrix: (Units=GPa)
#
#
# Indices 1 2 3 4 5 6 
#
# 1 64.5714 25.4511 35.0372 0.0000 0.0000 0.0000
# 2 25.4511 171.0155 42.5051 0.0000 0.0000 0.0000
# 3 35.0372 42.5051 115.7144 0.0000 0.0000 0.0000
# 4 0.0000 0.0000 0.0000 37.3828 0.0000 0.0000
# 5 0.0000 0.0000 0.0000 0.0000 28.6302 0.0000
# 6 0.0000 0.0000 0.0000 0.0000 0.0000 18.7330
#
#
#
# Elastic Compliance Matrix: (Units=1/GPa)
#
#
# Indices 1 2 3 4 5 6 
#
# 1 0.018888 -0.001529 -0.005157 0.000000 0.000000 0.000000
# 2 -0.001529 0.006559 -0.001946 0.000000 0.000000 0.000000
# 3 -0.005157 -0.001946 0.010918 0.000000 0.000000 0.000000
# 4 0.000000 0.000000 0.000000 0.026750 0.000000 0.000000
# 5 0.000000 0.000000 0.000000 0.000000 0.034928 0.000000
# 6 0.000000 0.000000 0.000000 0.000000 0.000000 0.053382
#
#
# Mechanical properties :
#
#
# Convention : Reuss Voigt Hill
#
# Bulk Modulus (GPa) = 52.35688 61.92089 57.13889
# Shear Modulus (GPa) = 28.56208 33.50305 31.03256
#
# Velocity S-wave (km/s) = 3.45560 3.74258 3.60195
# Velocity P-wave (km/s) = 6.14906 6.67560 6.41773
#
# Compressibility (1/GPa) = 0.01909969
#
# Stress axis : x y z
#
# Youngs Moduli (GPa) = 52.94390 152.46901 91.58801
#
# Poissons Ratio (x) = 0.23314 0.47235
# Poissons Ratio (y) = 0.08096 0.17825
# Poissons Ratio (z) = 0.27305 0.29673
#
# Static dielectric constant tensor:
#      x y z
#    x 1.743480 0.000000 0.000000 
#    y 0.000000 1.886680 0.000000 
#    z 0.000000 0.000000 1.903040 
# 
# From -- ./inp_files/4888.got.cif
#   From: 2010.05.17/outbox.cif.g08.bks.cpg/sg21_3_cif.got.tgz:4888.got - 2010.06.03 23:14:55.
