data_PCOD9324568
_publ_section_title
;
Structure prediction by ZEFSAII (Michael W. Deem and Ramdas Pophale) SiO2 
 PCOD9324568
Probable space group: C 2 2 2
;
_chemical_formula_sum "Si O2"
_cell_formula_units_Z 58
_cell_length_a 27.798314
_cell_length_b 17.756724
_cell_length_c 5.782844
_cell_angle_alpha 90.000000
_cell_angle_beta 90.000000
_cell_angle_gamma 90.000000
_cell_volume 2854.452217
_symmetry_space_group_name_H-M "C 2 2 2"
_symmetry_group_IT_number 21
_symmetry_cell_setting 'orthorhombic'
loop_
_space_group_symop_operation_xyz
x,y,z
-x,-y,z
x,-y,-z
-x,y,-z
1/2+x,1/2+y,z
1/2-x,1/2-y,z
1/2+x,1/2-y,-z
1/2-x,1/2+y,-z
loop_
_atom_site_type_symbol
_atom_site_label
_atom_site_fract_x
_atom_site_fract_y
_atom_site_fract_z
Si Si1 0.000000 0.000000 0.500000
Si Si2 0.145643 0.858028 0.000474
Si Si3 0.204139 0.206799 0.391114
Si Si4 0.041158 0.113189 0.832421
Si Si5 0.717194 0.562920 0.674895
Si Si6 0.825803 0.465262 0.243993
Si Si7 0.524727 0.787814 0.746169
Si Si8 0.361412 0.797316 0.277095
O O1 0.962723 0.055983 0.374790
O O2 0.170176 0.847154 0.756795
O O3 0.090894 0.881698 0.031287
O O4 0.177977 0.917283 0.136080
O O5 0.148234 0.772753 0.105042
O O6 0.250000 0.250000 0.281038
O O7 0.227136 0.146511 0.568466
O O8 0.166556 0.266541 0.496966
O O9 0.026663 0.196976 0.753143
O O10 0.000000 0.085770 0.000000
O O11 0.698076 0.500000 0.500000
O O12 0.767954 0.530240 0.757100
O O13 0.840600 0.500000 0.500000
O O14 0.839352 0.377915 0.226855
O O15 0.844045 0.500000 0.000000
O O16 0.500000 0.810881 0.500000
O O17 0.580998 0.809210 0.723290
O O18 0.500000 0.809576 0.000000
#
# Coordination Sequence:
#
# PCOD9324568 Si02
#       8
#     2   8   8   8   8   8   8   8
#     4  12  22  40  64  78 136 172 228 300 338 412
#     4  10  25  38  65  92 128 181 224 290 337 413
#     4  11  23  40  67  98 135 175 232 283 342 412
#     4  10  23  41  57  90 121 172 228 280 347 398
#     4  10  24  41  57  92 132 180 224 279 339 408
#     4  11  26  43  68  99 137 178 220 272 340 418
#     4  10  22  41  70  98 130 165 225 280 331 400
#     4  10  24  42  67  99 134 177 223 275 346 400
#
# _framework density 20.319137000000001
#
# number of rings (size 3 to 8) (size 9 to 14) (size 15 to 20)
#    0.000    1.655    2.069    0.207   14.483    1.103 
#    2.483    0.000    0.000    2.483    0.000    0.000 
#    0.000    0.000    0.000    0.000    0.000    0.000 
#
# Total GULP energy -161497.688361 kJ/mol
# GULP energy per Si atom -5568.885806 kJ/mol
# Density = 2.027289 g / cm^3
# Si number density = 20.319137 Si / 1000 Ang^3
#
#
#
# Elastic Constant Matrix: (Units=GPa)
#
#
# Indices 1 2 3 4 5 6 
#
# 1 74.4993 19.0880 43.8385 0.0000 0.0000 0.0000
# 2 19.0880 82.7225 33.8485 0.0000 0.0000 0.0000
# 3 43.8385 33.8485 89.1538 0.0000 0.0000 0.0000
# 4 0.0000 0.0000 0.0000 27.6078 0.0000 0.0000
# 5 0.0000 0.0000 0.0000 0.0000 20.9945 0.0000
# 6 0.0000 0.0000 0.0000 0.0000 0.0000 26.9035
#
#
#
# Elastic Compliance Matrix: (Units=1/GPa)
#
#
# Indices 1 2 3 4 5 6 
#
# 1 0.018919 -0.000662 -0.009051 0.000000 0.000000 0.000000
# 2 -0.000662 0.014335 -0.005117 0.000000 0.000000 0.000000
# 3 -0.009051 -0.005117 0.017610 0.000000 0.000000 0.000000
# 4 0.000000 0.000000 0.000000 0.036222 0.000000 0.000000
# 5 0.000000 0.000000 0.000000 0.000000 0.047631 0.000000
# 6 0.000000 0.000000 0.000000 0.000000 0.000000 0.037170
#
#
# Mechanical properties :
#
#
# Convention : Reuss Voigt Hill
#
# Bulk Modulus (GPa) = 47.16241 48.88062 48.02152
# Shear Modulus (GPa) = 23.96754 25.07453 24.52103
#
# Velocity S-wave (km/s) = 3.43819 3.51669 3.47766
# Velocity P-wave (km/s) = 6.24682 6.37167 6.30955
#
# Compressibility (1/GPa) = 0.02120333
#
# Stress axis : x y z
#
# Youngs Moduli (GPa) = 52.85767 69.75856 56.78557
#
# Poissons Ratio (x) = 0.04616 0.51399
# Poissons Ratio (y) = 0.03498 0.29058
# Poissons Ratio (z) = 0.47844 0.35696
#
# Static dielectric constant tensor:
#      x y z
#    x 1.704290 0.000000 0.000000 
#    y 0.000000 1.647380 0.000000 
#    z 0.000000 0.000000 1.695250 
# 
# From -- ./inp_files/7468.got.cif
#   From: 2010.05.17/outbox.cif.g08.bks.cpg/sg21_4_cif.got.tgz:7468.got - 2010.06.03 23:14:55.
