data_PCOD9324588
_publ_section_title
;
Structure prediction by ZEFSAII (Michael W. Deem and Ramdas Pophale) SiO2 
 PCOD9324588
Probable space group: C 2 2 2
;
_chemical_formula_sum "Si O2"
_cell_formula_units_Z 52
_cell_length_a 13.602111
_cell_length_b 19.388873
_cell_length_c 10.760926
_cell_angle_alpha 90.000000
_cell_angle_beta 90.000000
_cell_angle_gamma 90.000000
_cell_volume 2837.974739
_symmetry_space_group_name_H-M "C 2 2 2"
_symmetry_group_IT_number 21
_symmetry_cell_setting 'orthorhombic'
loop_
_space_group_symop_operation_xyz
x,y,z
-x,-y,z
x,-y,-z
-x,y,-z
1/2+x,1/2+y,z
1/2-x,1/2-y,z
1/2+x,1/2-y,-z
1/2-x,1/2+y,-z
loop_
_atom_site_type_symbol
_atom_site_label
_atom_site_fract_x
_atom_site_fract_y
_atom_site_fract_z
Si Si1 0.801053 0.323630 0.467028
Si Si2 0.369258 0.754686 0.690713
Si Si3 0.761740 0.532239 0.130772
Si Si4 0.000000 0.500000 0.500000
Si Si5 0.355738 0.397831 0.355829
Si Si6 0.559460 0.135651 0.877930
Si Si7 0.611496 0.923565 0.713808
Si Si8 0.500000 0.500000 0.500000
O O1 0.750000 0.250000 0.442705
O O2 0.883792 0.302001 0.568146
O O3 0.728949 0.376128 0.542965
O O4 0.835925 0.355763 0.338902
O O5 0.250000 0.750000 0.705758
O O6 0.404250 0.676638 0.673930
O O7 0.411342 0.795900 0.805079
O O8 0.689663 0.569744 0.229667
O O9 0.845304 0.588700 0.097322
O O10 0.815676 0.472064 0.209220
O O11 0.723438 0.500000 0.000000
O O12 0.071672 0.458096 0.588861
O O13 0.430526 0.451166 0.416954
O O14 0.484344 0.092160 0.794128
O O15 0.500000 0.152921 0.000000
#
# Coordination Sequence:
#
# PCOD9324588 Si02
#       8
#     8   8   8   2   8   8   8   2
#     4   9  19  38  60  84 121 161 197 250 319 371
#     4   9  19  40  63  80 120 166 203 241 310 367
#     4  12  22  40  60  86 127 168 200 249 314 369
#     4  12  20  26  48  84 124 146 184 260 310 356
#     4  10  22  42  66  88 118 165 204 252 315 364
#     4  12  22  38  58  91 122 167 209 244 302 369
#     4  12  22  31  54  92 124 149 202 256 309 367
#     4  12  24  42  72  96 122 152 214 262 306 372
#
# _framework density 18.322927
#
# number of rings (size 3 to 8) (size 9 to 14) (size 15 to 20)
#    0.000    1.538    6.154    2.769    0.000    2.462 
#    0.000    4.231    0.000    0.000    0.000    0.000 
#    0.000    0.000    0.000    0.000    0.000    0.000 
#
# Total GULP energy -145043.435111 kJ/mol
# GULP energy per Si atom -5578.593658 kJ/mol
# Density = 1.828122 g / cm^3
# Si number density = 18.322927 Si / 1000 Ang^3
#
#
#
# Elastic Constant Matrix: (Units=GPa)
#
#
# Indices 1 2 3 4 5 6 
#
# 1 35.2457 29.4458 11.8143 0.0000 0.0000 0.0000
# 2 29.4458 108.2576 32.1787 0.0000 0.0000 0.0000
# 3 11.8143 32.1787 43.7600 0.0000 0.0000 0.0000
# 4 0.0000 0.0000 0.0000 -19.2023 0.0000 0.0000
# 5 0.0000 0.0000 0.0000 0.0000 32.5428 0.0000
# 6 0.0000 0.0000 0.0000 0.0000 0.0000 22.1566
#
#
#
# Elastic Compliance Matrix: (Units=1/GPa)
#
#
# Indices 1 2 3 4 5 6 
#
# 1 0.037089 -0.009101 -0.003321 0.000000 0.000000 0.000000
# 2 -0.009101 0.014054 -0.007878 0.000000 0.000000 0.000000
# 3 -0.003321 -0.007878 0.029541 0.000000 0.000000 0.000000
# 4 0.000000 0.000000 0.000000 -0.052077 0.000000 0.000000
# 5 0.000000 0.000000 0.000000 0.000000 0.030729 0.000000
# 6 0.000000 0.000000 0.000000 0.000000 0.000000 0.045133
#
#
# Mechanical properties :
#
#
# Convention : Reuss Voigt Hill
#
# Bulk Modulus (GPa) = 24.94676 37.12674 31.03675
# Shear Modulus (GPa) = 31.55974 14.68773 23.12374
#
# Velocity S-wave (km/s) = 4.15470 2.83433 3.55633
# Velocity P-wave (km/s) = 6.05475 5.56935 5.81712
#
# Compressibility (1/GPa) = 0.04008536
#
# Stress axis : x y z
#
# Youngs Moduli (GPa) = 26.96236 71.15307 33.85098
#
# Poissons Ratio (x) = 0.64756 0.11241
# Poissons Ratio (y) = 0.24538 0.26667
# Poissons Ratio (z) = 0.08954 0.56052
#
# Static dielectric constant tensor:
#      x y z
#    x 1.685980 0.000000 0.000000 
#    y 0.000000 1.610390 0.000000 
#    z 0.000000 0.000000 1.616760 
# 
# From -- ./inp_files/25430.got.cif
#   From: 2010.05.17/outbox.cif.g08.bks.cpg/sg21_13_cif.got.tgz:25430.got - 2010.06.03 23:14:55.
