data_PCOD9324995
_publ_section_title
;
Structure prediction by ZEFSAII (Michael W. Deem and Ramdas Pophale) SiO2 
 PCOD9324995
Probable space group: C 2 2 2
;
_chemical_formula_sum "Si O2"
_cell_formula_units_Z 34
_cell_length_a 30.307016
_cell_length_b 4.968441
_cell_length_c 9.241939
_cell_angle_alpha 90.000000
_cell_angle_beta 90.000000
_cell_angle_gamma 90.000000
_cell_volume 1391.638429
_symmetry_space_group_name_H-M "C 2 2 2"
_symmetry_group_IT_number 21
_symmetry_cell_setting 'orthorhombic'
loop_
_space_group_symop_operation_xyz
x,y,z
-x,-y,z
x,-y,-z
-x,y,-z
1/2+x,1/2+y,z
1/2-x,1/2-y,z
1/2+x,1/2-y,-z
1/2-x,1/2+y,-z
loop_
_atom_site_type_symbol
_atom_site_label
_atom_site_fract_x
_atom_site_fract_y
_atom_site_fract_z
Si Si1 0.250000 0.250000 0.388773
Si Si2 0.000000 0.000000 0.500000
Si Si3 0.632520 0.850979 0.646481
Si Si4 0.888316 0.000000 0.000000
Si Si5 0.687484 0.883456 0.137406
Si Si6 0.576663 0.355135 0.706859
O O1 0.249287 0.500000 0.500000
O O2 0.289127 0.274500 0.268519
O O3 0.966974 0.148112 0.610060
O O4 0.668984 0.865919 0.769807
O O5 0.594272 0.052064 0.702577
O O6 0.647553 0.000000 0.500000
O O7 0.612733 0.557324 0.637043
O O8 0.853013 0.221906 0.937851
O O9 0.922650 0.013265 0.865635
O O10 0.714368 0.000000 0.000000
#
# Coordination Sequence:
#
# PCOD9324995 Si02
#       6
#     4   2   8   4   8   8
#     4  12  32  50  72 118 160 196 244 314 388 442
#     4  12  24  44  68 106 144 188 220 318 372 440
#     4  11  21  42  66 100 133 188 237 286 344 445
#     4  10  24  45  68 106 136 192 252 294 350 451
#     4  11  25  44  78 102 151 191 253 306 369 434
#     4  11  24  39  67  98 139 176 240 286 365 422
#
# _framework density 24.431633000000001
#
# number of rings (size 3 to 8) (size 9 to 14) (size 15 to 20)
#    0.000    0.941    4.706    0.706    4.941    6.118 
#    0.000    0.000    0.000    2.824    0.000    0.000 
#    0.000    0.000    0.000    0.000    0.000    0.000 
#
# Total GULP energy -94638.537440 kJ/mol
# GULP energy per Si atom -5566.972791 kJ/mol
# Density = 2.437603 g / cm^3
# Si number density = 24.431633 Si / 1000 Ang^3
#
#
#
# Elastic Constant Matrix: (Units=GPa)
#
#
# Indices 1 2 3 4 5 6 
#
# 1 65.6236 6.2843 37.5422 0.0000 0.0000 0.0000
# 2 6.2843 49.0875 -16.3803 0.0000 0.0000 0.0000
# 3 37.5422 -16.3803 236.2709 0.0000 0.0000 0.0000
# 4 0.0000 0.0000 0.0000 33.1143 0.0000 0.0000
# 5 0.0000 0.0000 0.0000 0.0000 22.0157 0.0000
# 6 0.0000 0.0000 0.0000 0.0000 0.0000 -1.2022
#
#
#
# Elastic Compliance Matrix: (Units=1/GPa)
#
#
# Indices 1 2 3 4 5 6 
#
# 1 0.017238 -0.003195 -0.002961 0.000000 0.000000 0.000000
# 2 -0.003195 0.021446 0.001994 0.000000 0.000000 0.000000
# 3 -0.002961 0.001994 0.004841 0.000000 0.000000 0.000000
# 4 0.000000 0.000000 0.000000 0.030198 0.000000 0.000000
# 5 0.000000 0.000000 0.000000 0.000000 0.045422 0.000000
# 6 0.000000 0.000000 0.000000 0.000000 0.000000 -0.831824
#
#
# Mechanical properties :
#
#
# Convention : Reuss Voigt Hill
#
# Bulk Modulus (GPa) = 28.40601 45.09716 36.75158
# Shear Modulus (GPa) = -7.21894 32.35462 12.56784
#
# Velocity S-wave (km/s) = -1.72080 3.64303 2.27052
# Velocity P-wave (km/s) = 2.77556 6.01616 4.68497
#
# Compressibility (1/GPa) = 0.03520382
#
# Stress axis : x y z
#
# Youngs Moduli (GPa) = 58.01125 46.62806 206.56409
#
# Poissons Ratio (x) = 0.14897 0.61154
# Poissons Ratio (y) = 0.18533 -0.41199
# Poissons Ratio (z) = 0.17174 -0.09300
#
# Static dielectric constant tensor:
#      x y z
#    x 2.063820 0.000000 0.000000 
#    y 0.000000 1.951360 0.000000 
#    z 0.000000 0.000000 2.077870 
# 
# From -- ./inp_files/19439.got.cif
#   From: 2010.05.17/outbox.cif.g08.bks.cpg/sg21_10_cif.got.tgz:19439.got - 2010.06.03 23:14:55.
