data_PCOD9324028
_publ_section_title
;
Structure prediction by ZEFSAII (Michael W. Deem and Ramdas Pophale) SiO2 
 PCOD9324028
Probable space group: C 2 2 2
;
_chemical_formula_sum "Si O2"
_cell_formula_units_Z 48
_cell_length_a 10.623500
_cell_length_b 23.770465
_cell_length_c 7.931475
_cell_angle_alpha 90.000000
_cell_angle_beta 90.000000
_cell_angle_gamma 90.000000
_cell_volume 2002.899967
_symmetry_space_group_name_H-M "C 2 2 2"
_symmetry_group_IT_number 21
_symmetry_cell_setting 'orthorhombic'
loop_
_space_group_symop_operation_xyz
x,y,z
-x,-y,z
x,-y,-z
-x,y,-z
1/2+x,1/2+y,z
1/2-x,1/2-y,z
1/2+x,1/2-y,-z
1/2-x,1/2+y,-z
loop_
_atom_site_type_symbol
_atom_site_label
_atom_site_fract_x
_atom_site_fract_y
_atom_site_fract_z
Si Si1 0.233245 0.314150 0.156509
Si Si2 0.932088 0.588824 0.177117
Si Si3 0.768359 0.814988 0.751748
Si Si4 0.980281 0.116305 0.800940
Si Si5 0.207935 0.029796 0.275264
Si Si6 0.172459 0.425410 0.621555
O O1 0.250000 0.250000 0.205321
O O2 0.112872 0.348064 0.222247
O O3 0.356368 0.345897 0.219519
O O4 0.232874 0.317061 0.951192
O O5 0.802532 0.555299 0.138025
O O6 0.033073 0.562913 0.307547
O O7 0.000000 0.591545 0.000000
O O8 0.750000 0.750000 0.700370
O O9 0.686118 0.859281 0.648513
O O10 0.905590 0.844884 0.736910
O O11 0.929487 0.057221 0.724963
O O12 0.000000 0.106397 0.000000
O O13 0.285177 0.054869 0.436928
O O14 0.226234 0.962967 0.272765
#
# Coordination Sequence:
#
# PCOD9324028 Si02
#       6
#     8   8   8   8   8   8
#     4   9  19  35  61  94 132 171 213 275 343 389
#     4  11  21  38  64 100 129 169 225 282 328 398
#     4  10  21  38  64  93 128 170 223 274 331 405
#     4   9  20  40  62  93 129 169 221 279 336 399
#     4  10  24  43  63  92 136 178 215 279 347 411
#     4  11  23  41  65  95 132 178 222 265 347 410
#
# _framework density 23.965250000000001
#
# number of rings (size 3 to 8) (size 9 to 14) (size 15 to 20)
#    0.000    2.000    1.667    1.000    2.333    4.667 
#    0.000    7.500    3.667    0.000    0.000    0.000 
#    0.000    0.000    0.000    0.000    0.000    0.000 
#
# Total GULP energy -133902.330695 kJ/mol
# GULP energy per Si atom -5579.263779 kJ/mol
# Density = 2.391070 g / cm^3
# Si number density = 23.965250 Si / 1000 Ang^3
#
#
#
# Elastic Constant Matrix: (Units=GPa)
#
#
# Indices 1 2 3 4 5 6 
#
# 1 130.9858 42.4432 28.7159 0.0000 0.0000 0.0000
# 2 42.4432 197.1410 24.6812 0.0000 0.0000 0.0000
# 3 28.7159 24.6812 32.4579 0.0000 0.0000 0.0000
# 4 0.0000 0.0000 0.0000 19.9924 0.0000 0.0000
# 5 0.0000 0.0000 0.0000 0.0000 13.5412 0.0000
# 6 0.0000 0.0000 0.0000 0.0000 0.0000 36.7401
#
#
#
# Elastic Compliance Matrix: (Units=1/GPa)
#
#
# Indices 1 2 3 4 5 6 
#
# 1 0.009690 -0.001119 -0.007722 0.000000 0.000000 0.000000
# 2 -0.001119 0.005736 -0.003371 0.000000 0.000000 0.000000
# 3 -0.007722 -0.003371 0.040204 0.000000 0.000000 0.000000
# 4 0.000000 0.000000 0.000000 0.050019 0.000000 0.000000
# 5 0.000000 0.000000 0.000000 0.000000 0.073849 0.000000
# 6 0.000000 0.000000 0.000000 0.000000 0.000000 0.027218
#
#
# Mechanical properties :
#
#
# Convention : Reuss Voigt Hill
#
# Bulk Modulus (GPa) = 32.04578 61.36280 46.70429
# Shear Modulus (GPa) = 20.70045 31.70438 26.20242
#
# Velocity S-wave (km/s) = 2.94218 3.64116 3.31017
# Velocity P-wave (km/s) = 4.99427 6.58315 5.84297
#
# Compressibility (1/GPa) = 0.03120535
#
# Stress axis : x y z
#
# Youngs Moduli (GPa) = 103.19975 174.35104 24.87329
#
# Poissons Ratio (x) = 0.19518 0.19206
# Poissons Ratio (y) = 0.11553 0.08385
# Poissons Ratio (z) = 0.79686 0.58772
#
# Static dielectric constant tensor:
#      x y z
#    x 2.010710 0.000000 0.000000 
#    y 0.000000 1.990210 0.000000 
#    z 0.000000 0.000000 2.025850 
# 
# From -- ./inp_files/13319.got.cif
#   From: 2010.05.17/outbox.cif.g08.bks.cpg/sg21_7_cif.got.tgz:13319.got - 2010.06.03 23:14:55.
