data_PCOD9324041
_publ_section_title
;
Structure prediction by ZEFSAII (Michael W. Deem and Ramdas Pophale) SiO2 
 PCOD9324041
Probable space group: C 2 2 2
;
_chemical_formula_sum "Si O2"
_cell_formula_units_Z 48
_cell_length_a 29.101587
_cell_length_b 10.106685
_cell_length_c 8.294992
_cell_angle_alpha 90.000000
_cell_angle_beta 90.000000
_cell_angle_gamma 90.000000
_cell_volume 2439.727798
_symmetry_space_group_name_H-M "C 2 2 2"
_symmetry_group_IT_number 21
_symmetry_cell_setting 'orthorhombic'
loop_
_space_group_symop_operation_xyz
x,y,z
-x,-y,z
x,-y,-z
-x,y,-z
1/2+x,1/2+y,z
1/2-x,1/2-y,z
1/2+x,1/2-y,-z
1/2-x,1/2+y,-z
loop_
_atom_site_type_symbol
_atom_site_label
_atom_site_fract_x
_atom_site_fract_y
_atom_site_fract_z
Si Si1 0.618089 0.000000 0.000000
Si Si2 0.591087 0.000000 0.500000
Si Si3 0.539639 0.580693 0.827971
Si Si4 0.538305 0.114487 0.206875
Si Si5 0.136226 0.023707 0.191154
Si Si6 0.250000 0.250000 0.403386
Si Si7 0.151221 0.317709 0.265409
Si Si8 0.702064 0.500000 0.500000
O O1 0.582924 0.091924 0.096948
O O2 0.648715 0.914070 0.115398
O O3 0.557983 0.915636 0.616068
O O4 0.623226 0.896248 0.403573
O O5 0.500000 0.500000 0.736738
O O6 0.524492 0.733954 0.825982
O O7 0.591422 0.563585 0.767436
O O8 0.543473 0.500000 0.000000
O O9 0.500000 0.000000 0.176846
O O10 0.126717 0.180255 0.215983
O O11 0.172733 0.997633 0.334372
O O12 0.148949 0.000000 0.000000
O O13 0.204007 0.288282 0.306888
O O14 0.265771 0.373485 0.506058
#
# Coordination Sequence:
#
# PCOD9324041 Si02
#       8
#     4   4   8   8   8   4   8   4
#     4  10  21  38  68  94 130 176 220 270 345 400
#     4  10  24  42  68  91 140 179 232 278 350 414
#     4  10  23  38  63  96 134 172 224 277 336 401
#     4  11  24  39  66  97 135 180 230 280 330 405
#     4  10  22  43  67  98 137 178 230 276 352 413
#     4  10  22  44  66 100 132 170 232 278 350 416
#     4  10  22  43  69  96 134 175 227 287 346 427
#     4  10  23  44  71  93 138 181 215 294 347 412
#
# _framework density 19.674325
#
# number of rings (size 3 to 8) (size 9 to 14) (size 15 to 20)
#    0.000    1.833    0.000    3.000   14.000    0.000 
#    9.000    1.250    0.000    0.000    0.000    0.000 
#    0.000    0.000    0.000    0.000    0.000    0.000 
#
# Total GULP energy -133700.337811 kJ/mol
# GULP energy per Si atom -5570.847409 kJ/mol
# Density = 1.962955 g / cm^3
# Si number density = 19.674325 Si / 1000 Ang^3
#
#
#
# Elastic Constant Matrix: (Units=GPa)
#
#
# Indices 1 2 3 4 5 6 
#
# 1 75.9469 57.4547 25.9454 0.0000 0.0000 0.0000
# 2 57.4547 181.9827 53.6134 0.0000 0.0000 0.0000
# 3 25.9454 53.6134 97.1127 0.0000 0.0000 0.0000
# 4 0.0000 0.0000 0.0000 92.0887 0.0000 0.0000
# 5 0.0000 0.0000 0.0000 0.0000 0.9764 0.0000
# 6 0.0000 0.0000 0.0000 0.0000 0.0000 32.0684
#
#
#
# Elastic Compliance Matrix: (Units=1/GPa)
#
#
# Indices 1 2 3 4 5 6 
#
# 1 0.017603 -0.004982 -0.001952 0.000000 0.000000 0.000000
# 2 -0.004982 0.007973 -0.003070 0.000000 0.000000 0.000000
# 3 -0.001952 -0.003070 0.012514 0.000000 0.000000 0.000000
# 4 0.000000 0.000000 0.000000 0.010859 0.000000 0.000000
# 5 0.000000 0.000000 0.000000 0.000000 1.024199 0.000000
# 6 0.000000 0.000000 0.000000 0.000000 0.000000 0.031183
#
#
# Mechanical properties :
#
#
# Convention : Reuss Voigt Hill
#
# Bulk Modulus (GPa) = 55.31080 69.89657 62.60369
# Shear Modulus (GPa) = 4.42334 39.56196 21.99265
#
# Velocity S-wave (km/s) = 1.50105 4.48911 3.34703
# Velocity P-wave (km/s) = 5.58377 7.90401 6.84294
#
# Compressibility (1/GPa) = 0.01807965
#
# Stress axis : x y z
#
# Youngs Moduli (GPa) = 56.80733 125.42947 79.91072
#
# Poissons Ratio (x) = 0.62495 0.15601
# Poissons Ratio (y) = 0.28304 0.24535
# Poissons Ratio (z) = 0.11091 0.38511
#
# Static dielectric constant tensor:
#      x y z
#    x 1.667150 0.000000 0.000000 
#    y 0.000000 1.715750 0.000000 
#    z 0.000000 0.000000 1.751160 
# 
# From -- ./inp_files/19730.got.cif
#   From: 2010.05.17/outbox.cif.g08.bks.cpg/sg21_10_cif.got.tgz:19730.got - 2010.06.03 23:14:55.
