data_PCOD9324583
_publ_section_title
;
Structure prediction by ZEFSAII (Michael W. Deem and Ramdas Pophale) SiO2 
 PCOD9324583
Probable space group: C 2 2 2
;
_chemical_formula_sum "Si O2"
_cell_formula_units_Z 30
_cell_length_a 12.974547
_cell_length_b 8.898837
_cell_length_c 13.177635
_cell_angle_alpha 90.000000
_cell_angle_beta 90.000000
_cell_angle_gamma 90.000000
_cell_volume 1521.468375
_symmetry_space_group_name_H-M "C 2 2 2"
_symmetry_group_IT_number 21
_symmetry_cell_setting 'orthorhombic'
loop_
_space_group_symop_operation_xyz
x,y,z
-x,-y,z
x,-y,-z
-x,y,-z
1/2+x,1/2+y,z
1/2-x,1/2-y,z
1/2+x,1/2-y,-z
1/2-x,1/2+y,-z
loop_
_atom_site_type_symbol
_atom_site_label
_atom_site_fract_x
_atom_site_fract_y
_atom_site_fract_z
Si Si1 0.176182 0.000000 0.000000
Si Si2 0.303986 0.408539 0.402947
Si Si3 0.500000 0.500000 0.500000
Si Si4 0.724921 0.073004 0.210469
Si Si5 0.000000 0.249157 0.000000
Si Si6 0.000000 0.500000 0.171204
O O1 0.244827 0.004720 0.899022
O O2 0.100403 0.856458 0.004769
O O3 0.259472 0.500000 0.500000
O O4 0.250000 0.250000 0.393669
O O5 0.424482 0.400058 0.431711
O O6 0.290522 0.500121 0.300109
O O7 0.750000 0.250000 0.207367
O O8 0.605564 0.031440 0.230473
O O9 0.009533 0.355744 0.097473
#
# Coordination Sequence:
#
# PCOD9324583 Si02
#       6
#     4   8   2   8   4   4
#     4  11  24  41  66  98 144 191 234 285 350 410
#     4  10  24  49  74 101 135 180 230 292 350 417
#     4   8  24  48  78 100 144 168 234 288 350 426
#     4  12  26  43  69 101 147 184 236 292 348 418
#     4  10  22  42  64  94 138 196 240 278 344 416
#     4  11  24  40  63 100 140 186 239 283 342 414
#
# _framework density 19.717794999999999
#
# number of rings (size 3 to 8) (size 9 to 14) (size 15 to 20)
#    0.800    0.533    2.667    2.400    3.733    4.267 
#    0.000    0.000    0.000    0.000    0.000    0.000 
#    0.000    0.000    0.000    0.000    0.000    0.000 
#
# Total GULP energy -83762.479968 kJ/mol
# GULP energy per Si atom -5584.165331 kJ/mol
# Density = 1.967292 g / cm^3
# Si number density = 19.717795 Si / 1000 Ang^3
#
#
#
# Elastic Constant Matrix: (Units=GPa)
#
#
# Indices 1 2 3 4 5 6 
#
# 1 140.6658 37.1382 32.4088 0.0000 0.0000 0.0000
# 2 37.1382 112.7412 33.9307 0.0000 0.0000 0.0000
# 3 32.4088 33.9307 122.3282 0.0000 0.0000 0.0000
# 4 0.0000 0.0000 0.0000 16.4243 0.0000 0.0000
# 5 0.0000 0.0000 0.0000 0.0000 -418.1446 0.0000
# 6 0.0000 0.0000 0.0000 0.0000 0.0000 9.9871
#
#
#
# Elastic Compliance Matrix: (Units=1/GPa)
#
#
# Indices 1 2 3 4 5 6 
#
# 1 0.008038 -0.002190 -0.001522 0.000000 0.000000 0.000000
# 2 -0.002190 0.010274 -0.002270 0.000000 0.000000 0.000000
# 3 -0.001522 -0.002270 0.009208 0.000000 0.000000 0.000000
# 4 0.000000 0.000000 0.000000 0.060885 0.000000 0.000000
# 5 0.000000 0.000000 0.000000 0.000000 -0.002392 0.000000
# 6 0.000000 0.000000 0.000000 0.000000 0.000000 0.100129
#
#
# Mechanical properties :
#
#
# Convention : Reuss Voigt Hill
#
# Bulk Modulus (GPa) = 64.28113 64.74342 64.51228
# Shear Modulus (GPa) = 24.59529 -60.19614 -17.80042
#
# Velocity S-wave (km/s) = 3.53564 -5.53128 -3.00785
# Velocity P-wave (km/s) = 7.02417 2.80841 4.55257
#
# Compressibility (1/GPa) = 0.01555666
#
# Stress axis : x y z
#
# Youngs Moduli (GPa) = 124.41145 97.33066 108.60650
#
# Poissons Ratio (x) = 0.21312 0.16531
# Poissons Ratio (y) = 0.27242 0.24650
# Poissons Ratio (z) = 0.18937 0.22091
#
# Static dielectric constant tensor:
#      x y z
#    x 1.719550 0.000000 0.000000 
#    y 0.000000 1.667420 0.000000 
#    z 0.000000 0.000000 1.672560 
# 
# From -- ./inp_files/24751.got.cif
#   From: 2010.05.17/outbox.cif.g08.bks.cpg/sg21_13_cif.got.tgz:24751.got - 2010.06.03 23:14:55.
