data_PCOD9324229
_publ_section_title
;
Structure prediction by ZEFSAII (Michael W. Deem and Ramdas Pophale) SiO2 
 PCOD9324229
Probable space group: C 2 2 2
;
_chemical_formula_sum "Si O2"
_cell_formula_units_Z 40
_cell_length_a 10.140086
_cell_length_b 20.118728
_cell_length_c 8.699795
_cell_angle_alpha 90.000000
_cell_angle_beta 90.000000
_cell_angle_gamma 90.000000
_cell_volume 1774.807178
_symmetry_space_group_name_H-M "C 2 2 2"
_symmetry_group_IT_number 21
_symmetry_cell_setting 'orthorhombic'
loop_
_space_group_symop_operation_xyz
x,y,z
-x,-y,z
x,-y,-z
-x,y,-z
1/2+x,1/2+y,z
1/2-x,1/2-y,z
1/2+x,1/2-y,-z
1/2-x,1/2+y,-z
loop_
_atom_site_type_symbol
_atom_site_label
_atom_site_fract_x
_atom_site_fract_y
_atom_site_fract_z
Si Si1 0.399997 0.724844 0.358191
Si Si2 0.178930 0.575118 0.945668
Si Si3 0.549859 0.855808 0.774702
Si Si4 0.727026 0.404366 0.395841
Si Si5 0.137669 0.038711 0.289125
O O1 0.500000 0.727021 0.500000
O O2 0.250000 0.750000 0.396419
O O3 0.458708 0.776289 0.234543
O O4 0.371986 0.648246 0.315827
O O5 0.322932 0.572447 0.869967
O O6 0.081040 0.603461 0.813771
O O7 0.147526 0.500000 0.000000
O O8 0.149145 0.623033 0.088052
O O9 0.625313 0.876655 0.619179
O O10 0.733865 0.475789 0.315797
O O11 0.667323 0.414875 0.565306
O O12 0.000000 0.000000 0.295546
#
# Coordination Sequence:
#
# PCOD9324229 Si02
#       5
#     8   8   8   8   8
#     4  10  22  40  69  95 139 177 229 288 350 417
#     4  11  23  42  67  97 142 176 227 295 336 413
#     4  10  22  40  67  96 133 184 225 283 352 402
#     4  10  21  41  68  98 134 176 225 288 348 405
#     4  11  23  39  69 101 134 179 226 281 348 416
#
# _framework density 22.537659000000001
#
# number of rings (size 3 to 8) (size 9 to 14) (size 15 to 20)
#    0.000    1.600    2.000    3.600    5.600    0.400 
#    0.000    2.000   52.800    0.000    0.000    0.000 
#    0.000    0.000    0.000    0.000    0.000    0.000 
#
# Total GULP energy -111484.874657 kJ/mol
# GULP energy per Si atom -5574.243733 kJ/mol
# Density = 2.248636 g / cm^3
# Si number density = 22.537659 Si / 1000 Ang^3
#
#
#
# Elastic Constant Matrix: (Units=GPa)
#
#
# Indices 1 2 3 4 5 6 
#
# 1 78.8794 1.2023 37.4180 0.0000 0.0000 0.0000
# 2 1.2023 124.9214 34.6094 0.0000 0.0000 0.0000
# 3 37.4180 34.6094 64.7325 0.0000 0.0000 0.0000
# 4 0.0000 0.0000 0.0000 28.7121 0.0000 0.0000
# 5 0.0000 0.0000 0.0000 0.0000 35.3788 0.0000
# 6 0.0000 0.0000 0.0000 0.0000 0.0000 19.8950
#
#
#
# Elastic Compliance Matrix: (Units=1/GPa)
#
#
# Indices 1 2 3 4 5 6 
#
# 1 0.018543 0.003276 -0.012471 0.000000 0.000000 0.000000
# 2 0.003276 0.009976 -0.007228 0.000000 0.000000 0.000000
# 3 -0.012471 -0.007228 0.026521 0.000000 0.000000 0.000000
# 4 0.000000 0.000000 0.000000 0.034829 0.000000 0.000000
# 5 0.000000 0.000000 0.000000 0.000000 0.028266 0.000000
# 6 0.000000 0.000000 0.000000 0.000000 0.000000 0.050264
#
#
# Mechanical properties :
#
#
# Convention : Reuss Voigt Hill
#
# Bulk Modulus (GPa) = 45.05152 46.11031 45.58092
# Shear Modulus (GPa) = 23.96469 29.81742 26.89105
#
# Velocity S-wave (km/s) = 3.26439 3.64126 3.45796
# Velocity P-wave (km/s) = 5.85160 6.17916 6.01761
#
# Compressibility (1/GPa) = 0.02219681
#
# Stress axis : x y z
#
# Youngs Moduli (GPa) = 53.92784 100.24161 37.70603
#
# Poissons Ratio (x) = -0.32844 0.47022
# Poissons Ratio (y) = -0.17669 0.27252
# Poissons Ratio (z) = 0.67251 0.72451
#
# Static dielectric constant tensor:
#      x y z
#    x 1.900260 0.000000 0.000000 
#    y 0.000000 1.892930 0.000000 
#    z 0.000000 0.000000 1.879960 
# 
# From -- ./inp_files/13043.got.cif
#   From: 2010.05.17/outbox.cif.g08.bks.cpg/sg21_7_cif.got.tgz:13043.got - 2010.06.03 23:14:55.
