data_PCOD9324959
_publ_section_title
;
Structure prediction by ZEFSAII (Michael W. Deem and Ramdas Pophale) SiO2 
 PCOD9324959
Probable space group: C 2 2 2
;
_chemical_formula_sum "Si O2"
_cell_formula_units_Z 38
_cell_length_a 14.618084
_cell_length_b 5.778326
_cell_length_c 19.497990
_cell_angle_alpha 90.000000
_cell_angle_beta 90.000000
_cell_angle_gamma 90.000000
_cell_volume 1646.957289
_symmetry_space_group_name_H-M "C 2 2 2"
_symmetry_group_IT_number 21
_symmetry_cell_setting 'orthorhombic'
loop_
_space_group_symop_operation_xyz
x,y,z
-x,-y,z
x,-y,-z
-x,y,-z
1/2+x,1/2+y,z
1/2-x,1/2-y,z
1/2+x,1/2-y,-z
1/2-x,1/2+y,-z
loop_
_atom_site_type_symbol
_atom_site_label
_atom_site_fract_x
_atom_site_fract_y
_atom_site_fract_z
Si Si1 0.907433 0.639442 0.176143
Si Si2 0.100480 0.385874 0.432528
Si Si3 0.144027 0.749676 0.974511
Si Si4 0.500000 0.500000 0.274438
Si Si5 0.653212 0.135254 0.302401
Si Si6 0.000000 0.000000 0.500000
O O1 0.862101 0.732495 0.107550
O O2 0.851700 0.468504 0.225841
O O3 0.000000 0.500000 0.157452
O O4 0.935443 0.849206 0.225292
O O5 0.147297 0.500000 0.500000
O O6 0.144738 0.437765 0.360303
O O7 0.000000 0.500000 0.429390
O O8 0.071508 0.129813 0.450956
O O9 0.250000 0.750000 0.997817
O O10 0.105679 0.500000 0.000000
O O11 0.106067 0.000000 0.000000
O O12 0.567676 0.314520 0.310570
O O13 0.750000 0.250000 0.313205
#
# Coordination Sequence:
#
# PCOD9324959 Si02
#       6
#     8   8   8   4   8   2
#     4  10  24  43  66 100 136 184 236 293 360 431
#     4   9  19  38  70 101 133 182 229 285 356 415
#     4  10  24  43  70 102 140 186 237 297 365 440
#     4  10  24  45  67 103 141 178 234 308 343 444
#     4  11  25  42  72 103 140 189 239 296 367 436
#     4   8  18  38  76  98 138 188 226 308 342 438
#
# _framework density 23.072851
#
# number of rings (size 3 to 8) (size 9 to 14) (size 15 to 20)
#    0.000    2.316    0.000    1.895    8.842    8.842 
#    0.000    0.000   27.789    0.000    0.000    0.000 
#    0.000    0.000    0.000    0.000    0.000    0.000 
#
# Total GULP energy -106049.978668 kJ/mol
# GULP energy per Si atom -5581.577825 kJ/mol
# Density = 2.302034 g / cm^3
# Si number density = 23.072851 Si / 1000 Ang^3
#
#
#
# Elastic Constant Matrix: (Units=GPa)
#
#
# Indices 1 2 3 4 5 6 
#
# 1 60.4567 27.0303 35.6375 0.0000 0.0000 0.0000
# 2 27.0303 145.3291 65.3329 0.0000 0.0000 0.0000
# 3 35.6375 65.3329 141.4442 0.0000 0.0000 0.0000
# 4 0.0000 0.0000 0.0000 34.9321 0.0000 0.0000
# 5 0.0000 0.0000 0.0000 0.0000 -18.7376 0.0000
# 6 0.0000 0.0000 0.0000 0.0000 0.0000 8.0733
#
#
#
# Elastic Compliance Matrix: (Units=1/GPa)
#
#
# Indices 1 2 3 4 5 6 
#
# 1 0.019799 -0.001817 -0.004149 0.000000 0.000000 0.000000
# 2 -0.001817 0.008851 -0.003630 0.000000 0.000000 0.000000
# 3 -0.004149 -0.003630 0.009792 0.000000 0.000000 0.000000
# 4 0.000000 0.000000 0.000000 0.028627 0.000000 0.000000
# 5 0.000000 0.000000 0.000000 0.000000 -0.053369 0.000000
# 6 0.000000 0.000000 0.000000 0.000000 0.000000 0.123864
#
#
# Mechanical properties :
#
#
# Convention : Reuss Voigt Hill
#
# Bulk Modulus (GPa) = 51.95147 67.02571 59.48859
# Shear Modulus (GPa) = 30.64202 19.46885 25.05543
#
# Velocity S-wave (km/s) = 3.64820 2.90797 3.29892
# Velocity P-wave (km/s) = 6.34909 6.35513 6.35212
#
# Compressibility (1/GPa) = 0.01924873
#
# Stress axis : x y z
#
# Youngs Moduli (GPa) = 50.50757 112.98177 102.12233
#
# Poissons Ratio (x) = 0.20532 0.42371
# Poissons Ratio (y) = 0.09179 0.37074
# Poissons Ratio (z) = 0.20956 0.41017
#
# Static dielectric constant tensor:
#      x y z
#    x 1.829680 0.000000 0.000000 
#    y 0.000000 2.496540 0.000000 
#    z 0.000000 0.000000 1.856390 
# 
# From -- ./inp_files/36823.got.cif
#   From: 2010.05.17/outbox.cif.g08.bks.cpg/sg21_19_cif.got.tgz:36823.got - 2010.06.03 23:14:55.
