data_PCOD9324225
_publ_section_title
;
Structure prediction by ZEFSAII (Michael W. Deem and Ramdas Pophale) SiO2 
 PCOD9324225
Probable space group: C 2 2 2
;
_chemical_formula_sum "Si O2"
_cell_formula_units_Z 40
_cell_length_a 8.185977
_cell_length_b 27.135189
_cell_length_c 8.186670
_cell_angle_alpha 90.000000
_cell_angle_beta 90.000000
_cell_angle_gamma 90.000000
_cell_volume 1818.488904
_symmetry_space_group_name_H-M "C 2 2 2"
_symmetry_group_IT_number 21
_symmetry_cell_setting 'orthorhombic'
loop_
_space_group_symop_operation_xyz
x,y,z
-x,-y,z
x,-y,-z
-x,y,-z
1/2+x,1/2+y,z
1/2-x,1/2-y,z
1/2+x,1/2-y,-z
1/2-x,1/2+y,-z
loop_
_atom_site_type_symbol
_atom_site_label
_atom_site_fract_x
_atom_site_fract_y
_atom_site_fract_z
Si Si1 0.217424 0.692931 0.220202
Si Si2 0.050549 0.890634 0.311018
Si Si3 0.308856 0.513802 0.187280
Si Si4 0.802998 0.416985 0.720218
Si Si5 0.500000 0.130354 0.000000
Si Si6 0.000000 0.651701 0.500000
O O1 0.250000 0.750000 0.193571
O O2 0.376408 0.663101 0.281034
O O3 0.079021 0.684451 0.358684
O O4 0.144630 0.665498 0.062769
O O5 0.184545 0.929650 0.242833
O O6 0.000000 0.900352 0.500000
O O7 0.876843 0.899186 0.222265
O O8 0.500000 0.500000 0.204497
O O9 0.210980 0.475588 0.299804
O O10 0.263641 0.500000 0.000000
O O11 0.859732 0.384379 0.568236
O O12 0.934074 0.403819 0.856846
#
# Coordination Sequence:
#
# PCOD9324225 Si02
#       6
#     8   8   8   8   4   4
#     4  11  25  43  67  95 133 176 225 277 340 391
#     4  11  22  41  69 101 128 175 227 277 322 403
#     4   9  19  36  63  93 125 167 213 263 319 389
#     4  10  21  41  68  92 136 170 215 272 328 402
#     4  10  24  44  65 102 136 172 223 280 332 406
#     4  10  22  42  61  98 132 170 219 270 340 396
#
# _framework density 21.996285
#
# number of rings (size 3 to 8) (size 9 to 14) (size 15 to 20)
#    0.000    1.800    2.000    1.200    1.400    7.600 
#    0.000   14.500    0.000    0.000    0.000    0.000 
#    0.000    0.000    0.000    0.000    0.000    0.000 
#
# Total GULP energy -111750.007302 kJ/mol
# GULP energy per Si atom -5587.500365 kJ/mol
# Density = 2.194622 g / cm^3
# Si number density = 21.996285 Si / 1000 Ang^3
#
#
#
# Elastic Constant Matrix: (Units=GPa)
#
#
# Indices 1 2 3 4 5 6 
#
# 1 76.1955 37.9827 2.3428 0.0000 0.0000 0.0000
# 2 37.9827 145.0563 13.5130 0.0000 0.0000 0.0000
# 3 2.3428 13.5130 46.6439 0.0000 0.0000 0.0000
# 4 0.0000 0.0000 0.0000 19.1011 0.0000 0.0000
# 5 0.0000 0.0000 0.0000 0.0000 24.2411 0.0000
# 6 0.0000 0.0000 0.0000 0.0000 0.0000 32.9669
#
#
#
# Elastic Compliance Matrix: (Units=1/GPa)
#
#
# Indices 1 2 3 4 5 6 
#
# 1 0.015102 -0.003991 0.000398 0.000000 0.000000 0.000000
# 2 -0.003991 0.008140 -0.002158 0.000000 0.000000 0.000000
# 3 0.000398 -0.002158 0.022044 0.000000 0.000000 0.000000
# 4 0.000000 0.000000 0.000000 0.052353 0.000000 0.000000
# 5 0.000000 0.000000 0.000000 0.000000 0.041252 0.000000
# 6 0.000000 0.000000 0.000000 0.000000 0.000000 0.030333
#
#
# Mechanical properties :
#
#
# Convention : Reuss Voigt Hill
#
# Bulk Modulus (GPa) = 29.60055 41.73030 35.66542
# Shear Modulus (GPa) = 26.04327 29.53230 27.78778
#
# Velocity S-wave (km/s) = 3.44464 3.66813 3.55814
# Velocity P-wave (km/s) = 5.41360 6.07889 5.75587
#
# Compressibility (1/GPa) = 0.03378315
#
# Stress axis : x y z
#
# Youngs Moduli (GPa) = 66.21837 122.84991 45.36345
#
# Poissons Ratio (x) = 0.49034 -0.01805
# Poissons Ratio (y) = 0.26430 0.09788
# Poissons Ratio (z) = -0.02634 0.26508
#
# Static dielectric constant tensor:
#      x y z
#    x 1.826360 0.000000 0.000000 
#    y 0.000000 1.781150 0.000000 
#    z 0.000000 0.000000 1.875330 
# 
# From -- ./inp_files/11009.got.cif
#   From: 2010.05.17/outbox.cif.g08.bks.cpg/sg21_6_cif.got.tgz:11009.got - 2010.06.03 23:14:55.
