data_PCOD9324126
_publ_section_title
;
Structure prediction by ZEFSAII (Michael W. Deem and Ramdas Pophale) SiO2 
 PCOD9324126
Probable space group: C 2 2 2
;
_chemical_formula_sum "Si O2"
_cell_formula_units_Z 36
_cell_length_a 11.957079
_cell_length_b 17.266551
_cell_length_c 8.340206
_cell_angle_alpha 90.000000
_cell_angle_beta 90.000000
_cell_angle_gamma 90.000000
_cell_volume 1721.898200
_symmetry_space_group_name_H-M "C 2 2 2"
_symmetry_group_IT_number 21
_symmetry_cell_setting 'orthorhombic'
loop_
_space_group_symop_operation_xyz
x,y,z
-x,-y,z
x,-y,-z
-x,y,-z
1/2+x,1/2+y,z
1/2-x,1/2-y,z
1/2+x,1/2-y,-z
1/2-x,1/2+y,-z
loop_
_atom_site_type_symbol
_atom_site_label
_atom_site_fract_x
_atom_site_fract_y
_atom_site_fract_z
Si Si1 0.500000 0.206002 0.000000
Si Si2 0.000000 0.000000 0.234305
Si Si3 0.500000 0.877453 0.500000
Si Si4 0.401357 0.935925 0.809187
Si Si5 0.000000 0.118872 0.500000
Si Si6 0.192219 0.000000 0.000000
Si Si7 0.120254 0.244880 0.697739
O O1 0.424618 0.145305 0.100374
O O2 0.561327 0.258153 0.130234
O O3 0.044508 0.065721 0.355458
O O4 0.899555 0.034452 0.125483
O O5 0.417248 0.922556 0.619392
O O6 0.574402 0.822591 0.613201
O O7 0.500000 0.000000 0.840738
O O8 0.281652 0.960921 0.878490
O O9 0.909628 0.174877 0.419709
O O10 0.250000 0.250000 0.723739
#
# Coordination Sequence:
#
# PCOD9324126 Si02
#       7
#     4   4   4   8   4   4   8
#     4  10  21  40  60  99 128 164 224 272 338 391
#     4  10  26  44  68  96 132 184 222 280 324 406
#     4   9  23  39  61 101 131 162 224 270 343 389
#     4  11  20  40  64  99 133 167 214 279 332 399
#     4  10  24  49  61  96 136 166 240 266 324 400
#     4  11  23  40  66 100 131 177 220 270 338 391
#     4  10  23  42  67  92 127 176 215 276 332 404
#
# _framework density 20.907159
#
# number of rings (size 3 to 8) (size 9 to 14) (size 15 to 20)
#    0.000    1.778    2.222    0.333    6.222    1.778 
#    4.000    2.222    0.000    0.000    0.000    0.000 
#    0.000    0.000    0.000    0.000    0.000    0.000 
#
# Total GULP energy -100242.893057 kJ/mol
# GULP energy per Si atom -5569.049614 kJ/mol
# Density = 2.085957 g / cm^3
# Si number density = 20.907159 Si / 1000 Ang^3
#
#
#
# Elastic Constant Matrix: (Units=GPa)
#
#
# Indices 1 2 3 4 5 6 
#
# 1 139.2339 30.4605 71.3574 0.0000 0.0000 0.0000
# 2 30.4605 60.1028 42.4683 0.0000 0.0000 0.0000
# 3 71.3574 42.4683 179.4061 0.0000 0.0000 0.0000
# 4 0.0000 0.0000 0.0000 10.9265 0.0000 0.0000
# 5 0.0000 0.0000 0.0000 0.0000 19.5034 0.0000
# 6 0.0000 0.0000 0.0000 0.0000 0.0000 -6.0884
#
#
#
# Elastic Compliance Matrix: (Units=1/GPa)
#
#
# Indices 1 2 3 4 5 6 
#
# 1 0.009331 -0.002530 -0.003112 0.000000 0.000000 0.000000
# 2 -0.002530 0.020666 -0.003886 0.000000 0.000000 0.000000
# 3 -0.003112 -0.003886 0.007732 0.000000 0.000000 0.000000
# 4 0.000000 0.000000 0.000000 0.091520 0.000000 0.000000
# 5 0.000000 0.000000 0.000000 0.000000 0.051273 0.000000
# 6 0.000000 0.000000 0.000000 0.000000 0.000000 -0.164247
#
#
# Mechanical properties :
#
#
# Convention : Reuss Voigt Hill
#
# Bulk Modulus (GPa) = 53.55448 74.14614 63.85031
# Shear Modulus (GPa) = 120.32414 20.49874 70.41144
#
# Velocity S-wave (km/s) = 7.59451 3.13464 5.80958
# Velocity P-wave (km/s) = 10.12784 6.97443 8.69528
#
# Compressibility (1/GPa) = 0.01867258
#
# Stress axis : x y z
#
# Youngs Moduli (GPa) = 107.17330 48.38896 129.33745
#
# Poissons Ratio (x) = 0.12241 0.40255
# Poissons Ratio (y) = 0.27111 0.50258
# Poissons Ratio (z) = 0.33357 0.18803
#
# Static dielectric constant tensor:
#      x y z
#    x 1.717120 0.000000 0.000000 
#    y 0.000000 1.798460 0.000000 
#    z 0.000000 0.000000 1.778010 
# 
# From -- ./inp_files/12997.got.cif
#   From: 2010.05.17/outbox.cif.g08.bks.cpg/sg21_7_cif.got.tgz:12997.got - 2010.06.03 23:14:55.
