data_PCOD9324506
_publ_section_title
;
Structure prediction by ZEFSAII (Michael W. Deem and Ramdas Pophale) SiO2 
 PCOD9324506
Probable space group: C 2 2 2
;
_chemical_formula_sum "Si O2"
_cell_formula_units_Z 40
_cell_length_a 17.732606
_cell_length_b 18.425985
_cell_length_c 5.726751
_cell_angle_alpha 90.000000
_cell_angle_beta 90.000000
_cell_angle_gamma 90.000000
_cell_volume 1871.162815
_symmetry_space_group_name_H-M "C 2 2 2"
_symmetry_group_IT_number 21
_symmetry_cell_setting 'orthorhombic'
loop_
_space_group_symop_operation_xyz
x,y,z
-x,-y,z
x,-y,-z
-x,y,-z
1/2+x,1/2+y,z
1/2-x,1/2-y,z
1/2+x,1/2-y,-z
1/2-x,1/2+y,-z
loop_
_atom_site_type_symbol
_atom_site_label
_atom_site_fract_x
_atom_site_fract_y
_atom_site_fract_z
Si Si1 0.190223 0.919203 0.913602
Si Si2 0.581638 0.159705 0.571573
Si Si3 0.198959 0.310846 0.805231
Si Si4 0.663675 0.962077 0.255857
Si Si5 0.083861 0.787684 0.886667
O O1 0.249853 0.935714 0.708108
O O2 0.119779 0.867360 0.861726
O O3 0.244470 0.870187 0.083625
O O4 0.168174 0.000000 0.000000
O O5 0.500000 0.134979 0.500000
O O6 0.641623 0.151961 0.367968
O O7 0.610719 0.107674 0.774188
O O8 0.577779 0.243263 0.647039
O O9 0.250000 0.250000 0.677405
O O10 0.146299 0.260834 0.973533
O O11 0.640127 0.000000 0.500000
O O12 0.662082 0.000000 0.000000
O O13 0.000000 0.787738 0.000000
#
# Coordination Sequence:
#
# PCOD9324506 Si02
#       5
#     8   8   8   8   8
#     4  10  22  44  69  98 131 183 228 289 348 414
#     4  12  24  40  65  98 135 181 228 290 347 416
#     4  10  22  40  67  95 131 176 231 288 340 411
#     4  11  25  45  69 103 140 184 235 284 346 418
#     4  11  23  42  65  97 136 176 234 285 350 412
#
# _framework density 21.377082000000001
#
# number of rings (size 3 to 8) (size 9 to 14) (size 15 to 20)
#    0.000    1.200    4.000    2.400    2.800    0.800 
#    0.000    4.000    0.000    0.600    0.000    0.000 
#    0.000    0.000    0.000    0.000    0.000    0.000 
#
# Total GULP energy -111438.462979 kJ/mol
# GULP energy per Si atom -5571.923149 kJ/mol
# Density = 2.132843 g / cm^3
# Si number density = 21.377082 Si / 1000 Ang^3
#
#
#
# Elastic Constant Matrix: (Units=GPa)
#
#
# Indices 1 2 3 4 5 6 
#
# 1 77.9285 46.1272 18.9201 0.0000 0.0000 0.0000
# 2 46.1272 160.9909 29.6223 0.0000 0.0000 0.0000
# 3 18.9201 29.6223 55.6402 0.0000 0.0000 0.0000
# 4 0.0000 0.0000 0.0000 -22.8680 0.0000 0.0000
# 5 0.0000 0.0000 0.0000 0.0000 25.4481 0.0000
# 6 0.0000 0.0000 0.0000 0.0000 0.0000 26.8702
#
#
#
# Elastic Compliance Matrix: (Units=1/GPa)
#
#
# Indices 1 2 3 4 5 6 
#
# 1 0.015989 -0.003970 -0.003324 0.000000 0.000000 0.000000
# 2 -0.003970 0.007872 -0.002841 0.000000 0.000000 0.000000
# 3 -0.003324 -0.002841 0.020615 0.000000 0.000000 0.000000
# 4 0.000000 0.000000 0.000000 -0.043729 0.000000 0.000000
# 5 0.000000 0.000000 0.000000 0.000000 0.039296 0.000000
# 6 0.000000 0.000000 0.000000 0.000000 0.000000 0.037216
#
#
# Mechanical properties :
#
#
# Convention : Reuss Voigt Hill
#
# Bulk Modulus (GPa) = 41.30936 53.76654 47.53795
# Shear Modulus (GPa) = 47.35058 19.21608 33.28333
#
# Velocity S-wave (km/s) = 4.71150 3.00144 3.95012
# Velocity P-wave (km/s) = 6.99741 6.10062 6.56435
#
# Compressibility (1/GPa) = 0.02420759
#
# Stress axis : x y z
#
# Youngs Moduli (GPa) = 62.54355 127.03833 48.50783
#
# Poissons Ratio (x) = 0.50429 0.16122
# Poissons Ratio (y) = 0.24827 0.13781
# Poissons Ratio (z) = 0.20786 0.36091
#
# Static dielectric constant tensor:
#      x y z
#    x 1.788630 0.000000 0.000000 
#    y 0.000000 1.865480 0.000000 
#    z 0.000000 0.000000 1.825580 
# 
# From -- ./inp_files/4811.got.cif
#   From: 2010.05.17/outbox.cif.g08.bks.cpg/sg21_3_cif.got.tgz:4811.got - 2010.06.03 23:14:55.
