data_PCOD9324577
_publ_section_title
;
Structure prediction by ZEFSAII (Michael W. Deem and Ramdas Pophale) SiO2 
 PCOD9324577
Probable space group: C 2 2 2
;
_chemical_formula_sum "Si O2"
_cell_formula_units_Z 48
_cell_length_a 16.768859
_cell_length_b 23.974183
_cell_length_c 5.272343
_cell_angle_alpha 90.000000
_cell_angle_beta 90.000000
_cell_angle_gamma 90.000000
_cell_volume 2119.585721
_symmetry_space_group_name_H-M "C 2 2 2"
_symmetry_group_IT_number 21
_symmetry_cell_setting 'orthorhombic'
loop_
_space_group_symop_operation_xyz
x,y,z
-x,-y,z
x,-y,-z
-x,y,-z
1/2+x,1/2+y,z
1/2-x,1/2-y,z
1/2+x,1/2-y,-z
1/2-x,1/2+y,-z
loop_
_atom_site_type_symbol
_atom_site_label
_atom_site_fract_x
_atom_site_fract_y
_atom_site_fract_z
Si Si1 0.407114 0.715536 0.071484
Si Si2 0.201185 0.605859 0.659925
Si Si3 0.034906 0.562926 0.748153
Si Si4 0.840149 0.731341 0.439674
Si Si5 0.305265 0.395901 0.839515
Si Si6 0.534699 0.561997 0.749215
O O1 0.392844 0.757464 0.309456
O O2 0.359489 0.660158 0.164098
O O3 0.500000 0.710493 0.000000
O O4 0.366311 0.734226 0.807931
O O5 0.129613 0.563696 0.723727
O O6 0.163266 0.667514 0.651427
O O7 0.240865 0.600439 0.383850
O O8 0.265388 0.600720 0.885251
O O9 0.000000 0.500000 0.749485
O O10 0.000000 0.591686 0.500000
O O11 0.000000 0.590357 0.000000
O O12 0.750000 0.750000 0.508553
O O13 0.371215 0.442012 0.774378
O O14 0.500000 0.500000 0.744989
O O15 0.500000 0.591224 0.500000
O O16 0.500000 0.589517 0.000000
#
# Coordination Sequence:
#
# PCOD9324577 Si02
#       6
#     8   8   8   8   8   8
#     4  12  25  41  67 101 139 186 224 277 335 400
#     4  12  25  41  73 100 131 184 224 278 350 402
#     4  10  23  47  70  94 133 172 221 293 349 396
#     4  12  23  44  65  97 145 182 228 281 332 399
#     4  12  23  42  67 101 135 176 231 273 335 419
#     4  10  22  42  63  90 131 177 214 279 336 392
#
# _framework density 22.645934
#
# number of rings (size 3 to 8) (size 9 to 14) (size 15 to 20)
#    0.000    0.667    3.333    4.500    0.000    3.333 
#    0.000   20.000    0.000    0.000    0.000    0.000 
#    0.000    0.000    0.000    0.000    0.000    0.000 
#
# Total GULP energy -134145.000393 kJ/mol
# GULP energy per Si atom -5589.375016 kJ/mol
# Density = 2.259439 g / cm^3
# Si number density = 22.645934 Si / 1000 Ang^3
#
#
#
# Elastic Constant Matrix: (Units=GPa)
#
#
# Indices 1 2 3 4 5 6 
#
# 1 116.1236 40.4993 31.3816 0.0000 0.0000 0.0000
# 2 40.4993 59.5737 1.5032 0.0000 0.0000 0.0000
# 3 31.3816 1.5032 187.9932 0.0000 0.0000 0.0000
# 4 0.0000 0.0000 0.0000 -14.1776 0.0000 0.0000
# 5 0.0000 0.0000 0.0000 0.0000 50.6137 0.0000
# 6 0.0000 0.0000 0.0000 0.0000 0.0000 32.6641
#
#
#
# Elastic Compliance Matrix: (Units=1/GPa)
#
#
# Indices 1 2 3 4 5 6 
#
# 1 0.011949 -0.008075 -0.001930 0.000000 0.000000 0.000000
# 2 -0.008075 0.022246 0.001170 0.000000 0.000000 0.000000
# 3 -0.001930 0.001170 0.005632 0.000000 0.000000 0.000000
# 4 0.000000 0.000000 0.000000 -0.070534 0.000000 0.000000
# 5 0.000000 0.000000 0.000000 0.000000 0.019757 0.000000
# 6 0.000000 0.000000 0.000000 0.000000 0.000000 0.030615
#
#
# Mechanical properties :
#
#
# Convention : Reuss Voigt Hill
#
# Bulk Modulus (GPa) = 45.13113 56.71765 50.92439
# Shear Modulus (GPa) = 111.80574 33.17382 72.48978
#
# Velocity S-wave (km/s) = 7.03409 3.83154 5.66388
# Velocity P-wave (km/s) = 9.27057 6.68386 8.08138
#
# Compressibility (1/GPa) = 0.02215765
#
# Stress axis : x y z
#
# Youngs Moduli (GPa) = 83.68753 44.95258 177.55123
#
# Poissons Ratio (x) = 0.36297 0.34269
# Poissons Ratio (y) = 0.67574 -0.20774
# Poissons Ratio (z) = 0.16153 -0.05259
#
# Static dielectric constant tensor:
#      x y z
#    x 1.873590 0.000000 0.000000 
#    y 0.000000 1.866540 0.000000 
#    z 0.000000 0.000000 1.855880 
# 
# From -- ./inp_files/4103.got.cif
#   From: 2010.05.17/outbox.cif.g08.bks.cpg/sg21_3_cif.got.tgz:4103.got - 2010.06.03 23:14:55.
