data_PCOD9324693
_publ_section_title
;
Structure prediction by ZEFSAII (Michael W. Deem and Ramdas Pophale) SiO2 
 PCOD9324693
Probable space group: C 2 2 2
;
_chemical_formula_sum "Si O2"
_cell_formula_units_Z 30
_cell_length_a 11.634226
_cell_length_b 13.444184
_cell_length_c 8.881084
_cell_angle_alpha 90.000000
_cell_angle_beta 90.000000
_cell_angle_gamma 90.000000
_cell_volume 1389.114106
_symmetry_space_group_name_H-M "C 2 2 2"
_symmetry_group_IT_number 21
_symmetry_cell_setting 'orthorhombic'
loop_
_space_group_symop_operation_xyz
x,y,z
-x,-y,z
x,-y,-z
-x,y,-z
1/2+x,1/2+y,z
1/2-x,1/2-y,z
1/2+x,1/2-y,-z
1/2-x,1/2+y,-z
loop_
_atom_site_type_symbol
_atom_site_label
_atom_site_fract_x
_atom_site_fract_y
_atom_site_fract_z
Si Si1 0.500000 0.257499 0.000000
Si Si2 0.000000 0.000000 0.704624
Si Si3 0.307054 0.404898 0.089610
Si Si4 0.902503 0.666672 0.286848
Si Si5 0.500000 0.328264 0.500000
Si Si6 0.000000 0.500000 0.500000
O O1 0.384688 0.325954 0.996390
O O2 0.492164 0.192934 0.152371
O O3 0.097300 0.952308 0.803966
O O4 0.943889 0.908944 0.611667
O O5 0.212501 0.353414 0.193177
O O6 0.257485 0.500000 0.000000
O O7 0.915089 0.758597 0.403996
O O8 0.928855 0.571325 0.388924
#
# Coordination Sequence:
#
# PCOD9324693 Si02
#       6
#     4   4   8   8   4   2
#     4  12  23  45  74 106 140 180 248 304 350 430
#     4  11  21  42  74 105 144 185 234 313 346 431
#     4  12  23  44  73 111 141 185 243 299 368 420
#     4  11  26  46  73 103 146 196 235 299 361 432
#     4  10  22  44  70  98 146 186 238 294 360 426
#     4  10  28  52  64 108 148 192 252 290 352 450
#
# _framework density 21.596498
#
# number of rings (size 3 to 8) (size 9 to 14) (size 15 to 20)
#    0.000    0.800    5.333    0.800    3.733    2.133 
#    0.000    0.000    5.867    0.000    0.000    0.000 
#    0.000    0.000    0.000    0.000    0.000    0.000 
#
# Total GULP energy -83690.011483 kJ/mol
# GULP energy per Si atom -5579.334099 kJ/mol
# Density = 2.154734 g / cm^3
# Si number density = 21.596498 Si / 1000 Ang^3
#
#
#
# Elastic Constant Matrix: (Units=GPa)
#
#
# Indices 1 2 3 4 5 6 
#
# 1 112.1343 62.1237 61.3087 0.0000 0.0000 0.0000
# 2 62.1237 164.8290 82.6804 0.0000 0.0000 0.0000
# 3 61.3087 82.6804 134.8454 0.0000 0.0000 0.0000
# 4 0.0000 0.0000 0.0000 51.4154 0.0000 0.0000
# 5 0.0000 0.0000 0.0000 0.0000 27.6830 0.0000
# 6 0.0000 0.0000 0.0000 0.0000 0.0000 22.3476
#
#
#
# Elastic Compliance Matrix: (Units=1/GPa)
#
#
# Indices 1 2 3 4 5 6 
#
# 1 0.012660 -0.002721 -0.004088 0.000000 0.000000 0.000000
# 2 -0.002721 0.009347 -0.004494 0.000000 0.000000 0.000000
# 3 -0.004088 -0.004494 0.012030 0.000000 0.000000 0.000000
# 4 0.000000 0.000000 0.000000 0.019449 0.000000 0.000000
# 5 0.000000 0.000000 0.000000 0.000000 0.036123 0.000000
# 6 0.000000 0.000000 0.000000 0.000000 0.000000 0.044748
#
#
# Mechanical properties :
#
#
# Convention : Reuss Voigt Hill
#
# Bulk Modulus (GPa) = 87.47674 91.55936 89.51805
# Shear Modulus (GPa) = 31.09987 34.00224 32.55106
#
# Velocity S-wave (km/s) = 3.79891 3.97222 3.88653
# Velocity P-wave (km/s) = 7.73532 7.97029 7.85369
#
# Compressibility (1/GPa) = 0.01143161
#
# Stress axis : x y z
#
# Youngs Moduli (GPa) = 78.98661 106.99093 83.12810
#
# Poissons Ratio (x) = 0.29115 0.33980
# Poissons Ratio (y) = 0.21494 0.37354
# Poissons Ratio (z) = 0.32287 0.48077
#
# Static dielectric constant tensor:
#      x y z
#    x 1.817170 0.000000 0.000000 
#    y 0.000000 1.879650 0.000000 
#    z 0.000000 0.000000 1.849080 
# 
# From -- ./inp_files/12274.got.cif
#   From: 2010.05.17/outbox.cif.g08.bks.cpg/sg21_7_cif.got.tgz:12274.got - 2010.06.03 23:14:55.
