data_PCOD9324269
_publ_section_title
;
Structure prediction by ZEFSAII (Michael W. Deem and Ramdas Pophale) SiO2 
 PCOD9324269
Probable space group: C 2 2 2
;
_chemical_formula_sum "Si O2"
_cell_formula_units_Z 24
_cell_length_a 15.503599
_cell_length_b 8.820294
_cell_length_c 7.179044
_cell_angle_alpha 90.000000
_cell_angle_beta 90.000000
_cell_angle_gamma 90.000000
_cell_volume 981.707713
_symmetry_space_group_name_H-M "C 2 2 2"
_symmetry_group_IT_number 21
_symmetry_cell_setting 'orthorhombic'
loop_
_space_group_symop_operation_xyz
x,y,z
-x,-y,z
x,-y,-z
-x,y,-z
1/2+x,1/2+y,z
1/2-x,1/2-y,z
1/2+x,1/2-y,-z
1/2-x,1/2+y,-z
loop_
_atom_site_type_symbol
_atom_site_label
_atom_site_fract_x
_atom_site_fract_y
_atom_site_fract_z
Si Si1 0.910392 0.560213 0.787448
Si Si2 0.064981 0.898247 0.317343
Si Si3 0.766266 0.068694 0.791059
O O1 0.910531 0.740044 0.771267
O O2 0.821748 0.498204 0.707064
O O3 0.000000 0.500000 0.706381
O O4 0.909601 0.500000 0.000000
O O5 0.000000 0.862784 0.500000
O O6 0.150520 0.004036 0.316101
O O7 0.000000 0.000000 0.199861
O O8 0.750000 0.250000 0.796443
O O9 0.775308 0.000000 0.000000
#
# Coordination Sequence:
#
# PCOD9324269 Si02
#       3
#     8   8   8
#     4  10  21  42  70 100 130 173 226 279 328 392
#     4  11  25  44  64  96 137 179 219 272 337 400
#     4  11  22  39  65  98 130 172 225 279 328 391
#
# _framework density 24.447195000000001
#
# number of rings (size 3 to 8) (size 9 to 14) (size 15 to 20)
#    0.000    1.333    0.000    7.000    0.000    6.000 
#    0.000   10.000    0.000    0.000    0.000    0.000 
#    0.000    0.000    0.000    0.000    0.000    0.000 
#
# Total GULP energy -66882.823761 kJ/mol
# GULP energy per Si atom -5573.568647 kJ/mol
# Density = 2.439155 g / cm^3
# Si number density = 24.447195 Si / 1000 Ang^3
#
#
#
# Elastic Constant Matrix: (Units=GPa)
#
#
# Indices 1 2 3 4 5 6 
#
# 1 295.9309 108.0216 54.0922 0.0000 0.0000 0.0000
# 2 108.0216 294.2376 52.6625 0.0000 0.0000 0.0000
# 3 54.0922 52.6625 167.2013 0.0000 0.0000 0.0000
# 4 0.0000 0.0000 0.0000 -15.2386 0.0000 0.0000
# 5 0.0000 0.0000 0.0000 0.0000 24.1263 0.0000
# 6 0.0000 0.0000 0.0000 0.0000 0.0000 59.7218
#
#
#
# Elastic Compliance Matrix: (Units=1/GPa)
#
#
# Indices 1 2 3 4 5 6 
#
# 1 0.004022 -0.001318 -0.000886 0.000000 0.000000 0.000000
# 2 -0.001318 0.004034 -0.000844 0.000000 0.000000 0.000000
# 3 -0.000886 -0.000844 0.006533 0.000000 0.000000 0.000000
# 4 0.000000 0.000000 0.000000 -0.065623 0.000000 0.000000
# 5 0.000000 0.000000 0.000000 0.000000 0.041448 0.000000
# 6 0.000000 0.000000 0.000000 0.000000 0.000000 0.016744
#
#
# Mechanical properties :
#
#
# Convention : Reuss Voigt Hill
#
# Bulk Modulus (GPa) = 117.74752 131.88024 124.81388
# Shear Modulus (GPa) = 310.82358 49.89482 180.35920
#
# Velocity S-wave (km/s) = 11.28791 4.52256 8.59856
# Velocity P-wave (km/s) = 14.77016 9.01850 12.23706
#
# Compressibility (1/GPa) = 0.00849275
#
# Stress axis : x y z
#
# Youngs Moduli (GPa) = 248.61620 247.91927 153.06142
#
# Poissons Ratio (x) = 0.32678 0.13563
# Poissons Ratio (y) = 0.32769 0.12919
# Poissons Ratio (z) = 0.22030 0.20925
#
# Static dielectric constant tensor:
#      x y z
#    x 1.913270 0.000000 0.000000 
#    y 0.000000 1.973410 0.000000 
#    z 0.000000 0.000000 1.748070 
# 
# From -- ./inp_files/13812.got.cif
#   From: 2010.05.17/outbox.cif.g08.bks.cpg/sg21_7_cif.got.tgz:13812.got - 2010.06.03 23:14:55.
