data_PCOD9324049
_publ_section_title
;
Structure prediction by ZEFSAII (Michael W. Deem and Ramdas Pophale) SiO2 
 PCOD9324049
Probable space group: C 2 2 2
;
_chemical_formula_sum "Si O2"
_cell_formula_units_Z 44
_cell_length_a 5.278185
_cell_length_b 27.427695
_cell_length_c 14.084844
_cell_angle_alpha 90.000000
_cell_angle_beta 90.000000
_cell_angle_gamma 90.000000
_cell_volume 2039.041011
_symmetry_space_group_name_H-M "C 2 2 2"
_symmetry_group_IT_number 21
_symmetry_cell_setting 'orthorhombic'
loop_
_space_group_symop_operation_xyz
x,y,z
-x,-y,z
x,-y,-z
-x,y,-z
1/2+x,1/2+y,z
1/2-x,1/2-y,z
1/2+x,1/2-y,-z
1/2-x,1/2+y,-z
loop_
_atom_site_type_symbol
_atom_site_label
_atom_site_fract_x
_atom_site_fract_y
_atom_site_fract_z
Si Si1 0.746862 0.191276 0.942278
Si Si2 0.947107 0.050627 0.716006
Si Si3 0.750000 0.250000 0.266267
Si Si4 0.436684 0.181688 0.390824
Si Si5 0.929444 0.572932 0.609732
Si Si6 0.052617 0.841506 0.759196
O O1 0.750000 0.250000 0.932297
O O2 0.734343 0.168367 0.837899
O O3 0.500000 0.177312 0.000000
O O4 0.000000 0.176940 0.000000
O O5 0.159703 0.049864 0.633118
O O6 0.662462 0.054682 0.674897
O O7 0.010001 0.101631 0.767620
O O8 0.000000 0.000000 0.769639
O O9 0.533449 0.227203 0.331706
O O10 0.641773 0.297879 0.215255
O O11 0.500000 0.192509 0.500000
O O12 0.587637 0.131284 0.372669
O O13 0.160946 0.168178 0.347650
O O14 0.000000 0.565927 0.500000
#
# Coordination Sequence:
#
# PCOD9324049 Si02
#       6
#     8   8   4   8   8   8
#     4  10  23  40  67  97 131 160 201 255 322 385
#     4  11  23  40  61  87 120 166 217 267 323 376
#     4  12  22  36  64  84 134 170 218 252 318 378
#     4  10  23  37  56  86 128 174 217 258 312 383
#     4  10  21  39  58  84 120 164 222 277 321 365
#     4  11  25  41  62  95 128 170 215 266 322 385
#
# _framework density 21.578769000000001
#
# number of rings (size 3 to 8) (size 9 to 14) (size 15 to 20)
#    0.000    1.455    1.818    2.727    8.909    2.182 
#    0.000    0.000    0.000    0.545    0.000    1.273 
#    0.000    0.000    0.000    0.000    0.000    0.000 
#
# Total GULP energy -122776.851543 kJ/mol
# GULP energy per Si atom -5580.765979 kJ/mol
# Density = 2.152966 g / cm^3
# Si number density = 21.578769 Si / 1000 Ang^3
#
#
#
# Elastic Constant Matrix: (Units=GPa)
#
#
# Indices 1 2 3 4 5 6 
#
# 1 99.7982 29.1369 19.3781 0.0000 0.0000 0.0000
# 2 29.1369 148.8838 23.4471 0.0000 0.0000 0.0000
# 3 19.3781 23.4471 65.4271 0.0000 0.0000 0.0000
# 4 0.0000 0.0000 0.0000 3.4748 0.0000 0.0000
# 5 0.0000 0.0000 0.0000 0.0000 7.5218 0.0000
# 6 0.0000 0.0000 0.0000 0.0000 0.0000 27.4500
#
#
#
# Elastic Compliance Matrix: (Units=1/GPa)
#
#
# Indices 1 2 3 4 5 6 
#
# 1 0.011043 -0.001745 -0.002646 0.000000 0.000000 0.000000
# 2 -0.001745 0.007394 -0.002133 0.000000 0.000000 0.000000
# 3 -0.002646 -0.002133 0.016832 0.000000 0.000000 0.000000
# 4 0.000000 0.000000 0.000000 0.287787 0.000000 0.000000
# 5 0.000000 0.000000 0.000000 0.000000 0.132947 0.000000
# 6 0.000000 0.000000 0.000000 0.000000 0.000000 0.036430
#
#
# Mechanical properties :
#
#
# Convention : Reuss Voigt Hill
#
# Bulk Modulus (GPa) = 44.99843 50.89259 47.94551
# Shear Modulus (GPa) = 9.74874 23.83245 16.79060
#
# Velocity S-wave (km/s) = 2.12781 3.32692 2.79248
# Velocity P-wave (km/s) = 5.18990 6.19626 5.71527
#
# Compressibility (1/GPa) = 0.02222300
#
# Stress axis : x y z
#
# Youngs Moduli (GPa) = 90.55303 135.24496 59.40996
#
# Poissons Ratio (x) = 0.23594 0.15717
# Poissons Ratio (y) = 0.15797 0.12673
# Poissons Ratio (z) = 0.23957 0.28849
#
# Static dielectric constant tensor:
#      x y z
#    x 1.871470 0.000000 0.000000 
#    y 0.000000 1.863810 0.000000 
#    z 0.000000 0.000000 1.779880 
# 
# From -- ./inp_files/29322.got.cif
#   From: 2010.05.17/outbox.cif.g08.bks.cpg/sg21_15_cif.got.tgz:29322.got - 2010.06.03 23:14:55.
