data_PCOD9324984
_publ_section_title
;
Structure prediction by ZEFSAII (Michael W. Deem and Ramdas Pophale) SiO2 
 PCOD9324984
Probable space group: C 2 2 2
;
_chemical_formula_sum "Si O2"
_cell_formula_units_Z 38
_cell_length_a 19.477461
_cell_length_b 9.699068
_cell_length_c 7.929938
_cell_angle_alpha 90.000000
_cell_angle_beta 90.000000
_cell_angle_gamma 90.000000
_cell_volume 1498.070112
_symmetry_space_group_name_H-M "C 2 2 2"
_symmetry_group_IT_number 21
_symmetry_cell_setting 'orthorhombic'
loop_
_space_group_symop_operation_xyz
x,y,z
-x,-y,z
x,-y,-z
-x,y,-z
1/2+x,1/2+y,z
1/2-x,1/2-y,z
1/2+x,1/2-y,-z
1/2-x,1/2+y,-z
loop_
_atom_site_type_symbol
_atom_site_label
_atom_site_fract_x
_atom_site_fract_y
_atom_site_fract_z
Si Si1 0.193446 0.653063 0.813838
Si Si2 0.892522 0.000000 0.500000
Si Si3 0.806878 0.347133 0.202063
Si Si4 0.049863 0.238920 0.699201
Si Si5 0.911756 0.890614 0.155592
Si Si6 0.500000 0.000000 0.500000
O O1 0.250000 0.750000 0.727753
O O2 0.185978 0.503336 0.730866
O O3 0.124937 0.741806 0.837934
O O4 0.216088 0.633717 0.008424
O O5 0.931469 0.858172 0.541722
O O6 0.870019 0.966730 0.309253
O O7 0.750000 0.250000 0.288029
O O8 0.879378 0.269163 0.203905
O O9 0.032544 0.389318 0.628320
O O10 0.990717 0.155428 0.800594
O O11 0.907138 0.000000 0.000000
#
# Coordination Sequence:
#
# PCOD9324984 Si02
#       6
#     8   4   8   8   8   2
#     4  10  24  44  73 108 152 204 257 319 400 461
#     4  12  27  46  71 119 154 196 257 314 405 470
#     4  10  24  45  71 110 152 205 260 321 391 479
#     4  12  25  47  73 111 155 204 262 326 401 472
#     4  12  26  47  81 116 151 203 261 325 392 478
#     4  12  24  46  78 104 168 206 254 350 404 460
#
# _framework density 25.365967999999999
#
# number of rings (size 3 to 8) (size 9 to 14) (size 15 to 20)
#    0.000    0.842    2.105    3.789    8.842    5.895 
#    3.789    4.211    0.000    0.000    0.000    0.000 
#    0.000    0.000    0.000    0.000    0.000    0.000 
#
# Total GULP energy -105800.428307 kJ/mol
# GULP energy per Si atom -5568.443595 kJ/mol
# Density = 2.530823 g / cm^3
# Si number density = 25.365968 Si / 1000 Ang^3
#
#
#
# Elastic Constant Matrix: (Units=GPa)
#
#
# Indices 1 2 3 4 5 6 
#
# 1 115.2923 70.5718 9.1591 0.0000 0.0000 0.0000
# 2 70.5718 269.4770 38.0369 0.0000 0.0000 0.0000
# 3 9.1591 38.0369 91.4558 0.0000 0.0000 0.0000
# 4 0.0000 0.0000 0.0000 29.8790 0.0000 0.0000
# 5 0.0000 0.0000 0.0000 0.0000 -3.2843 0.0000
# 6 0.0000 0.0000 0.0000 0.0000 0.0000 91.3093
#
#
#
# Elastic Compliance Matrix: (Units=1/GPa)
#
#
# Indices 1 2 3 4 5 6 
#
# 1 0.010330 -0.002719 0.000096 0.000000 0.000000 0.000000
# 2 -0.002719 0.004658 -0.001665 0.000000 0.000000 0.000000
# 3 0.000096 -0.001665 0.011617 0.000000 0.000000 0.000000
# 4 0.000000 0.000000 0.000000 0.033468 0.000000 0.000000
# 5 0.000000 0.000000 0.000000 0.000000 -0.304480 0.000000
# 6 0.000000 0.000000 0.000000 0.000000 0.000000 0.010952
#
#
# Mechanical properties :
#
#
# Convention : Reuss Voigt Hill
#
# Bulk Modulus (GPa) = 55.46311 79.08453 67.27382
# Shear Modulus (GPa) = -22.84465 47.47796 12.31666
#
# Velocity S-wave (km/s) = -3.00426 4.33103 2.20593
# Velocity P-wave (km/s) = 3.14301 7.50037 5.75039
#
# Compressibility (1/GPa) = 0.01803000
#
# Stress axis : x y z
#
# Youngs Moduli (GPa) = 96.80317 214.68696 86.08024
#
# Poissons Ratio (x) = 0.58372 -0.00829
# Poissons Ratio (y) = 0.26320 0.14332
# Poissons Ratio (z) = -0.00932 0.35745
#
# Static dielectric constant tensor:
#      x y z
#    x 2.078530 0.000000 0.000000 
#    y 0.000000 2.118520 0.000000 
#    z 0.000000 0.000000 1.958960 
# 
# From -- ./inp_files/18270.got.cif
#   From: 2010.05.17/outbox.cif.g08.bks.cpg/sg21_10_cif.got.tgz:18270.got - 2010.06.03 23:14:55.
