data_PCOD9324610
_publ_section_title
;
Structure prediction by ZEFSAII (Michael W. Deem and Ramdas Pophale) SiO2 
 PCOD9324610
Probable space group: C 2 2 2
;
_chemical_formula_sum "Si O2"
_cell_formula_units_Z 40
_cell_length_a 12.907391
_cell_length_b 14.145303
_cell_length_c 9.564973
_cell_angle_alpha 90.000000
_cell_angle_beta 90.000000
_cell_angle_gamma 90.000000
_cell_volume 1746.362791
_symmetry_space_group_name_H-M "C 2 2 2"
_symmetry_group_IT_number 21
_symmetry_cell_setting 'orthorhombic'
loop_
_space_group_symop_operation_xyz
x,y,z
-x,-y,z
x,-y,-z
-x,y,-z
1/2+x,1/2+y,z
1/2-x,1/2-y,z
1/2+x,1/2-y,-z
1/2-x,1/2+y,-z
loop_
_atom_site_type_symbol
_atom_site_label
_atom_site_fract_x
_atom_site_fract_y
_atom_site_fract_z
Si Si1 0.794569 0.500000 0.500000
Si Si2 0.326609 0.500000 0.000000
Si Si3 0.000000 0.359243 0.000000
Si Si4 0.664916 0.934862 0.212205
Si Si5 0.613925 0.651743 0.549704
Si Si6 0.250000 0.250000 0.348083
Si Si7 0.138288 0.800835 0.126328
O O1 0.859497 0.517506 0.360361
O O2 0.711971 0.583822 0.523198
O O3 0.252676 0.505479 0.865497
O O4 0.377091 0.395845 0.970795
O O5 0.065385 0.286493 0.908723
O O6 0.926988 0.416797 0.895094
O O7 0.721498 0.836779 0.249289
O O8 0.500000 0.618562 0.500000
O O9 0.649508 0.736553 0.447681
O O10 0.615246 0.672003 0.713409
O O11 0.250000 0.750000 0.111538
#
# Coordination Sequence:
#
# PCOD9324610 Si02
#       7
#     4   4   4   8   8   4   8
#     4  10  23  44  72 107 150 196 247 324 381 452
#     4  12  24  46  78 100 154 200 244 312 392 446
#     4  12  26  46  78 108 152 202 260 312 390 472
#     4  11  23  44  73 109 146 201 248 310 382 458
#     4  11  22  41  71 103 148 194 253 311 389 457
#     4  10  22  42  70 102 148 194 244 314 386 448
#     4  12  25  48  72 109 152 203 256 327 386 458
#
# _framework density 22.904748999999999
#
# number of rings (size 3 to 8) (size 9 to 14) (size 15 to 20)
#    0.000    0.800    5.000    2.700    0.000    2.400 
#    3.600    0.000    8.800    1.200    0.000    0.000 
#    0.000    0.000    0.000    0.000    0.000    0.000 
#
# Total GULP energy -111700.037860 kJ/mol
# GULP energy per Si atom -5585.001893 kJ/mol
# Density = 2.285262 g / cm^3
# Si number density = 22.904749 Si / 1000 Ang^3
#
#
#
# Elastic Constant Matrix: (Units=GPa)
#
#
# Indices 1 2 3 4 5 6 
#
# 1 83.2339 26.4736 34.7246 0.0000 0.0000 0.0000
# 2 26.4736 73.1211 27.4683 0.0000 0.0000 0.0000
# 3 34.7246 27.4683 147.6543 0.0000 0.0000 0.0000
# 4 0.0000 0.0000 0.0000 48.8140 0.0000 0.0000
# 5 0.0000 0.0000 0.0000 0.0000 219.2670 0.0000
# 6 0.0000 0.0000 0.0000 0.0000 0.0000 -2.4373
#
#
#
# Elastic Compliance Matrix: (Units=1/GPa)
#
#
# Indices 1 2 3 4 5 6 
#
# 1 0.014455 -0.004254 -0.002608 0.000000 0.000000 0.000000
# 2 -0.004254 0.015955 -0.001968 0.000000 0.000000 0.000000
# 3 -0.002608 -0.001968 0.007752 0.000000 0.000000 0.000000
# 4 0.000000 0.000000 0.000000 0.020486 0.000000 0.000000
# 5 0.000000 0.000000 0.000000 0.000000 0.004561 0.000000
# 6 0.000000 0.000000 0.000000 0.000000 0.000000 -0.410290
#
#
# Mechanical properties :
#
#
# Convention : Reuss Voigt Hill
#
# Bulk Modulus (GPa) = 48.77316 53.48247 51.12781
# Shear Modulus (GPa) = -15.49972 67.48493 25.99261
#
# Velocity S-wave (km/s) = -2.60417 5.43390 3.37235
# Velocity P-wave (km/s) = 3.50683 7.92277 6.12651
#
# Compressibility (1/GPa) = 0.02050308
#
# Stress axis : x y z
#
# Youngs Moduli (GPa) = 69.17809 62.67531 128.99847
#
# Poissons Ratio (x) = 0.26661 0.33646
# Poissons Ratio (y) = 0.29427 0.25384
# Poissons Ratio (z) = 0.18043 0.12333
#
# Static dielectric constant tensor:
#      x y z
#    x 1.869320 0.000000 0.000000 
#    y 0.000000 1.866100 0.000000 
#    z 0.000000 0.000000 1.902070 
# 
# From -- ./inp_files/14607.got.cif
#   From: 2010.05.17/outbox.cif.g08.bks.cpg/sg21_8_cif.got.tgz:14607.got - 2010.06.03 23:14:55.
