data_PCOD9324638
_publ_section_title
;
Structure prediction by ZEFSAII (Michael W. Deem and Ramdas Pophale) SiO2 
 PCOD9324638
Probable space group: C 2 2 2
;
_chemical_formula_sum "Si O2"
_cell_formula_units_Z 48
_cell_length_a 17.899233
_cell_length_b 14.184386
_cell_length_c 9.043536
_cell_angle_alpha 90.000000
_cell_angle_beta 90.000000
_cell_angle_gamma 90.000000
_cell_volume 2296.060009
_symmetry_space_group_name_H-M "C 2 2 2"
_symmetry_group_IT_number 21
_symmetry_cell_setting 'orthorhombic'
loop_
_space_group_symop_operation_xyz
x,y,z
-x,-y,z
x,-y,-z
-x,y,-z
1/2+x,1/2+y,z
1/2-x,1/2-y,z
1/2+x,1/2-y,-z
1/2-x,1/2+y,-z
loop_
_atom_site_type_symbol
_atom_site_label
_atom_site_fract_x
_atom_site_fract_y
_atom_site_fract_z
Si Si1 0.716390 0.963605 0.846447
Si Si2 0.118176 0.091426 0.908422
Si Si3 0.826362 0.310341 0.379493
Si Si4 0.535888 0.667695 0.654328
Si Si5 0.800748 0.343043 0.718364
Si Si6 0.063940 0.268022 0.102097
O O1 0.793091 0.911065 0.887414
O O2 0.670777 0.893210 0.742016
O O3 0.738223 0.059140 0.760172
O O4 0.681437 0.000000 0.000000
O O5 0.075641 0.088702 0.752864
O O6 0.096612 0.186091 0.995860
O O7 0.096375 0.000000 0.000000
O O8 0.750000 0.250000 0.356516
O O9 0.897789 0.243116 0.370282
O O10 0.822980 0.348433 0.546683
O O11 0.500000 0.638664 0.500000
O O12 0.474465 0.716441 0.758666
O O13 0.750000 0.250000 0.737040
O O14 0.871160 0.330192 0.827190
O O15 0.000000 0.315532 0.000000
#
# Coordination Sequence:
#
# PCOD9324638 Si02
#       6
#     8   8   8   8   8   8
#     4  11  24  39  68 103 131 181 235 285 345 407
#     4  10  22  43  66 100 142 175 235 287 344 414
#     4  11  23  43  70  98 137 180 236 292 340 417
#     4  11  22  43  72  99 134 186 231 277 367 414
#     4  11  23  42  69  99 140 179 236 288 352 413
#     4  10  23  41  68  96 139 184 222 284 351 416
#
# _framework density 20.905377999999999
#
# number of rings (size 3 to 8) (size 9 to 14) (size 15 to 20)
#    0.000    1.333    3.333    2.500    4.667    3.667 
#    0.000    2.500    0.000    0.000    0.000    0.000 
#    0.000    0.000    0.000    0.000    0.000    0.000 
#
# Total GULP energy -134133.622248 kJ/mol
# GULP energy per Si atom -5588.900927 kJ/mol
# Density = 2.085780 g / cm^3
# Si number density = 20.905378 Si / 1000 Ang^3
#
#
#
# Elastic Constant Matrix: (Units=GPa)
#
#
# Indices 1 2 3 4 5 6 
#
# 1 64.9346 16.3362 37.7482 0.0000 0.0000 0.0000
# 2 16.3362 59.5649 47.0865 0.0000 0.0000 0.0000
# 3 37.7482 47.0865 169.0517 0.0000 0.0000 0.0000
# 4 0.0000 0.0000 0.0000 42.3839 0.0000 0.0000
# 5 0.0000 0.0000 0.0000 0.0000 38.7949 0.0000
# 6 0.0000 0.0000 0.0000 0.0000 0.0000 23.4785
#
#
#
# Elastic Compliance Matrix: (Units=1/GPa)
#
#
# Indices 1 2 3 4 5 6 
#
# 1 0.017929 -0.002247 -0.003377 0.000000 0.000000 0.000000
# 2 -0.002247 0.021810 -0.005573 0.000000 0.000000 0.000000
# 3 -0.003377 -0.005573 0.008222 0.000000 0.000000 0.000000
# 4 0.000000 0.000000 0.000000 0.023594 0.000000 0.000000
# 5 0.000000 0.000000 0.000000 0.000000 0.025777 0.000000
# 6 0.000000 0.000000 0.000000 0.000000 0.000000 0.042592
#
#
# Mechanical properties :
#
#
# Convention : Reuss Voigt Hill
#
# Bulk Modulus (GPa) = 39.11539 55.09922 47.10731
# Shear Modulus (GPa) = 29.26698 33.75682 31.51190
#
# Velocity S-wave (km/s) = 3.74568 4.02275 3.88668
# Velocity P-wave (km/s) = 6.12031 6.92751 6.53638
#
# Compressibility (1/GPa) = 0.02556538
#
# Stress axis : x y z
#
# Youngs Moduli (GPa) = 55.77594 45.84992 121.62766
#
# Poissons Ratio (x) = 0.10303 0.41080
# Poissons Ratio (y) = 0.12534 0.67784
# Poissons Ratio (z) = 0.18838 0.25553
#
# Static dielectric constant tensor:
#      x y z
#    x 1.771820 0.000000 0.000000 
#    y 0.000000 1.731000 0.000000 
#    z 0.000000 0.000000 1.773250 
# 
# From -- ./inp_files/14983.got.cif
#   From: 2010.05.17/outbox.cif.g08.bks.cpg/sg21_8_cif.got.tgz:14983.got - 2010.06.03 23:14:55.
