data_PCOD9324215
_publ_section_title
;
Structure prediction by ZEFSAII (Michael W. Deem and Ramdas Pophale) SiO2 
 PCOD9324215
Probable space group: C 2 2 2
;
_chemical_formula_sum "Si O2"
_cell_formula_units_Z 32
_cell_length_a 21.481381
_cell_length_b 12.904725
_cell_length_c 4.822616
_cell_angle_alpha 90.000000
_cell_angle_beta 90.000000
_cell_angle_gamma 90.000000
_cell_volume 1336.883720
_symmetry_space_group_name_H-M "C 2 2 2"
_symmetry_group_IT_number 21
_symmetry_cell_setting 'orthorhombic'
loop_
_space_group_symop_operation_xyz
x,y,z
-x,-y,z
x,-y,-z
-x,y,-z
1/2+x,1/2+y,z
1/2-x,1/2-y,z
1/2+x,1/2-y,-z
1/2-x,1/2+y,-z
loop_
_atom_site_type_symbol
_atom_site_label
_atom_site_fract_x
_atom_site_fract_y
_atom_site_fract_z
Si Si1 0.703341 0.123430 0.564794
Si Si2 0.833186 0.923027 0.262457
Si Si3 0.618737 0.878751 0.943009
Si Si4 0.957991 0.793034 0.221662
O O1 0.777053 0.145482 0.598172
O O2 0.646201 0.153272 0.357761
O O3 0.706565 0.000000 0.500000
O O4 0.678868 0.141642 0.870023
O O5 0.892395 0.851400 0.224125
O O6 0.853268 0.000000 0.500000
O O7 0.815855 0.000000 0.000000
O O8 0.562739 0.813368 0.068659
O O9 0.604725 0.000000 0.000000
O O10 0.000000 0.780975 0.500000
O O11 0.000000 0.852812 0.000000
#
# Coordination Sequence:
#
# PCOD9324215 Si02
#       4
#     8   8   8   8
#     4   9  18  37  65  95 124 158 208 269 341 408
#     4  11  23  42  68  98 135 177 221 284 353 412
#     4  10  21  41  66  93 127 165 210 275 339 392
#     4  12  27  44  63  96 136 182 239 277 323 417
#
# _framework density 23.936266
#
# number of rings (size 3 to 8) (size 9 to 14) (size 15 to 20)
#    0.000    1.500    0.000    6.750    0.000    4.500 
#    0.000    8.750    0.000    0.000    0.000    0.000 
#    0.000    0.000    0.000    0.000    0.000    0.000 
#
# Total GULP energy -89096.810635 kJ/mol
# GULP energy per Si atom -5568.550665 kJ/mol
# Density = 2.388179 g / cm^3
# Si number density = 23.936266 Si / 1000 Ang^3
#
#
#
# Elastic Constant Matrix: (Units=GPa)
#
#
# Indices 1 2 3 4 5 6 
#
# 1 170.2626 46.0547 21.8796 0.0000 0.0000 0.0000
# 2 46.0547 74.7286 18.6864 0.0000 0.0000 0.0000
# 3 21.8796 18.6864 102.1117 0.0000 0.0000 0.0000
# 4 0.0000 0.0000 0.0000 21.2609 0.0000 0.0000
# 5 0.0000 0.0000 0.0000 0.0000 29.1176 0.0000
# 6 0.0000 0.0000 0.0000 0.0000 0.0000 14.8042
#
#
#
# Elastic Compliance Matrix: (Units=1/GPa)
#
#
# Indices 1 2 3 4 5 6 
#
# 1 0.007103 -0.004189 -0.000755 0.000000 0.000000 0.000000
# 2 -0.004189 0.016494 -0.002121 0.000000 0.000000 0.000000
# 3 -0.000755 -0.002121 0.010343 0.000000 0.000000 0.000000
# 4 0.000000 0.000000 0.000000 0.047035 0.000000 0.000000
# 5 0.000000 0.000000 0.000000 0.000000 0.034344 0.000000
# 6 0.000000 0.000000 0.000000 0.000000 0.000000 0.067548
#
#
# Mechanical properties :
#
#
# Convention : Reuss Voigt Hill
#
# Bulk Modulus (GPa) = 50.47967 57.81604 54.14785
# Shear Modulus (GPa) = 24.55792 30.40203 27.47997
#
# Velocity S-wave (km/s) = 3.20655 3.56775 3.39196
# Velocity P-wave (km/s) = 5.90291 6.41704 6.16533
#
# Compressibility (1/GPa) = 0.01980995
#
# Stress axis : x y z
#
# Youngs Moduli (GPa) = 140.77721 60.62943 96.68212
#
# Poissons Ratio (x) = 0.25397 0.07304
# Poissons Ratio (y) = 0.58970 0.20504
# Poissons Ratio (z) = 0.10636 0.12858
#
# Static dielectric constant tensor:
#      x y z
#    x 1.979060 0.000000 0.000000 
#    y 0.000000 2.269360 0.000000 
#    z 0.000000 0.000000 1.979990 
# 
# From -- ./inp_files/5588.got.cif
#   From: 2010.05.17/outbox.cif.g08.bks.cpg/sg21_3_cif.got.tgz:5588.got - 2010.06.03 23:14:55.
