data_PCOD9324174
_publ_section_title
;
Structure prediction by ZEFSAII (Michael W. Deem and Ramdas Pophale) SiO2 
 PCOD9324174
Probable space group: C 2 2 2
;
_chemical_formula_sum "Si O2"
_cell_formula_units_Z 40
_cell_length_a 5.471683
_cell_length_b 22.277710
_cell_length_c 14.554515
_cell_angle_alpha 90.000000
_cell_angle_beta 90.000000
_cell_angle_gamma 90.000000
_cell_volume 1774.145414
_symmetry_space_group_name_H-M "C 2 2 2"
_symmetry_group_IT_number 21
_symmetry_cell_setting 'orthorhombic'
loop_
_space_group_symop_operation_xyz
x,y,z
-x,-y,z
x,-y,-z
-x,y,-z
1/2+x,1/2+y,z
1/2-x,1/2-y,z
1/2+x,1/2-y,-z
1/2-x,1/2+y,-z
loop_
_atom_site_type_symbol
_atom_site_label
_atom_site_fract_x
_atom_site_fract_y
_atom_site_fract_z
Si Si1 0.250000 0.461141 0.122634
Si Si2 0.250000 0.475727 0.396091
Si Si3 0.250000 0.867123 0.707701
Si Si4 0.750000 0.181337 0.225420
Si Si5 0.250000 0.355526 0.973040
O O1 0.500000 0.500000 0.121432
O O2 0.249999 0.417743 0.211694
O O3 0.000000 0.500000 0.121431
O O4 0.250000 0.415835 0.035100
O O5 0.500000 0.500000 0.352731
O O6 0.250000 0.500000 0.500000
O O7 0.250000 0.404623 0.386349
O O8 0.000000 0.500000 0.352731
O O9 0.500363 0.831067 0.720182
O O10 0.999635 0.831067 0.720182
O O11 0.750000 0.250000 0.192983
O O12 0.749999 0.138341 0.136166
O O13 0.500000 0.323434 0.000000
O O14 0.000000 0.323434 0.000000
#
# Coordination Sequence:
#
# PCOD9324174 Si02
#       5
#     8   8   8   8   8
#     4  12  24  38  58  84 127 170 208 265 327 392
#     4  10  21  40  68 106 140 167 193 242 329 406
#     4  12  23  44  62  98 128 167 220 266 323 406
#     4  12  26  45  64  87 125 179 232 290 326 353
#     4  12  23  43  56  87 119 173 238 275 327 375
#
# _framework density 22.546068000000002
#
# number of rings (size 3 to 8) (size 9 to 14) (size 15 to 20)
#    0.000    0.400    4.000    5.400    0.000    3.200 
#    0.000    0.000    0.000    0.000    0.000   56.000 
#    0.000    0.000    0.000    0.000    0.000    0.000 
#
# Total GULP energy -111850.526502 kJ/mol
# GULP energy per Si atom -5592.526325 kJ/mol
# Density = 2.249475 g / cm^3
# Si number density = 22.546068 Si / 1000 Ang^3
#
#
#
# Elastic Constant Matrix: (Units=GPa)
#
#
# Indices 1 2 3 4 5 6 
#
# 1 252.9237 42.6773 12.8012 0.0000 0.0000 0.0000
# 2 42.6773 100.5848 27.0580 0.0000 0.0000 0.0000
# 3 12.8012 27.0580 64.8148 0.0000 0.0000 0.0000
# 4 0.0000 0.0000 0.0000 9.9216 0.0000 0.0000
# 5 0.0000 0.0000 0.0000 0.0000 -17.1262 0.0000
# 6 0.0000 0.0000 0.0000 0.0000 0.0000 17.7790
#
#
#
# Elastic Compliance Matrix: (Units=1/GPa)
#
#
# Indices 1 2 3 4 5 6 
#
# 1 0.004259 -0.001781 -0.000098 0.000000 0.000000 0.000000
# 2 -0.001781 0.011944 -0.004635 0.000000 0.000000 0.000000
# 3 -0.000098 -0.004635 0.017383 0.000000 0.000000 0.000000
# 4 0.000000 0.000000 0.000000 0.100791 0.000000 0.000000
# 5 0.000000 0.000000 0.000000 0.000000 -0.058390 0.000000
# 6 0.000000 0.000000 0.000000 0.000000 0.000000 0.056246
#
#
# Mechanical properties :
#
#
# Convention : Reuss Voigt Hill
#
# Bulk Modulus (GPa) = 48.63889 64.82182 56.73035
# Shear Modulus (GPa) = 32.87039 24.50065 28.68552
#
# Velocity S-wave (km/s) = 3.82242 3.30008 3.57081
# Velocity P-wave (km/s) = 6.41101 6.58285 6.49750
#
# Compressibility (1/GPa) = 0.02055968
#
# Stress axis : x y z
#
# Youngs Moduli (GPa) = 234.78572 83.72271 57.52863
#
# Poissons Ratio (x) = 0.14910 0.00562
# Poissons Ratio (y) = 0.41812 0.26662
# Poissons Ratio (z) = 0.02295 0.38802
#
# Static dielectric constant tensor:
#      x y z
#    x 1.918160 0.000000 0.000000 
#    y 0.000000 1.816470 0.000000 
#    z 0.000000 0.000000 1.776170 
# 
# From -- ./inp_files/34876.got.cif
#   From: 2010.05.17/outbox.cif.g08.bks.cpg/sg21_18_cif.got.tgz:34876.got - 2010.06.03 23:14:55.
