data_PCOD9324337
_publ_section_title
;
Structure prediction by ZEFSAII (Michael W. Deem and Ramdas Pophale) SiO2 
 PCOD9324337
Probable space group: C 2 2 2
;
_chemical_formula_sum "Si O2"
_cell_formula_units_Z 34
_cell_length_a 13.415905
_cell_length_b 24.570842
_cell_length_c 4.917990
_cell_angle_alpha 90.000000
_cell_angle_beta 90.000000
_cell_angle_gamma 90.000000
_cell_volume 1621.166627
_symmetry_space_group_name_H-M "C 2 2 2"
_symmetry_group_IT_number 21
_symmetry_cell_setting 'orthorhombic'
loop_
_space_group_symop_operation_xyz
x,y,z
-x,-y,z
x,-y,-z
-x,y,-z
1/2+x,1/2+y,z
1/2-x,1/2-y,z
1/2+x,1/2-y,-z
1/2-x,1/2+y,-z
loop_
_atom_site_type_symbol
_atom_site_label
_atom_site_fract_x
_atom_site_fract_y
_atom_site_fract_z
Si Si1 0.213564 0.123559 0.371577
Si Si2 0.569688 0.156543 0.764533
Si Si3 0.929431 0.218445 0.759281
Si Si4 0.000000 0.000000 0.500000
Si Si5 0.837806 0.944585 0.884091
O O1 0.327515 0.125540 0.277126
O O2 0.164151 0.182692 0.334543
O O3 0.212532 0.096931 0.670418
O O4 0.147668 0.088058 0.162331
O O5 0.500000 0.157129 0.500000
O O6 0.597068 0.219490 0.836653
O O7 0.500000 0.133755 0.000000
O O8 0.000000 0.220926 0.500000
O O9 0.000000 0.195371 0.000000
O O10 0.069272 0.034393 0.705834
O O11 0.786330 0.000000 0.000000
#
# Coordination Sequence:
#
# PCOD9324337 Si02
#       5
#     8   8   8   2   8
#     4  12  24  39  68  95 126 175 221 256 315 400
#     4  10  22  43  64  92 131 172 217 271 320 364
#     4  10  22  36  60  97 137 168 207 261 318 389
#     4  12  26  44  62  92 136 164 194 260 330 404
#     4  12  26  41  63  93 130 165 209 258 325 386
#
# _framework density 20.972550999999999
#
# number of rings (size 3 to 8) (size 9 to 14) (size 15 to 20)
#    0.000    0.941    2.353    3.882    4.941    0.000 
#    0.000    9.412    0.000   10.588    0.000    0.000 
#    0.000    0.000    0.000    0.000    0.000    0.000 
#
# Total GULP energy -94848.100410 kJ/mol
# GULP energy per Si atom -5579.300024 kJ/mol
# Density = 2.092482 g / cm^3
# Si number density = 20.972551 Si / 1000 Ang^3
#
#
#
# Elastic Constant Matrix: (Units=GPa)
#
#
# Indices 1 2 3 4 5 6 
#
# 1 90.3538 9.0731 17.0463 0.0000 0.0000 0.0000
# 2 9.0731 32.6474 5.4701 0.0000 0.0000 0.0000
# 3 17.0463 5.4701 120.2545 0.0000 0.0000 0.0000
# 4 0.0000 0.0000 0.0000 55.5940 0.0000 0.0000
# 5 0.0000 0.0000 0.0000 0.0000 22.1853 0.0000
# 6 0.0000 0.0000 0.0000 0.0000 0.0000 21.9169
#
#
#
# Elastic Compliance Matrix: (Units=1/GPa)
#
#
# Indices 1 2 3 4 5 6 
#
# 1 0.011653 -0.002985 -0.001516 0.000000 0.000000 0.000000
# 2 -0.002985 0.031630 -0.001016 0.000000 0.000000 0.000000
# 3 -0.001516 -0.001016 0.008577 0.000000 0.000000 0.000000
# 4 0.000000 0.000000 0.000000 0.017988 0.000000 0.000000
# 5 0.000000 0.000000 0.000000 0.000000 0.045075 0.000000
# 6 0.000000 0.000000 0.000000 0.000000 0.000000 0.045627
#
#
# Mechanical properties :
#
#
# Convention : Reuss Voigt Hill
#
# Bulk Modulus (GPa) = 24.49342 34.04829 29.27085
# Shear Modulus (GPa) = 26.99908 34.05030 30.52469
#
# Velocity S-wave (km/s) = 3.59186 4.03372 3.81919
# Velocity P-wave (km/s) = 5.37644 6.16153 5.78233
#
# Compressibility (1/GPa) = 0.04082730
#
# Stress axis : x y z
#
# Youngs Moduli (GPa) = 85.81228 31.61563 116.59344
#
# Poissons Ratio (x) = 0.09436 0.17677
# Poissons Ratio (y) = 0.25611 0.11842
# Poissons Ratio (z) = 0.13010 0.03211
#
# Static dielectric constant tensor:
#      x y z
#    x 1.722140 0.000000 0.000000 
#    y 0.000000 1.847420 0.000000 
#    z 0.000000 0.000000 1.715340 
# 
# From -- ./inp_files/2676.got.cif
#   From: 2010.05.17/outbox.cif.g08.bks.cpg/sg21_2_cif.got.tgz:2676.got - 2010.06.03 23:14:55.
