data_PCOD9324537
_publ_section_title
;
Structure prediction by ZEFSAII (Michael W. Deem and Ramdas Pophale) SiO2 
 PCOD9324537
Probable space group: C 2 2 2
;
_chemical_formula_sum "Si O2"
_cell_formula_units_Z 48
_cell_length_a 8.771191
_cell_length_b 36.013072
_cell_length_c 7.738501
_cell_angle_alpha 90.000000
_cell_angle_beta 90.000000
_cell_angle_gamma 90.000000
_cell_volume 2444.418605
_symmetry_space_group_name_H-M "C 2 2 2"
_symmetry_group_IT_number 21
_symmetry_cell_setting 'orthorhombic'
loop_
_space_group_symop_operation_xyz
x,y,z
-x,-y,z
x,-y,-z
-x,y,-z
1/2+x,1/2+y,z
1/2-x,1/2-y,z
1/2+x,1/2-y,-z
1/2-x,1/2+y,-z
loop_
_atom_site_type_symbol
_atom_site_label
_atom_site_fract_x
_atom_site_fract_y
_atom_site_fract_z
Si Si1 0.673978 0.079980 0.793758
Si Si2 0.826022 0.420020 0.206242
Si Si3 0.181826 0.291164 0.500000
Si Si4 0.318180 0.342403 0.204223
Si Si5 0.318180 0.342403 0.795777
Si Si6 0.173669 0.500000 0.295459
O O1 0.500000 0.081115 0.723043
O O2 0.765642 0.116292 0.739167
O O3 0.743431 0.039566 0.754260
O O4 0.664224 0.082158 0.000000
O O5 0.734358 0.383708 0.260833
O O6 0.756569 0.460434 0.245740
O O7 0.250000 0.250000 0.500000
O O8 0.239353 0.313169 0.330521
O O9 0.239353 0.313169 0.669479
O O10 0.000000 0.289771 0.500000
O O11 0.500000 0.339297 0.219160
O O12 0.278281 0.337374 0.000000
O O13 0.162406 0.500000 0.500000
O O14 0.000000 0.500000 0.219812
#
# Coordination Sequence:
#
# PCOD9324537 Si02
#       6
#     8   8   8   8   8   8
#     4   9  17  31  52  78 110 153 202 249 297 349
#     4   9  17  31  52  78 110 153 202 249 297 349
#     4  12  26  44  68  95 124 157 196 244 299 360
#     4  10  22  41  64  91 125 163 202 247 300 359
#     4  10  22  41  64  91 125 163 202 247 300 359
#     4   9  17  27  44  75 112 150 198 249 297 347
#
# _framework density 19.636572999999999
#
# number of rings (size 3 to 8) (size 9 to 14) (size 15 to 20)
#    0.000    2.167    0.000    3.000    2.333    4.667 
#    0.000    0.833    0.000    5.000    0.000    0.000 
#    0.000    0.000    0.000    0.000    0.000    0.000 
#
# Total GULP energy -133912.932752 kJ/mol
# GULP energy per Si atom -5579.705531 kJ/mol
# Density = 1.959188 g / cm^3
# Si number density = 19.636573 Si / 1000 Ang^3
#
#
#
# Elastic Constant Matrix: (Units=GPa)
#
#
# Indices 1 2 3 4 5 6 
#
# 1 86.1166 75.4138 51.7651 0.0000 0.0000 0.0000
# 2 75.4138 219.4242 76.9096 0.0000 0.0000 0.0000
# 3 51.7651 76.9096 82.9053 0.0000 0.0000 0.0000
# 4 0.0000 0.0000 0.0000 33.4239 0.0000 0.0000
# 5 0.0000 0.0000 0.0000 0.0000 22.4415 0.0000
# 6 0.0000 0.0000 0.0000 0.0000 0.0000 28.0776
#
#
#
# Elastic Compliance Matrix: (Units=1/GPa)
#
#
# Indices 1 2 3 4 5 6 
#
# 1 0.020522 -0.003796 -0.009292 0.000000 0.000000 0.000000
# 2 -0.003796 0.007456 -0.004546 0.000000 0.000000 0.000000
# 3 -0.009292 -0.004546 0.022081 0.000000 0.000000 0.000000
# 4 0.000000 0.000000 0.000000 0.029919 0.000000 0.000000
# 5 0.000000 0.000000 0.000000 0.000000 0.044560 0.000000
# 6 0.000000 0.000000 0.000000 0.000000 0.000000 0.035616
#
#
# Mechanical properties :
#
#
# Convention : Reuss Voigt Hill
#
# Bulk Modulus (GPa) = 67.61306 88.51370 78.06338
# Shear Modulus (GPa) = 24.95609 29.07910 27.01760
#
# Velocity S-wave (km/s) = 3.56883 3.85238 3.71331
# Velocity P-wave (km/s) = 7.17559 8.05987 7.63055
#
# Compressibility (1/GPa) = 0.01479004
#
# Stress axis : x y z
#
# Youngs Moduli (GPa) = 48.72783 134.12863 45.28791
#
# Poissons Ratio (x) = 0.50920 0.42082
# Poissons Ratio (y) = 0.18499 0.20588
# Poissons Ratio (z) = 0.45278 0.60974
#
# Static dielectric constant tensor:
#      x y z
#    x 1.685530 0.000000 0.000000 
#    y 0.000000 1.697670 0.000000 
#    z 0.000000 0.000000 1.688990 
# 
# From -- ./inp_files/11561.got.cif
#   From: 2010.05.17/outbox.cif.g08.bks.cpg/sg21_6_cif.got.tgz:11561.got - 2010.06.03 23:14:55.
