data_PCOD9324626
_publ_section_title
;
Structure prediction by ZEFSAII (Michael W. Deem and Ramdas Pophale) SiO2 
 PCOD9324626
Probable space group: C 2 2 2
;
_chemical_formula_sum "Si O2"
_cell_formula_units_Z 24
_cell_length_a 12.344336
_cell_length_b 10.130995
_cell_length_c 7.772687
_cell_angle_alpha 90.000000
_cell_angle_beta 90.000000
_cell_angle_gamma 90.000000
_cell_volume 972.055394
_symmetry_space_group_name_H-M "C 2 2 2"
_symmetry_group_IT_number 21
_symmetry_cell_setting 'orthorhombic'
loop_
_space_group_symop_operation_xyz
x,y,z
-x,-y,z
x,-y,-z
-x,y,-z
1/2+x,1/2+y,z
1/2-x,1/2-y,z
1/2+x,1/2-y,-z
1/2-x,1/2+y,-z
loop_
_atom_site_type_symbol
_atom_site_label
_atom_site_fract_x
_atom_site_fract_y
_atom_site_fract_z
Si Si1 0.344941 0.050666 0.697437
Si Si2 0.962154 0.295042 0.809419
Si Si3 0.882495 0.030040 0.702269
O O1 0.399594 0.933325 0.804946
O O2 0.221269 0.053108 0.762278
O O3 0.344288 0.000000 0.500000
O O4 0.425025 0.175832 0.707191
O O5 0.881032 0.186864 0.731706
O O6 0.000000 0.261480 0.000000
O O7 0.888397 0.000000 0.500000
O O8 0.000000 0.000000 0.780466
#
# Coordination Sequence:
#
# PCOD9324626 Si02
#       3
#     8   8   8
#     4  10  22  42  74  99 129 182 234 279 338 408
#     4  11  23  44  68 100 141 176 222 285 350 410
#     4  10  24  43  66  99 136 173 233 282 331 406
#
# _framework density 24.689952999999999
#
# number of rings (size 3 to 8) (size 9 to 14) (size 15 to 20)
#    0.000    1.667    0.000    5.000    9.333    2.000 
#   18.000    0.000    0.000    0.000    0.000    0.000 
#    0.000    0.000    0.000    0.000    0.000    0.000 
#
# Total GULP energy -67014.633191 kJ/mol
# GULP energy per Si atom -5584.552766 kJ/mol
# Density = 2.463376 g / cm^3
# Si number density = 24.689953 Si / 1000 Ang^3
#
#
#
# Elastic Constant Matrix: (Units=GPa)
#
#
# Indices 1 2 3 4 5 6 
#
# 1 186.0100 -1.3842 3.0014 0.0000 0.0000 0.0000
# 2 -1.3842 38.8562 16.6613 0.0000 0.0000 0.0000
# 3 3.0014 16.6613 94.8216 0.0000 0.0000 0.0000
# 4 0.0000 0.0000 0.0000 35.8012 0.0000 0.0000
# 5 0.0000 0.0000 0.0000 0.0000 -162.8403 0.0000
# 6 0.0000 0.0000 0.0000 0.0000 0.0000 27.8795
#
#
#
# Elastic Compliance Matrix: (Units=1/GPa)
#
#
# Indices 1 2 3 4 5 6 
#
# 1 0.005382 0.000286 -0.000221 0.000000 0.000000 0.000000
# 2 0.000286 0.027848 -0.004902 0.000000 0.000000 0.000000
# 3 -0.000221 -0.004902 0.011415 0.000000 0.000000 0.000000
# 4 0.000000 0.000000 0.000000 0.027932 0.000000 0.000000
# 5 0.000000 0.000000 0.000000 0.000000 -0.006141 0.000000
# 6 0.000000 0.000000 0.000000 0.000000 0.000000 0.035869
#
#
# Mechanical properties :
#
#
# Convention : Reuss Voigt Hill
#
# Bulk Modulus (GPa) = 28.59500 39.58276 34.08888
# Shear Modulus (GPa) = 40.44178 0.26202 20.35190
#
# Velocity S-wave (km/s) = 4.05159 0.32612 2.87418
# Velocity P-wave (km/s) = 5.78740 4.02598 4.98510
#
# Compressibility (1/GPa) = 0.03497115
#
# Stress axis : x y z
#
# Youngs Moduli (GPa) = 185.81326 35.90893 87.60775
#
# Poissons Ratio (x) = -0.01028 0.01933
# Poissons Ratio (y) = -0.05321 0.42948
# Poissons Ratio (z) = 0.04100 0.17604
#
# Static dielectric constant tensor:
#      x y z
#    x 2.060860 0.000000 0.000000 
#    y 0.000000 2.159300 0.000000 
#    z 0.000000 0.000000 1.992970 
# 
# From -- ./inp_files/11843.got.cif
#   From: 2010.05.17/outbox.cif.g08.bks.cpg/sg21_6_cif.got.tgz:11843.got - 2010.06.03 23:14:55.
