data_PCOD9324085
_publ_section_title
;
Structure prediction by ZEFSAII (Michael W. Deem and Ramdas Pophale) SiO2 
 PCOD9324085
Probable space group: C 2 2 2
;
_chemical_formula_sum "Si O2"
_cell_formula_units_Z 32
_cell_length_a 7.227376
_cell_length_b 36.087033
_cell_length_c 5.273467
_cell_angle_alpha 90.000000
_cell_angle_beta 90.000000
_cell_angle_gamma 90.000000
_cell_volume 1375.396955
_symmetry_space_group_name_H-M "C 2 2 2"
_symmetry_group_IT_number 21
_symmetry_cell_setting 'orthorhombic'
loop_
_space_group_symop_operation_xyz
x,y,z
-x,-y,z
x,-y,-z
-x,y,-z
1/2+x,1/2+y,z
1/2-x,1/2-y,z
1/2+x,1/2-y,-z
1/2-x,1/2+y,-z
loop_
_atom_site_type_symbol
_atom_site_label
_atom_site_fract_x
_atom_site_fract_y
_atom_site_fract_z
Si Si1 0.707892 0.983433 0.752760
Si Si2 0.377823 0.592475 0.258088
Si Si3 0.276993 0.169713 0.531938
Si Si4 0.219246 0.292455 0.027895
O O1 0.723043 0.939329 0.770952
O O2 0.500000 0.000000 0.752555
O O3 0.792540 0.000000 0.500000
O O4 0.800122 0.000000 0.000000
O O5 0.500000 0.580580 0.500000
O O6 0.289290 0.631044 0.350374
O O7 0.500000 0.595515 0.000000
O O8 0.500000 0.169163 0.500000
O O9 0.208627 0.180614 0.250491
O O10 0.213090 0.199410 0.743394
O O11 0.250000 0.250000 0.101941
O O12 0.000000 0.298571 0.000000
#
# Coordination Sequence:
#
# PCOD9324085 Si02
#       4
#     8   8   8   8
#     4  10  23  43  67  96 126 174 228 256 341 405
#     4  12  26  43  67 101 137 168 223 291 340 385
#     4  10  23  42  64  93 133 180 227 263 337 417
#     4  10  21  39  63  96 129 175 225 276 325 398
#
# _framework density 23.266010000000001
#
# number of rings (size 3 to 8) (size 9 to 14) (size 15 to 20)
#    0.000    1.500    0.000    3.750    3.500    6.000 
#    9.000    0.000    0.000    0.000    0.000    0.000 
#    0.000    0.000    0.000    0.000    0.000    0.000 
#
# Total GULP energy -89364.788416 kJ/mol
# GULP energy per Si atom -5585.299276 kJ/mol
# Density = 2.321306 g / cm^3
# Si number density = 23.266010 Si / 1000 Ang^3
#
#
#
# Elastic Constant Matrix: (Units=GPa)
#
#
# Indices 1 2 3 4 5 6 
#
# 1 103.0600 14.3902 35.8679 0.0000 0.0000 0.0000
# 2 14.3902 155.7041 58.7315 0.0000 0.0000 0.0000
# 3 35.8679 58.7315 220.9575 0.0000 0.0000 0.0000
# 4 0.0000 0.0000 0.0000 33.0939 0.0000 0.0000
# 5 0.0000 0.0000 0.0000 0.0000 -16.5211 0.0000
# 6 0.0000 0.0000 0.0000 0.0000 0.0000 34.4951
#
#
#
# Elastic Compliance Matrix: (Units=1/GPa)
#
#
# Indices 1 2 3 4 5 6 
#
# 1 0.010302 -0.000357 -0.001577 0.000000 0.000000 0.000000
# 2 -0.000357 0.007150 -0.001843 0.000000 0.000000 0.000000
# 3 -0.001577 -0.001843 0.005272 0.000000 0.000000 0.000000
# 4 0.000000 0.000000 0.000000 0.030217 0.000000 0.000000
# 5 0.000000 0.000000 0.000000 0.000000 -0.060529 0.000000
# 6 0.000000 0.000000 0.000000 0.000000 0.000000 0.028990
#
#
# Mechanical properties :
#
#
# Convention : Reuss Voigt Hill
#
# Bulk Modulus (GPa) = 65.92090 77.52231 71.72160
# Shear Modulus (GPa) = 147.00338 34.92905 90.96621
#
# Velocity S-wave (km/s) = 7.95744 3.87885 6.25965
# Velocity P-wave (km/s) = 10.62182 7.31115 9.11800
#
# Compressibility (1/GPa) = 0.01516970
#
# Stress axis : x y z
#
# Youngs Moduli (GPa) = 97.06924 139.85045 189.69570
#
# Poissons Ratio (x) = 0.04994 0.29922
# Poissons Ratio (y) = 0.03466 0.34955
# Poissons Ratio (z) = 0.15312 0.25770
#
# Static dielectric constant tensor:
#      x y z
#    x 1.884770 0.000000 0.000000 
#    y 0.000000 1.863200 0.000000 
#    z 0.000000 0.000000 1.887720 
# 
# From -- ./inp_files/1572.got.cif
#   From: 2010.05.17/outbox.cif.g08.bks.cpg/sg21_1_cif.got.tgz:1572.got - 2010.06.03 23:14:55.
