data_PCOD9324248
_publ_section_title
;
Structure prediction by ZEFSAII (Michael W. Deem and Ramdas Pophale) SiO2 
 PCOD9324248
Probable space group: C 2 2 2
;
_chemical_formula_sum "Si O2"
_cell_formula_units_Z 32
_cell_length_a 17.164339
_cell_length_b 8.604872
_cell_length_c 10.739932
_cell_angle_alpha 90.000000
_cell_angle_beta 90.000000
_cell_angle_gamma 90.000000
_cell_volume 1586.255093
_symmetry_space_group_name_H-M "C 2 2 2"
_symmetry_group_IT_number 21
_symmetry_cell_setting 'orthorhombic'
loop_
_space_group_symop_operation_xyz
x,y,z
-x,-y,z
x,-y,-z
-x,y,-z
1/2+x,1/2+y,z
1/2-x,1/2-y,z
1/2+x,1/2-y,-z
1/2-x,1/2+y,-z
loop_
_atom_site_type_symbol
_atom_site_label
_atom_site_fract_x
_atom_site_fract_y
_atom_site_fract_z
Si Si1 0.854500 0.167409 0.334050
Si Si2 0.250000 0.250000 0.439502
Si Si3 0.000000 0.000000 0.780334
Si Si4 0.201713 0.512887 0.253815
Si Si5 0.500000 0.739685 0.000000
Si Si6 0.125689 0.500000 0.000000
O O1 0.814832 0.172283 0.470752
O O2 0.856172 0.349787 0.298601
O O3 0.787353 0.089099 0.249691
O O4 0.932122 0.072147 0.305762
O O5 0.208212 0.376413 0.353755
O O6 0.021695 0.863797 0.879432
O O7 0.176155 0.457819 0.119433
O O8 0.428650 0.853168 0.031145
#
# Coordination Sequence:
#
# PCOD9324248 Si02
#       6
#     8   4   4   8   4   4
#     4  10  21  42  64 100 134 180 226 282 338 424
#     4  10  22  42  70 102 138 172 234 292 334 406
#     4  11  22  42  67  96 142 184 224 286 358 411
#     4  10  22  40  68  98 133 177 232 283 341 401
#     4  10  24  40  62  98 144 176 228 292 354 410
#     4  11  22  42  66  97 136 180 230 291 342 424
#
# _framework density 20.173300000000001
#
# number of rings (size 3 to 8) (size 9 to 14) (size 15 to 20)
#    0.000    2.000    2.500    3.000    3.500    4.000 
#    0.000    2.500    0.000    0.000    0.000    0.000 
#    0.000    0.000    0.000    0.000    0.000    0.000 
#
# Total GULP energy -89261.978574 kJ/mol
# GULP energy per Si atom -5578.873661 kJ/mol
# Density = 2.012738 g / cm^3
# Si number density = 20.173300 Si / 1000 Ang^3
#
#
#
# Elastic Constant Matrix: (Units=GPa)
#
#
# Indices 1 2 3 4 5 6 
#
# 1 113.0079 61.0494 68.8969 0.0000 0.0000 0.0000
# 2 61.0494 120.6551 58.9614 0.0000 0.0000 0.0000
# 3 68.8969 58.9614 151.0185 0.0000 0.0000 0.0000
# 4 0.0000 0.0000 0.0000 31.4914 0.0000 0.0000
# 5 0.0000 0.0000 0.0000 0.0000 -2.2445 0.0000
# 6 0.0000 0.0000 0.0000 0.0000 0.0000 32.1579
#
#
#
# Elastic Compliance Matrix: (Units=1/GPa)
#
#
# Indices 1 2 3 4 5 6 
#
# 1 0.014361 -0.005023 -0.004591 0.000000 0.000000 0.000000
# 2 -0.005023 0.011999 -0.002393 0.000000 0.000000 0.000000
# 3 -0.004591 -0.002393 0.009650 0.000000 0.000000 0.000000
# 4 0.000000 0.000000 0.000000 0.031755 0.000000 0.000000
# 5 0.000000 0.000000 0.000000 0.000000 -0.445542 0.000000
# 6 0.000000 0.000000 0.000000 0.000000 0.000000 0.031097
#
#
# Mechanical properties :
#
#
# Convention : Reuss Voigt Hill
#
# Bulk Modulus (GPa) = 83.35490 84.72189 84.03839
# Shear Modulus (GPa) = -15.69036 25.33255 4.82109
#
# Velocity S-wave (km/s) = -2.79189 3.54750 1.54759
# Velocity P-wave (km/s) = 5.56922 7.67254 6.70388
#
# Compressibility (1/GPa) = 0.01199690
#
# Stress axis : x y z
#
# Youngs Moduli (GPa) = 69.63116 83.33874 103.62294
#
# Poissons Ratio (x) = 0.41863 0.47570
# Poissons Ratio (y) = 0.34977 0.24798
# Poissons Ratio (z) = 0.31965 0.19944
#
# Static dielectric constant tensor:
#      x y z
#    x 1.696500 0.000000 0.000000 
#    y 0.000000 1.775030 0.000000 
#    z 0.000000 0.000000 1.728640 
# 
# From -- ./inp_files/25781.got.cif
#   From: 2010.05.17/outbox.cif.g08.bks.cpg/sg21_13_cif.got.tgz:25781.got - 2010.06.03 23:14:55.
