data_PCOD9324027
_publ_section_title
;
Structure prediction by ZEFSAII (Michael W. Deem and Ramdas Pophale) SiO2 
 PCOD9324027
Probable space group: C 2 2 2
;
_chemical_formula_sum "Si O2"
_cell_formula_units_Z 34
_cell_length_a 4.982669
_cell_length_b 18.330524
_cell_length_c 18.622644
_cell_angle_alpha 90.000000
_cell_angle_beta 90.000000
_cell_angle_gamma 90.000000
_cell_volume 1700.897955
_symmetry_space_group_name_H-M "C 2 2 2"
_symmetry_group_IT_number 21
_symmetry_cell_setting 'orthorhombic'
loop_
_space_group_symop_operation_xyz
x,y,z
-x,-y,z
x,-y,-z
-x,y,-z
1/2+x,1/2+y,z
1/2-x,1/2-y,z
1/2+x,1/2-y,-z
1/2-x,1/2+y,-z
loop_
_atom_site_type_symbol
_atom_site_label
_atom_site_fract_x
_atom_site_fract_y
_atom_site_fract_z
Si Si1 0.500000 0.696238 0.000000
Si Si2 0.861619 0.391105 0.378210
Si Si3 0.001296 0.195188 0.157784
Si Si4 0.500000 0.000000 0.500000
Si Si5 0.750000 0.250000 0.455489
Si Si6 0.621451 0.419317 0.717294
O O1 0.750000 0.750000 0.003877
O O2 0.474205 0.659402 0.077964
O O3 0.904109 0.310871 0.409187
O O4 0.570507 0.389129 0.344165
O O5 0.851050 0.446949 0.444593
O O6 0.081018 0.414941 0.317873
O O7 0.250000 0.250000 0.157156
O O8 0.068753 0.132968 0.215120
O O9 0.750000 0.250000 0.172403
O O10 0.500000 0.284184 0.500000
O O11 0.500000 0.500000 0.732148
#
# Coordination Sequence:
#
# PCOD9324027 Si02
#       6
#     4   8   8   2   4   8
#     4   8  16  34  59  90 123 158 206 246 294 366
#     4  12  27  42  67  87 124 161 209 257 320 378
#     4  10  21  38  64  93 124 165 205 253 305 367
#     4  12  24  50  64  86 116 174 208 250 320 386
#     4  12  26  44  64  96 120 152 210 280 318 376
#     4  12  25  43  59  94 125 164 202 260 312 377
#
# _framework density 19.989443000000001
#
# number of rings (size 3 to 8) (size 9 to 14) (size 15 to 20)
#    0.000    0.941    3.529    2.824    4.941    0.941 
#    0.000    0.588    0.000    0.000    0.000   13.176 
#    0.000    0.000    0.000    0.000    0.000    0.000 
#
# Total GULP energy -94764.143628 kJ/mol
# GULP energy per Si atom -5574.361390 kJ/mol
# Density = 1.994395 g / cm^3
# Si number density = 19.989443 Si / 1000 Ang^3
#
#
#
# Elastic Constant Matrix: (Units=GPa)
#
#
# Indices 1 2 3 4 5 6 
#
# 1 99.4157 3.2186 -3.0306 0.0000 0.0000 0.0000
# 2 3.2186 97.2780 50.8451 0.0000 0.0000 0.0000
# 3 -3.0306 50.8451 127.5934 0.0000 0.0000 0.0000
# 4 0.0000 0.0000 0.0000 39.2452 0.0000 0.0000
# 5 0.0000 0.0000 0.0000 0.0000 34.1214 0.0000
# 6 0.0000 0.0000 0.0000 0.0000 0.0000 11.0933
#
#
#
# Elastic Compliance Matrix: (Units=1/GPa)
#
#
# Indices 1 2 3 4 5 6 
#
# 1 0.010092 -0.000580 0.000471 0.000000 0.000000 0.000000
# 2 -0.000580 0.013018 -0.005201 0.000000 0.000000 0.000000
# 3 0.000471 -0.005201 0.009921 0.000000 0.000000 0.000000
# 4 0.000000 0.000000 0.000000 0.025481 0.000000 0.000000
# 5 0.000000 0.000000 0.000000 0.000000 0.029307 0.000000
# 6 0.000000 0.000000 0.000000 0.000000 0.000000 0.090145
#
#
# Mechanical properties :
#
#
# Convention : Reuss Voigt Hill
#
# Bulk Modulus (GPa) = 44.62300 47.37259 45.99780
# Shear Modulus (GPa) = 25.50318 35.10891 30.30605
#
# Velocity S-wave (km/s) = 3.57575 4.19546 3.89794
# Velocity P-wave (km/s) = 6.27852 6.87164 6.58176
#
# Compressibility (1/GPa) = 0.02240997
#
# Stress axis : x y z
#
# Youngs Moduli (GPa) = 99.08936 76.81941 100.79409
#
# Poissons Ratio (x) = 0.04455 -0.04746
# Poissons Ratio (y) = 0.05747 0.52425
# Poissons Ratio (z) = -0.04665 0.39955
#
# Static dielectric constant tensor:
#      x y z
#    x 1.736290 0.000000 0.000000 
#    y 0.000000 1.378240 0.000000 
#    z 0.000000 0.000000 1.788490 
# 
# From -- ./inp_files/34627.got.cif
#   From: 2010.05.17/outbox.cif.g08.bks.cpg/sg21_18_cif.got.tgz:34627.got - 2010.06.03 23:14:55.
