data_PCOD9324640
_publ_section_title
;
Structure prediction by ZEFSAII (Michael W. Deem and Ramdas Pophale) SiO2 
 PCOD9324640
Probable space group: C 2 2 2
;
_chemical_formula_sum "Si O2"
_cell_formula_units_Z 64
_cell_length_a 16.745825
_cell_length_b 14.706053
_cell_length_c 11.644499
_cell_angle_alpha 90.000000
_cell_angle_beta 90.000000
_cell_angle_gamma 90.000000
_cell_volume 2867.632430
_symmetry_space_group_name_H-M "C 2 2 2"
_symmetry_group_IT_number 21
_symmetry_cell_setting 'orthorhombic'
loop_
_space_group_symop_operation_xyz
x,y,z
-x,-y,z
x,-y,-z
-x,y,-z
1/2+x,1/2+y,z
1/2-x,1/2-y,z
1/2+x,1/2-y,-z
1/2-x,1/2+y,-z
loop_
_atom_site_type_symbol
_atom_site_label
_atom_site_fract_x
_atom_site_fract_y
_atom_site_fract_z
Si Si1 0.727865 0.647337 0.823125
Si Si2 0.459888 0.906198 0.875335
Si Si3 0.036088 0.208474 0.216789
Si Si4 0.278113 0.584839 0.431611
Si Si5 0.385854 0.603734 0.988570
Si Si6 0.956842 0.915296 0.622990
Si Si7 0.703676 0.662403 0.329090
Si Si8 0.275155 0.949044 0.857827
O O1 0.750000 0.750000 0.854483
O O2 0.746202 0.632820 0.687189
O O3 0.773287 0.557842 0.872275
O O4 0.640781 0.636053 0.884732
O O5 0.473061 0.815557 0.801880
O O6 0.363978 0.916465 0.884577
O O7 0.500000 0.000000 0.829837
O O8 0.500000 0.892662 0.000000
O O9 0.056209 0.162137 0.093158
O O10 0.113320 0.177134 0.290667
O O11 0.965697 0.170837 0.296483
O O12 0.237378 0.500000 0.500000
O O13 0.367230 0.553749 0.396949
O O14 0.289799 0.655862 0.534721
O O15 0.299446 0.597571 0.923261
O O16 0.413227 0.500000 0.000000
O O17 0.000000 0.901406 0.500000
O O18 0.000000 0.000000 0.683659
O O19 0.750000 0.750000 0.283449
O O20 0.748390 0.576800 0.271477
#
# Coordination Sequence:
#
# PCOD9324640 Si02
#       8
#     8   8   8   8   8   8   8   8
#     4  11  25  39  66 102 136 171 222 295 346 397
#     4  11  27  43  66  94 133 188 240 271 331 427
#     4  11  23  43  67 101 131 185 227 279 343 412
#     4  12  22  40  64 100 135 173 221 273 345 414
#     4   9  23  39  68  98 138 172 226 292 350 403
#     4  11  22  38  66  97 137 179 215 269 343 428
#     4  11  20  38  73  96 126 168 234 274 336 396
#     4  10  22  43  66  97 133 177 222 292 335 398
#
# _framework density 22.318062000000001
#
# number of rings (size 3 to 8) (size 9 to 14) (size 15 to 20)
#    0.000    1.250    5.000    0.375   10.500    2.000 
#    0.000    0.000    0.000    0.375    0.000    0.000 
#    0.000    0.000    0.000    0.000    0.000    0.000 
#
# Total GULP energy -178490.181641 kJ/mol
# GULP energy per Si atom -5577.818176 kJ/mol
# Density = 2.226727 g / cm^3
# Si number density = 22.318062 Si / 1000 Ang^3
#
#
#
# Elastic Constant Matrix: (Units=GPa)
#
#
# Indices 1 2 3 4 5 6 
#
# 1 51.6827 -2.4230 13.8105 0.0000 0.0000 0.0000
# 2 -2.4230 138.2718 19.5431 0.0000 0.0000 0.0000
# 3 13.8105 19.5431 110.0371 0.0000 0.0000 0.0000
# 4 0.0000 0.0000 0.0000 22.7183 0.0000 0.0000
# 5 0.0000 0.0000 0.0000 0.0000 3.6562 0.0000
# 6 0.0000 0.0000 0.0000 0.0000 0.0000 19.6952
#
#
#
# Elastic Compliance Matrix: (Units=1/GPa)
#
#
# Indices 1 2 3 4 5 6 
#
# 1 0.020091 0.000727 -0.002651 0.000000 0.000000 0.000000
# 2 0.000727 0.007445 -0.001413 0.000000 0.000000 0.000000
# 3 -0.002651 -0.001413 0.009672 0.000000 0.000000 0.000000
# 4 0.000000 0.000000 0.000000 0.044017 0.000000 0.000000
# 5 0.000000 0.000000 0.000000 0.000000 0.273505 0.000000
# 6 0.000000 0.000000 0.000000 0.000000 0.000000 0.050774
#
#
# Mechanical properties :
#
#
# Convention : Reuss Voigt Hill
#
# Bulk Modulus (GPa) = 32.75180 40.20585 36.47883
# Shear Modulus (GPa) = 11.83836 27.15136 19.49486
#
# Velocity S-wave (km/s) = 2.30562 3.49171 2.95871
# Velocity P-wave (km/s) = 4.66848 5.85748 5.29645
#
# Compressibility (1/GPa) = 0.03053267
#
# Stress axis : x y z
#
# Youngs Moduli (GPa) = 49.77300 134.32494 103.39604
#
# Poissons Ratio (x) = -0.09761 0.27407
# Poissons Ratio (y) = -0.03617 0.14614
# Poissons Ratio (z) = 0.13193 0.18986
#
# Static dielectric constant tensor:
#      x y z
#    x 1.868660 0.000000 0.000000 
#    y 0.000000 1.867010 0.000000 
#    z 0.000000 0.000000 1.936590 
# 
# From -- ./inp_files/26251.got.cif
#   From: 2010.05.17/outbox.cif.g08.bks.cpg/sg21_14_cif.got.tgz:26251.got - 2010.06.03 23:14:55.
