data_PCOD9324091
_publ_section_title
;
Structure prediction by ZEFSAII (Michael W. Deem and Ramdas Pophale) SiO2 
 PCOD9324091
Probable space group: C 2 2 2
;
_chemical_formula_sum "Si O2"
_cell_formula_units_Z 40
_cell_length_a 18.554956
_cell_length_b 9.453018
_cell_length_c 10.856694
_cell_angle_alpha 90.000000
_cell_angle_beta 90.000000
_cell_angle_gamma 90.000000
_cell_volume 1904.267744
_symmetry_space_group_name_H-M "C 2 2 2"
_symmetry_group_IT_number 21
_symmetry_cell_setting 'orthorhombic'
loop_
_space_group_symop_operation_xyz
x,y,z
-x,-y,z
x,-y,-z
-x,y,-z
1/2+x,1/2+y,z
1/2-x,1/2-y,z
1/2+x,1/2-y,-z
1/2-x,1/2+y,-z
loop_
_atom_site_type_symbol
_atom_site_label
_atom_site_fract_x
_atom_site_fract_y
_atom_site_fract_z
Si Si1 0.809522 0.530643 0.360201
Si Si2 0.271675 0.413503 0.116467
Si Si3 0.926929 0.286156 0.334330
Si Si4 0.916268 0.225151 0.615000
Si Si5 0.080217 0.986579 0.192020
O O1 0.782118 0.500000 0.500000
O O2 0.754746 0.522767 0.247313
O O3 0.874992 0.420671 0.337477
O O4 0.844858 0.686231 0.355313
O O5 0.250000 0.250000 0.107429
O O6 0.357466 0.436624 0.117288
O O7 0.241321 0.500000 0.000000
O O8 0.917809 0.215057 0.468511
O O9 0.013272 0.310737 0.334979
O O10 0.906285 0.176207 0.227575
O O11 0.920897 0.076009 0.680973
O O12 0.000000 0.000000 0.139719
#
# Coordination Sequence:
#
# PCOD9324091 Si02
#       5
#     8   8   8   8   8
#     4  10  21  39  65  98 131 171 217 273 329 394
#     4  12  28  48  68  92 134 178 221 276 337 398
#     4   9  18  30  61  97 133 170 215 260 333 394
#     4   9  16  34  57  95 137 173 208 270 324 390
#     4  10  21  39  64  92 125 170 221 271 321 391
#
# _framework density 21.005451000000001
#
# number of rings (size 3 to 8) (size 9 to 14) (size 15 to 20)
#    0.000    2.000    2.000    1.200    2.800    6.800 
#    0.000    0.000    0.000    2.400    0.000    0.000 
#    0.000    0.000    0.000    0.000    0.000    0.000 
#
# Total GULP energy -111624.520052 kJ/mol
# GULP energy per Si atom -5581.226003 kJ/mol
# Density = 2.095764 g / cm^3
# Si number density = 21.005451 Si / 1000 Ang^3
#
#
#
# Elastic Constant Matrix: (Units=GPa)
#
#
# Indices 1 2 3 4 5 6 
#
# 1 88.1125 21.3284 40.8009 0.0000 0.0000 0.0000
# 2 21.3284 75.4253 44.7138 0.0000 0.0000 0.0000
# 3 40.8009 44.7138 84.3335 0.0000 0.0000 0.0000
# 4 0.0000 0.0000 0.0000 17.8219 0.0000 0.0000
# 5 0.0000 0.0000 0.0000 0.0000 2.1225 0.0000
# 6 0.0000 0.0000 0.0000 0.0000 0.0000 22.9406
#
#
#
# Elastic Compliance Matrix: (Units=1/GPa)
#
#
# Indices 1 2 3 4 5 6 
#
# 1 0.014626 0.000086 -0.007122 0.000000 0.000000 0.000000
# 2 0.000086 0.019336 -0.010294 0.000000 0.000000 0.000000
# 3 -0.007122 -0.010294 0.020761 0.000000 0.000000 0.000000
# 4 0.000000 0.000000 0.000000 0.056111 0.000000 0.000000
# 5 0.000000 0.000000 0.000000 0.000000 0.471147 0.000000
# 6 0.000000 0.000000 0.000000 0.000000 0.000000 0.043591
#
#
# Mechanical properties :
#
#
# Convention : Reuss Voigt Hill
#
# Bulk Modulus (GPa) = 49.83964 51.28415 50.56189
# Shear Modulus (GPa) = 7.49717 17.97888 12.73803
#
# Velocity S-wave (km/s) = 1.89127 2.92878 2.46522
# Velocity P-wave (km/s) = 5.34301 5.99205 5.67681
#
# Compressibility (1/GPa) = 0.02006435
#
# Stress axis : x y z
#
# Youngs Moduli (GPa) = 68.37111 51.71660 48.16735
#
# Poissons Ratio (x) = -0.00445 0.34304
# Poissons Ratio (y) = -0.00588 0.49582
# Poissons Ratio (z) = 0.48692 0.53235
#
# Static dielectric constant tensor:
#      x y z
#    x 1.801710 0.000000 0.000000 
#    y 0.000000 1.720900 0.000000 
#    z 0.000000 0.000000 1.780360 
# 
# From -- ./inp_files/22263.got.cif
#   From: 2010.05.17/outbox.cif.g08.bks.cpg/sg21_12_cif.got.tgz:22263.got - 2010.06.03 23:14:55.
