data_PCOD9324559
_publ_section_title
;
Structure prediction by ZEFSAII (Michael W. Deem and Ramdas Pophale) SiO2 
 PCOD9324559
Probable space group: C 2 2 2
;
_chemical_formula_sum "Si O2"
_cell_formula_units_Z 32
_cell_length_a 11.144083
_cell_length_b 22.229409
_cell_length_c 5.916794
_cell_angle_alpha 90.000000
_cell_angle_beta 90.000000
_cell_angle_gamma 90.000000
_cell_volume 1465.745953
_symmetry_space_group_name_H-M "C 2 2 2"
_symmetry_group_IT_number 21
_symmetry_cell_setting 'orthorhombic'
loop_
_space_group_symop_operation_xyz
x,y,z
-x,-y,z
x,-y,-z
-x,y,-z
1/2+x,1/2+y,z
1/2-x,1/2-y,z
1/2+x,1/2-y,-z
1/2-x,1/2+y,-z
loop_
_atom_site_type_symbol
_atom_site_label
_atom_site_fract_x
_atom_site_fract_y
_atom_site_fract_z
Si Si1 0.712714 0.946643 0.817669
Si Si2 0.360251 0.645651 0.444770
Si Si3 0.500000 0.083420 0.500000
Si Si4 0.166019 0.344127 0.172516
Si Si5 0.250000 0.250000 0.872267
O O1 0.820939 0.918720 0.667294
O O2 0.599231 0.952693 0.647812
O O3 0.676990 0.892241 0.976840
O O4 0.735129 0.000000 0.000000
O O5 0.500000 0.647995 0.500000
O O6 0.285043 0.654454 0.674088
O O7 0.315038 0.699700 0.280810
O O8 0.434702 0.129582 0.332363
O O9 0.156001 0.281671 0.042115
#
# Coordination Sequence:
#
# PCOD9324559 Si02
#       5
#     8   8   4   8   4
#     4  10  23  43  69 100 137 181 229 291 346 416
#     4  10  23  46  66  99 139 182 238 286 351 425
#     4  10  22  41  66  98 140 170 232 283 356 418
#     4  10  22  43  61  99 136 176 229 283 350 417
#     4  10  22  44  62  98 134 182 232 286 352 420
#
# _framework density 21.831889
#
# number of rings (size 3 to 8) (size 9 to 14) (size 15 to 20)
#    0.000    2.000    0.000    1.500    0.000   11.000 
#   54.000    3.750    0.000    1.500    0.000    0.000 
#    0.000    0.000    0.000    0.000    0.000    0.000 
#
# Total GULP energy -89281.802474 kJ/mol
# GULP energy per Si atom -5580.112655 kJ/mol
# Density = 2.178220 g / cm^3
# Si number density = 21.831889 Si / 1000 Ang^3
#
#
#
# Elastic Constant Matrix: (Units=GPa)
#
#
# Indices 1 2 3 4 5 6 
#
# 1 153.0937 48.1343 71.5911 0.0000 0.0000 0.0000
# 2 48.1343 116.0248 59.1677 0.0000 0.0000 0.0000
# 3 71.5911 59.1677 149.8798 0.0000 0.0000 0.0000
# 4 0.0000 0.0000 0.0000 56.0626 0.0000 0.0000
# 5 0.0000 0.0000 0.0000 0.0000 11.8211 0.0000
# 6 0.0000 0.0000 0.0000 0.0000 0.0000 8.0397
#
#
#
# Elastic Compliance Matrix: (Units=1/GPa)
#
#
# Indices 1 2 3 4 5 6 
#
# 1 0.008723 -0.001871 -0.003428 0.000000 0.000000 0.000000
# 2 -0.001871 0.011192 -0.003525 0.000000 0.000000 0.000000
# 3 -0.003428 -0.003525 0.009701 0.000000 0.000000 0.000000
# 4 0.000000 0.000000 0.000000 0.017837 0.000000 0.000000
# 5 0.000000 0.000000 0.000000 0.000000 0.084595 0.000000
# 6 0.000000 0.000000 0.000000 0.000000 0.000000 0.124383
#
#
# Mechanical properties :
#
#
# Convention : Reuss Voigt Hill
#
# Bulk Modulus (GPa) = 83.54808 86.30937 84.92873
# Shear Modulus (GPa) = 17.98118 31.19170 24.58644
#
# Velocity S-wave (km/s) = 2.87299 3.78394 3.35949
# Velocity P-wave (km/s) = 7.02548 7.66227 7.35077
#
# Compressibility (1/GPa) = 0.01196916
#
# Stress axis : x y z
#
# Youngs Moduli (GPa) = 114.63609 89.34588 103.08177
#
# Poissons Ratio (x) = 0.16714 0.35339
# Poissons Ratio (y) = 0.21445 0.36335
# Poissons Ratio (z) = 0.39300 0.31493
#
# Static dielectric constant tensor:
#      x y z
#    x 1.832170 0.000000 0.000000 
#    y 0.000000 1.873160 0.000000 
#    z 0.000000 0.000000 1.856900 
# 
# From -- ./inp_files/2417.got.cif
#   From: 2010.05.17/outbox.cif.g08.bks.cpg/sg21_2_cif.got.tgz:2417.got - 2010.06.03 23:14:55.
