data_PCOD9324678
_publ_section_title
;
Structure prediction by ZEFSAII (Michael W. Deem and Ramdas Pophale) SiO2 
 PCOD9324678
Probable space group: C 2 2 2
;
_chemical_formula_sum "Si O2"
_cell_formula_units_Z 48
_cell_length_a 12.362889
_cell_length_b 18.049899
_cell_length_c 9.164755
_cell_angle_alpha 90.000000
_cell_angle_beta 90.000000
_cell_angle_gamma 90.000000
_cell_volume 2045.104977
_symmetry_space_group_name_H-M "C 2 2 2"
_symmetry_group_IT_number 21
_symmetry_cell_setting 'orthorhombic'
loop_
_space_group_symop_operation_xyz
x,y,z
-x,-y,z
x,-y,-z
-x,y,-z
1/2+x,1/2+y,z
1/2-x,1/2-y,z
1/2+x,1/2-y,-z
1/2-x,1/2+y,-z
loop_
_atom_site_type_symbol
_atom_site_label
_atom_site_fract_x
_atom_site_fract_y
_atom_site_fract_z
Si Si1 0.684992 0.175025 0.793748
Si Si2 0.215114 0.574815 0.049932
Si Si3 0.863078 0.713518 0.763393
Si Si4 0.500000 0.774141 0.000000
Si Si5 0.183532 0.122104 0.446081
Si Si6 0.124005 0.026101 0.716651
Si Si7 0.500000 0.264611 0.500000
O O1 0.750000 0.250000 0.814586
O O2 0.568984 0.183012 0.874230
O O3 0.705346 0.154303 0.623957
O O4 0.741309 0.116806 0.901283
O O5 0.156432 0.633556 0.159193
O O6 0.320610 0.546830 0.133345
O O7 0.152377 0.500000 0.000000
O O8 0.750000 0.750000 0.719710
O O9 0.912414 0.763650 0.895988
O O10 0.939135 0.718158 0.623546
O O11 0.155243 0.094955 0.609741
O O12 0.088967 0.182516 0.420413
O O13 0.174651 0.045673 0.359238
O O14 0.000000 0.000000 0.725410
#
# Coordination Sequence:
#
# PCOD9324678 Si02
#       7
#     8   8   8   4   8   8   4
#     4  11  24  45  68 105 144 194 253 310 367 436
#     4  11  23  44  67 100 144 197 243 298 361 430
#     4  11  26  45  72 111 151 193 247 310 368 437
#     4  10  22  44  67  96 141 190 250 294 354 424
#     4  11  22  41  70 104 151 190 235 305 374 441
#     4  11  22  42  68 107 151 192 236 293 382 454
#     4  12  24  43  72 114 151 194 240 308 378 440
#
# _framework density 23.470677999999999
#
# number of rings (size 3 to 8) (size 9 to 14) (size 15 to 20)
#    0.000    1.000    3.333    4.500    0.000    5.000 
#    3.000    6.667    0.000    0.000    8.667    1.167 
#    0.000    0.000    0.000    0.000    0.000    0.000 
#
# Total GULP energy -133776.371023 kJ/mol
# GULP energy per Si atom -5574.015459 kJ/mol
# Density = 2.341726 g / cm^3
# Si number density = 23.470678 Si / 1000 Ang^3
#
#
#
# Elastic Constant Matrix: (Units=GPa)
#
#
# Indices 1 2 3 4 5 6 
#
# 1 107.5635 24.5424 79.5524 0.0000 0.0000 0.0000
# 2 24.5424 126.4128 45.3096 0.0000 0.0000 0.0000
# 3 79.5524 45.3096 153.0522 0.0000 0.0000 0.0000
# 4 0.0000 0.0000 0.0000 31.4984 0.0000 0.0000
# 5 0.0000 0.0000 0.0000 0.0000 53.0820 0.0000
# 6 0.0000 0.0000 0.0000 0.0000 0.0000 17.0883
#
#
#
# Elastic Compliance Matrix: (Units=1/GPa)
#
#
# Indices 1 2 3 4 5 6 
#
# 1 0.015104 -0.000133 -0.007812 0.000000 0.000000 0.000000
# 2 -0.000133 0.008851 -0.002551 0.000000 0.000000 0.000000
# 3 -0.007812 -0.002551 0.011349 0.000000 0.000000 0.000000
# 4 0.000000 0.000000 0.000000 0.031748 0.000000 0.000000
# 5 0.000000 0.000000 0.000000 0.000000 0.018839 0.000000
# 6 0.000000 0.000000 0.000000 0.000000 0.000000 0.058520
#
#
# Mechanical properties :
#
#
# Convention : Reuss Voigt Hill
#
# Bulk Modulus (GPa) = 69.86395 76.20415 73.03405
# Shear Modulus (GPa) = 29.38192 36.17534 32.77863
#
# Velocity S-wave (km/s) = 3.54200 3.93020 3.74114
# Velocity P-wave (km/s) = 6.82340 7.28928 7.06018
#
# Compressibility (1/GPa) = 0.01431353
#
# Stress axis : x y z
#
# Youngs Moduli (GPa) = 66.20564 112.98452 88.11133
#
# Poissons Ratio (x) = 0.01498 0.68829
# Poissons Ratio (y) = 0.00878 0.22480
# Poissons Ratio (z) = 0.51717 0.28825
#
# Static dielectric constant tensor:
#      x y z
#    x 1.995910 0.000000 0.000000 
#    y 0.000000 1.973590 0.000000 
#    z 0.000000 0.000000 1.916580 
# 
# From -- ./inp_files/15036.got.cif
#   From: 2010.05.17/outbox.cif.g08.bks.cpg/sg21_8_cif.got.tgz:15036.got - 2010.06.03 23:14:55.
