data_PCOD9324551
_publ_section_title
;
Structure prediction by ZEFSAII (Michael W. Deem and Ramdas Pophale) SiO2 
 PCOD9324551
Probable space group: C 2 2 2
;
_chemical_formula_sum "Si O2"
_cell_formula_units_Z 56
_cell_length_a 22.156160
_cell_length_b 9.416926
_cell_length_c 14.604818
_cell_angle_alpha 90.000000
_cell_angle_beta 90.000000
_cell_angle_gamma 90.000000
_cell_volume 3047.191861
_symmetry_space_group_name_H-M "C 2 2 2"
_symmetry_group_IT_number 21
_symmetry_cell_setting 'orthorhombic'
loop_
_space_group_symop_operation_xyz
x,y,z
-x,-y,z
x,-y,-z
-x,y,-z
1/2+x,1/2+y,z
1/2-x,1/2-y,z
1/2+x,1/2-y,-z
1/2-x,1/2+y,-z
loop_
_atom_site_type_symbol
_atom_site_label
_atom_site_fract_x
_atom_site_fract_y
_atom_site_fract_z
Si Si1 0.752389 0.420077 0.906709
Si Si2 0.070561 0.770382 0.246086
Si Si3 0.153894 0.500000 0.750000
Si Si4 0.747611 0.079923 0.406709
Si Si5 0.113334 0.985970 0.391502
Si Si6 0.429439 0.729618 0.746086
Si Si7 0.386666 0.485970 0.108498
O O1 0.750000 0.250000 0.918959
O O2 0.802079 0.459096 0.832587
O O3 0.685780 0.476037 0.879238
O O4 0.768055 0.500000 0.000000
O O5 0.111599 0.633974 0.230007
O O6 0.087413 0.845967 0.342370
O O7 0.085718 0.884123 0.166325
O O8 0.000000 0.736681 0.250000
O O9 0.197921 0.459096 0.667413
O O10 0.111599 0.633974 0.730007
O O11 0.750000 0.250000 0.418959
O O12 0.814220 0.023963 0.379238
O O13 0.731945 0.000000 0.500000
O O14 0.101136 0.000000 0.500000
O O15 0.085718 0.115877 0.333675
O O16 0.412587 0.654033 0.842370
O O17 0.398864 0.500000 0.000000
#
# Coordination Sequence:
#
# PCOD9324551 Si02
#       7
#     8   8   8   8   8   8   8
#     4  11  25  41  66  96 124 159 204 255 318 373
#     4  11  24  41  62  91 123 166 212 251 300 368
#     4  12  25  40  64  90 131 162 198 260 316 360
#     4  11  25  41  66  96 124 159 204 255 318 373
#     4  10  22  41  66  91 121 159 209 256 308 365
#     4  11  24  41  62  91 123 166 212 251 300 368
#     4  10  22  41  66  91 121 159 209 256 308 365
#
# _framework density 18.377576000000001
#
# number of rings (size 3 to 8) (size 9 to 14) (size 15 to 20)
#    0.000    1.143    2.857    3.857    8.000    2.286 
#    0.000    0.000    0.000    5.143    0.000    0.000 
#    0.000    0.000    0.000    0.000    0.000    0.000 
#
# Total GULP energy -156475.746875 kJ/mol
# GULP energy per Si atom -5588.419531 kJ/mol
# Density = 1.833575 g / cm^3
# Si number density = 18.377576 Si / 1000 Ang^3
#
#
#
# Elastic Constant Matrix: (Units=GPa)
#
#
# Indices 1 2 3 4 5 6 
#
# 1 120.4695 52.2691 70.2136 0.0000 0.0000 0.0000
# 2 52.2691 129.8943 73.8452 0.0000 0.0000 0.0000
# 3 70.2136 73.8452 111.4624 0.0000 0.0000 0.0000
# 4 0.0000 0.0000 0.0000 18.4547 0.0000 0.0000
# 5 0.0000 0.0000 0.0000 0.0000 593.9577 0.0000
# 6 0.0000 0.0000 0.0000 0.0000 0.0000 -57.3910
#
#
#
# Elastic Compliance Matrix: (Units=1/GPa)
#
#
# Indices 1 2 3 4 5 6 
#
# 1 0.013187 -0.000937 -0.007686 0.000000 0.000000 0.000000
# 2 -0.000937 0.012417 -0.007636 0.000000 0.000000 0.000000
# 3 -0.007686 -0.007636 0.018873 0.000000 0.000000 0.000000
# 4 0.000000 0.000000 0.000000 0.054187 0.000000 0.000000
# 5 0.000000 0.000000 0.000000 0.000000 0.001684 0.000000
# 6 0.000000 0.000000 0.000000 0.000000 0.000000 -0.017424
#
#
# Mechanical properties :
#
#
# Convention : Reuss Voigt Hill
#
# Bulk Modulus (GPa) = 83.62684 83.83131 83.72908
# Shear Modulus (GPa) = 41.86670 122.03753 81.95211
#
# Velocity S-wave (km/s) = 4.77816 8.15781 6.68508
# Velocity P-wave (km/s) = 8.72036 11.59518 10.25897
#
# Compressibility (1/GPa) = 0.01195788
#
# Stress axis : x y z
#
# Youngs Moduli (GPa) = 75.83124 80.53711 52.98710
#
# Poissons Ratio (x) = 0.07544 0.40728
# Poissons Ratio (y) = 0.07103 0.40461
# Poissons Ratio (z) = 0.58287 0.61499
#
# Static dielectric constant tensor:
#      x y z
#    x 1.621510 0.000000 0.000000 
#    y 0.000000 1.614750 0.000000 
#    z 0.000000 0.000000 1.722440 
# 
# From -- ./inp_files/33280.got.cif
#   From: 2010.05.17/outbox.cif.g08.bks.cpg/sg21_17_cif.got.tgz:33280.got - 2010.06.03 23:14:55.
