data_PCOD9324783
_publ_section_title
;
Structure prediction by ZEFSAII (Michael W. Deem and Ramdas Pophale) SiO2 
 PCOD9324783
Probable space group: C 2 2 2
;
_chemical_formula_sum "Si O2"
_cell_formula_units_Z 64
_cell_length_a 18.727923
_cell_length_b 26.873481
_cell_length_c 5.594149
_cell_angle_alpha 90.000000
_cell_angle_beta 90.000000
_cell_angle_gamma 90.000000
_cell_volume 2815.448387
_symmetry_space_group_name_H-M "C 2 2 2"
_symmetry_group_IT_number 21
_symmetry_cell_setting 'orthorhombic'
loop_
_space_group_symop_operation_xyz
x,y,z
-x,-y,z
x,-y,-z
-x,y,-z
1/2+x,1/2+y,z
1/2-x,1/2-y,z
1/2+x,1/2-y,-z
1/2-x,1/2+y,-z
loop_
_atom_site_type_symbol
_atom_site_label
_atom_site_fract_x
_atom_site_fract_y
_atom_site_fract_z
Si Si1 0.960865 0.905345 0.253592
Si Si2 0.795085 0.094135 0.666360
Si Si3 0.281636 0.698754 0.935725
Si Si4 0.063552 0.790087 0.841350
Si Si5 0.080221 0.608751 0.949666
Si Si6 0.304381 0.860798 0.308424
Si Si7 0.666429 0.028209 0.752573
Si Si8 0.576186 0.807737 0.386869
O O1 0.877419 0.919389 0.289841
O O2 0.958422 0.844907 0.242796
O O3 0.000000 0.920672 0.500000
O O4 0.000000 0.920435 0.000000
O O5 0.782906 0.149591 0.771724
O O6 0.758525 0.103301 0.407214
O O7 0.744510 0.052801 0.781536
O O8 0.250000 0.750000 0.832994
O O9 0.364452 0.706750 0.995060
O O10 0.234304 0.681577 0.155470
O O11 0.079230 0.751490 0.631145
O O12 0.000000 0.769309 0.000000
O O13 0.111475 0.574372 0.740889
O O14 0.077983 0.666302 0.871546
O O15 0.139300 0.607135 0.155386
O O16 0.000000 0.592638 0.000000
O O17 0.355478 0.830989 0.487314
O O18 0.663483 0.000000 0.500000
O O19 0.648549 0.000000 0.000000
O O20 0.500000 0.822465 0.500000
#
# Coordination Sequence:
#
# PCOD9324783 Si02
#       8
#     8   8   8   8   8   8   8   8
#     4  10  24  43  70 105 145 191 238 291 360 433
#     4  11  25  45  75  99 146 188 239 301 372 443
#     4  11  24  40  64 101 142 185 243 298 359 435
#     4  10  23  40  61  96 142 191 245 293 353 434
#     4  12  25  46  68 103 140 188 244 313 379 447
#     4  12  23  41  69  98 141 192 246 303 370 440
#     4  12  28  50  79 109 143 190 248 311 379 447
#     4  12  24  39  67  96 140 199 251 303 369 436
#
# _framework density 22.731725999999998
#
# number of rings (size 3 to 8) (size 9 to 14) (size 15 to 20)
#    0.000    0.750    3.750    3.000    7.000    2.750 
#    0.000    1.875    0.000    2.250    0.000    0.000 
#    0.000    0.000    0.000    0.000    0.000    0.000 
#
# Total GULP energy -178714.541775 kJ/mol
# GULP energy per Si atom -5584.829430 kJ/mol
# Density = 2.267999 g / cm^3
# Si number density = 22.731726 Si / 1000 Ang^3
#
#
#
# Elastic Constant Matrix: (Units=GPa)
#
#
# Indices 1 2 3 4 5 6 
#
# 1 177.8504 3.1498 61.1235 0.0000 0.0000 0.0000
# 2 3.1498 30.7772 10.3022 0.0000 0.0000 0.0000
# 3 61.1235 10.3022 89.4469 0.0000 0.0000 0.0000
# 4 0.0000 0.0000 0.0000 27.6401 0.0000 0.0000
# 5 0.0000 0.0000 0.0000 0.0000 38.8862 0.0000
# 6 0.0000 0.0000 0.0000 0.0000 0.0000 -10.0859
#
#
#
# Elastic Compliance Matrix: (Units=1/GPa)
#
#
# Indices 1 2 3 4 5 6 
#
# 1 0.007376 0.000970 -0.005152 0.000000 0.000000 0.000000
# 2 0.000970 0.033922 -0.004570 0.000000 0.000000 0.000000
# 3 -0.005152 -0.004570 0.015227 0.000000 0.000000 0.000000
# 4 0.000000 0.000000 0.000000 0.036179 0.000000 0.000000
# 5 0.000000 0.000000 0.000000 0.000000 0.025716 0.000000
# 6 0.000000 0.000000 0.000000 0.000000 0.000000 -0.099148
#
#
# Mechanical properties :
#
#
# Convention : Reuss Voigt Hill
#
# Bulk Modulus (GPa) = 25.62740 49.69171 37.65955
# Shear Modulus (GPa) = 100.43508 26.18801 63.31155
#
# Velocity S-wave (km/s) = 6.65422 3.39786 5.28319
# Velocity P-wave (km/s) = 8.38669 6.10750 7.33615
#
# Compressibility (1/GPa) = 0.03902074
#
# Stress axis : x y z
#
# Youngs Moduli (GPa) = 135.57020 29.47945 65.67314
#
# Poissons Ratio (x) = -0.02859 0.33836
# Poissons Ratio (y) = -0.13147 0.30010
# Poissons Ratio (z) = 0.69849 0.13471
#
# Static dielectric constant tensor:
#      x y z
#    x 1.840500 0.000000 0.000000 
#    y 0.000000 1.863560 0.000000 
#    z 0.000000 0.000000 1.939930 
# 
# From -- ./inp_files/5397.got.cif
#   From: 2010.05.17/outbox.cif.g08.bks.cpg/sg21_3_cif.got.tgz:5397.got - 2010.06.03 23:14:55.
