data_PCOD9324389
_publ_section_title
;
Structure prediction by ZEFSAII (Michael W. Deem and Ramdas Pophale) SiO2 
 PCOD9324389
Probable space group: C 2 2 2
;
_chemical_formula_sum "Si O2"
_cell_formula_units_Z 40
_cell_length_a 10.111851
_cell_length_b 10.211140
_cell_length_c 20.533471
_cell_angle_alpha 90.000000
_cell_angle_beta 90.000000
_cell_angle_gamma 90.000000
_cell_volume 2120.153286
_symmetry_space_group_name_H-M "C 2 2 2"
_symmetry_group_IT_number 21
_symmetry_cell_setting 'orthorhombic'
loop_
_space_group_symop_operation_xyz
x,y,z
-x,-y,z
x,-y,-z
-x,y,-z
1/2+x,1/2+y,z
1/2-x,1/2-y,z
1/2+x,1/2-y,-z
1/2-x,1/2+y,-z
loop_
_atom_site_type_symbol
_atom_site_label
_atom_site_fract_x
_atom_site_fract_y
_atom_site_fract_z
Si Si1 0.386424 0.099016 0.241591
Si Si2 0.120963 0.592280 0.604195
Si Si3 0.137424 0.142661 0.031721
Si Si4 0.418423 0.387135 0.431980
Si Si5 0.603000 0.613028 0.186398
O O1 0.361417 0.076407 0.318386
O O2 0.422585 0.249039 0.223315
O O3 0.249380 0.070715 0.206614
O O4 0.500000 0.000000 0.220504
O O5 0.262579 0.574299 0.568207
O O6 0.079368 0.742841 0.596436
O O7 0.000000 0.500000 0.582206
O O8 0.250000 0.250000 0.020449
O O9 0.109346 0.131862 0.108723
O O10 0.000000 0.186199 0.000000
O O11 0.169265 0.000000 0.000000
O O12 0.500000 0.500000 0.394981
O O13 0.500000 0.374972 0.500000
O O14 0.500000 0.500000 0.202930
#
# Coordination Sequence:
#
# PCOD9324389 Si02
#       5
#     8   8   8   8   8
#     4  10  23  41  65  93 120 162 212 256 317 366
#     4  10  23  42  62  90 127 161 208 265 306 366
#     4  11  23  42  60  90 126 163 205 250 310 371
#     4  10  22  38  60  91 123 164 208 246 308 372
#     4  11  21  41  63  86 126 158 200 261 306 369
#
# _framework density 18.86656
#
# number of rings (size 3 to 8) (size 9 to 14) (size 15 to 20)
#    0.000    1.600    4.000    2.400    0.000   13.600 
#    0.000    4.000    0.000    0.000    0.000    0.000 
#    0.000    0.000    0.000    0.000    0.000    0.000 
#
# Total GULP energy -111538.289983 kJ/mol
# GULP energy per Si atom -5576.914499 kJ/mol
# Density = 1.882362 g / cm^3
# Si number density = 18.866560 Si / 1000 Ang^3
#
#
#
# Elastic Constant Matrix: (Units=GPa)
#
#
# Indices 1 2 3 4 5 6 
#
# 1 184.8777 107.5287 43.9401 0.0000 0.0000 0.0000
# 2 107.5287 108.2467 5.0159 0.0000 0.0000 0.0000
# 3 43.9401 5.0159 75.8629 0.0000 0.0000 0.0000
# 4 0.0000 0.0000 0.0000 20.1634 0.0000 0.0000
# 5 0.0000 0.0000 0.0000 0.0000 39.3818 0.0000
# 6 0.0000 0.0000 0.0000 0.0000 0.0000 51.1305
#
#
#
# Elastic Compliance Matrix: (Units=1/GPa)
#
#
# Indices 1 2 3 4 5 6 
#
# 1 0.017243 -0.016717 -0.008882 0.000000 0.000000 0.000000
# 2 -0.016717 0.025474 0.007998 0.000000 0.000000 0.000000
# 3 -0.008882 0.007998 0.017797 0.000000 0.000000 0.000000
# 4 0.000000 0.000000 0.000000 0.049595 0.000000 0.000000
# 5 0.000000 0.000000 0.000000 0.000000 0.025392 0.000000
# 6 0.000000 0.000000 0.000000 0.000000 0.000000 0.019558
#
#
# Mechanical properties :
#
#
# Convention : Reuss Voigt Hill
#
# Bulk Modulus (GPa) = 39.50597 75.77295 57.63946
# Shear Modulus (GPa) = 25.16390 36.30197 30.73294
#
# Velocity S-wave (km/s) = 3.65606 4.39126 4.04042
# Velocity P-wave (km/s) = 6.22957 8.12162 7.23769
#
# Compressibility (1/GPa) = 0.02531263
#
# Stress axis : x y z
#
# Youngs Moduli (GPa) = 57.99513 39.25639 56.18853
#
# Poissons Ratio (x) = 0.65625 0.49906
# Poissons Ratio (y) = 0.96950 -0.44941
# Poissons Ratio (z) = 0.51510 -0.31398
#
# Static dielectric constant tensor:
#      x y z
#    x 1.633400 0.000000 0.000000 
#    y 0.000000 1.691190 0.000000 
#    z 0.000000 0.000000 1.715910 
# 
# From -- ./inp_files/35470.got.cif
#   From: 2010.05.17/outbox.cif.g08.bks.cpg/sg21_18_cif.got.tgz:35470.got - 2010.06.03 23:14:55.
