data_PCOD9324908
_publ_section_title
;
Structure prediction by ZEFSAII (Michael W. Deem and Ramdas Pophale) SiO2 
 PCOD9324908
Probable space group: C 2 2 2
;
_chemical_formula_sum "Si O2"
_cell_formula_units_Z 48
_cell_length_a 30.909657
_cell_length_b 14.184056
_cell_length_c 4.966895
_cell_angle_alpha 90.000000
_cell_angle_beta 90.000000
_cell_angle_gamma 90.000000
_cell_volume 2177.607492
_symmetry_space_group_name_H-M "C 2 2 2"
_symmetry_group_IT_number 21
_symmetry_cell_setting 'orthorhombic'
loop_
_space_group_symop_operation_xyz
x,y,z
-x,-y,z
x,-y,-z
-x,y,-z
1/2+x,1/2+y,z
1/2-x,1/2-y,z
1/2+x,1/2-y,-z
1/2-x,1/2+y,-z
loop_
_atom_site_type_symbol
_atom_site_label
_atom_site_fract_x
_atom_site_fract_y
_atom_site_fract_z
Si Si1 0.314187 0.393556 0.391393
Si Si2 0.368494 0.895155 0.592459
Si Si3 0.266677 0.500000 0.000000
Si Si4 0.907615 0.801358 0.412819
Si Si5 0.691777 0.878938 0.895981
Si Si6 0.750000 0.750000 0.273724
Si Si7 0.550333 0.607410 0.921857
O O1 0.312498 0.500000 0.500000
O O2 0.360135 0.347778 0.439957
O O3 0.276573 0.321063 0.462464
O O4 0.298887 0.416836 0.085763
O O5 0.403620 0.811593 0.569267
O O6 0.346301 0.903838 0.886369
O O7 0.382129 0.000000 0.500000
O O8 0.332236 0.859961 0.380490
O O9 0.229385 0.545714 0.187117
O O10 0.923033 0.824749 0.114566
O O11 0.938495 0.857444 0.621866
O O12 0.716822 0.802282 0.074314
O O13 0.563521 0.500000 0.000000
O O14 0.500000 0.614451 0.000000
#
# Coordination Sequence:
#
# PCOD9324908 Si02
#       7
#     8   8   4   8   8   4   8
#     4  11  25  39  61  92 135 183 233 290 348 390
#     4  12  24  44  66  95 133 180 236 283 336 393
#     4  10  24  36  58  84 127 192 241 290 336 388
#     4  12  26  43  73 106 140 175 227 289 346 412
#     4  11  23  40  60  84 128 186 241 286 330 389
#     4  10  24  42  54  92 130 184 242 282 342 390
#     4  11  25  49  78 108 139 175 213 268 355 448
#
# _framework density 22.042539000000001
#
# number of rings (size 3 to 8) (size 9 to 14) (size 15 to 20)
#    0.000    0.833    3.333    3.000    8.167    3.333 
#    0.000    0.000    0.000    3.000    0.000    0.000 
#    0.000    0.000    0.000    0.000    0.000    0.000 
#
# Total GULP energy -133870.819038 kJ/mol
# GULP energy per Si atom -5577.950793 kJ/mol
# Density = 2.199237 g / cm^3
# Si number density = 22.042539 Si / 1000 Ang^3
#
#
#
# Elastic Constant Matrix: (Units=GPa)
#
#
# Indices 1 2 3 4 5 6 
#
# 1 51.3411 26.9256 -5.9212 0.0000 0.0000 0.0000
# 2 26.9256 131.9505 -12.2477 0.0000 0.0000 0.0000
# 3 -5.9212 -12.2477 64.2697 0.0000 0.0000 0.0000
# 4 0.0000 0.0000 0.0000 37.6385 0.0000 0.0000
# 5 0.0000 0.0000 0.0000 0.0000 35.0031 0.0000
# 6 0.0000 0.0000 0.0000 0.0000 0.0000 16.1239
#
#
#
# Elastic Compliance Matrix: (Units=1/GPa)
#
#
# Indices 1 2 3 4 5 6 
#
# 1 0.021900 -0.004359 0.001187 0.000000 0.000000 0.000000
# 2 -0.004359 0.008583 0.001234 0.000000 0.000000 0.000000
# 3 0.001187 0.001234 0.015904 0.000000 0.000000 0.000000
# 4 0.000000 0.000000 0.000000 0.026569 0.000000 0.000000
# 5 0.000000 0.000000 0.000000 0.000000 0.028569 0.000000
# 6 0.000000 0.000000 0.000000 0.000000 0.000000 0.062020
#
#
# Mechanical properties :
#
#
# Convention : Reuss Voigt Hill
#
# Bulk Modulus (GPa) = 23.52307 29.45274 26.48790
# Shear Modulus (GPa) = 27.53455 33.67341 30.60398
#
# Velocity S-wave (km/s) = 3.53817 3.91276 3.73017
# Velocity P-wave (km/s) = 5.23320 5.81410 5.53128
#
# Compressibility (1/GPa) = 0.04251147
#
# Stress axis : x y z
#
# Youngs Moduli (GPa) = 45.66123 116.51502 62.87748
#
# Poissons Ratio (x) = 0.50786 -0.07464
# Poissons Ratio (y) = 0.19903 -0.07759
# Poissons Ratio (z) = -0.05420 -0.14378
#
# Static dielectric constant tensor:
#      x y z
#    x 1.773720 0.000000 0.000000 
#    y 0.000000 1.973510 0.000000 
#    z 0.000000 0.000000 1.923580 
# 
# From -- ./inp_files/7366.got.cif
#   From: 2010.05.17/outbox.cif.g08.bks.cpg/sg21_4_cif.got.tgz:7366.got - 2010.06.03 23:14:55.
