data_PCOD9324619
_publ_section_title
;
Structure prediction by ZEFSAII (Michael W. Deem and Ramdas Pophale) SiO2 
 PCOD9324619
Probable space group: C 2 2 2
;
_chemical_formula_sum "Si O2"
_cell_formula_units_Z 32
_cell_length_a 9.695859
_cell_length_b 10.389756
_cell_length_c 13.029108
_cell_angle_alpha 90.000000
_cell_angle_beta 90.000000
_cell_angle_gamma 90.000000
_cell_volume 1312.521190
_symmetry_space_group_name_H-M "C 2 2 2"
_symmetry_group_IT_number 21
_symmetry_cell_setting 'orthorhombic'
loop_
_space_group_symop_operation_xyz
x,y,z
-x,-y,z
x,-y,-z
-x,y,-z
1/2+x,1/2+y,z
1/2-x,1/2-y,z
1/2+x,1/2-y,-z
1/2-x,1/2+y,-z
loop_
_atom_site_type_symbol
_atom_site_label
_atom_site_fract_x
_atom_site_fract_y
_atom_site_fract_z
Si Si1 0.116284 0.810418 0.784981
Si Si2 0.107539 0.692037 0.084784
Si Si3 0.256295 0.427732 0.714793
Si Si4 0.956568 0.292337 0.384787
O O1 0.250000 0.750000 0.836364
O O2 0.987658 0.802073 0.862032
O O3 0.085115 0.712878 0.691225
O O4 0.156575 0.947552 0.740400
O O5 0.250000 0.750000 0.043870
O O6 0.168722 0.607380 0.180480
O O7 0.000000 0.637947 0.000000
O O8 0.136416 0.419046 0.629306
O O9 0.364475 0.323419 0.666623
O O10 0.000000 0.267185 0.500000
#
# Coordination Sequence:
#
# PCOD9324619 Si02
#       4
#     8   8   8   8
#     4  11  24  43  70 105 148 193 240 310 378 439
#     4  11  23  46  73 107 146 193 257 305 370 447
#     4  10  22  46  73 100 150 188 245 313 364 448
#     4  10  22  42  72 106 140 187 248 300 369 447
#
# _framework density 24.380559000000002
#
# number of rings (size 3 to 8) (size 9 to 14) (size 15 to 20)
#    0.000    1.500    5.000    1.500    3.500    6.000 
#    0.000   11.250    0.000    0.000    0.000    0.000 
#    0.000    0.000    0.000    0.000    0.000    0.000 
#
# Total GULP energy -89162.139774 kJ/mol
# GULP energy per Si atom -5572.633736 kJ/mol
# Density = 2.432507 g / cm^3
# Si number density = 24.380559 Si / 1000 Ang^3
#
#
#
# Elastic Constant Matrix: (Units=GPa)
#
#
# Indices 1 2 3 4 5 6 
#
# 1 197.5877 54.0111 71.3991 0.0000 0.0000 0.0000
# 2 54.0111 112.2078 24.5645 0.0000 0.0000 0.0000
# 3 71.3991 24.5645 169.6395 0.0000 0.0000 0.0000
# 4 0.0000 0.0000 0.0000 -31.9528 0.0000 0.0000
# 5 0.0000 0.0000 0.0000 0.0000 46.4949 0.0000
# 6 0.0000 0.0000 0.0000 0.0000 0.0000 43.3646
#
#
#
# Elastic Compliance Matrix: (Units=1/GPa)
#
#
# Indices 1 2 3 4 5 6 
#
# 1 0.006667 -0.002680 -0.002418 0.000000 0.000000 0.000000
# 2 -0.002680 0.010281 -0.000361 0.000000 0.000000 0.000000
# 3 -0.002418 -0.000361 0.006965 0.000000 0.000000 0.000000
# 4 0.000000 0.000000 0.000000 -0.031296 0.000000 0.000000
# 5 0.000000 0.000000 0.000000 0.000000 0.021508 0.000000
# 6 0.000000 0.000000 0.000000 0.000000 0.000000 0.023060
#
#
# Mechanical properties :
#
#
# Convention : Reuss Voigt Hill
#
# Bulk Modulus (GPa) = 76.94970 86.59828 81.77399
# Shear Modulus (GPa) = 95.35641 33.54535 64.45088
#
# Velocity S-wave (km/s) = 6.26072 3.71334 5.14711
# Velocity P-wave (km/s) = 9.15929 7.34723 8.30284
#
# Compressibility (1/GPa) = 0.01299550
#
# Stress axis : x y z
#
# Youngs Moduli (GPa) = 149.98267 97.26655 143.57775
#
# Poissons Ratio (x) = 0.26067 0.34719
# Poissons Ratio (y) = 0.40195 0.05180
# Poissons Ratio (z) = 0.36268 0.03509
#
# Static dielectric constant tensor:
#      x y z
#    x 2.248150 0.000000 0.000000 
#    y 0.000000 2.042460 0.000000 
#    z 0.000000 0.000000 1.936650 
# 
# From -- ./inp_files/29920.got.cif
#   From: 2010.05.17/outbox.cif.g08.bks.cpg/sg21_15_cif.got.tgz:29920.got - 2010.06.03 23:14:55.
