data_PCOD9324895
_publ_section_title
;
Structure prediction by ZEFSAII (Michael W. Deem and Ramdas Pophale) SiO2 
 PCOD9324895
Probable space group: C 2 2 2
;
_chemical_formula_sum "Si O2"
_cell_formula_units_Z 52
_cell_length_a 21.726174
_cell_length_b 8.503630
_cell_length_c 13.971035
_cell_angle_alpha 90.000000
_cell_angle_beta 90.000000
_cell_angle_gamma 90.000000
_cell_volume 2581.167507
_symmetry_space_group_name_H-M "C 2 2 2"
_symmetry_group_IT_number 21
_symmetry_cell_setting 'orthorhombic'
loop_
_space_group_symop_operation_xyz
x,y,z
-x,-y,z
x,-y,-z
-x,y,-z
1/2+x,1/2+y,z
1/2-x,1/2-y,z
1/2+x,1/2-y,-z
1/2-x,1/2+y,-z
loop_
_atom_site_type_symbol
_atom_site_label
_atom_site_fract_x
_atom_site_fract_y
_atom_site_fract_z
Si Si1 0.808450 0.167552 0.319943
Si Si2 0.276594 0.000000 0.000000
Si Si3 0.088587 0.285571 0.234346
Si Si4 0.634336 0.125482 0.161959
Si Si5 0.207012 0.884728 0.820378
Si Si6 0.482226 0.315753 0.893686
Si Si7 0.428887 0.470668 0.386695
O O1 0.750000 0.250000 0.375423
O O2 0.830767 0.303707 0.251049
O O3 0.871318 0.087844 0.361718
O O4 0.785859 0.032063 0.248088
O O5 0.232014 0.086146 0.074051
O O6 0.321555 0.906685 0.071666
O O7 0.107373 0.462474 0.205203
O O8 0.137529 0.175586 0.178692
O O9 0.022532 0.264387 0.187832
O O10 0.087606 0.201689 0.339978
O O11 0.586174 0.258325 0.127987
O O12 0.250000 0.750000 0.776849
O O13 0.500000 0.500000 0.890283
O O14 0.500000 0.259183 0.000000
O O15 0.500000 0.500000 0.350767
O O16 0.432942 0.500000 0.500000
#
# Coordination Sequence:
#
# PCOD9324895 Si02
#       7
#     8   4   8   8   8   8   8
#     4  11  22  41  64  94 131 171 219 282 351 421
#     4  12  24  36  59  96 133 184 226 276 322 416
#     4  11  22  41  63  91 126 170 220 282 340 402
#     4  12  24  38  60  91 131 174 222 274 339 404
#     4  11  23  38  57  87 128 174 223 268 334 397
#     4  11  24  40  57  88 128 180 229 274 328 402
#     4  10  23  46  74  99 128 174 228 285 357 430
#
# _framework density 20.145921999999999
#
# number of rings (size 3 to 8) (size 9 to 14) (size 15 to 20)
#    0.000    0.923    3.077    4.615    2.154    1.846 
#    0.000    5.385    0.000    1.846    0.000    0.000 
#    0.000    0.000    0.000    0.000    0.000    0.000 
#
# Total GULP energy -144746.432342 kJ/mol
# GULP energy per Si atom -5567.170475 kJ/mol
# Density = 2.010007 g / cm^3
# Si number density = 20.145922 Si / 1000 Ang^3
#
#
#
# Elastic Constant Matrix: (Units=GPa)
#
#
# Indices 1 2 3 4 5 6 
#
# 1 82.1982 8.2328 32.4688 0.0000 0.0000 0.0000
# 2 8.2328 86.3811 30.7977 0.0000 0.0000 0.0000
# 3 32.4688 30.7977 84.6768 0.0000 0.0000 0.0000
# 4 0.0000 0.0000 0.0000 0.7954 0.0000 0.0000
# 5 0.0000 0.0000 0.0000 0.0000 28.5094 0.0000
# 6 0.0000 0.0000 0.0000 0.0000 0.0000 65.0057
#
#
#
# Elastic Compliance Matrix: (Units=1/GPa)
#
#
# Indices 1 2 3 4 5 6 
#
# 1 0.014372 0.000684 -0.005760 0.000000 0.000000 0.000000
# 2 0.000684 0.013334 -0.005112 0.000000 0.000000 0.000000
# 3 -0.005760 -0.005112 0.015877 0.000000 0.000000 0.000000
# 4 0.000000 0.000000 0.000000 1.257250 0.000000 0.000000
# 5 0.000000 0.000000 0.000000 0.000000 0.035076 0.000000
# 6 0.000000 0.000000 0.000000 0.000000 0.000000 0.015383
#
#
# Mechanical properties :
#
#
# Convention : Reuss Voigt Hill
#
# Bulk Modulus (GPa) = 43.08848 44.02831 43.55840
# Shear Modulus (GPa) = 3.62475 30.97921 17.30198
#
# Velocity S-wave (km/s) = 1.34282 3.92566 2.93376
# Velocity P-wave (km/s) = 4.88250 6.51536 5.75711
#
# Compressibility (1/GPa) = 0.02320806
#
# Stress axis : x y z
#
# Youngs Moduli (GPa) = 69.57816 74.99629 62.98287
#
# Poissons Ratio (x) = -0.05128 0.36276
# Poissons Ratio (y) = -0.04757 0.32196
# Poissons Ratio (z) = 0.40075 0.38337
#
# Static dielectric constant tensor:
#      x y z
#    x 1.173330 0.000000 0.000000 
#    y 0.000000 1.777020 0.000000 
#    z 0.000000 0.000000 1.648000 
# 
# From -- ./inp_files/33217.got.cif
#   From: 2010.05.17/outbox.cif.g08.bks.cpg/sg21_17_cif.got.tgz:33217.got - 2010.06.03 23:14:55.
