data_PCOD9324156
_publ_section_title
;
Structure prediction by ZEFSAII (Michael W. Deem and Ramdas Pophale) SiO2 
 PCOD9324156
Probable space group: C 2 2 2
;
_chemical_formula_sum "Si O2"
_cell_formula_units_Z 40
_cell_length_a 12.621178
_cell_length_b 12.176837
_cell_length_c 12.018218
_cell_angle_alpha 90.000000
_cell_angle_beta 90.000000
_cell_angle_gamma 90.000000
_cell_volume 1847.032179
_symmetry_space_group_name_H-M "C 2 2 2"
_symmetry_group_IT_number 21
_symmetry_cell_setting 'orthorhombic'
loop_
_space_group_symop_operation_xyz
x,y,z
-x,-y,z
x,-y,-z
-x,y,-z
1/2+x,1/2+y,z
1/2-x,1/2-y,z
1/2+x,1/2-y,-z
1/2-x,1/2+y,-z
loop_
_atom_site_type_symbol
_atom_site_label
_atom_site_fract_x
_atom_site_fract_y
_atom_site_fract_z
Si Si1 0.400462 0.583470 0.754816
Si Si2 0.122944 0.738878 0.943541
Si Si3 0.845525 0.451011 0.772452
Si Si4 0.369490 0.795487 0.194076
Si Si5 0.960155 0.277705 0.624186
O O1 0.500000 0.500000 0.748177
O O2 0.408532 0.658568 0.865947
O O3 0.281811 0.536457 0.763509
O O4 0.394381 0.667335 0.650021
O O5 0.250000 0.750000 0.955947
O O6 0.117410 0.625616 0.874786
O O7 0.086561 0.733526 0.071193
O O8 0.880755 0.574251 0.791308
O O9 0.895291 0.383553 0.668696
O O10 0.250000 0.750000 0.203006
O O11 0.439892 0.753119 0.295292
O O12 0.000000 0.291155 0.500000
#
# Coordination Sequence:
#
# PCOD9324156 Si02
#       5
#     8   8   8   8   8
#     4  10  21  42  68  96 128 166 212 268 334 399
#     4   8  18  37  61  93 130 162 200 258 328 398
#     4  10  21  40  65  90 127 170 210 266 330 396
#     4  11  22  38  61  94 128 166 218 269 321 394
#     4  11  25  43  61  88 126 171 223 273 331 394
#
# _framework density 21.656364
#
# number of rings (size 3 to 8) (size 9 to 14) (size 15 to 20)
#    0.000    2.000    0.000    4.200    0.000    6.800 
#    0.000   20.000    0.000    0.000    0.000    0.000 
#    0.000    0.000    0.000    0.000    0.000    0.000 
#
# Total GULP energy -111646.879165 kJ/mol
# GULP energy per Si atom -5582.343958 kJ/mol
# Density = 2.160707 g / cm^3
# Si number density = 21.656364 Si / 1000 Ang^3
#
#
#
# Elastic Constant Matrix: (Units=GPa)
#
#
# Indices 1 2 3 4 5 6 
#
# 1 95.5693 14.4129 39.6038 0.0000 0.0000 0.0000
# 2 14.4129 88.5032 19.3179 0.0000 0.0000 0.0000
# 3 39.6038 19.3179 132.3393 0.0000 0.0000 0.0000
# 4 0.0000 0.0000 0.0000 -0.3244 0.0000 0.0000
# 5 0.0000 0.0000 0.0000 0.0000 31.5459 0.0000
# 6 0.0000 0.0000 0.0000 0.0000 0.0000 48.5994
#
#
#
# Elastic Compliance Matrix: (Units=1/GPa)
#
#
# Indices 1 2 3 4 5 6 
#
# 1 0.012070 -0.001216 -0.003435 0.000000 0.000000 0.000000
# 2 -0.001216 0.011793 -0.001358 0.000000 0.000000 0.000000
# 3 -0.003435 -0.001358 0.008782 0.000000 0.000000 0.000000
# 4 0.000000 0.000000 0.000000 -3.082574 0.000000 0.000000
# 5 0.000000 0.000000 0.000000 0.000000 0.031700 0.000000
# 6 0.000000 0.000000 0.000000 0.000000 0.000000 0.020576
#
#
# Mechanical properties :
#
#
# Convention : Reuss Voigt Hill
#
# Bulk Modulus (GPa) = 48.47413 51.45343 49.96378
# Shear Modulus (GPa) = -1.67855 32.16934 15.24539
#
# Velocity S-wave (km/s) = -0.88134 3.85833 2.65612
# Velocity P-wave (km/s) = 4.62560 6.60754 5.70332
#
# Compressibility (1/GPa) = 0.02062956
#
# Stress axis : x y z
#
# Youngs Moduli (GPa) = 82.84788 84.79328 113.86462
#
# Poissons Ratio (x) = 0.10311 0.39109
# Poissons Ratio (y) = 0.10074 0.15458
# Poissons Ratio (z) = 0.28455 0.11512
#
# Static dielectric constant tensor:
#      x y z
#    x 1.933490 0.000000 0.000000 
#    y 0.000000 1.810980 0.000000 
#    z 0.000000 0.000000 1.764320 
# 
# From -- ./inp_files/24962.got.cif
#   From: 2010.05.17/outbox.cif.g08.bks.cpg/sg21_13_cif.got.tgz:24962.got - 2010.06.03 23:14:55.
