data_PCOD9324645
_publ_section_title
;
Structure prediction by ZEFSAII (Michael W. Deem and Ramdas Pophale) SiO2 
 PCOD9324645
Probable space group: C 2 2 2
;
_chemical_formula_sum "Si O2"
_cell_formula_units_Z 64
_cell_length_a 23.284455
_cell_length_b 12.544865
_cell_length_c 9.337614
_cell_angle_alpha 90.000000
_cell_angle_beta 90.000000
_cell_angle_gamma 90.000000
_cell_volume 2727.520267
_symmetry_space_group_name_H-M "C 2 2 2"
_symmetry_group_IT_number 21
_symmetry_cell_setting 'orthorhombic'
loop_
_space_group_symop_operation_xyz
x,y,z
-x,-y,z
x,-y,-z
-x,y,-z
1/2+x,1/2+y,z
1/2-x,1/2-y,z
1/2+x,1/2-y,-z
1/2-x,1/2+y,-z
loop_
_atom_site_type_symbol
_atom_site_label
_atom_site_fract_x
_atom_site_fract_y
_atom_site_fract_z
Si Si1 0.157338 0.395509 0.420579
Si Si2 0.028185 0.607863 0.658146
Si Si3 0.525088 0.717600 0.846270
Si Si4 0.227538 0.631651 0.861946
Si Si5 0.816127 0.775772 0.640071
Si Si6 0.907923 0.045321 0.351377
Si Si7 0.859199 0.294920 0.056687
Si Si8 0.145880 0.917157 0.880633
O O1 0.179841 0.500000 0.500000
O O2 0.095008 0.417264 0.357401
O O3 0.199860 0.366449 0.293693
O O4 0.149674 0.303342 0.536603
O O5 0.000000 0.500000 0.718250
O O6 0.000000 0.624850 0.500000
O O7 0.018517 0.711990 0.753705
O O8 0.552342 0.624181 0.745598
O O9 0.500000 0.679916 0.000000
O O10 0.576408 0.801747 0.884714
O O11 0.250000 0.750000 0.897078
O O12 0.177361 0.614463 0.978203
O O13 0.285726 0.563712 0.860381
O O14 0.750000 0.750000 0.602366
O O15 0.848097 0.888803 0.622707
O O16 0.823767 0.744359 0.805513
O O17 0.931577 0.000000 0.500000
O O18 0.889682 0.943211 0.258999
O O19 0.863744 0.199450 0.941793
O O20 0.125810 0.000000 0.000000
#
# Coordination Sequence:
#
# PCOD9324645 Si02
#       8
#     8   8   8   8   8   8   8   8
#     4  12  26  41  67 102 137 182 236 289 353 435
#     4  11  23  47  73 101 139 186 236 305 374 424
#     4  11  24  48  79 102 139 189 245 308 365 424
#     4  10  24  40  64 101 142 187 226 281 359 426
#     4  11  24  40  70 102 148 187 235 288 354 434
#     4  11  27  45  74 110 147 191 243 301 362 439
#     4  10  22  43  68 102 138 186 238 289 356 425
#     4  11  21  43  67  97 148 188 230 290 360 427
#
# _framework density 23.464538000000001
#
# number of rings (size 3 to 8) (size 9 to 14) (size 15 to 20)
#    0.000    1.125    3.750    3.750    7.000    0.250 
#    2.250    1.250    5.500    0.000    0.000    0.000 
#    0.000    0.000    0.000    0.000    0.000    0.000 
#
# Total GULP energy -178890.646559 kJ/mol
# GULP energy per Si atom -5590.332705 kJ/mol
# Density = 2.341113 g / cm^3
# Si number density = 23.464538 Si / 1000 Ang^3
#
#
#
# Elastic Constant Matrix: (Units=GPa)
#
#
# Indices 1 2 3 4 5 6 
#
# 1 69.2619 11.9300 24.5870 0.0000 0.0000 0.0000
# 2 11.9300 76.5450 41.0243 0.0000 0.0000 0.0000
# 3 24.5870 41.0243 132.5248 0.0000 0.0000 0.0000
# 4 0.0000 0.0000 0.0000 3.2059 0.0000 0.0000
# 5 0.0000 0.0000 0.0000 0.0000 21.8925 0.0000
# 6 0.0000 0.0000 0.0000 0.0000 0.0000 -404.6221
#
#
#
# Elastic Compliance Matrix: (Units=1/GPa)
#
#
# Indices 1 2 3 4 5 6 
#
# 1 0.015526 -0.001050 -0.002555 0.000000 0.000000 0.000000
# 2 -0.001050 0.015734 -0.004676 0.000000 0.000000 0.000000
# 3 -0.002555 -0.004676 0.009467 0.000000 0.000000 0.000000
# 4 0.000000 0.000000 0.000000 0.311928 0.000000 0.000000
# 5 0.000000 0.000000 0.000000 0.000000 0.045678 0.000000
# 6 0.000000 0.000000 0.000000 0.000000 0.000000 -0.002471
#
#
# Mechanical properties :
#
#
# Convention : Reuss Voigt Hill
#
# Bulk Modulus (GPa) = 41.38320 48.15715 44.77018
# Shear Modulus (GPa) = 11.89120 -62.51871 -25.31376
#
# Velocity S-wave (km/s) = 2.25360 -5.16737 -3.28809
# Velocity P-wave (km/s) = 4.94433 3.87742 2.16933
#
# Compressibility (1/GPa) = 0.02416440
#
# Stress axis : x y z
#
# Youngs Moduli (GPa) = 64.40814 63.55728 105.62717
#
# Poissons Ratio (x) = 0.06675 0.26992
# Poissons Ratio (y) = 0.06764 0.49388
# Poissons Ratio (z) = 0.16459 0.29718
#
# Static dielectric constant tensor:
#      x y z
#    x 1.971080 0.000000 0.000000 
#    y 0.000000 1.912780 0.000000 
#    z 0.000000 0.000000 1.912700 
# 
# From -- ./inp_files/18653.got.cif
#   From: 2010.05.17/outbox.cif.g08.bks.cpg/sg21_10_cif.got.tgz:18653.got - 2010.06.03 23:14:55.
