data_PCOD9324572
_publ_section_title
;
Structure prediction by ZEFSAII (Michael W. Deem and Ramdas Pophale) SiO2 
 PCOD9324572
Probable space group: C 2 2 2
;
_chemical_formula_sum "Si O2"
_cell_formula_units_Z 48
_cell_length_a 15.339419
_cell_length_b 26.473006
_cell_length_c 5.270969
_cell_angle_alpha 90.000000
_cell_angle_beta 90.000000
_cell_angle_gamma 90.000000
_cell_volume 2140.437892
_symmetry_space_group_name_H-M "C 2 2 2"
_symmetry_group_IT_number 21
_symmetry_cell_setting 'orthorhombic'
loop_
_space_group_symop_operation_xyz
x,y,z
-x,-y,z
x,-y,-z
-x,y,-z
1/2+x,1/2+y,z
1/2-x,1/2-y,z
1/2+x,1/2-y,-z
1/2-x,1/2+y,-z
loop_
_atom_site_type_symbol
_atom_site_label
_atom_site_fract_x
_atom_site_fract_y
_atom_site_fract_z
Si Si1 0.404574 0.707284 0.107050
Si Si2 0.175463 0.622364 0.681079
Si Si3 0.902110 0.521787 0.251241
Si Si4 0.848285 0.738483 0.405219
Si Si5 0.290568 0.391561 0.815906
Si Si6 0.539462 0.556848 0.750546
O O1 0.405802 0.743594 0.354885
O O2 0.352789 0.657637 0.193528
O O3 0.500000 0.696663 0.000000
O O4 0.359195 0.731796 0.859349
O O5 0.099707 0.581705 0.730591
O O6 0.143335 0.679606 0.662937
O O7 0.222974 0.611105 0.414800
O O8 0.242161 0.612172 0.913841
O O9 0.856958 0.500000 0.500000
O O10 0.000000 0.500000 0.250105
O O11 0.858375 0.500000 0.000000
O O12 0.750000 0.750000 0.496123
O O13 0.356967 0.438249 0.773452
O O14 0.500000 0.500000 0.747978
O O15 0.500000 0.581909 0.500000
O O16 0.500000 0.581392 0.000000
#
# Coordination Sequence:
#
# PCOD9324572 Si02
#       6
#     8   8   8   8   8   8
#     4  12  25  43  69 105 148 191 235 294 361 434
#     4  12  25  43  74 106 134 191 234 291 366 422
#     4  10  23  49  72  97 136 182 233 302 365 418
#     4  12  23  46  71 103 148 186 240 296 355 434
#     4  12  23  42  70 101 143 187 234 286 353 439
#     4  10  22  42  60  90 131 183 225 283 340 404
#
# _framework density 22.425317
#
# number of rings (size 3 to 8) (size 9 to 14) (size 15 to 20)
#    0.000    0.667    3.333    4.500    0.000    1.333 
#   27.000    0.000    0.000    0.000    0.000    0.000 
#    0.000    0.000    0.000    0.000    0.000    0.000 
#
# Total GULP energy -134113.706089 kJ/mol
# GULP energy per Si atom -5588.071087 kJ/mol
# Density = 2.237428 g / cm^3
# Si number density = 22.425317 Si / 1000 Ang^3
#
#
#
# Elastic Constant Matrix: (Units=GPa)
#
#
# Indices 1 2 3 4 5 6 
#
# 1 62.2294 43.3966 9.2999 0.0000 0.0000 0.0000
# 2 43.3966 143.1924 21.1710 0.0000 0.0000 0.0000
# 3 9.2999 21.1710 180.5350 0.0000 0.0000 0.0000
# 4 0.0000 0.0000 0.0000 4.9583 0.0000 0.0000
# 5 0.0000 0.0000 0.0000 0.0000 32.4488 0.0000
# 6 0.0000 0.0000 0.0000 0.0000 0.0000 38.5926
#
#
#
# Elastic Compliance Matrix: (Units=1/GPa)
#
#
# Indices 1 2 3 4 5 6 
#
# 1 0.020395 -0.006132 -0.000332 0.000000 0.000000 0.000000
# 2 -0.006132 0.008951 -0.000734 0.000000 0.000000 0.000000
# 3 -0.000332 -0.000734 0.005642 0.000000 0.000000 0.000000
# 4 0.000000 0.000000 0.000000 0.201680 0.000000 0.000000
# 5 0.000000 0.000000 0.000000 0.000000 0.030818 0.000000
# 6 0.000000 0.000000 0.000000 0.000000 0.000000 0.025912
#
#
# Mechanical properties :
#
#
# Convention : Reuss Voigt Hill
#
# Bulk Modulus (GPa) = 48.55922 59.29911 53.92917
# Shear Modulus (GPa) = 15.89032 36.00589 25.94811
#
# Velocity S-wave (km/s) = 2.66482 4.01133 3.40529
# Velocity P-wave (km/s) = 5.58293 6.92493 6.28983
#
# Compressibility (1/GPa) = 0.02059341
#
# Stress axis : x y z
#
# Youngs Moduli (GPa) = 49.03057 111.72534 177.23539
#
# Poissons Ratio (x) = 0.68511 0.05876
# Poissons Ratio (y) = 0.30066 0.13004
# Poissons Ratio (z) = 0.01626 0.08198
#
# Static dielectric constant tensor:
#      x y z
#    x 1.869970 0.000000 0.000000 
#    y 0.000000 1.795410 0.000000 
#    z 0.000000 0.000000 1.864560 
# 
# From -- ./inp_files/4104.got.cif
#   From: 2010.05.17/outbox.cif.g08.bks.cpg/sg21_3_cif.got.tgz:4104.got - 2010.06.03 23:14:55.
