data_PCOD9324996
_publ_section_title
;
Structure prediction by ZEFSAII (Michael W. Deem and Ramdas Pophale) SiO2 
 PCOD9324996
Probable space group: C 2 2 2
;
_chemical_formula_sum "Si O2"
_cell_formula_units_Z 46
_cell_length_a 8.335717
_cell_length_b 10.887839
_cell_length_c 24.784741
_cell_angle_alpha 90.000000
_cell_angle_beta 90.000000
_cell_angle_gamma 90.000000
_cell_volume 2249.412152
_symmetry_space_group_name_H-M "C 2 2 2"
_symmetry_group_IT_number 21
_symmetry_cell_setting 'orthorhombic'
loop_
_space_group_symop_operation_xyz
x,y,z
-x,-y,z
x,-y,-z
-x,y,-z
1/2+x,1/2+y,z
1/2-x,1/2-y,z
1/2+x,1/2-y,-z
1/2-x,1/2+y,-z
loop_
_atom_site_type_symbol
_atom_site_label
_atom_site_fract_x
_atom_site_fract_y
_atom_site_fract_z
Si Si1 0.000000 0.500000 0.000000
Si Si2 0.560938 0.230345 0.181656
Si Si3 0.934857 0.365760 0.301623
Si Si4 0.678204 0.378145 0.476555
Si Si5 0.500000 0.500000 0.146565
Si Si6 0.902495 0.876911 0.648597
Si Si7 0.682073 0.886273 0.098030
O O1 0.109662 0.575635 0.958975
O O2 0.750000 0.250000 0.169977
O O3 0.533116 0.173328 0.240468
O O4 0.501991 0.372019 0.179203
O O5 0.463794 0.140872 0.140673
O O6 0.990185 0.252850 0.340020
O O7 0.744559 0.376933 0.310212
O O8 0.000000 0.500000 0.314801
O O9 0.761288 0.500000 0.500000
O O10 0.500000 0.378959 0.500000
O O11 0.750000 0.250000 0.494322
O O12 0.666605 0.380894 0.411948
O O13 0.329536 0.478248 0.114554
O O14 0.000000 0.000000 0.656708
O O15 0.750000 0.750000 0.092718
#
# Coordination Sequence:
#
# PCOD9324996 Si02
#       7
#     2   8   8   8   4   8   8
#     4  12  24  42  72  98 140 178 224 304 348 422
#     4  11  23  43  68  99 137 184 232 287 355 424
#     4  11  26  42  68 101 138 176 229 292 343 422
#     4  11  23  44  69  97 136 178 228 284 342 416
#     4  10  24  45  68  96 140 186 233 288 340 444
#     4  11  23  48  65  95 138 180 226 282 348 417
#     4  10  25  43  66 102 137 182 239 287 361 430
#
# _framework density 20.449787000000001
#
# number of rings (size 3 to 8) (size 9 to 14) (size 15 to 20)
#    0.000    1.217    5.217    1.043    4.870    6.261 
#    6.261    0.000    0.000    0.000    0.000    0.000 
#    0.000    0.000    0.000    0.000    0.000    0.000 
#
# Total GULP energy -128236.526028 kJ/mol
# GULP energy per Si atom -5575.501132 kJ/mol
# Density = 2.040324 g / cm^3
# Si number density = 20.449787 Si / 1000 Ang^3
#
#
#
# Elastic Constant Matrix: (Units=GPa)
#
#
# Indices 1 2 3 4 5 6 
#
# 1 53.5513 38.0757 9.2094 0.0000 0.0000 0.0000
# 2 38.0757 209.2293 49.3110 0.0000 0.0000 0.0000
# 3 9.2094 49.3110 115.4959 0.0000 0.0000 0.0000
# 4 0.0000 0.0000 0.0000 37.5913 0.0000 0.0000
# 5 0.0000 0.0000 0.0000 0.0000 -2.2327 0.0000
# 6 0.0000 0.0000 0.0000 0.0000 0.0000 45.3604
#
#
#
# Elastic Compliance Matrix: (Units=1/GPa)
#
#
# Indices 1 2 3 4 5 6 
#
# 1 0.021449 -0.003892 -0.000049 0.000000 0.000000 0.000000
# 2 -0.003892 0.006020 -0.002260 0.000000 0.000000 0.000000
# 3 -0.000049 -0.002260 0.009627 0.000000 0.000000 0.000000
# 4 0.000000 0.000000 0.000000 0.026602 0.000000 0.000000
# 5 0.000000 0.000000 0.000000 0.000000 -0.447879 0.000000
# 6 0.000000 0.000000 0.000000 0.000000 0.000000 0.022046
#
#
# Mechanical properties :
#
#
# Convention : Reuss Voigt Hill
#
# Bulk Modulus (GPa) = 40.49325 63.49651 51.99488
# Shear Modulus (GPa) = -14.64120 34.92247 10.14063
#
# Velocity S-wave (km/s) = -2.67864 4.13694 2.22925
# Velocity P-wave (km/s) = 3.20585 7.34414 5.66630
#
# Compressibility (1/GPa) = 0.02469548
#
# Stress axis : x y z
#
# Youngs Moduli (GPa) = 46.62171 166.10361 103.87310
#
# Poissons Ratio (x) = 0.64645 0.00506
# Poissons Ratio (y) = 0.18145 0.23476
# Poissons Ratio (z) = 0.00227 0.37540
#
# Static dielectric constant tensor:
#      x y z
#    x 1.783690 0.000000 0.000000 
#    y 0.000000 1.810930 0.000000 
#    z 0.000000 0.000000 1.859180 
# 
# From -- ./inp_files/38496.got.cif
#   From: 2010.05.17/outbox.cif.g08.bks.cpg/sg21_20_cif.got.tgz:38496.got - 2010.06.03 23:14:55.
