data_PCOD9324075
_publ_section_title
;
Structure prediction by ZEFSAII (Michael W. Deem and Ramdas Pophale) SiO2 
 PCOD9324075
Probable space group: C 2 2 2
;
_chemical_formula_sum "Si O2"
_cell_formula_units_Z 56
_cell_length_a 8.989649
_cell_length_b 21.001350
_cell_length_c 15.355670
_cell_angle_alpha 90.000000
_cell_angle_beta 90.000000
_cell_angle_gamma 90.000000
_cell_volume 2899.070109
_symmetry_space_group_name_H-M "C 2 2 2"
_symmetry_group_IT_number 21
_symmetry_cell_setting 'orthorhombic'
loop_
_space_group_symop_operation_xyz
x,y,z
-x,-y,z
x,-y,-z
-x,y,-z
1/2+x,1/2+y,z
1/2-x,1/2-y,z
1/2+x,1/2-y,-z
1/2-x,1/2+y,-z
loop_
_atom_site_type_symbol
_atom_site_label
_atom_site_fract_x
_atom_site_fract_y
_atom_site_fract_z
Si Si1 0.147017 0.034504 0.332815
Si Si2 0.930735 0.202420 0.091011
Si Si3 0.819430 0.576578 0.744650
Si Si4 0.591517 0.154014 0.087267
Si Si5 0.557594 0.913912 0.403513
Si Si6 0.533224 0.656149 0.722308
Si Si7 0.574932 0.237352 0.592736
O O1 0.283028 0.052758 0.394430
O O2 0.082141 0.101427 0.301946
O O3 0.217116 0.987499 0.258653
O O4 0.000000 0.000000 0.370867
O O5 0.760381 0.179892 0.076071
O O6 0.974471 0.276377 0.111136
O O7 0.985251 0.166779 0.175627
O O8 0.000000 0.185668 0.000000
O O9 0.892444 0.601913 0.835159
O O10 0.702769 0.630850 0.712140
O O11 0.945693 0.566115 0.672971
O O12 0.500000 0.133301 0.000000
O O13 0.500000 0.926344 0.500000
O O14 0.562353 0.837700 0.391475
O O15 0.501201 0.718731 0.665928
O O16 0.500000 0.252796 0.500000
O O17 0.750000 0.250000 0.589253
#
# Coordination Sequence:
#
# PCOD9324075 Si02
#       7
#     8   8   8   8   8   8   8
#     4  10  22  42  62  86 119 164 212 255 298 369
#     4   9  18  34  57  90 123 152 194 252 307 376
#     4  10  22  38  63  87 123 164 205 254 299 370
#     4   9  18  35  57  89 121 155 197 244 311 365
#     4  11  24  41  62  90 121 157 202 256 311 363
#     4  10  21  39  63  88 123 164 201 245 322 366
#     4  11  24  40  62  92 128 158 205 256 314 382
#
# _framework density 19.316538999999999
#
# number of rings (size 3 to 8) (size 9 to 14) (size 15 to 20)
#    0.000    2.000    1.429    1.286    4.000    3.429 
#    5.143    5.714    0.000   21.000    0.000    0.000 
#    0.000    0.000    0.000    0.000    0.000    0.000 
#
# Total GULP energy -155927.515457 kJ/mol
# GULP energy per Si atom -5568.839838 kJ/mol
# Density = 1.927257 g / cm^3
# Si number density = 19.316539 Si / 1000 Ang^3
#
#
#
# Elastic Constant Matrix: (Units=GPa)
#
#
# Indices 1 2 3 4 5 6 
#
# 1 101.5208 50.3992 72.0018 0.0000 0.0000 0.0000
# 2 50.3992 98.8270 61.8531 0.0000 0.0000 0.0000
# 3 72.0018 61.8531 112.4363 0.0000 0.0000 0.0000
# 4 0.0000 0.0000 0.0000 -111.6275 0.0000 0.0000
# 5 0.0000 0.0000 0.0000 0.0000 25.1018 0.0000
# 6 0.0000 0.0000 0.0000 0.0000 0.0000 20.7345
#
#
#
# Elastic Compliance Matrix: (Units=1/GPa)
#
#
# Indices 1 2 3 4 5 6 
#
# 1 0.018651 -0.003106 -0.010235 0.000000 0.000000 0.000000
# 2 -0.003106 0.015949 -0.006785 0.000000 0.000000 0.000000
# 3 -0.010235 -0.006785 0.019181 0.000000 0.000000 0.000000
# 4 0.000000 0.000000 0.000000 -0.008958 0.000000 0.000000
# 5 0.000000 0.000000 0.000000 0.000000 0.039838 0.000000
# 6 0.000000 0.000000 0.000000 0.000000 0.000000 0.048229
#
#
# Mechanical properties :
#
#
# Convention : Reuss Voigt Hill
#
# Bulk Modulus (GPa) = 73.91441 75.69914 74.80677
# Shear Modulus (GPa) = 28.14501 -4.58958 11.77772
#
# Velocity S-wave (km/s) = 3.82126 -1.54309 2.47193
# Velocity P-wave (km/s) = 7.60377 6.00824 6.85260
#
# Compressibility (1/GPa) = 0.01352916
#
# Stress axis : x y z
#
# Youngs Moduli (GPa) = 53.61583 62.69966 52.13484
#
# Poissons Ratio (x) = 0.19472 0.53362
# Poissons Ratio (y) = 0.16651 0.35374
# Poissons Ratio (z) = 0.54878 0.42542
#
# Static dielectric constant tensor:
#      x y z
#    x 1.743590 0.000000 0.000000 
#    y 0.000000 1.758900 0.000000 
#    z 0.000000 0.000000 1.635010 
# 
# From -- ./inp_files/30727.got.cif
#   From: 2010.05.17/outbox.cif.g08.bks.cpg/sg21_16_cif.got.tgz:30727.got - 2010.06.03 23:14:55.
