data_PCOD9324375
_publ_section_title
;
Structure prediction by ZEFSAII (Michael W. Deem and Ramdas Pophale) SiO2 
 PCOD9324375
Probable space group: C 2 2 2
;
_chemical_formula_sum "Si O2"
_cell_formula_units_Z 58
_cell_length_a 13.852338
_cell_length_b 8.510123
_cell_length_c 24.929727
_cell_angle_alpha 90.000000
_cell_angle_beta 90.000000
_cell_angle_gamma 90.000000
_cell_volume 2938.843366
_symmetry_space_group_name_H-M "C 2 2 2"
_symmetry_group_IT_number 21
_symmetry_cell_setting 'orthorhombic'
loop_
_space_group_symop_operation_xyz
x,y,z
-x,-y,z
x,-y,-z
-x,y,-z
1/2+x,1/2+y,z
1/2-x,1/2-y,z
1/2+x,1/2-y,-z
1/2-x,1/2+y,-z
loop_
_atom_site_type_symbol
_atom_site_label
_atom_site_fract_x
_atom_site_fract_y
_atom_site_fract_z
Si Si1 0.907787 0.112229 0.828463
Si Si2 0.857017 0.187571 0.567194
Si Si3 0.357914 0.690178 0.449293
Si Si4 0.964023 0.666541 0.758439
Si Si5 0.013179 0.187742 0.647144
Si Si6 0.151273 0.674185 0.924702
Si Si7 0.500000 0.000000 0.000000
Si Si8 0.215601 0.419497 0.836635
O O1 0.889303 0.190108 0.885983
O O2 0.947142 0.251279 0.790336
O O3 0.809394 0.016532 0.813558
O O4 0.000000 0.000000 0.830362
O O5 0.750000 0.250000 0.570762
O O6 0.895655 0.237121 0.508316
O O7 0.911960 0.240689 0.620769
O O8 0.859543 0.998394 0.559897
O O9 0.250000 0.750000 0.447297
O O10 0.415032 0.750530 0.398247
O O11 0.949157 0.767932 0.705478
O O12 0.870456 0.628858 0.795387
O O13 0.000000 0.500000 0.738285
O O14 0.000000 0.000000 0.647639
O O15 0.250000 0.750000 0.948612
O O16 0.071246 0.609382 0.964946
O O17 0.177034 0.530624 0.884176
O O18 0.250000 0.250000 0.857949
#
# Coordination Sequence:
#
# PCOD9324375 Si02
#       8
#     8   8   8   8   8   8   2   8
#     4  11  22  43  69  97 126 172 227 266 315 386
#     4   9  18  36  58  81 107 151 198 248 312 382
#     4   9  18  35  59  79 108 150 200 245 305 397
#     4  12  24  41  61  92 127 164 217 269 334 387
#     4  10  22  38  54  84 121 154 196 258 324 391
#     4  10  24  45  68 103 136 180 228 268 321 387
#     4  12  24  44  74  98 156 184 210 292 342 370
#     4  11  23  41  72  95 126 175 222 270 315 387
#
# _framework density 19.735654
#
# number of rings (size 3 to 8) (size 9 to 14) (size 15 to 20)
#    0.000    1.655    2.759    1.655    0.000    3.862 
#    7.448    0.000    0.000    4.138    0.000    0.000 
#    0.000    0.000    0.000    0.000    0.000    0.000 
#
# Total GULP energy -161497.745469 kJ/mol
# GULP energy per Si atom -5568.887775 kJ/mol
# Density = 1.969073 g / cm^3
# Si number density = 19.735654 Si / 1000 Ang^3
#
#
#
# Elastic Constant Matrix: (Units=GPa)
#
#
# Indices 1 2 3 4 5 6 
#
# 1 131.6911 23.5277 61.1464 0.0000 0.0000 0.0000
# 2 23.5277 47.3476 19.0258 0.0000 0.0000 0.0000
# 3 61.1464 19.0258 90.2047 0.0000 0.0000 0.0000
# 4 0.0000 0.0000 0.0000 21.4274 0.0000 0.0000
# 5 0.0000 0.0000 0.0000 0.0000 17.0405 0.0000
# 6 0.0000 0.0000 0.0000 0.0000 0.0000 25.2996
#
#
#
# Elastic Compliance Matrix: (Units=1/GPa)
#
#
# Indices 1 2 3 4 5 6 
#
# 1 0.011411 -0.002799 -0.007145 0.000000 0.000000 0.000000
# 2 -0.002799 0.023763 -0.003114 0.000000 0.000000 0.000000
# 3 -0.007145 -0.003114 0.016586 0.000000 0.000000 0.000000
# 4 0.000000 0.000000 0.000000 0.046669 0.000000 0.000000
# 5 0.000000 0.000000 0.000000 0.000000 0.058684 0.000000
# 6 0.000000 0.000000 0.000000 0.000000 0.000000 0.039526
#
#
# Mechanical properties :
#
#
# Convention : Reuss Voigt Hill
#
# Bulk Modulus (GPa) = 38.99715 52.96035 45.97875
# Shear Modulus (GPa) = 21.61659 23.78973 22.70316
#
# Velocity S-wave (km/s) = 3.31313 3.47568 3.39538
# Velocity P-wave (km/s) = 5.86843 6.55746 6.22249
#
# Compressibility (1/GPa) = 0.02564290
#
# Stress axis : x y z
#
# Youngs Moduli (GPa) = 87.63432 42.08233 60.29215
#
# Poissons Ratio (x) = 0.11780 0.43077
# Poissons Ratio (y) = 0.24532 0.18778
# Poissons Ratio (z) = 0.62612 0.13106
#
# Static dielectric constant tensor:
#      x y z
#    x 1.717950 0.000000 0.000000 
#    y 0.000000 1.721970 0.000000 
#    z 0.000000 0.000000 1.681180 
# 
# From -- ./inp_files/38733.got.cif
#   From: 2010.05.17/outbox.cif.g08.bks.cpg/sg21_20_cif.got.tgz:38733.got - 2010.06.03 23:14:55.
