data_PCOD9324429
_publ_section_title
;
Structure prediction by ZEFSAII (Michael W. Deem and Ramdas Pophale) SiO2 
 PCOD9324429
Probable space group: C 2 2 2
;
_chemical_formula_sum "Si O2"
_cell_formula_units_Z 34
_cell_length_a 25.077369
_cell_length_b 4.920182
_cell_length_c 12.581624
_cell_angle_alpha 90.000000
_cell_angle_beta 90.000000
_cell_angle_gamma 90.000000
_cell_volume 1552.386440
_symmetry_space_group_name_H-M "C 2 2 2"
_symmetry_group_IT_number 21
_symmetry_cell_setting 'orthorhombic'
loop_
_space_group_symop_operation_xyz
x,y,z
-x,-y,z
x,-y,-z
-x,y,-z
1/2+x,1/2+y,z
1/2-x,1/2-y,z
1/2+x,1/2-y,-z
1/2-x,1/2+y,-z
loop_
_atom_site_type_symbol
_atom_site_label
_atom_site_fract_x
_atom_site_fract_y
_atom_site_fract_z
Si Si1 0.035910 0.761348 0.208382
Si Si2 0.352489 0.048231 0.714748
Si Si3 0.814052 0.255110 0.925650
Si Si4 0.500000 0.500000 0.000000
Si Si5 0.197582 0.084163 0.378687
O O1 0.091931 0.693589 0.259953
O O2 0.000000 0.500000 0.215029
O O3 0.000000 0.000000 0.258161
O O4 0.037518 0.838114 0.082524
O O5 0.314544 0.308067 0.687751
O O6 0.339002 0.846866 0.814076
O O7 0.348142 0.818112 0.623984
O O8 0.750000 0.250000 0.910905
O O9 0.828866 0.500000 0.000000
O O10 0.828512 0.000000 0.000000
O O11 0.250000 0.250000 0.341495
O O12 0.206262 0.000000 0.500000
#
# Coordination Sequence:
#
# PCOD9324429 Si02
#       5
#     8   8   8   2   8
#     4  10  22  42  66  99 140 182 239 292 342 415
#     4  12  24  43  72 101 142 192 238 297 368 432
#     4  10  22  39  58  90 140 186 227 275 339 431
#     4   8  22  40  70  92 144 180 242 280 350 388
#     4  12  26  46  73 106 143 184 242 312 371 437
#
# _framework density 21.901762000000002
#
# number of rings (size 3 to 8) (size 9 to 14) (size 15 to 20)
#    0.706    0.471    0.000    6.706    0.000    5.647 
#    4.235    0.000    0.000   10.588    0.000    0.000 
#    0.000    0.000    0.000    0.000    0.000    0.000 
#
# Total GULP energy -94765.093376 kJ/mol
# GULP energy per Si atom -5574.417257 kJ/mol
# Density = 2.185191 g / cm^3
# Si number density = 21.901762 Si / 1000 Ang^3
#
#
#
# Elastic Constant Matrix: (Units=GPa)
#
#
# Indices 1 2 3 4 5 6 
#
# 1 100.6625 56.0253 33.1320 0.0000 0.0000 0.0000
# 2 56.0253 212.7043 46.6086 0.0000 0.0000 0.0000
# 3 33.1320 46.6086 70.1090 0.0000 0.0000 0.0000
# 4 0.0000 0.0000 0.0000 59.8262 0.0000 0.0000
# 5 0.0000 0.0000 0.0000 0.0000 16.9299 0.0000
# 6 0.0000 0.0000 0.0000 0.0000 0.0000 40.0047
#
#
#
# Elastic Compliance Matrix: (Units=1/GPa)
#
#
# Indices 1 2 3 4 5 6 
#
# 1 0.012716 -0.002379 -0.004427 0.000000 0.000000 0.000000
# 2 -0.002379 0.005948 -0.002830 0.000000 0.000000 0.000000
# 3 -0.004427 -0.002830 0.018237 0.000000 0.000000 0.000000
# 4 0.000000 0.000000 0.000000 0.016715 0.000000 0.000000
# 5 0.000000 0.000000 0.000000 0.000000 0.059067 0.000000
# 6 0.000000 0.000000 0.000000 0.000000 0.000000 0.024997
#
#
# Mechanical properties :
#
#
# Convention : Reuss Voigt Hill
#
# Bulk Modulus (GPa) = 56.72866 72.77862 64.75364
# Shear Modulus (GPa) = 30.70702 39.86615 35.28659
#
# Velocity S-wave (km/s) = 3.74844 4.27104 4.01824
# Velocity P-wave (km/s) = 6.68521 7.59105 7.15249
#
# Compressibility (1/GPa) = 0.01762777
#
# Stress axis : x y z
#
# Youngs Moduli (GPa) = 78.64393 168.12036 54.83278
#
# Poissons Ratio (x) = 0.39997 0.24277
# Poissons Ratio (y) = 0.18710 0.15518
# Poissons Ratio (z) = 0.34820 0.47579
#
# Static dielectric constant tensor:
#      x y z
#    x 1.840210 0.000000 0.000000 
#    y 0.000000 1.811070 0.000000 
#    z 0.000000 0.000000 1.794590 
# 
# From -- ./inp_files/27163.got.cif
#   From: 2010.05.17/outbox.cif.g08.bks.cpg/sg21_14_cif.got.tgz:27163.got - 2010.06.03 23:14:55.
