data_PCOD9324936
_publ_section_title
;
Structure prediction by ZEFSAII (Michael W. Deem and Ramdas Pophale) SiO2 
 PCOD9324936
Probable space group: C 2 2 2
;
_chemical_formula_sum "Si O2"
_cell_formula_units_Z 40
_cell_length_a 9.092807
_cell_length_b 14.789064
_cell_length_c 14.940041
_cell_angle_alpha 90.000000
_cell_angle_beta 90.000000
_cell_angle_gamma 90.000000
_cell_volume 2009.048637
_symmetry_space_group_name_H-M "C 2 2 2"
_symmetry_group_IT_number 21
_symmetry_cell_setting 'orthorhombic'
loop_
_space_group_symop_operation_xyz
x,y,z
-x,-y,z
x,-y,-z
-x,y,-z
1/2+x,1/2+y,z
1/2-x,1/2-y,z
1/2+x,1/2-y,-z
1/2-x,1/2+y,-z
loop_
_atom_site_type_symbol
_atom_site_label
_atom_site_fract_x
_atom_site_fract_y
_atom_site_fract_z
Si Si1 0.500000 0.346038 0.000000
Si Si2 0.263365 0.597280 0.251963
Si Si3 0.500000 0.500000 0.870179
Si Si4 0.000000 0.500000 0.341839
Si Si5 0.250000 0.750000 0.574900
Si Si6 0.995768 0.889980 0.392213
Si Si7 0.250000 0.750000 0.116626
Si Si8 0.500000 0.860371 0.500000
O O1 0.566340 0.418121 0.929134
O O2 0.379637 0.287944 0.946697
O O3 0.376913 0.543753 0.190408
O O4 0.362236 0.638332 0.333321
O O5 0.196638 0.672499 0.185693
O O6 0.142123 0.527234 0.286287
O O7 0.985976 0.582292 0.410483
O O8 0.145662 0.823544 0.628280
O O9 0.356200 0.802172 0.507723
O O10 0.000000 0.883091 0.500000
O O11 0.000000 0.000000 0.376460
#
# Coordination Sequence:
#
# PCOD9324936 Si02
#       8
#     4   8   4   4   4   8   4   4
#     4   9  20  44  68  99 126 172 206 269 370 436
#     4  11  23  42  64 102 133 179 228 295 350 422
#     4   9  20  42  69  90 132 174 221 260 350 459
#     4  11  26  42  62  89 140 176 236 301 354 406
#     4  12  24  41  69  90 126 192 254 312 351 411
#     4  11  23  41  66  97 143 198 250 299 354 429
#     4  10  24  41  73 100 136 162 218 300 349 459
#     4  11  26  44  59  94 124 194 249 290 344 427
#
# _framework density 19.909922000000002
#
# number of rings (size 3 to 8) (size 9 to 14) (size 15 to 20)
#    0.000    1.400    2.000    2.400    2.800    5.600 
#    0.000    4.000    0.000    0.000    0.000    0.000 
#    0.000    0.000    0.000    0.000    0.000    0.000 
#
# Total GULP energy -111366.430975 kJ/mol
# GULP energy per Si atom -5568.321549 kJ/mol
# Density = 1.986461 g / cm^3
# Si number density = 19.909922 Si / 1000 Ang^3
#
#
#
# Elastic Constant Matrix: (Units=GPa)
#
#
# Indices 1 2 3 4 5 6 
#
# 1 104.6716 54.8202 43.3709 0.0000 0.0000 0.0000
# 2 54.8202 112.4235 41.2624 0.0000 0.0000 0.0000
# 3 43.3709 41.2624 105.9001 0.0000 0.0000 0.0000
# 4 0.0000 0.0000 0.0000 31.8822 0.0000 0.0000
# 5 0.0000 0.0000 0.0000 0.0000 44.3163 0.0000
# 6 0.0000 0.0000 0.0000 0.0000 0.0000 41.1395
#
#
#
# Elastic Compliance Matrix: (Units=1/GPa)
#
#
# Indices 1 2 3 4 5 6 
#
# 1 0.013892 -0.005468 -0.003559 0.000000 0.000000 0.000000
# 2 -0.005468 0.012531 -0.002643 0.000000 0.000000 0.000000
# 3 -0.003559 -0.002643 0.011930 0.000000 0.000000 0.000000
# 4 0.000000 0.000000 0.000000 0.031365 0.000000 0.000000
# 5 0.000000 0.000000 0.000000 0.000000 0.022565 0.000000
# 6 0.000000 0.000000 0.000000 0.000000 0.000000 0.024308
#
#
# Mechanical properties :
#
#
# Convention : Reuss Voigt Hill
#
# Bulk Modulus (GPa) = 66.60673 66.87801 66.74237
# Shear Modulus (GPa) = 34.49784 35.70370 35.10077
#
# Velocity S-wave (km/s) = 4.16708 4.23929 4.20334
# Velocity P-wave (km/s) = 7.52857 7.59113 7.55992
#
# Compressibility (1/GPa) = 0.01501350
#
# Stress axis : x y z
#
# Youngs Moduli (GPa) = 71.98359 79.79982 83.81981
#
# Poissons Ratio (x) = 0.43633 0.29831
# Poissons Ratio (y) = 0.39360 0.22156
# Poissons Ratio (z) = 0.25619 0.21094
#
# Static dielectric constant tensor:
#      x y z
#    x 1.620090 0.000000 0.000000 
#    y 0.000000 1.350800 0.000000 
#    z 0.000000 0.000000 1.735630 
# 
# From -- ./inp_files/30286.got.cif
#   From: 2010.05.17/outbox.cif.g08.bks.cpg/sg21_16_cif.got.tgz:30286.got - 2010.06.03 23:14:55.
