data_PCOD9324202
_publ_section_title
;
Structure prediction by ZEFSAII (Michael W. Deem and Ramdas Pophale) SiO2 
 PCOD9324202
Probable space group: C 2 2 2
;
_chemical_formula_sum "Si O2"
_cell_formula_units_Z 32
_cell_length_a 11.396925
_cell_length_b 8.369474
_cell_length_c 14.418937
_cell_angle_alpha 90.000000
_cell_angle_beta 90.000000
_cell_angle_gamma 90.000000
_cell_volume 1375.368581
_symmetry_space_group_name_H-M "C 2 2 2"
_symmetry_group_IT_number 21
_symmetry_cell_setting 'orthorhombic'
loop_
_space_group_symop_operation_xyz
x,y,z
-x,-y,z
x,-y,-z
-x,y,-z
1/2+x,1/2+y,z
1/2-x,1/2-y,z
1/2+x,1/2-y,-z
1/2-x,1/2+y,-z
loop_
_atom_site_type_symbol
_atom_site_label
_atom_site_fract_x
_atom_site_fract_y
_atom_site_fract_z
Si Si1 0.625963 0.441046 0.605318
Si Si2 0.875769 0.405930 0.674177
Si Si3 0.853386 0.831336 0.947798
Si Si4 0.563111 0.830028 0.124082
O O1 0.500000 0.500000 0.645197
O O2 0.632299 0.500000 0.500000
O O3 0.750148 0.489109 0.653602
O O4 0.619398 0.248896 0.608948
O O5 0.871711 0.338002 0.779174
O O6 0.000000 0.500000 0.665536
O O7 0.750000 0.750000 0.889759
O O8 0.967486 0.810992 0.884386
O O9 0.864823 0.702355 0.031571
O O10 0.845373 0.000000 0.000000
O O11 0.500000 0.000000 0.116123
#
# Coordination Sequence:
#
# PCOD9324202 Si02
#       4
#     8   8   8   8
#     4  10  24  45  70 103 138 181 239 298 367 445
#     4  10  24  45  71 106 144 190 232 308 363 433
#     4  11  22  38  65  97 138 198 243 300 358 424
#     4  10  21  41  62  96 141 181 246 295 360 421
#
# _framework density 23.266490999999998
#
# number of rings (size 3 to 8) (size 9 to 14) (size 15 to 20)
#    0.000    1.750    0.000    4.500    3.500   11.500 
#    9.000    0.000    0.000    0.000    0.000    0.000 
#    0.000    0.000    0.000    0.000    0.000    0.000 
#
# Total GULP energy -89208.699648 kJ/mol
# GULP energy per Si atom -5575.543728 kJ/mol
# Density = 2.321354 g / cm^3
# Si number density = 23.266491 Si / 1000 Ang^3
#
#
#
# Elastic Constant Matrix: (Units=GPa)
#
#
# Indices 1 2 3 4 5 6 
#
# 1 214.0878 35.2648 29.0820 0.0000 0.0000 0.0000
# 2 35.2648 106.0922 23.2394 0.0000 0.0000 0.0000
# 3 29.0820 23.2394 112.6820 0.0000 0.0000 0.0000
# 4 0.0000 0.0000 0.0000 137.5898 0.0000 0.0000
# 5 0.0000 0.0000 0.0000 0.0000 -48.8074 0.0000
# 6 0.0000 0.0000 0.0000 0.0000 0.0000 45.2355
#
#
#
# Elastic Compliance Matrix: (Units=1/GPa)
#
#
# Indices 1 2 3 4 5 6 
#
# 1 0.005047 -0.001458 -0.001002 0.000000 0.000000 0.000000
# 2 -0.001458 0.010293 -0.001746 0.000000 0.000000 0.000000
# 3 -0.001002 -0.001746 0.009493 0.000000 0.000000 0.000000
# 4 0.000000 0.000000 0.000000 0.007268 0.000000 0.000000
# 5 0.000000 0.000000 0.000000 0.000000 -0.020489 0.000000
# 6 0.000000 0.000000 0.000000 0.000000 0.000000 0.022107
#
#
# Mechanical properties :
#
#
# Convention : Reuss Voigt Hill
#
# Bulk Modulus (GPa) = 60.89985 67.55937 64.22961
# Shear Modulus (GPa) = 105.02848 49.82197 77.42522
#
# Velocity S-wave (km/s) = 6.72603 4.63251 5.77493
# Velocity P-wave (km/s) = 9.30328 7.59695 8.49308
#
# Compressibility (1/GPa) = 0.01642040
#
# Stress axis : x y z
#
# Youngs Moduli (GPa) = 198.12636 97.15301 105.33745
#
# Poissons Ratio (x) = 0.14167 0.10554
# Poissons Ratio (y) = 0.28892 0.18397
# Poissons Ratio (z) = 0.19850 0.16967
#
# Static dielectric constant tensor:
#      x y z
#    x 1.823290 0.000000 0.000000 
#    y 0.000000 1.882280 0.000000 
#    z 0.000000 0.000000 1.870000 
# 
# From -- ./inp_files/31229.got.cif
#   From: 2010.05.17/outbox.cif.g08.bks.cpg/sg21_16_cif.got.tgz:31229.got - 2010.06.03 23:14:55.
