data_PCOD9324825
_publ_section_title
;
Structure prediction by ZEFSAII (Michael W. Deem and Ramdas Pophale) SiO2 
 PCOD9324825
Probable space group: C 2 2 2
;
_chemical_formula_sum "Si O2"
_cell_formula_units_Z 32
_cell_length_a 5.093569
_cell_length_b 28.277154
_cell_length_c 9.314943
_cell_angle_alpha 90.000000
_cell_angle_beta 90.000000
_cell_angle_gamma 90.000000
_cell_volume 1341.646470
_symmetry_space_group_name_H-M "C 2 2 2"
_symmetry_group_IT_number 21
_symmetry_cell_setting 'orthorhombic'
loop_
_space_group_symop_operation_xyz
x,y,z
-x,-y,z
x,-y,-z
-x,y,-z
1/2+x,1/2+y,z
1/2-x,1/2-y,z
1/2+x,1/2-y,-z
1/2-x,1/2+y,-z
loop_
_atom_site_type_symbol
_atom_site_label
_atom_site_fract_x
_atom_site_fract_y
_atom_site_fract_z
Si Si1 0.500000 0.105373 0.500000
Si Si2 0.958965 0.555223 0.788162
Si Si3 0.750000 0.750000 0.892760
Si Si4 0.929618 0.887878 0.149097
Si Si5 0.894180 0.180576 0.358876
O O1 0.561936 0.069732 0.629527
O O2 0.711959 0.140821 0.430804
O O3 0.171369 0.582833 0.881224
O O4 0.000000 0.500000 0.811720
O O5 0.666462 0.576249 0.808403
O O6 0.758927 0.792229 0.773170
O O7 0.500000 0.752558 0.000000
O O8 0.886626 0.849220 0.272534
O O9 0.000000 0.862896 0.000000
O O10 0.000000 0.208415 0.500000
#
# Coordination Sequence:
#
# PCOD9324825 Si02
#       5
#     4   8   4   8   8
#     4  10  23  42  68 104 134 190 238 298 365 424
#     4  11  23  40  65  98 140 182 240 299 355 428
#     4  12  32  50  78 116 154 192 242 316 388 454
#     4  11  24  42  66  98 139 189 234 295 366 432
#     4  11  25  47  77 103 148 188 256 298 373 446
#
# _framework density 23.851291
#
# number of rings (size 3 to 8) (size 9 to 14) (size 15 to 20)
#    0.000    1.000    2.500    2.625    5.250    7.000 
#    0.000    2.500    0.000    0.000    0.000    0.000 
#    0.000    0.000    0.000    0.000    0.000    0.000 
#
# Total GULP energy -89262.499103 kJ/mol
# GULP energy per Si atom -5578.906194 kJ/mol
# Density = 2.379700 g / cm^3
# Si number density = 23.851291 Si / 1000 Ang^3
#
#
#
# Elastic Constant Matrix: (Units=GPa)
#
#
# Indices 1 2 3 4 5 6 
#
# 1 120.3877 21.6833 47.3905 0.0000 0.0000 0.0000
# 2 21.6833 55.0521 49.4353 0.0000 0.0000 0.0000
# 3 47.3905 49.4353 215.5127 0.0000 0.0000 0.0000
# 4 0.0000 0.0000 0.0000 -66.7644 0.0000 0.0000
# 5 0.0000 0.0000 0.0000 0.0000 39.2431 0.0000
# 6 0.0000 0.0000 0.0000 0.0000 0.0000 23.6195
#
#
#
# Elastic Compliance Matrix: (Units=1/GPa)
#
#
# Indices 1 2 3 4 5 6 
#
# 1 0.009320 -0.002305 -0.001521 0.000000 0.000000 0.000000
# 2 -0.002305 0.023447 -0.004871 0.000000 0.000000 0.000000
# 3 -0.001521 -0.004871 0.006092 0.000000 0.000000 0.000000
# 4 0.000000 0.000000 0.000000 -0.014978 0.000000 0.000000
# 5 0.000000 0.000000 0.000000 0.000000 0.025482 0.000000
# 6 0.000000 0.000000 0.000000 0.000000 0.000000 0.042338
#
#
# Mechanical properties :
#
#
# Convention : Reuss Voigt Hill
#
# Bulk Modulus (GPa) = 46.58919 69.77451 58.18185
# Shear Modulus (GPa) = 43.01025 17.38253 30.19639
#
# Velocity S-wave (km/s) = 4.25110 2.70254 3.56199
# Velocity P-wave (km/s) = 6.60843 6.24946 6.43145
#
# Compressibility (1/GPa) = 0.02146421
#
# Stress axis : x y z
#
# Youngs Moduli (GPa) = 107.29211 42.64918 164.15187
#
# Poissons Ratio (x) = 0.09833 0.24962
# Poissons Ratio (y) = 0.24736 0.79966
# Poissons Ratio (z) = 0.16316 0.20776
#
# Static dielectric constant tensor:
#      x y z
#    x 1.966660 0.000000 0.000000 
#    y 0.000000 1.926680 0.000000 
#    z 0.000000 0.000000 2.029470 
# 
# From -- ./inp_files/9207.got.cif
#   From: 2010.05.17/outbox.cif.g08.bks.cpg/sg21_5_cif.got.tgz:9207.got - 2010.06.03 23:14:55.
