data_PCOD9324872
_publ_section_title
;
Structure prediction by ZEFSAII (Michael W. Deem and Ramdas Pophale) SiO2 
 PCOD9324872
Probable space group: C 2 2 2
;
_chemical_formula_sum "Si O2"
_cell_formula_units_Z 14
_cell_length_a 22.647243
_cell_length_b 5.290018
_cell_length_c 4.657764
_cell_angle_alpha 90.000000
_cell_angle_beta 90.000000
_cell_angle_gamma 90.000000
_cell_volume 558.020263
_symmetry_space_group_name_H-M "C 2 2 2"
_symmetry_group_IT_number 21
_symmetry_cell_setting 'orthorhombic'
loop_
_space_group_symop_operation_xyz
x,y,z
-x,-y,z
x,-y,-z
-x,y,-z
1/2+x,1/2+y,z
1/2-x,1/2-y,z
1/2+x,1/2-y,-z
1/2-x,1/2+y,-z
loop_
_atom_site_type_symbol
_atom_site_label
_atom_site_fract_x
_atom_site_fract_y
_atom_site_fract_z
Si Si1 0.185619 0.252363 0.192987
Si Si2 0.000000 0.000000 0.000000
Si Si3 0.085291 0.000000 0.500000
O O1 0.250000 0.250000 0.342476
O O2 0.129136 0.217115 0.391371
O O3 0.181428 0.500000 0.000000
O O4 0.185215 0.000000 0.000000
O O5 0.954107 0.108657 0.237054
#
# Coordination Sequence:
#
# PCOD9324872 Si02
#       3
#     8   2   4
#     4  10  23  44  77 117 153 193 248 320 393 454
#     4  10  24  46  78 106 154 214 258 304 374 458
#     4  11  22  48  78 108 158 199 262 310 380 455
#
# _framework density 25.088695000000001
#
# number of rings (size 3 to 8) (size 9 to 14) (size 15 to 20)
#    0.000    1.714    2.857    0.000    0.000    9.143 
#    0.000    1.429   12.571    0.000    0.000    0.000 
#    0.000    0.000    0.000    0.000    0.000    0.000 
#
# Total GULP energy -39091.013845 kJ/mol
# GULP energy per Si atom -5584.430549 kJ/mol
# Density = 2.503159 g / cm^3
# Si number density = 25.088695 Si / 1000 Ang^3
#
#
#
# Elastic Constant Matrix: (Units=GPa)
#
#
# Indices 1 2 3 4 5 6 
#
# 1 233.0856 40.8126 100.3658 0.0000 0.0000 0.0000
# 2 40.8126 169.9627 52.2547 0.0000 0.0000 0.0000
# 3 100.3658 52.2547 150.4594 0.0000 0.0000 0.0000
# 4 0.0000 0.0000 0.0000 49.9454 0.0000 0.0000
# 5 0.0000 0.0000 0.0000 0.0000 1066.0392 0.0000
# 6 0.0000 0.0000 0.0000 0.0000 0.0000 1.5270
#
#
#
# Elastic Compliance Matrix: (Units=1/GPa)
#
#
# Indices 1 2 3 4 5 6 
#
# 1 0.006028 -0.000236 -0.003939 0.000000 0.000000 0.000000
# 2 -0.000236 0.006596 -0.002133 0.000000 0.000000 0.000000
# 3 -0.003939 -0.002133 0.010015 0.000000 0.000000 0.000000
# 4 0.000000 0.000000 0.000000 0.020022 0.000000 0.000000
# 5 0.000000 0.000000 0.000000 0.000000 0.000938 0.000000
# 6 0.000000 0.000000 0.000000 0.000000 0.000000 0.654870
#
#
# Mechanical properties :
#
#
# Convention : Reuss Voigt Hill
#
# Bulk Modulus (GPa) = 99.78240 104.48597 102.13419
# Shear Modulus (GPa) = 6.99863 247.50729 127.25296
#
# Velocity S-wave (km/s) = 1.67201 9.94319 7.12961
# Velocity P-wave (km/s) = 6.60194 13.17421 10.41982
#
# Compressibility (1/GPa) = 0.01002181
#
# Stress axis : x y z
#
# Youngs Moduli (GPa) = 165.90166 151.60113 99.85496
#
# Poissons Ratio (x) = 0.03585 0.39330
# Poissons Ratio (y) = 0.03923 0.21301
# Poissons Ratio (z) = 0.65344 0.32339
#
# Static dielectric constant tensor:
#      x y z
#    x 2.037190 0.000000 0.000000 
#    y 0.000000 1.866950 0.000000 
#    z 0.000000 0.000000 1.983620 
# 
# From -- ./inp_files/317.got.cif
#   From: 2010.05.17/outbox.cif.g08.bks.cpg/sg21_1_cif.got.tgz:317.got - 2010.06.03 23:14:55.
