data_PCOD9324639
_publ_section_title
;
Structure prediction by ZEFSAII (Michael W. Deem and Ramdas Pophale) SiO2 
 PCOD9324639
Probable space group: C 2 2 2
;
_chemical_formula_sum "Si O2"
_cell_formula_units_Z 56
_cell_length_a 19.780615
_cell_length_b 25.099225
_cell_length_c 5.167720
_cell_angle_alpha 90.000000
_cell_angle_beta 90.000000
_cell_angle_gamma 90.000000
_cell_volume 2565.659841
_symmetry_space_group_name_H-M "C 2 2 2"
_symmetry_group_IT_number 21
_symmetry_cell_setting 'orthorhombic'
loop_
_space_group_symop_operation_xyz
x,y,z
-x,-y,z
x,-y,-z
-x,y,-z
1/2+x,1/2+y,z
1/2-x,1/2-y,z
1/2+x,1/2-y,-z
1/2-x,1/2+y,-z
loop_
_atom_site_type_symbol
_atom_site_label
_atom_site_fract_x
_atom_site_fract_y
_atom_site_fract_z
Si Si1 0.427445 0.669149 0.476471
Si Si2 0.281561 0.404925 0.038138
Si Si3 0.701730 0.937461 0.539817
Si Si4 0.313981 0.712423 0.174371
Si Si5 0.923724 0.639055 0.540621
Si Si6 0.071709 0.093916 0.024436
Si Si7 0.576319 0.788566 0.043593
O O1 0.500000 0.698890 0.500000
O O2 0.358127 0.700561 0.432263
O O3 0.424106 0.628080 0.712315
O O4 0.431796 0.634977 0.213787
O O5 0.231163 0.427920 0.824928
O O6 0.291019 0.342671 0.959664
O O7 0.252906 0.413809 0.324167
O O8 0.355096 0.432579 0.007636
O O9 0.632006 0.905914 0.509530
O O10 0.693579 0.000000 0.500000
O O11 0.250000 0.750000 0.223139
O O12 0.368292 0.743685 0.000146
O O13 0.915599 0.683778 0.319523
O O14 0.000000 0.618520 0.500000
O O15 0.915555 0.666948 0.819185
O O16 0.000000 0.063956 0.000000
O O17 0.500000 0.767698 0.000000
#
# Coordination Sequence:
#
# PCOD9324639 Si02
#       7
#     8   8   8   8   8   8   8
#     4   9  19  33  52  81 116 155 202 248 286 340
#     4  11  24  41  62  93 127 161 206 262 314 371
#     4  12  25  44  68  92 123 164 212 267 328 378
#     4  11  22  37  60  91 128 168 209 248 301 378
#     4  10  22  43  66  92 128 166 209 261 312 370
#     4   9  18  36  60  84 111 149 196 246 298 351
#     4  10  23  40  62  94 134 172 204 249 311 375
#
# _framework density 21.826743
#
# number of rings (size 3 to 8) (size 9 to 14) (size 15 to 20)
#    0.000    1.714    0.000    4.714    0.000   10.000 
#    0.000    8.571    0.000    6.857    0.000    0.000 
#    0.000    0.000    0.000    0.000    0.000    0.000 
#
# Total GULP energy -156591.563273 kJ/mol
# GULP energy per Si atom -5592.555831 kJ/mol
# Density = 2.177706 g / cm^3
# Si number density = 21.826743 Si / 1000 Ang^3
#
#
#
# Elastic Constant Matrix: (Units=GPa)
#
#
# Indices 1 2 3 4 5 6 
#
# 1 113.7207 49.2747 7.3484 0.0000 0.0000 0.0000
# 2 49.2747 67.9272 -5.7625 0.0000 0.0000 0.0000
# 3 7.3484 -5.7625 99.2945 0.0000 0.0000 0.0000
# 4 0.0000 0.0000 0.0000 6.4262 0.0000 0.0000
# 5 0.0000 0.0000 0.0000 0.0000 31.1841 0.0000
# 6 0.0000 0.0000 0.0000 0.0000 0.0000 -14.3856
#
#
#
# Elastic Compliance Matrix: (Units=1/GPa)
#
#
# Indices 1 2 3 4 5 6 
#
# 1 0.013049 -0.009595 -0.001523 0.000000 0.000000 0.000000
# 2 -0.009595 0.021850 0.001978 0.000000 0.000000 0.000000
# 3 -0.001523 0.001978 0.010299 0.000000 0.000000 0.000000
# 4 0.000000 0.000000 0.000000 0.155612 0.000000 0.000000
# 5 0.000000 0.000000 0.000000 0.000000 0.032068 0.000000
# 6 0.000000 0.000000 0.000000 0.000000 0.000000 -0.069514
#
#
# Mechanical properties :
#
#
# Convention : Reuss Voigt Hill
#
# Bulk Modulus (GPa) = 37.14923 42.51817 39.83370
# Shear Modulus (GPa) = 26.23078 19.98374 23.10726
#
# Velocity S-wave (km/s) = 3.47042 3.02911 3.25725
# Velocity P-wave (km/s) = 5.75460 5.63526 5.69524
#
# Compressibility (1/GPa) = 0.02691846
#
# Stress axis : x y z
#
# Youngs Moduli (GPa) = 76.63140 45.76666 97.10114
#
# Poissons Ratio (x) = 0.43915 0.14785
# Poissons Ratio (y) = 0.73530 -0.19208
# Poissons Ratio (z) = 0.11668 -0.09053
#
# Static dielectric constant tensor:
#      x y z
#    x 1.859630 0.000000 0.000000 
#    y 0.000000 1.772540 0.000000 
#    z 0.000000 0.000000 1.781360 
# 
# From -- ./inp_files/6088.got.cif
#   From: 2010.05.17/outbox.cif.g08.bks.cpg/sg21_4_cif.got.tgz:6088.got - 2010.06.03 23:14:55.
