data_PCOD9324621
_publ_section_title
;
Structure prediction by ZEFSAII (Michael W. Deem and Ramdas Pophale) SiO2 
 PCOD9324621
Probable space group: C 2 2 2
;
_chemical_formula_sum "Si O2"
_cell_formula_units_Z 28
_cell_length_a 15.386136
_cell_length_b 7.038965
_cell_length_c 10.576601
_cell_angle_alpha 90.000000
_cell_angle_beta 90.000000
_cell_angle_gamma 90.000000
_cell_volume 1145.472042
_symmetry_space_group_name_H-M "C 2 2 2"
_symmetry_group_IT_number 21
_symmetry_cell_setting 'orthorhombic'
loop_
_space_group_symop_operation_xyz
x,y,z
-x,-y,z
x,-y,-z
-x,y,-z
1/2+x,1/2+y,z
1/2-x,1/2-y,z
1/2+x,1/2-y,-z
1/2-x,1/2+y,-z
loop_
_atom_site_type_symbol
_atom_site_label
_atom_site_fract_x
_atom_site_fract_y
_atom_site_fract_z
Si Si1 0.185905 0.423154 0.142587
Si Si2 0.250000 0.750000 0.333099
Si Si3 0.988662 0.773468 0.142233
Si Si4 0.441892 0.698348 0.391662
O O1 0.250000 0.250000 0.122835
O O2 0.228174 0.572780 0.239985
O O3 0.100712 0.312832 0.190450
O O4 0.171633 0.500000 0.000000
O O5 0.337726 0.697194 0.413830
O O6 0.055123 0.715342 0.250829
O O7 0.000000 0.000000 0.131536
O O8 0.000000 0.705024 0.000000
O O9 0.500000 0.500000 0.378444
O O10 0.500000 0.794579 0.500000
#
# Coordination Sequence:
#
# PCOD9324621 Si02
#       4
#     8   4   8   8
#     4  12  25  42  73 115 158 205 261 325 399 480
#     4  12  26  48  78 112 154 216 268 324 410 482
#     4  10  22  42  72 106 152 201 248 323 398 468
#     4  10  23  49  75 107 157 206 262 332 394 472
#
# _framework density 24.44407
#
# number of rings (size 3 to 8) (size 9 to 14) (size 15 to 20)
#    0.000    1.143    1.429    5.143    4.000    4.000 
#   12.857    1.429    0.000    1.714    0.000    0.000 
#    0.000    0.000    0.000    0.000    0.000    0.000 
#
# Total GULP energy -77994.019349 kJ/mol
# GULP energy per Si atom -5571.001382 kJ/mol
# Density = 2.438843 g / cm^3
# Si number density = 24.444070 Si / 1000 Ang^3
#
#
#
# Elastic Constant Matrix: (Units=GPa)
#
#
# Indices 1 2 3 4 5 6 
#
# 1 196.8231 58.7979 32.6352 0.0000 0.0000 0.0000
# 2 58.7979 168.6378 4.7922 0.0000 0.0000 0.0000
# 3 32.6352 4.7922 133.7894 0.0000 0.0000 0.0000
# 4 0.0000 0.0000 0.0000 -2.3828 0.0000 0.0000
# 5 0.0000 0.0000 0.0000 0.0000 68.7903 0.0000
# 6 0.0000 0.0000 0.0000 0.0000 0.0000 43.8456
#
#
#
# Elastic Compliance Matrix: (Units=1/GPa)
#
#
# Indices 1 2 3 4 5 6 
#
# 1 0.005912 -0.002022 -0.001370 0.000000 0.000000 0.000000
# 2 -0.002022 0.006628 0.000256 0.000000 0.000000 0.000000
# 3 -0.001370 0.000256 0.007799 0.000000 0.000000 0.000000
# 4 0.000000 0.000000 0.000000 -0.419677 0.000000 0.000000
# 5 0.000000 0.000000 0.000000 0.000000 0.014537 0.000000
# 6 0.000000 0.000000 0.000000 0.000000 0.000000 0.022807
#
#
# Mechanical properties :
#
#
# Convention : Reuss Voigt Hill
#
# Bulk Modulus (GPa) = 71.08927 76.85568 73.97247
# Shear Modulus (GPa) = -14.24370 48.91896 17.33763
#
# Velocity S-wave (km/s) = -2.41655 4.47840 2.66612
# Velocity P-wave (km/s) = 4.62161 7.63224 6.30914
#
# Compressibility (1/GPa) = 0.01406682
#
# Stress axis : x y z
#
# Youngs Moduli (GPa) = 169.14863 150.88142 128.21556
#
# Poissons Ratio (x) = 0.30514 0.17561
# Poissons Ratio (y) = 0.34208 -0.03281
# Poissons Ratio (z) = 0.23168 -0.03861
#
# Static dielectric constant tensor:
#      x y z
#    x 2.024510 0.000000 0.000000 
#    y 0.000000 1.790510 0.000000 
#    z 0.000000 0.000000 2.044490 
# 
# From -- ./inp_files/24629.got.cif
#   From: 2010.05.17/outbox.cif.g08.bks.cpg/sg21_13_cif.got.tgz:24629.got - 2010.06.03 23:14:55.
