data_PCOD9324238
_publ_section_title
;
Structure prediction by ZEFSAII (Michael W. Deem and Ramdas Pophale) SiO2 
 PCOD9324238
Probable space group: C 2 2 2
;
_chemical_formula_sum "Si O2"
_cell_formula_units_Z 40
_cell_length_a 9.099995
_cell_length_b 24.449006
_cell_length_c 8.888104
_cell_angle_alpha 90.000000
_cell_angle_beta 90.000000
_cell_angle_gamma 90.000000
_cell_volume 1977.477216
_symmetry_space_group_name_H-M "C 2 2 2"
_symmetry_group_IT_number 21
_symmetry_cell_setting 'orthorhombic'
loop_
_space_group_symop_operation_xyz
x,y,z
-x,-y,z
x,-y,-z
-x,y,-z
1/2+x,1/2+y,z
1/2-x,1/2-y,z
1/2+x,1/2-y,-z
1/2-x,1/2+y,-z
loop_
_atom_site_type_symbol
_atom_site_label
_atom_site_fract_x
_atom_site_fract_y
_atom_site_fract_z
Si Si1 0.423468 0.261344 0.341405
Si Si2 0.573802 0.052614 0.333767
Si Si3 0.415189 0.340658 0.854670
Si Si4 0.646476 0.531329 0.842664
Si Si5 0.926880 0.334096 0.159713
O O1 0.500000 0.251627 0.500000
O O2 0.250000 0.250000 0.350804
O O3 0.482530 0.320061 0.281994
O O4 0.489396 0.216836 0.228948
O O5 0.500000 0.055670 0.500000
O O6 0.742367 0.036690 0.298109
O O7 0.552190 0.111302 0.258570
O O8 0.500000 0.000000 0.256205
O O9 0.395357 0.405722 0.873706
O O10 0.246904 0.320763 0.845307
O O11 0.500000 0.318968 0.000000
O O12 0.500000 0.500000 0.797757
O O13 0.696712 0.500000 0.000000
O O14 0.000000 0.346052 0.000000
#
# Coordination Sequence:
#
# PCOD9324238 Si02
#       5
#     8   8   8   8   8
#     4  12  26  45  68  96 139 184 225 283 349 418
#     4  10  24  41  64  99 142 182 226 282 346 417
#     4  11  22  41  68 102 132 173 232 283 340 411
#     4  10  21  41  71 102 133 182 235 293 346 409
#     4  11  24  41  68 100 134 181 229 285 338 406
#
# _framework density 20.227793999999999
#
# number of rings (size 3 to 8) (size 9 to 14) (size 15 to 20)
#    0.000    1.200    2.000    4.200    5.600    3.200 
#    0.000    6.000    0.000    0.000    0.000    0.000 
#    0.000    0.000    0.000    0.000    0.000    0.000 
#
# Total GULP energy -111448.420860 kJ/mol
# GULP energy per Si atom -5572.421043 kJ/mol
# Density = 2.018176 g / cm^3
# Si number density = 20.227794 Si / 1000 Ang^3
#
#
#
# Elastic Constant Matrix: (Units=GPa)
#
#
# Indices 1 2 3 4 5 6 
#
# 1 174.0485 37.9639 72.9808 0.0000 0.0000 0.0000
# 2 37.9639 102.1413 34.2887 0.0000 0.0000 0.0000
# 3 72.9808 34.2887 111.0538 0.0000 0.0000 0.0000
# 4 0.0000 0.0000 0.0000 11.6820 0.0000 0.0000
# 5 0.0000 0.0000 0.0000 0.0000 35.3099 0.0000
# 6 0.0000 0.0000 0.0000 0.0000 0.0000 -39.5997
#
#
#
# Elastic Compliance Matrix: (Units=1/GPa)
#
#
# Indices 1 2 3 4 5 6 
#
# 1 0.008098 -0.001365 -0.004900 0.000000 0.000000 0.000000
# 2 -0.001365 0.011152 -0.002547 0.000000 0.000000 0.000000
# 3 -0.004900 -0.002547 0.013011 0.000000 0.000000 0.000000
# 4 0.000000 0.000000 0.000000 0.085602 0.000000 0.000000
# 5 0.000000 0.000000 0.000000 0.000000 0.028321 0.000000
# 6 0.000000 0.000000 0.000000 0.000000 0.000000 -0.025253
#
#
# Mechanical properties :
#
#
# Convention : Reuss Voigt Hill
#
# Bulk Modulus (GPa) = 68.31344 75.30115 71.80730
# Shear Modulus (GPa) = 34.85914 17.61245 26.23579
#
# Velocity S-wave (km/s) = 4.15580 2.95397 3.60532
# Velocity P-wave (km/s) = 7.54142 6.99586 7.27375
#
# Compressibility (1/GPa) = 0.01463841
#
# Stress axis : x y z
#
# Youngs Moduli (GPa) = 123.48734 89.66604 76.85665
#
# Poissons Ratio (x) = 0.12238 0.37662
# Poissons Ratio (y) = 0.16854 0.19572
# Poissons Ratio (z) = 0.60513 0.22833
#
# Static dielectric constant tensor:
#      x y z
#    x 1.824240 0.000000 0.000000 
#    y 0.000000 1.765540 0.000000 
#    z 0.000000 0.000000 1.848230 
# 
# From -- ./inp_files/10954.got.cif
#   From: 2010.05.17/outbox.cif.g08.bks.cpg/sg21_6_cif.got.tgz:10954.got - 2010.06.03 23:14:55.
