data_PCOD9324167
_publ_section_title
;
Structure prediction by ZEFSAII (Michael W. Deem and Ramdas Pophale) SiO2 
 PCOD9324167
Probable space group: C 2 2 2
;
_chemical_formula_sum "Si O2"
_cell_formula_units_Z 48
_cell_length_a 9.036723
_cell_length_b 32.530484
_cell_length_c 8.019809
_cell_angle_alpha 90.000000
_cell_angle_beta 90.000000
_cell_angle_gamma 90.000000
_cell_volume 2357.575015
_symmetry_space_group_name_H-M "C 2 2 2"
_symmetry_group_IT_number 21
_symmetry_cell_setting 'orthorhombic'
loop_
_space_group_symop_operation_xyz
x,y,z
-x,-y,z
x,-y,-z
-x,y,-z
1/2+x,1/2+y,z
1/2-x,1/2-y,z
1/2+x,1/2-y,-z
1/2-x,1/2+y,-z
loop_
_atom_site_type_symbol
_atom_site_label
_atom_site_fract_x
_atom_site_fract_y
_atom_site_fract_z
Si Si1 0.836612 0.207899 0.924898
Si Si2 0.584190 0.359552 0.674475
Si Si3 0.828002 0.005719 0.300779
Si Si4 0.784272 0.132028 0.141637
Si Si5 0.903245 0.420086 0.330962
Si Si6 0.293683 0.077643 0.172424
O O1 0.750000 0.250000 0.906730
O O2 0.850777 0.182341 0.752219
O O3 0.761456 0.176112 0.055478
O O4 0.000000 0.215590 0.000000
O O5 0.500000 0.355328 0.500000
O O6 0.453446 0.371635 0.802172
O O7 0.706698 0.395347 0.686245
O O8 0.748851 0.969239 0.202074
O O9 0.831268 0.000000 0.500000
O O10 0.723918 0.046156 0.293479
O O11 0.000000 0.000000 0.247332
O O12 0.681973 0.122783 0.301251
O O13 0.754171 0.098564 0.998778
O O14 0.000000 0.426664 0.500000
O O15 0.032223 0.419858 0.195290
#
# Coordination Sequence:
#
# PCOD9324167 Si02
#       6
#     8   8   8   8   8   8
#     4   9  20  40  67  94 129 168 209 264 324 394
#     4  10  21  40  66  96 126 169 218 266 324 397
#     4  11  24  39  60  88 124 172 215 264 327 382
#     4  10  23  42  62  93 126 170 219 257 329 395
#     4  12  23  39  62  91 128 165 219 274 324 381
#     4  11  22  37  62  88 126 168 214 272 315 378
#
# _framework density 20.359904
#
# number of rings (size 3 to 8) (size 9 to 14) (size 15 to 20)
#    0.000    1.500    1.667    4.500    2.333    3.333 
#    0.000    5.833    0.000    5.000    0.000    0.000 
#    0.000    0.000    0.000    0.000    0.000    0.000 
#
# Total GULP energy -133888.663354 kJ/mol
# GULP energy per Si atom -5578.694306 kJ/mol
# Density = 2.031356 g / cm^3
# Si number density = 20.359904 Si / 1000 Ang^3
#
#
#
# Elastic Constant Matrix: (Units=GPa)
#
#
# Indices 1 2 3 4 5 6 
#
# 1 117.3146 57.7143 32.6500 0.0000 0.0000 0.0000
# 2 57.7143 112.6947 55.1194 0.0000 0.0000 0.0000
# 3 32.6500 55.1194 85.4349 0.0000 0.0000 0.0000
# 4 0.0000 0.0000 0.0000 17.7843 0.0000 0.0000
# 5 0.0000 0.0000 0.0000 0.0000 20.8421 0.0000
# 6 0.0000 0.0000 0.0000 0.0000 0.0000 -14.0733
#
#
#
# Elastic Compliance Matrix: (Units=1/GPa)
#
#
# Indices 1 2 3 4 5 6 
#
# 1 0.011439 -0.005435 -0.000865 0.000000 0.000000 0.000000
# 2 -0.005435 0.015547 -0.007953 0.000000 0.000000 0.000000
# 3 -0.000865 -0.007953 0.017166 0.000000 0.000000 0.000000
# 4 0.000000 0.000000 0.000000 0.056229 0.000000 0.000000
# 5 0.000000 0.000000 0.000000 0.000000 0.047980 0.000000
# 6 0.000000 0.000000 0.000000 0.000000 0.000000 -0.071056
#
#
# Mechanical properties :
#
#
# Convention : Reuss Voigt Hill
#
# Bulk Modulus (GPa) = 63.91549 67.37907 65.64728
# Shear Modulus (GPa) = 45.03426 16.24130 30.63778
#
# Velocity S-wave (km/s) = 4.70820 2.82744 3.88340
# Velocity P-wave (km/s) = 7.81135 6.62005 7.24024
#
# Compressibility (1/GPa) = 0.01564566
#
# Stress axis : x y z
#
# Youngs Moduli (GPa) = 87.42297 64.32140 58.25301
#
# Poissons Ratio (x) = 0.34959 0.05039
# Poissons Ratio (y) = 0.47515 0.46330
# Poissons Ratio (z) = 0.07562 0.51156
#
# Static dielectric constant tensor:
#      x y z
#    x 1.821250 0.000000 0.000000 
#    y 0.000000 1.710960 0.000000 
#    z 0.000000 0.000000 1.812910 
# 
# From -- ./inp_files/11519.got.cif
#   From: 2010.05.17/outbox.cif.g08.bks.cpg/sg21_6_cif.got.tgz:11519.got - 2010.06.03 23:14:55.
