data_PCOD9324420
_publ_section_title
;
Structure prediction by ZEFSAII (Michael W. Deem and Ramdas Pophale) SiO2 
 PCOD9324420
Probable space group: C 2 2 2
;
_chemical_formula_sum "Si O2"
_cell_formula_units_Z 32
_cell_length_a 29.069703
_cell_length_b 6.188011
_cell_length_c 7.571235
_cell_angle_alpha 90.000000
_cell_angle_beta 90.000000
_cell_angle_gamma 90.000000
_cell_volume 1361.941326
_symmetry_space_group_name_H-M "C 2 2 2"
_symmetry_group_IT_number 21
_symmetry_cell_setting 'orthorhombic'
loop_
_space_group_symop_operation_xyz
x,y,z
-x,-y,z
x,-y,-z
-x,y,-z
1/2+x,1/2+y,z
1/2-x,1/2-y,z
1/2+x,1/2-y,-z
1/2-x,1/2+y,-z
loop_
_atom_site_type_symbol
_atom_site_label
_atom_site_fract_x
_atom_site_fract_y
_atom_site_fract_z
Si Si1 0.250000 0.250000 0.307942
Si Si2 0.500000 0.000000 0.500000
Si Si3 0.826890 0.500000 0.500000
Si Si4 0.000000 0.500000 0.000000
Si Si5 0.292268 0.500000 0.000000
Si Si6 0.631567 0.185615 0.142760
Si Si7 0.957899 0.169668 0.264290
O O1 0.206961 0.312102 0.428849
O O2 0.262681 0.441246 0.171943
O O3 0.462943 0.816361 0.437335
O O4 0.855289 0.424952 0.328830
O O5 0.028431 0.652903 0.122116
O O6 0.325226 0.697424 0.053462
O O7 0.593988 0.371823 0.201941
O O8 0.617376 0.000000 0.000000
O O9 0.000000 0.000000 0.261495
#
# Coordination Sequence:
#
# PCOD9324420 Si02
#       7
#     4   2   4   2   4   8   8
#     4  12  24  48  76 114 152 202 256 302 408 456
#     4  10  24  46  64 108 144 194 246 326 362 468
#     4  12  25  48  78 111 154 204 247 322 378 475
#     4  10  22  38  70  92 128 190 234 296 356 448
#     4  12  26  46  78 110 156 196 259 321 372 476
#     4  12  26  49  74 114 151 197 262 324 379 452
#     4  11  24  44  72 102 145 198 247 312 389 448
#
# _framework density 23.495874000000001
#
# number of rings (size 3 to 8) (size 9 to 14) (size 15 to 20)
#    0.000    0.500    3.750    4.500    3.500    0.000 
#    9.000    0.000    0.000    0.000    0.000    0.000 
#    0.000    0.000    0.000    0.000    0.000    0.000 
#
# Total GULP energy -89150.521506 kJ/mol
# GULP energy per Si atom -5571.907594 kJ/mol
# Density = 2.344240 g / cm^3
# Si number density = 23.495874 Si / 1000 Ang^3
#
#
#
# Elastic Constant Matrix: (Units=GPa)
#
#
# Indices 1 2 3 4 5 6 
#
# 1 93.4909 30.3614 28.5838 0.0000 0.0000 0.0000
# 2 30.3614 83.3474 24.0390 0.0000 0.0000 0.0000
# 3 28.5838 24.0390 80.4585 0.0000 0.0000 0.0000
# 4 0.0000 0.0000 0.0000 55.8587 0.0000 0.0000
# 5 0.0000 0.0000 0.0000 0.0000 2.3046 0.0000
# 6 0.0000 0.0000 0.0000 0.0000 0.0000 53.3031
#
#
#
# Elastic Compliance Matrix: (Units=1/GPa)
#
#
# Indices 1 2 3 4 5 6 
#
# 1 0.012973 -0.003717 -0.003498 0.000000 0.000000 0.000000
# 2 -0.003717 0.014194 -0.002920 0.000000 0.000000 0.000000
# 3 -0.003498 -0.002920 0.014544 0.000000 0.000000 0.000000
# 4 0.000000 0.000000 0.000000 0.017902 0.000000 0.000000
# 5 0.000000 0.000000 0.000000 0.000000 0.433908 0.000000
# 6 0.000000 0.000000 0.000000 0.000000 0.000000 0.018761
#
#
# Mechanical properties :
#
#
# Convention : Reuss Voigt Hill
#
# Bulk Modulus (GPa) = 46.64129 47.02946 46.83538
# Shear Modulus (GPa) = 9.26441 33.91414 21.58928
#
# Velocity S-wave (km/s) = 1.98785 3.80334 3.03455
# Velocity P-wave (km/s) = 5.01624 6.27270 5.67932
#
# Compressibility (1/GPa) = 0.02144023
#
# Stress axis : x y z
#
# Youngs Moduli (GPa) = 77.08437 70.45134 68.75627
#
# Poissons Ratio (x) = 0.26185 0.24053
# Poissons Ratio (y) = 0.28650 0.20080
# Poissons Ratio (z) = 0.26966 0.20575
#
# Static dielectric constant tensor:
#      x y z
#    x 2.017390 0.000000 0.000000 
#    y 0.000000 1.894070 0.000000 
#    z 0.000000 0.000000 1.580940 
# 
# From -- ./inp_files/19391.got.cif
#   From: 2010.05.17/outbox.cif.g08.bks.cpg/sg21_10_cif.got.tgz:19391.got - 2010.06.03 23:14:55.
