data_PCOD9324934
_publ_section_title
;
Structure prediction by ZEFSAII (Michael W. Deem and Ramdas Pophale) SiO2 
 PCOD9324934
Probable space group: C 2 2 2
;
_chemical_formula_sum "Si O2"
_cell_formula_units_Z 32
_cell_length_a 14.199382
_cell_length_b 19.445666
_cell_length_c 5.478445
_cell_angle_alpha 90.000000
_cell_angle_beta 90.000000
_cell_angle_gamma 90.000000
_cell_volume 1512.688729
_symmetry_space_group_name_H-M "C 2 2 2"
_symmetry_group_IT_number 21
_symmetry_cell_setting 'orthorhombic'
loop_
_space_group_symop_operation_xyz
x,y,z
-x,-y,z
x,-y,-z
-x,y,-z
1/2+x,1/2+y,z
1/2-x,1/2-y,z
1/2+x,1/2-y,-z
1/2-x,1/2+y,-z
loop_
_atom_site_type_symbol
_atom_site_label
_atom_site_fract_x
_atom_site_fract_y
_atom_site_fract_z
Si Si1 0.387012 0.500000 0.500000
Si Si2 0.248732 0.927729 0.129338
Si Si3 0.500000 0.736388 0.500000
Si Si4 0.449425 0.129103 0.746074
Si Si5 0.585582 0.626335 0.185902
O O1 0.321395 0.550588 0.343716
O O2 0.434506 0.447361 0.311585
O O3 0.341808 0.892690 0.230320
O O4 0.186030 0.881926 0.945414
O O5 0.274799 0.000000 0.000000
O O6 0.458937 0.788871 0.299294
O O7 0.577773 0.686824 0.382604
O O8 0.500000 0.099828 0.500000
O O9 0.500000 0.110309 0.000000
O O10 0.500000 0.638617 0.000000
#
# Coordination Sequence:
#
# PCOD9324934 Si02
#       5
#     4   8   4   8   8
#     4  10  24  41  65 100 142 180 235 300 357 424
#     4  10  24  43  70 105 140 179 240 294 366 427
#     4  10  24  43  70  95 144 192 242 286 366 420
#     4  10  25  48  73 102 144 186 239 292 355 426
#     4  11  23  42  66 102 142 188 241 293 362 424
#
# _framework density 21.154384
#
# number of rings (size 3 to 8) (size 9 to 14) (size 15 to 20)
#    0.750    1.000    0.000    2.250    7.000   12.500 
#    0.000   18.750    0.000    0.000    0.000    0.000 
#    0.000    0.000    0.000    0.000    0.000    0.000 
#
# Total GULP energy -89342.363637 kJ/mol
# GULP energy per Si atom -5583.897727 kJ/mol
# Density = 2.110624 g / cm^3
# Si number density = 21.154384 Si / 1000 Ang^3
#
#
#
# Elastic Constant Matrix: (Units=GPa)
#
#
# Indices 1 2 3 4 5 6 
#
# 1 108.8437 37.8642 37.1636 0.0000 0.0000 0.0000
# 2 37.8642 57.3224 12.3865 0.0000 0.0000 0.0000
# 3 37.1636 12.3865 105.4298 0.0000 0.0000 0.0000
# 4 0.0000 0.0000 0.0000 4.2181 0.0000 0.0000
# 5 0.0000 0.0000 0.0000 0.0000 38.1811 0.0000
# 6 0.0000 0.0000 0.0000 0.0000 0.0000 19.1732
#
#
#
# Elastic Compliance Matrix: (Units=1/GPa)
#
#
# Indices 1 2 3 4 5 6 
#
# 1 0.013217 -0.007925 -0.003728 0.000000 0.000000 0.000000
# 2 -0.007925 0.022652 0.000132 0.000000 0.000000 0.000000
# 3 -0.003728 0.000132 0.010784 0.000000 0.000000 0.000000
# 4 0.000000 0.000000 0.000000 0.237071 0.000000 0.000000
# 5 0.000000 0.000000 0.000000 0.000000 0.026191 0.000000
# 6 0.000000 0.000000 0.000000 0.000000 0.000000 0.052156
#
#
# Mechanical properties :
#
#
# Convention : Reuss Voigt Hill
#
# Bulk Modulus (GPa) = 42.35335 49.60272 45.97803
# Shear Modulus (GPa) = 12.72322 24.59326 18.65824
#
# Velocity S-wave (km/s) = 2.45510 3.41333 2.97308
# Velocity P-wave (km/s) = 5.30106 6.24767 5.79373
#
# Compressibility (1/GPa) = 0.02361088
#
# Stress axis : x y z
#
# Youngs Moduli (GPa) = 75.65817 44.14710 92.73406
#
# Poissons Ratio (x) = 0.34987 0.34571
# Poissons Ratio (y) = 0.59960 -0.01227
# Poissons Ratio (z) = 0.28205 -0.00584
#
# Static dielectric constant tensor:
#      x y z
#    x 1.783760 0.000000 0.000000 
#    y 0.000000 1.741760 0.000000 
#    z 0.000000 0.000000 1.924100 
# 
# From -- ./inp_files/3458.got.cif
#   From: 2010.05.17/outbox.cif.g08.bks.cpg/sg21_2_cif.got.tgz:3458.got - 2010.06.03 23:14:55.
