data_PCOD9324255
_publ_section_title
;
Structure prediction by ZEFSAII (Michael W. Deem and Ramdas Pophale) SiO2 
 PCOD9324255
Probable space group: C 2 2 2
;
_chemical_formula_sum "Si O2"
_cell_formula_units_Z 48
_cell_length_a 18.640579
_cell_length_b 8.696202
_cell_length_c 14.679029
_cell_angle_alpha 90.000000
_cell_angle_beta 90.000000
_cell_angle_gamma 90.000000
_cell_volume 2379.503488
_symmetry_space_group_name_H-M "C 2 2 2"
_symmetry_group_IT_number 21
_symmetry_cell_setting 'orthorhombic'
loop_
_space_group_symop_operation_xyz
x,y,z
-x,-y,z
x,-y,-z
-x,y,-z
1/2+x,1/2+y,z
1/2-x,1/2-y,z
1/2+x,1/2-y,-z
1/2-x,1/2+y,-z
loop_
_atom_site_type_symbol
_atom_site_label
_atom_site_fract_x
_atom_site_fract_y
_atom_site_fract_z
Si Si1 0.204976 0.953783 0.101529
Si Si2 0.750000 0.750000 0.363852
Si Si3 0.480885 0.156651 0.762249
Si Si4 0.927273 0.082203 0.370071
Si Si5 0.358734 0.109553 0.908459
Si Si6 0.309973 0.500000 0.500000
Si Si7 0.372958 0.320723 0.233758
O O1 0.285361 0.943938 0.142836
O O2 0.161967 0.793175 0.087087
O O3 0.163230 0.089976 0.150667
O O4 0.221580 0.000000 0.000000
O O5 0.734344 0.604227 0.429443
O O6 0.682810 0.774049 0.295553
O O7 0.445174 0.271376 0.690829
O O8 0.428728 0.111940 0.845276
O O9 0.555500 0.232223 0.794827
O O10 0.500000 0.000000 0.711847
O O11 0.865932 0.108153 0.444610
O O12 0.896508 0.957280 0.300450
O O13 0.000000 0.000000 0.404288
O O14 0.369503 0.000000 0.000000
#
# Coordination Sequence:
#
# PCOD9324255 Si02
#       7
#     8   4   8   8   8   4   8
#     4  10  22  41  69  90 126 182 226 276 335 409
#     4  10  24  40  68 100 134 172 228 284 334 424
#     4  11  24  39  62  98 133 175 222 281 338 401
#     4   9  19  41  67  90 129 175 218 263 339 421
#     4  10  23  42  61  96 131 169 228 287 339 386
#     4  10  21  42  66 104 131 170 216 286 338 401
#     4  10  22  42  65  92 130 182 227 267 343 412
#
# _framework density 20.172274000000002
#
# number of rings (size 3 to 8) (size 9 to 14) (size 15 to 20)
#    0.000    2.000    1.667    0.250    4.667    3.000 
#    3.000    0.833    0.000    9.000    0.000    0.000 
#    0.000    0.000    0.000    0.000    0.000    0.000 
#
# Total GULP energy -133623.435137 kJ/mol
# GULP energy per Si atom -5567.643131 kJ/mol
# Density = 2.012636 g / cm^3
# Si number density = 20.172274 Si / 1000 Ang^3
#
#
#
# Elastic Constant Matrix: (Units=GPa)
#
#
# Indices 1 2 3 4 5 6 
#
# 1 128.1177 60.9652 61.6776 0.0000 0.0000 0.0000
# 2 60.9652 105.7979 47.8587 0.0000 0.0000 0.0000
# 3 61.6776 47.8587 94.7335 0.0000 0.0000 0.0000
# 4 0.0000 0.0000 0.0000 -66.6158 0.0000 0.0000
# 5 0.0000 0.0000 0.0000 0.0000 27.6373 0.0000
# 6 0.0000 0.0000 0.0000 0.0000 0.0000 -47.8500
#
#
#
# Elastic Compliance Matrix: (Units=1/GPa)
#
#
# Indices 1 2 3 4 5 6 
#
# 1 0.012974 -0.004738 -0.006053 0.000000 0.000000 0.000000
# 2 -0.004738 0.013982 -0.003979 0.000000 0.000000 0.000000
# 3 -0.006053 -0.003979 0.016507 0.000000 0.000000 0.000000
# 4 0.000000 0.000000 0.000000 -0.015011 0.000000 0.000000
# 5 0.000000 0.000000 0.000000 0.000000 0.036183 0.000000
# 6 0.000000 0.000000 0.000000 0.000000 0.000000 -0.020899
#
#
# Mechanical properties :
#
#
# Convention : Reuss Voigt Hill
#
# Bulk Modulus (GPa) = 71.82445 74.40582 73.11513
# Shear Modulus (GPa) = 64.17030 -6.82251 28.67390
#
# Velocity S-wave (km/s) = 5.64626 -1.84105 3.77430
# Velocity P-wave (km/s) = 8.84250 5.69614 7.43760
#
# Compressibility (1/GPa) = 0.01392284
#
# Stress axis : x y z
#
# Youngs Moduli (GPa) = 77.07702 71.52006 60.57952
#
# Poissons Ratio (x) = 0.33885 0.36671
# Poissons Ratio (y) = 0.36518 0.24105
# Poissons Ratio (z) = 0.46658 0.28458
#
# Static dielectric constant tensor:
#      x y z
#    x 2.193620 0.000000 0.000000 
#    y 0.000000 1.700860 0.000000 
#    z 0.000000 0.000000 1.736160 
# 
# From -- ./inp_files/30572.got.cif
#   From: 2010.05.17/outbox.cif.g08.bks.cpg/sg21_16_cif.got.tgz:30572.got - 2010.06.03 23:14:55.
