data_PCOD9324466
_publ_section_title
;
Structure prediction by ZEFSAII (Michael W. Deem and Ramdas Pophale) SiO2 
 PCOD9324466
Probable space group: C 2 2 2
;
_chemical_formula_sum "Si O2"
_cell_formula_units_Z 34
_cell_length_a 29.127809
_cell_length_b 12.543302
_cell_length_c 5.016979
_cell_angle_alpha 90.000000
_cell_angle_beta 90.000000
_cell_angle_gamma 90.000000
_cell_volume 1832.997953
_symmetry_space_group_name_H-M "C 2 2 2"
_symmetry_group_IT_number 21
_symmetry_cell_setting 'orthorhombic'
loop_
_space_group_symop_operation_xyz
x,y,z
-x,-y,z
x,-y,-z
-x,y,-z
1/2+x,1/2+y,z
1/2-x,1/2-y,z
1/2+x,1/2-y,-z
1/2-x,1/2+y,-z
loop_
_atom_site_type_symbol
_atom_site_label
_atom_site_fract_x
_atom_site_fract_y
_atom_site_fract_z
Si Si1 0.296754 0.294379 0.370008
Si Si2 0.256001 0.000000 0.500000
Si Si3 0.350785 0.769344 0.133378
Si Si4 0.675319 0.000000 0.000000
Si Si5 0.000000 0.000000 0.000000
Si Si6 0.410477 0.571300 0.240576
O O1 0.250000 0.250000 0.245811
O O2 0.279501 0.402459 0.502442
O O3 0.315668 0.226938 0.617980
O O4 0.331872 0.291534 0.127816
O O5 0.289879 0.988178 0.751382
O O6 0.390851 0.690772 0.239551
O O7 0.354819 0.892769 0.043007
O O8 0.965082 0.069473 0.177170
O O9 0.401869 0.500000 0.500000
O O10 0.390192 0.500000 0.000000
#
# Coordination Sequence:
#
# PCOD9324466 Si02
#       6
#     8   4   8   4   2   8
#     4  12  23  39  54  81 117 167 214 264 303 343
#     4  12  24  34  56  74 112 160 222 260 306 340
#     4  12  24  38  58  86 122 161 213 256 306 365
#     4  12  22  40  53  77 116 170 204 250 294 360
#     4   8  22  40  72  90 126 148 178 254 340 392
#     4  10  22  40  62  95 122 150 189 247 324 384
#
# _framework density 18.548846999999999
#
# number of rings (size 3 to 8) (size 9 to 14) (size 15 to 20)
#    0.706    0.000    4.706    3.882    4.941    0.000 
#    0.000    0.000    0.000    0.706    0.000    0.000 
#    7.059    0.000    0.000    0.000    0.000    0.000 
#
# Total GULP energy -94686.380669 kJ/mol
# GULP energy per Si atom -5569.787098 kJ/mol
# Density = 1.850663 g / cm^3
# Si number density = 18.548847 Si / 1000 Ang^3
#
#
#
# Elastic Constant Matrix: (Units=GPa)
#
#
# Indices 1 2 3 4 5 6 
#
# 1 58.6754 70.1684 20.9476 0.0000 0.0000 0.0000
# 2 70.1684 138.2322 30.0176 0.0000 0.0000 0.0000
# 3 20.9476 30.0176 126.6388 0.0000 0.0000 0.0000
# 4 0.0000 0.0000 0.0000 22.2159 0.0000 0.0000
# 5 0.0000 0.0000 0.0000 0.0000 15.4929 0.0000
# 6 0.0000 0.0000 0.0000 0.0000 0.0000 21.0038
#
#
#
# Elastic Compliance Matrix: (Units=1/GPa)
#
#
# Indices 1 2 3 4 5 6 
#
# 1 0.043887 -0.021825 -0.002086 0.000000 0.000000 0.000000
# 2 -0.021825 0.018480 -0.000770 0.000000 0.000000 0.000000
# 3 -0.002086 -0.000770 0.008424 0.000000 0.000000 0.000000
# 4 0.000000 0.000000 0.000000 0.045013 0.000000 0.000000
# 5 0.000000 0.000000 0.000000 0.000000 0.064546 0.000000
# 6 0.000000 0.000000 0.000000 0.000000 0.000000 0.047610
#
#
# Mechanical properties :
#
#
# Convention : Reuss Voigt Hill
#
# Bulk Modulus (GPa) = 46.66604 62.86815 54.76710
# Shear Modulus (GPa) = 17.57679 25.23672 21.40676
#
# Velocity S-wave (km/s) = 3.08164 3.69257 3.40085
# Velocity P-wave (km/s) = 6.15428 7.22129 6.70903
#
# Compressibility (1/GPa) = 0.02142886
#
# Stress axis : x y z
#
# Youngs Moduli (GPa) = 22.78558 54.11261 118.70622
#
# Poissons Ratio (x) = 1.18099 0.24766
# Poissons Ratio (y) = 0.49729 0.09144
# Poissons Ratio (z) = 0.04754 0.04168
#
# Static dielectric constant tensor:
#      x y z
#    x 1.629260 0.000000 0.000000 
#    y 0.000000 1.742150 0.000000 
#    z 0.000000 0.000000 1.656060 
# 
# From -- ./inp_files/7882.got.cif
#   From: 2010.05.17/outbox.cif.g08.bks.cpg/sg21_4_cif.got.tgz:7882.got - 2010.06.03 23:14:55.
