data_PCOD9324267
_publ_section_title
;
Structure prediction by ZEFSAII (Michael W. Deem and Ramdas Pophale) SiO2 
 PCOD9324267
Probable space group: C 2 2 2
;
_chemical_formula_sum "Si O2"
_cell_formula_units_Z 46
_cell_length_a 13.924616
_cell_length_b 6.222776
_cell_length_c 25.864592
_cell_angle_alpha 90.000000
_cell_angle_beta 90.000000
_cell_angle_gamma 90.000000
_cell_volume 2241.160851
_symmetry_space_group_name_H-M "C 2 2 2"
_symmetry_group_IT_number 21
_symmetry_cell_setting 'orthorhombic'
loop_
_space_group_symop_operation_xyz
x,y,z
-x,-y,z
x,-y,-z
-x,y,-z
1/2+x,1/2+y,z
1/2-x,1/2-y,z
1/2+x,1/2-y,-z
1/2-x,1/2+y,-z
loop_
_atom_site_type_symbol
_atom_site_label
_atom_site_fract_x
_atom_site_fract_y
_atom_site_fract_z
Si Si1 0.896260 0.106533 0.316161
Si Si2 0.500000 0.000000 0.172315
Si Si3 0.648689 0.649715 0.795604
Si Si4 0.000000 0.500000 0.352710
Si Si5 0.000000 0.000000 0.500000
Si Si6 0.408691 0.641841 0.892022
Si Si7 0.250000 0.750000 0.975336
Si Si8 0.140856 0.822708 0.587586
O O1 0.844300 0.056927 0.262501
O O2 0.924338 0.354806 0.321620
O O3 0.851537 0.012526 0.368957
O O4 0.000000 0.000000 0.311577
O O5 0.563122 0.173397 0.203414
O O6 0.433453 0.132649 0.133893
O O7 0.750000 0.750000 0.807545
O O8 0.629401 0.488626 0.842223
O O9 0.071827 0.353700 0.386008
O O10 0.075847 0.885006 0.538416
O O11 0.500000 0.500000 0.909644
O O12 0.338829 0.688402 0.938824
O O13 0.230243 0.500000 0.000000
O O14 0.250000 0.750000 0.575500
#
# Coordination Sequence:
#
# PCOD9324267 Si02
#       8
#     8   4   8   4   2   8   4   8
#     4  10  21  43  63 103 143 175 232 283 352 431
#     4  10  21  42  69  97 143 183 242 293 354 438
#     4  11  23  38  69 104 143 189 230 290 358 441
#     4  10  21  43  70  95 145 178 224 298 350 432
#     4  12  24  54  64 102 130 176 236 318 334 446
#     4  10  24  46  72 104 146 192 249 304 369 444
#     4  12  30  50  78 110 156 200 260 332 380 444
#     4  11  26  45  70  98 137 175 235 288 359 430
#
# _framework density 20.525079000000002
#
# number of rings (size 3 to 8) (size 9 to 14) (size 15 to 20)
#    0.000    1.391    2.609    3.130    8.522    3.478 
#    1.565    0.000    0.000    0.000    0.000    0.000 
#    0.000    0.000    0.000    0.000    0.000    0.000 
#
# Total GULP energy -128058.394193 kJ/mol
# GULP energy per Si atom -5567.756269 kJ/mol
# Density = 2.047836 g / cm^3
# Si number density = 20.525079 Si / 1000 Ang^3
#
#
#
# Elastic Constant Matrix: (Units=GPa)
#
#
# Indices 1 2 3 4 5 6 
#
# 1 102.2368 23.1384 61.5646 0.0000 0.0000 0.0000
# 2 23.1384 77.3505 73.2793 0.0000 0.0000 0.0000
# 3 61.5646 73.2793 140.8726 0.0000 0.0000 0.0000
# 4 0.0000 0.0000 0.0000 30.2843 0.0000 0.0000
# 5 0.0000 0.0000 0.0000 0.0000 85.1998 0.0000
# 6 0.0000 0.0000 0.0000 0.0000 0.0000 19.5225
#
#
#
# Elastic Compliance Matrix: (Units=1/GPa)
#
#
# Indices 1 2 3 4 5 6 
#
# 1 0.013639 0.003089 -0.007568 0.000000 0.000000 0.000000
# 2 0.003089 0.026189 -0.014973 0.000000 0.000000 0.000000
# 3 -0.007568 -0.014973 0.018195 0.000000 0.000000 0.000000
# 4 0.000000 0.000000 0.000000 0.033020 0.000000 0.000000
# 5 0.000000 0.000000 0.000000 0.000000 0.011737 0.000000
# 6 0.000000 0.000000 0.000000 0.000000 0.000000 0.051223
#
#
# Mechanical properties :
#
#
# Convention : Reuss Voigt Hill
#
# Bulk Modulus (GPa) = 52.30159 70.71384 61.50772
# Shear Modulus (GPa) = 25.09036 37.83314 31.46175
#
# Velocity S-wave (km/s) = 3.50011 4.29798 3.91940
# Velocity P-wave (km/s) = 6.47082 7.69139 7.10735
#
# Compressibility (1/GPa) = 0.01911988
#
# Stress axis : x y z
#
# Youngs Moduli (GPa) = 73.31891 38.18369 54.96131
#
# Poissons Ratio (x) = -0.11796 0.41592
# Poissons Ratio (y) = -0.22651 0.82295
# Poissons Ratio (z) = 0.55485 0.57173
#
# Static dielectric constant tensor:
#      x y z
#    x 1.698330 0.000000 0.000000 
#    y 0.000000 1.377160 0.000000 
#    z 0.000000 0.000000 1.764690 
# 
# From -- ./inp_files/39318.got.cif
#   From: 2010.05.17/outbox.cif.g08.bks.cpg/sg21_20_cif.got.tgz:39318.got - 2010.06.03 23:14:55.
