data_PCOD9324182
_publ_section_title
;
Structure prediction by ZEFSAII (Michael W. Deem and Ramdas Pophale) SiO2 
 PCOD9324182
Probable space group: C 2 2 2
;
_chemical_formula_sum "Si O2"
_cell_formula_units_Z 30
_cell_length_a 31.026116
_cell_length_b 8.050796
_cell_length_c 5.150994
_cell_angle_alpha 90.000000
_cell_angle_beta 90.000000
_cell_angle_gamma 90.000000
_cell_volume 1286.640679
_symmetry_space_group_name_H-M "C 2 2 2"
_symmetry_group_IT_number 21
_symmetry_cell_setting 'orthorhombic'
loop_
_space_group_symop_operation_xyz
x,y,z
-x,-y,z
x,-y,-z
-x,y,-z
1/2+x,1/2+y,z
1/2-x,1/2-y,z
1/2+x,1/2-y,-z
1/2-x,1/2+y,-z
loop_
_atom_site_type_symbol
_atom_site_label
_atom_site_fract_x
_atom_site_fract_y
_atom_site_fract_z
Si Si1 0.319299 0.000000 0.000000
Si Si2 0.581823 0.324782 0.895861
Si Si3 0.000000 0.000000 0.000000
Si Si4 0.807665 0.000000 0.500000
Si Si5 0.627148 0.208883 0.370785
Si Si6 0.750000 0.250000 0.826397
O O1 0.347117 0.949704 0.251741
O O2 0.288139 0.155828 0.031162
O O3 0.532832 0.381904 0.842647
O O4 0.604543 0.242519 0.649581
O O5 0.601791 0.500000 0.000000
O O6 0.589178 0.219616 0.155103
O O7 0.838460 0.861667 0.630830
O O8 0.775398 0.892446 0.326482
#
# Coordination Sequence:
#
# PCOD9324182 Si02
#       6
#     4   8   2   4   8   4
#     4  12  28  44  67 103 148 206 254 317 375 452
#     4  10  21  40  69 110 142 186 235 307 368 440
#     4   8  20  38  70 116 148 182 240 304 358 462
#     4  12  22  42  66  95 134 190 250 319 374 436
#     4  12  24  42  70 101 148 194 244 311 372 452
#     4  12  26  44  66  98 140 196 252 318 370 442
#
# _framework density 23.316533
#
# number of rings (size 3 to 8) (size 9 to 14) (size 15 to 20)
#    0.800    0.000    2.667    4.800    0.000    5.333 
#    0.000    0.000    0.000    0.800    0.000   11.200 
#    0.000    0.000    0.000    0.000    0.000    0.000 
#
# Total GULP energy -83543.101238 kJ/mol
# GULP energy per Si atom -5569.540083 kJ/mol
# Density = 2.326346 g / cm^3
# Si number density = 23.316533 Si / 1000 Ang^3
#
#
#
# Elastic Constant Matrix: (Units=GPa)
#
#
# Indices 1 2 3 4 5 6 
#
# 1 152.7564 66.1881 81.4532 0.0000 0.0000 0.0000
# 2 66.1881 102.0027 66.2075 0.0000 0.0000 0.0000
# 3 81.4532 66.2075 180.6398 0.0000 0.0000 0.0000
# 4 0.0000 0.0000 0.0000 46.5964 0.0000 0.0000
# 5 0.0000 0.0000 0.0000 0.0000 23.4469 0.0000
# 6 0.0000 0.0000 0.0000 0.0000 0.0000 29.4056
#
#
#
# Elastic Compliance Matrix: (Units=1/GPa)
#
#
# Indices 1 2 3 4 5 6 
#
# 1 0.010096 -0.004719 -0.002823 0.000000 0.000000 0.000000
# 2 -0.004719 0.015070 -0.003395 0.000000 0.000000 0.000000
# 3 -0.002823 -0.003395 0.008053 0.000000 0.000000 0.000000
# 4 0.000000 0.000000 0.000000 0.021461 0.000000 0.000000
# 5 0.000000 0.000000 0.000000 0.000000 0.042650 0.000000
# 6 0.000000 0.000000 0.000000 0.000000 0.000000 0.034007
#
#
# Mechanical properties :
#
#
# Convention : Reuss Voigt Hill
#
# Bulk Modulus (GPa) = 88.14897 95.89962 92.02429
# Shear Modulus (GPa) = 31.84849 34.65978 33.25414
#
# Velocity S-wave (km/s) = 3.69984 3.85968 3.78061
# Velocity P-wave (km/s) = 7.49261 7.81547 7.65574
#
# Compressibility (1/GPa) = 0.01134443
#
# Stress axis : x y z
#
# Youngs Moduli (GPa) = 99.04528 66.35846 124.17307
#
# Poissons Ratio (x) = 0.31315 0.35054
# Poissons Ratio (y) = 0.46740 0.42162
# Poissons Ratio (z) = 0.27960 0.22531
#
# Static dielectric constant tensor:
#      x y z
#    x 1.883460 0.000000 0.000000 
#    y 0.000000 1.982120 0.000000 
#    z 0.000000 0.000000 1.939120 
# 
# From -- ./inp_files/7723.got.cif
#   From: 2010.05.17/outbox.cif.g08.bks.cpg/sg21_4_cif.got.tgz:7723.got - 2010.06.03 23:14:55.
