data_PCOD9324758
_publ_section_title
;
Structure prediction by ZEFSAII (Michael W. Deem and Ramdas Pophale) SiO2 
 PCOD9324758
Probable space group: C 2 2 2
;
_chemical_formula_sum "Si O2"
_cell_formula_units_Z 44
_cell_length_a 10.379624
_cell_length_b 13.175237
_cell_length_c 11.864435
_cell_angle_alpha 90.000000
_cell_angle_beta 90.000000
_cell_angle_gamma 90.000000
_cell_volume 1622.509017
_symmetry_space_group_name_H-M "C 2 2 2"
_symmetry_group_IT_number 21
_symmetry_cell_setting 'orthorhombic'
loop_
_space_group_symop_operation_xyz
x,y,z
-x,-y,z
x,-y,-z
-x,y,-z
1/2+x,1/2+y,z
1/2-x,1/2-y,z
1/2+x,1/2-y,-z
1/2-x,1/2+y,-z
loop_
_atom_site_type_symbol
_atom_site_label
_atom_site_fract_x
_atom_site_fract_y
_atom_site_fract_z
Si Si1 0.500000 0.823287 0.500000
Si Si2 0.500000 0.500000 0.784989
Si Si3 0.221168 0.107299 0.545192
Si Si4 0.000000 0.500000 0.834378
Si Si5 0.630585 0.188062 0.977544
Si Si6 0.612673 0.702427 0.338290
Si Si7 0.752743 0.594758 0.797737
O O1 0.633607 0.885053 0.504622
O O2 0.506681 0.786738 0.362193
O O3 0.563896 0.401327 0.719219
O O4 0.625820 0.541105 0.847420
O O5 0.134947 0.183606 0.472749
O O6 0.206093 0.131027 0.676071
O O7 0.170816 0.000000 0.500000
O O8 0.927620 0.591061 0.091758
O O9 0.876105 0.528958 0.763247
O O10 0.750000 0.250000 0.926336
O O11 0.686634 0.155263 0.098736
O O12 0.500000 0.252060 0.000000
O O13 0.750000 0.750000 0.301065
#
# Coordination Sequence:
#
# PCOD9324758 Si02
#       7
#     4   4   8   4   8   8   8
#     4  10  23  35  56  90 132 190 256 291 339 418
#     4  12  24  43  69 104 140 196 247 290 367 438
#     4  11  22  39  63  94 141 197 240 292 356 427
#     4  10  25  52  73 102 149 186 234 324 395 438
#     4  10  23  48  77 107 142 188 236 312 396 447
#     4  10  23  41  59  91 143 196 241 300 355 407
#     4  11  24  40  73 105 141 191 250 298 363 460
#
# _framework density 27.118492
#
# number of rings (size 3 to 8) (size 9 to 14) (size 15 to 20)
#    0.000    1.455    1.818    3.818    2.545    5.818 
#    0.000    7.273    0.000    0.000    0.000    0.000 
#    0.000    0.000    0.000    0.000    0.000    0.000 
#
# Total GULP energy -122477.142685 kJ/mol
# GULP energy per Si atom -5567.142849 kJ/mol
# Density = 2.705677 g / cm^3
# Si number density = 27.118492 Si / 1000 Ang^3
#
#
#
# Elastic Constant Matrix: (Units=GPa)
#
#
# Indices 1 2 3 4 5 6 
#
# 1 218.4033 35.2763 18.4160 0.0000 0.0000 0.0000
# 2 35.2763 98.4077 13.4752 0.0000 0.0000 0.0000
# 3 18.4160 13.4752 125.7303 0.0000 0.0000 0.0000
# 4 0.0000 0.0000 0.0000 19.4581 0.0000 0.0000
# 5 0.0000 0.0000 0.0000 0.0000 73.5999 0.0000
# 6 0.0000 0.0000 0.0000 0.0000 0.0000 45.8657
#
#
#
# Elastic Compliance Matrix: (Units=1/GPa)
#
#
# Indices 1 2 3 4 5 6 
#
# 1 0.004896 -0.001681 -0.000537 0.000000 0.000000 0.000000
# 2 -0.001681 0.010891 -0.000921 0.000000 0.000000 0.000000
# 3 -0.000537 -0.000921 0.008131 0.000000 0.000000 0.000000
# 4 0.000000 0.000000 0.000000 0.051393 0.000000 0.000000
# 5 0.000000 0.000000 0.000000 0.000000 0.013587 0.000000
# 6 0.000000 0.000000 0.000000 0.000000 0.000000 0.021803
#
#
# Mechanical properties :
#
#
# Convention : Reuss Voigt Hill
#
# Bulk Modulus (GPa) = 56.69357 64.09737 60.39547
# Shear Modulus (GPa) = 40.69763 52.80966 46.75364
#
# Velocity S-wave (km/s) = 3.87813 4.41769 4.15667
# Velocity P-wave (km/s) = 6.40347 7.05043 6.73473
#
# Compressibility (1/GPa) = 0.01763869
#
# Stress axis : x y z
#
# Youngs Moduli (GPa) = 204.26796 91.82191 122.98809
#
# Poissons Ratio (x) = 0.15439 0.06603
# Poissons Ratio (y) = 0.34346 0.11326
# Poissons Ratio (z) = 0.10966 0.08456
#
# Static dielectric constant tensor:
#      x y z
#    x 2.121460 0.000000 0.000000 
#    y 0.000000 2.694900 0.000000 
#    z 0.000000 0.000000 2.175150 
# 
# From -- ./inp_files/31478.got.cif
#   From: 2010.05.17/outbox.cif.g08.bks.cpg/sg21_16_cif.got.tgz:31478.got - 2010.06.03 23:14:55.
