data_PCOD9324726
_publ_section_title
;
Structure prediction by ZEFSAII (Michael W. Deem and Ramdas Pophale) SiO2 
 PCOD9324726
Probable space group: C 2 2 2
;
_chemical_formula_sum "Si O2"
_cell_formula_units_Z 40
_cell_length_a 11.499226
_cell_length_b 8.875831
_cell_length_c 18.550061
_cell_angle_alpha 90.000000
_cell_angle_beta 90.000000
_cell_angle_gamma 90.000000
_cell_volume 1893.315438
_symmetry_space_group_name_H-M "C 2 2 2"
_symmetry_group_IT_number 21
_symmetry_cell_setting 'orthorhombic'
loop_
_space_group_symop_operation_xyz
x,y,z
-x,-y,z
x,-y,-z
-x,y,-z
1/2+x,1/2+y,z
1/2-x,1/2-y,z
1/2+x,1/2-y,-z
1/2-x,1/2+y,-z
loop_
_atom_site_type_symbol
_atom_site_label
_atom_site_fract_x
_atom_site_fract_y
_atom_site_fract_z
Si Si1 0.048123 0.160030 0.701428
Si Si2 0.213369 0.913429 0.430795
Si Si3 0.120515 0.404701 0.805557
Si Si4 0.870334 0.330411 0.027111
Si Si5 0.161467 0.386043 0.323320
O O1 0.120825 0.112695 0.631988
O O2 0.116670 0.247358 0.762918
O O3 0.958816 0.294397 0.679786
O O4 0.000000 0.000000 0.729242
O O5 0.250000 0.750000 0.456499
O O6 0.167995 0.000000 0.500000
O O7 0.317603 0.003831 0.390916
O O8 0.142778 0.353727 0.886938
O O9 0.186189 0.519060 0.750168
O O10 0.000000 0.500000 0.811511
O O11 0.750000 0.250000 0.001315
O O12 0.867910 0.500000 0.000000
O O13 0.000000 0.269714 0.000000
O O14 0.250000 0.250000 0.329902
#
# Coordination Sequence:
#
# PCOD9324726 Si02
#       5
#     8   8   8   8   8
#     4  11  24  43  69 101 132 176 237 290 363 430
#     4  12  26  46  66  96 141 181 236 298 363 427
#     4  10  22  45  73  99 141 187 239 307 355 439
#     4  11  25  48  72 109 154 197 245 305 383 442
#     4  11  23  43  69 104 131 180 246 291 356 438
#
# _framework density 21.12696
#
# number of rings (size 3 to 8) (size 9 to 14) (size 15 to 20)
#    0.000    1.000    6.000    0.600    2.800    1.600 
#    3.600    1.000    0.000    0.000    0.000    0.000 
#    0.000    0.000    0.000    0.000    0.000    0.000 
#
# Total GULP energy -111426.317296 kJ/mol
# GULP energy per Si atom -5571.315865 kJ/mol
# Density = 2.107887 g / cm^3
# Si number density = 21.126960 Si / 1000 Ang^3
#
#
#
# Elastic Constant Matrix: (Units=GPa)
#
#
# Indices 1 2 3 4 5 6 
#
# 1 88.9487 39.9806 29.1861 0.0000 0.0000 0.0000
# 2 39.9806 147.8540 48.9338 0.0000 0.0000 0.0000
# 3 29.1861 48.9338 137.9977 0.0000 0.0000 0.0000
# 4 0.0000 0.0000 0.0000 23.6931 0.0000 0.0000
# 5 0.0000 0.0000 0.0000 0.0000 -7.8326 0.0000
# 6 0.0000 0.0000 0.0000 0.0000 0.0000 28.0941
#
#
#
# Elastic Compliance Matrix: (Units=1/GPa)
#
#
# Indices 1 2 3 4 5 6 
#
# 1 0.013150 -0.002986 -0.001722 0.000000 0.000000 0.000000
# 2 -0.002986 0.008341 -0.002326 0.000000 0.000000 0.000000
# 3 -0.001722 -0.002326 0.008436 0.000000 0.000000 0.000000
# 4 0.000000 0.000000 0.000000 0.042206 0.000000 0.000000
# 5 0.000000 0.000000 0.000000 0.000000 -0.127671 0.000000
# 6 0.000000 0.000000 0.000000 0.000000 0.000000 0.035595
#
#
# Mechanical properties :
#
#
# Convention : Reuss Voigt Hill
#
# Bulk Modulus (GPa) = 63.06176 67.88907 65.47542
# Shear Modulus (GPa) = -8474.16342 25.90423 -4224.12960
#
# Velocity S-wave (km/s) = -63.40169 3.50540 -44.76319
# Velocity P-wave (km/s) = 73.00537 6.97047 51.38676
#
# Compressibility (1/GPa) = 0.01585747
#
# Stress axis : x y z
#
# Youngs Moduli (GPa) = 76.04796 119.89505 118.54504
#
# Poissons Ratio (x) = 0.35797 0.20418
# Poissons Ratio (y) = 0.22706 0.27575
# Poissons Ratio (z) = 0.13098 0.27889
#
# Static dielectric constant tensor:
#      x y z
#    x 2.041360 0.000000 0.000000 
#    y 0.000000 1.767800 0.000000 
#    z 0.000000 0.000000 1.777610 
# 
# From -- ./inp_files/35459.got.cif
#   From: 2010.05.17/outbox.cif.g08.bks.cpg/sg21_18_cif.got.tgz:35459.got - 2010.06.03 23:14:55.
