data_PCOD9324615
_publ_section_title
;
Structure prediction by ZEFSAII (Michael W. Deem and Ramdas Pophale) SiO2 
 PCOD9324615
Probable space group: C 2 2 2
;
_chemical_formula_sum "Si O2"
_cell_formula_units_Z 40
_cell_length_a 7.351335
_cell_length_b 22.124180
_cell_length_c 8.804403
_cell_angle_alpha 90.000000
_cell_angle_beta 90.000000
_cell_angle_gamma 90.000000
_cell_volume 1431.967991
_symmetry_space_group_name_H-M "C 2 2 2"
_symmetry_group_IT_number 21
_symmetry_cell_setting 'orthorhombic'
loop_
_space_group_symop_operation_xyz
x,y,z
-x,-y,z
x,-y,-z
-x,y,-z
1/2+x,1/2+y,z
1/2-x,1/2-y,z
1/2+x,1/2-y,-z
1/2-x,1/2+y,-z
loop_
_atom_site_type_symbol
_atom_site_label
_atom_site_fract_x
_atom_site_fract_y
_atom_site_fract_z
Si Si1 0.286391 0.515414 0.670673
Si Si2 0.178732 0.353913 0.408746
Si Si3 0.196005 0.921498 0.089911
Si Si4 0.255692 0.313600 0.123523
Si Si5 0.142568 0.187710 0.700483
O O1 0.500000 0.500000 0.668758
O O2 0.214843 0.500000 0.500000
O O3 0.259864 0.586754 0.669413
O O4 0.226530 0.482606 0.828898
O O5 0.123627 0.312229 0.267993
O O6 0.319379 0.321929 0.520585
O O7 0.000000 0.369278 0.500000
O O8 0.283603 0.872498 0.975301
O O9 0.203049 0.878787 0.239548
O O10 0.000000 0.932029 0.000000
O O11 0.250000 0.250000 0.038921
O O12 0.453363 0.312970 0.204808
O O13 0.250000 0.250000 0.728644
#
# Coordination Sequence:
#
# PCOD9324615 Si02
#       5
#     8   8   8   8   8
#     4  11  23  43  76 109 142 195 247 303 369 443
#     4  12  26  44  71 109 150 197 257 308 367 437
#     4  10  22  42  71 111 146 186 247 304 375 445
#     4  11  24  43  72 112 150 197 248 305 375 440
#     4  11  22  42  72 106 150 198 244 307 367 441
#
# _framework density 27.933585999999998
#
# number of rings (size 3 to 8) (size 9 to 14) (size 15 to 20)
#    0.000    1.000    2.000    5.400    2.800    3.200 
#    0.000    3.000    0.000    0.000   26.000    0.000 
#    0.000    0.000    0.000    0.000    0.000    0.000 
#
# Total GULP energy -111552.426529 kJ/mol
# GULP energy per Si atom -5577.621326 kJ/mol
# Density = 2.787001 g / cm^3
# Si number density = 27.933586 Si / 1000 Ang^3
#
#
#
# Elastic Constant Matrix: (Units=GPa)
#
#
# Indices 1 2 3 4 5 6 
#
# 1 111.9504 53.2913 13.4896 0.0000 0.0000 0.0000
# 2 53.2913 189.3645 83.7145 0.0000 0.0000 0.0000
# 3 13.4896 83.7145 209.3240 0.0000 0.0000 0.0000
# 4 0.0000 0.0000 0.0000 -126.9053 0.0000 0.0000
# 5 0.0000 0.0000 0.0000 0.0000 0.3728 0.0000
# 6 0.0000 0.0000 0.0000 0.0000 0.0000 32.5047
#
#
#
# Elastic Compliance Matrix: (Units=1/GPa)
#
#
# Indices 1 2 3 4 5 6 
#
# 1 0.010377 -0.003188 0.000606 0.000000 0.000000 0.000000
# 2 -0.003188 0.007395 -0.002752 0.000000 0.000000 0.000000
# 3 0.000606 -0.002752 0.005839 0.000000 0.000000 0.000000
# 4 0.000000 0.000000 0.000000 -0.007880 0.000000 0.000000
# 5 0.000000 0.000000 0.000000 0.000000 2.682555 0.000000
# 6 0.000000 0.000000 0.000000 0.000000 0.000000 0.030765
#
#
# Mechanical properties :
#
#
# Convention : Reuss Voigt Hill
#
# Bulk Modulus (GPa) = 77.26282 90.18109 83.72196
# Shear Modulus (GPa) = 1.82214 5.20399 3.51306
#
# Velocity S-wave (km/s) = 0.80853 1.36639 1.12267
# Velocity P-wave (km/s) = 5.34707 5.90284 5.63182
#
# Compressibility (1/GPa) = 0.01294284
#
# Stress axis : x y z
#
# Youngs Moduli (GPa) = 96.36461 135.23247 171.26957
#
# Poissons Ratio (x) = 0.43118 -0.10386
# Poissons Ratio (y) = 0.30726 0.47131
# Poissons Ratio (z) = -0.05844 0.37214
#
# Static dielectric constant tensor:
#      x y z
#    x 2.338650 0.000000 0.000000 
#    y 0.000000 2.966200 0.000000 
#    z 0.000000 0.000000 2.270200 
# 
# From -- ./inp_files/10931.got.cif
#   From: 2010.05.17/outbox.cif.g08.bks.cpg/sg21_6_cif.got.tgz:10931.got - 2010.06.03 23:14:55.
