data_PCOD9324736
_publ_section_title
;
Structure prediction by ZEFSAII (Michael W. Deem and Ramdas Pophale) SiO2 
 PCOD9324736
Probable space group: C 2 2 2
;
_chemical_formula_sum "Si O2"
_cell_formula_units_Z 30
_cell_length_a 14.076572
_cell_length_b 5.175593
_cell_length_c 18.755132
_cell_angle_alpha 90.000000
_cell_angle_beta 90.000000
_cell_angle_gamma 90.000000
_cell_volume 1366.397781
_symmetry_space_group_name_H-M "C 2 2 2"
_symmetry_group_IT_number 21
_symmetry_cell_setting 'orthorhombic'
loop_
_space_group_symop_operation_xyz
x,y,z
-x,-y,z
x,-y,-z
-x,y,-z
1/2+x,1/2+y,z
1/2-x,1/2-y,z
1/2+x,1/2-y,-z
1/2-x,1/2+y,-z
loop_
_atom_site_type_symbol
_atom_site_label
_atom_site_fract_x
_atom_site_fract_y
_atom_site_fract_z
Si Si1 0.500000 0.000000 0.000000
Si Si2 0.862565 0.772279 0.890526
Si Si3 0.939586 0.245058 0.641830
Si Si4 0.250000 0.250000 0.450321
Si Si5 0.362354 0.227646 0.201420
O O1 0.569016 0.818279 0.953352
O O2 0.750000 0.750000 0.910285
O O3 0.879210 0.558491 0.828829
O O4 0.882085 0.055842 0.858792
O O5 0.841895 0.258422 0.599571
O O6 0.917692 0.223692 0.726097
O O7 0.000000 0.500000 0.628991
O O8 0.000000 0.000000 0.618325
O O9 0.253110 0.500000 0.500000
O O10 0.250000 0.250000 0.216944
#
# Coordination Sequence:
#
# PCOD9324736 Si02
#       5
#     2   8   8   4   8
#     4  12  28  46  72 100 144 194 234 290 392 424
#     4  10  25  43  69  99 138 182 238 295 353 436
#     4  12  26  44  76 110 144 185 243 297 349 422
#     4  12  28  50  74 108 156 196 232 286 362 430
#     4  10  22  46  70 101 139 181 234 300 354 411
#
# _framework density 21.955538000000001
#
# number of rings (size 3 to 8) (size 9 to 14) (size 15 to 20)
#    0.000    1.067    1.333    3.200    5.600    8.533 
#    0.000    0.000    0.000    0.000    0.000    0.000 
#    0.000    0.000    0.000    0.000    0.000    0.000 
#
# Total GULP energy -84110.605218 kJ/mol
# GULP energy per Si atom -5607.373681 kJ/mol
# Density = 2.190557 g / cm^3
# Si number density = 21.955538 Si / 1000 Ang^3
#
#
#
# Elastic Constant Matrix: (Units=GPa)
#
#
# Indices 1 2 3 4 5 6 
#
# 1 177.4683 57.2605 80.6504 0.0000 0.0000 0.0000
# 2 57.2605 142.9016 33.6835 0.0000 0.0000 0.0000
# 3 80.6504 33.6835 93.4141 0.0000 0.0000 0.0000
# 4 0.0000 0.0000 0.0000 10.1720 0.0000 0.0000
# 5 0.0000 0.0000 0.0000 0.0000 68.7110 0.0000
# 6 0.0000 0.0000 0.0000 0.0000 0.0000 35.1045
#
#
#
# Elastic Compliance Matrix: (Units=1/GPa)
#
#
# Indices 1 2 3 4 5 6 
#
# 1 0.009827 -0.002118 -0.007720 0.000000 0.000000 0.000000
# 2 -0.002118 0.008104 -0.001094 0.000000 0.000000 0.000000
# 3 -0.007720 -0.001094 0.017765 0.000000 0.000000 0.000000
# 4 0.000000 0.000000 0.000000 0.098309 0.000000 0.000000
# 5 0.000000 0.000000 0.000000 0.000000 0.014554 0.000000
# 6 0.000000 0.000000 0.000000 0.000000 0.000000 0.028486
#
#
# Mechanical properties :
#
#
# Convention : Reuss Voigt Hill
#
# Bulk Modulus (GPa) = 72.29668 84.10807 78.20237
# Shear Modulus (GPa) = 24.56767 38.94348 31.75558
#
# Velocity S-wave (km/s) = 3.34874 4.21615 3.80723
# Velocity P-wave (km/s) = 6.92475 7.87990 7.41771
#
# Compressibility (1/GPa) = 0.01383189
#
# Stress axis : x y z
#
# Youngs Moduli (GPa) = 101.76466 123.39227 56.29081
#
# Poissons Ratio (x) = 0.26131 0.43458
# Poissons Ratio (y) = 0.21551 0.06157
# Poissons Ratio (z) = 0.78565 0.13497
#
# Static dielectric constant tensor:
#      x y z
#    x 1.807260 0.000000 0.000000 
#    y 0.000000 1.752040 0.000000 
#    z 0.000000 0.000000 1.762060 
# 
# From -- ./inp_files/36365.got.cif
#   From: 2010.05.17/outbox.cif.g08.bks.cpg/sg21_19_cif.got.tgz:36365.got - 2010.06.03 23:14:55.
