data_PCOD9324700
_publ_section_title
;
Structure prediction by ZEFSAII (Michael W. Deem and Ramdas Pophale) SiO2 
 PCOD9324700
Probable space group: C 2 2 2
;
_chemical_formula_sum "Si O2"
_cell_formula_units_Z 32
_cell_length_a 8.304349
_cell_length_b 30.605513
_cell_length_c 5.085898
_cell_angle_alpha 90.000000
_cell_angle_beta 90.000000
_cell_angle_gamma 90.000000
_cell_volume 1292.626044
_symmetry_space_group_name_H-M "C 2 2 2"
_symmetry_group_IT_number 21
_symmetry_cell_setting 'orthorhombic'
loop_
_space_group_symop_operation_xyz
x,y,z
-x,-y,z
x,-y,-z
-x,y,-z
1/2+x,1/2+y,z
1/2-x,1/2-y,z
1/2+x,1/2-y,-z
1/2-x,1/2+y,-z
loop_
_atom_site_type_symbol
_atom_site_label
_atom_site_fract_x
_atom_site_fract_y
_atom_site_fract_z
Si Si1 0.250000 0.750000 0.716192
Si Si2 0.500000 0.620612 0.000000
Si Si3 0.500000 0.316112 0.500000
Si Si4 0.500000 0.500000 0.500000
Si Si5 0.744862 0.934441 0.726706
Si Si6 0.500000 0.871570 0.500000
Si Si7 0.500000 0.810135 0.000000
Si Si8 0.000000 0.500000 0.500000
O O1 0.350447 0.716700 0.536014
O O2 0.358707 0.778628 0.908524
O O3 0.499043 0.652118 0.749273
O O4 0.666114 0.592447 0.960606
O O5 0.388982 0.466706 0.654667
O O6 0.665199 0.899893 0.521384
O O7 0.599191 0.969317 0.703056
O O8 0.518215 0.841768 0.753379
#
# Coordination Sequence:
#
# PCOD9324700 Si02
#       8
#     4   4   4   2   8   4   4   2
#     4  12  28  50  76 112 154 202 254 316 380 450
#     4  12  25  45  76 112 149 198 251 312 374 447
#     4  12  28  48  75 109 151 198 251 311 379 448
#     4  10  22  44  72 110 148 194 244 306 372 444
#     4  10  22  44  75 110 152 198 250 308 373 447
#     4  11  25  47  74 107 149 200 251 309 372 447
#     4  12  27  48  76 109 149 198 253 311 376 446
#     4   8  20  46  78 112 156 202 252 308 378 448
#
# _framework density 24.755807000000001
#
# number of rings (size 3 to 8) (size 9 to 14) (size 15 to 20)
#    0.000    1.000    0.000    5.250    0.000    9.500 
#    0.000    5.000    0.000   14.250    0.000    0.000 
#    0.000    0.000    0.000    0.000    0.000    0.000 
#
# Total GULP energy -89341.663963 kJ/mol
# GULP energy per Si atom -5583.853998 kJ/mol
# Density = 2.469946 g / cm^3
# Si number density = 24.755807 Si / 1000 Ang^3
#
#
#
# Elastic Constant Matrix: (Units=GPa)
#
#
# Indices 1 2 3 4 5 6 
#
# 1 164.7220 102.1647 78.3286 0.0000 0.0000 0.0000
# 2 102.1647 197.3196 110.1658 0.0000 0.0000 0.0000
# 3 78.3286 110.1658 184.9805 0.0000 0.0000 0.0000
# 4 0.0000 0.0000 0.0000 -3.8573 0.0000 0.0000
# 5 0.0000 0.0000 0.0000 0.0000 43.4302 0.0000
# 6 0.0000 0.0000 0.0000 0.0000 0.0000 74.6376
#
#
#
# Elastic Compliance Matrix: (Units=1/GPa)
#
#
# Indices 1 2 3 4 5 6 
#
# 1 0.009246 -0.003897 -0.001594 0.000000 0.000000 0.000000
# 2 -0.003897 0.009235 -0.003850 0.000000 0.000000 0.000000
# 3 -0.001594 -0.003850 0.008374 0.000000 0.000000 0.000000
# 4 0.000000 0.000000 0.000000 -0.259247 0.000000 0.000000
# 5 0.000000 0.000000 0.000000 0.000000 0.023025 0.000000
# 6 0.000000 0.000000 0.000000 0.000000 0.000000 0.013398
#
#
# Mechanical properties :
#
#
# Convention : Reuss Voigt Hill
#
# Bulk Modulus (GPa) = 122.35967 125.37115 123.86541
# Shear Modulus (GPa) = -28.64304 39.93295 5.64496
#
# Velocity S-wave (km/s) = -3.40519 4.02067 1.51169
# Velocity P-wave (km/s) = 5.83725 8.50338 7.29318
#
# Compressibility (1/GPa) = 0.00817263
#
# Stress axis : x y z
#
# Youngs Moduli (GPa) = 108.15442 108.28236 119.42069
#
# Poissons Ratio (x) = 0.42200 0.19038
# Poissons Ratio (y) = 0.42150 0.45974
# Poissons Ratio (z) = 0.17242 0.41686
#
# Static dielectric constant tensor:
#      x y z
#    x 1.958600 0.000000 0.000000 
#    y 0.000000 2.040390 0.000000 
#    z 0.000000 0.000000 1.892310 
# 
# From -- ./inp_files/1685.got.cif
#   From: 2010.05.17/outbox.cif.g08.bks.cpg/sg21_1_cif.got.tgz:1685.got - 2010.06.03 23:14:55.
