data_PCOD9324361
_publ_section_title
;
Structure prediction by ZEFSAII (Michael W. Deem and Ramdas Pophale) SiO2 
 PCOD9324361
Probable space group: C 2 2 2
;
_chemical_formula_sum "Si O2"
_cell_formula_units_Z 36
_cell_length_a 5.396566
_cell_length_b 20.026293
_cell_length_c 16.232100
_cell_angle_alpha 90.000000
_cell_angle_beta 90.000000
_cell_angle_gamma 90.000000
_cell_volume 1754.255183
_symmetry_space_group_name_H-M "C 2 2 2"
_symmetry_group_IT_number 21
_symmetry_cell_setting 'orthorhombic'
loop_
_space_group_symop_operation_xyz
x,y,z
-x,-y,z
x,-y,-z
-x,y,-z
1/2+x,1/2+y,z
1/2-x,1/2-y,z
1/2+x,1/2-y,-z
1/2-x,1/2+y,-z
loop_
_atom_site_type_symbol
_atom_site_label
_atom_site_fract_x
_atom_site_fract_y
_atom_site_fract_z
Si Si1 0.909927 0.645959 0.170603
Si Si2 0.500000 0.500000 0.674276
Si Si3 0.750000 0.750000 0.731871
Si Si4 0.250000 0.750000 0.551534
Si Si5 0.000000 0.500000 0.782491
Si Si6 0.500000 0.210281 0.000000
Si Si7 0.901694 0.144379 0.666447
O O1 0.887627 0.668683 0.076648
O O2 0.688164 0.640016 0.237781
O O3 0.070996 0.705316 0.211347
O O4 0.008092 0.569980 0.169342
O O5 0.247692 0.496409 0.727286
O O6 0.471574 0.572041 0.631968
O O7 0.625324 0.695216 0.674401
O O8 0.500000 0.739736 0.500000
O O9 0.287526 0.815301 0.609515
O O10 0.250000 0.250000 0.971577
#
# Coordination Sequence:
#
# PCOD9324361 Si02
#       7
#     8   4   4   4   4   4   8
#     4  11  23  39  64  95 133 175 221 272 325 389
#     4  10  22  40  67  99 124 168 220 264 312 403
#     4  12  17  38  67  92 122 174 214 271 308 391
#     4  12  27  42  67 104 132 164 220 277 328 399
#     4  10  22  37  62  96 133 168 222 262 321 384
#     4  12  26  39  60  97 132 170 226 278 324 377
#     4  11  23  41  69  96 131 174 218 268 333 389
#
# _framework density 20.521529000000001
#
# number of rings (size 3 to 8) (size 9 to 14) (size 15 to 20)
#    0.000    0.889    5.556    2.000    0.000    0.444 
#    0.000    0.556    0.000    6.667    0.000    0.000 
#    0.000    0.000    0.000    0.000    0.000    0.000 
#
# Total GULP energy -100233.726811 kJ/mol
# GULP energy per Si atom -5568.540378 kJ/mol
# Density = 2.047482 g / cm^3
# Si number density = 20.521529 Si / 1000 Ang^3
#
#
#
# Elastic Constant Matrix: (Units=GPa)
#
#
# Indices 1 2 3 4 5 6 
#
# 1 77.3159 17.8233 12.8149 0.0000 0.0000 0.0000
# 2 17.8233 187.7462 23.4399 0.0000 0.0000 0.0000
# 3 12.8149 23.4399 78.4634 0.0000 0.0000 0.0000
# 4 0.0000 0.0000 0.0000 544.8701 0.0000 0.0000
# 5 0.0000 0.0000 0.0000 0.0000 19.8393 0.0000
# 6 0.0000 0.0000 0.0000 0.0000 0.0000 32.5339
#
#
#
# Elastic Compliance Matrix: (Units=1/GPa)
#
#
# Indices 1 2 3 4 5 6 
#
# 1 0.013488 -0.001044 -0.001891 0.000000 0.000000 0.000000
# 2 -0.001044 0.005614 -0.001506 0.000000 0.000000 0.000000
# 3 -0.001891 -0.001506 0.013504 0.000000 0.000000 0.000000
# 4 0.000000 0.000000 0.000000 0.001835 0.000000 0.000000
# 5 0.000000 0.000000 0.000000 0.000000 0.050405 0.000000
# 6 0.000000 0.000000 0.000000 0.000000 0.000000 0.030737
#
#
# Mechanical properties :
#
#
# Convention : Reuss Voigt Hill
#
# Bulk Modulus (GPa) = 42.15516 50.18686 46.17101
# Shear Modulus (GPa) = 37.77189 138.74513 88.25851
#
# Velocity S-wave (km/s) = 4.29487 8.23142 6.56515
# Velocity P-wave (km/s) = 6.72169 10.71684 8.94516
#
# Compressibility (1/GPa) = 0.02372189
#
# Stress axis : x y z
#
# Youngs Moduli (GPa) = 74.13925 178.14006 74.05404
#
# Poissons Ratio (x) = 0.18605 0.14003
# Poissons Ratio (y) = 0.07743 0.11156
# Poissons Ratio (z) = 0.14019 0.26835
#
# Static dielectric constant tensor:
#      x y z
#    x 1.505970 0.000000 0.000000 
#    y 0.000000 1.802390 0.000000 
#    z 0.000000 0.000000 1.768990 
# 
# From -- ./inp_files/28994.got.cif
#   From: 2010.05.17/outbox.cif.g08.bks.cpg/sg21_15_cif.got.tgz:28994.got - 2010.06.03 23:14:55.
