data_PCOD9324606
_publ_section_title
;
Structure prediction by ZEFSAII (Michael W. Deem and Ramdas Pophale) SiO2 
 PCOD9324606
Probable space group: C 2 2 2
;
_chemical_formula_sum "Si O2"
_cell_formula_units_Z 26
_cell_length_a 7.817255
_cell_length_b 7.311073
_cell_length_c 18.484530
_cell_angle_alpha 90.000000
_cell_angle_beta 90.000000
_cell_angle_gamma 90.000000
_cell_volume 1056.437507
_symmetry_space_group_name_H-M "C 2 2 2"
_symmetry_group_IT_number 21
_symmetry_cell_setting 'orthorhombic'
loop_
_space_group_symop_operation_xyz
x,y,z
-x,-y,z
x,-y,-z
-x,y,-z
1/2+x,1/2+y,z
1/2-x,1/2-y,z
1/2+x,1/2-y,-z
1/2-x,1/2+y,-z
loop_
_atom_site_type_symbol
_atom_site_label
_atom_site_fract_x
_atom_site_fract_y
_atom_site_fract_z
Si Si1 0.958187 0.702955 0.893613
Si Si2 0.551734 0.712777 0.734884
Si Si3 0.448247 0.714750 0.578528
Si Si4 0.000000 0.000000 0.000000
O O1 0.750000 0.750000 0.899615
O O2 0.021738 0.712963 0.810124
O O3 0.000000 0.500000 0.918868
O O4 0.061917 0.850574 0.940932
O O5 0.500000 0.500000 0.733002
O O6 0.750000 0.750000 0.743809
O O7 0.514324 0.789978 0.654992
O O8 0.500000 0.500000 0.577454
O O9 0.500000 0.790348 0.500000
O O10 0.250000 0.750000 0.582452
#
# Coordination Sequence:
#
# PCOD9324606 Si02
#       4
#     8   8   8   2
#     4  11  27  47  74 107 149 195 247 307 377 445
#     4  10  22  46  70 104 146 193 246 306 367 442
#     4  10  22  42  69 104 144 194 243 301 361 431
#     4  12  26  48  74 110 146 196 242 318 364 466
#
# _framework density 24.611015999999999
#
# number of rings (size 3 to 8) (size 9 to 14) (size 15 to 20)
#    0.000    1.538    1.538    1.385    4.308    9.846 
#    0.000   15.385    0.000    0.000    0.000    0.000 
#    0.000    0.000    0.000    0.000    0.000    0.000 
#
# Total GULP energy -72472.243473 kJ/mol
# GULP energy per Si atom -5574.787959 kJ/mol
# Density = 2.455500 g / cm^3
# Si number density = 24.611016 Si / 1000 Ang^3
#
#
#
# Elastic Constant Matrix: (Units=GPa)
#
#
# Indices 1 2 3 4 5 6 
#
# 1 87.2545 28.1871 6.6826 0.0000 0.0000 0.0000
# 2 28.1871 200.5386 44.5889 0.0000 0.0000 0.0000
# 3 6.6826 44.5889 276.2137 0.0000 0.0000 0.0000
# 4 0.0000 0.0000 0.0000 -310.9152 0.0000 0.0000
# 5 0.0000 0.0000 0.0000 0.0000 -27.7460 0.0000
# 6 0.0000 0.0000 0.0000 0.0000 0.0000 39.9419
#
#
#
# Elastic Compliance Matrix: (Units=1/GPa)
#
#
# Indices 1 2 3 4 5 6 
#
# 1 0.012006 -0.001683 -0.000019 0.000000 0.000000 0.000000
# 2 -0.001683 0.005408 -0.000832 0.000000 0.000000 0.000000
# 3 -0.000019 -0.000832 0.003755 0.000000 0.000000 0.000000
# 4 0.000000 0.000000 0.000000 -0.003216 0.000000 0.000000
# 5 0.000000 0.000000 0.000000 0.000000 -0.036041 0.000000
# 6 0.000000 0.000000 0.000000 0.000000 0.000000 0.025036
#
#
# Mechanical properties :
#
#
# Convention : Reuss Voigt Hill
#
# Bulk Modulus (GPa) = 62.10950 80.32489 71.21720
# Shear Modulus (GPa) = 287.62272 -27.44065 130.09104
#
# Velocity S-wave (km/s) = 10.82225 -3.34275 7.27830
# Velocity P-wave (km/s) = 13.47044 4.22019 9.98155
#
# Compressibility (1/GPa) = 0.01610060
#
# Stress axis : x y z
#
# Youngs Moduli (GPa) = 83.29194 184.90295 266.29748
#
# Poissons Ratio (x) = 0.31126 0.00499
# Poissons Ratio (y) = 0.14021 0.22165
# Poissons Ratio (z) = 0.00156 0.15390
#
# Static dielectric constant tensor:
#      x y z
#    x 1.961340 0.000000 0.000000 
#    y 0.000000 1.919830 0.000000 
#    z 0.000000 0.000000 1.802930 
# 
# From -- ./inp_files/35380.got.cif
#   From: 2010.05.17/outbox.cif.g08.bks.cpg/sg21_18_cif.got.tgz:35380.got - 2010.06.03 23:14:55.
