data_PCOD9324977
_publ_section_title
;
Structure prediction by ZEFSAII (Michael W. Deem and Ramdas Pophale) SiO2 
 PCOD9324977
Probable space group: C 2 2 2
;
_chemical_formula_sum "Si O2"
_cell_formula_units_Z 32
_cell_length_a 14.283837
_cell_length_b 10.060954
_cell_length_c 9.430054
_cell_angle_alpha 90.000000
_cell_angle_beta 90.000000
_cell_angle_gamma 90.000000
_cell_volume 1355.183885
_symmetry_space_group_name_H-M "C 2 2 2"
_symmetry_group_IT_number 21
_symmetry_cell_setting 'orthorhombic'
loop_
_space_group_symop_operation_xyz
x,y,z
-x,-y,z
x,-y,-z
-x,y,-z
1/2+x,1/2+y,z
1/2-x,1/2-y,z
1/2+x,1/2-y,-z
1/2-x,1/2+y,-z
loop_
_atom_site_type_symbol
_atom_site_label
_atom_site_fract_x
_atom_site_fract_y
_atom_site_fract_z
Si Si1 0.013608 0.212688 0.332606
Si Si2 0.292827 0.609056 0.621847
Si Si3 0.359882 0.785636 0.117048
Si Si4 0.871951 0.593988 0.175299
O O1 0.100811 0.112091 0.323114
O O2 0.059804 0.354256 0.295640
O O3 0.000000 0.209841 0.500000
O O4 0.925456 0.203188 0.225760
O O5 0.281222 0.500000 0.500000
O O6 0.250000 0.750000 0.564220
O O7 0.231258 0.589515 0.760911
O O8 0.250000 0.750000 0.138048
O O9 0.386632 0.940705 0.141095
O O10 0.379437 0.793101 0.947561
#
# Coordination Sequence:
#
# PCOD9324977 Si02
#       4
#     8   8   8   8
#     4  11  25  41  67 106 136 187 233 304 368 444
#     4  10  24  45  74 105 151 189 243 307 373 445
#     4  11  24  43  70 100 140 191 250 304 368 441
#     4  10  24  44  70  98 140 195 242 303 366 447
#
# _framework density 23.613030999999999
#
# number of rings (size 3 to 8) (size 9 to 14) (size 15 to 20)
#    0.000    1.500    0.000    3.750   10.500    3.500 
#    0.000    0.000    0.000    0.000    0.000    0.000 
#    0.000    0.000    0.000    0.000    0.000    0.000 
#
# Total GULP energy -89164.288382 kJ/mol
# GULP energy per Si atom -5572.768024 kJ/mol
# Density = 2.355929 g / cm^3
# Si number density = 23.613031 Si / 1000 Ang^3
#
#
#
# Elastic Constant Matrix: (Units=GPa)
#
#
# Indices 1 2 3 4 5 6 
#
# 1 130.0705 -5.6091 48.3282 0.0000 0.0000 0.0000
# 2 -5.6091 70.5345 15.1984 0.0000 0.0000 0.0000
# 3 48.3282 15.1984 109.4271 0.0000 0.0000 0.0000
# 4 0.0000 0.0000 0.0000 17.1934 0.0000 0.0000
# 5 0.0000 0.0000 0.0000 0.0000 73.4641 0.0000
# 6 0.0000 0.0000 0.0000 0.0000 0.0000 19.6303
#
#
#
# Elastic Compliance Matrix: (Units=1/GPa)
#
#
# Indices 1 2 3 4 5 6 
#
# 1 0.009389 0.001691 -0.004381 0.000000 0.000000 0.000000
# 2 0.001691 0.014919 -0.002819 0.000000 0.000000 0.000000
# 3 -0.004381 -0.002819 0.011465 0.000000 0.000000 0.000000
# 4 0.000000 0.000000 0.000000 0.058162 0.000000 0.000000
# 5 0.000000 0.000000 0.000000 0.000000 0.013612 0.000000
# 6 0.000000 0.000000 0.000000 0.000000 0.000000 0.050942
#
#
# Mechanical properties :
#
#
# Convention : Reuss Voigt Hill
#
# Bulk Modulus (GPa) = 40.39716 47.31857 43.85786
# Shear Modulus (GPa) = 28.12787 38.86519 33.49653
#
# Velocity S-wave (km/s) = 3.45512 4.06140 3.77047
# Velocity P-wave (km/s) = 5.74998 6.48660 6.12937
#
# Compressibility (1/GPa) = 0.02475422
#
# Stress axis : x y z
#
# Youngs Moduli (GPa) = 106.50760 67.02728 87.22142
#
# Poissons Ratio (x) = -0.11333 0.38216
# Poissons Ratio (y) = -0.18008 0.24586
# Poissons Ratio (z) = 0.46666 0.18894
#
# Static dielectric constant tensor:
#      x y z
#    x 1.993910 0.000000 0.000000 
#    y 0.000000 1.814070 0.000000 
#    z 0.000000 0.000000 2.050610 
# 
# From -- ./inp_files/14027.got.cif
#   From: 2010.05.17/outbox.cif.g08.bks.cpg/sg21_8_cif.got.tgz:14027.got - 2010.06.03 23:14:55.
