data_PCOD9324515
_publ_section_title
;
Structure prediction by ZEFSAII (Michael W. Deem and Ramdas Pophale) SiO2 
 PCOD9324515
Probable space group: C 2 2 2
;
_chemical_formula_sum "Si O2"
_cell_formula_units_Z 48
_cell_length_a 9.400885
_cell_length_b 19.831309
_cell_length_c 12.292420
_cell_angle_alpha 90.000000
_cell_angle_beta 90.000000
_cell_angle_gamma 90.000000
_cell_volume 2291.698667
_symmetry_space_group_name_H-M "C 2 2 2"
_symmetry_group_IT_number 21
_symmetry_cell_setting 'orthorhombic'
loop_
_space_group_symop_operation_xyz
x,y,z
-x,-y,z
x,-y,-z
-x,y,-z
1/2+x,1/2+y,z
1/2-x,1/2-y,z
1/2+x,1/2-y,-z
1/2-x,1/2+y,-z
loop_
_atom_site_type_symbol
_atom_site_label
_atom_site_fract_x
_atom_site_fract_y
_atom_site_fract_z
Si Si1 0.250000 0.750000 0.571018
Si Si2 0.849251 0.687151 0.042457
Si Si3 0.079126 0.933813 0.294024
Si Si4 0.000000 0.847793 0.500000
Si Si5 0.151980 0.515501 0.627101
Si Si6 0.230467 0.669002 0.189438
Si Si7 0.579634 0.847437 0.280296
O O1 0.354308 0.698365 0.503457
O O2 0.365701 0.783376 0.652444
O O3 0.750000 0.750000 0.064415
O O4 0.866980 0.649489 0.155895
O O5 0.798389 0.647762 0.935717
O O6 0.000000 0.714804 0.000000
O O7 0.128479 0.870767 0.222573
O O8 0.002576 0.898624 0.396782
O O9 0.225198 0.968902 0.330145
O O10 0.000000 0.000000 0.247662
O O11 0.145541 0.500000 0.500000
O O12 0.157541 0.593863 0.652681
O O13 0.000000 0.500000 0.680272
O O14 0.250000 0.750000 0.191070
O O15 0.092146 0.653410 0.265305
#
# Coordination Sequence:
#
# PCOD9324515 Si02
#       7
#     4   8   8   4   8   8   8
#     4  12  26  40  70 102 134 168 228 296 340 416
#     4   9  19  39  66 100 135 168 219 284 353 413
#     4  12  24  45  65  94 142 187 228 279 346 413
#     4  12  29  44  66 100 139 184 230 292 348 411
#     4  11  23  40  64  90 125 181 229 270 330 413
#     4  10  22  40  70 100 138 179 223 291 355 409
#     4  11  21  41  68 101 129 175 232 281 345 417
#
# _framework density 20.945163000000001
#
# number of rings (size 3 to 8) (size 9 to 14) (size 15 to 20)
#    0.000    1.167    2.500    4.250    3.500    1.333 
#    3.000    0.833    0.000    3.000    0.000    0.000 
#    0.000    0.000    0.000    0.000    0.000    0.000 
#
# Total GULP energy -133731.726438 kJ/mol
# GULP energy per Si atom -5572.155268 kJ/mol
# Density = 2.089749 g / cm^3
# Si number density = 20.945163 Si / 1000 Ang^3
#
#
#
# Elastic Constant Matrix: (Units=GPa)
#
#
# Indices 1 2 3 4 5 6 
#
# 1 76.3356 23.3420 20.9396 0.0000 0.0000 0.0000
# 2 23.3420 94.4002 33.4242 0.0000 0.0000 0.0000
# 3 20.9396 33.4242 62.4147 0.0000 0.0000 0.0000
# 4 0.0000 0.0000 0.0000 4.4997 0.0000 0.0000
# 5 0.0000 0.0000 0.0000 0.0000 31.5731 0.0000
# 6 0.0000 0.0000 0.0000 0.0000 0.0000 65.9540
#
#
#
# Elastic Compliance Matrix: (Units=1/GPa)
#
#
# Indices 1 2 3 4 5 6 
#
# 1 0.014839 -0.002353 -0.003719 0.000000 0.000000 0.000000
# 2 -0.002353 0.013445 -0.006411 0.000000 0.000000 0.000000
# 3 -0.003719 -0.006411 0.020702 0.000000 0.000000 0.000000
# 4 0.000000 0.000000 0.000000 0.222236 0.000000 0.000000
# 5 0.000000 0.000000 0.000000 0.000000 0.031673 0.000000
# 6 0.000000 0.000000 0.000000 0.000000 0.000000 0.015162
#
#
# Mechanical properties :
#
#
# Convention : Reuss Voigt Hill
#
# Bulk Modulus (GPa) = 41.62699 43.17357 42.40028
# Shear Modulus (GPa) = 14.24385 30.76836 22.50610
#
# Velocity S-wave (km/s) = 2.61061 3.83691 3.28155
# Velocity P-wave (km/s) = 5.38558 6.34717 5.88604
#
# Compressibility (1/GPa) = 0.02402288
#
# Stress axis : x y z
#
# Youngs Moduli (GPa) = 67.38773 74.37860 48.30355
#
# Poissons Ratio (x) = 0.17499 0.17962
# Poissons Ratio (y) = 0.15854 0.30965
# Poissons Ratio (z) = 0.25059 0.47681
#
# Static dielectric constant tensor:
#      x y z
#    x 1.828430 0.000000 0.000000 
#    y 0.000000 1.738630 0.000000 
#    z 0.000000 0.000000 1.744460 
# 
# From -- ./inp_files/30565.got.cif
#   From: 2010.05.17/outbox.cif.g08.bks.cpg/sg21_16_cif.got.tgz:30565.got - 2010.06.03 23:14:55.
