data_PCOD9324155
_publ_section_title
;
Structure prediction by ZEFSAII (Michael W. Deem and Ramdas Pophale) SiO2 
 PCOD9324155
Probable space group: C 2 2 2
;
_chemical_formula_sum "Si O2"
_cell_formula_units_Z 24
_cell_length_a 4.991875
_cell_length_b 28.172789
_cell_length_c 8.294446
_cell_angle_alpha 90.000000
_cell_angle_beta 90.000000
_cell_angle_gamma 90.000000
_cell_volume 1166.489754
_symmetry_space_group_name_H-M "C 2 2 2"
_symmetry_group_IT_number 21
_symmetry_cell_setting 'orthorhombic'
loop_
_space_group_symop_operation_xyz
x,y,z
-x,-y,z
x,-y,-z
-x,y,-z
1/2+x,1/2+y,z
1/2-x,1/2-y,z
1/2+x,1/2-y,-z
1/2-x,1/2+y,-z
loop_
_atom_site_type_symbol
_atom_site_label
_atom_site_fract_x
_atom_site_fract_y
_atom_site_fract_z
Si Si1 0.898983 0.894893 0.680631
Si Si2 0.746399 0.697960 0.880677
Si Si3 0.920964 0.555512 0.180173
O O1 0.122737 0.926155 0.777859
O O2 0.000000 0.888704 0.500000
O O3 0.825018 0.844906 0.762737
O O4 0.620982 0.922553 0.690287
O O5 0.750000 0.750000 0.798196
O O6 0.500000 0.701388 0.000000
O O7 0.000000 0.689917 0.000000
O O8 0.000000 0.500000 0.180866
O O9 0.000000 0.572734 0.000000
#
# Coordination Sequence:
#
# PCOD9324155 Si02
#       3
#     8   8   8
#     4  12  24  39  62  93 127 159 196 253 314 363
#     4  10  21  40  65  89 118 162 210 251 296 360
#     4  11  24  42  64  88 119 163 210 251 296 361
#
# _framework density 20.574548
#
# number of rings (size 3 to 8) (size 9 to 14) (size 15 to 20)
#    0.000    1.000    0.000    8.000    0.000    6.667 
#    0.000    8.333    0.000    0.000    0.000    0.000 
#    0.000    0.000    0.000    0.000    0.000    0.000 
#
# Total GULP energy -66976.631418 kJ/mol
# GULP energy per Si atom -5581.385951 kJ/mol
# Density = 2.052772 g / cm^3
# Si number density = 20.574548 Si / 1000 Ang^3
#
#
#
# Elastic Constant Matrix: (Units=GPa)
#
#
# Indices 1 2 3 4 5 6 
#
# 1 118.7644 17.2743 8.5707 0.0000 0.0000 0.0000
# 2 17.2743 144.2525 41.5454 0.0000 0.0000 0.0000
# 3 8.5707 41.5454 87.2192 0.0000 0.0000 0.0000
# 4 0.0000 0.0000 0.0000 -22.7140 0.0000 0.0000
# 5 0.0000 0.0000 0.0000 0.0000 33.6910 0.0000
# 6 0.0000 0.0000 0.0000 0.0000 0.0000 28.3650
#
#
#
# Elastic Compliance Matrix: (Units=1/GPa)
#
#
# Indices 1 2 3 4 5 6 
#
# 1 0.008582 -0.000910 -0.000410 0.000000 0.000000 0.000000
# 2 -0.000910 0.008131 -0.003784 0.000000 0.000000 0.000000
# 3 -0.000410 -0.003784 0.013308 0.000000 0.000000 0.000000
# 4 0.000000 0.000000 0.000000 -0.044026 0.000000 0.000000
# 5 0.000000 0.000000 0.000000 0.000000 0.029682 0.000000
# 6 0.000000 0.000000 0.000000 0.000000 0.000000 0.035255
#
#
# Mechanical properties :
#
#
# Convention : Reuss Voigt Hill
#
# Bulk Modulus (GPa) = 50.46881 53.89075 52.17978
# Shear Modulus (GPa) = 73.80889 26.72479 50.26684
#
# Velocity S-wave (km/s) = 5.99598 3.60797 4.94819
# Velocity P-wave (km/s) = 8.51579 6.60351 7.61988
#
# Compressibility (1/GPa) = 0.01981422
#
# Stress axis : x y z
#
# Youngs Moduli (GPa) = 116.52404 122.98732 75.14315
#
# Poissons Ratio (x) = 0.11187 0.03081
# Poissons Ratio (y) = 0.10599 0.28431
# Poissons Ratio (z) = 0.04778 0.46534
#
# Static dielectric constant tensor:
#      x y z
#    x 1.723540 0.000000 0.000000 
#    y 0.000000 1.950850 0.000000 
#    z 0.000000 0.000000 1.713650 
# 
# From -- ./inp_files/8782.got.cif
#   From: 2010.05.17/outbox.cif.g08.bks.cpg/sg21_5_cif.got.tgz:8782.got - 2010.06.03 23:14:55.
