data_PCOD9324087
_publ_section_title
;
Structure prediction by ZEFSAII (Michael W. Deem and Ramdas Pophale) SiO2 
 PCOD9324087
Probable space group: C 2 2 2
;
_chemical_formula_sum "Si O2"
_cell_formula_units_Z 36
_cell_length_a 5.516510
_cell_length_b 24.504572
_cell_length_c 11.626160
_cell_angle_alpha 90.000000
_cell_angle_beta 90.000000
_cell_angle_gamma 90.000000
_cell_volume 1571.621013
_symmetry_space_group_name_H-M "C 2 2 2"
_symmetry_group_IT_number 21
_symmetry_cell_setting 'orthorhombic'
loop_
_space_group_symop_operation_xyz
x,y,z
-x,-y,z
x,-y,-z
-x,y,-z
1/2+x,1/2+y,z
1/2-x,1/2-y,z
1/2+x,1/2-y,-z
1/2-x,1/2+y,-z
loop_
_atom_site_type_symbol
_atom_site_label
_atom_site_fract_x
_atom_site_fract_y
_atom_site_fract_z
Si Si1 0.246858 0.977808 0.367506
Si Si2 0.209655 0.625828 0.231159
Si Si3 0.125351 0.803627 0.886290
Si Si4 0.000000 0.386053 0.000000
Si Si5 0.497124 0.784861 0.626254
O O1 0.237902 0.914040 0.337670
O O2 0.500000 0.000000 0.319156
O O3 0.245279 0.000000 0.500000
O O4 0.000000 0.000000 0.313037
O O5 0.433212 0.664330 0.192589
O O6 0.007951 0.667885 0.278263
O O7 0.127935 0.591580 0.116884
O O8 0.250000 0.750000 0.835538
O O9 0.297395 0.848410 0.942491
O O10 0.000000 0.778695 0.000000
O O11 0.500000 0.812080 0.500000
O O12 0.750000 0.750000 0.638896
O O13 0.250000 0.750000 0.619220
#
# Coordination Sequence:
#
# PCOD9324087 Si02
#       5
#     8   8   8   4   8
#     4  10  25  50  80 111 133 183 263 328 388 433
#     4  11  26  42  76 106 155 198 252 317 372 458
#     4  10  21  39  64 105 157 208 248 286 350 459
#     4  10  24  40  67 106 156 196 253 286 386 440
#     4  10  25  45  64 105 153 200 245 298 371 447
#
# _framework density 22.906283999999999
#
# number of rings (size 3 to 8) (size 9 to 14) (size 15 to 20)
#    0.000    1.778    1.111    0.000   12.444    0.000 
#   12.000    0.556    0.000    0.000    0.000    0.000 
#    0.000    0.000    0.000    0.000    0.000    0.000 
#
# Total GULP energy -100229.743494 kJ/mol
# GULP energy per Si atom -5568.319083 kJ/mol
# Density = 2.285415 g / cm^3
# Si number density = 22.906284 Si / 1000 Ang^3
#
#
#
# Elastic Constant Matrix: (Units=GPa)
#
#
# Indices 1 2 3 4 5 6 
#
# 1 145.2587 36.9552 11.3338 0.0000 0.0000 0.0000
# 2 36.9552 94.4354 41.0485 0.0000 0.0000 0.0000
# 3 11.3338 41.0485 137.4460 0.0000 0.0000 0.0000
# 4 0.0000 0.0000 0.0000 32.0762 0.0000 0.0000
# 5 0.0000 0.0000 0.0000 0.0000 12.4216 0.0000
# 6 0.0000 0.0000 0.0000 0.0000 0.0000 30.6704
#
#
#
# Elastic Compliance Matrix: (Units=1/GPa)
#
#
# Indices 1 2 3 4 5 6 
#
# 1 0.007656 -0.003128 0.000303 0.000000 0.000000 0.000000
# 2 -0.003128 0.013447 -0.003758 0.000000 0.000000 0.000000
# 3 0.000303 -0.003758 0.008373 0.000000 0.000000 0.000000
# 4 0.000000 0.000000 0.000000 0.031176 0.000000 0.000000
# 5 0.000000 0.000000 0.000000 0.000000 0.080505 0.000000
# 6 0.000000 0.000000 0.000000 0.000000 0.000000 0.032605
#
#
# Mechanical properties :
#
#
# Convention : Reuss Voigt Hill
#
# Bulk Modulus (GPa) = 61.31165 61.75722 61.53443
# Shear Modulus (GPa) = 25.99239 34.22047 30.10643
#
# Velocity S-wave (km/s) = 3.37223 3.86934 3.62930
# Velocity P-wave (km/s) = 6.47973 6.85432 6.66966
#
# Compressibility (1/GPa) = 0.01631011
#
# Stress axis : x y z
#
# Youngs Moduli (GPa) = 130.61009 74.36756 119.43228
#
# Poissons Ratio (x) = 0.23260 -0.03616
# Poissons Ratio (y) = 0.40852 0.44882
# Poissons Ratio (z) = -0.03954 0.27947
#
# Static dielectric constant tensor:
#      x y z
#    x 2.064290 0.000000 0.000000 
#    y 0.000000 1.810270 0.000000 
#    z 0.000000 0.000000 1.972420 
# 
# From -- ./inp_files/20974.got.cif
#   From: 2010.05.17/outbox.cif.g08.bks.cpg/sg21_11_cif.got.tgz:20974.got - 2010.06.03 23:14:55.
