data_PCOD9324575
_publ_section_title
;
Structure prediction by ZEFSAII (Michael W. Deem and Ramdas Pophale) SiO2 
 PCOD9324575
Probable space group: C 2 2 2
;
_chemical_formula_sum "Si O2"
_cell_formula_units_Z 48
_cell_length_a 14.004584
_cell_length_b 27.826758
_cell_length_c 5.915945
_cell_angle_alpha 90.000000
_cell_angle_beta 90.000000
_cell_angle_gamma 90.000000
_cell_volume 2305.456603
_symmetry_space_group_name_H-M "C 2 2 2"
_symmetry_group_IT_number 21
_symmetry_cell_setting 'orthorhombic'
loop_
_space_group_symop_operation_xyz
x,y,z
-x,-y,z
x,-y,-z
-x,y,-z
1/2+x,1/2+y,z
1/2-x,1/2-y,z
1/2+x,1/2-y,-z
1/2-x,1/2+y,-z
loop_
_atom_site_type_symbol
_atom_site_label
_atom_site_fract_x
_atom_site_fract_y
_atom_site_fract_z
Si Si1 0.736407 0.097211 0.758074
Si Si2 0.903112 0.556402 0.624409
Si Si3 0.500000 0.291916 0.000000
Si Si4 0.791648 0.500000 0.000000
Si Si5 0.901075 0.650035 0.896566
Si Si6 0.603230 0.667563 0.379226
Si Si7 0.853216 0.257005 0.319723
O O1 0.669521 0.076880 0.560739
O O2 0.822452 0.124199 0.627895
O O3 0.759913 0.049617 0.913789
O O4 0.679370 0.136307 0.915597
O O5 0.927799 0.599691 0.790188
O O6 0.000000 0.544992 0.500000
O O7 0.855423 0.516789 0.786230
O O8 0.421730 0.323967 0.119535
O O9 0.556267 0.261523 0.181906
O O10 0.866780 0.685672 0.694979
O O11 0.000000 0.669294 0.000000
O O12 0.500000 0.658119 0.500000
O O13 0.645360 0.718698 0.473071
O O14 0.750000 0.250000 0.206841
#
# Coordination Sequence:
#
# PCOD9324575 Si02
#       7
#     8   8   4   4   8   8   8
#     4  11  23  44  68  96 132 175 228 285 345 407
#     4  11  23  41  65  97 138 176 218 270 340 413
#     4  10  22  42  62  89 128 175 220 274 326 400
#     4  10  26  41  66  99 132 176 228 279 346 415
#     4  11  22  39  61  96 136 180 224 273 329 400
#     4  10  24  43  66  94 127 175 225 282 344 401
#     4  11  22  38  62  96 134 177 226 271 327 398
#
# _framework density 20.820170000000001
#
# number of rings (size 3 to 8) (size 9 to 14) (size 15 to 20)
#    0.000    1.333    2.500    2.500    0.000   11.333 
#    3.000    0.000    0.000    7.500    0.000    0.000 
#    0.000    0.000    0.000    0.000    0.000    0.000 
#
# Total GULP energy -133659.225002 kJ/mol
# GULP energy per Si atom -5569.134375 kJ/mol
# Density = 2.077278 g / cm^3
# Si number density = 20.820170 Si / 1000 Ang^3
#
#
#
# Elastic Constant Matrix: (Units=GPa)
#
#
# Indices 1 2 3 4 5 6 
#
# 1 85.1083 59.5657 17.4187 0.0000 0.0000 0.0000
# 2 59.5657 133.3071 39.8190 0.0000 0.0000 0.0000
# 3 17.4187 39.8190 67.7060 0.0000 0.0000 0.0000
# 4 0.0000 0.0000 0.0000 37.2767 0.0000 0.0000
# 5 0.0000 0.0000 0.0000 0.0000 27.6501 0.0000
# 6 0.0000 0.0000 0.0000 0.0000 0.0000 6.6048
#
#
#
# Elastic Compliance Matrix: (Units=1/GPa)
#
#
# Indices 1 2 3 4 5 6 
#
# 1 0.017097 -0.007674 0.000114 0.000000 0.000000 0.000000
# 2 -0.007674 0.012544 -0.005403 0.000000 0.000000 0.000000
# 3 0.000114 -0.005403 0.017918 0.000000 0.000000 0.000000
# 4 0.000000 0.000000 0.000000 0.026826 0.000000 0.000000
# 5 0.000000 0.000000 0.000000 0.000000 0.036166 0.000000
# 6 0.000000 0.000000 0.000000 0.000000 0.000000 0.151405
#
#
# Mechanical properties :
#
#
# Convention : Reuss Voigt Hill
#
# Bulk Modulus (GPa) = 46.22283 57.74760 51.98521
# Shear Modulus (GPa) = 16.94380 25.59418 21.26899
#
# Velocity S-wave (km/s) = 2.85584 3.50994 3.19965
# Velocity P-wave (km/s) = 5.75531 6.65002 6.21878
#
# Compressibility (1/GPa) = 0.02163433
#
# Stress axis : x y z
#
# Youngs Moduli (GPa) = 58.48999 79.71773 55.80961
#
# Poissons Ratio (x) = 0.61172 -0.00639
# Poissons Ratio (y) = 0.44883 0.30156
# Poissons Ratio (z) = -0.00669 0.43074
#
# Static dielectric constant tensor:
#      x y z
#    x 1.726680 0.000000 0.000000 
#    y 0.000000 1.848280 0.000000 
#    z 0.000000 0.000000 1.821600 
# 
# From -- ./inp_files/4276.got.cif
#   From: 2010.05.17/outbox.cif.g08.bks.cpg/sg21_3_cif.got.tgz:4276.got - 2010.06.03 23:14:55.
