data_PCOD9324889
_publ_section_title
;
Structure prediction by ZEFSAII (Michael W. Deem and Ramdas Pophale) SiO2 
 PCOD9324889
Probable space group: C 2 2 2
;
_chemical_formula_sum "Si O2"
_cell_formula_units_Z 36
_cell_length_a 7.424278
_cell_length_b 21.775806
_cell_length_c 9.648088
_cell_angle_alpha 90.000000
_cell_angle_beta 90.000000
_cell_angle_gamma 90.000000
_cell_volume 1559.802889
_symmetry_space_group_name_H-M "C 2 2 2"
_symmetry_group_IT_number 21
_symmetry_cell_setting 'orthorhombic'
loop_
_space_group_symop_operation_xyz
x,y,z
-x,-y,z
x,-y,-z
-x,y,-z
1/2+x,1/2+y,z
1/2-x,1/2-y,z
1/2+x,1/2-y,-z
1/2-x,1/2+y,-z
loop_
_atom_site_type_symbol
_atom_site_label
_atom_site_fract_x
_atom_site_fract_y
_atom_site_fract_z
Si Si1 0.707884 0.483148 0.653293
Si Si2 0.821208 0.594842 0.830875
Si Si3 0.743143 0.117079 0.872456
Si Si4 0.104168 0.300843 0.629165
Si Si5 0.750000 0.750000 0.214368
O O1 0.500000 0.500000 0.646729
O O2 0.781008 0.500000 0.500000
O O3 0.802316 0.529926 0.757868
O O4 0.702378 0.417245 0.730372
O O5 0.786814 0.650217 0.722674
O O6 0.028420 0.608399 0.863705
O O7 0.709734 0.593417 0.973664
O O8 0.791697 0.188444 0.869807
O O9 0.250000 0.250000 0.584166
O O10 0.000000 0.332152 0.500000
O O11 0.935283 0.267936 0.705991
#
# Coordination Sequence:
#
# PCOD9324889 Si02
#       5
#     8   8   8   8   4
#     4  11  26  43  66  98 134 177 227 282 345 412
#     4  10  24  43  68  99 130 176 232 277 347 408
#     4  10  23  46  69  97 136 174 225 286 344 412
#     4  11  24  42  68 103 141 183 229 282 343 416
#     4  10  24  44  70 100 140 182 222 284 348 402
#
# _framework density 23.079839
#
# number of rings (size 3 to 8) (size 9 to 14) (size 15 to 20)
#    0.000    1.556    1.111    1.333   10.889    4.444 
#    0.000    0.000    0.000    0.000    0.000    0.000 
#    0.000    0.000    0.000    0.000    0.000    0.000 
#
# Total GULP energy -100350.963964 kJ/mol
# GULP energy per Si atom -5575.053554 kJ/mol
# Density = 2.302731 g / cm^3
# Si number density = 23.079839 Si / 1000 Ang^3
#
#
#
# Elastic Constant Matrix: (Units=GPa)
#
#
# Indices 1 2 3 4 5 6 
#
# 1 55.7850 -0.5043 -2.3167 0.0000 0.0000 0.0000
# 2 -0.5043 114.3441 55.3315 0.0000 0.0000 0.0000
# 3 -2.3167 55.3315 143.9072 0.0000 0.0000 0.0000
# 4 0.0000 0.0000 0.0000 30.5113 0.0000 0.0000
# 5 0.0000 0.0000 0.0000 0.0000 -13.3224 0.0000
# 6 0.0000 0.0000 0.0000 0.0000 0.0000 28.6179
#
#
#
# Elastic Compliance Matrix: (Units=1/GPa)
#
#
# Indices 1 2 3 4 5 6 
#
# 1 0.017938 -0.000074 0.000317 0.000000 0.000000 0.000000
# 2 -0.000074 0.010745 -0.004133 0.000000 0.000000 0.000000
# 3 0.000317 -0.004133 0.008543 0.000000 0.000000 0.000000
# 4 0.000000 0.000000 0.000000 0.032775 0.000000 0.000000
# 5 0.000000 0.000000 0.000000 0.000000 -0.075062 0.000000
# 6 0.000000 0.000000 0.000000 0.000000 0.000000 0.034943
#
#
# Mechanical properties :
#
#
# Convention : Reuss Voigt Hill
#
# Bulk Modulus (GPa) = 33.95915 46.56192 40.26054
# Shear Modulus (GPa) = 105.31235 26.59641 65.95438
#
# Velocity S-wave (km/s) = 6.76230 3.39833 5.35151
# Velocity P-wave (km/s) = 8.70157 5.96794 7.46102
#
# Compressibility (1/GPa) = 0.02944714
#
# Stress axis : x y z
#
# Youngs Moduli (GPa) = 55.74614 93.06682 117.05508
#
# Poissons Ratio (x) = 0.00693 -0.03716
# Poissons Ratio (y) = 0.00415 0.48374
# Poissons Ratio (z) = -0.01770 0.38461
#
# Static dielectric constant tensor:
#      x y z
#    x 1.855990 0.000000 0.000000 
#    y 0.000000 1.869470 0.000000 
#    z 0.000000 0.000000 2.044640 
# 
# From -- ./inp_files/10569.got.cif
#   From: 2010.05.17/outbox.cif.g08.bks.cpg/sg21_6_cif.got.tgz:10569.got - 2010.06.03 23:14:55.
