data_PCOD9324354
_publ_section_title
;
Structure prediction by ZEFSAII (Michael W. Deem and Ramdas Pophale) SiO2 
 PCOD9324354
Probable space group: C 2 2 2
;
_chemical_formula_sum "Si O2"
_cell_formula_units_Z 48
_cell_length_a 24.533853
_cell_length_b 14.969971
_cell_length_c 6.699494
_cell_angle_alpha 90.000000
_cell_angle_beta 90.000000
_cell_angle_gamma 90.000000
_cell_volume 2460.530316
_symmetry_space_group_name_H-M "C 2 2 2"
_symmetry_group_IT_number 21
_symmetry_cell_setting 'orthorhombic'
loop_
_space_group_symop_operation_xyz
x,y,z
-x,-y,z
x,-y,-z
-x,y,-z
1/2+x,1/2+y,z
1/2-x,1/2-y,z
1/2+x,1/2-y,-z
1/2-x,1/2+y,-z
loop_
_atom_site_type_symbol
_atom_site_label
_atom_site_fract_x
_atom_site_fract_y
_atom_site_fract_z
Si Si1 0.867528 0.292040 0.221449
Si Si2 0.750000 0.750000 0.372433
Si Si3 0.198420 0.000000 0.000000
Si Si4 0.939703 0.266054 0.600493
Si Si5 0.561802 0.905085 0.067862
Si Si6 0.851674 0.177899 0.866554
Si Si7 0.728538 0.917256 0.647973
O O1 0.897246 0.265573 0.421406
O O2 0.824019 0.368427 0.263005
O O3 0.910502 0.333195 0.070618
O O4 0.846898 0.208129 0.097278
O O5 0.804819 0.761300 0.240798
O O6 0.752342 0.837751 0.510508
O O7 0.235593 0.048441 0.832880
O O8 0.163976 0.926084 0.877222
O O9 0.937752 0.363772 0.709708
O O10 0.910264 0.198771 0.760712
O O11 0.000000 0.250265 0.500000
O O12 0.500000 0.908881 0.000000
O O13 0.586519 0.000000 0.000000
O O14 0.716543 0.000000 0.500000
#
# Coordination Sequence:
#
# PCOD9324354 Si02
#       7
#     8   4   4   8   8   8   8
#     4  11  24  40  65  96 137 183 220 280 341 414
#     4  12  22  48  64 104 138 182 228 282 354 422
#     4  12  26  46  68 105 137 180 230 294 348 418
#     4  11  23  44  68  97 132 187 231 279 346 414
#     4  10  22  37  59  94 134 175 224 273 331 405
#     4  11  25  43  71  99 140 180 234 285 350 412
#     4  12  26  40  68 101 139 179 228 282 349 422
#
# _framework density 19.507988999999998
#
# number of rings (size 3 to 8) (size 9 to 14) (size 15 to 20)
#    0.000    0.833    5.000    2.000    3.500    0.000 
#    0.000    0.000    0.000    3.000    0.000    0.000 
#    0.000    0.000    0.000    0.000    0.000    0.000 
#
# Total GULP energy -133707.069889 kJ/mol
# GULP energy per Si atom -5571.127912 kJ/mol
# Density = 1.946359 g / cm^3
# Si number density = 19.507989 Si / 1000 Ang^3
#
#
#
# Elastic Constant Matrix: (Units=GPa)
#
#
# Indices 1 2 3 4 5 6 
#
# 1 82.3146 41.0409 45.4025 0.0000 0.0000 0.0000
# 2 41.0409 90.8855 42.3458 0.0000 0.0000 0.0000
# 3 45.4025 42.3458 125.9716 0.0000 0.0000 0.0000
# 4 0.0000 0.0000 0.0000 40.8600 0.0000 0.0000
# 5 0.0000 0.0000 0.0000 0.0000 35.9032 0.0000
# 6 0.0000 0.0000 0.0000 0.0000 0.0000 26.2263
#
#
#
# Elastic Compliance Matrix: (Units=1/GPa)
#
#
# Indices 1 2 3 4 5 6 
#
# 1 0.017458 -0.005871 -0.004318 0.000000 0.000000 0.000000
# 2 -0.005871 0.015021 -0.002933 0.000000 0.000000 0.000000
# 3 -0.004318 -0.002933 0.010481 0.000000 0.000000 0.000000
# 4 0.000000 0.000000 0.000000 0.024474 0.000000 0.000000
# 5 0.000000 0.000000 0.000000 0.000000 0.027853 0.000000
# 6 0.000000 0.000000 0.000000 0.000000 0.000000 0.038130
#
#
# Mechanical properties :
#
#
# Convention : Reuss Voigt Hill
#
# Bulk Modulus (GPa) = 59.83192 61.86112 60.84652
# Shear Modulus (GPa) = 30.26040 31.95672 31.10856
#
# Velocity S-wave (km/s) = 3.94277 4.05178 3.99765
# Velocity P-wave (km/s) = 7.17387 7.32589 7.25028
#
# Compressibility (1/GPa) = 0.01671349
#
# Stress axis : x y z
#
# Youngs Moduli (GPa) = 57.28101 66.57454 95.41304
#
# Poissons Ratio (x) = 0.39088 0.41204
# Poissons Ratio (y) = 0.33631 0.27986
# Poissons Ratio (z) = 0.24737 0.19527
#
# Static dielectric constant tensor:
#      x y z
#    x 1.548420 0.000000 0.000000 
#    y 0.000000 1.830700 0.000000 
#    z 0.000000 0.000000 1.748230 
# 
# From -- ./inp_files/4160.got.cif
#   From: 2010.05.17/outbox.cif.g08.bks.cpg/sg21_3_cif.got.tgz:4160.got - 2010.06.03 23:14:55.
