data_PCOD9324059
_publ_section_title
;
Structure prediction by ZEFSAII (Michael W. Deem and Ramdas Pophale) SiO2 
 PCOD9324059
Probable space group: C 2 2 2
;
_chemical_formula_sum "Si O2"
_cell_formula_units_Z 32
_cell_length_a 5.896996
_cell_length_b 19.331752
_cell_length_c 12.618409
_cell_angle_alpha 90.000000
_cell_angle_beta 90.000000
_cell_angle_gamma 90.000000
_cell_volume 1438.489342
_symmetry_space_group_name_H-M "C 2 2 2"
_symmetry_group_IT_number 21
_symmetry_cell_setting 'orthorhombic'
loop_
_space_group_symop_operation_xyz
x,y,z
-x,-y,z
x,-y,-z
-x,y,-z
1/2+x,1/2+y,z
1/2-x,1/2-y,z
1/2+x,1/2-y,-z
1/2-x,1/2+y,-z
loop_
_atom_site_type_symbol
_atom_site_label
_atom_site_fract_x
_atom_site_fract_y
_atom_site_fract_z
Si Si1 0.834085 0.435699 0.665285
Si Si2 0.000000 0.000000 0.000000
Si Si3 0.628852 0.186110 0.304314
Si Si4 0.502587 0.616418 0.154090
Si Si5 0.000000 0.000000 0.500000
Si Si6 0.250000 0.750000 0.849594
O O1 0.693916 0.418703 0.771689
O O2 0.656874 0.454081 0.574783
O O3 0.000000 0.500000 0.682125
O O4 0.987400 0.370440 0.633409
O O5 0.106147 0.057198 0.920336
O O6 0.750000 0.250000 0.362638
O O7 0.449621 0.220448 0.223806
O O8 0.813347 0.146333 0.232783
O O9 0.634409 0.681778 0.098754
#
# Coordination Sequence:
#
# PCOD9324059 Si02
#       6
#     8   2   8   8   2   4
#     4  11  22  39  63  96 126 166 216 267 326 388
#     4  12  22  36  58  94 140 164 214 272 314 370
#     4   9  18  38  66  91 118 169 218 260 320 392
#     4  10  21  39  60  92 130 171 219 264 321 382
#     4  12  24  36  60 104 128 160 212 278 328 392
#     4   8  18  38  60  88 116 170 218 258 318 388
#
# _framework density 22.245560999999999
#
# number of rings (size 3 to 8) (size 9 to 14) (size 15 to 20)
#    0.000    2.000    0.000    4.125    0.000    0.000 
#    6.750   14.375    0.000    0.000  523.250    0.000 
#    0.000    0.000    0.000    0.000    0.000    0.000 
#
# Total GULP energy -89216.723648 kJ/mol
# GULP energy per Si atom -5576.045228 kJ/mol
# Density = 2.219493 g / cm^3
# Si number density = 22.245561 Si / 1000 Ang^3
#
#
#
# Elastic Constant Matrix: (Units=GPa)
#
#
# Indices 1 2 3 4 5 6 
#
# 1 125.5436 75.1130 32.0284 0.0000 0.0000 0.0000
# 2 75.1130 189.6716 55.1259 0.0000 0.0000 0.0000
# 3 32.0284 55.1259 60.0140 0.0000 0.0000 0.0000
# 4 0.0000 0.0000 0.0000 -11.9675 0.0000 0.0000
# 5 0.0000 0.0000 0.0000 0.0000 -12.9967 0.0000
# 6 0.0000 0.0000 0.0000 0.0000 0.0000 34.3754
#
#
#
# Elastic Compliance Matrix: (Units=1/GPa)
#
#
# Indices 1 2 3 4 5 6 
#
# 1 0.010703 -0.003517 -0.002481 0.000000 0.000000 0.000000
# 2 -0.003517 0.008348 -0.005791 0.000000 0.000000 0.000000
# 3 -0.002481 -0.005791 0.023306 0.000000 0.000000 0.000000
# 4 0.000000 0.000000 0.000000 -0.083559 0.000000 0.000000
# 5 0.000000 0.000000 0.000000 0.000000 -0.076943 0.000000
# 6 0.000000 0.000000 0.000000 0.000000 0.000000 0.029091
#
#
# Mechanical properties :
#
#
# Convention : Reuss Voigt Hill
#
# Bulk Modulus (GPa) = 53.25293 77.75152 65.50223
# Shear Modulus (GPa) = -84.43727 16.07971 -34.17878
#
# Velocity S-wave (km/s) = -6.16760 2.69146 -3.92399
# Velocity P-wave (km/s) = 5.16995 6.68476 2.99646
#
# Compressibility (1/GPa) = 0.01877831
#
# Stress axis : x y z
#
# Youngs Moduli (GPa) = 93.43376 119.78392 42.90674
#
# Poissons Ratio (x) = 0.42133 0.10645
# Poissons Ratio (y) = 0.32864 0.24848
# Poissons Ratio (z) = 0.23181 0.69369
#
# Static dielectric constant tensor:
#      x y z
#    x 1.792130 0.000000 0.000000 
#    y 0.000000 1.898550 0.000000 
#    z 0.000000 0.000000 1.798900 
# 
# From -- ./inp_files/28782.got.cif
#   From: 2010.05.17/outbox.cif.g08.bks.cpg/sg21_15_cif.got.tgz:28782.got - 2010.06.03 23:14:55.
