data_PCOD9324650
_publ_section_title
;
Structure prediction by ZEFSAII (Michael W. Deem and Ramdas Pophale) SiO2 
 PCOD9324650
Probable space group: C 2 2 2
;
_chemical_formula_sum "Si O2"
_cell_formula_units_Z 32
_cell_length_a 23.101374
_cell_length_b 12.396039
_cell_length_c 4.941178
_cell_angle_alpha 90.000000
_cell_angle_beta 90.000000
_cell_angle_gamma 90.000000
_cell_volume 1414.983072
_symmetry_space_group_name_H-M "C 2 2 2"
_symmetry_group_IT_number 21
_symmetry_cell_setting 'orthorhombic'
loop_
_space_group_symop_operation_xyz
x,y,z
-x,-y,z
x,-y,-z
-x,y,-z
1/2+x,1/2+y,z
1/2-x,1/2-y,z
1/2+x,1/2-y,-z
1/2-x,1/2+y,-z
loop_
_atom_site_type_symbol
_atom_site_label
_atom_site_fract_x
_atom_site_fract_y
_atom_site_fract_z
Si Si1 0.062220 0.741135 0.523645
Si Si2 0.594529 0.628767 0.020290
Si Si3 0.784451 0.919619 0.246037
Si Si4 0.341473 0.080494 0.253632
O O1 0.050981 0.832508 0.749019
O O2 0.107179 0.660011 0.664384
O O3 0.000000 0.684886 0.500000
O O4 0.086441 0.799900 0.251912
O O5 0.658528 0.643811 0.154561
O O6 0.588695 0.500000 0.000000
O O7 0.721964 0.862746 0.258064
O O8 0.796907 0.000000 0.500000
O O9 0.774015 0.000000 0.000000
O O10 0.335247 0.000000 0.500000
O O11 0.352792 0.000000 0.000000
#
# Coordination Sequence:
#
# PCOD9324650 Si02
#       4
#     8   8   8   8
#     4  12  26  42  64  98 130 172 228 259 308 398
#     4  11  23  42  65  92 131 172 211 269 326 377
#     4   9  18  37  65  95 126 163 211 263 331 399
#     4  10  22  43  68  95 129 167 211 274 333 381
#
# _framework density 22.615110000000001
#
# number of rings (size 3 to 8) (size 9 to 14) (size 15 to 20)
#    0.000    1.500    0.000    6.000    0.000    4.500 
#    0.000    8.750    0.000    0.000    0.000    0.000 
#    0.000    0.000    0.000    0.000    0.000    0.000 
#
# Total GULP energy -89180.013795 kJ/mol
# GULP energy per Si atom -5573.750862 kJ/mol
# Density = 2.256364 g / cm^3
# Si number density = 22.615110 Si / 1000 Ang^3
#
#
#
# Elastic Constant Matrix: (Units=GPa)
#
#
# Indices 1 2 3 4 5 6 
#
# 1 157.9164 51.7034 37.3983 0.0000 0.0000 0.0000
# 2 51.7034 72.0266 34.4149 0.0000 0.0000 0.0000
# 3 37.3983 34.4149 177.8999 0.0000 0.0000 0.0000
# 4 0.0000 0.0000 0.0000 21.6430 0.0000 0.0000
# 5 0.0000 0.0000 0.0000 0.0000 27.8460 0.0000
# 6 0.0000 0.0000 0.0000 0.0000 0.0000 36.7080
#
#
#
# Elastic Compliance Matrix: (Units=1/GPa)
#
#
# Indices 1 2 3 4 5 6 
#
# 1 0.008347 -0.005678 -0.000656 0.000000 0.000000 0.000000
# 2 -0.005678 0.019160 -0.002513 0.000000 0.000000 0.000000
# 3 -0.000656 -0.002513 0.006245 0.000000 0.000000 0.000000
# 4 0.000000 0.000000 0.000000 0.046204 0.000000 0.000000
# 5 0.000000 0.000000 0.000000 0.000000 0.035912 0.000000
# 6 0.000000 0.000000 0.000000 0.000000 0.000000 0.027242
#
#
# Mechanical properties :
#
#
# Convention : Reuss Voigt Hill
#
# Bulk Modulus (GPa) = 62.27467 72.76403 67.51935
# Shear Modulus (GPa) = 30.09181 36.19451 33.14316
#
# Velocity S-wave (km/s) = 3.65171 4.00491 3.83238
# Velocity P-wave (km/s) = 6.73621 7.32329 7.03587
#
# Compressibility (1/GPa) = 0.01605789
#
# Stress axis : x y z
#
# Youngs Moduli (GPa) = 119.80374 52.19074 160.12235
#
# Poissons Ratio (x) = 0.29635 0.10508
# Poissons Ratio (y) = 0.68027 0.40238
# Poissons Ratio (z) = 0.07862 0.13115
#
# Static dielectric constant tensor:
#      x y z
#    x 2.013770 0.000000 0.000000 
#    y 0.000000 1.825780 0.000000 
#    z 0.000000 0.000000 1.833580 
# 
# From -- ./inp_files/6435.got.cif
#   From: 2010.05.17/outbox.cif.g08.bks.cpg/sg21_4_cif.got.tgz:6435.got - 2010.06.03 23:14:55.
