data_PCOD9324366
_publ_section_title
;
Structure prediction by ZEFSAII (Michael W. Deem and Ramdas Pophale) SiO2 
 PCOD9324366
Probable space group: C 2 2 2
;
_chemical_formula_sum "Si O2"
_cell_formula_units_Z 40
_cell_length_a 10.477359
_cell_length_b 15.996332
_cell_length_c 11.220867
_cell_angle_alpha 90.000000
_cell_angle_beta 90.000000
_cell_angle_gamma 90.000000
_cell_volume 1880.609601
_symmetry_space_group_name_H-M "C 2 2 2"
_symmetry_group_IT_number 21
_symmetry_cell_setting 'orthorhombic'
loop_
_space_group_symop_operation_xyz
x,y,z
-x,-y,z
x,-y,-z
-x,y,-z
1/2+x,1/2+y,z
1/2-x,1/2-y,z
1/2+x,1/2-y,-z
1/2-x,1/2+y,-z
loop_
_atom_site_type_symbol
_atom_site_label
_atom_site_fract_x
_atom_site_fract_y
_atom_site_fract_z
Si Si1 0.200948 0.657700 0.734061
Si Si2 0.557118 0.210553 0.372369
Si Si3 0.666268 0.527283 0.134994
Si Si4 0.769946 0.092340 0.484632
Si Si5 0.074962 0.111932 0.728112
O O1 0.250000 0.750000 0.767074
O O2 0.220989 0.591452 0.838413
O O3 0.281842 0.630796 0.616111
O O4 0.056460 0.659286 0.688287
O O5 0.500000 0.241425 0.500000
O O6 0.677441 0.154808 0.411054
O O7 0.581334 0.288727 0.285160
O O8 0.684523 0.440110 0.204016
O O9 0.547786 0.578443 0.197817
O O10 0.645110 0.500000 0.000000
O O11 0.897700 0.082951 0.406966
O O12 0.712562 0.000000 0.500000
#
# Coordination Sequence:
#
# PCOD9324366 Si02
#       5
#     8   8   8   8   8
#     4  11  21  42  65  97 137 178 219 278 351 420
#     4  10  22  37  67 100 141 173 218 271 356 434
#     4  11  25  43  68  91 130 180 237 286 340 392
#     4  11  22  38  64 104 140 180 211 273 356 433
#     4  11  21  39  64  97 130 169 226 290 337 402
#
# _framework density 21.2697
#
# number of rings (size 3 to 8) (size 9 to 14) (size 15 to 20)
#    0.000    1.200    4.000    4.200    0.000    3.600 
#    0.000    2.000    0.000    2.400    0.000    0.000 
#    0.000    0.000    0.000    0.000    0.000    0.000 
#
# Total GULP energy -111505.181739 kJ/mol
# GULP energy per Si atom -5575.259087 kJ/mol
# Density = 2.122129 g / cm^3
# Si number density = 21.269700 Si / 1000 Ang^3
#
#
#
# Elastic Constant Matrix: (Units=GPa)
#
#
# Indices 1 2 3 4 5 6 
#
# 1 51.6317 31.1775 53.5741 0.0000 0.0000 0.0000
# 2 31.1775 152.5464 81.0518 0.0000 0.0000 0.0000
# 3 53.5741 81.0518 131.8167 0.0000 0.0000 0.0000
# 4 0.0000 0.0000 0.0000 24.6874 0.0000 0.0000
# 5 0.0000 0.0000 0.0000 0.0000 21.8596 0.0000
# 6 0.0000 0.0000 0.0000 0.0000 0.0000 26.1349
#
#
#
# Elastic Compliance Matrix: (Units=1/GPa)
#
#
# Indices 1 2 3 4 5 6 
#
# 1 0.033526 0.000576 -0.013980 0.000000 0.000000 0.000000
# 2 0.000576 0.009746 -0.006227 0.000000 0.000000 0.000000
# 3 -0.013980 -0.006227 0.017097 0.000000 0.000000 0.000000
# 4 0.000000 0.000000 0.000000 0.040507 0.000000 0.000000
# 5 0.000000 0.000000 0.000000 0.000000 0.045746 0.000000
# 6 0.000000 0.000000 0.000000 0.000000 0.000000 0.038263
#
#
# Mechanical properties :
#
#
# Convention : Reuss Voigt Hill
#
# Bulk Modulus (GPa) = 47.37698 74.17796 60.77747
# Shear Modulus (GPa) = 21.62786 25.88247 23.75517
#
# Velocity S-wave (km/s) = 3.19225 3.49215 3.34556
# Velocity P-wave (km/s) = 5.99250 7.15617 6.60003
#
# Compressibility (1/GPa) = 0.02110730
#
# Stress axis : x y z
#
# Youngs Moduli (GPa) = 29.82734 102.60473 58.48983
#
# Poissons Ratio (x) = -0.05909 0.81770
# Poissons Ratio (y) = -0.01718 0.36420
# Poissons Ratio (z) = 0.41699 0.63890
#
# Static dielectric constant tensor:
#      x y z
#    x 1.889880 0.000000 0.000000 
#    y 0.000000 1.817350 0.000000 
#    z 0.000000 0.000000 1.760520 
# 
# From -- ./inp_files/23771.got.cif
#   From: 2010.05.17/outbox.cif.g08.bks.cpg/sg21_12_cif.got.tgz:23771.got - 2010.06.03 23:14:55.
