data_PCOD9324371
_publ_section_title
;
Structure prediction by ZEFSAII (Michael W. Deem and Ramdas Pophale) SiO2 
 PCOD9324371
Probable space group: C 2 2 2
;
_chemical_formula_sum "Si O2"
_cell_formula_units_Z 48
_cell_length_a 29.642922
_cell_length_b 16.267890
_cell_length_c 4.953051
_cell_angle_alpha 90.000000
_cell_angle_beta 90.000000
_cell_angle_gamma 90.000000
_cell_volume 2388.498859
_symmetry_space_group_name_H-M "C 2 2 2"
_symmetry_group_IT_number 21
_symmetry_cell_setting 'orthorhombic'
loop_
_space_group_symop_operation_xyz
x,y,z
-x,-y,z
x,-y,-z
-x,y,-z
1/2+x,1/2+y,z
1/2-x,1/2-y,z
1/2+x,1/2-y,-z
1/2-x,1/2+y,-z
loop_
_atom_site_type_symbol
_atom_site_label
_atom_site_fract_x
_atom_site_fract_y
_atom_site_fract_z
Si Si1 0.174678 0.000000 0.500000
Si Si2 0.750000 0.250000 0.231657
Si Si3 0.158437 0.700477 0.532695
Si Si4 0.844494 0.588550 0.931133
Si Si5 0.605498 0.367840 0.631870
Si Si6 0.050198 0.905464 0.101334
Si Si7 0.740887 0.579579 0.845290
O O1 0.139347 0.944972 0.667974
O O2 0.209819 0.928771 0.413902
O O3 0.791757 0.278915 0.414719
O O4 0.735290 0.328063 0.053213
O O5 0.134948 0.641707 0.309624
O O6 0.132096 0.785954 0.552562
O O7 0.160813 0.647763 0.808980
O O8 0.794132 0.566211 0.818108
O O9 0.865491 0.500000 0.000000
O O10 0.567129 0.392961 0.408813
O O11 0.583536 0.352377 0.919869
O O12 0.000000 0.883146 0.000000
O O13 0.055213 0.000000 0.000000
O O14 0.723101 0.500000 0.000000
#
# Coordination Sequence:
#
# PCOD9324371 Si02
#       7
#     4   4   8   8   8   8   8
#     4  12  24  36  53  88 118 164 208 262 291 362
#     4  10  22  38  52  82 114 162 202 260 304 344
#     4  11  23  39  57  87 118 156 206 257 298 354
#     4  10  23  39  59  79 115 162 210 252 299 355
#     4  12  24  40  62  92 125 160 208 256 303 359
#     4  11  23  42  64  89 122 163 202 244 309 382
#     4  10  24  36  56  76 114 164 218 255 306 348
#
# _framework density 20.096304
#
# number of rings (size 3 to 8) (size 9 to 14) (size 15 to 20)
#    0.000    1.167    3.333    2.000   11.667    6.667 
#    0.000    0.000    0.000    0.000    0.000    0.000 
#    0.000   46.667    0.000    0.000    0.000    0.000 
#
# Total GULP energy -133697.971860 kJ/mol
# GULP energy per Si atom -5570.748828 kJ/mol
# Density = 2.005056 g / cm^3
# Si number density = 20.096304 Si / 1000 Ang^3
#
#
#
# Elastic Constant Matrix: (Units=GPa)
#
#
# Indices 1 2 3 4 5 6 
#
# 1 42.7135 26.1866 6.8723 0.0000 0.0000 0.0000
# 2 26.1866 125.7850 9.4475 0.0000 0.0000 0.0000
# 3 6.8723 9.4475 62.7839 0.0000 0.0000 0.0000
# 4 0.0000 0.0000 0.0000 31.4006 0.0000 0.0000
# 5 0.0000 0.0000 0.0000 0.0000 16.6545 0.0000
# 6 0.0000 0.0000 0.0000 0.0000 0.0000 8.6562
#
#
#
# Elastic Compliance Matrix: (Units=1/GPa)
#
#
# Indices 1 2 3 4 5 6 
#
# 1 0.027119 -0.005485 -0.002143 0.000000 0.000000 0.000000
# 2 -0.005485 0.009150 -0.000777 0.000000 0.000000 0.000000
# 3 -0.002143 -0.000777 0.016279 0.000000 0.000000 0.000000
# 4 0.000000 0.000000 0.000000 0.031846 0.000000 0.000000
# 5 0.000000 0.000000 0.000000 0.000000 0.060044 0.000000
# 6 0.000000 0.000000 0.000000 0.000000 0.000000 0.115525
#
#
# Mechanical properties :
#
#
# Convention : Reuss Voigt Hill
#
# Bulk Modulus (GPa) = 27.98016 35.14391 31.56203
# Shear Modulus (GPa) = 17.31987 23.92732 20.62360
#
# Velocity S-wave (km/s) = 2.93890 3.45430 3.20697
# Velocity P-wave (km/s) = 5.04673 5.78232 5.42700
#
# Compressibility (1/GPa) = 0.03573961
#
# Stress axis : x y z
#
# Youngs Moduli (GPa) = 36.87415 109.28636 61.42849
#
# Poissons Ratio (x) = 0.59942 0.13165
# Poissons Ratio (y) = 0.20225 0.04770
# Poissons Ratio (z) = 0.07902 0.08486
#
# Static dielectric constant tensor:
#      x y z
#    x 1.693570 0.000000 0.000000 
#    y 0.000000 1.678370 0.000000 
#    z 0.000000 0.000000 2.075690 
# 
# From -- ./inp_files/7344.got.cif
#   From: 2010.05.17/outbox.cif.g08.bks.cpg/sg21_4_cif.got.tgz:7344.got - 2010.06.03 23:14:55.
