data_PCOD9324702
_publ_section_title
;
Structure prediction by ZEFSAII (Michael W. Deem and Ramdas Pophale) SiO2 
 PCOD9324702
Probable space group: C 2 2 2
;
_chemical_formula_sum "Si O2"
_cell_formula_units_Z 56
_cell_length_a 19.517071
_cell_length_b 11.972913
_cell_length_c 10.293865
_cell_angle_alpha 90.000000
_cell_angle_beta 90.000000
_cell_angle_gamma 90.000000
_cell_volume 2405.431185
_symmetry_space_group_name_H-M "C 2 2 2"
_symmetry_group_IT_number 21
_symmetry_cell_setting 'orthorhombic'
loop_
_space_group_symop_operation_xyz
x,y,z
-x,-y,z
x,-y,-z
-x,y,-z
1/2+x,1/2+y,z
1/2-x,1/2-y,z
1/2+x,1/2-y,-z
1/2-x,1/2+y,-z
loop_
_atom_site_type_symbol
_atom_site_label
_atom_site_fract_x
_atom_site_fract_y
_atom_site_fract_z
Si Si1 0.413931 0.361739 0.675377
Si Si2 0.672977 0.774634 0.479510
Si Si3 0.840849 0.919518 0.273535
Si Si4 0.466091 0.660347 0.865648
Si Si5 0.314590 0.021082 0.299011
Si Si6 0.091684 0.389851 0.072306
Si Si7 0.825632 0.706735 0.834724
O O1 0.390738 0.275945 0.562282
O O2 0.381357 0.482666 0.649813
O O3 0.490185 0.365344 0.734676
O O4 0.372191 0.310473 0.795835
O O5 0.750000 0.750000 0.536017
O O6 0.668775 0.694366 0.353251
O O7 0.674415 0.901902 0.427228
O O8 0.890607 0.890669 0.154134
O O9 0.763885 0.962335 0.252977
O O10 0.459932 0.794231 0.881145
O O11 0.500000 0.621301 0.000000
O O12 0.366708 0.073369 0.197345
O O13 0.327714 0.888383 0.279242
O O14 0.065956 0.500000 0.000000
O O15 0.144110 0.340313 0.966999
O O16 0.750000 0.750000 0.852268
#
# Coordination Sequence:
#
# PCOD9324702 Si02
#       7
#     8   8   8   8   8   8   8
#     4  12  25  43  65 104 144 187 228 282 352 434
#     4  10  23  43  73 101 138 183 235 296 351 413
#     4  11  24  44  69 101 145 180 236 288 357 424
#     4  12  26  46  67 100 146 192 233 283 355 438
#     4  10  22  44  73 102 132 179 238 304 355 413
#     4  10  23  44  70 101 134 188 242 297 356 415
#     4  11  22  40  67 105 141 176 231 295 363 417
#
# _framework density 23.280649
#
# number of rings (size 3 to 8) (size 9 to 14) (size 15 to 20)
#    0.000    1.143    4.286    1.286    2.000    2.571 
#    2.571    1.429    0.000    0.000    3.714    0.000 
#    0.000    0.000    0.000    0.000    0.000    0.000 
#
# Total GULP energy -156369.527951 kJ/mol
# GULP energy per Si atom -5584.625998 kJ/mol
# Density = 2.322766 g / cm^3
# Si number density = 23.280649 Si / 1000 Ang^3
#
#
#
# Elastic Constant Matrix: (Units=GPa)
#
#
# Indices 1 2 3 4 5 6 
#
# 1 89.4377 36.1808 24.9359 0.0000 0.0000 0.0000
# 2 36.1808 145.3057 17.8572 0.0000 0.0000 0.0000
# 3 24.9359 17.8572 59.5051 0.0000 0.0000 0.0000
# 4 0.0000 0.0000 0.0000 25.5063 0.0000 0.0000
# 5 0.0000 0.0000 0.0000 0.0000 30.5148 0.0000
# 6 0.0000 0.0000 0.0000 0.0000 0.0000 61.2062
#
#
#
# Elastic Compliance Matrix: (Units=1/GPa)
#
#
# Indices 1 2 3 4 5 6 
#
# 1 0.013679 -0.002805 -0.004891 0.000000 0.000000 0.000000
# 2 -0.002805 0.007721 -0.001141 0.000000 0.000000 0.000000
# 3 -0.004891 -0.001141 0.019197 0.000000 0.000000 0.000000
# 4 0.000000 0.000000 0.000000 0.039206 0.000000 0.000000
# 5 0.000000 0.000000 0.000000 0.000000 0.032771 0.000000
# 6 0.000000 0.000000 0.000000 0.000000 0.000000 0.016338
#
#
# Mechanical properties :
#
#
# Convention : Reuss Voigt Hill
#
# Bulk Modulus (GPa) = 43.62429 50.24406 46.93418
# Shear Modulus (GPa) = 32.41958 37.79709 35.10833
#
# Velocity S-wave (km/s) = 3.73574 4.03369 3.88757
# Velocity P-wave (km/s) = 6.11448 6.58202 6.35255
#
# Compressibility (1/GPa) = 0.02292301
#
# Stress axis : x y z
#
# Youngs Moduli (GPa) = 73.10336 129.52053 52.09075
#
# Poissons Ratio (x) = 0.36332 0.25475
# Poissons Ratio (y) = 0.20506 0.05946
# Poissons Ratio (z) = 0.35752 0.14785
#
# Static dielectric constant tensor:
#      x y z
#    x 2.004300 0.000000 0.000000 
#    y 0.000000 1.905590 0.000000 
#    z 0.000000 0.000000 1.876370 
# 
# From -- ./inp_files/26832.got.cif
#   From: 2010.05.17/outbox.cif.g08.bks.cpg/sg21_14_cif.got.tgz:26832.got - 2010.06.03 23:14:55.
