data_PCOD9324607
_publ_section_title
;
Structure prediction by ZEFSAII (Michael W. Deem and Ramdas Pophale) SiO2 
 PCOD9324607
Probable space group: C 2 2 2
;
_chemical_formula_sum "Si O2"
_cell_formula_units_Z 30
_cell_length_a 14.067468
_cell_length_b 5.602779
_cell_length_c 16.823760
_cell_angle_alpha 90.000000
_cell_angle_beta 90.000000
_cell_angle_gamma 90.000000
_cell_volume 1325.996850
_symmetry_space_group_name_H-M "C 2 2 2"
_symmetry_group_IT_number 21
_symmetry_cell_setting 'orthorhombic'
loop_
_space_group_symop_operation_xyz
x,y,z
-x,-y,z
x,-y,-z
-x,y,-z
1/2+x,1/2+y,z
1/2-x,1/2-y,z
1/2+x,1/2-y,-z
1/2-x,1/2+y,-z
loop_
_atom_site_type_symbol
_atom_site_label
_atom_site_fract_x
_atom_site_fract_y
_atom_site_fract_z
Si Si1 0.390329 0.955240 0.759197
Si Si2 0.809076 0.499361 0.587730
Si Si3 0.602443 0.621880 0.110113
Si Si4 0.750000 0.250000 0.131272
Si Si5 0.000000 0.500000 0.000000
O O1 0.368899 0.703009 0.800858
O O2 0.500000 0.000000 0.775289
O O3 0.371716 0.982350 0.666437
O O4 0.326889 0.131764 0.810650
O O5 0.856097 0.500000 0.500000
O O6 0.750000 0.750000 0.593247
O O7 0.750000 0.250000 0.589288
O O8 0.500000 0.500000 0.114772
O O9 0.687894 0.447576 0.085149
O O10 0.572671 0.841852 0.053202
#
# Coordination Sequence:
#
# PCOD9324607 Si02
#       5
#     8   8   8   4   2
#     4  12  24  43  76 109 150 201 255 316 379 466
#     4  10  22  42  69 107 157 207 259 321 385 455
#     4  12  25  48  83 109 151 202 254 321 394 472
#     4  12  24  46  80 108 144 202 256 306 390 464
#     4  12  26  52  84 110 158 200 252 336 402 476
#
# _framework density 22.624487999999999
#
# number of rings (size 3 to 8) (size 9 to 14) (size 15 to 20)
#    0.000    0.533    5.333    2.800    0.000    0.533 
#    0.000    0.000   82.133    4.800    0.000    0.000 
#    0.000    0.000    0.000    0.000    0.000    0.000 
#
# Total GULP energy -83786.073414 kJ/mol
# GULP energy per Si atom -5585.738228 kJ/mol
# Density = 2.257299 g / cm^3
# Si number density = 22.624488 Si / 1000 Ang^3
#
#
#
# Elastic Constant Matrix: (Units=GPa)
#
#
# Indices 1 2 3 4 5 6 
#
# 1 153.3238 66.0899 70.2150 0.0000 0.0000 0.0000
# 2 66.0899 138.9756 61.1320 0.0000 0.0000 0.0000
# 3 70.2150 61.1320 182.6987 0.0000 0.0000 0.0000
# 4 0.0000 0.0000 0.0000 22.9562 0.0000 0.0000
# 5 0.0000 0.0000 0.0000 0.0000 24.4822 0.0000
# 6 0.0000 0.0000 0.0000 0.0000 0.0000 40.3016
#
#
#
# Elastic Compliance Matrix: (Units=1/GPa)
#
#
# Indices 1 2 3 4 5 6 
#
# 1 0.009007 -0.003237 -0.002378 0.000000 0.000000 0.000000
# 2 -0.003237 0.009601 -0.001968 0.000000 0.000000 0.000000
# 3 -0.002378 -0.001968 0.007046 0.000000 0.000000 0.000000
# 4 0.000000 0.000000 0.000000 0.043561 0.000000 0.000000
# 5 0.000000 0.000000 0.000000 0.000000 0.040846 0.000000
# 6 0.000000 0.000000 0.000000 0.000000 0.000000 0.024813
#
#
# Mechanical properties :
#
#
# Convention : Reuss Voigt Hill
#
# Bulk Modulus (GPa) = 95.36431 96.65243 96.00837
# Shear Modulus (GPa) = 32.56560 36.05208 34.30884
#
# Velocity S-wave (km/s) = 3.79805 3.99620 3.89838
# Velocity P-wave (km/s) = 7.84067 8.00661 7.92407
#
# Compressibility (1/GPa) = 0.01048610
#
# Stress axis : x y z
#
# Youngs Moduli (GPa) = 111.03007 104.15927 141.92082
#
# Poissons Ratio (x) = 0.33715 0.33753
# Poissons Ratio (y) = 0.35939 0.27936
# Poissons Ratio (z) = 0.26407 0.20503
#
# Static dielectric constant tensor:
#      x y z
#    x 1.781580 0.000000 0.000000 
#    y 0.000000 1.971000 0.000000 
#    z 0.000000 0.000000 1.828450 
# 
# From -- ./inp_files/36381.got.cif
#   From: 2010.05.17/outbox.cif.g08.bks.cpg/sg21_19_cif.got.tgz:36381.got - 2010.06.03 23:14:55.
