data_PCOD9324391
_publ_section_title
;
Structure prediction by ZEFSAII (Michael W. Deem and Ramdas Pophale) SiO2 
 PCOD9324391
Probable space group: C 2 2 2
;
_chemical_formula_sum "Si O2"
_cell_formula_units_Z 56
_cell_length_a 12.334742
_cell_length_b 13.928511
_cell_length_c 14.931646
_cell_angle_alpha 90.000000
_cell_angle_beta 90.000000
_cell_angle_gamma 90.000000
_cell_volume 2565.325314
_symmetry_space_group_name_H-M "C 2 2 2"
_symmetry_group_IT_number 21
_symmetry_cell_setting 'orthorhombic'
loop_
_space_group_symop_operation_xyz
x,y,z
-x,-y,z
x,-y,-z
-x,y,-z
1/2+x,1/2+y,z
1/2-x,1/2-y,z
1/2+x,1/2-y,-z
1/2-x,1/2+y,-z
loop_
_atom_site_type_symbol
_atom_site_label
_atom_site_fract_x
_atom_site_fract_y
_atom_site_fract_z
Si Si1 0.788090 0.359152 0.928800
Si Si2 0.976324 0.386807 0.782512
Si Si3 0.123805 0.968090 0.627002
Si Si4 0.629424 0.484820 0.826438
Si Si5 0.700315 0.853816 0.870631
Si Si6 0.558118 0.894851 0.417588
Si Si7 0.222307 0.139629 0.517021
O O1 0.750000 0.250000 0.929097
O O2 0.681496 0.418674 0.902104
O O3 0.881138 0.371551 0.854227
O O4 0.827229 0.387322 0.028186
O O5 0.090969 0.345735 0.814052
O O6 0.000000 0.500000 0.779193
O O7 0.946855 0.353534 0.681997
O O8 0.192372 0.062994 0.594652
O O9 0.152479 0.940579 0.728224
O O10 0.130307 0.880262 0.557140
O O11 0.000000 0.000000 0.628736
O O12 0.500000 0.500000 0.836974
O O13 0.705513 0.578841 0.830923
O O14 0.750000 0.750000 0.877976
O O15 0.500000 0.840908 0.500000
O O16 0.677837 0.898864 0.456588
O O17 0.500000 0.000000 0.411255
O O18 0.250000 0.250000 0.542014
#
# Coordination Sequence:
#
# PCOD9324391 Si02
#       7
#     8   8   8   8   8   8   8
#     4  11  25  44  69  99 133 177 228 287 347 409
#     4  11  23  42  70  97 132 175 229 281 339 408
#     4  10  23  44  66  91 135 177 223 274 336 398
#     4  11  25  44  68  99 134 184 225 281 344 414
#     4  11  26  44  67  99 136 178 226 285 350 409
#     4  10  22  38  61  95 129 167 207 269 328 383
#     4  11  23  40  66  94 127 172 224 273 324 393
#
# _framework density 21.829588999999999
#
# number of rings (size 3 to 8) (size 9 to 14) (size 15 to 20)
#    0.000    1.286    1.429    4.286    6.000    5.714 
#    2.571    0.000    0.000    0.000    0.000    0.000 
#    0.000    0.000    0.000    0.000    0.000    0.000 
#
# Total GULP energy -156228.979172 kJ/mol
# GULP energy per Si atom -5579.606399 kJ/mol
# Density = 2.177990 g / cm^3
# Si number density = 21.829589 Si / 1000 Ang^3
#
#
#
# Elastic Constant Matrix: (Units=GPa)
#
#
# Indices 1 2 3 4 5 6 
#
# 1 111.5707 2.6156 42.0297 0.0000 0.0000 0.0000
# 2 2.6156 59.4843 -12.4282 0.0000 0.0000 0.0000
# 3 42.0297 -12.4282 114.9316 0.0000 0.0000 0.0000
# 4 0.0000 0.0000 0.0000 186.8275 0.0000 0.0000
# 5 0.0000 0.0000 0.0000 0.0000 54.3359 0.0000
# 6 0.0000 0.0000 0.0000 0.0000 0.0000 22.7574
#
#
#
# Elastic Compliance Matrix: (Units=1/GPa)
#
#
# Indices 1 2 3 4 5 6 
#
# 1 0.010491 -0.001292 -0.003976 0.000000 0.000000 0.000000
# 2 -0.001292 0.017359 0.002350 0.000000 0.000000 0.000000
# 3 -0.003976 0.002350 0.010409 0.000000 0.000000 0.000000
# 4 0.000000 0.000000 0.000000 0.005353 0.000000 0.000000
# 5 0.000000 0.000000 0.000000 0.000000 0.018404 0.000000
# 6 0.000000 0.000000 0.000000 0.000000 0.000000 0.043942
#
#
# Mechanical properties :
#
#
# Convention : Reuss Voigt Hill
#
# Bulk Modulus (GPa) = 30.84366 38.93565 34.88965
# Shear Modulus (GPa) = 40.78239 69.70212 55.24225
#
# Velocity S-wave (km/s) = 4.32698 5.65680 5.03598
# Velocity P-wave (km/s) = 6.25488 7.78080 7.05919
#
# Compressibility (1/GPa) = 0.03242158
#
# Stress axis : x y z
#
# Youngs Moduli (GPa) = 95.31880 57.60741 96.07074
#
# Poissons Ratio (x) = 0.07443 0.38200
# Poissons Ratio (y) = 0.12316 -0.22573
# Poissons Ratio (z) = 0.37901 -0.13536
#
# Static dielectric constant tensor:
#      x y z
#    x 1.900250 0.000000 0.000000 
#    y 0.000000 1.724210 0.000000 
#    z 0.000000 0.000000 1.859590 
# 
# From -- ./inp_files/31589.got.cif
#   From: 2010.05.17/outbox.cif.g08.bks.cpg/sg21_16_cif.got.tgz:31589.got - 2010.06.03 23:14:55.
