data_PCOD9324468
_publ_section_title
;
Structure prediction by ZEFSAII (Michael W. Deem and Ramdas Pophale) SiO2 
 PCOD9324468
Probable space group: C 2 2 2
;
_chemical_formula_sum "Si O2"
_cell_formula_units_Z 48
_cell_length_a 15.956610
_cell_length_b 5.163018
_cell_length_c 28.516115
_cell_angle_alpha 90.000000
_cell_angle_beta 90.000000
_cell_angle_gamma 90.000000
_cell_volume 2349.279165
_symmetry_space_group_name_H-M "C 2 2 2"
_symmetry_group_IT_number 21
_symmetry_cell_setting 'orthorhombic'
loop_
_space_group_symop_operation_xyz
x,y,z
-x,-y,z
x,-y,-z
-x,y,-z
1/2+x,1/2+y,z
1/2-x,1/2-y,z
1/2+x,1/2-y,-z
1/2-x,1/2+y,-z
loop_
_atom_site_type_symbol
_atom_site_label
_atom_site_fract_x
_atom_site_fract_y
_atom_site_fract_z
Si Si1 0.053309 0.260584 0.121317
Si Si2 0.350879 0.256864 0.215093
Si Si3 0.148829 0.253380 0.726839
Si Si4 0.148832 0.751139 0.470654
Si Si5 0.558107 0.248370 0.371881
Si Si6 0.193073 0.504986 0.944061
O O1 0.113750 0.183285 0.163838
O O2 0.106839 0.414727 0.081510
O O3 0.000000 0.500000 0.141192
O O4 0.000000 0.000000 0.107349
O O5 0.250000 0.250000 0.211768
O O6 0.377748 0.484043 0.249982
O O7 0.376652 0.985837 0.238485
O O8 0.250000 0.250000 0.723956
O O9 0.111875 0.280920 0.675302
O O10 0.121780 0.500000 0.500000
O O11 0.250000 0.750000 0.468472
O O12 0.114108 0.762646 0.418382
O O13 0.121261 0.000000 0.500000
O O14 0.500000 0.500000 0.368314
O O15 0.500000 0.000000 0.376488
O O16 0.250000 0.750000 0.933122
O O17 0.250000 0.250000 0.931683
O O18 0.178252 0.500000 0.000000
#
# Coordination Sequence:
#
# PCOD9324468 Si02
#       6
#     8   8   8   8   8   8
#     4  12  25  39  62  97 132 164 200 258 326 376
#     4  10  22  40  63  87 117 162 209 250 294 359
#     4  10  22  41  62  85 116 158 206 249 292 352
#     4  10  22  41  63  85 113 153 198 241 286 345
#     4  12  25  38  59  89 121 155 189 240 304 358
#     4  10  22  43  68  91 121 168 220 262 305 372
#
# _framework density 20.431799000000002
#
# number of rings (size 3 to 8) (size 9 to 14) (size 15 to 20)
#    0.000    1.333    0.000    5.000    0.000    8.333 
#    0.000    7.500    0.000    0.000    0.000    0.000 
#    0.000    0.000    0.000    0.000    0.000    0.000 
#
# Total GULP energy -134056.178807 kJ/mol
# GULP energy per Si atom -5585.674117 kJ/mol
# Density = 2.038529 g / cm^3
# Si number density = 20.431799 Si / 1000 Ang^3
#
#
#
# Elastic Constant Matrix: (Units=GPa)
#
#
# Indices 1 2 3 4 5 6 
#
# 1 44.9575 40.2968 43.8206 0.0000 0.0000 0.0000
# 2 40.2968 158.6924 34.1641 0.0000 0.0000 0.0000
# 3 43.8206 34.1641 94.4783 0.0000 0.0000 0.0000
# 4 0.0000 0.0000 0.0000 -27.4330 0.0000 0.0000
# 5 0.0000 0.0000 0.0000 0.0000 5.3199 0.0000
# 6 0.0000 0.0000 0.0000 0.0000 0.0000 6.0219
#
#
#
# Elastic Compliance Matrix: (Units=1/GPa)
#
#
# Indices 1 2 3 4 5 6 
#
# 1 0.048668 -0.008132 -0.019633 0.000000 0.000000 0.000000
# 2 -0.008132 0.008192 0.000809 0.000000 0.000000 0.000000
# 3 -0.019633 0.000809 0.019398 0.000000 0.000000 0.000000
# 4 0.000000 0.000000 0.000000 -0.036452 0.000000 0.000000
# 5 0.000000 0.000000 0.000000 0.000000 0.187974 0.000000
# 6 0.000000 0.000000 0.000000 0.000000 0.000000 0.166060
#
#
# Mechanical properties :
#
#
# Convention : Reuss Voigt Hill
#
# Bulk Modulus (GPa) = 44.74685 59.41012 52.07849
# Shear Modulus (GPa) = 10.98420 8.77153 9.87787
#
# Velocity S-wave (km/s) = 2.32114 2.07422 2.20115
# Velocity P-wave (km/s) = 5.39738 5.90567 5.65724
#
# Compressibility (1/GPa) = 0.02234794
#
# Stress axis : x y z
#
# Youngs Moduli (GPa) = 20.54733 122.06789 51.55241
#
# Poissons Ratio (x) = 0.99262 1.01211
# Poissons Ratio (y) = 0.16708 -0.04172
# Poissons Ratio (z) = 0.40340 -0.09879
#
# Static dielectric constant tensor:
#      x y z
#    x 1.994790 0.000000 0.000000 
#    y 0.000000 1.702620 0.000000 
#    z 0.000000 0.000000 1.688410 
# 
# From -- ./inp_files/39327.got.cif
#   From: 2010.05.17/outbox.cif.g08.bks.cpg/sg21_20_cif.got.tgz:39327.got - 2010.06.03 23:14:55.
