data_PCOD9324764
_publ_section_title
;
Structure prediction by ZEFSAII (Michael W. Deem and Ramdas Pophale) SiO2 
 PCOD9324764
Probable space group: C 2 2 2
;
_chemical_formula_sum "Si O2"
_cell_formula_units_Z 56
_cell_length_a 15.095322
_cell_length_b 16.955671
_cell_length_c 10.968012
_cell_angle_alpha 90.000000
_cell_angle_beta 90.000000
_cell_angle_gamma 90.000000
_cell_volume 2807.277078
_symmetry_space_group_name_H-M "C 2 2 2"
_symmetry_group_IT_number 21
_symmetry_cell_setting 'orthorhombic'
loop_
_space_group_symop_operation_xyz
x,y,z
-x,-y,z
x,-y,-z
-x,y,-z
1/2+x,1/2+y,z
1/2-x,1/2-y,z
1/2+x,1/2-y,-z
1/2-x,1/2+y,-z
loop_
_atom_site_type_symbol
_atom_site_label
_atom_site_fract_x
_atom_site_fract_y
_atom_site_fract_z
Si Si1 0.837022 0.803988 0.355711
Si Si2 0.442064 0.846211 0.619009
Si Si3 0.273707 0.907506 0.499754
Si Si4 0.468040 0.906828 0.135420
Si Si5 0.283179 0.158260 0.763148
Si Si6 0.591531 0.600331 0.142267
Si Si7 0.605498 0.411465 0.138979
O O1 0.750000 0.750000 0.348776
O O2 0.917901 0.746022 0.380368
O O3 0.816693 0.864439 0.463450
O O4 0.846942 0.852725 0.232630
O O5 0.500000 0.866145 0.500000
O O6 0.349793 0.892040 0.599765
O O7 0.484098 0.868025 0.748128
O O8 0.306496 0.865738 0.375778
O O9 0.259978 0.000000 0.500000
O O10 0.365012 0.877648 0.155868
O O11 0.500000 0.000000 0.142163
O O12 0.500000 0.880923 0.000000
O O13 0.250000 0.250000 0.774340
O O14 0.192815 0.113220 0.792900
O O15 0.601042 0.506061 0.146971
O O16 0.490353 0.619278 0.180232
O O17 0.610033 0.617687 0.001053
#
# Coordination Sequence:
#
# PCOD9324764 Si02
#       7
#     8   8   8   8   8   8   8
#     4  10  23  38  61  94 130 169 220 282 340 400
#     4  11  23  41  67  94 134 180 221 274 346 411
#     4  11  23  41  67  96 130 176 231 280 341 419
#     4  11  27  47  69 105 142 184 237 292 345 414
#     4  12  25  41  66 101 137 177 226 289 347 409
#     4   9  19  40  62  88 123 176 223 276 334 413
#     4   9  21  38  64  89 124 173 228 271 339 412
#
# _framework density 19.948155
#
# number of rings (size 3 to 8) (size 9 to 14) (size 15 to 20)
#    0.000    1.571    1.429    3.857    2.000    7.429 
#    0.000    0.000    0.000    2.571    0.000    0.000 
#    0.000    0.000    0.000    0.000    0.000    0.000 
#
# Total GULP energy -156021.962787 kJ/mol
# GULP energy per Si atom -5572.212957 kJ/mol
# Density = 1.990275 g / cm^3
# Si number density = 19.948155 Si / 1000 Ang^3
#
#
#
# Elastic Constant Matrix: (Units=GPa)
#
#
# Indices 1 2 3 4 5 6 
#
# 1 67.5582 26.1465 30.4097 0.0000 0.0000 0.0000
# 2 26.1465 82.2460 35.1212 0.0000 0.0000 0.0000
# 3 30.4097 35.1212 79.3619 0.0000 0.0000 0.0000
# 4 0.0000 0.0000 0.0000 32.3234 0.0000 0.0000
# 5 0.0000 0.0000 0.0000 0.0000 39.6338 0.0000
# 6 0.0000 0.0000 0.0000 0.0000 0.0000 15.1975
#
#
#
# Elastic Compliance Matrix: (Units=1/GPa)
#
#
# Indices 1 2 3 4 5 6 
#
# 1 0.018694 -0.003556 -0.005589 0.000000 0.000000 0.000000
# 2 -0.003556 0.015668 -0.005571 0.000000 0.000000 0.000000
# 3 -0.005589 -0.005571 0.017208 0.000000 0.000000 0.000000
# 4 0.000000 0.000000 0.000000 0.030937 0.000000 0.000000
# 5 0.000000 0.000000 0.000000 0.000000 0.025231 0.000000
# 6 0.000000 0.000000 0.000000 0.000000 0.000000 0.065800
#
#
# Mechanical properties :
#
#
# Convention : Reuss Voigt Hill
#
# Bulk Modulus (GPa) = 45.17415 45.83565 45.50490
# Shear Modulus (GPa) = 23.76971 26.59685 25.18328
#
# Velocity S-wave (km/s) = 3.45566 3.65540 3.55693
# Velocity P-wave (km/s) = 6.21426 6.39087 6.30318
#
# Compressibility (1/GPa) = 0.02213655
#
# Stress axis : x y z
#
# Youngs Moduli (GPa) = 53.49208 63.82336 58.11326
#
# Poissons Ratio (x) = 0.22697 0.32482
# Poissons Ratio (y) = 0.19023 0.32376
# Poissons Ratio (z) = 0.29899 0.35557
#
# Static dielectric constant tensor:
#      x y z
#    x 1.707510 0.000000 0.000000 
#    y 0.000000 1.758570 0.000000 
#    z 0.000000 0.000000 1.710340 
# 
# From -- ./inp_files/25304.got.cif
#   From: 2010.05.17/outbox.cif.g08.bks.cpg/sg21_13_cif.got.tgz:25304.got - 2010.06.03 23:14:55.
