data_PCOD9324797
_publ_section_title
;
Structure prediction by ZEFSAII (Michael W. Deem and Ramdas Pophale) SiO2 
 PCOD9324797
Probable space group: C 2 2 2
;
_chemical_formula_sum "Si O2"
_cell_formula_units_Z 34
_cell_length_a 24.890391
_cell_length_b 5.094797
_cell_length_c 12.840801
_cell_angle_alpha 90.000000
_cell_angle_beta 90.000000
_cell_angle_gamma 90.000000
_cell_volume 1628.361100
_symmetry_space_group_name_H-M "C 2 2 2"
_symmetry_group_IT_number 21
_symmetry_cell_setting 'orthorhombic'
loop_
_space_group_symop_operation_xyz
x,y,z
-x,-y,z
x,-y,-z
-x,y,-z
1/2+x,1/2+y,z
1/2-x,1/2-y,z
1/2+x,1/2-y,-z
1/2-x,1/2+y,-z
loop_
_atom_site_type_symbol
_atom_site_label
_atom_site_fract_x
_atom_site_fract_y
_atom_site_fract_z
Si Si1 0.604758 0.241088 0.431141
Si Si2 0.500000 0.000000 0.340303
Si Si3 0.750000 0.250000 0.075357
Si Si4 0.000000 0.000000 0.000000
Si Si5 0.927165 0.305263 0.839234
Si Si6 0.860126 0.802753 0.802752
O O1 0.607689 0.500000 0.500000
O O2 0.635364 0.261700 0.321366
O O3 0.625549 0.000000 0.500000
O O4 0.542806 0.171623 0.403038
O O5 0.536360 0.819904 0.264623
O O6 0.802693 0.246970 0.147271
O O7 0.750084 0.500000 0.000000
O O8 0.036047 0.189245 0.070938
O O9 0.902434 0.594597 0.852327
O O10 0.879549 0.097401 0.824749
#
# Coordination Sequence:
#
# PCOD9324797 Si02
#       6
#     8   4   4   2   8   8
#     4  11  23  39  66  96 133 181 218 265 332 391
#     4  10  23  41  58 100 142 184 221 266 315 408
#     4  12  28  50  78  98 120 180 226 282 356 392
#     4  12  24  38  64  98 130 198 220 250 348 412
#     4  11  25  40  64  94 143 178 219 279 325 391
#     4  11  26  47  65  99 137 162 234 292 324 396
#
# _framework density 20.87989
#
# number of rings (size 3 to 8) (size 9 to 14) (size 15 to 20)
#    0.000    0.941    0.000    7.412    4.941   10.824 
#    0.000    1.176    0.000    0.000    0.000    0.000 
#    0.000    0.000    0.000    0.000    0.000    0.000 
#
# Total GULP energy -95238.147586 kJ/mol
# GULP energy per Si atom -5602.243976 kJ/mol
# Density = 2.083237 g / cm^3
# Si number density = 20.879890 Si / 1000 Ang^3
#
#
#
# Elastic Constant Matrix: (Units=GPa)
#
#
# Indices 1 2 3 4 5 6 
#
# 1 106.3935 25.8420 74.9679 0.0000 0.0000 0.0000
# 2 25.8420 130.4749 58.0170 0.0000 0.0000 0.0000
# 3 74.9679 58.0170 141.3090 0.0000 0.0000 0.0000
# 4 0.0000 0.0000 0.0000 40.7137 0.0000 0.0000
# 5 0.0000 0.0000 0.0000 0.0000 27.8129 0.0000
# 6 0.0000 0.0000 0.0000 0.0000 0.0000 28.0594
#
#
#
# Elastic Compliance Matrix: (Units=1/GPa)
#
#
# Indices 1 2 3 4 5 6 
#
# 1 0.015062 0.000697 -0.008277 0.000000 0.000000 0.000000
# 2 0.000697 0.009408 -0.004233 0.000000 0.000000 0.000000
# 3 -0.008277 -0.004233 0.013206 0.000000 0.000000 0.000000
# 4 0.000000 0.000000 0.000000 0.024562 0.000000 0.000000
# 5 0.000000 0.000000 0.000000 0.000000 0.035955 0.000000
# 6 0.000000 0.000000 0.000000 0.000000 0.000000 0.035639
#
#
# Mechanical properties :
#
#
# Convention : Reuss Voigt Hill
#
# Bulk Modulus (GPa) = 71.16892 77.31456 74.24174
# Shear Modulus (GPa) = 30.83769 33.94058 32.38913
#
# Velocity S-wave (km/s) = 3.84723 4.03614 3.94282
# Velocity P-wave (km/s) = 7.34124 7.67002 7.50743
#
# Compressibility (1/GPa) = 0.01405108
#
# Stress axis : x y z
#
# Youngs Moduli (GPa) = 66.39264 106.28902 75.72527
#
# Poissons Ratio (x) = -0.07411 0.62678
# Poissons Ratio (y) = -0.04629 0.32052
# Poissons Ratio (z) = 0.54953 0.44989
#
# Static dielectric constant tensor:
#      x y z
#    x 1.711890 0.000000 0.000000 
#    y 0.000000 1.713940 0.000000 
#    z 0.000000 0.000000 1.760440 
# 
# From -- ./inp_files/27183.got.cif
#   From: 2010.05.17/outbox.cif.g08.bks.cpg/sg21_14_cif.got.tgz:27183.got - 2010.06.03 23:14:55.
