data_PCOD9324304
_publ_section_title
;
Structure prediction by ZEFSAII (Michael W. Deem and Ramdas Pophale) SiO2 
 PCOD9324304
Probable space group: C 2 2 2
;
_chemical_formula_sum "Si O2"
_cell_formula_units_Z 48
_cell_length_a 7.414850
_cell_length_b 29.713755
_cell_length_c 10.556292
_cell_angle_alpha 90.000000
_cell_angle_beta 90.000000
_cell_angle_gamma 90.000000
_cell_volume 2325.794305
_symmetry_space_group_name_H-M "C 2 2 2"
_symmetry_group_IT_number 21
_symmetry_cell_setting 'orthorhombic'
loop_
_space_group_symop_operation_xyz
x,y,z
-x,-y,z
x,-y,-z
-x,y,-z
1/2+x,1/2+y,z
1/2-x,1/2-y,z
1/2+x,1/2-y,-z
1/2-x,1/2+y,-z
loop_
_atom_site_type_symbol
_atom_site_label
_atom_site_fract_x
_atom_site_fract_y
_atom_site_fract_z
Si Si1 0.500000 0.000000 0.811209
Si Si2 0.544453 0.230685 0.761449
Si Si3 0.000000 0.425794 0.000000
Si Si4 0.663624 0.632532 0.409214
Si Si5 0.223901 0.350569 0.132561
Si Si6 0.689949 0.525708 0.376899
Si Si7 0.000000 0.209918 0.000000
Si Si8 0.500000 0.193098 0.500000
O O1 0.336959 0.980168 0.730854
O O2 0.578956 0.959687 0.896003
O O3 0.750000 0.250000 0.743442
O O4 0.560976 0.180606 0.818671
O O5 0.465313 0.260970 0.873617
O O6 0.461611 0.224384 0.622618
O O7 0.146625 0.394940 0.069087
O O8 0.500000 0.646348 0.500000
O O9 0.654135 0.642678 0.258403
O O10 0.673593 0.578223 0.411776
O O11 0.835827 0.660144 0.460903
O O12 0.331959 0.321395 0.031759
O O13 0.500000 0.500000 0.347354
O O14 0.760985 0.500000 0.500000
#
# Coordination Sequence:
#
# PCOD9324304 Si02
#       8
#     4   8   4   8   8   8   4   4
#     4  11  25  42  68  94 137 183 224 286 346 409
#     4   9  20  44  65  98 134 170 229 275 340 420
#     4  11  23  44  65  96 134 180 231 278 339 421
#     4  11  23  45  65 104 140 175 238 288 346 421
#     4  10  22  43  66  95 135 174 227 286 337 419
#     4  11  23  40  66  96 135 180 225 289 344 410
#     4  10  21  44  71  93 134 181 219 284 349 412
#     4  10  24  44  73  96 140 186 220 291 352 412
#
# _framework density 20.638110999999999
#
# number of rings (size 3 to 8) (size 9 to 14) (size 15 to 20)
#    0.000    1.667    3.333    0.750    2.333    1.333 
#   28.500    0.833    0.000    0.000    0.000    0.000 
#    0.000    0.000    0.000    0.000    0.000    0.000 
#
# Total GULP energy -133937.701873 kJ/mol
# GULP energy per Si atom -5580.737578 kJ/mol
# Density = 2.059114 g / cm^3
# Si number density = 20.638111 Si / 1000 Ang^3
#
#
#
# Elastic Constant Matrix: (Units=GPa)
#
#
# Indices 1 2 3 4 5 6 
#
# 1 74.4675 27.2763 59.5437 0.0000 0.0000 0.0000
# 2 27.2763 113.7628 70.9296 0.0000 0.0000 0.0000
# 3 59.5437 70.9296 163.2288 0.0000 0.0000 0.0000
# 4 0.0000 0.0000 0.0000 25.9234 0.0000 0.0000
# 5 0.0000 0.0000 0.0000 0.0000 38.5051 0.0000
# 6 0.0000 0.0000 0.0000 0.0000 0.0000 28.2670
#
#
#
# Elastic Compliance Matrix: (Units=1/GPa)
#
#
# Indices 1 2 3 4 5 6 
#
# 1 0.018967 -0.000321 -0.006780 0.000000 0.000000 0.000000
# 2 -0.000321 0.012062 -0.005125 0.000000 0.000000 0.000000
# 3 -0.006780 -0.005125 0.010826 0.000000 0.000000 0.000000
# 4 0.000000 0.000000 0.000000 0.038575 0.000000 0.000000
# 5 0.000000 0.000000 0.000000 0.000000 0.025971 0.000000
# 6 0.000000 0.000000 0.000000 0.000000 0.000000 0.035377
#
#
# Mechanical properties :
#
#
# Convention : Reuss Voigt Hill
#
# Bulk Modulus (GPa) = 57.45160 74.10649 65.77905
# Shear Modulus (GPa) = 29.06473 31.45306 30.25889
#
# Velocity S-wave (km/s) = 3.75681 3.90812 3.83321
# Velocity P-wave (km/s) = 6.83493 7.50667 7.17866
#
# Compressibility (1/GPa) = 0.01740596
#
# Stress axis : x y z
#
# Youngs Moduli (GPa) = 52.72307 82.90369 92.36758
#
# Poissons Ratio (x) = 0.02658 0.62621
# Poissons Ratio (y) = 0.01690 0.47334
# Poissons Ratio (z) = 0.35744 0.42484
#
# Static dielectric constant tensor:
#      x y z
#    x 1.736440 0.000000 0.000000 
#    y 0.000000 1.740450 0.000000 
#    z 0.000000 0.000000 1.681750 
# 
# From -- ./inp_files/11623.got.cif
#   From: 2010.05.17/outbox.cif.g08.bks.cpg/sg21_6_cif.got.tgz:11623.got - 2010.06.03 23:14:55.
