data_PCOD9324079
_publ_section_title
;
Structure prediction by ZEFSAII (Michael W. Deem and Ramdas Pophale) SiO2 
 PCOD9324079
Probable space group: C 2 2 2
;
_chemical_formula_sum "Si O2"
_cell_formula_units_Z 40
_cell_length_a 5.009868
_cell_length_b 15.709376
_cell_length_c 23.760856
_cell_angle_alpha 90.000000
_cell_angle_beta 90.000000
_cell_angle_gamma 90.000000
_cell_volume 1870.024516
_symmetry_space_group_name_H-M "C 2 2 2"
_symmetry_group_IT_number 21
_symmetry_cell_setting 'orthorhombic'
loop_
_space_group_symop_operation_xyz
x,y,z
-x,-y,z
x,-y,-z
-x,y,-z
1/2+x,1/2+y,z
1/2-x,1/2-y,z
1/2+x,1/2-y,-z
1/2-x,1/2+y,-z
loop_
_atom_site_type_symbol
_atom_site_label
_atom_site_fract_x
_atom_site_fract_y
_atom_site_fract_z
Si Si1 0.745746 0.352474 0.535721
Si Si2 0.924097 0.334585 0.758606
Si Si3 0.546184 0.400175 0.177519
Si Si4 0.495404 0.686531 0.062455
Si Si5 0.740455 0.057093 0.651046
O O1 0.500000 0.385287 0.500000
O O2 0.750000 0.250000 0.534916
O O3 0.707600 0.379030 0.600086
O O4 0.000000 0.381794 0.500000
O O5 0.750000 0.250000 0.740441
O O6 0.742676 0.361634 0.810185
O O7 0.874059 0.397142 0.706341
O O8 0.228220 0.351981 0.782793
O O9 0.500000 0.500000 0.189776
O O10 0.576923 0.379348 0.111982
O O11 0.250000 0.750000 0.061658
O O12 0.750000 0.750000 0.071733
O O13 0.500000 0.646533 0.000000
O O14 0.500000 0.000000 0.628939
O O15 0.000000 0.000000 0.663626
#
# Coordination Sequence:
#
# PCOD9324079 Si02
#       5
#     8   8   8   8   8
#     4  10  22  41  64  90 123 163 207 253 307 378
#     4  12  25  43  65  89 123 169 215 257 315 389
#     4  12  24  40  64  94 128 162 208 268 324 376
#     4  10  21  39  63  91 125 167 213 257 310 383
#     4  12  25  41  63  92 127 161 206 265 322 378
#
# _framework density 21.390094000000001
#
# number of rings (size 3 to 8) (size 9 to 14) (size 15 to 20)
#    0.000    0.800    0.000    9.000    0.000    2.800 
#    0.000    6.000    0.000    6.000    0.000    0.000 
#    0.000    0.000    0.000    0.000    0.000    0.000 
#
# Total GULP energy -111386.524865 kJ/mol
# GULP energy per Si atom -5569.326243 kJ/mol
# Density = 2.134141 g / cm^3
# Si number density = 21.390094 Si / 1000 Ang^3
#
#
#
# Elastic Constant Matrix: (Units=GPa)
#
#
# Indices 1 2 3 4 5 6 
#
# 1 135.1762 12.5101 19.1098 0.0000 0.0000 0.0000
# 2 12.5101 55.1687 11.4844 0.0000 0.0000 0.0000
# 3 19.1098 11.4844 138.6204 0.0000 0.0000 0.0000
# 4 0.0000 0.0000 0.0000 -342.5957 0.0000 0.0000
# 5 0.0000 0.0000 0.0000 0.0000 35.4172 0.0000
# 6 0.0000 0.0000 0.0000 0.0000 0.0000-1737.5112
#
#
#
# Elastic Compliance Matrix: (Units=1/GPa)
#
#
# Indices 1 2 3 4 5 6 
#
# 1 0.007672 -0.001546 -0.000930 0.000000 0.000000 0.000000
# 2 -0.001546 0.018756 -0.001341 0.000000 0.000000 0.000000
# 3 -0.000930 -0.001341 0.007453 0.000000 0.000000 0.000000
# 4 0.000000 0.000000 0.000000 -0.002919 0.000000 0.000000
# 5 0.000000 0.000000 0.000000 0.000000 0.028235 0.000000
# 6 0.000000 0.000000 0.000000 0.000000 0.000000 -0.000576
#
#
# Mechanical properties :
#
#
# Convention : Reuss Voigt Hill
#
# Bulk Modulus (GPa) = 38.09776 46.13044 42.11410
# Shear Modulus (GPa) = 66.66274 -389.88057 -161.60891
#
# Velocity S-wave (km/s) = 5.58864 -13.51544 -8.70156
# Velocity P-wave (km/s) = 7.71320 14.89776 9.01249
#
# Compressibility (1/GPa) = 0.02624826
#
# Stress axis : x y z
#
# Youngs Moduli (GPa) = 130.33955 53.31640 134.17108
#
# Poissons Ratio (x) = 0.08244 0.12472
# Poissons Ratio (y) = 0.20154 0.17989
# Poissons Ratio (z) = 0.12116 0.07148
#
# Static dielectric constant tensor:
#      x y z
#    x 2.078210 0.000000 0.000000 
#    y 0.000000 1.900110 0.000000 
#    z 0.000000 0.000000 2.692350 
# 
# From -- ./inp_files/38159.got.cif
#   From: 2010.05.17/outbox.cif.g08.bks.cpg/sg21_20_cif.got.tgz:38159.got - 2010.06.03 23:14:55.
