data_PCOD9324015
_publ_section_title
;
Structure prediction by ZEFSAII (Michael W. Deem and Ramdas Pophale) SiO2 
 PCOD9324015
Probable space group: C 2 2 2
;
_chemical_formula_sum "Si O2"
_cell_formula_units_Z 56
_cell_length_a 8.740327
_cell_length_b 21.800519
_cell_length_c 13.348799
_cell_angle_alpha 90.000000
_cell_angle_beta 90.000000
_cell_angle_gamma 90.000000
_cell_volume 2543.529083
_symmetry_space_group_name_H-M "C 2 2 2"
_symmetry_group_IT_number 21
_symmetry_cell_setting 'orthorhombic'
loop_
_space_group_symop_operation_xyz
x,y,z
-x,-y,z
x,-y,-z
-x,y,-z
1/2+x,1/2+y,z
1/2-x,1/2-y,z
1/2+x,1/2-y,-z
1/2-x,1/2+y,-z
loop_
_atom_site_type_symbol
_atom_site_label
_atom_site_fract_x
_atom_site_fract_y
_atom_site_fract_z
Si Si1 0.782401 0.421138 0.741231
Si Si2 0.808884 0.182788 0.120854
Si Si3 0.429459 0.230606 0.606138
Si Si4 0.113802 0.390812 0.723184
Si Si5 0.867020 0.037913 0.333207
Si Si6 0.565300 0.640577 0.386964
Si Si7 0.176473 0.814679 0.886279
O O1 0.693501 0.486246 0.743742
O O2 0.730900 0.387411 0.636244
O O3 0.735884 0.372196 0.824150
O O4 0.962918 0.427999 0.748939
O O5 0.750000 0.250000 0.155850
O O6 0.721707 0.129741 0.183481
O O7 0.992968 0.185358 0.124679
O O8 0.775283 0.177362 0.002401
O O9 0.500000 0.212463 0.500000
O O10 0.250000 0.250000 0.595069
O O11 0.437377 0.173940 0.678993
O O12 0.530703 0.289279 0.637951
O O13 0.208294 0.429501 0.639414
O O14 0.963027 0.099246 0.313161
O O15 0.000000 0.000000 0.391496
O O16 0.500000 0.632262 0.500000
O O17 0.250000 0.750000 0.852454
#
# Coordination Sequence:
#
# PCOD9324015 Si02
#       7
#     8   8   8   8   8   8   8
#     4  11  25  38  64  95 132 170 228 276 340 409
#     4  10  21  38  63  94 133 172 220 278 348 426
#     4  11  25  41  64  99 138 175 225 282 348 401
#     4  12  24  39  66  96 132 177 220 283 350 407
#     4  10  22  43  63  88 124 176 226 276 333 409
#     4  10  23  43  67  93 133 182 227 280 338 406
#     4  10  22  40  62  96 132 171 223 283 346 419
#
# _framework density 22.016655
#
# number of rings (size 3 to 8) (size 9 to 14) (size 15 to 20)
#    0.000    1.429    1.429    3.429    8.000    4.286 
#    0.000    0.714    0.000   10.286    0.000    0.000 
#    0.000    0.000    0.000    0.000    0.000    0.000 
#
# Total GULP energy -155961.721484 kJ/mol
# GULP energy per Si atom -5570.061482 kJ/mol
# Density = 2.196654 g / cm^3
# Si number density = 22.016655 Si / 1000 Ang^3
#
#
#
# Elastic Constant Matrix: (Units=GPa)
#
#
# Indices 1 2 3 4 5 6 
#
# 1 113.7550 31.4017 19.9664 0.0000 0.0000 0.0000
# 2 31.4017 129.6048 40.8540 0.0000 0.0000 0.0000
# 3 19.9664 40.8540 80.7849 0.0000 0.0000 0.0000
# 4 0.0000 0.0000 0.0000 -1.8325 0.0000 0.0000
# 5 0.0000 0.0000 0.0000 0.0000 26.4157 0.0000
# 6 0.0000 0.0000 0.0000 0.0000 0.0000 33.5982
#
#
#
# Elastic Compliance Matrix: (Units=1/GPa)
#
#
# Indices 1 2 3 4 5 6 
#
# 1 0.009555 -0.001869 -0.001417 0.000000 0.000000 0.000000
# 2 -0.001869 0.009544 -0.004365 0.000000 0.000000 0.000000
# 3 -0.001417 -0.004365 0.014936 0.000000 0.000000 0.000000
# 4 0.000000 0.000000 0.000000 -0.545706 0.000000 0.000000
# 5 0.000000 0.000000 0.000000 0.000000 0.037856 0.000000
# 6 0.000000 0.000000 0.000000 0.000000 0.000000 0.029764
#
#
# Mechanical properties :
#
#
# Convention : Reuss Voigt Hill
#
# Bulk Modulus (GPa) = 53.37470 56.50989 54.94229
# Shear Modulus (GPa) = -11.83417 27.09778 7.63181
#
# Velocity S-wave (km/s) = -2.32094 3.51206 1.86384
# Velocity P-wave (km/s) = 4.13680 6.49374 5.44435
#
# Compressibility (1/GPa) = 0.01873547
#
# Stress axis : x y z
#
# Youngs Moduli (GPa) = 104.65402 104.77340 66.95196
#
# Poissons Ratio (x) = 0.19578 0.09485
# Poissons Ratio (y) = 0.19555 0.29224
# Poissons Ratio (z) = 0.14826 0.45733
#
# Static dielectric constant tensor:
#      x y z
#    x 1.931160 0.000000 0.000000 
#    y 0.000000 1.820230 0.000000 
#    z 0.000000 0.000000 1.850620 
# 
# From -- ./inp_files/30762.got.cif
#   From: 2010.05.17/outbox.cif.g08.bks.cpg/sg21_16_cif.got.tgz:30762.got - 2010.06.03 23:14:55.
