data_PCOD9324168
_publ_section_title
;
Structure prediction by ZEFSAII (Michael W. Deem and Ramdas Pophale) SiO2 
 PCOD9324168
Probable space group: C 2 2 2
;
_chemical_formula_sum "Si O2"
_cell_formula_units_Z 40
_cell_length_a 17.105263
_cell_length_b 9.152316
_cell_length_c 12.128177
_cell_angle_alpha 90.000000
_cell_angle_beta 90.000000
_cell_angle_gamma 90.000000
_cell_volume 1898.699732
_symmetry_space_group_name_H-M "C 2 2 2"
_symmetry_group_IT_number 21
_symmetry_cell_setting 'orthorhombic'
loop_
_space_group_symop_operation_xyz
x,y,z
-x,-y,z
x,-y,-z
-x,y,-z
1/2+x,1/2+y,z
1/2-x,1/2-y,z
1/2+x,1/2-y,-z
1/2-x,1/2+y,-z
loop_
_atom_site_type_symbol
_atom_site_label
_atom_site_fract_x
_atom_site_fract_y
_atom_site_fract_z
Si Si1 0.250000 0.750000 0.348181
Si Si2 0.918252 0.918863 0.320450
Si Si3 0.682131 0.163971 0.958389
Si Si4 0.376929 0.670268 0.168361
Si Si5 0.707339 0.500000 0.500000
Si Si6 0.466284 0.157060 0.197921
O O1 0.325287 0.733969 0.269337
O O2 0.243285 0.612738 0.428732
O O3 0.851783 0.931143 0.411059
O O4 0.933943 0.750411 0.298561
O O5 0.890737 0.003154 0.207516
O O6 0.000000 0.000000 0.351518
O O7 0.750000 0.250000 0.892309
O O8 0.602836 0.143248 0.890154
O O9 0.666089 0.278336 0.058097
O O10 0.703232 0.000000 0.000000
O O11 0.461253 0.745043 0.157230
O O12 0.500000 0.000000 0.225615
#
# Coordination Sequence:
#
# PCOD9324168 Si02
#       6
#     4   8   8   8   4   8
#     4  10  22  40  64  96 134 176 226 286 344 406
#     4   9  21  40  66  94 128 177 228 280 337 409
#     4  12  26  41  64  95 138 181 226 280 341 412
#     4  10  21  41  64  90 133 179 224 271 334 405
#     4  10  21  40  66  96 133 176 226 286 350 409
#     4  11  23  41  66  99 133 179 224 279 337 400
#
# _framework density 21.067048
#
# number of rings (size 3 to 8) (size 9 to 14) (size 15 to 20)
#    0.000    1.600    3.000    0.900    2.800    1.600 
#    1.800    3.000    0.000   10.800    0.000    0.000 
#    0.000    0.000    0.000    0.000    0.000    0.000 
#
# Total GULP energy -111630.972895 kJ/mol
# GULP energy per Si atom -5581.548645 kJ/mol
# Density = 2.101910 g / cm^3
# Si number density = 21.067048 Si / 1000 Ang^3
#
#
#
# Elastic Constant Matrix: (Units=GPa)
#
#
# Indices 1 2 3 4 5 6 
#
# 1 81.3393 53.1513 4.6418 0.0000 0.0000 0.0000
# 2 53.1513 119.0179 45.4453 0.0000 0.0000 0.0000
# 3 4.6418 45.4453 41.3273 0.0000 0.0000 0.0000
# 4 0.0000 0.0000 0.0000 17.8609 0.0000 0.0000
# 5 0.0000 0.0000 0.0000 0.0000 6.7772 0.0000
# 6 0.0000 0.0000 0.0000 0.0000 0.0000 39.3460
#
#
#
# Elastic Compliance Matrix: (Units=1/GPa)
#
#
# Indices 1 2 3 4 5 6 
#
# 1 0.021105 -0.014687 0.013780 0.000000 0.000000 0.000000
# 2 -0.014687 0.024704 -0.025516 0.000000 0.000000 0.000000
# 3 0.013780 -0.025516 0.050707 0.000000 0.000000 0.000000
# 4 0.000000 0.000000 0.000000 0.055988 0.000000 0.000000
# 5 0.000000 0.000000 0.000000 0.000000 0.147553 0.000000
# 6 0.000000 0.000000 0.000000 0.000000 0.000000 0.025416
#
#
# Mechanical properties :
#
#
# Convention : Reuss Voigt Hill
#
# Bulk Modulus (GPa) = 22.89873 49.79568 36.34721
# Shear Modulus (GPa) = 12.72670 22.02657 17.37664
#
# Velocity S-wave (km/s) = 2.46052 3.23700 2.87509
# Velocity P-wave (km/s) = 4.35491 6.13669 5.32091
#
# Compressibility (1/GPa) = 0.04367055
#
# Stress axis : x y z
#
# Youngs Moduli (GPa) = 47.38261 40.47991 19.72100
#
# Poissons Ratio (x) = 0.59451 -0.27175
# Poissons Ratio (y) = 0.69589 0.50319
# Poissons Ratio (z) = -0.65291 1.03287
#
# Static dielectric constant tensor:
#      x y z
#    x 1.819010 0.000000 0.000000 
#    y 0.000000 1.774010 0.000000 
#    z 0.000000 0.000000 1.759310 
# 
# From -- ./inp_files/25849.got.cif
#   From: 2010.05.17/outbox.cif.g08.bks.cpg/sg21_13_cif.got.tgz:25849.got - 2010.06.03 23:14:55.
