data_PCOD9324762
_publ_section_title
;
Structure prediction by ZEFSAII (Michael W. Deem and Ramdas Pophale) SiO2 
 PCOD9324762
Probable space group: C 2 2 2
;
_chemical_formula_sum "Si O2"
_cell_formula_units_Z 48
_cell_length_a 18.329039
_cell_length_b 14.537771
_cell_length_c 8.450969
_cell_angle_alpha 90.000000
_cell_angle_beta 90.000000
_cell_angle_gamma 90.000000
_cell_volume 2251.873693
_symmetry_space_group_name_H-M "C 2 2 2"
_symmetry_group_IT_number 21
_symmetry_cell_setting 'orthorhombic'
loop_
_space_group_symop_operation_xyz
x,y,z
-x,-y,z
x,-y,-z
-x,y,-z
1/2+x,1/2+y,z
1/2-x,1/2-y,z
1/2+x,1/2-y,-z
1/2-x,1/2+y,-z
loop_
_atom_site_type_symbol
_atom_site_label
_atom_site_fract_x
_atom_site_fract_y
_atom_site_fract_z
Si Si1 0.530127 0.181036 0.179384
Si Si2 0.267738 0.551813 0.339330
Si Si3 0.597529 0.996521 0.679996
Si Si4 0.884304 0.290660 0.710051
Si Si5 0.677015 0.200527 0.036659
Si Si6 0.751493 0.500000 0.000000
Si Si7 0.750000 0.750000 0.528532
O O1 0.547829 0.076893 0.231850
O O2 0.471273 0.233622 0.290518
O O3 0.500000 0.181246 0.000000
O O4 0.612537 0.217398 0.161292
O O5 0.293313 0.500000 0.500000
O O6 0.180651 0.537592 0.326299
O O7 0.274244 0.659269 0.377172
O O8 0.292329 0.511454 0.167484
O O9 0.573658 0.000000 0.500000
O O10 0.603970 0.100321 0.736777
O O11 0.849157 0.254887 0.871659
O O12 0.822721 0.275494 0.576998
O O13 0.750000 0.250000 0.083188
O O14 0.699096 0.093328 0.003483
#
# Coordination Sequence:
#
# PCOD9324762 Si02
#       7
#     8   8   8   8   8   4   4
#     4  10  23  37  57  95 133 180 228 280 349 429
#     4  11  23  40  62  93 134 180 234 280 343 407
#     4  11  20  38  57  88 130 173 216 264 340 417
#     4  11  21  36  60  87 133 185 223 277 340 417
#     4  11  21  36  62  92 135 178 227 282 348 420
#     4  12  22  38  63  94 131 176 224 282 342 413
#     4  12  22  42  62  92 140 194 238 288 342 420
#
# _framework density 21.315583
#
# number of rings (size 3 to 8) (size 9 to 14) (size 15 to 20)
#    0.000    1.000    7.500    0.500    1.167    6.667 
#    0.000    0.000    0.000    0.000    0.000    5.250 
#    0.000    5.667    0.000    0.000    0.000    0.333 
#
# Total GULP energy -133688.031854 kJ/mol
# GULP energy per Si atom -5570.334661 kJ/mol
# Density = 2.126707 g / cm^3
# Si number density = 21.315583 Si / 1000 Ang^3
#
#
#
# Elastic Constant Matrix: (Units=GPa)
#
#
# Indices 1 2 3 4 5 6 
#
# 1 126.2044 36.2825 23.2839 0.0000 0.0000 0.0000
# 2 36.2825 74.4056 32.2127 0.0000 0.0000 0.0000
# 3 23.2839 32.2127 126.9642 0.0000 0.0000 0.0000
# 4 0.0000 0.0000 0.0000 21.8424 0.0000 0.0000
# 5 0.0000 0.0000 0.0000 0.0000 4.5342 0.0000
# 6 0.0000 0.0000 0.0000 0.0000 0.0000 32.8343
#
#
#
# Elastic Compliance Matrix: (Units=1/GPa)
#
#
# Indices 1 2 3 4 5 6 
#
# 1 0.009259 -0.004246 -0.000621 0.000000 0.000000 0.000000
# 2 -0.004246 0.017046 -0.003546 0.000000 0.000000 0.000000
# 3 -0.000621 -0.003546 0.008890 0.000000 0.000000 0.000000
# 4 0.000000 0.000000 0.000000 0.045783 0.000000 0.000000
# 5 0.000000 0.000000 0.000000 0.000000 0.220544 0.000000
# 6 0.000000 0.000000 0.000000 0.000000 0.000000 0.030456
#
#
# Mechanical properties :
#
#
# Convention : Reuss Voigt Hill
#
# Bulk Modulus (GPa) = 54.44114 56.79252 55.61683
# Shear Modulus (GPa) = 14.08748 27.56186 20.82467
#
# Velocity S-wave (km/s) = 2.57359 3.59978 3.12904
# Velocity P-wave (km/s) = 5.86746 6.63170 6.26125
#
# Compressibility (1/GPa) = 0.01836846
#
# Stress axis : x y z
#
# Youngs Moduli (GPa) = 108.00400 58.66606 112.48931
#
# Poissons Ratio (x) = 0.24911 0.06982
# Poissons Ratio (y) = 0.45861 0.39889
# Poissons Ratio (z) = 0.06703 0.20803
#
# Static dielectric constant tensor:
#      x y z
#    x 1.877230 0.000000 0.000000 
#    y 0.000000 1.760700 0.000000 
#    z 0.000000 0.000000 1.885210 
# 
# From -- ./inp_files/16450.got.cif
#   From: 2010.05.17/outbox.cif.g08.bks.cpg/sg21_9_cif.got.tgz:16450.got - 2010.06.03 23:14:55.
