data_PCOD9324332
_publ_section_title
;
Structure prediction by ZEFSAII (Michael W. Deem and Ramdas Pophale) SiO2 
 PCOD9324332
Probable space group: C 2 2 2
;
_chemical_formula_sum "Si O2"
_cell_formula_units_Z 30
_cell_length_a 6.776260
_cell_length_b 20.780241
_cell_length_c 10.666767
_cell_angle_alpha 90.000000
_cell_angle_beta 90.000000
_cell_angle_gamma 90.000000
_cell_volume 1502.012164
_symmetry_space_group_name_H-M "C 2 2 2"
_symmetry_group_IT_number 21
_symmetry_cell_setting 'orthorhombic'
loop_
_space_group_symop_operation_xyz
x,y,z
-x,-y,z
x,-y,-z
-x,y,-z
1/2+x,1/2+y,z
1/2-x,1/2-y,z
1/2+x,1/2-y,-z
1/2-x,1/2+y,-z
loop_
_atom_site_type_symbol
_atom_site_label
_atom_site_fract_x
_atom_site_fract_y
_atom_site_fract_z
Si Si1 0.516750 0.075352 0.149367
Si Si2 0.000000 0.000000 0.500000
Si Si3 0.242680 0.184192 0.268524
Si Si4 0.662413 0.612910 0.665192
Si Si5 0.500000 0.177788 0.500000
O O1 0.350246 0.122124 0.207559
O O2 0.724031 0.100247 0.205027
O O3 0.500000 0.000000 0.187072
O O4 0.500000 0.078634 0.000000
O O5 0.888522 0.953113 0.595208
O O6 0.250000 0.250000 0.186572
O O7 0.388813 0.206817 0.381349
O O8 0.030180 0.157033 0.312743
O O9 0.820446 0.642401 0.569197
#
# Coordination Sequence:
#
# PCOD9324332 Si02
#       5
#     8   2   8   8   4
#     4  10  24  46  68  95 131 175 225 281 335 396
#     4  12  20  36  68 106 136 172 222 272 340 404
#     4  11  24  42  65  97 132 178 220 272 338 401
#     4  11  23  39  62  99 133 172 217 271 330 398
#     4  10  22  36  58  92 137 167 206 262 330 404
#
# _framework density 19.973205
#
# number of rings (size 3 to 8) (size 9 to 14) (size 15 to 20)
#    0.000    1.333    2.667    1.600    7.467    4.267 
#    4.800    2.667    0.000    0.000    0.000    0.000 
#    0.000    0.000    0.000    0.000    0.000    0.000 
#
# Total GULP energy -83501.242049 kJ/mol
# GULP energy per Si atom -5566.749470 kJ/mol
# Density = 1.992775 g / cm^3
# Si number density = 19.973205 Si / 1000 Ang^3
#
#
#
# Elastic Constant Matrix: (Units=GPa)
#
#
# Indices 1 2 3 4 5 6 
#
# 1 152.7653 80.0844 34.9995 0.0000 0.0000 0.0000
# 2 80.0844 151.3790 32.2352 0.0000 0.0000 0.0000
# 3 34.9995 32.2352 71.3678 0.0000 0.0000 0.0000
# 4 0.0000 0.0000 0.0000 23.1947 0.0000 0.0000
# 5 0.0000 0.0000 0.0000 0.0000 17.1966 0.0000
# 6 0.0000 0.0000 0.0000 0.0000 0.0000 24.7573
#
#
#
# Elastic Compliance Matrix: (Units=1/GPa)
#
#
# Indices 1 2 3 4 5 6 
#
# 1 0.009487 -0.004457 -0.002640 0.000000 0.000000 0.000000
# 2 -0.004457 0.009403 -0.002061 0.000000 0.000000 0.000000
# 3 -0.002640 -0.002061 0.016237 0.000000 0.000000 0.000000
# 4 0.000000 0.000000 0.000000 0.043113 0.000000 0.000000
# 5 0.000000 0.000000 0.000000 0.000000 0.058151 0.000000
# 6 0.000000 0.000000 0.000000 0.000000 0.000000 0.040392
#
#
# Mechanical properties :
#
#
# Convention : Reuss Voigt Hill
#
# Bulk Modulus (GPa) = 59.48183 74.46114 66.97148
# Shear Modulus (GPa) = 24.91239 28.24258 26.57749
#
# Velocity S-wave (km/s) = 3.53553 3.76443 3.65177
# Velocity P-wave (km/s) = 6.81998 7.50040 7.16827
#
# Compressibility (1/GPa) = 0.01681186
#
# Stress axis : x y z
#
# Youngs Moduli (GPa) = 105.40520 106.35188 61.58623
#
# Poissons Ratio (x) = 0.47401 0.16256
# Poissons Ratio (y) = 0.46979 0.12695
# Poissons Ratio (z) = 0.27822 0.21922
#
# Static dielectric constant tensor:
#      x y z
#    x 1.659860 0.000000 0.000000 
#    y 0.000000 1.974350 0.000000 
#    z 0.000000 0.000000 1.747250 
# 
# From -- ./inp_files/20569.got.cif
#   From: 2010.05.17/outbox.cif.g08.bks.cpg/sg21_11_cif.got.tgz:20569.got - 2010.06.03 23:14:55.
