data_PCOD9324876
_publ_section_title
;
Structure prediction by ZEFSAII (Michael W. Deem and Ramdas Pophale) SiO2 
 PCOD9324876
Probable space group: C 2 2 2
;
_chemical_formula_sum "Si O2"
_cell_formula_units_Z 26
_cell_length_a 30.972396
_cell_length_b 7.314206
_cell_length_c 5.026790
_cell_angle_alpha 90.000000
_cell_angle_beta 90.000000
_cell_angle_gamma 90.000000
_cell_volume 1138.761389
_symmetry_space_group_name_H-M "C 2 2 2"
_symmetry_group_IT_number 21
_symmetry_cell_setting 'orthorhombic'
loop_
_space_group_symop_operation_xyz
x,y,z
-x,-y,z
x,-y,-z
-x,y,-z
1/2+x,1/2+y,z
1/2-x,1/2-y,z
1/2+x,1/2-y,-z
1/2-x,1/2+y,-z
loop_
_atom_site_type_symbol
_atom_site_label
_atom_site_fract_x
_atom_site_fract_y
_atom_site_fract_z
Si Si1 0.500000 0.000000 0.500000
Si Si2 0.126151 0.782276 0.994218
Si Si3 0.927874 0.220430 0.490286
Si Si4 0.212844 0.613795 0.757283
O O1 0.533679 0.150675 0.385196
O O2 0.111640 0.738340 0.291951
O O3 0.087956 0.732678 0.787358
O O4 0.170449 0.700791 0.888992
O O5 0.130563 0.000000 0.000000
O O6 0.937498 0.000000 0.500000
O O7 0.200018 0.500000 0.500000
O O8 0.250000 0.750000 0.664262
O O9 0.233287 0.500000 0.000000
#
# Coordination Sequence:
#
# PCOD9324876 Si02
#       4
#     2   8   8   8
#     4  12  26  42  72 100 144 182 250 286 360 424
#     4  10  23  45  69  96 138 180 230 289 355 412
#     4  10  24  43  67 100 137 185 232 294 354 418
#     4  12  26  43  70 104 140 184 235 292 349 427
#
# _framework density 22.831824000000001
#
# number of rings (size 3 to 8) (size 9 to 14) (size 15 to 20)
#    0.000    1.231    0.000    4.154    6.462    6.154 
#    0.000    4.615    0.000    0.000    0.000    0.000 
#    0.000    0.000    0.000    0.000    0.000    0.000 
#
# Total GULP energy -72575.113629 kJ/mol
# GULP energy per Si atom -5582.701048 kJ/mol
# Density = 2.277986 g / cm^3
# Si number density = 22.831824 Si / 1000 Ang^3
#
#
#
# Elastic Constant Matrix: (Units=GPa)
#
#
# Indices 1 2 3 4 5 6 
#
# 1 108.9035 59.8334 14.0255 0.0000 0.0000 0.0000
# 2 59.8334 101.3897 36.3804 0.0000 0.0000 0.0000
# 3 14.0255 36.3804 116.8652 0.0000 0.0000 0.0000
# 4 0.0000 0.0000 0.0000 26.4206 0.0000 0.0000
# 5 0.0000 0.0000 0.0000 0.0000 -101.6762 0.0000
# 6 0.0000 0.0000 0.0000 0.0000 0.0000 13.2745
#
#
#
# Elastic Compliance Matrix: (Units=1/GPa)
#
#
# Indices 1 2 3 4 5 6 
#
# 1 0.013687 -0.008430 0.000981 0.000000 0.000000 0.000000
# 2 -0.008430 0.016295 -0.004061 0.000000 0.000000 0.000000
# 3 0.000981 -0.004061 0.009703 0.000000 0.000000 0.000000
# 4 0.000000 0.000000 0.000000 0.037849 0.000000 0.000000
# 5 0.000000 0.000000 0.000000 0.000000 -0.009835 0.000000
# 6 0.000000 0.000000 0.000000 0.000000 0.000000 0.075332
#
#
# Mechanical properties :
#
#
# Convention : Reuss Voigt Hill
#
# Bulk Modulus (GPa) = 59.99779 60.84858 60.42319
# Shear Modulus (GPa) = 29.13666 2.06505 15.60086
#
# Velocity S-wave (km/s) = 3.57619 0.95206 2.61683
# Velocity P-wave (km/s) = 6.58691 5.28367 5.97095
#
# Compressibility (1/GPa) = 0.01666728
#
# Stress axis : x y z
#
# Youngs Moduli (GPa) = 73.06005 61.37006 103.05832
#
# Poissons Ratio (x) = 0.51732 -0.10115
# Poissons Ratio (y) = 0.61586 0.41851
# Poissons Ratio (z) = -0.07170 0.24922
#
# Static dielectric constant tensor:
#      x y z
#    x 1.822760 0.000000 0.000000 
#    y 0.000000 1.953140 0.000000 
#    z 0.000000 0.000000 1.780900 
# 
# From -- ./inp_files/7060.got.cif
#   From: 2010.05.17/outbox.cif.g08.bks.cpg/sg21_4_cif.got.tgz:7060.got - 2010.06.03 23:14:55.
