data_PCOD9324622
_publ_section_title
;
Structure prediction by ZEFSAII (Michael W. Deem and Ramdas Pophale) SiO2 
 PCOD9324622
Probable space group: C 2 2 2
;
_chemical_formula_sum "Si O2"
_cell_formula_units_Z 38
_cell_length_a 15.886104
_cell_length_b 20.560598
_cell_length_c 5.193102
_cell_angle_alpha 90.000000
_cell_angle_beta 90.000000
_cell_angle_gamma 90.000000
_cell_volume 1696.211472
_symmetry_space_group_name_H-M "C 2 2 2"
_symmetry_group_IT_number 21
_symmetry_cell_setting 'orthorhombic'
loop_
_space_group_symop_operation_xyz
x,y,z
-x,-y,z
x,-y,-z
-x,y,-z
1/2+x,1/2+y,z
1/2-x,1/2-y,z
1/2+x,1/2-y,-z
1/2-x,1/2+y,-z
loop_
_atom_site_type_symbol
_atom_site_label
_atom_site_fract_x
_atom_site_fract_y
_atom_site_fract_z
Si Si1 0.942929 0.736723 0.755026
Si Si2 0.589722 0.099958 0.370724
Si Si3 0.500000 0.000000 0.000000
Si Si4 0.252585 0.412171 0.323585
Si Si5 0.143980 0.000000 0.000000
Si Si6 0.158630 0.132680 0.839231
O O1 0.885948 0.672644 0.717252
O O2 0.891768 0.801116 0.826240
O O3 0.000000 0.749320 0.500000
O O4 0.000000 0.720374 0.000000
O O5 0.500000 0.111342 0.500000
O O6 0.658326 0.079109 0.579155
O O7 0.563507 0.046321 0.161591
O O8 0.302499 0.380783 0.560545
O O9 0.294445 0.479482 0.232095
O O10 0.270788 0.369752 0.065546
O O11 0.103030 0.068097 0.916677
#
# Coordination Sequence:
#
# PCOD9324622 Si02
#       6
#     8   8   2   8   4   8
#     4  11  24  47  74 101 146 188 237 303 360 426
#     4  11  27  45  67 105 141 194 239 297 356 428
#     4  12  26  46  72  98 154 180 258 282 366 442
#     4  10  23  42  71 100 140 184 234 292 350 420
#     4   8  22  41  73  97 149 174 234 294 353 426
#     4  10  22  42  73 101 139 184 234 288 363 417
#
# _framework density 22.402868000000002
#
# number of rings (size 3 to 8) (size 9 to 14) (size 15 to 20)
#    1.263    0.421    1.053    2.211    2.947    5.895 
#    0.000    2.632    0.000    0.000    0.000    0.000 
#    0.000    0.000    0.000    0.000    0.000    0.000 
#
# Total GULP energy -105956.065581 kJ/mol
# GULP energy per Si atom -5576.635031 kJ/mol
# Density = 2.235188 g / cm^3
# Si number density = 22.402868 Si / 1000 Ang^3
#
#
#
# Elastic Constant Matrix: (Units=GPa)
#
#
# Indices 1 2 3 4 5 6 
#
# 1 41.2237 33.5725 25.8585 0.0000 0.0000 0.0000
# 2 33.5725 183.6187 42.5270 0.0000 0.0000 0.0000
# 3 25.8585 42.5270 151.9869 0.0000 0.0000 0.0000
# 4 0.0000 0.0000 0.0000 165.2787 0.0000 0.0000
# 5 0.0000 0.0000 0.0000 0.0000 25.2402 0.0000
# 6 0.0000 0.0000 0.0000 0.0000 0.0000 8.2100
#
#
#
# Elastic Compliance Matrix: (Units=1/GPa)
#
#
# Indices 1 2 3 4 5 6 
#
# 1 0.030502 -0.004678 -0.003881 0.000000 0.000000 0.000000
# 2 -0.004678 0.006541 -0.001034 0.000000 0.000000 0.000000
# 3 -0.003881 -0.001034 0.007529 0.000000 0.000000 0.000000
# 4 0.000000 0.000000 0.000000 0.006050 0.000000 0.000000
# 5 0.000000 0.000000 0.000000 0.000000 0.039619 0.000000
# 6 0.000000 0.000000 0.000000 0.000000 0.000000 0.121803
#
#
# Mechanical properties :
#
#
# Convention : Reuss Voigt Hill
#
# Bulk Modulus (GPa) = 39.39162 64.52725 51.95943
# Shear Modulus (GPa) = 20.86007 58.07052 39.46530
#
# Velocity S-wave (km/s) = 3.05476 5.09679 4.20172
# Velocity P-wave (km/s) = 5.48302 7.96882 6.83979
#
# Compressibility (1/GPa) = 0.02538611
#
# Stress axis : x y z
#
# Youngs Moduli (GPa) = 32.78482 152.88276 132.81750
#
# Poissons Ratio (x) = 0.71521 0.51540
# Poissons Ratio (y) = 0.15337 0.13737
# Poissons Ratio (z) = 0.12722 0.15812
#
# Static dielectric constant tensor:
#      x y z
#    x 1.735470 0.000000 0.000000 
#    y 0.000000 1.922670 0.000000 
#    z 0.000000 0.000000 1.838590 
# 
# From -- ./inp_files/4846.got.cif
#   From: 2010.05.17/outbox.cif.g08.bks.cpg/sg21_3_cif.got.tgz:4846.got - 2010.06.03 23:14:55.
