data_PCOD9324832
_publ_section_title
;
Structure prediction by ZEFSAII (Michael W. Deem and Ramdas Pophale) SiO2 
 PCOD9324832
Probable space group: C 2 2 2
;
_chemical_formula_sum "Si O2"
_cell_formula_units_Z 48
_cell_length_a 8.458003
_cell_length_b 14.502559
_cell_length_c 18.416566
_cell_angle_alpha 90.000000
_cell_angle_beta 90.000000
_cell_angle_gamma 90.000000
_cell_volume 2259.025481
_symmetry_space_group_name_H-M "C 2 2 2"
_symmetry_group_IT_number 21
_symmetry_cell_setting 'orthorhombic'
loop_
_space_group_symop_operation_xyz
x,y,z
-x,-y,z
x,-y,-z
-x,y,-z
1/2+x,1/2+y,z
1/2-x,1/2-y,z
1/2+x,1/2-y,-z
1/2-x,1/2+y,-z
loop_
_atom_site_type_symbol
_atom_site_label
_atom_site_fract_x
_atom_site_fract_y
_atom_site_fract_z
Si Si1 0.626418 0.180133 0.835843
Si Si2 0.611518 0.678360 0.851573
Si Si3 0.440541 0.254319 0.581626
Si Si4 0.948474 0.396989 0.304320
Si Si5 0.193137 0.499323 0.914362
Si Si6 0.069014 0.899141 0.300124
O O1 0.750000 0.250000 0.801786
O O2 0.516346 0.248393 0.886262
O O3 0.522437 0.135830 0.771870
O O4 0.721823 0.098307 0.876652
O O5 0.750000 0.750000 0.833940
O O6 0.700147 0.586986 0.884896
O O7 0.531200 0.645368 0.777322
O O8 0.500000 0.256421 0.500000
O O9 0.250000 0.250000 0.579820
O O10 0.497800 0.167997 0.629375
O O11 0.487157 0.341687 0.630595
O O12 0.759301 0.396912 0.299970
O O13 0.000000 0.500000 0.317894
O O14 0.000000 0.500000 0.904909
O O15 0.223538 0.500000 0.000000
O O16 0.000000 0.000000 0.302770
#
# Coordination Sequence:
#
# PCOD9324832 Si02
#       6
#     8   8   8   8   8   8
#     4  12  26  43  70 105 137 185 245 286 352 436
#     4  12  22  44  73  96 138 184 231 296 350 414
#     4  10  23  43  63  94 138 178 223 280 343 414
#     4  11  23  41  66  97 133 175 228 285 343 407
#     4  11  25  46  69 102 143 186 237 304 368 427
#     4  11  23  40  68  98 130 177 227 283 348 410
#
# _framework density 21.248100999999998
#
# number of rings (size 3 to 8) (size 9 to 14) (size 15 to 20)
#    0.000    0.833    5.000    2.000    4.667    3.333 
#    0.000    4.167    0.000    0.000    0.000    0.000 
#    0.000    0.000    0.000    0.000    0.000    0.000 
#
# Total GULP energy -133855.224928 kJ/mol
# GULP energy per Si atom -5577.301039 kJ/mol
# Density = 2.119974 g / cm^3
# Si number density = 21.248101 Si / 1000 Ang^3
#
#
#
# Elastic Constant Matrix: (Units=GPa)
#
#
# Indices 1 2 3 4 5 6 
#
# 1 47.0172 53.6493 35.5095 0.0000 0.0000 0.0000
# 2 53.6493 198.5612 83.6310 0.0000 0.0000 0.0000
# 3 35.5095 83.6310 144.1568 0.0000 0.0000 0.0000
# 4 0.0000 0.0000 0.0000 26.8202 0.0000 0.0000
# 5 0.0000 0.0000 0.0000 0.0000 23.7763 0.0000
# 6 0.0000 0.0000 0.0000 0.0000 0.0000 54.9497
#
#
#
# Elastic Compliance Matrix: (Units=1/GPa)
#
#
# Indices 1 2 3 4 5 6 
#
# 1 0.032268 -0.007107 -0.003825 0.000000 0.000000 0.000000
# 2 -0.007107 0.008230 -0.003024 0.000000 0.000000 0.000000
# 3 -0.003825 -0.003024 0.009633 0.000000 0.000000 0.000000
# 4 0.000000 0.000000 0.000000 0.037285 0.000000 0.000000
# 5 0.000000 0.000000 0.000000 0.000000 0.042059 0.000000
# 6 0.000000 0.000000 0.000000 0.000000 0.000000 0.018198
#
#
# Mechanical properties :
#
#
# Convention : Reuss Voigt Hill
#
# Bulk Modulus (GPa) = 45.00761 81.70165 63.35463
# Shear Modulus (GPa) = 27.32351 35.57225 31.44788
#
# Velocity S-wave (km/s) = 3.58987 4.09606 3.85129
# Velocity P-wave (km/s) = 6.19765 7.80417 7.04684
#
# Compressibility (1/GPa) = 0.02221846
#
# Stress axis : x y z
#
# Youngs Moduli (GPa) = 30.99089 121.50387 103.80521
#
# Poissons Ratio (x) = 0.86356 0.39707
# Poissons Ratio (y) = 0.22026 0.31390
# Poissons Ratio (z) = 0.11854 0.36742
#
# Static dielectric constant tensor:
#      x y z
#    x 1.767280 0.000000 0.000000 
#    y 0.000000 1.822650 0.000000 
#    z 0.000000 0.000000 1.727500 
# 
# From -- ./inp_files/35696.got.cif
#   From: 2010.05.17/outbox.cif.g08.bks.cpg/sg21_18_cif.got.tgz:35696.got - 2010.06.03 23:14:55.
