data_PCOD9324244
_publ_section_title
;
Structure prediction by ZEFSAII (Michael W. Deem and Ramdas Pophale) SiO2 
 PCOD9324244
Probable space group: C 2 2 2
;
_chemical_formula_sum "Si O2"
_cell_formula_units_Z 46
_cell_length_a 12.103589
_cell_length_b 24.818065
_cell_length_c 7.433098
_cell_angle_alpha 90.000000
_cell_angle_beta 90.000000
_cell_angle_gamma 90.000000
_cell_volume 2232.810904
_symmetry_space_group_name_H-M "C 2 2 2"
_symmetry_group_IT_number 21
_symmetry_cell_setting 'orthorhombic'
loop_
_space_group_symop_operation_xyz
x,y,z
-x,-y,z
x,-y,-z
-x,y,-z
1/2+x,1/2+y,z
1/2-x,1/2-y,z
1/2+x,1/2-y,-z
1/2-x,1/2+y,-z
loop_
_atom_site_type_symbol
_atom_site_label
_atom_site_fract_x
_atom_site_fract_y
_atom_site_fract_z
Si Si1 0.246113 0.621477 0.848546
Si Si2 0.500000 0.143172 0.500000
Si Si3 0.653291 0.584028 0.805179
Si Si4 0.362812 0.777562 0.747697
Si Si5 0.500000 0.500000 0.000000
Si Si6 0.023453 0.829792 0.714596
Si Si7 0.825633 0.437364 0.493064
O O1 0.184255 0.678388 0.886897
O O2 0.367049 0.635943 0.765149
O O3 0.189110 0.585549 0.695043
O O4 0.260411 0.590870 0.033822
O O5 0.576721 0.183677 0.609147
O O6 0.582796 0.101483 0.402621
O O7 0.572802 0.537134 0.870740
O O8 0.581544 0.638797 0.792588
O O9 0.713561 0.570456 0.619955
O O10 0.250000 0.750000 0.673136
O O11 0.446428 0.729314 0.790721
O O12 0.000000 0.825195 0.500000
O O13 0.855155 0.500000 0.500000
#
# Coordination Sequence:
#
# PCOD9324244 Si02
#       7
#     8   4   8   8   2   8   8
#     4  10  21  42  59  94 133 163 213 270 321 397
#     4  10  21  42  64  96 128 167 224 270 320 398
#     4  12  24  40  66  97 130 173 215 270 341 393
#     4   9  20  37  67  90 130 167 205 273 326 385
#     4  12  24  40  66  92 142 162 216 292 328 390
#     4  11  19  37  65  96 128 170 211 265 332 397
#     4  11  24  41  65  92 128 176 224 269 327 392
#
# _framework density 20.601835000000001
#
# number of rings (size 3 to 8) (size 9 to 14) (size 15 to 20)
#    0.000    1.391    4.348    1.304    0.000    0.000 
#    0.000   12.174    0.000    4.174    0.000    0.000 
#    0.000    0.000    0.000    0.000    0.000    0.000 
#
# Total GULP energy -128251.731110 kJ/mol
# GULP energy per Si atom -5576.162222 kJ/mol
# Density = 2.055494 g / cm^3
# Si number density = 20.601835 Si / 1000 Ang^3
#
#
#
# Elastic Constant Matrix: (Units=GPa)
#
#
# Indices 1 2 3 4 5 6 
#
# 1 59.9989 51.4564 8.4585 0.0000 0.0000 0.0000
# 2 51.4564 148.4768 30.8858 0.0000 0.0000 0.0000
# 3 8.4585 30.8858 67.1693 0.0000 0.0000 0.0000
# 4 0.0000 0.0000 0.0000 11.2534 0.0000 0.0000
# 5 0.0000 0.0000 0.0000 0.0000 8.2147 0.0000
# 6 0.0000 0.0000 0.0000 0.0000 0.0000 32.4101
#
#
#
# Elastic Compliance Matrix: (Units=1/GPa)
#
#
# Indices 1 2 3 4 5 6 
#
# 1 0.023763 -0.008418 0.000878 0.000000 0.000000 0.000000
# 2 -0.008418 0.010429 -0.003736 0.000000 0.000000 0.000000
# 3 0.000878 -0.003736 0.016495 0.000000 0.000000 0.000000
# 4 0.000000 0.000000 0.000000 0.088862 0.000000 0.000000
# 5 0.000000 0.000000 0.000000 0.000000 0.121733 0.000000
# 6 0.000000 0.000000 0.000000 0.000000 0.000000 0.030855
#
#
# Mechanical properties :
#
#
# Convention : Reuss Voigt Hill
#
# Bulk Modulus (GPa) = 35.54101 50.80517 43.17309
# Shear Modulus (GPa) = 15.42896 22.69859 19.06378
#
# Velocity S-wave (km/s) = 2.73959 3.32290 3.04525
# Velocity P-wave (km/s) = 5.22456 6.27983 5.77634
#
# Compressibility (1/GPa) = 0.02813651
#
# Stress axis : x y z
#
# Youngs Moduli (GPa) = 42.08304 95.88219 60.62495
#
# Poissons Ratio (x) = 0.80713 -0.05325
# Poissons Ratio (y) = 0.35425 0.22647
# Poissons Ratio (z) = -0.03696 0.35818
#
# Static dielectric constant tensor:
#      x y z
#    x 1.787470 0.000000 0.000000 
#    y 0.000000 1.740780 0.000000 
#    z 0.000000 0.000000 1.727820 
# 
# From -- ./inp_files/13481.got.cif
#   From: 2010.05.17/outbox.cif.g08.bks.cpg/sg21_7_cif.got.tgz:13481.got - 2010.06.03 23:14:55.
