data_PCOD9324233
_publ_section_title
;
Structure prediction by ZEFSAII (Michael W. Deem and Ramdas Pophale) SiO2 
 PCOD9324233
Probable space group: C 2 2 2
;
_chemical_formula_sum "Si O2"
_cell_formula_units_Z 20
_cell_length_a 4.972451
_cell_length_b 13.729158
_cell_length_c 13.309728
_cell_angle_alpha 90.000000
_cell_angle_beta 90.000000
_cell_angle_gamma 90.000000
_cell_volume 908.622727
_symmetry_space_group_name_H-M "C 2 2 2"
_symmetry_group_IT_number 21
_symmetry_cell_setting 'orthorhombic'
loop_
_space_group_symop_operation_xyz
x,y,z
-x,-y,z
x,-y,-z
-x,y,-z
1/2+x,1/2+y,z
1/2-x,1/2-y,z
1/2+x,1/2-y,-z
1/2-x,1/2+y,-z
loop_
_atom_site_type_symbol
_atom_site_label
_atom_site_fract_x
_atom_site_fract_y
_atom_site_fract_z
Si Si1 0.768467 0.437451 0.796635
Si Si2 0.498040 0.177499 0.388682
Si Si3 0.250000 0.750000 0.929297
O O1 0.500000 0.500000 0.774584
O O2 0.927957 0.397115 0.699007
O O3 0.686588 0.342924 0.860155
O O4 0.000000 0.500000 0.851886
O O5 0.500000 0.131039 0.500000
O O6 0.250000 0.250000 0.392743
O O7 0.750000 0.250000 0.370045
O O8 0.500000 0.772978 0.000000
#
# Coordination Sequence:
#
# PCOD9324233 Si02
#       3
#     8   8   4
#     4  12  26  44  74 105 141 182 236 292 353 423
#     4  10  21  41  70 101 142 192 234 278 343 421
#     4  12  28  48  74 100 138 184 234 300 362 414
#
# _framework density 22.011336
#
# number of rings (size 3 to 8) (size 9 to 14) (size 15 to 20)
#    0.000    0.800    2.000    4.800    2.800    5.600 
#    0.000    2.000    0.000    0.000    0.000    0.000 
#    0.000    0.000    0.000    0.000    0.000    0.000 
#
# Total GULP energy -55893.590989 kJ/mol
# GULP energy per Si atom -5589.359099 kJ/mol
# Density = 2.196124 g / cm^3
# Si number density = 22.011336 Si / 1000 Ang^3
#
#
#
# Elastic Constant Matrix: (Units=GPa)
#
#
# Indices 1 2 3 4 5 6 
#
# 1 165.2028 39.9075 34.0874 0.0000 0.0000 0.0000
# 2 39.9075 121.9055 61.2383 0.0000 0.0000 0.0000
# 3 34.0874 61.2383 107.6443 0.0000 0.0000 0.0000
# 4 0.0000 0.0000 0.0000 -8.5505 0.0000 0.0000
# 5 0.0000 0.0000 0.0000 0.0000 25.8850 0.0000
# 6 0.0000 0.0000 0.0000 0.0000 0.0000 37.5052
#
#
#
# Elastic Compliance Matrix: (Units=1/GPa)
#
#
# Indices 1 2 3 4 5 6 
#
# 1 0.006686 -0.001575 -0.001221 0.000000 0.000000 0.000000
# 2 -0.001575 0.011857 -0.006246 0.000000 0.000000 0.000000
# 3 -0.001221 -0.006246 0.013230 0.000000 0.000000 0.000000
# 4 0.000000 0.000000 0.000000 -0.116952 0.000000 0.000000
# 5 0.000000 0.000000 0.000000 0.000000 0.038632 0.000000
# 6 0.000000 0.000000 0.000000 0.000000 0.000000 0.026663
#
#
# Mechanical properties :
#
#
# Convention : Reuss Voigt Hill
#
# Bulk Modulus (GPa) = 73.06150 73.91319 73.48734
# Shear Modulus (GPa) = 1809.93914 28.26924 919.10419
#
# Velocity S-wave (km/s) = 28.70646 3.58761 20.45644
# Velocity P-wave (km/s) = 33.64540 7.12837 24.31899
#
# Compressibility (1/GPa) = 0.01368710
#
# Stress axis : x y z
#
# Youngs Moduli (GPa) = 149.57449 84.34163 75.58601
#
# Poissons Ratio (x) = 0.13286 0.09229
# Poissons Ratio (y) = 0.23563 0.47213
# Poissons Ratio (z) = 0.18262 0.52682
#
# Static dielectric constant tensor:
#      x y z
#    x 1.772080 0.000000 0.000000 
#    y 0.000000 1.825270 0.000000 
#    z 0.000000 0.000000 1.912640 
# 
# From -- ./inp_files/20097.got.cif
#   From: 2010.05.17/outbox.cif.g08.bks.cpg/sg21_11_cif.got.tgz:20097.got - 2010.06.03 23:14:55.
