data_PCOD9324397
_publ_section_title
;
Structure prediction by ZEFSAII (Michael W. Deem and Ramdas Pophale) SiO2 
 PCOD9324397
Probable space group: C 2 2 2
;
_chemical_formula_sum "Si O2"
_cell_formula_units_Z 60
_cell_length_a 24.331339
_cell_length_b 21.093317
_cell_length_c 5.203008
_cell_angle_alpha 90.000000
_cell_angle_beta 90.000000
_cell_angle_gamma 90.000000
_cell_volume 2670.332754
_symmetry_space_group_name_H-M "C 2 2 2"
_symmetry_group_IT_number 21
_symmetry_cell_setting 'orthorhombic'
loop_
_space_group_symop_operation_xyz
x,y,z
-x,-y,z
x,-y,-z
-x,y,-z
1/2+x,1/2+y,z
1/2-x,1/2-y,z
1/2+x,1/2-y,-z
1/2-x,1/2+y,-z
loop_
_atom_site_type_symbol
_atom_site_label
_atom_site_fract_x
_atom_site_fract_y
_atom_site_fract_z
Si Si1 0.168487 0.912369 0.366606
Si Si2 0.938644 0.155079 0.438108
Si Si3 0.369867 0.925679 0.469948
Si Si4 0.208249 0.211215 0.931581
Si Si5 0.562872 0.884932 0.033885
Si Si6 0.264722 0.882122 0.729429
Si Si7 0.732635 0.500000 0.000000
Si Si8 0.587735 0.738083 0.060390
O O1 0.104613 0.902749 0.424141
O O2 0.184148 0.851896 0.193607
O O3 0.206094 0.900422 0.610788
O O4 0.191944 0.972762 0.218524
O O5 0.921561 0.202648 0.669288
O O6 0.000000 0.133767 0.500000
O O7 0.935664 0.194776 0.171978
O O8 0.398994 0.908107 0.202368
O O9 0.314106 0.886192 0.528089
O O10 0.356124 0.000000 0.500000
O O11 0.411661 0.909074 0.700056
O O12 0.250000 0.250000 0.750014
O O13 0.252344 0.184019 0.136345
O O14 0.153165 0.244992 0.021129
O O15 0.500000 0.906570 0.000000
O O16 0.563544 0.808333 0.046870
O O17 0.271761 0.941017 0.925803
#
# Coordination Sequence:
#
# PCOD9324397 Si02
#       8
#     8   8   8   8   8   8   4   8
#     4  10  22  39  63  96 130 176 220 271 342 390
#     4  11  22  41  68  98 135 177 223 271 328 409
#     4  12  28  44  71  98 132 180 233 286 340 402
#     4  10  22  38  62  97 139 170 207 272 342 410
#     4  12  27  47  70  98 135 180 231 286 340 400
#     4  11  23  42  66  96 133 172 226 273 345 409
#     4  10  22  40  68  91 133 178 226 282 332 416
#     4  11  23  43  66 101 132 177 223 270 341 409
#
# _framework density 22.469111999999999
#
# number of rings (size 3 to 8) (size 9 to 14) (size 15 to 20)
#    0.000    1.067    1.333    4.800    7.467    2.133 
#    0.000    0.000    0.000    2.400    0.000    0.000 
#    0.000    0.000    0.000    0.000    0.000    0.000 
#
# Total GULP energy -167690.398869 kJ/mol
# GULP energy per Si atom -5589.679962 kJ/mol
# Density = 2.241797 g / cm^3
# Si number density = 22.469112 Si / 1000 Ang^3
#
#
#
# Elastic Constant Matrix: (Units=GPa)
#
#
# Indices 1 2 3 4 5 6 
#
# 1 138.8139 25.1263 -1.7684 0.0000 0.0000 0.0000
# 2 25.1263 23.4656 3.1237 0.0000 0.0000 0.0000
# 3 -1.7684 3.1237 83.8445 0.0000 0.0000 0.0000
# 4 0.0000 0.0000 0.0000 -73.8922 0.0000 0.0000
# 5 0.0000 0.0000 0.0000 0.0000 33.7746 0.0000
# 6 0.0000 0.0000 0.0000 0.0000 0.0000 17.8152
#
#
#
# Elastic Compliance Matrix: (Units=1/GPa)
#
#
# Indices 1 2 3 4 5 6 
#
# 1 0.008961 -0.009668 0.000549 0.000000 0.000000 0.000000
# 2 -0.009668 0.053259 -0.002188 0.000000 0.000000 0.000000
# 3 0.000549 -0.002188 0.012020 0.000000 0.000000 0.000000
# 4 0.000000 0.000000 0.000000 -0.013533 0.000000 0.000000
# 5 0.000000 0.000000 0.000000 0.000000 0.029608 0.000000
# 6 0.000000 0.000000 0.000000 0.000000 0.000000 0.056132
#
#
# Mechanical properties :
#
#
# Convention : Reuss Voigt Hill
#
# Bulk Modulus (GPa) = 19.37014 33.23190 26.30102
# Shear Modulus (GPa) = 26.84280 10.18235 18.51257
#
# Velocity S-wave (km/s) = 3.46013 2.13109 2.87350
# Velocity P-wave (km/s) = 4.96012 4.56919 4.76867
#
# Compressibility (1/GPa) = 0.05162584
#
# Stress axis : x y z
#
# Youngs Moduli (GPa) = 111.59603 18.77609 83.19501
#
# Poissons Ratio (x) = 0.18153 -0.04569
# Poissons Ratio (y) = 1.07893 0.18204
# Poissons Ratio (z) = -0.06129 0.04108
#
# Static dielectric constant tensor:
#      x y z
#    x 1.838050 0.000000 0.000000 
#    y 0.000000 1.889240 0.000000 
#    z 0.000000 0.000000 1.895200 
# 
# From -- ./inp_files/6129.got.cif
#   From: 2010.05.17/outbox.cif.g08.bks.cpg/sg21_4_cif.got.tgz:6129.got - 2010.06.03 23:14:55.
