data_PCOD9324127
_publ_section_title
;
Structure prediction by ZEFSAII (Michael W. Deem and Ramdas Pophale) SiO2 
 PCOD9324127
Probable space group: C 2 2 2
;
_chemical_formula_sum "Si O2"
_cell_formula_units_Z 48
_cell_length_a 16.169074
_cell_length_b 8.707125
_cell_length_c 15.659128
_cell_angle_alpha 90.000000
_cell_angle_beta 90.000000
_cell_angle_gamma 90.000000
_cell_volume 2204.588319
_symmetry_space_group_name_H-M "C 2 2 2"
_symmetry_group_IT_number 21
_symmetry_cell_setting 'orthorhombic'
loop_
_space_group_symop_operation_xyz
x,y,z
-x,-y,z
x,-y,-z
-x,y,-z
1/2+x,1/2+y,z
1/2-x,1/2-y,z
1/2+x,1/2-y,-z
1/2-x,1/2+y,-z
loop_
_atom_site_type_symbol
_atom_site_label
_atom_site_fract_x
_atom_site_fract_y
_atom_site_fract_z
Si Si1 0.912851 0.438984 0.596462
Si Si2 0.665101 0.677601 0.885823
Si Si3 0.075009 0.095996 0.363909
Si Si4 0.163464 0.813497 0.911602
Si Si5 0.006972 0.173507 0.177070
Si Si6 0.258473 0.566275 0.402941
O O1 0.912483 0.500000 0.500000
O O2 0.908591 0.255736 0.589918
O O3 0.826923 0.499179 0.635991
O O4 0.000000 0.500000 0.635244
O O5 0.750000 0.750000 0.853158
O O6 0.668124 0.492877 0.886403
O O7 0.584809 0.735562 0.834992
O O8 0.657621 0.713417 0.986878
O O9 0.039050 0.148713 0.272369
O O10 0.157997 0.994819 0.357849
O O11 0.000000 0.000000 0.403728
O O12 0.250000 0.750000 0.879800
O O13 0.080827 0.743541 0.871454
O O14 0.000000 0.000000 0.138153
O O15 0.265586 0.500000 0.500000
O O16 0.250000 0.750000 0.404653
#
# Coordination Sequence:
#
# PCOD9324127 Si02
#       6
#     8   8   8   8   8   8
#     4  10  21  40  61  85 115 150 194 242 293 356
#     4   9  17  33  57  83 114 151 196 240 280 337
#     4  11  23  39  58  86 120 157 199 246 300 357
#     4   9  17  31  55  85 114 151 194 237 285 339
#     4   9  19  36  55  80 115 156 196 234 289 351
#     4  11  22  39  63  90 116 149 193 245 305 363
#
# _framework density 21.772772
#
# number of rings (size 3 to 8) (size 9 to 14) (size 15 to 20)
#    0.000    2.167    0.000    4.000    0.000    5.000 
#    0.000   15.000    0.000    4.000    0.000    0.000 
#    0.000    0.000    0.000    0.000    0.000    0.000 
#
# Total GULP energy -133930.778328 kJ/mol
# GULP energy per Si atom -5580.449097 kJ/mol
# Density = 2.172322 g / cm^3
# Si number density = 21.772772 Si / 1000 Ang^3
#
#
#
# Elastic Constant Matrix: (Units=GPa)
#
#
# Indices 1 2 3 4 5 6 
#
# 1 246.9516 60.5362 59.8236 0.0000 0.0000 0.0000
# 2 60.5362 109.8807 16.9857 0.0000 0.0000 0.0000
# 3 59.8236 16.9857 44.6664 0.0000 0.0000 0.0000
# 4 0.0000 0.0000 0.0000 9.4417 0.0000 0.0000
# 5 0.0000 0.0000 0.0000 0.0000 38.4094 0.0000
# 6 0.0000 0.0000 0.0000 0.0000 0.0000 33.5067
#
#
#
# Elastic Compliance Matrix: (Units=1/GPa)
#
#
# Indices 1 2 3 4 5 6 
#
# 1 0.006535 -0.002388 -0.007845 0.000000 0.000000 0.000000
# 2 -0.002388 0.010542 -0.000811 0.000000 0.000000 0.000000
# 3 -0.007845 -0.000811 0.033203 0.000000 0.000000 0.000000
# 4 0.000000 0.000000 0.000000 0.105913 0.000000 0.000000
# 5 0.000000 0.000000 0.000000 0.000000 0.026035 0.000000
# 6 0.000000 0.000000 0.000000 0.000000 0.000000 0.029845
#
#
# Mechanical properties :
#
#
# Convention : Reuss Voigt Hill
#
# Bulk Modulus (GPa) = 35.46919 75.13219 55.30069
# Shear Modulus (GPa) = 20.52909 33.88177 27.20543
#
# Velocity S-wave (km/s) = 3.07396 3.94909 3.53868
# Velocity P-wave (km/s) = 5.37820 7.44151 6.49234
#
# Compressibility (1/GPa) = 0.02819348
#
# Stress axis : x y z
#
# Youngs Moduli (GPa) = 153.02147 94.86271 30.11755
#
# Poissons Ratio (x) = 0.22650 0.23626
# Poissons Ratio (y) = 0.36536 0.02442
# Poissons Ratio (z) = 1.20040 0.07692
#
# Static dielectric constant tensor:
#      x y z
#    x 1.879610 0.000000 0.000000 
#    y 0.000000 1.872000 0.000000 
#    z 0.000000 0.000000 1.851810 
# 
# From -- ./inp_files/36654.got.cif
#   From: 2010.05.17/outbox.cif.g08.bks.cpg/sg21_19_cif.got.tgz:36654.got - 2010.06.03 23:14:55.
