data_PCOD9324280
_publ_section_title
;
Structure prediction by ZEFSAII (Michael W. Deem and Ramdas Pophale) SiO2 
 PCOD9324280
Probable space group: C 2 2 2
;
_chemical_formula_sum "Si O2"
_cell_formula_units_Z 54
_cell_length_a 15.916189
_cell_length_b 26.422254
_cell_length_c 5.328846
_cell_angle_alpha 90.000000
_cell_angle_beta 90.000000
_cell_angle_gamma 90.000000
_cell_volume 2241.001362
_symmetry_space_group_name_H-M "C 2 2 2"
_symmetry_group_IT_number 21
_symmetry_cell_setting 'orthorhombic'
loop_
_space_group_symop_operation_xyz
x,y,z
-x,-y,z
x,-y,-z
-x,y,-z
1/2+x,1/2+y,z
1/2-x,1/2-y,z
1/2+x,1/2-y,-z
1/2-x,1/2+y,-z
loop_
_atom_site_type_symbol
_atom_site_label
_atom_site_fract_x
_atom_site_fract_y
_atom_site_fract_z
Si Si1 0.192640 0.798694 0.551766
Si Si2 0.094139 0.576490 0.500253
Si Si3 0.856241 0.952763 0.182776
Si Si4 0.409421 0.713415 0.072827
Si Si5 0.283397 0.000000 0.500000
Si Si6 0.000000 0.000000 0.500000
Si Si7 0.415879 0.831106 0.152393
Si Si8 0.277206 0.881286 0.846136
O O1 0.250000 0.750000 0.492064
O O2 0.134225 0.810708 0.314566
O O3 0.247522 0.847716 0.611989
O O4 0.143604 0.786694 0.813873
O O5 0.153609 0.537046 0.349459
O O6 0.086418 0.632777 0.391329
O O7 0.145135 0.582106 0.761233
O O8 0.000000 0.556892 0.500000
O O9 0.811148 0.904794 0.051349
O O10 0.782921 0.961617 0.382585
O O11 0.943355 0.962131 0.328606
O O12 0.853003 0.000000 0.000000
O O13 0.423415 0.771003 0.172915
O O14 0.500000 0.691177 0.000000
O O15 0.500000 0.846926 0.000000
O O16 0.326658 0.842580 0.023343
#
# Coordination Sequence:
#
# PCOD9324280 Si02
#       8
#     8   8   8   8   4   2   8   8
#     4  12  24  45  68 103 138 188 234 293 352 425
#     4  11  21  37  61  91 131 173 221 277 332 418
#     4  10  21  43  68  95 130 170 223 285 346 421
#     4  11  26  45  69  95 141 185 239 294 356 413
#     4   9  21  37  61  92 132 170 215 271 345 397
#     4  10  22  44  70  98 118 172 220 292 356 420
#     4  11  22  38  63  95 130 182 232 279 339 425
#     4  11  24  40  65  98 132 180 230 281 355 412
#
# _framework density 24.096371000000001
#
# number of rings (size 3 to 8) (size 9 to 14) (size 15 to 20)
#    0.000    1.185    2.963    3.111    2.074    0.000 
#    2.667    0.000    0.000    0.000    0.000    0.000 
#    0.000    0.000    0.000    0.000    0.000    0.000 
#
# Total GULP energy -150497.881338 kJ/mol
# GULP energy per Si atom -5573.995605 kJ/mol
# Density = 2.404153 g / cm^3
# Si number density = 24.096371 Si / 1000 Ang^3
#
#
#
# Elastic Constant Matrix: (Units=GPa)
#
#
# Indices 1 2 3 4 5 6 
#
# 1 169.6034 27.7867 43.2395 0.0000 0.0000 0.0000
# 2 27.7867 61.8836 14.1567 0.0000 0.0000 0.0000
# 3 43.2395 14.1567 69.4977 0.0000 0.0000 0.0000
# 4 0.0000 0.0000 0.0000 275.4856 0.0000 0.0000
# 5 0.0000 0.0000 0.0000 0.0000 19.7832 0.0000
# 6 0.0000 0.0000 0.0000 0.0000 0.0000 42.3665
#
#
#
# Elastic Compliance Matrix: (Units=1/GPa)
#
#
# Indices 1 2 3 4 5 6 
#
# 1 0.007321 -0.002355 -0.004075 0.000000 0.000000 0.000000
# 2 -0.002355 0.017707 -0.002142 0.000000 0.000000 0.000000
# 3 -0.004075 -0.002142 0.017361 0.000000 0.000000 0.000000
# 4 0.000000 0.000000 0.000000 0.003630 0.000000 0.000000
# 5 0.000000 0.000000 0.000000 0.000000 0.050548 0.000000
# 6 0.000000 0.000000 0.000000 0.000000 0.000000 0.023604
#
#
# Mechanical properties :
#
#
# Convention : Reuss Voigt Hill
#
# Bulk Modulus (GPa) = 39.61223 52.37228 45.99226
# Shear Modulus (GPa) = 34.31051 81.91386 58.11219
#
# Velocity S-wave (km/s) = 3.77754 5.83679 4.91619
# Velocity P-wave (km/s) = 5.95828 8.19791 7.16613
#
# Compressibility (1/GPa) = 0.02524473
#
# Stress axis : x y z
#
# Youngs Moduli (GPa) = 136.59600 56.47578 57.60150
#
# Poissons Ratio (x) = 0.13300 0.23473
# Poissons Ratio (y) = 0.32168 0.12336
# Poissons Ratio (z) = 0.55665 0.12095
#
# Static dielectric constant tensor:
#      x y z
#    x -8.911120 0.000000 0.000000 
#    y 0.000000 2.283300 0.000000 
#    z 0.000000 0.000000 2.030210 
# 
# From -- ./inp_files/4329.got.cif
#   From: 2010.05.17/outbox.cif.g08.bks.cpg/sg21_3_cif.got.tgz:4329.got - 2010.06.03 23:14:55.
