data_PCOD9324061
_publ_section_title
;
Structure prediction by ZEFSAII (Michael W. Deem and Ramdas Pophale) SiO2 
 PCOD9324061
Probable space group: C 2 2 2
;
_chemical_formula_sum "Si O2"
_cell_formula_units_Z 64
_cell_length_a 31.850183
_cell_length_b 11.198996
_cell_length_c 8.325938
_cell_angle_alpha 90.000000
_cell_angle_beta 90.000000
_cell_angle_gamma 90.000000
_cell_volume 2969.779425
_symmetry_space_group_name_H-M "C 2 2 2"
_symmetry_group_IT_number 21
_symmetry_cell_setting 'orthorhombic'
loop_
_space_group_symop_operation_xyz
x,y,z
-x,-y,z
x,-y,-z
-x,y,-z
1/2+x,1/2+y,z
1/2-x,1/2-y,z
1/2+x,1/2-y,-z
1/2-x,1/2+y,-z
loop_
_atom_site_type_symbol
_atom_site_label
_atom_site_fract_x
_atom_site_fract_y
_atom_site_fract_z
Si Si1 0.109678 0.994106 0.807056
Si Si2 0.201172 0.009189 0.689214
Si Si3 0.860983 0.378789 0.604812
Si Si4 0.092104 0.737519 0.172712
Si Si5 0.067283 0.247517 0.198161
Si Si6 0.511849 0.131433 0.313155
Si Si7 0.787047 0.483043 0.811747
Si Si8 0.179022 0.278809 0.698554
O O1 0.078148 0.889213 0.762900
O O2 0.154962 0.963174 0.734295
O O3 0.094172 0.126290 0.762192
O O4 0.114583 0.000000 0.000000
O O5 0.239307 0.943210 0.778003
O O6 0.197747 0.149881 0.734292
O O7 0.208330 0.000000 0.500000
O O8 0.868529 0.500000 0.500000
O O9 0.902485 0.331147 0.693065
O O10 0.824021 0.406155 0.732235
O O11 0.841735 0.284694 0.477884
O O12 0.059856 0.661936 0.278054
O O13 0.139803 0.694204 0.184813
O O14 0.077920 0.733851 0.988807
O O15 0.018965 0.276603 0.226600
O O16 0.500000 0.135985 0.500000
O O17 0.500000 0.000000 0.252532
O O18 0.790068 0.610977 0.720806
O O19 0.793314 0.500000 0.000000
#
# Coordination Sequence:
#
# PCOD9324061 Si02
#       8
#     8   8   8   8   8   8   8   8
#     4   9  21  41  64  90 123 160 201 251 303 363
#     4  11  21  37  61  89 118 158 205 252 301 359
#     4  10  22  38  60  87 120 162 201 249 309 366
#     4  10  22  41  64  92 122 159 204 250 302 365
#     4  11  22  40  65  91 122 161 203 248 308 361
#     4  11  26  42  62  90 126 161 200 251 300 359
#     4  11  23  38  57  85 120 161 205 252 304 359
#     4  10  21  39  61  84 122 158 200 250 305 361
#
# _framework density 21.550422999999999
#
# number of rings (size 3 to 8) (size 9 to 14) (size 15 to 20)
#    0.000    1.625    0.000    4.500    5.250    2.500 
#    0.000    8.125    0.000    0.000    0.000    0.000 
#    0.000    0.000    0.000    0.000    0.000    0.000 
#
# Total GULP energy -178942.511150 kJ/mol
# GULP energy per Si atom -5591.953473 kJ/mol
# Density = 2.150137 g / cm^3
# Si number density = 21.550423 Si / 1000 Ang^3
#
#
#
# Elastic Constant Matrix: (Units=GPa)
#
#
# Indices 1 2 3 4 5 6 
#
# 1 79.1220 14.9995 3.5303 0.0000 0.0000 0.0000
# 2 14.9995 45.5835 -1.2014 0.0000 0.0000 0.0000
# 3 3.5303 -1.2014 56.2460 0.0000 0.0000 0.0000
# 4 0.0000 0.0000 0.0000 22.2975 0.0000 0.0000
# 5 0.0000 0.0000 0.0000 0.0000 33.4021 0.0000
# 6 0.0000 0.0000 0.0000 0.0000 0.0000 25.7284
#
#
#
# Elastic Compliance Matrix: (Units=1/GPa)
#
#
# Indices 1 2 3 4 5 6 
#
# 1 0.013530 -0.004477 -0.000945 0.000000 0.000000 0.000000
# 2 -0.004477 0.023432 0.000781 0.000000 0.000000 0.000000
# 3 -0.000945 0.000781 0.017855 0.000000 0.000000 0.000000
# 4 0.000000 0.000000 0.000000 0.044848 0.000000 0.000000
# 5 0.000000 0.000000 0.000000 0.000000 0.029938 0.000000
# 6 0.000000 0.000000 0.000000 0.000000 0.000000 0.038868
#
#
# Mechanical properties :
#
#
# Convention : Reuss Voigt Hill
#
# Bulk Modulus (GPa) = 21.96079 23.95647 22.95863
# Shear Modulus (GPa) = 25.91628 27.19381 26.55504
#
# Velocity S-wave (km/s) = 3.47160 3.55613 3.51412
# Velocity P-wave (km/s) = 5.12658 5.29170 5.20979
#
# Compressibility (1/GPa) = 0.04553571
#
# Stress axis : x y z
#
# Youngs Moduli (GPa) = 73.91219 42.67756 56.00657
#
# Poissons Ratio (x) = 0.19106 0.05292
# Poissons Ratio (y) = 0.33090 -0.04377
# Poissons Ratio (z) = 0.06983 -0.03335
#
# Static dielectric constant tensor:
#      x y z
#    x 1.745660 0.000000 0.000000 
#    y 0.000000 1.797790 0.000000 
#    z 0.000000 0.000000 1.764320 
# 
# From -- ./inp_files/19819.got.cif
#   From: 2010.05.17/outbox.cif.g08.bks.cpg/sg21_10_cif.got.tgz:19819.got - 2010.06.03 23:14:55.
