data_PCOD9324922
_publ_section_title
;
Structure prediction by ZEFSAII (Michael W. Deem and Ramdas Pophale) SiO2 
 PCOD9324922
Probable space group: C 2 2 2
;
_chemical_formula_sum "Si O2"
_cell_formula_units_Z 54
_cell_length_a 11.150650
_cell_length_b 15.086463
_cell_length_c 15.702276
_cell_angle_alpha 90.000000
_cell_angle_beta 90.000000
_cell_angle_gamma 90.000000
_cell_volume 2641.497615
_symmetry_space_group_name_H-M "C 2 2 2"
_symmetry_group_IT_number 21
_symmetry_cell_setting 'orthorhombic'
loop_
_space_group_symop_operation_xyz
x,y,z
-x,-y,z
x,-y,-z
-x,y,-z
1/2+x,1/2+y,z
1/2-x,1/2-y,z
1/2+x,1/2-y,-z
1/2-x,1/2+y,-z
loop_
_atom_site_type_symbol
_atom_site_label
_atom_site_fract_x
_atom_site_fract_y
_atom_site_fract_z
Si Si1 0.993125 0.142739 0.900463
Si Si2 0.128790 0.456563 0.739419
Si Si3 0.796570 0.001499 0.897528
Si Si4 0.389286 0.245004 0.779802
Si Si5 0.233300 0.573271 0.438555
Si Si6 0.000000 0.329324 0.500000
Si Si7 0.000000 0.000000 0.500000
Si Si8 0.453443 0.331086 0.610918
O O1 0.104420 0.075806 0.882575
O O2 0.020156 0.234605 0.855106
O O3 0.869760 0.092306 0.880423
O O4 0.000000 0.156620 0.000000
O O5 0.194146 0.486287 0.826894
O O6 0.103256 0.351990 0.742026
O O7 0.206589 0.469266 0.653439
O O8 0.000000 0.500000 0.729572
O O9 0.764588 0.000000 0.000000
O O10 0.250000 0.250000 0.806413
O O11 0.427271 0.318046 0.710048
O O12 0.295827 0.500000 0.500000
O O13 0.319849 0.656482 0.427378
O O14 0.112466 0.607796 0.481694
O O15 0.986386 0.258989 0.577120
O O16 0.013704 0.080307 0.424419
#
# Coordination Sequence:
#
# PCOD9324922 Si02
#       8
#     8   8   8   8   8   4   2   8
#     4   9  19  39  67  98 122 166 219 261 318 387
#     4  12  25  42  62  96 132 169 219 258 327 394
#     4   9  19  40  68  94 128 167 213 265 319 383
#     4  12  21  40  66  92 123 170 213 262 312 385
#     4  12  23  40  62  87 121 171 208 257 318 372
#     4  11  21  37  59  86 120 158 205 263 295 371
#     4  10  24  40  58 102 128 160 214 280 308 360
#     4  11  22  40  63  89 124 162 218 259 312 374
#
# _framework density 20.442947
#
# number of rings (size 3 to 8) (size 9 to 14) (size 15 to 20)
#    0.000    1.185    5.185    2.444    0.000    2.667 
#    2.667    0.741    0.000    0.000    0.000    0.000 
#    0.000    0.000    0.000    0.000    0.000    0.000 
#
# Total GULP energy -150422.192993 kJ/mol
# GULP energy per Si atom -5571.192333 kJ/mol
# Density = 2.039642 g / cm^3
# Si number density = 20.442947 Si / 1000 Ang^3
#
#
#
# Elastic Constant Matrix: (Units=GPa)
#
#
# Indices 1 2 3 4 5 6 
#
# 1 63.1607 14.5938 34.9592 0.0000 0.0000 0.0000
# 2 14.5938 66.8744 33.2917 0.0000 0.0000 0.0000
# 3 34.9592 33.2917 90.9803 0.0000 0.0000 0.0000
# 4 0.0000 0.0000 0.0000 24.8092 0.0000 0.0000
# 5 0.0000 0.0000 0.0000 0.0000 67.5990 0.0000
# 6 0.0000 0.0000 0.0000 0.0000 0.0000 24.7374
#
#
#
# Elastic Compliance Matrix: (Units=1/GPa)
#
#
# Indices 1 2 3 4 5 6 
#
# 1 0.020134 -0.000663 -0.007494 0.000000 0.000000 0.000000
# 2 -0.000663 0.018306 -0.006444 0.000000 0.000000 0.000000
# 3 -0.007494 -0.006444 0.016229 0.000000 0.000000 0.000000
# 4 0.000000 0.000000 0.000000 0.040308 0.000000 0.000000
# 5 0.000000 0.000000 0.000000 0.000000 0.014793 0.000000
# 6 0.000000 0.000000 0.000000 0.000000 0.000000 0.040425
#
#
# Mechanical properties :
#
#
# Convention : Reuss Voigt Hill
#
# Bulk Modulus (GPa) = 39.26625 42.96719 41.11672
# Shear Modulus (GPa) = 26.61219 32.64050 29.62635
#
# Velocity S-wave (km/s) = 3.61193 4.00016 3.81099
# Velocity P-wave (km/s) = 6.05344 6.51144 6.28661
#
# Compressibility (1/GPa) = 0.02546716
#
# Stress axis : x y z
#
# Youngs Moduli (GPa) = 49.66833 54.62695 61.61911
#
# Poissons Ratio (x) = 0.03623 0.46175
# Poissons Ratio (y) = 0.03294 0.39706
# Poissons Ratio (z) = 0.37220 0.35200
#
# Static dielectric constant tensor:
#      x y z
#    x 1.619800 0.000000 0.000000 
#    y 0.000000 1.721270 0.000000 
#    z 0.000000 0.000000 1.762830 
# 
# From -- ./inp_files/31648.got.cif
#   From: 2010.05.17/outbox.cif.g08.bks.cpg/sg21_16_cif.got.tgz:31648.got - 2010.06.03 23:14:55.
