data_PCOD9324821
_publ_section_title
;
Structure prediction by ZEFSAII (Michael W. Deem and Ramdas Pophale) SiO2 
 PCOD9324821
Probable space group: C 2 2 2
;
_chemical_formula_sum "Si O2"
_cell_formula_units_Z 58
_cell_length_a 28.992308
_cell_length_b 9.071635
_cell_length_c 10.109303
_cell_angle_alpha 90.000000
_cell_angle_beta 90.000000
_cell_angle_gamma 90.000000
_cell_volume 2658.823883
_symmetry_space_group_name_H-M "C 2 2 2"
_symmetry_group_IT_number 21
_symmetry_cell_setting 'orthorhombic'
loop_
_space_group_symop_operation_xyz
x,y,z
-x,-y,z
x,-y,-z
-x,y,-z
1/2+x,1/2+y,z
1/2-x,1/2-y,z
1/2+x,1/2-y,-z
1/2-x,1/2+y,-z
loop_
_atom_site_type_symbol
_atom_site_label
_atom_site_fract_x
_atom_site_fract_y
_atom_site_fract_z
Si Si1 0.392005 0.220186 0.097438
Si Si2 0.797394 0.168208 0.277103
Si Si3 0.086383 0.548132 0.663028
Si Si4 0.947795 0.982864 0.160526
Si Si5 0.820257 0.337032 0.541827
Si Si6 0.000000 0.500000 0.500000
Si Si7 0.294985 0.676413 0.809248
Si Si8 0.605360 0.235127 0.203331
O O1 0.396275 0.077965 0.186752
O O2 0.426627 0.324005 0.180083
O O3 0.341641 0.294343 0.107354
O O4 0.408230 0.200124 0.948238
O O5 0.750000 0.250000 0.246572
O O6 0.809824 0.215108 0.429535
O O7 0.839812 0.246072 0.203480
O O8 0.793524 0.995756 0.235466
O O9 0.126434 0.627509 0.578734
O O10 0.036506 0.580687 0.599441
O O11 0.088383 0.371138 0.681008
O O12 0.915989 0.103979 0.226510
O O13 0.000000 0.000000 0.202446
O O14 0.945693 0.000000 0.000000
O O15 0.801267 0.500000 0.500000
O O16 0.799987 0.275359 0.677274
O O17 0.250000 0.750000 0.877343
#
# Coordination Sequence:
#
# PCOD9324821 Si02
#       8
#     8   8   8   8   8   2   8   8
#     4  10  23  42  66  94 134 172 217 270 331 399
#     4  12  24  39  65  95 129 175 224 272 331 391
#     4  11  24  42  67  93 131 171 217 272 337 390
#     4   9  19  38  64  91 124 166 212 263 317 383
#     4  11  21  43  63  87 126 172 222 278 327 386
#     4  12  24  44  66  98 132 168 212 276 324 396
#     4  11  24  40  63  94 130 175 225 274 328 391
#     4  11  22  43  66  96 132 173 216 270 331 407
#
# _framework density 21.814157000000002
#
# number of rings (size 3 to 8) (size 9 to 14) (size 15 to 20)
#    0.000    1.241    3.448    2.069    3.862    0.552 
#    0.000    0.690    0.000    0.828    0.000    0.000 
#    0.000    0.000    0.000    0.000    0.000    0.000 
#
# Total GULP energy -161563.002618 kJ/mol
# GULP energy per Si atom -5571.138021 kJ/mol
# Density = 2.176451 g / cm^3
# Si number density = 21.814157 Si / 1000 Ang^3
#
#
#
# Elastic Constant Matrix: (Units=GPa)
#
#
# Indices 1 2 3 4 5 6 
#
# 1 130.3492 7.8994 -10.1540 0.0000 0.0000 0.0000
# 2 7.8994 63.0632 4.4586 0.0000 0.0000 0.0000
# 3 -10.1540 4.4586 51.6786 0.0000 0.0000 0.0000
# 4 0.0000 0.0000 0.0000 16.5400 0.0000 0.0000
# 5 0.0000 0.0000 0.0000 0.0000 36.9772 0.0000
# 6 0.0000 0.0000 0.0000 0.0000 0.0000 25.2211
#
#
#
# Elastic Compliance Matrix: (Units=1/GPa)
#
#
# Indices 1 2 3 4 5 6 
#
# 1 0.007866 -0.001101 0.001641 0.000000 0.000000 0.000000
# 2 -0.001101 0.016109 -0.001606 0.000000 0.000000 0.000000
# 3 0.001641 -0.001606 0.019811 0.000000 0.000000 0.000000
# 4 0.000000 0.000000 0.000000 0.060459 0.000000 0.000000
# 5 0.000000 0.000000 0.000000 0.000000 0.027044 0.000000
# 6 0.000000 0.000000 0.000000 0.000000 0.000000 0.039649
#
#
# Mechanical properties :
#
#
# Convention : Reuss Voigt Hill
#
# Bulk Modulus (GPa) = 24.00827 27.72214 25.86521
# Shear Modulus (GPa) = 26.74419 31.94014 29.34216
#
# Velocity S-wave (km/s) = 3.50523 3.83063 3.67154
# Velocity P-wave (km/s) = 5.23564 5.68339 5.46410
#
# Compressibility (1/GPa) = 0.04165231
#
# Stress axis : x y z
#
# Youngs Moduli (GPa) = 127.12549 62.07860 50.47629
#
# Poissons Ratio (x) = 0.06837 -0.08281
# Poissons Ratio (y) = 0.14001 0.08107
# Poissons Ratio (z) = -0.20856 0.09971
#
# Static dielectric constant tensor:
#      x y z
#    x 1.799530 0.000000 0.000000 
#    y 0.000000 1.830440 0.000000 
#    z 0.000000 0.000000 1.847000 
# 
# From -- ./inp_files/27813.got.cif
#   From: 2010.05.17/outbox.cif.g08.bks.cpg/sg21_14_cif.got.tgz:27813.got - 2010.06.03 23:14:55.
