data_PCOD9324553
_publ_section_title
;
Structure prediction by ZEFSAII (Michael W. Deem and Ramdas Pophale) SiO2 
 PCOD9324553
Probable space group: C 2 2 2
;
_chemical_formula_sum "Si O2"
_cell_formula_units_Z 34
_cell_length_a 13.404760
_cell_length_b 15.796983
_cell_length_c 7.301746
_cell_angle_alpha 90.000000
_cell_angle_beta 90.000000
_cell_angle_gamma 90.000000
_cell_volume 1546.179514
_symmetry_space_group_name_H-M "C 2 2 2"
_symmetry_group_IT_number 21
_symmetry_cell_setting 'orthorhombic'
loop_
_space_group_symop_operation_xyz
x,y,z
-x,-y,z
x,-y,-z
-x,y,-z
1/2+x,1/2+y,z
1/2-x,1/2-y,z
1/2+x,1/2-y,-z
1/2-x,1/2+y,-z
loop_
_atom_site_type_symbol
_atom_site_label
_atom_site_fract_x
_atom_site_fract_y
_atom_site_fract_z
Si Si1 0.162756 0.510603 0.722342
Si Si2 0.269191 0.342375 0.726067
Si Si3 0.796512 0.164177 0.698486
Si Si4 0.000000 0.500000 0.000000
Si Si5 0.492962 0.403214 0.781838
O O1 0.143653 0.500000 0.500000
O O2 0.196686 0.417437 0.788187
O O3 0.252768 0.574870 0.765998
O O4 0.072604 0.543374 0.849404
O O5 0.250000 0.250000 0.805990
O O6 0.255733 0.336276 0.508108
O O7 0.383868 0.367899 0.744627
O O8 0.750000 0.250000 0.781374
O O9 0.915774 0.154109 0.708862
O O10 0.500000 0.500000 0.712064
O O11 0.500000 0.405724 0.000000
#
# Coordination Sequence:
#
# PCOD9324553 Si02
#       5
#     8   8   8   2   8
#     4  10  23  44  66  91 128 173 215 269 324 378
#     4  10  22  41  66  93 125 166 216 264 319 388
#     4  10  22  41  66  93 125 166 216 264 319 388
#     4  12  26  40  68  88 132 174 218 264 320 404
#     4  11  23  38  65  96 128 165 212 264 322 385
#
# _framework density 21.989685999999999
#
# number of rings (size 3 to 8) (size 9 to 14) (size 15 to 20)
#    0.000    1.647    2.353    1.059    3.294    3.765 
#    4.235    7.059    0.000    0.000    0.000    0.000 
#    0.000    0.000    0.000    0.000    0.000    0.000 
#
# Total GULP energy -94749.007243 kJ/mol
# GULP energy per Si atom -5573.471014 kJ/mol
# Density = 2.193964 g / cm^3
# Si number density = 21.989686 Si / 1000 Ang^3
#
#
#
# Elastic Constant Matrix: (Units=GPa)
#
#
# Indices 1 2 3 4 5 6 
#
# 1 86.4848 38.8779 -10.3195 0.0000 0.0000 0.0000
# 2 38.8779 156.4437 7.8506 0.0000 0.0000 0.0000
# 3 -10.3195 7.8506 90.4527 0.0000 0.0000 0.0000
# 4 0.0000 0.0000 0.0000 -4.8211 0.0000 0.0000
# 5 0.0000 0.0000 0.0000 0.0000 30.4746 0.0000
# 6 0.0000 0.0000 0.0000 0.0000 0.0000 36.0204
#
#
#
# Elastic Compliance Matrix: (Units=1/GPa)
#
#
# Indices 1 2 3 4 5 6 
#
# 1 0.013306 -0.003398 0.001813 0.000000 0.000000 0.000000
# 2 -0.003398 0.007288 -0.001020 0.000000 0.000000 0.000000
# 3 0.001813 -0.001020 0.011351 0.000000 0.000000 0.000000
# 4 0.000000 0.000000 0.000000 -0.207422 0.000000 0.000000
# 5 0.000000 0.000000 0.000000 0.000000 0.032814 0.000000
# 6 0.000000 0.000000 0.000000 0.000000 0.000000 0.027762
#
#
# Mechanical properties :
#
#
# Convention : Reuss Voigt Hill
#
# Bulk Modulus (GPa) = 37.40396 45.13326 41.26861
# Shear Modulus (GPa) = -49.61336 32.13293 -8.74022
#
# Velocity S-wave (km/s) = -4.75511 3.82681 -1.99583
# Velocity P-wave (km/s) = 3.61959 6.33208 3.67381
#
# Compressibility (1/GPa) = 0.02673514
#
# Stress axis : x y z
#
# Youngs Moduli (GPa) = 75.15138 137.21842 88.09890
#
# Poissons Ratio (x) = 0.46624 -0.15972
# Poissons Ratio (y) = 0.25535 0.08987
# Poissons Ratio (z) = -0.13625 0.13998
#
# Static dielectric constant tensor:
#      x y z
#    x 1.779670 0.000000 0.000000 
#    y 0.000000 1.844530 0.000000 
#    z 0.000000 0.000000 1.805960 
# 
# From -- ./inp_files/12641.got.cif
#   From: 2010.05.17/outbox.cif.g08.bks.cpg/sg21_7_cif.got.tgz:12641.got - 2010.06.03 23:14:55.
