data_PCOD9324068
_publ_section_title
;
Structure prediction by ZEFSAII (Michael W. Deem and Ramdas Pophale) SiO2 
 PCOD9324068
Probable space group: C 2 2 2
;
_chemical_formula_sum "Si O2"
_cell_formula_units_Z 56
_cell_length_a 21.406473
_cell_length_b 15.495223
_cell_length_c 7.578631
_cell_angle_alpha 90.000000
_cell_angle_beta 90.000000
_cell_angle_gamma 90.000000
_cell_volume 2513.817297
_symmetry_space_group_name_H-M "C 2 2 2"
_symmetry_group_IT_number 21
_symmetry_cell_setting 'orthorhombic'
loop_
_space_group_symop_operation_xyz
x,y,z
-x,-y,z
x,-y,-z
-x,y,-z
1/2+x,1/2+y,z
1/2-x,1/2-y,z
1/2+x,1/2-y,-z
1/2-x,1/2+y,-z
loop_
_atom_site_type_symbol
_atom_site_label
_atom_site_fract_x
_atom_site_fract_y
_atom_site_fract_z
Si Si1 0.737455 0.011993 0.206869
Si Si2 0.106463 0.574973 0.241358
Si Si3 0.064216 0.238625 0.692892
Si Si4 0.571197 0.716195 0.284084
Si Si5 0.696638 0.684053 0.727619
Si Si6 0.062998 0.397933 0.121551
Si Si7 0.793365 0.828598 0.304719
O O1 0.675773 0.051065 0.303238
O O2 0.788704 0.086512 0.223326
O O3 0.759993 0.920302 0.280009
O O4 0.725630 0.000000 0.000000
O O5 0.070318 0.656478 0.322836
O O6 0.068721 0.485301 0.232941
O O7 0.113322 0.600010 0.034886
O O8 0.066391 0.203806 0.494133
O O9 0.127856 0.211763 0.787262
O O10 0.000604 0.203613 0.780540
O O11 0.577416 0.817312 0.241210
O O12 0.635923 0.672127 0.226380
O O13 0.750000 0.750000 0.792534
O O14 0.698457 0.688520 0.514120
O O15 0.000000 0.392558 0.000000
O O16 0.750000 0.750000 0.236352
#
# Coordination Sequence:
#
# PCOD9324068 Si02
#       7
#     8   8   8   8   8   8   8
#     4  12  24  39  60  92 126 160 210 258 314 376
#     4  11  21  35  55  84 124 162 195 243 309 371
#     4  10  21  39  62  90 115 155 211 257 302 366
#     4  10  22  39  61  87 119 158 209 253 300 364
#     4  10  21  41  64  89 121 163 206 262 316 366
#     4  11  21  35  55  84 127 165 192 239 311 382
#     4  10  23  42  62  88 123 165 211 256 308 366
#
# _framework density 22.276876000000001
#
# number of rings (size 3 to 8) (size 9 to 14) (size 15 to 20)
#    0.000    1.429    4.286    2.143    0.000    2.286 
#    2.571    2.143    0.000    4.286    0.000    0.000 
#    0.000    0.000    0.000    0.000    0.000    0.000 
#
# Total GULP energy -156164.009811 kJ/mol
# GULP energy per Si atom -5577.286065 kJ/mol
# Density = 2.222617 g / cm^3
# Si number density = 22.276876 Si / 1000 Ang^3
#
#
#
# Elastic Constant Matrix: (Units=GPa)
#
#
# Indices 1 2 3 4 5 6 
#
# 1 174.5316 46.2645 6.5439 0.0000 0.0000 0.0000
# 2 46.2645 81.5065 -15.3819 0.0000 0.0000 0.0000
# 3 6.5439 -15.3819 28.2880 0.0000 0.0000 0.0000
# 4 0.0000 0.0000 0.0000 34.6682 0.0000 0.0000
# 5 0.0000 0.0000 0.0000 0.0000 6.3463 0.0000
# 6 0.0000 0.0000 0.0000 0.0000 0.0000 37.3477
#
#
#
# Elastic Compliance Matrix: (Units=1/GPa)
#
#
# Indices 1 2 3 4 5 6 
#
# 1 0.007190 -0.004898 -0.004326 0.000000 0.000000 0.000000
# 2 -0.004898 0.017008 0.010381 0.000000 0.000000 0.000000
# 3 -0.004326 0.010381 0.041997 0.000000 0.000000 0.000000
# 4 0.000000 0.000000 0.000000 0.028845 0.000000 0.000000
# 5 0.000000 0.000000 0.000000 0.000000 0.157573 0.000000
# 6 0.000000 0.000000 0.000000 0.000000 0.000000 0.026775
#
#
# Mechanical properties :
#
#
# Convention : Reuss Voigt Hill
#
# Bulk Modulus (GPa) = 14.59661 39.90879 27.25270
# Shear Modulus (GPa) = 16.67166 32.13241 24.40204
#
# Velocity S-wave (km/s) = 2.73863 3.80203 3.31327
# Velocity P-wave (km/s) = 4.07022 6.10145 5.18625
#
# Compressibility (1/GPa) = 0.06850905
#
# Stress axis : x y z
#
# Youngs Moduli (GPa) = 139.07987 58.79537 23.81150
#
# Poissons Ratio (x) = 0.28796 0.10302
# Poissons Ratio (y) = 0.68117 -0.24720
# Poissons Ratio (z) = 0.60173 -0.61037
#
# Static dielectric constant tensor:
#      x y z
#    x 1.955000 0.000000 0.000000 
#    y 0.000000 1.791490 0.000000 
#    z 0.000000 0.000000 1.868970 
# 
# From -- ./inp_files/17715.got.cif
#   From: 2010.05.17/outbox.cif.g08.bks.cpg/sg21_9_cif.got.tgz:17715.got - 2010.06.03 23:14:55.
