data_PCOD9324793
_publ_section_title
;
Structure prediction by ZEFSAII (Michael W. Deem and Ramdas Pophale) SiO2 
 PCOD9324793
Probable space group: C 2 2 2
;
_chemical_formula_sum "Si O2"
_cell_formula_units_Z 32
_cell_length_a 7.021982
_cell_length_b 29.773996
_cell_length_c 7.213493
_cell_angle_alpha 90.000000
_cell_angle_beta 90.000000
_cell_angle_gamma 90.000000
_cell_volume 1508.142755
_symmetry_space_group_name_H-M "C 2 2 2"
_symmetry_group_IT_number 21
_symmetry_cell_setting 'orthorhombic'
loop_
_space_group_symop_operation_xyz
x,y,z
-x,-y,z
x,-y,-z
-x,y,-z
1/2+x,1/2+y,z
1/2-x,1/2-y,z
1/2+x,1/2-y,-z
1/2-x,1/2+y,-z
loop_
_atom_site_type_symbol
_atom_site_label
_atom_site_fract_x
_atom_site_fract_y
_atom_site_fract_z
Si Si1 0.166309 0.941139 0.662914
Si Si2 0.965171 0.265551 0.715062
Si Si3 0.500000 0.500000 0.000000
Si Si4 0.855285 0.640362 0.146485
Si Si5 0.500000 0.000000 0.500000
Si Si6 0.500000 0.305339 0.000000
O O1 0.253189 0.892187 0.706921
O O2 0.352743 0.968993 0.608216
O O3 0.000000 0.941734 0.500000
O O4 0.095733 0.965328 0.852130
O O5 0.750000 0.250000 0.752080
O O6 0.974735 0.317694 0.769988
O O7 0.000000 0.260207 0.500000
O O8 0.068447 0.228128 0.837126
O O9 0.676627 0.663252 0.046503
O O10 0.000000 0.617260 0.000000
#
# Coordination Sequence:
#
# PCOD9324793 Si02
#       6
#     8   8   2   8   2   4
#     4  12  28  52  73 111 149 187 246 307 378 452
#     4  10  23  40  67  98 138 196 236 292 361 415
#     4  12  24  54  80  98 142 196 234 298 398 434
#     4  11  26  43  74 107 141 196 244 302 358 434
#     4  12  26  50  80 106 150 188 238 318 372 466
#     4  10  23  48  64  99 154 185 244 304 351 420
#
# _framework density 21.218152
#
# number of rings (size 3 to 8) (size 9 to 14) (size 15 to 20)
#    0.000    1.000    3.750    0.750    8.750    6.000 
#    0.000    0.000    0.000    0.000    0.000    0.000 
#    0.000    0.000    0.000    0.000    0.000    0.000 
#
# Total GULP energy -89191.073269 kJ/mol
# GULP energy per Si atom -5574.442079 kJ/mol
# Density = 2.116986 g / cm^3
# Si number density = 21.218152 Si / 1000 Ang^3
#
#
#
# Elastic Constant Matrix: (Units=GPa)
#
#
# Indices 1 2 3 4 5 6 
#
# 1 126.3406 48.9962 59.6895 0.0000 0.0000 0.0000
# 2 48.9962 113.7379 49.5632 0.0000 0.0000 0.0000
# 3 59.6895 49.5632 137.9307 0.0000 0.0000 0.0000
# 4 0.0000 0.0000 0.0000 46.8843 0.0000 0.0000
# 5 0.0000 0.0000 0.0000 0.0000 25.2603 0.0000
# 6 0.0000 0.0000 0.0000 0.0000 0.0000 48.2670
#
#
#
# Elastic Compliance Matrix: (Units=1/GPa)
#
#
# Indices 1 2 3 4 5 6 
#
# 1 0.010799 -0.003101 -0.003559 0.000000 0.000000 0.000000
# 2 -0.003101 0.011315 -0.002724 0.000000 0.000000 0.000000
# 3 -0.003559 -0.002724 0.009769 0.000000 0.000000 0.000000
# 4 0.000000 0.000000 0.000000 0.021329 0.000000 0.000000
# 5 0.000000 0.000000 0.000000 0.000000 0.039588 0.000000
# 6 0.000000 0.000000 0.000000 0.000000 0.000000 0.020718
#
#
# Mechanical properties :
#
#
# Convention : Reuss Voigt Hill
#
# Bulk Modulus (GPa) = 76.24779 77.16744 76.70762
# Shear Modulus (GPa) = 36.58767 38.73300 37.66033
#
# Velocity S-wave (km/s) = 4.15704 4.27718 4.21754
# Velocity P-wave (km/s) = 7.68469 7.80000 7.74256
#
# Compressibility (1/GPa) = 0.01311513
#
# Stress axis : x y z
#
# Youngs Moduli (GPa) = 92.59901 88.37784 102.36534
#
# Poissons Ratio (x) = 0.27408 0.36432
# Poissons Ratio (y) = 0.28717 0.27883
# Poissons Ratio (z) = 0.32956 0.24073
#
# Static dielectric constant tensor:
#      x y z
#    x 1.790830 0.000000 0.000000 
#    y 0.000000 1.823140 0.000000 
#    z 0.000000 0.000000 1.730930 
# 
# From -- ./inp_files/1631.got.cif
#   From: 2010.05.17/outbox.cif.g08.bks.cpg/sg21_1_cif.got.tgz:1631.got - 2010.06.03 23:14:55.
