data_PCOD9324414
_publ_section_title
;
Structure prediction by ZEFSAII (Michael W. Deem and Ramdas Pophale) SiO2 
 PCOD9324414
Probable space group: C 2 2 2
;
_chemical_formula_sum "Si O2"
_cell_formula_units_Z 60
_cell_length_a 20.877734
_cell_length_b 21.502018
_cell_length_c 6.720458
_cell_angle_alpha 90.000000
_cell_angle_beta 90.000000
_cell_angle_gamma 90.000000
_cell_volume 3016.903733
_symmetry_space_group_name_H-M "C 2 2 2"
_symmetry_group_IT_number 21
_symmetry_cell_setting 'orthorhombic'
loop_
_space_group_symop_operation_xyz
x,y,z
-x,-y,z
x,-y,-z
-x,y,-z
1/2+x,1/2+y,z
1/2-x,1/2-y,z
1/2+x,1/2-y,-z
1/2-x,1/2+y,-z
loop_
_atom_site_type_symbol
_atom_site_label
_atom_site_fract_x
_atom_site_fract_y
_atom_site_fract_z
Si Si1 0.000000 0.795536 0.000000
Si Si2 0.842697 0.059017 0.141120
Si Si3 0.700374 0.808459 0.762119
Si Si4 0.736315 0.648822 0.138628
Si Si5 0.611133 0.323883 0.713768
Si Si6 0.429383 0.572931 0.462171
Si Si7 0.059549 0.729453 0.381491
Si Si8 0.260720 0.932992 0.477293
O O1 0.060887 0.827455 0.893393
O O2 0.970768 0.755895 0.819682
O O3 0.908341 0.082460 0.236997
O O4 0.799770 0.045550 0.337824
O O5 0.807909 0.111759 0.017788
O O6 0.850715 0.000000 0.000000
O O7 0.750000 0.750000 0.717424
O O8 0.627745 0.797210 0.691776
O O9 0.716849 0.873107 0.650825
O O10 0.709534 0.821170 0.999315
O O11 0.683698 0.695200 0.234179
O O12 0.756879 0.599072 0.305143
O O13 0.615868 0.391775 0.615069
O O14 0.581848 0.281369 0.540735
O O15 0.429838 0.500000 0.500000
O O16 0.500000 0.597964 0.500000
O O17 0.000000 0.695759 0.500000
O O18 0.296404 0.000000 0.500000
#
# Coordination Sequence:
#
# PCOD9324414 Si02
#       8
#     4   8   8   8   8   8   8   8
#     4  10  22  38  66  83 110 167 220 260 332 410
#     4  11  21  37  59  81 115 163 221 273 326 393
#     4  11  25  40  64 102 141 170 220 283 345 404
#     4  11  23  35  62  89 125 164 213 271 336 396
#     4  11  22  38  60  83 118 166 218 273 327 395
#     4  11  23  37  50  76 117 161 221 281 326 372
#     4  10  23  44  65  92 128 170 218 270 333 416
#     4  11  22  42  65  95 129 171 218 270 337 403
#
# _framework density 19.88794
#
# number of rings (size 3 to 8) (size 9 to 14) (size 15 to 20)
#    0.000    1.200    2.667    4.000    5.600    3.733 
#    0.000    0.667    0.000    0.400    0.000    0.000 
#    0.000    0.000    0.000    0.000    0.000    0.000 
#
# Total GULP energy -167107.525997 kJ/mol
# GULP energy per Si atom -5570.250867 kJ/mol
# Density = 1.984267 g / cm^3
# Si number density = 19.887940 Si / 1000 Ang^3
#
#
#
# Elastic Constant Matrix: (Units=GPa)
#
#
# Indices 1 2 3 4 5 6 
#
# 1 105.3312 42.3731 57.7133 0.0000 0.0000 0.0000
# 2 42.3731 85.9076 48.4781 0.0000 0.0000 0.0000
# 3 57.7133 48.4781 145.4175 0.0000 0.0000 0.0000
# 4 0.0000 0.0000 0.0000 41.4168 0.0000 0.0000
# 5 0.0000 0.0000 0.0000 0.0000 45.3824 0.0000
# 6 0.0000 0.0000 0.0000 0.0000 0.0000 19.4652
#
#
#
# Elastic Compliance Matrix: (Units=1/GPa)
#
#
# Indices 1 2 3 4 5 6 
#
# 1 0.013377 -0.004437 -0.003830 0.000000 0.000000 0.000000
# 2 -0.004437 0.015809 -0.003509 0.000000 0.000000 0.000000
# 3 -0.003830 -0.003509 0.009567 0.000000 0.000000 0.000000
# 4 0.000000 0.000000 0.000000 0.024145 0.000000 0.000000
# 5 0.000000 0.000000 0.000000 0.000000 0.022035 0.000000
# 6 0.000000 0.000000 0.000000 0.000000 0.000000 0.051374
#
#
# Mechanical properties :
#
#
# Convention : Reuss Voigt Hill
#
# Bulk Modulus (GPa) = 65.78710 70.42060 68.10385
# Shear Modulus (GPa) = 30.31651 33.79234 32.05442
#
# Velocity S-wave (km/s) = 3.90855 4.12653 4.01902
# Velocity P-wave (km/s) = 7.31572 7.62823 7.47361
#
# Compressibility (1/GPa) = 0.01520055
#
# Stress axis : x y z
#
# Youngs Moduli (GPa) = 74.75320 63.25396 104.52842
#
# Poissons Ratio (x) = 0.28065 0.40035
# Poissons Ratio (y) = 0.33168 0.36684
# Poissons Ratio (z) = 0.28631 0.22199
#
# Static dielectric constant tensor:
#      x y z
#    x 1.803470 0.000000 0.000000 
#    y 0.000000 1.722590 0.000000 
#    z 0.000000 0.000000 1.751810 
# 
# From -- ./inp_files/6121.got.cif
#   From: 2010.05.17/outbox.cif.g08.bks.cpg/sg21_4_cif.got.tgz:6121.got - 2010.06.03 23:14:55.
