data_PCOD9324378
_publ_section_title
;
Structure prediction by ZEFSAII (Michael W. Deem and Ramdas Pophale) SiO2 
 PCOD9324378
Probable space group: C 2 2 2
;
_chemical_formula_sum "Si O2"
_cell_formula_units_Z 38
_cell_length_a 15.488522
_cell_length_b 22.454828
_cell_length_c 5.177647
_cell_angle_alpha 90.000000
_cell_angle_beta 90.000000
_cell_angle_gamma 90.000000
_cell_volume 1800.744710
_symmetry_space_group_name_H-M "C 2 2 2"
_symmetry_group_IT_number 21
_symmetry_cell_setting 'orthorhombic'
loop_
_space_group_symop_operation_xyz
x,y,z
-x,-y,z
x,-y,-z
-x,y,-z
1/2+x,1/2+y,z
1/2-x,1/2-y,z
1/2+x,1/2-y,-z
1/2-x,1/2+y,-z
loop_
_atom_site_type_symbol
_atom_site_label
_atom_site_fract_x
_atom_site_fract_y
_atom_site_fract_z
Si Si1 0.355494 0.557656 0.158905
Si Si2 0.314908 0.805232 0.014654
Si Si3 0.000000 0.000000 0.500000
Si Si4 0.569543 0.266715 0.660209
Si Si5 0.765009 0.847909 0.485799
Si Si6 0.000000 0.863143 0.000000
O O1 0.438169 0.536743 0.320226
O O2 0.298418 0.592721 0.367927
O O3 0.321761 0.500000 0.000000
O O4 0.407973 0.603291 0.977015
O O5 0.250000 0.750000 0.008480
O O6 0.398542 0.775206 0.892909
O O7 0.276418 0.851565 0.800412
O O8 0.307727 0.826436 0.308720
O O9 0.500000 0.229415 0.500000
O O10 0.655377 0.299838 0.540920
O O11 0.506273 0.319059 0.761083
#
# Coordination Sequence:
#
# PCOD9324378 Si02
#       6
#     8   8   2   8   8   4
#     4  12  23  35  52  78 115 158 202 241 282 339
#     4  10  22  38  56  79 112 157 197 241 296 358
#     4  12  22  32  52  78 112 148 204 252 278 324
#     4  11  23  35  63  85 118 155 211 250 299 355
#     4  11  23  39  55  78 117 161 196 238 297 349
#     4  12  21  36  52  84 118 156 195 254 286 344
#
# _framework density 21.102381000000001
#
# number of rings (size 3 to 8) (size 9 to 14) (size 15 to 20)
#    0.000    0.842    4.211    5.684    5.895    0.000 
#    0.000    0.000    0.000    0.000    0.000    0.000 
#    0.000    5.053    0.000    0.000    0.000    0.000 
#
# Total GULP energy -105863.448576 kJ/mol
# GULP energy per Si atom -5571.760451 kJ/mol
# Density = 2.105435 g / cm^3
# Si number density = 21.102381 Si / 1000 Ang^3
#
#
#
# Elastic Constant Matrix: (Units=GPa)
#
#
# Indices 1 2 3 4 5 6 
#
# 1 49.1087 5.9834 7.8348 0.0000 0.0000 0.0000
# 2 5.9834 57.4248 4.1824 0.0000 0.0000 0.0000
# 3 7.8348 4.1824 91.8004 0.0000 0.0000 0.0000
# 4 0.0000 0.0000 0.0000 -1.7704 0.0000 0.0000
# 5 0.0000 0.0000 0.0000 0.0000 46.6277 0.0000
# 6 0.0000 0.0000 0.0000 0.0000 0.0000 22.7018
#
#
#
# Elastic Compliance Matrix: (Units=1/GPa)
#
#
# Indices 1 2 3 4 5 6 
#
# 1 0.020883 -0.002053 -0.001689 0.000000 0.000000 0.000000
# 2 -0.002053 0.017674 -0.000630 0.000000 0.000000 0.000000
# 3 -0.001689 -0.000630 0.011066 0.000000 0.000000 0.000000
# 4 0.000000 0.000000 0.000000 -0.564847 0.000000 0.000000
# 5 0.000000 0.000000 0.000000 0.000000 0.021446 0.000000
# 6 0.000000 0.000000 0.000000 0.000000 0.000000 0.044049
#
#
# Mechanical properties :
#
#
# Convention : Reuss Voigt Hill
#
# Bulk Modulus (GPa) = 24.46231 26.03725 25.24978
# Shear Modulus (GPa) = -11.69976 25.53404 6.91714
#
# Velocity S-wave (km/s) = -2.35718 3.48229 1.81246
# Velocity P-wave (km/s) = 2.05157 5.34170 4.04615
#
# Compressibility (1/GPa) = 0.04087921
#
# Stress axis : x y z
#
# Youngs Moduli (GPa) = 47.88687 56.58073 90.36670
#
# Poissons Ratio (x) = 0.11615 0.15260
# Poissons Ratio (y) = 0.09831 0.05693
# Poissons Ratio (z) = 0.08087 0.03565
#
# Static dielectric constant tensor:
#      x y z
#    x 1.825840 0.000000 0.000000 
#    y 0.000000 1.626550 0.000000 
#    z 0.000000 0.000000 1.515870 
# 
# From -- ./inp_files/4989.got.cif
#   From: 2010.05.17/outbox.cif.g08.bks.cpg/sg21_3_cif.got.tgz:4989.got - 2010.06.03 23:14:55.
