data_PCOD9324033
_publ_section_title
;
Structure prediction by ZEFSAII (Michael W. Deem and Ramdas Pophale) SiO2 
 PCOD9324033
Probable space group: C 2 2 2
;
_chemical_formula_sum "Si O2"
_cell_formula_units_Z 48
_cell_length_a 8.983319
_cell_length_b 17.995912
_cell_length_c 14.882428
_cell_angle_alpha 90.000000
_cell_angle_beta 90.000000
_cell_angle_gamma 90.000000
_cell_volume 2405.938229
_symmetry_space_group_name_H-M "C 2 2 2"
_symmetry_group_IT_number 21
_symmetry_cell_setting 'orthorhombic'
loop_
_space_group_symop_operation_xyz
x,y,z
-x,-y,z
x,-y,-z
-x,y,-z
1/2+x,1/2+y,z
1/2-x,1/2-y,z
1/2+x,1/2-y,-z
1/2-x,1/2+y,-z
loop_
_atom_site_type_symbol
_atom_site_label
_atom_site_fract_x
_atom_site_fract_y
_atom_site_fract_z
Si Si1 0.892270 0.151384 0.223969
Si Si2 0.437443 0.082503 0.597384
Si Si3 0.538653 0.819341 0.769871
Si Si4 0.577355 0.419693 0.411102
Si Si5 0.866613 0.314205 0.939627
Si Si6 0.646730 0.418319 0.041870
O O1 0.715486 0.167641 0.223071
O O2 0.974222 0.230470 0.213591
O O3 0.950023 0.122414 0.318719
O O4 0.893839 0.089134 0.146589
O O5 0.500000 0.103794 0.500000
O O6 0.489424 0.141277 0.673660
O O7 0.257713 0.076750 0.585410
O O8 0.500000 0.000000 0.619769
O O9 0.435924 0.850859 0.849829
O O10 0.500000 0.500000 0.404193
O O11 0.500000 0.385142 0.500000
O O12 0.750000 0.250000 0.916771
O O13 0.785507 0.371909 0.006147
O O14 0.000000 0.283090 0.000000
O O15 0.661370 0.500000 0.000000
O O16 0.500000 0.382988 0.000000
#
# Coordination Sequence:
#
# PCOD9324033 Si02
#       6
#     8   8   8   8   8   8
#     4  10  21  42  62  88 133 161 211 265 322 381
#     4  10  21  41  64  90 132 164 206 272 327 389
#     4  10  22  40  64  91 121 176 206 260 328 378
#     4  10  21  38  65  93 119 167 209 261 324 390
#     4  12  23  41  65  90 129 171 218 268 321 394
#     4  11  25  42  63  92 125 171 214 267 328 384
#
# _framework density 19.950637
#
# number of rings (size 3 to 8) (size 9 to 14) (size 15 to 20)
#    0.000    1.500    1.667    4.500    2.333    3.667 
#    9.000    0.000    0.000    0.000    0.000    0.000 
#    0.000    0.000    0.000    0.000    0.000    0.000 
#
# Total GULP energy -133651.864244 kJ/mol
# GULP energy per Si atom -5568.827677 kJ/mol
# Density = 1.990523 g / cm^3
# Si number density = 19.950637 Si / 1000 Ang^3
#
#
#
# Elastic Constant Matrix: (Units=GPa)
#
#
# Indices 1 2 3 4 5 6 
#
# 1 82.2455 21.9544 41.9738 0.0000 0.0000 0.0000
# 2 21.9544 76.3084 55.1720 0.0000 0.0000 0.0000
# 3 41.9738 55.1720 169.5053 0.0000 0.0000 0.0000
# 4 0.0000 0.0000 0.0000 38.7541 0.0000 0.0000
# 5 0.0000 0.0000 0.0000 0.0000 35.9096 0.0000
# 6 0.0000 0.0000 0.0000 0.0000 0.0000 4.7411
#
#
#
# Elastic Compliance Matrix: (Units=1/GPa)
#
#
# Indices 1 2 3 4 5 6 
#
# 1 0.014150 -0.002011 -0.002849 0.000000 0.000000 0.000000
# 2 -0.002011 0.017424 -0.005173 0.000000 0.000000 0.000000
# 3 -0.002849 -0.005173 0.008289 0.000000 0.000000 0.000000
# 4 0.000000 0.000000 0.000000 0.025804 0.000000 0.000000
# 5 0.000000 0.000000 0.000000 0.000000 0.027848 0.000000
# 6 0.000000 0.000000 0.000000 0.000000 0.000000 0.210924
#
#
# Mechanical properties :
#
#
# Convention : Reuss Voigt Hill
#
# Bulk Modulus (GPa) = 50.51698 62.91774 56.71736
# Shear Modulus (GPa) = 15.10107 29.81154 22.45630
#
# Velocity S-wave (km/s) = 2.75421 3.86977 3.35863
# Velocity P-wave (km/s) = 5.95736 7.18136 6.59781
#
# Compressibility (1/GPa) = 0.01979532
#
# Stress axis : x y z
#
# Youngs Moduli (GPa) = 70.67325 57.39358 120.64322
#
# Poissons Ratio (x) = 0.11541 0.34375
# Poissons Ratio (y) = 0.14211 0.62411
# Poissons Ratio (z) = 0.20137 0.29691
#
# Static dielectric constant tensor:
#      x y z
#    x 1.716580 0.000000 0.000000 
#    y 0.000000 1.730840 0.000000 
#    z 0.000000 0.000000 1.810530 
# 
# From -- ./inp_files/30524.got.cif
#   From: 2010.05.17/outbox.cif.g08.bks.cpg/sg21_16_cif.got.tgz:30524.got - 2010.06.03 23:14:55.
