data_PCOD9324930
_publ_section_title
;
Structure prediction by ZEFSAII (Michael W. Deem and Ramdas Pophale) SiO2 
 PCOD9324930
Probable space group: C 2 2 2
;
_chemical_formula_sum "Si O2"
_cell_formula_units_Z 64
_cell_length_a 27.570038
_cell_length_b 13.248456
_cell_length_c 9.415283
_cell_angle_alpha 90.000000
_cell_angle_beta 90.000000
_cell_angle_gamma 90.000000
_cell_volume 3439.030368
_symmetry_space_group_name_H-M "C 2 2 2"
_symmetry_group_IT_number 21
_symmetry_cell_setting 'orthorhombic'
loop_
_space_group_symop_operation_xyz
x,y,z
-x,-y,z
x,-y,-z
-x,y,-z
1/2+x,1/2+y,z
1/2-x,1/2-y,z
1/2+x,1/2-y,-z
1/2-x,1/2+y,-z
loop_
_atom_site_type_symbol
_atom_site_label
_atom_site_fract_x
_atom_site_fract_y
_atom_site_fract_z
Si Si1 0.052891 0.382129 0.968681
Si Si2 0.358322 0.410085 0.099065
Si Si3 0.610448 0.797599 0.214198
Si Si4 0.880517 0.646655 0.725189
Si Si5 0.320458 0.956047 0.662454
Si Si6 0.289288 0.508424 0.332487
Si Si7 0.944672 0.378661 0.528783
Si Si8 0.300892 0.299937 0.846904
O O1 0.069402 0.360446 0.810525
O O2 0.049582 0.500000 0.000000
O O3 0.097566 0.343242 0.061902
O O4 0.000000 0.336680 0.000000
O O5 0.387856 0.321314 0.179274
O O6 0.327886 0.459248 0.226624
O O7 0.381561 0.500000 0.000000
O O8 0.323319 0.355168 0.984405
O O9 0.657715 0.848420 0.288248
O O10 0.567989 0.841322 0.314224
O O11 0.853469 0.539334 0.740549
O O12 0.901182 0.666015 0.567778
O O13 0.842191 0.726739 0.783676
O O14 0.323871 0.000000 0.500000
O O15 0.263732 0.961327 0.694854
O O16 0.300409 0.500000 0.500000
O O17 0.287523 0.623452 0.280039
O O18 0.941588 0.500000 0.500000
O O19 0.000000 0.349214 0.500000
O O20 0.250000 0.250000 0.888512
#
# Coordination Sequence:
#
# PCOD9324930 Si02
#       8
#     8   8   8   8   8   8   8   8
#     4  11  22  35  56  91 126 155 198 244 304 380
#     4  10  25  44  59  86 120 162 215 262 308 362
#     4  12  21  37  62  88 119 170 202 247 318 370
#     4  12  20  37  57  88 128 168 198 246 302 370
#     4  11  21  36  55  92 132 157 205 247 302 371
#     4  10  24  41  60  87 118 162 210 263 302 355
#     4  11  22  38  61  94 134 165 200 257 320 388
#     4  11  23  39  59  88 125 168 204 251 307 369
#
# _framework density 18.609898000000001
#
# number of rings (size 3 to 8) (size 9 to 14) (size 15 to 20)
#    0.000    1.000    6.250    0.750    3.500    2.000 
#    2.250    0.000    0.000    0.375    0.000    3.500 
#    0.000    0.000    0.000    0.000    0.000    0.000 
#
# Total GULP energy -178206.011729 kJ/mol
# GULP energy per Si atom -5568.937867 kJ/mol
# Density = 1.856754 g / cm^3
# Si number density = 18.609898 Si / 1000 Ang^3
#
#
#
# Elastic Constant Matrix: (Units=GPa)
#
#
# Indices 1 2 3 4 5 6 
#
# 1 49.6358 13.5330 0.5184 0.0000 0.0000 0.0000
# 2 13.5330 75.3699 13.0497 0.0000 0.0000 0.0000
# 3 0.5184 13.0497 65.0147 0.0000 0.0000 0.0000
# 4 0.0000 0.0000 0.0000 21.8166 0.0000 0.0000
# 5 0.0000 0.0000 0.0000 0.0000 15.6251 0.0000
# 6 0.0000 0.0000 0.0000 0.0000 0.0000 9.2687
#
#
#
# Elastic Compliance Matrix: (Units=1/GPa)
#
#
# Indices 1 2 3 4 5 6 
#
# 1 0.021208 -0.003915 0.000617 0.000000 0.000000 0.000000
# 2 -0.003915 0.014468 -0.002873 0.000000 0.000000 0.000000
# 3 0.000617 -0.002873 0.015953 0.000000 0.000000 0.000000
# 4 0.000000 0.000000 0.000000 0.045837 0.000000 0.000000
# 5 0.000000 0.000000 0.000000 0.000000 0.063999 0.000000
# 6 0.000000 0.000000 0.000000 0.000000 0.000000 0.107889
#
#
# Mechanical properties :
#
#
# Convention : Reuss Voigt Hill
#
# Bulk Modulus (GPa) = 25.45375 27.13585 26.29480
# Shear Modulus (GPa) = 16.96113 20.20338 18.58226
#
# Velocity S-wave (km/s) = 3.02222 3.29846 3.16336
# Velocity P-wave (km/s) = 5.08779 5.39625 5.24429
#
# Compressibility (1/GPa) = 0.03928695
#
# Stress axis : x y z
#
# Youngs Moduli (GPa) = 47.15283 69.11709 62.68472
#
# Poissons Ratio (x) = 0.27057 -0.03866
# Poissons Ratio (y) = 0.18459 0.18008
# Poissons Ratio (z) = -0.02908 0.19856
#
# Static dielectric constant tensor:
#      x y z
#    x 1.646830 0.000000 0.000000 
#    y 0.000000 1.670040 0.000000 
#    z 0.000000 0.000000 1.656200 
# 
# From -- ./inp_files/19815.got.cif
#   From: 2010.05.17/outbox.cif.g08.bks.cpg/sg21_10_cif.got.tgz:19815.got - 2010.06.03 23:14:55.
