data_PCOD9324757
_publ_section_title
;
Structure prediction by ZEFSAII (Michael W. Deem and Ramdas Pophale) SiO2 
 PCOD9324757
Probable space group: C 2 2 2
;
_chemical_formula_sum "Si O2"
_cell_formula_units_Z 44
_cell_length_a 14.118874
_cell_length_b 32.959610
_cell_length_c 5.436643
_cell_angle_alpha 90.000000
_cell_angle_beta 90.000000
_cell_angle_gamma 90.000000
_cell_volume 2529.955850
_symmetry_space_group_name_H-M "C 2 2 2"
_symmetry_group_IT_number 21
_symmetry_cell_setting 'orthorhombic'
loop_
_space_group_symop_operation_xyz
x,y,z
-x,-y,z
x,-y,-z
-x,y,-z
1/2+x,1/2+y,z
1/2-x,1/2-y,z
1/2+x,1/2-y,-z
1/2-x,1/2+y,-z
loop_
_atom_site_type_symbol
_atom_site_label
_atom_site_fract_x
_atom_site_fract_y
_atom_site_fract_z
Si Si1 0.600560 0.227299 0.079304
Si Si2 0.442008 0.687201 0.255119
Si Si3 0.614678 0.094735 0.505214
Si Si4 0.614165 0.953840 0.995368
Si Si5 0.235891 0.671361 0.363870
Si Si6 0.750000 0.250000 0.700114
O O1 0.580697 0.264109 0.267598
O O2 0.667514 0.191165 0.161133
O O3 0.500000 0.210534 0.000000
O O4 0.656633 0.250146 0.865649
O O5 0.500000 0.676222 0.500000
O O6 0.340981 0.664197 0.258786
O O7 0.500000 0.681144 0.000000
O O8 0.500000 0.103230 0.500000
O O9 0.637266 0.068429 0.260615
O O10 0.679295 0.134565 0.484141
O O11 0.638212 0.070925 0.757165
O O12 0.500000 0.956255 0.000000
O O13 0.651010 0.000000 0.000000
O O14 0.247225 0.708733 0.550335
#
# Coordination Sequence:
#
# PCOD9324757 Si02
#       6
#     8   8   8   8   8   4
#     4  11  24  35  54  73 105 154 201 246 291 344
#     4  11  23  40  58  74 100 151 207 242 283 338
#     4  10  23  34  56  88 118 152 189 237 289 337
#     4   9  18  37  58  82 117 156 188 219 278 362
#     4  12  24  37  54  82 115 149 201 254 293 341
#     4  12  22  40  52  74 112 162 202 238 304 336
#
# _framework density 17.39161
#
# number of rings (size 3 to 8) (size 9 to 14) (size 15 to 20)
#    0.000    1.273    3.636    2.727    5.091    2.909 
#    0.000    0.000    0.000    0.000    0.000    0.000 
#    0.000   10.909    0.000    0.000    0.000    0.000 
#
# Total GULP energy -122761.939438 kJ/mol
# GULP energy per Si atom -5580.088156 kJ/mol
# Density = 1.735203 g / cm^3
# Si number density = 17.391610 Si / 1000 Ang^3
#
#
#
# Elastic Constant Matrix: (Units=GPa)
#
#
# Indices 1 2 3 4 5 6 
#
# 1 128.2765 46.3113 56.5171 0.0000 0.0000 0.0000
# 2 46.3113 114.3641 62.6273 0.0000 0.0000 0.0000
# 3 56.5171 62.6273 123.2992 0.0000 0.0000 0.0000
# 4 0.0000 0.0000 0.0000 8.1122 0.0000 0.0000
# 5 0.0000 0.0000 0.0000 0.0000 8.1171 0.0000
# 6 0.0000 0.0000 0.0000 0.0000 0.0000 16.9182
#
#
#
# Elastic Compliance Matrix: (Units=1/GPa)
#
#
# Indices 1 2 3 4 5 6 
#
# 1 0.010140 -0.002162 -0.003550 0.000000 0.000000 0.000000
# 2 -0.002162 0.012574 -0.005396 0.000000 0.000000 0.000000
# 3 -0.003550 -0.005396 0.012478 0.000000 0.000000 0.000000
# 4 0.000000 0.000000 0.000000 0.123271 0.000000 0.000000
# 5 0.000000 0.000000 0.000000 0.000000 0.123196 0.000000
# 6 0.000000 0.000000 0.000000 0.000000 0.000000 0.059108
#
#
# Mechanical properties :
#
#
# Convention : Reuss Voigt Hill
#
# Bulk Modulus (GPa) = 77.05853 77.42790 77.24321
# Shear Modulus (GPa) = 13.61249 19.99512 16.80380
#
# Velocity S-wave (km/s) = 2.80072 3.39440 3.11175
# Velocity P-wave (km/s) = 7.40694 7.74464 7.57767
#
# Compressibility (1/GPa) = 0.01297715
#
# Stress axis : x y z
#
# Youngs Moduli (GPa) = 98.61641 79.52642 80.14046
#
# Poissons Ratio (x) = 0.17197 0.28447
# Poissons Ratio (y) = 0.21325 0.43242
# Poissons Ratio (z) = 0.35006 0.42910
#
# Static dielectric constant tensor:
#      x y z
#    x 1.628520 0.000000 0.000000 
#    y 0.000000 1.589810 0.000000 
#    z 0.000000 0.000000 1.665870 
# 
# From -- ./inp_files/4040.got.cif
#   From: 2010.05.17/outbox.cif.g08.bks.cpg/sg21_3_cif.got.tgz:4040.got - 2010.06.03 23:14:55.
