data_PCOD9324284
_publ_section_title
;
Structure prediction by ZEFSAII (Michael W. Deem and Ramdas Pophale) SiO2 
 PCOD9324284
Probable space group: C 2 2 2
;
_chemical_formula_sum "Si O2"
_cell_formula_units_Z 36
_cell_length_a 8.713422
_cell_length_b 25.034828
_cell_length_c 7.601743
_cell_angle_alpha 90.000000
_cell_angle_beta 90.000000
_cell_angle_gamma 90.000000
_cell_volume 1658.236776
_symmetry_space_group_name_H-M "C 2 2 2"
_symmetry_group_IT_number 21
_symmetry_cell_setting 'orthorhombic'
loop_
_space_group_symop_operation_xyz
x,y,z
-x,-y,z
x,-y,-z
-x,y,-z
1/2+x,1/2+y,z
1/2-x,1/2-y,z
1/2+x,1/2-y,-z
1/2-x,1/2+y,-z
loop_
_atom_site_type_symbol
_atom_site_label
_atom_site_fract_x
_atom_site_fract_y
_atom_site_fract_z
Si Si1 0.500000 0.738824 0.500000
Si Si2 0.162825 0.857878 0.354822
Si Si3 0.062071 0.943966 0.798699
Si Si4 0.541894 0.823197 0.805020
Si Si5 0.867281 0.421477 0.626882
O O1 0.365957 0.696098 0.465077
O O2 0.499150 0.776698 0.668500
O O3 0.278793 0.839164 0.203153
O O4 0.255641 0.896911 0.480386
O O5 0.016073 0.891058 0.287065
O O6 0.245373 0.947482 0.762737
O O7 0.000000 0.000000 0.722350
O O8 0.000000 0.942289 0.000000
O O9 0.450254 0.875088 0.737806
O O10 0.500000 0.807501 0.000000
O O11 0.000000 0.445949 0.500000
#
# Coordination Sequence:
#
# PCOD9324284 Si02
#       5
#     4   8   8   8   8
#     4  12  22  42  65  94 139 182 236 280 350 424
#     4  11  22  42  65  92 135 177 227 291 344 413
#     4  11  24  43  69 102 137 178 234 293 361 432
#     4  11  24  42  65  98 139 182 230 287 352 417
#     4  10  21  43  69  95 135 181 231 289 345 426
#
# _framework density 21.709807000000001
#
# number of rings (size 3 to 8) (size 9 to 14) (size 15 to 20)
#    0.000    1.111    5.556    2.000    0.000    2.667 
#    8.000    7.778    0.000   12.000    0.000    0.000 
#    0.000    0.000    0.000    0.000    0.000    0.000 
#
# Total GULP energy -100317.814336 kJ/mol
# GULP energy per Si atom -5573.211908 kJ/mol
# Density = 2.166039 g / cm^3
# Si number density = 21.709807 Si / 1000 Ang^3
#
#
#
# Elastic Constant Matrix: (Units=GPa)
#
#
# Indices 1 2 3 4 5 6 
#
# 1 131.1443 35.7168 31.2829 0.0000 0.0000 0.0000
# 2 35.7168 111.1943 26.2861 0.0000 0.0000 0.0000
# 3 31.2829 26.2861 127.1455 0.0000 0.0000 0.0000
# 4 0.0000 0.0000 0.0000 12.5435 0.0000 0.0000
# 5 0.0000 0.0000 0.0000 0.0000 37.6283 0.0000
# 6 0.0000 0.0000 0.0000 0.0000 0.0000 -30.3213
#
#
#
# Elastic Compliance Matrix: (Units=1/GPa)
#
#
# Indices 1 2 3 4 5 6 
#
# 1 0.008669 -0.002397 -0.001637 0.000000 0.000000 0.000000
# 2 -0.002397 0.010118 -0.001502 0.000000 0.000000 0.000000
# 3 -0.001637 -0.001502 0.008578 0.000000 0.000000 0.000000
# 4 0.000000 0.000000 0.000000 0.079722 0.000000 0.000000
# 5 0.000000 0.000000 0.000000 0.000000 0.026576 0.000000
# 6 0.000000 0.000000 0.000000 0.000000 0.000000 -0.032980
#
#
# Mechanical properties :
#
#
# Convention : Reuss Voigt Hill
#
# Bulk Modulus (GPa) = 61.37932 61.78396 61.58164
# Shear Modulus (GPa) = 42.66671 22.38333 32.52502
#
# Velocity S-wave (km/s) = 4.43800 3.21444 3.87482
# Velocity P-wave (km/s) = 7.38885 6.50366 6.96034
#
# Compressibility (1/GPa) = 0.01629213
#
# Stress axis : x y z
#
# Youngs Moduli (GPa) = 115.35812 98.82960 116.57264
#
# Poissons Ratio (x) = 0.23694 0.19085
# Poissons Ratio (y) = 0.27656 0.17509
# Poissons Ratio (z) = 0.18886 0.14844
#
# Static dielectric constant tensor:
#      x y z
#    x 1.937530 0.000000 0.000000 
#    y 0.000000 1.781850 0.000000 
#    z 0.000000 0.000000 1.809880 
# 
# From -- ./inp_files/10579.got.cif
#   From: 2010.05.17/outbox.cif.g08.bks.cpg/sg21_6_cif.got.tgz:10579.got - 2010.06.03 23:14:55.
