data_PCOD9324340
_publ_section_title
;
Structure prediction by ZEFSAII (Michael W. Deem and Ramdas Pophale) SiO2 
 PCOD9324340
Probable space group: C 2 2 2
;
_chemical_formula_sum "Si O2"
_cell_formula_units_Z 64
_cell_length_a 9.519891
_cell_length_b 15.323008
_cell_length_c 22.935209
_cell_angle_alpha 90.000000
_cell_angle_beta 90.000000
_cell_angle_gamma 90.000000
_cell_volume 3345.636136
_symmetry_space_group_name_H-M "C 2 2 2"
_symmetry_group_IT_number 21
_symmetry_cell_setting 'orthorhombic'
loop_
_space_group_symop_operation_xyz
x,y,z
-x,-y,z
x,-y,-z
-x,y,-z
1/2+x,1/2+y,z
1/2-x,1/2-y,z
1/2+x,1/2-y,-z
1/2-x,1/2+y,-z
loop_
_atom_site_type_symbol
_atom_site_label
_atom_site_fract_x
_atom_site_fract_y
_atom_site_fract_z
Si Si1 0.668807 0.341167 0.350128
Si Si2 0.043509 0.096442 0.859437
Si Si3 0.790932 0.148694 0.781905
Si Si4 0.275730 0.853497 0.222670
Si Si5 0.523350 0.901259 0.152922
Si Si6 0.170365 0.999660 0.566448
Si Si7 0.080834 0.256715 0.939756
Si Si8 0.670592 0.342093 0.650851
O O1 0.750000 0.250000 0.359807
O O2 0.716927 0.374157 0.286238
O O3 0.708665 0.413519 0.397785
O O4 0.499319 0.328832 0.349779
O O5 0.194769 0.097538 0.828970
O O6 0.036525 0.164850 0.911359
O O7 0.943413 0.132014 0.808108
O O8 0.000000 0.000000 0.876645
O O9 0.750000 0.250000 0.780906
O O10 0.683483 0.107284 0.827476
O O11 0.789469 0.120034 0.714709
O O12 0.250000 0.750000 0.213683
O O13 0.436419 0.877954 0.211869
O O14 0.469054 0.831842 0.105358
O O15 0.500000 0.000000 0.133504
O O16 0.221859 0.000000 0.500000
O O17 0.209917 0.912765 0.601969
O O18 0.000000 0.000000 0.564938
O O19 0.250000 0.250000 0.946301
O O20 0.000000 0.270746 0.000000
O O21 0.750000 0.250000 0.642906
#
# Coordination Sequence:
#
# PCOD9324340 Si02
#       8
#     8   8   8   8   8   8   8   8
#     4  10  22  36  61  92 124 166 212 258 314 375
#     4  12  23  40  68  95 124 162 205 254 313 367
#     4  11  22  37  62  97 132 159 201 258 321 374
#     4  11  20  41  62  91 132 167 199 259 317 376
#     4  12  25  42  66  97 128 166 203 254 321 372
#     4   9  20  40  62  86 126 175 218 255 310 379
#     4  12  28  51  68  90 127 170 211 255 303 375
#     4  10  22  37  58  95 126 162 209 267 311 369
#
# _framework density 19.129396
#
# number of rings (size 3 to 8) (size 9 to 14) (size 15 to 20)
#    0.000    1.125    5.000    0.750   10.500    1.000 
#    0.000    1.875    0.000    0.750    0.000    0.000 
#    0.000    0.000    0.000    0.000    0.000    0.000 
#
# Total GULP energy -178720.160273 kJ/mol
# GULP energy per Si atom -5585.005009 kJ/mol
# Density = 1.908586 g / cm^3
# Si number density = 19.129396 Si / 1000 Ang^3
#
#
#
# Elastic Constant Matrix: (Units=GPa)
#
#
# Indices 1 2 3 4 5 6 
#
# 1 41.4938 20.7102 35.1606 0.0000 0.0000 0.0000
# 2 20.7102 123.1666 65.1359 0.0000 0.0000 0.0000
# 3 35.1606 65.1359 135.9051 0.0000 0.0000 0.0000
# 4 0.0000 0.0000 0.0000 -10.5908 0.0000 0.0000
# 5 0.0000 0.0000 0.0000 0.0000 93.7784 0.0000
# 6 0.0000 0.0000 0.0000 0.0000 0.0000 30.5782
#
#
#
# Elastic Compliance Matrix: (Units=1/GPa)
#
#
# Indices 1 2 3 4 5 6 
#
# 1 0.031022 -0.001302 -0.007402 0.000000 0.000000 0.000000
# 2 -0.001302 0.010930 -0.004902 0.000000 0.000000 0.000000
# 3 -0.007402 -0.004902 0.011622 0.000000 0.000000 0.000000
# 4 0.000000 0.000000 0.000000 -0.094422 0.000000 0.000000
# 5 0.000000 0.000000 0.000000 0.000000 0.010663 0.000000
# 6 0.000000 0.000000 0.000000 0.000000 0.000000 0.032703
#
#
# Mechanical properties :
#
#
# Convention : Reuss Voigt Hill
#
# Bulk Modulus (GPa) = 37.93125 60.28654 49.10890
# Shear Modulus (GPa) = 129.80903 34.72376 82.26639
#
# Velocity S-wave (km/s) = 8.24656 4.26514 6.56495
# Velocity P-wave (km/s) = 10.51409 7.47254 9.12099
#
# Compressibility (1/GPa) = 0.02636349
#
# Stress axis : x y z
#
# Youngs Moduli (GPa) = 32.23534 91.48904 86.04120
#
# Poissons Ratio (x) = 0.11910 0.63686
# Poissons Ratio (y) = 0.04197 0.42176
# Poissons Ratio (z) = 0.23860 0.44846
#
# Static dielectric constant tensor:
#      x y z
#    x 1.633590 0.000000 0.000000 
#    y 0.000000 1.578810 0.000000 
#    z 0.000000 0.000000 1.649100 
# 
# From -- ./inp_files/38519.got.cif
#   From: 2010.05.17/outbox.cif.g08.bks.cpg/sg21_20_cif.got.tgz:38519.got - 2010.06.03 23:14:55.
