data_PCOD9324564
_publ_section_title
;
Structure prediction by ZEFSAII (Michael W. Deem and Ramdas Pophale) SiO2 
 PCOD9324564
Probable space group: C 2 2 2
;
_chemical_formula_sum "Si O2"
_cell_formula_units_Z 40
_cell_length_a 14.493844
_cell_length_b 9.946742
_cell_length_c 12.299690
_cell_angle_alpha 90.000000
_cell_angle_beta 90.000000
_cell_angle_gamma 90.000000
_cell_volume 1773.203589
_symmetry_space_group_name_H-M "C 2 2 2"
_symmetry_group_IT_number 21
_symmetry_cell_setting 'orthorhombic'
loop_
_space_group_symop_operation_xyz
x,y,z
-x,-y,z
x,-y,-z
-x,y,-z
1/2+x,1/2+y,z
1/2-x,1/2-y,z
1/2+x,1/2-y,-z
1/2-x,1/2+y,-z
loop_
_atom_site_type_symbol
_atom_site_label
_atom_site_fract_x
_atom_site_fract_y
_atom_site_fract_z
Si Si1 0.481973 0.728441 0.874309
Si Si2 0.641923 0.082883 0.738138
Si Si3 0.705839 0.606795 0.093678
Si Si4 0.144894 0.270262 0.718052
Si Si5 0.110798 0.344657 0.491216
O O1 0.429523 0.854952 0.822444
O O2 0.402278 0.616121 0.880229
O O3 0.571540 0.702493 0.799365
O O4 0.500000 0.757850 0.000000
O O5 0.740597 0.077873 0.795258
O O6 0.637575 0.180286 0.633592
O O7 0.617651 0.928328 0.716563
O O8 0.750000 0.750000 0.057112
O O9 0.723978 0.500000 0.000000
O O10 0.250000 0.250000 0.755032
O O11 0.141622 0.244556 0.587369
O O12 0.145776 0.500000 0.500000
O O13 0.000000 0.348180 0.500000
#
# Coordination Sequence:
#
# PCOD9324564 Si02
#       5
#     8   8   8   8   8
#     4  11  25  41  62  98 132 178 228 276 351 410
#     4  10  22  41  69  91 135 178 234 286 340 425
#     4  10  25  45  68 101 139 188 235 288 348 421
#     4  11  24  38  65 101 134 176 229 292 348 421
#     4   9  17  38  63  94 126 172 231 282 346 411
#
# _framework density 22.558040999999999
#
# number of rings (size 3 to 8) (size 9 to 14) (size 15 to 20)
#    0.000    1.800    2.000    0.600    8.400    3.600 
#    0.000    0.000    0.000    0.000    0.000    0.000 
#    0.000    0.000    0.000    0.000    0.000    0.000 
#
# Total GULP energy -111602.597578 kJ/mol
# GULP energy per Si atom -5580.129879 kJ/mol
# Density = 2.250670 g / cm^3
# Si number density = 22.558041 Si / 1000 Ang^3
#
#
#
# Elastic Constant Matrix: (Units=GPa)
#
#
# Indices 1 2 3 4 5 6 
#
# 1 136.1630 1.0210 84.6712 0.0000 0.0000 0.0000
# 2 1.0210 45.7952 16.3992 0.0000 0.0000 0.0000
# 3 84.6712 16.3992 188.0687 0.0000 0.0000 0.0000
# 4 0.0000 0.0000 0.0000 0.5208 0.0000 0.0000
# 5 0.0000 0.0000 0.0000 0.0000-1625.6288 0.0000
# 6 0.0000 0.0000 0.0000 0.0000 0.0000 18.8555
#
#
#
# Elastic Compliance Matrix: (Units=1/GPa)
#
#
# Indices 1 2 3 4 5 6 
#
# 1 0.010295 0.001476 -0.004764 0.000000 0.000000 0.000000
# 2 0.001476 0.022752 -0.002649 0.000000 0.000000 0.000000
# 3 -0.004764 -0.002649 0.007693 0.000000 0.000000 0.000000
# 4 0.000000 0.000000 0.000000 1.920277 0.000000 0.000000
# 5 0.000000 0.000000 0.000000 0.000000 -0.000615 0.000000
# 6 0.000000 0.000000 0.000000 0.000000 0.000000 0.053035
#
#
# Mechanical properties :
#
#
# Convention : Reuss Voigt Hill
#
# Bulk Modulus (GPa) = 34.64034 63.80107 49.22071
# Shear Modulus (GPa) = 2.45708 -303.38813 -150.46552
#
# Velocity S-wave (km/s) = 1.04479 -11.60966 -8.17596
# Velocity P-wave (km/s) = 4.10425 12.30316 8.20131
#
# Compressibility (1/GPa) = 0.02886807
#
# Stress axis : x y z
#
# Youngs Moduli (GPa) = 97.13043 43.95237 129.98947
#
# Poissons Ratio (x) = -0.06489 0.61926
# Poissons Ratio (y) = -0.14340 0.34429
# Poissons Ratio (z) = 0.46272 0.11641
#
# Static dielectric constant tensor:
#      x y z
#    x 1.859030 0.000000 0.000000 
#    y 0.000000 1.948720 0.000000 
#    z 0.000000 0.000000 1.979370 
# 
# From -- ./inp_files/24986.got.cif
#   From: 2010.05.17/outbox.cif.g08.bks.cpg/sg21_13_cif.got.tgz:24986.got - 2010.06.03 23:14:55.
