data_PCOD9324651
_publ_section_title
;
Structure prediction by ZEFSAII (Michael W. Deem and Ramdas Pophale) SiO2 
 PCOD9324651
Probable space group: C 2 2 2
;
_chemical_formula_sum "Si O2"
_cell_formula_units_Z 58
_cell_length_a 29.431683
_cell_length_b 16.780360
_cell_length_c 5.357962
_cell_angle_alpha 90.000000
_cell_angle_beta 90.000000
_cell_angle_gamma 90.000000
_cell_volume 2646.159390
_symmetry_space_group_name_H-M "C 2 2 2"
_symmetry_group_IT_number 21
_symmetry_cell_setting 'orthorhombic'
loop_
_space_group_symop_operation_xyz
x,y,z
-x,-y,z
x,-y,-z
-x,y,-z
1/2+x,1/2+y,z
1/2-x,1/2-y,z
1/2+x,1/2-y,-z
1/2-x,1/2+y,-z
loop_
_atom_site_type_symbol
_atom_site_label
_atom_site_fract_x
_atom_site_fract_y
_atom_site_fract_z
Si Si1 0.628764 0.832450 0.210498
Si Si2 0.029033 0.308027 0.239807
Si Si3 0.000000 0.000000 0.000000
Si Si4 0.361418 0.328831 0.490351
Si Si5 0.303070 0.552796 0.756396
Si Si6 0.699802 0.234207 0.188224
Si Si7 0.290189 0.090201 0.414895
Si Si8 0.545060 0.371404 0.659571
O O1 0.576295 0.855020 0.207742
O O2 0.629464 0.762171 0.416180
O O3 0.661359 0.903438 0.286035
O O4 0.657816 0.795108 0.982474
O O5 0.044333 0.214863 0.207238
O O6 0.000000 0.315675 0.500000
O O7 0.000000 0.329140 0.000000
O O8 0.965392 0.055820 0.842885
O O9 0.340348 0.378738 0.264414
O O10 0.320785 0.315321 0.687644
O O11 0.410475 0.370544 0.519407
O O12 0.308287 0.500000 0.500000
O O13 0.254158 0.595842 0.757481
O O14 0.308212 0.500000 0.000000
O O15 0.750000 0.250000 0.073972
O O16 0.710304 0.162309 0.385546
O O17 0.286362 0.000000 0.500000
O O18 0.500000 0.370734 0.500000
#
# Coordination Sequence:
#
# PCOD9324651 Si02
#       8
#     8   8   2   8   8   8   8   8
#     4  10  25  37  70  99 124 180 220 282 347 408
#     4  10  22  43  68  96 129 164 221 285 337 403
#     4  12  22  36  56  90 116 180 234 286 350 404
#     4  10  24  42  60  93 131 179 231 288 342 407
#     4  11  26  42  63  93 134 186 231 276 338 405
#     4  11  23  40  68 101 140 175 234 287 345 420
#     4  10  24  42  62  96 137 180 223 273 347 419
#     4  10  23  39  59  83 126 171 225 286 345 400
#
# _framework density 21.918558999999998
#
# number of rings (size 3 to 8) (size 9 to 14) (size 15 to 20)
#    0.000    1.655    2.069    0.207   16.414    1.103 
#    0.000    0.000    0.000    0.414    0.000    0.000 
#    0.000    0.000    0.000    0.000    0.000    0.000 
#
# Total GULP energy -161525.326473 kJ/mol
# GULP energy per Si atom -5569.838844 kJ/mol
# Density = 2.186867 g / cm^3
# Si number density = 21.918559 Si / 1000 Ang^3
#
#
#
# Elastic Constant Matrix: (Units=GPa)
#
#
# Indices 1 2 3 4 5 6 
#
# 1 174.4074 17.1788 22.6900 0.0000 0.0000 0.0000
# 2 17.1788 54.0680 7.1326 0.0000 0.0000 0.0000
# 3 22.6900 7.1326 59.1697 0.0000 0.0000 0.0000
# 4 0.0000 0.0000 0.0000 35.7533 0.0000 0.0000
# 5 0.0000 0.0000 0.0000 0.0000 21.1762 0.0000
# 6 0.0000 0.0000 0.0000 0.0000 0.0000 34.4307
#
#
#
# Elastic Compliance Matrix: (Units=1/GPa)
#
#
# Indices 1 2 3 4 5 6 
#
# 1 0.006181 -0.001678 -0.002168 0.000000 0.000000 0.000000
# 2 -0.001678 0.019250 -0.001677 0.000000 0.000000 0.000000
# 3 -0.002168 -0.001677 0.017934 0.000000 0.000000 0.000000
# 4 0.000000 0.000000 0.000000 0.027969 0.000000 0.000000
# 5 0.000000 0.000000 0.000000 0.000000 0.047223 0.000000
# 6 0.000000 0.000000 0.000000 0.000000 0.000000 0.029044
#
#
# Mechanical properties :
#
#
# Convention : Reuss Voigt Hill
#
# Bulk Modulus (GPa) = 30.94166 42.40532 36.67349
# Shear Modulus (GPa) = 29.51255 34.31495 31.91375
#
# Velocity S-wave (km/s) = 3.67340 3.96102 3.81992
# Velocity P-wave (km/s) = 5.66914 6.34888 6.01861
#
# Compressibility (1/GPa) = 0.03231889
#
# Stress axis : x y z
#
# Youngs Moduli (GPa) = 161.78554 51.94921 55.75978
#
# Poissons Ratio (x) = 0.08716 0.12089
# Poissons Ratio (y) = 0.27146 0.09351
# Poissons Ratio (z) = 0.35075 0.08712
#
# Static dielectric constant tensor:
#      x y z
#    x 1.928480 0.000000 0.000000 
#    y 0.000000 1.872600 0.000000 
#    z 0.000000 0.000000 2.016630 
# 
# From -- ./inp_files/7492.got.cif
#   From: 2010.05.17/outbox.cif.g08.bks.cpg/sg21_4_cif.got.tgz:7492.got - 2010.06.03 23:14:55.
