data_PCOD9324442
_publ_section_title
;
Structure prediction by ZEFSAII (Michael W. Deem and Ramdas Pophale) SiO2 
 PCOD9324442
Probable space group: C 2 2 2
;
_chemical_formula_sum "Si O2"
_cell_formula_units_Z 32
_cell_length_a 30.287532
_cell_length_b 7.110657
_cell_length_c 7.243322
_cell_angle_alpha 90.000000
_cell_angle_beta 90.000000
_cell_angle_gamma 90.000000
_cell_volume 1559.952620
_symmetry_space_group_name_H-M "C 2 2 2"
_symmetry_group_IT_number 21
_symmetry_cell_setting 'orthorhombic'
loop_
_space_group_symop_operation_xyz
x,y,z
-x,-y,z
x,-y,-z
-x,y,-z
1/2+x,1/2+y,z
1/2-x,1/2-y,z
1/2+x,1/2-y,-z
1/2-x,1/2+y,-z
loop_
_atom_site_type_symbol
_atom_site_label
_atom_site_fract_x
_atom_site_fract_y
_atom_site_fract_z
Si Si1 0.144971 0.867697 0.339618
Si Si2 0.760731 0.032766 0.214750
Si Si3 0.500000 0.500000 0.500000
Si Si4 0.445595 0.659052 0.159936
Si Si5 0.309012 0.000000 0.500000
Si Si6 0.500000 0.000000 0.000000
O O1 0.187886 0.981106 0.265544
O O2 0.106888 0.831007 0.192097
O O3 0.161733 0.669926 0.422498
O O4 0.126230 0.000000 0.500000
O O5 0.750000 0.250000 0.253868
O O6 0.724455 0.929188 0.339477
O O7 0.753681 0.000000 0.000000
O O8 0.468758 0.608418 0.354631
O O9 0.452904 0.500000 0.000000
O O10 0.467593 0.856179 0.104889
#
# Coordination Sequence:
#
# PCOD9324442 Si02
#       6
#     8   8   2   8   4   2
#     4  11  24  42  72  96 138 188 229 301 349 420
#     4  10  22  39  63  93 132 182 225 287 349 410
#     4  12  22  48  76  98 142 188 234 300 364 438
#     4  12  26  49  72 111 144 184 247 297 370 449
#     4  10  24  43  60 103 136 179 248 275 350 432
#     4  12  26  50  80 102 154 188 230 314 368 446
#
# _framework density 20.513441
#
# number of rings (size 3 to 8) (size 9 to 14) (size 15 to 20)
#    0.000    1.000    5.000    0.750    3.500    4.500 
#    9.000    0.000    0.000    0.000    0.000    0.000 
#    0.000    0.000    0.000    0.000    0.000    0.000 
#
# Total GULP energy -89296.395718 kJ/mol
# GULP energy per Si atom -5581.024732 kJ/mol
# Density = 2.046675 g / cm^3
# Si number density = 20.513441 Si / 1000 Ang^3
#
#
#
# Elastic Constant Matrix: (Units=GPa)
#
#
# Indices 1 2 3 4 5 6 
#
# 1 153.8072 59.1785 57.9024 0.0000 0.0000 0.0000
# 2 59.1785 121.0103 54.7468 0.0000 0.0000 0.0000
# 3 57.9024 54.7468 141.2669 0.0000 0.0000 0.0000
# 4 0.0000 0.0000 0.0000 32.6074 0.0000 0.0000
# 5 0.0000 0.0000 0.0000 0.0000 47.2778 0.0000
# 6 0.0000 0.0000 0.0000 0.0000 0.0000 29.8692
#
#
#
# Elastic Compliance Matrix: (Units=1/GPa)
#
#
# Indices 1 2 3 4 5 6 
#
# 1 0.008580 -0.003159 -0.002293 0.000000 0.000000 0.000000
# 2 -0.003159 0.011184 -0.003039 0.000000 0.000000 0.000000
# 3 -0.002293 -0.003039 0.009196 0.000000 0.000000 0.000000
# 4 0.000000 0.000000 0.000000 0.030668 0.000000 0.000000
# 5 0.000000 0.000000 0.000000 0.000000 0.021152 0.000000
# 6 0.000000 0.000000 0.000000 0.000000 0.000000 0.033479
#
#
# Mechanical properties :
#
#
# Convention : Reuss Voigt Hill
#
# Bulk Modulus (GPa) = 83.48313 84.41553 83.94933
# Shear Modulus (GPa) = 36.97315 38.23466 37.60391
#
# Velocity S-wave (km/s) = 4.25006 4.32196 4.28616
# Velocity P-wave (km/s) = 8.05414 8.13304 8.09369
#
# Compressibility (1/GPa) = 0.01197847
#
# Stress axis : x y z
#
# Youngs Moduli (GPa) = 116.54877 89.41684 108.73816
#
# Poissons Ratio (x) = 0.28245 0.24930
# Poissons Ratio (y) = 0.36815 0.33050
# Poissons Ratio (z) = 0.26721 0.27177
#
# Static dielectric constant tensor:
#      x y z
#    x 1.767490 0.000000 0.000000 
#    y 0.000000 1.724090 0.000000 
#    z 0.000000 0.000000 1.752440 
# 
# From -- ./inp_files/7808.got.cif
#   From: 2010.05.17/outbox.cif.g08.bks.cpg/sg21_4_cif.got.tgz:7808.got - 2010.06.03 23:14:55.
