data_PCOD9324510
_publ_section_title
;
Structure prediction by ZEFSAII (Michael W. Deem and Ramdas Pophale) SiO2 
 PCOD9324510
Probable space group: C 2 2 2
;
_chemical_formula_sum "Si O2"
_cell_formula_units_Z 34
_cell_length_a 15.141518
_cell_length_b 5.293485
_cell_length_c 19.730031
_cell_angle_alpha 90.000000
_cell_angle_beta 90.000000
_cell_angle_gamma 90.000000
_cell_volume 1581.389575
_symmetry_space_group_name_H-M "C 2 2 2"
_symmetry_group_IT_number 21
_symmetry_cell_setting 'orthorhombic'
loop_
_space_group_symop_operation_xyz
x,y,z
-x,-y,z
x,-y,-z
-x,y,-z
1/2+x,1/2+y,z
1/2-x,1/2-y,z
1/2+x,1/2-y,-z
1/2-x,1/2+y,-z
loop_
_atom_site_type_symbol
_atom_site_label
_atom_site_fract_x
_atom_site_fract_y
_atom_site_fract_z
Si Si1 0.000000 0.000000 0.593954
Si Si2 0.500000 0.000000 0.500000
Si Si3 0.400916 0.088585 0.176540
Si Si4 0.856573 0.755200 0.038745
Si Si5 0.750000 0.750000 0.792934
Si Si6 0.340551 0.640747 0.691867
O O1 0.913811 0.060309 0.638732
O O2 0.023992 0.267656 0.554676
O O3 0.386970 0.284366 0.116473
O O4 0.382757 0.167628 0.253953
O O5 0.500000 0.000000 0.172101
O O6 0.321681 0.893137 0.162505
O O7 0.750000 0.750000 0.038352
O O8 0.886819 0.500000 0.000000
O O9 0.888119 0.000000 0.000000
O O10 0.693802 0.575355 0.742345
O O11 0.250000 0.750000 0.659707
#
# Coordination Sequence:
#
# PCOD9324510 Si02
#       6
#     4   2   8   8   4   8
#     4  11  24  50  74 106 149 194 230 290 351 422
#     4  10  28  46  76 106 148 192 234 274 348 426
#     4  11  24  41  67 105 134 181 239 302 361 427
#     4  10  23  42  67  89 131 187 230 290 358 425
#     4  10  22  40  68 108 136 176 232 312 346 428
#     4  10  23  40  74 106 140 183 238 297 352 419
#
# _framework density 21.500081000000002
#
# number of rings (size 3 to 8) (size 9 to 14) (size 15 to 20)
#    0.000    1.647    0.000    3.529   16.471    0.471 
#    0.000    3.529    0.000    0.000    0.000    0.000 
#    0.000    0.000    0.000    0.000    0.000    0.000 
#
# Total GULP energy -94669.962547 kJ/mol
# GULP energy per Si atom -5568.821326 kJ/mol
# Density = 2.145115 g / cm^3
# Si number density = 21.500081 Si / 1000 Ang^3
#
#
#
# Elastic Constant Matrix: (Units=GPa)
#
#
# Indices 1 2 3 4 5 6 
#
# 1 133.6804 45.7807 68.7016 0.0000 0.0000 0.0000
# 2 45.7807 113.0268 37.1744 0.0000 0.0000 0.0000
# 3 68.7016 37.1744 94.7915 0.0000 0.0000 0.0000
# 4 0.0000 0.0000 0.0000 49.6988 0.0000 0.0000
# 5 0.0000 0.0000 0.0000 0.0000 -19.7130 0.0000
# 6 0.0000 0.0000 0.0000 0.0000 0.0000 12.9747
#
#
#
# Elastic Compliance Matrix: (Units=1/GPa)
#
#
# Indices 1 2 3 4 5 6 
#
# 1 0.012456 -0.002383 -0.008093 0.000000 0.000000 0.000000
# 2 -0.002383 0.010614 -0.002435 0.000000 0.000000 0.000000
# 3 -0.008093 -0.002435 0.017370 0.000000 0.000000 0.000000
# 4 0.000000 0.000000 0.000000 0.020121 0.000000 0.000000
# 5 0.000000 0.000000 0.000000 0.000000 -0.050728 0.000000
# 6 0.000000 0.000000 0.000000 0.000000 0.000000 0.077073
#
#
# Mechanical properties :
#
#
# Convention : Reuss Voigt Hill
#
# Bulk Modulus (GPa) = 68.41400 71.64577 70.02989
# Shear Modulus (GPa) = 42.51691 21.24824 31.88257
#
# Velocity S-wave (km/s) = 4.45176 3.14711 3.85503
# Velocity P-wave (km/s) = 7.63634 6.82654 7.24276
#
# Compressibility (1/GPa) = 0.01461689
#
# Stress axis : x y z
#
# Youngs Moduli (GPa) = 80.28320 94.21776 57.57106
#
# Poissons Ratio (x) = 0.22456 0.46592
# Poissons Ratio (y) = 0.19135 0.14018
# Poissons Ratio (z) = 0.64972 0.22942
#
# Static dielectric constant tensor:
#      x y z
#    x 1.684120 0.000000 0.000000 
#    y 0.000000 1.910170 0.000000 
#    z 0.000000 0.000000 1.752770 
# 
# From -- ./inp_files/36477.got.cif
#   From: 2010.05.17/outbox.cif.g08.bks.cpg/sg21_19_cif.got.tgz:36477.got - 2010.06.03 23:14:55.
