data_PCOD9324950
_publ_section_title
;
Structure prediction by ZEFSAII (Michael W. Deem and Ramdas Pophale) SiO2 
 PCOD9324950
Probable space group: C 2 2 2
;
_chemical_formula_sum "Si O2"
_cell_formula_units_Z 48
_cell_length_a 26.231157
_cell_length_b 9.275505
_cell_length_c 8.681157
_cell_angle_alpha 90.000000
_cell_angle_beta 90.000000
_cell_angle_gamma 90.000000
_cell_volume 2112.188245
_symmetry_space_group_name_H-M "C 2 2 2"
_symmetry_group_IT_number 21
_symmetry_cell_setting 'orthorhombic'
loop_
_space_group_symop_operation_xyz
x,y,z
-x,-y,z
x,-y,-z
-x,y,-z
1/2+x,1/2+y,z
1/2-x,1/2-y,z
1/2+x,1/2-y,-z
1/2-x,1/2+y,-z
loop_
_atom_site_type_symbol
_atom_site_label
_atom_site_fract_x
_atom_site_fract_y
_atom_site_fract_z
Si Si1 0.272716 0.528594 0.817257
Si Si2 0.889761 0.340205 0.044139
Si Si3 0.091658 0.000000 0.500000
Si Si4 0.661811 0.000000 0.500000
Si Si5 0.500000 0.500000 0.257583
Si Si6 0.168041 0.692334 0.760649
Si Si7 0.500000 0.741859 0.000000
Si Si8 0.332316 0.719861 0.341938
O O1 0.214817 0.585987 0.807435
O O2 0.303327 0.656718 0.729204
O O3 0.290668 0.385017 0.730963
O O4 0.283223 0.500000 0.000000
O O5 0.866498 0.280946 0.200982
O O6 0.949882 0.332171 0.032416
O O7 0.872783 0.500000 0.000000
O O8 0.867052 0.254765 0.900077
O O9 0.129176 0.868721 0.453108
O O10 0.051511 0.990174 0.641097
O O11 0.636488 0.909185 0.359482
O O12 0.689554 0.861357 0.572589
O O13 0.502696 0.637866 0.147514
#
# Coordination Sequence:
#
# PCOD9324950 Si02
#       8
#     8   8   4   4   4   8   4   8
#     4  11  25  44  76 110 136 198 251 313 367 449
#     4  12  24  47  71 108 145 201 249 312 375 459
#     4  11  24  45  70 109 154 199 240 325 377 460
#     4  12  28  45  66 108 150 199 238 310 378 464
#     4  10  24  42  70 110 150 188 260 306 388 448
#     4  11  26  45  73 103 150 188 252 308 377 451
#     4  11  25  42  76 108 143 199 254 316 368 466
#     4  12  26  45  75 103 153 201 247 306 384 458
#
# _framework density 22.725248000000001
#
# number of rings (size 3 to 8) (size 9 to 14) (size 15 to 20)
#    0.000    0.667    5.000    1.750    4.667    4.000 
#    0.000    0.000    0.000    1.000    0.000    0.000 
#    0.000    0.000    0.000    0.000    0.000    0.000 
#
# Total GULP energy -133802.738793 kJ/mol
# GULP energy per Si atom -5575.114116 kJ/mol
# Density = 2.267352 g / cm^3
# Si number density = 22.725248 Si / 1000 Ang^3
#
#
#
# Elastic Constant Matrix: (Units=GPa)
#
#
# Indices 1 2 3 4 5 6 
#
# 1 104.0951 42.2147 34.6460 0.0000 0.0000 0.0000
# 2 42.2147 158.4211 52.9385 0.0000 0.0000 0.0000
# 3 34.6460 52.9385 114.2666 0.0000 0.0000 0.0000
# 4 0.0000 0.0000 0.0000 60.2407 0.0000 0.0000
# 5 0.0000 0.0000 0.0000 0.0000 10.2007 0.0000
# 6 0.0000 0.0000 0.0000 0.0000 0.0000 25.9293
#
#
#
# Elastic Compliance Matrix: (Units=1/GPa)
#
#
# Indices 1 2 3 4 5 6 
#
# 1 0.011302 -0.002208 -0.002404 0.000000 0.000000 0.000000
# 2 -0.002208 0.007900 -0.002990 0.000000 0.000000 0.000000
# 3 -0.002404 -0.002990 0.010866 0.000000 0.000000 0.000000
# 4 0.000000 0.000000 0.000000 0.016600 0.000000 0.000000
# 5 0.000000 0.000000 0.000000 0.000000 0.098032 0.000000
# 6 0.000000 0.000000 0.000000 0.000000 0.000000 0.038566
#
#
# Mechanical properties :
#
#
# Convention : Reuss Voigt Hill
#
# Bulk Modulus (GPa) = 67.28197 70.70902 68.99549
# Shear Modulus (GPa) = 24.57893 35.73971 30.15932
#
# Velocity S-wave (km/s) = 3.29229 3.97001 3.64693
# Velocity P-wave (km/s) = 6.64253 7.22475 6.93975
#
# Compressibility (1/GPa) = 0.01486282
#
# Stress axis : x y z
#
# Youngs Moduli (GPa) = 88.47788 126.58112 92.03275
#
# Poissons Ratio (x) = 0.27955 0.22122
# Poissons Ratio (y) = 0.19540 0.27521
# Poissons Ratio (z) = 0.21268 0.37853
#
# Static dielectric constant tensor:
#      x y z
#    x 1.790750 0.000000 0.000000 
#    y 0.000000 1.889140 0.000000 
#    z 0.000000 0.000000 2.012440 
# 
# From -- ./inp_files/19739.got.cif
#   From: 2010.05.17/outbox.cif.g08.bks.cpg/sg21_10_cif.got.tgz:19739.got - 2010.06.03 23:14:55.
