data_PCOD9324338
_publ_section_title
;
Structure prediction by ZEFSAII (Michael W. Deem and Ramdas Pophale) SiO2 
 PCOD9324338
Probable space group: C 2 2 2
;
_chemical_formula_sum "Si O2"
_cell_formula_units_Z 32
_cell_length_a 8.164566
_cell_length_b 14.174482
_cell_length_c 10.989399
_cell_angle_alpha 90.000000
_cell_angle_beta 90.000000
_cell_angle_gamma 90.000000
_cell_volume 1271.786594
_symmetry_space_group_name_H-M "C 2 2 2"
_symmetry_group_IT_number 21
_symmetry_cell_setting 'orthorhombic'
loop_
_space_group_symop_operation_xyz
x,y,z
-x,-y,z
x,-y,-z
-x,y,-z
1/2+x,1/2+y,z
1/2-x,1/2-y,z
1/2+x,1/2-y,-z
1/2-x,1/2+y,-z
loop_
_atom_site_type_symbol
_atom_site_label
_atom_site_fract_x
_atom_site_fract_y
_atom_site_fract_z
Si Si1 0.877222 0.358449 0.232066
Si Si2 0.553771 0.353945 0.138150
Si Si3 0.769230 0.356403 0.752045
Si Si4 0.190346 0.887135 0.487277
O O1 0.733656 0.398508 0.147198
O O2 0.914203 0.248979 0.197982
O O3 0.794566 0.364627 0.366302
O O4 0.057850 0.400822 0.213938
O O5 0.404526 0.401367 0.211681
O O6 0.500000 0.345678 0.000000
O O7 0.750000 0.250000 0.804177
O O8 0.779854 0.350236 0.606803
O O9 0.000000 0.854165 0.500000
O O10 0.186600 0.000000 0.500000
#
# Coordination Sequence:
#
# PCOD9324338 Si02
#       4
#     8   8   8   8
#     4  10  22  36  61  90 121 169 203 255 320 377
#     4  10  22  38  59  94 132 161 205 262 313 370
#     4  10  22  36  62  95 124 159 210 260 322 380
#     4  11  23  41  63  92 131 170 210 267 327 384
#
# _framework density 25.161452000000001
#
# number of rings (size 3 to 8) (size 9 to 14) (size 15 to 20)
#    0.000    1.750    2.500    0.750   14.000    2.000 
#    0.000    0.000    0.000    3.000    6.500    0.000 
#    0.000    0.000    0.000    0.000    0.000    0.000 
#
# Total GULP energy -89343.987485 kJ/mol
# GULP energy per Si atom -5583.999218 kJ/mol
# Density = 2.510418 g / cm^3
# Si number density = 25.161452 Si / 1000 Ang^3
#
#
#
# Elastic Constant Matrix: (Units=GPa)
#
#
# Indices 1 2 3 4 5 6 
#
# 1 306.0965 33.1798 71.7224 0.0000 0.0000 0.0000
# 2 33.1798 73.0829 4.5802 0.0000 0.0000 0.0000
# 3 71.7224 4.5802 140.8921 0.0000 0.0000 0.0000
# 4 0.0000 0.0000 0.0000 55.0207 0.0000 0.0000
# 5 0.0000 0.0000 0.0000 0.0000 36.1982 0.0000
# 6 0.0000 0.0000 0.0000 0.0000 0.0000 22.3626
#
#
#
# Elastic Compliance Matrix: (Units=1/GPa)
#
#
# Indices 1 2 3 4 5 6 
#
# 1 0.003898 -0.001649 -0.001931 0.000000 0.000000 0.000000
# 2 -0.001649 0.014408 0.000371 0.000000 0.000000 0.000000
# 3 -0.001931 0.000371 0.008068 0.000000 0.000000 0.000000
# 4 0.000000 0.000000 0.000000 0.018175 0.000000 0.000000
# 5 0.000000 0.000000 0.000000 0.000000 0.027626 0.000000
# 6 0.000000 0.000000 0.000000 0.000000 0.000000 0.044717
#
#
# Mechanical properties :
#
#
# Convention : Reuss Voigt Hill
#
# Bulk Modulus (GPa) = 50.10586 82.11513 66.11050
# Shear Modulus (GPa) = 38.47257 50.08891 44.28074
#
# Velocity S-wave (km/s) = 3.91452 4.46657 4.19962
# Velocity P-wave (km/s) = 6.35518 7.70107 7.06027
#
# Compressibility (1/GPa) = 0.01995774
#
# Stress axis : x y z
#
# Youngs Moduli (GPa) = 256.53803 69.40405 123.93979
#
# Poissons Ratio (x) = 0.11443 0.23930
# Poissons Ratio (y) = 0.42296 -0.04597
# Poissons Ratio (z) = 0.49531 -0.02574
#
# Static dielectric constant tensor:
#      x y z
#    x 2.039830 0.000000 0.000000 
#    y 0.000000 2.219560 0.000000 
#    z 0.000000 0.000000 1.928320 
# 
# From -- ./inp_files/10459.got.cif
#   From: 2010.05.17/outbox.cif.g08.bks.cpg/sg21_6_cif.got.tgz:10459.got - 2010.06.03 23:14:55.
