data_PCOD9324153
_publ_section_title
;
Structure prediction by ZEFSAII (Michael W. Deem and Ramdas Pophale) SiO2 
 PCOD9324153
Probable space group: C 2 2 2
;
_chemical_formula_sum "Si O2"
_cell_formula_units_Z 32
_cell_length_a 10.520232
_cell_length_b 9.643838
_cell_length_c 15.109277
_cell_angle_alpha 90.000000
_cell_angle_beta 90.000000
_cell_angle_gamma 90.000000
_cell_volume 1532.917940
_symmetry_space_group_name_H-M "C 2 2 2"
_symmetry_group_IT_number 21
_symmetry_cell_setting 'orthorhombic'
loop_
_space_group_symop_operation_xyz
x,y,z
-x,-y,z
x,-y,-z
-x,y,-z
1/2+x,1/2+y,z
1/2-x,1/2-y,z
1/2+x,1/2-y,-z
1/2-x,1/2+y,-z
loop_
_atom_site_type_symbol
_atom_site_label
_atom_site_fract_x
_atom_site_fract_y
_atom_site_fract_z
Si Si1 0.121442 0.073935 0.904819
Si Si2 0.596999 0.882672 0.857012
Si Si3 0.665677 0.637327 0.550528
Si Si4 0.918577 0.369203 0.349409
O O1 0.258341 0.062443 0.859203
O O2 0.093779 0.238339 0.909846
O O3 0.000000 0.000000 0.860401
O O4 0.134345 0.000000 0.000000
O O5 0.564355 0.849856 0.754784
O O6 0.500000 0.000000 0.888900
O O7 0.634554 0.500000 0.500000
O O8 0.750000 0.750000 0.495344
O O9 0.770661 0.397977 0.373273
O O10 0.556182 0.727466 0.596790
O O11 0.000000 0.500000 0.379702
#
# Coordination Sequence:
#
# PCOD9324153 Si02
#       4
#     8   8   8   8
#     4  10  22  37  57  89 125 150 192 254 301 355
#     4  10  21  40  65  84 115 164 206 242 303 362
#     4   8  16  29  57  84 118 154 192 240 301 353
#     4   8  17  34  62  84 116 155 196 251 296 350
#
# _framework density 20.875219999999999
#
# number of rings (size 3 to 8) (size 9 to 14) (size 15 to 20)
#    1.500    1.250    0.000    3.000    0.000   10.000 
#    0.000    0.000   22.000    7.500    0.000    0.000 
#    0.000    0.000    0.000    0.000    0.000    0.000 
#
# Total GULP energy -89082.400689 kJ/mol
# GULP energy per Si atom -5567.650043 kJ/mol
# Density = 2.082771 g / cm^3
# Si number density = 20.875220 Si / 1000 Ang^3
#
#
#
# Elastic Constant Matrix: (Units=GPa)
#
#
# Indices 1 2 3 4 5 6 
#
# 1 109.1410 70.3152 0.6787 0.0000 0.0000 0.0000
# 2 70.3152 184.8203 62.9672 0.0000 0.0000 0.0000
# 3 0.6787 62.9672 68.0112 0.0000 0.0000 0.0000
# 4 0.0000 0.0000 0.0000 -9.3526 0.0000 0.0000
# 5 0.0000 0.0000 0.0000 0.0000 19.3700 0.0000
# 6 0.0000 0.0000 0.0000 0.0000 0.0000 45.6421
#
#
#
# Elastic Compliance Matrix: (Units=1/GPa)
#
#
# Indices 1 2 3 4 5 6 
#
# 1 0.014134 -0.007785 0.007066 0.000000 0.000000 0.000000
# 2 -0.007785 0.012191 -0.011210 0.000000 0.000000 0.000000
# 3 0.007066 -0.011210 0.025011 0.000000 0.000000 0.000000
# 4 0.000000 0.000000 0.000000 -0.106922 0.000000 0.000000
# 5 0.000000 0.000000 0.000000 0.000000 0.051626 0.000000
# 6 0.000000 0.000000 0.000000 0.000000 0.000000 0.021910
#
#
# Mechanical properties :
#
#
# Convention : Reuss Voigt Hill
#
# Bulk Modulus (GPa) = 36.38938 69.98833 53.18886
# Shear Modulus (GPa) = 98.10334 26.33265 62.21800
#
# Velocity S-wave (km/s) = 6.86274 3.55552 5.46529
# Velocity P-wave (km/s) = 8.95912 7.10319 8.08459
#
# Compressibility (1/GPa) = 0.02748054
#
# Stress axis : x y z
#
# Youngs Moduli (GPa) = 70.75188 82.02501 39.98218
#
# Poissons Ratio (x) = 0.63854 -0.28253
# Poissons Ratio (y) = 0.55078 0.44818
# Poissons Ratio (z) = -0.49996 0.91946
#
# Static dielectric constant tensor:
#      x y z
#    x 1.815150 0.000000 0.000000 
#    y 0.000000 1.761380 0.000000 
#    z 0.000000 0.000000 1.752320 
# 
# From -- ./inp_files/31173.got.cif
#   From: 2010.05.17/outbox.cif.g08.bks.cpg/sg21_16_cif.got.tgz:31173.got - 2010.06.03 23:14:55.
