data_PCOD9324043
_publ_section_title
;
Structure prediction by ZEFSAII (Michael W. Deem and Ramdas Pophale) SiO2 
 PCOD9324043
Probable space group: C 2 2 2
;
_chemical_formula_sum "Si O2"
_cell_formula_units_Z 54
_cell_length_a 14.512219
_cell_length_b 5.461215
_cell_length_c 31.687675
_cell_angle_alpha 90.000000
_cell_angle_beta 90.000000
_cell_angle_gamma 90.000000
_cell_volume 2511.386024
_symmetry_space_group_name_H-M "C 2 2 2"
_symmetry_group_IT_number 21
_symmetry_cell_setting 'orthorhombic'
loop_
_space_group_symop_operation_xyz
x,y,z
-x,-y,z
x,-y,-z
-x,y,-z
1/2+x,1/2+y,z
1/2-x,1/2-y,z
1/2+x,1/2-y,-z
1/2-x,1/2+y,-z
loop_
_atom_site_type_symbol
_atom_site_label
_atom_site_fract_x
_atom_site_fract_y
_atom_site_fract_z
Si Si1 0.886316 0.745519 0.102278
Si Si2 0.637015 0.742714 0.768256
Si Si3 0.750000 0.750000 0.026716
Si Si4 0.000000 0.500000 0.500000
Si Si5 0.905240 0.755099 0.863339
Si Si6 0.354824 0.670087 0.541878
Si Si7 0.859755 0.740937 0.279107
Si Si8 0.057327 0.756648 0.629970
O O1 0.841488 0.734725 0.056170
O O2 0.856873 0.499398 0.125922
O O3 0.997063 0.750386 0.111198
O O4 0.854390 0.001535 0.121725
O O5 0.750000 0.750000 0.774280
O O6 0.586651 0.728360 0.813227
O O7 0.611589 0.502334 0.740883
O O8 0.610524 0.997899 0.746041
O O9 0.745131 0.500000 0.000000
O O10 0.931513 0.363425 0.530305
O O11 0.364288 0.500000 0.500000
O O12 0.250000 0.750000 0.541107
O O13 0.381693 0.634208 0.590737
O O14 0.750000 0.750000 0.276501
O O15 0.886227 0.704913 0.327771
O O16 0.000000 0.500000 0.620924
O O17 0.000000 0.000000 0.640671
#
# Coordination Sequence:
#
# PCOD9324043 Si02
#       8
#     8   8   4   2   8   8   8   8
#     4  10  23  41  65  94 137 164 225 271 331 408
#     4  10  21  38  68  98 136 176 231 283 348 414
#     4  12  26  46  70 100 132 182 226 280 346 416
#     4  12  22  48  68 104 152 164 246 312 370 462
#     4  10  21  42  62 100 129 176 215 284 338 397
#     4  12  26  46  76 109 144 196 249 316 390 462
#     4  10  22  44  64  97 136 184 232 288 344 437
#     4  12  26  47  70 102 145 196 241 305 369 436
#
# _framework density 21.502071000000001
#
# number of rings (size 3 to 8) (size 9 to 14) (size 15 to 20)
#    0.000    1.185    1.481    4.222    2.074    0.000 
#   16.000   11.111    0.000    0.000    0.000    0.000 
#    0.000    0.000    0.000    0.000    0.000    0.000 
#
# Total GULP energy -150437.831984 kJ/mol
# GULP energy per Si atom -5571.771555 kJ/mol
# Density = 2.145313 g / cm^3
# Si number density = 21.502071 Si / 1000 Ang^3
#
#
#
# Elastic Constant Matrix: (Units=GPa)
#
#
# Indices 1 2 3 4 5 6 
#
# 1 99.6885 13.8660 24.7762 0.0000 0.0000 0.0000
# 2 13.8660 175.0508 53.0138 0.0000 0.0000 0.0000
# 3 24.7762 53.0138 161.6201 0.0000 0.0000 0.0000
# 4 0.0000 0.0000 0.0000 43.6862 0.0000 0.0000
# 5 0.0000 0.0000 0.0000 0.0000 59.2388 0.0000
# 6 0.0000 0.0000 0.0000 0.0000 0.0000 -1.7440
#
#
#
# Elastic Compliance Matrix: (Units=1/GPa)
#
#
# Indices 1 2 3 4 5 6 
#
# 1 0.010451 -0.000380 -0.001477 0.000000 0.000000 0.000000
# 2 -0.000380 0.006357 -0.002027 0.000000 0.000000 0.000000
# 3 -0.001477 -0.002027 0.007079 0.000000 0.000000 0.000000
# 4 0.000000 0.000000 0.000000 0.022891 0.000000 0.000000
# 5 0.000000 0.000000 0.000000 0.000000 0.016881 0.000000
# 6 0.000000 0.000000 0.000000 0.000000 0.000000 -0.573385
#
#
# Mechanical properties :
#
#
# Convention : Reuss Voigt Hill
#
# Bulk Modulus (GPa) = 62.04466 68.85239 65.44853
# Shear Modulus (GPa) = -10.06876 43.21643 16.57384
#
# Velocity S-wave (km/s) = -2.16630 4.48802 2.77934
# Velocity P-wave (km/s) = 4.76033 7.67771 6.38780
#
# Compressibility (1/GPa) = 0.01611742
#
# Stress axis : x y z
#
# Youngs Moduli (GPa) = 95.68139 157.31801 141.27036
#
# Poissons Ratio (x) = 0.05985 0.20871
# Poissons Ratio (y) = 0.03640 0.28632
# Poissons Ratio (z) = 0.14136 0.31884
#
# Static dielectric constant tensor:
#      x y z
#    x 1.827840 0.000000 0.000000 
#    y 0.000000 1.832600 0.000000 
#    z 0.000000 0.000000 1.836970 
# 
# From -- ./inp_files/39621.got.cif
#   From: 2010.05.17/outbox.cif.g08.bks.cpg/sg21_20_cif.got.tgz:39621.got - 2010.06.03 23:14:55.
