data_PCOD9324711
_publ_section_title
;
Structure prediction by ZEFSAII (Michael W. Deem and Ramdas Pophale) SiO2 
 PCOD9324711
Probable space group: C 2 2 2
;
_chemical_formula_sum "Si O2"
_cell_formula_units_Z 32
_cell_length_a 5.384851
_cell_length_b 29.147506
_cell_length_c 8.497023
_cell_angle_alpha 90.000000
_cell_angle_beta 90.000000
_cell_angle_gamma 90.000000
_cell_volume 1333.650048
_symmetry_space_group_name_H-M "C 2 2 2"
_symmetry_group_IT_number 21
_symmetry_cell_setting 'orthorhombic'
loop_
_space_group_symop_operation_xyz
x,y,z
-x,-y,z
x,-y,-z
-x,y,-z
1/2+x,1/2+y,z
1/2-x,1/2-y,z
1/2+x,1/2-y,-z
1/2-x,1/2+y,-z
loop_
_atom_site_type_symbol
_atom_site_label
_atom_site_fract_x
_atom_site_fract_y
_atom_site_fract_z
Si Si1 0.000000 0.614132 0.000000
Si Si2 0.500000 0.500000 0.000000
Si Si3 0.000000 0.500000 0.500000
Si Si4 0.870064 0.834240 0.330441
Si Si5 0.500000 0.673156 0.000000
Si Si6 0.269751 0.064635 0.248662
Si Si7 0.500000 0.219739 0.500000
O O1 0.753808 0.644266 0.000507
O O2 0.011251 0.583580 0.156871
O O3 0.644808 0.533757 0.116116
O O4 0.165947 0.467058 0.393443
O O5 0.869481 0.888685 0.295910
O O6 0.593887 0.813625 0.359881
O O7 0.000000 0.830240 0.500000
O O8 0.983885 0.807179 0.179161
O O9 0.250000 0.250000 0.529952
#
# Coordination Sequence:
#
# PCOD9324711 Si02
#       7
#     4   2   2   8   4   8   4
#     4  10  22  45  66  99 145 197 259 321 376 447
#     4  12  26  48  68 106 166 216 262 338 370 454
#     4  12  26  32  60 100 152 192 268 330 370 456
#     4  11  26  47  83 111 157 211 267 322 402 491
#     4  10  25  42  80 114 144 195 266 309 382 476
#     4  11  25  41  68 103 151 208 263 319 393 449
#     4  12  27  52  86 123 160 205 256 344 421 482
#
# _framework density 23.994302000000001
#
# number of rings (size 3 to 8) (size 9 to 14) (size 15 to 20)
#    0.000    1.000    1.250    5.250   14.000    0.000 
#    0.000    0.000    5.500    0.000    0.000    0.000 
#    0.000    0.000    0.000    0.000    0.000    0.000 
#
# Total GULP energy -89263.023106 kJ/mol
# GULP energy per Si atom -5578.938944 kJ/mol
# Density = 2.393969 g / cm^3
# Si number density = 23.994302 Si / 1000 Ang^3
#
#
#
# Elastic Constant Matrix: (Units=GPa)
#
#
# Indices 1 2 3 4 5 6 
#
# 1 115.1203 35.2656 43.1967 0.0000 0.0000 0.0000
# 2 35.2656 89.2592 23.3067 0.0000 0.0000 0.0000
# 3 43.1967 23.3067 185.4960 0.0000 0.0000 0.0000
# 4 0.0000 0.0000 0.0000 -8.4069 0.0000 0.0000
# 5 0.0000 0.0000 0.0000 0.0000 37.5302 0.0000
# 6 0.0000 0.0000 0.0000 0.0000 0.0000 25.8544
#
#
#
# Elastic Compliance Matrix: (Units=1/GPa)
#
#
# Indices 1 2 3 4 5 6 
#
# 1 0.010554 -0.003648 -0.001999 0.000000 0.000000 0.000000
# 2 -0.003648 0.012844 -0.000764 0.000000 0.000000 0.000000
# 3 -0.001999 -0.000764 0.005953 0.000000 0.000000 0.000000
# 4 0.000000 0.000000 0.000000 -0.118950 0.000000 0.000000
# 5 0.000000 0.000000 0.000000 0.000000 0.026645 0.000000
# 6 0.000000 0.000000 0.000000 0.000000 0.000000 0.038678
#
#
# Mechanical properties :
#
#
# Convention : Reuss Voigt Hill
#
# Bulk Modulus (GPa) = 60.50419 65.93485 63.21952
# Shear Modulus (GPa) = -841.37448 30.20263 -405.58592
#
# Velocity S-wave (km/s) = -18.74612 3.55172 -13.01542
# Velocity P-wave (km/s) = 21.05434 6.66023 14.12315
#
# Compressibility (1/GPa) = 0.01652778
#
# Stress axis : x y z
#
# Youngs Moduli (GPa) = 94.74817 77.85654 167.99377
#
# Poissons Ratio (x) = 0.28401 0.33590
# Poissons Ratio (y) = 0.34563 0.12840
# Poissons Ratio (z) = 0.18944 0.05951
#
# Static dielectric constant tensor:
#      x y z
#    x 1.973720 0.000000 0.000000 
#    y 0.000000 1.962410 0.000000 
#    z 0.000000 0.000000 2.015670 
# 
# From -- ./inp_files/9281.got.cif
#   From: 2010.05.17/outbox.cif.g08.bks.cpg/sg21_5_cif.got.tgz:9281.got - 2010.06.03 23:14:55.
