data_PCOD9324443
_publ_section_title
;
Structure prediction by ZEFSAII (Michael W. Deem and Ramdas Pophale) SiO2 
 PCOD9324443
Probable space group: C 2 2 2
;
_chemical_formula_sum "Si O2"
_cell_formula_units_Z 64
_cell_length_a 13.600858
_cell_length_b 17.197850
_cell_length_c 14.005812
_cell_angle_alpha 90.000000
_cell_angle_beta 90.000000
_cell_angle_gamma 90.000000
_cell_volume 3276.036679
_symmetry_space_group_name_H-M "C 2 2 2"
_symmetry_group_IT_number 21
_symmetry_cell_setting 'orthorhombic'
loop_
_space_group_symop_operation_xyz
x,y,z
-x,-y,z
x,-y,-z
-x,y,-z
1/2+x,1/2+y,z
1/2-x,1/2-y,z
1/2+x,1/2-y,-z
1/2-x,1/2+y,-z
loop_
_atom_site_type_symbol
_atom_site_label
_atom_site_fract_x
_atom_site_fract_y
_atom_site_fract_z
Si Si1 0.850162 0.714153 0.158474
Si Si2 0.386498 0.093172 0.010413
Si Si3 0.615315 0.409611 0.525595
Si Si4 0.102515 0.041551 0.123296
Si Si5 0.187950 0.828279 0.346368
Si Si6 0.884715 0.172232 0.010870
Si Si7 0.265376 0.606221 0.157341
Si Si8 0.543322 0.331900 0.716703
O O1 0.750000 0.750000 0.200683
O O2 0.854146 0.626864 0.115531
O O3 0.929254 0.749335 0.232513
O O4 0.855704 0.758297 0.056566
O O5 0.500000 0.119166 0.000000
O O6 0.323919 0.117738 0.916601
O O7 0.383730 0.000000 0.000000
O O8 0.641780 0.500000 0.500000
O O9 0.500000 0.406807 0.500000
O O10 0.681109 0.361417 0.452590
O O11 0.609755 0.366058 0.628736
O O12 0.068725 0.103756 0.202602
O O13 0.180625 0.977021 0.152442
O O14 0.148764 0.091391 0.037644
O O15 0.000000 0.000000 0.098873
O O16 0.250000 0.750000 0.347250
O O17 0.246821 0.879037 0.268512
O O18 0.071774 0.828482 0.313691
O O19 0.843429 0.170057 0.116187
O O20 0.000000 0.168755 0.000000
#
# Coordination Sequence:
#
# PCOD9324443 Si02
#       8
#     8   8   8   8   8   8   8   8
#     4  11  23  39  57  86 118 162 223 261 324 392
#     4  11  26  44  60  79 122 182 232 272 316 380
#     4   9  19  39  66  93 129 161 200 264 340 401
#     4  11  19  32  55  92 127 156 204 248 332 402
#     4  11  24  37  60  98 128 166 210 256 332 405
#     4  11  20  31  51  82 119 158 189 255 322 375
#     4  12  22  34  58  84 128 162 206 266 311 384
#     4  10  22  39  63  94 130 166 203 269 334 405
#
# _framework density 19.535802
#
# number of rings (size 3 to 8) (size 9 to 14) (size 15 to 20)
#    0.000    1.250    3.750    3.000    7.000    0.500 
#    0.000    0.000    0.000    0.000    0.000    0.000 
#    0.000    0.000    0.000    0.000    0.000    0.000 
#
# Total GULP energy -178142.725766 kJ/mol
# GULP energy per Si atom -5566.960180 kJ/mol
# Density = 1.949134 g / cm^3
# Si number density = 19.535802 Si / 1000 Ang^3
#
#
#
# Elastic Constant Matrix: (Units=GPa)
#
#
# Indices 1 2 3 4 5 6 
#
# 1 80.9241 17.7927 25.2295 0.0000 0.0000 0.0000
# 2 17.7927 87.9960 35.9043 0.0000 0.0000 0.0000
# 3 25.2295 35.9043 119.0775 0.0000 0.0000 0.0000
# 4 0.0000 0.0000 0.0000 24.4733 0.0000 0.0000
# 5 0.0000 0.0000 0.0000 0.0000 26.0723 0.0000
# 6 0.0000 0.0000 0.0000 0.0000 0.0000 21.0809
#
#
#
# Elastic Compliance Matrix: (Units=1/GPa)
#
#
# Indices 1 2 3 4 5 6 
#
# 1 0.013471 -0.001778 -0.002318 0.000000 0.000000 0.000000
# 2 -0.001778 0.013193 -0.003601 0.000000 0.000000 0.000000
# 3 -0.002318 -0.003601 0.009975 0.000000 0.000000 0.000000
# 4 0.000000 0.000000 0.000000 0.040861 0.000000 0.000000
# 5 0.000000 0.000000 0.000000 0.000000 0.038355 0.000000
# 6 0.000000 0.000000 0.000000 0.000000 0.000000 0.047436
#
#
# Mechanical properties :
#
#
# Convention : Reuss Voigt Hill
#
# Bulk Modulus (GPa) = 47.07160 49.53896 48.30528
# Shear Modulus (GPa) = 26.91546 28.26337 27.58941
#
# Velocity S-wave (km/s) = 3.71583 3.80774 3.76207
# Velocity P-wave (km/s) = 6.52359 6.68917 6.60690
#
# Compressibility (1/GPa) = 0.02124423
#
# Stress axis : x y z
#
# Youngs Moduli (GPa) = 74.23426 75.79743 100.25174
#
# Poissons Ratio (x) = 0.13477 0.23239
# Poissons Ratio (y) = 0.13199 0.36103
# Poissons Ratio (z) = 0.17208 0.27297
#
# Static dielectric constant tensor:
#      x y z
#    x 1.788880 0.000000 0.000000 
#    y 0.000000 1.782540 0.000000 
#    z 0.000000 0.000000 1.700220 
# 
# From -- ./inp_files/32473.got.cif
#   From: 2010.05.17/outbox.cif.g08.bks.cpg/sg21_17_cif.got.tgz:32473.got - 2010.06.03 23:14:55.
