data_PCOD9324509
_publ_section_title
;
Structure prediction by ZEFSAII (Michael W. Deem and Ramdas Pophale) SiO2 
 PCOD9324509
Probable space group: C 2 2 2
;
_chemical_formula_sum "Si O2"
_cell_formula_units_Z 48
_cell_length_a 30.138295
_cell_length_b 8.183798
_cell_length_c 8.589750
_cell_angle_alpha 90.000000
_cell_angle_beta 90.000000
_cell_angle_gamma 90.000000
_cell_volume 2118.625059
_symmetry_space_group_name_H-M "C 2 2 2"
_symmetry_group_IT_number 21
_symmetry_cell_setting 'orthorhombic'
loop_
_space_group_symop_operation_xyz
x,y,z
-x,-y,z
x,-y,-z
-x,y,-z
1/2+x,1/2+y,z
1/2-x,1/2-y,z
1/2+x,1/2-y,-z
1/2-x,1/2+y,-z
loop_
_atom_site_type_symbol
_atom_site_label
_atom_site_fract_x
_atom_site_fract_y
_atom_site_fract_z
Si Si1 0.345516 0.044663 0.818248
Si Si2 0.923545 0.875962 0.616670
Si Si3 0.077652 0.626578 0.623363
Si Si4 0.749019 0.553116 0.819121
Si Si5 0.152760 0.061504 0.822904
Si Si6 0.999245 0.800904 0.179169
O O1 0.296402 0.993585 0.756197
O O2 0.347665 0.241276 0.816323
O O3 0.384833 0.958369 0.726407
O O4 0.348270 0.000000 0.000000
O O5 0.900018 0.754442 0.496888
O O6 0.889870 0.979244 0.721170
O O7 0.955438 0.772374 0.727374
O O8 0.948633 0.000000 0.500000
O O9 0.056493 0.500000 0.500000
O O10 0.040928 0.715452 0.729742
O O11 0.750000 0.750000 0.812250
O O12 0.700460 0.500804 0.759326
O O13 0.748547 0.500000 0.000000
O O14 0.147603 0.000000 0.000000
O O15 0.000000 0.000000 0.177235
O O16 0.000000 0.745915 0.000000
#
# Coordination Sequence:
#
# PCOD9324509 Si02
#       6
#     8   8   8   8   8   8
#     4  10  22  40  68 102 137 179 234 290 345 407
#     4  12  26  44  68  99 140 185 227 283 359 424
#     4  12  26  47  69 102 145 183 225 291 361 417
#     4   8  16  36  63  96 133 174 228 287 337 400
#     4  10  22  40  70 100 134 183 236 285 341 416
#     4  11  27  48  75 102 133 182 241 287 339 420
#
# _framework density 22.656203000000001
#
# number of rings (size 3 to 8) (size 9 to 14) (size 15 to 20)
#    0.000    1.500    3.333    0.500    7.000    1.333 
#    0.000    1.667    0.000    0.000    0.000    0.000 
#    0.000    0.000    0.000    0.000    0.000    0.000 
#
# Total GULP energy -133927.592360 kJ/mol
# GULP energy per Si atom -5580.316348 kJ/mol
# Density = 2.260464 g / cm^3
# Si number density = 22.656203 Si / 1000 Ang^3
#
#
#
# Elastic Constant Matrix: (Units=GPa)
#
#
# Indices 1 2 3 4 5 6 
#
# 1 205.7224 43.7836 94.7529 0.0000 0.0000 0.0000
# 2 43.7836 48.7496 42.2754 0.0000 0.0000 0.0000
# 3 94.7529 42.2754 136.2109 0.0000 0.0000 0.0000
# 4 0.0000 0.0000 0.0000 39.5846 0.0000 0.0000
# 5 0.0000 0.0000 0.0000 0.0000 -52.5844 0.0000
# 6 0.0000 0.0000 0.0000 0.0000 0.0000 24.4364
#
#
#
# Elastic Compliance Matrix: (Units=1/GPa)
#
#
# Indices 1 2 3 4 5 6 
#
# 1 0.007462 -0.003011 -0.004256 0.000000 0.000000 0.000000
# 2 -0.003011 0.029282 -0.006994 0.000000 0.000000 0.000000
# 3 -0.004256 -0.006994 0.012473 0.000000 0.000000 0.000000
# 4 0.000000 0.000000 0.000000 0.025262 0.000000 0.000000
# 5 0.000000 0.000000 0.000000 0.000000 -0.019017 0.000000
# 6 0.000000 0.000000 0.000000 0.000000 0.000000 0.040923
#
#
# Mechanical properties :
#
#
# Convention : Reuss Voigt Hill
#
# Bulk Modulus (GPa) = 48.32024 83.58964 65.95494
# Shear Modulus (GPa) = 37.93455 16.27871 27.10663
#
# Velocity S-wave (km/s) = 4.09633 2.68341 3.46270
# Velocity P-wave (km/s) = 6.61416 6.82465 6.72023
#
# Compressibility (1/GPa) = 0.02069526
#
# Stress axis : x y z
#
# Youngs Moduli (GPa) = 134.00892 34.15055 80.17215
#
# Poissons Ratio (x) = 0.10282 0.34125
# Poissons Ratio (y) = 0.40348 0.56071
# Poissons Ratio (z) = 0.57041 0.23884
#
# Static dielectric constant tensor:
#      x y z
#    x 1.899920 0.000000 0.000000 
#    y 0.000000 2.038630 0.000000 
#    z 0.000000 0.000000 1.780180 
# 
# From -- ./inp_files/19631.got.cif
#   From: 2010.05.17/outbox.cif.g08.bks.cpg/sg21_10_cif.got.tgz:19631.got - 2010.06.03 23:14:55.
