data_PCOD9324197
_publ_section_title
;
Structure prediction by ZEFSAII (Michael W. Deem and Ramdas Pophale) SiO2 
 PCOD9324197
Probable space group: C 2 2 2
;
_chemical_formula_sum "Si O2"
_cell_formula_units_Z 54
_cell_length_a 20.803286
_cell_length_b 24.753135
_cell_length_c 5.243313
_cell_angle_alpha 90.000000
_cell_angle_beta 90.000000
_cell_angle_gamma 90.000000
_cell_volume 2700.025923
_symmetry_space_group_name_H-M "C 2 2 2"
_symmetry_group_IT_number 21
_symmetry_cell_setting 'orthorhombic'
loop_
_space_group_symop_operation_xyz
x,y,z
-x,-y,z
x,-y,-z
-x,y,-z
1/2+x,1/2+y,z
1/2-x,1/2-y,z
1/2+x,1/2-y,-z
1/2-x,1/2+y,-z
loop_
_atom_site_type_symbol
_atom_site_label
_atom_site_fract_x
_atom_site_fract_y
_atom_site_fract_z
Si Si1 0.059930 0.906019 0.190979
Si Si2 0.137999 0.660069 0.602071
Si Si3 0.941211 0.208658 0.186847
Si Si4 0.805682 0.935397 0.020128
Si Si5 0.000000 0.000000 0.500000
Si Si6 0.726202 0.064414 0.482348
Si Si7 0.678655 0.773849 0.903534
Si Si8 0.500000 0.194315 0.500000
O O1 0.063833 0.848195 0.335903
O O2 0.125745 0.909841 0.035998
O O3 0.047942 0.958877 0.357982
O O4 0.000000 0.908390 0.000000
O O5 0.164819 0.600600 0.547127
O O6 0.164610 0.696725 0.366866
O O7 0.060113 0.661753 0.613028
O O8 0.165002 0.685245 0.863941
O O9 0.873022 0.225050 0.068506
O O10 0.964547 0.263446 0.316821
O O11 0.000000 0.197919 0.000000
O O12 0.755725 0.921344 0.793546
O O13 0.778117 0.922351 0.297466
O O14 0.813716 0.000000 0.000000
O O15 0.713949 0.000000 0.500000
O O16 0.750000 0.750000 0.910618
#
# Coordination Sequence:
#
# PCOD9324197 Si02
#       8
#     8   8   8   8   2   8   8   4
#     4  11  25  38  60  85 120 169 219 275 313 374
#     4  11  23  41  70  90 130 166 206 259 329 378
#     4  10  21  41  60  87 124 168 211 263 317 388
#     4  10  22  41  61  86 124 169 208 258 313 375
#     4  12  24  40  56  86 124 158 234 270 324 360
#     4  10  23  41  64  94 126 161 209 256 318 388
#     4  11  24  41  62  98 127 164 215 268 316 379
#     4  10  21  42  63  93 122 169 208 254 330 392
#
# _framework density 19.999807000000001
#
# number of rings (size 3 to 8) (size 9 to 14) (size 15 to 20)
#    0.000    1.481    1.481    2.889    9.333    0.000 
#    0.000    0.370    0.000    0.000    0.000    5.185 
#    0.000    0.000    0.000    0.000    0.000    0.000 
#
# Total GULP energy -150640.125459 kJ/mol
# GULP energy per Si atom -5579.263906 kJ/mol
# Density = 1.995429 g / cm^3
# Si number density = 19.999807 Si / 1000 Ang^3
#
#
#
# Elastic Constant Matrix: (Units=GPa)
#
#
# Indices 1 2 3 4 5 6 
#
# 1 152.2234 56.4504 13.5988 0.0000 0.0000 0.0000
# 2 56.4504 94.8678 17.7799 0.0000 0.0000 0.0000
# 3 13.5988 17.7799 67.3994 0.0000 0.0000 0.0000
# 4 0.0000 0.0000 0.0000 21.6435 0.0000 0.0000
# 5 0.0000 0.0000 0.0000 0.0000 24.1633 0.0000
# 6 0.0000 0.0000 0.0000 0.0000 0.0000 -15.4364
#
#
#
# Elastic Compliance Matrix: (Units=1/GPa)
#
#
# Indices 1 2 3 4 5 6 
#
# 1 0.008439 -0.004947 -0.000398 0.000000 0.000000 0.000000
# 2 -0.004947 0.013989 -0.002692 0.000000 0.000000 0.000000
# 3 -0.000398 -0.002692 0.015627 0.000000 0.000000 0.000000
# 4 0.000000 0.000000 0.000000 0.046203 0.000000 0.000000
# 5 0.000000 0.000000 0.000000 0.000000 0.041385 0.000000
# 6 0.000000 0.000000 0.000000 0.000000 0.000000 -0.064782
#
#
# Mechanical properties :
#
#
# Convention : Reuss Voigt Hill
#
# Bulk Modulus (GPa) = 45.49210 54.46099 49.97655
# Shear Modulus (GPa) = 59.33698 21.18483 40.26091
#
# Velocity S-wave (km/s) = 5.45281 3.25815 4.49159
# Velocity P-wave (km/s) = 7.90189 6.43769 7.20707
#
# Compressibility (1/GPa) = 0.02198184
#
# Stress axis : x y z
#
# Youngs Moduli (GPa) = 118.49067 71.48261 63.99031
#
# Poissons Ratio (x) = 0.35365 0.02545
# Poissons Ratio (y) = 0.58621 0.17227
# Poissons Ratio (z) = 0.04712 0.19245
#
# Static dielectric constant tensor:
#      x y z
#    x 1.707010 0.000000 0.000000 
#    y 0.000000 1.788850 0.000000 
#    z 0.000000 0.000000 1.735230 
# 
# From -- ./inp_files/6163.got.cif
#   From: 2010.05.17/outbox.cif.g08.bks.cpg/sg21_4_cif.got.tgz:6163.got - 2010.06.03 23:14:55.
