data_PCOD9324173
_publ_section_title
;
Structure prediction by ZEFSAII (Michael W. Deem and Ramdas Pophale) SiO2 
 PCOD9324173
Probable space group: C 2 2 2
;
_chemical_formula_sum "Si O2"
_cell_formula_units_Z 40
_cell_length_a 5.417894
_cell_length_b 18.817419
_cell_length_c 16.431507
_cell_angle_alpha 90.000000
_cell_angle_beta 90.000000
_cell_angle_gamma 90.000000
_cell_volume 1675.204980
_symmetry_space_group_name_H-M "C 2 2 2"
_symmetry_group_IT_number 21
_symmetry_cell_setting 'orthorhombic'
loop_
_space_group_symop_operation_xyz
x,y,z
-x,-y,z
x,-y,-z
-x,y,-z
1/2+x,1/2+y,z
1/2-x,1/2-y,z
1/2+x,1/2-y,-z
1/2-x,1/2+y,-z
loop_
_atom_site_type_symbol
_atom_site_label
_atom_site_fract_x
_atom_site_fract_y
_atom_site_fract_z
Si Si1 0.253376 0.335470 0.177109
Si Si2 0.253046 0.832748 0.264700
Si Si3 0.748617 0.529691 0.407030
Si Si4 0.580177 0.813337 0.409786
Si Si5 0.252120 0.530106 0.908293
O O1 0.250000 0.250000 0.163763
O O2 0.487414 0.356978 0.233621
O O3 0.265333 0.384724 0.097373
O O4 0.000091 0.359235 0.220559
O O5 0.250000 0.750000 0.241482
O O6 0.333142 0.831691 0.359038
O O7 0.500000 0.500000 0.367969
O O8 0.749676 0.500000 0.500000
O O9 0.764712 0.614264 0.412405
O O10 0.000000 0.500000 0.368152
O O11 0.500000 0.792356 0.500000
O O12 0.750000 0.750000 0.373406
O O13 0.500000 0.500000 0.868323
O O14 0.000000 0.500000 0.871338
O O15 0.252565 0.500000 0.000000
#
# Coordination Sequence:
#
# PCOD9324173 Si02
#       5
#     8   8   8   8   8
#     4  10  21  42  69  92 136 189 226 270 337 416
#     4  10  22  41  63  97 132 173 234 292 344 417
#     4  10  22  43  61  82 125 170 206 277 365 426
#     4  12  25  40  69 101 127 175 239 313 373 416
#     4  10  21  40  68 105 146 179 217 284 333 393
#
# _framework density 23.877673000000001
#
# number of rings (size 3 to 8) (size 9 to 14) (size 15 to 20)
#    0.000    1.600    2.000    3.600    2.800    3.200 
#    0.000    8.000    0.000    0.000    0.000    0.000 
#    0.000    0.000    0.000    0.000    0.000    0.000 
#
# Total GULP energy -111707.442188 kJ/mol
# GULP energy per Si atom -5585.372109 kJ/mol
# Density = 2.382333 g / cm^3
# Si number density = 23.877673 Si / 1000 Ang^3
#
#
#
# Elastic Constant Matrix: (Units=GPa)
#
#
# Indices 1 2 3 4 5 6 
#
# 1 221.9863 57.2478 23.5791 0.0000 0.0000 0.0000
# 2 57.2478 151.0284 41.0219 0.0000 0.0000 0.0000
# 3 23.5791 41.0219 81.5846 0.0000 0.0000 0.0000
# 4 0.0000 0.0000 0.0000 7.7242 0.0000 0.0000
# 5 0.0000 0.0000 0.0000 0.0000 -25.2456 0.0000
# 6 0.0000 0.0000 0.0000 0.0000 0.0000 15.1327
#
#
#
# Elastic Compliance Matrix: (Units=1/GPa)
#
#
# Indices 1 2 3 4 5 6 
#
# 1 0.005016 -0.001746 -0.000572 0.000000 0.000000 0.000000
# 2 -0.001746 0.008276 -0.003657 0.000000 0.000000 0.000000
# 3 -0.000572 -0.003657 0.014261 0.000000 0.000000 0.000000
# 4 0.000000 0.000000 0.000000 0.129464 0.000000 0.000000
# 5 0.000000 0.000000 0.000000 0.000000 -0.039611 0.000000
# 6 0.000000 0.000000 0.000000 0.000000 0.000000 0.066082
#
#
# Mechanical properties :
#
#
# Convention : Reuss Voigt Hill
#
# Bulk Modulus (GPa) = 64.08534 77.58855 70.83695
# Shear Modulus (GPa) = 24.92040 21.70562 23.31301
#
# Velocity S-wave (km/s) = 3.23409 3.01829 3.12805
# Velocity P-wave (km/s) = 6.39086 6.68667 6.54044
#
# Compressibility (1/GPa) = 0.01560419
#
# Stress axis : x y z
#
# Youngs Moduli (GPa) = 199.37099 120.82625 70.12048
#
# Poissons Ratio (x) = 0.21096 0.04009
# Poissons Ratio (y) = 0.34809 0.25642
# Poissons Ratio (z) = 0.11399 0.44184
#
# Static dielectric constant tensor:
#      x y z
#    x 2.085120 0.000000 0.000000 
#    y 0.000000 1.944440 0.000000 
#    z 0.000000 0.000000 1.908680 
# 
# From -- ./inp_files/34680.got.cif
#   From: 2010.05.17/outbox.cif.g08.bks.cpg/sg21_18_cif.got.tgz:34680.got - 2010.06.03 23:14:55.
