data_PCOD9324854
_publ_section_title
;
Structure prediction by ZEFSAII (Michael W. Deem and Ramdas Pophale) SiO2 
 PCOD9324854
Probable space group: C 2 2 2
;
_chemical_formula_sum "Si O2"
_cell_formula_units_Z 48
_cell_length_a 8.645800
_cell_length_b 17.565370
_cell_length_c 14.341604
_cell_angle_alpha 90.000000
_cell_angle_beta 90.000000
_cell_angle_gamma 90.000000
_cell_volume 2178.011727
_symmetry_space_group_name_H-M "C 2 2 2"
_symmetry_group_IT_number 21
_symmetry_cell_setting 'orthorhombic'
loop_
_space_group_symop_operation_xyz
x,y,z
-x,-y,z
x,-y,-z
-x,y,-z
1/2+x,1/2+y,z
1/2-x,1/2-y,z
1/2+x,1/2-y,-z
1/2-x,1/2+y,-z
loop_
_atom_site_type_symbol
_atom_site_label
_atom_site_fract_x
_atom_site_fract_y
_atom_site_fract_z
Si Si1 0.107859 0.303345 0.081558
Si Si2 0.672153 0.413827 0.030533
Si Si3 0.541417 0.918952 0.771413
Si Si4 0.889071 0.925573 0.754441
Si Si5 0.917708 0.650309 0.405723
Si Si6 0.946661 0.176412 0.601297
O O1 0.250000 0.250000 0.119975
O O2 0.004902 0.348608 0.158820
O O3 0.202474 0.364720 0.021804
O O4 0.000000 0.266528 0.000000
O O5 0.654981 0.401826 0.140330
O O6 0.704987 0.500000 0.000000
O O7 0.500000 0.397585 0.000000
O O8 0.710581 0.930026 0.723792
O O9 0.438127 0.904039 0.681491
O O10 0.500000 0.000000 0.818535
O O11 0.979730 0.867970 0.687870
O O12 0.000000 0.000000 0.759791
O O13 0.990319 0.734514 0.388283
O O14 0.736118 0.665980 0.407836
O O15 0.000000 0.622163 0.500000
O O16 0.000000 0.148238 0.500000
#
# Coordination Sequence:
#
# PCOD9324854 Si02
#       6
#     8   8   8   8   8   8
#     4  12  28  48  71 107 147 193 250 310 369 445
#     4  11  23  43  71  99 140 192 240 300 366 440
#     4  12  27  46  74 106 145 193 244 306 375 444
#     4  12  24  44  71 104 139 190 245 300 367 442
#     4  10  23  45  71 104 143 188 236 297 371 446
#     4  10  23  43  72 104 144 185 237 303 371 443
#
# _framework density 22.038449
#
# number of rings (size 3 to 8) (size 9 to 14) (size 15 to 20)
#    0.000    0.833    3.333    3.500    4.667    4.000 
#    0.000    3.333    0.000    0.000    0.000    0.000 
#    0.000    0.000    0.000    0.000    0.000    0.000 
#
# Total GULP energy -133794.336258 kJ/mol
# GULP energy per Si atom -5574.764011 kJ/mol
# Density = 2.198829 g / cm^3
# Si number density = 22.038449 Si / 1000 Ang^3
#
#
#
# Elastic Constant Matrix: (Units=GPa)
#
#
# Indices 1 2 3 4 5 6 
#
# 1 87.4040 18.2579 3.1968 0.0000 0.0000 0.0000
# 2 18.2579 69.0329 27.2481 0.0000 0.0000 0.0000
# 3 3.1968 27.2481 102.7035 0.0000 0.0000 0.0000
# 4 0.0000 0.0000 0.0000 25.6421 0.0000 0.0000
# 5 0.0000 0.0000 0.0000 0.0000 39.2154 0.0000
# 6 0.0000 0.0000 0.0000 0.0000 0.0000 43.3640
#
#
#
# Elastic Compliance Matrix: (Units=1/GPa)
#
#
# Indices 1 2 3 4 5 6 
#
# 1 0.012136 -0.003419 0.000529 0.000000 0.000000 0.000000
# 2 -0.003419 0.017143 -0.004442 0.000000 0.000000 0.000000
# 3 0.000529 -0.004442 0.010899 0.000000 0.000000 0.000000
# 4 0.000000 0.000000 0.000000 0.038998 0.000000 0.000000
# 5 0.000000 0.000000 0.000000 0.000000 0.025500 0.000000
# 6 0.000000 0.000000 0.000000 0.000000 0.000000 0.023061
#
#
# Mechanical properties :
#
#
# Convention : Reuss Voigt Hill
#
# Bulk Modulus (GPa) = 39.19191 39.61622 39.40407
# Shear Modulus (GPa) = 33.13353 35.67348 34.40350
#
# Velocity S-wave (km/s) = 3.88163 4.02766 3.95532
# Velocity P-wave (km/s) = 6.15723 6.29638 6.22719
#
# Compressibility (1/GPa) = 0.02551547
#
# Stress axis : x y z
#
# Youngs Moduli (GPa) = 82.40026 58.33200 91.75367
#
# Poissons Ratio (x) = 0.19941 -0.04856
# Poissons Ratio (y) = 0.28169 0.40755
# Poissons Ratio (z) = -0.04361 0.25910
#
# Static dielectric constant tensor:
#      x y z
#    x 1.649510 0.000000 0.000000 
#    y 0.000000 1.830890 0.000000 
#    z 0.000000 0.000000 1.699530 
# 
# From -- ./inp_files/30476.got.cif
#   From: 2010.05.17/outbox.cif.g08.bks.cpg/sg21_16_cif.got.tgz:30476.got - 2010.06.03 23:14:55.
