data_PCOD9324444
_publ_section_title
;
Structure prediction by ZEFSAII (Michael W. Deem and Ramdas Pophale) SiO2 
 PCOD9324444
Probable space group: C 2 2 2
;
_chemical_formula_sum "Si O2"
_cell_formula_units_Z 34
_cell_length_a 6.249035
_cell_length_b 30.307528
_cell_length_c 9.449053
_cell_angle_alpha 90.000000
_cell_angle_beta 90.000000
_cell_angle_gamma 90.000000
_cell_volume 1789.582636
_symmetry_space_group_name_H-M "C 2 2 2"
_symmetry_group_IT_number 21
_symmetry_cell_setting 'orthorhombic'
loop_
_space_group_symop_operation_xyz
x,y,z
-x,-y,z
x,-y,-z
-x,y,-z
1/2+x,1/2+y,z
1/2-x,1/2-y,z
1/2+x,1/2-y,-z
1/2-x,1/2+y,-z
loop_
_atom_site_type_symbol
_atom_site_label
_atom_site_fract_x
_atom_site_fract_y
_atom_site_fract_z
Si Si1 0.000000 0.828828 0.500000
Si Si2 0.242421 0.300888 0.239797
Si Si3 0.891894 0.632369 0.652215
Si Si4 0.500000 0.500000 0.000000
Si Si5 0.500000 0.646680 0.000000
Si Si6 0.188446 0.571412 0.110220
O O1 0.151258 0.801721 0.604265
O O2 0.149476 0.855947 0.391888
O O3 0.250000 0.250000 0.194985
O O4 0.019766 0.328392 0.263397
O O5 0.385578 0.325857 0.123386
O O6 0.903766 0.587165 0.740193
O O7 0.000000 0.627390 0.500000
O O8 0.351754 0.469024 0.902393
O O9 0.680687 0.614746 0.936986
O O10 0.000000 0.562825 0.000000
#
# Coordination Sequence:
#
# PCOD9324444 Si02
#       6
#     4   8   8   2   4   8
#     4  10  22  40  58  87 126 176 218 265 310 372
#     4  11  24  37  57  93 130 173 224 265 310 365
#     4  10  22  39  64  91 122 175 211 258 319 383
#     4  10  26  36  72 100 112 156 202 270 320 404
#     4  11  22  39  60  90 122 172 208 267 320 379
#     4  11  21  43  66  91 124 155 212 257 329 390
#
# _framework density 18.998843999999998
#
# number of rings (size 3 to 8) (size 9 to 14) (size 15 to 20)
#    0.000    1.412    4.706    0.353    4.941    1.882 
#    0.000    0.000    0.000   10.588    0.000    0.000 
#    0.000    0.000    0.000    0.000    0.000    0.000 
#
# Total GULP energy -94763.282445 kJ/mol
# GULP energy per Si atom -5574.310732 kJ/mol
# Density = 1.895560 g / cm^3
# Si number density = 18.998844 Si / 1000 Ang^3
#
#
#
# Elastic Constant Matrix: (Units=GPa)
#
#
# Indices 1 2 3 4 5 6 
#
# 1 100.5519 48.9693 30.1457 0.0000 0.0000 0.0000
# 2 48.9693 127.4424 48.6133 0.0000 0.0000 0.0000
# 3 30.1457 48.6133 81.0561 0.0000 0.0000 0.0000
# 4 0.0000 0.0000 0.0000 14.6446 0.0000 0.0000
# 5 0.0000 0.0000 0.0000 0.0000 26.8126 0.0000
# 6 0.0000 0.0000 0.0000 0.0000 0.0000 16.7462
#
#
#
# Elastic Compliance Matrix: (Units=1/GPa)
#
#
# Indices 1 2 3 4 5 6 
#
# 1 0.012558 -0.003947 -0.002303 0.000000 0.000000 0.000000
# 2 -0.003947 0.011415 -0.005378 0.000000 0.000000 0.000000
# 3 -0.002303 -0.005378 0.016419 0.000000 0.000000 0.000000
# 4 0.000000 0.000000 0.000000 0.068284 0.000000 0.000000
# 5 0.000000 0.000000 0.000000 0.000000 0.037296 0.000000
# 6 0.000000 0.000000 0.000000 0.000000 0.000000 0.059715
#
#
# Mechanical properties :
#
#
# Convention : Reuss Voigt Hill
#
# Bulk Modulus (GPa) = 58.35868 62.72301 60.54084
# Shear Modulus (GPa) = 21.30788 23.72883 22.51836
#
# Velocity S-wave (km/s) = 3.35257 3.53790 3.44648
# Velocity P-wave (km/s) = 6.76535 7.05512 6.91175
#
# Compressibility (1/GPa) = 0.01713541
#
# Stress axis : x y z
#
# Youngs Moduli (GPa) = 79.63245 87.60662 60.90387
#
# Poissons Ratio (x) = 0.34575 0.14028
# Poissons Ratio (y) = 0.31428 0.32755
# Poissons Ratio (z) = 0.18342 0.47116
#
# Static dielectric constant tensor:
#      x y z
#    x 1.726910 0.000000 0.000000 
#    y 0.000000 1.647750 0.000000 
#    z 0.000000 0.000000 1.691240 
# 
# From -- ./inp_files/9248.got.cif
#   From: 2010.05.17/outbox.cif.g08.bks.cpg/sg21_5_cif.got.tgz:9248.got - 2010.06.03 23:14:55.
