data_PCOD9324412
_publ_section_title
;
Structure prediction by ZEFSAII (Michael W. Deem and Ramdas Pophale) SiO2 
 PCOD9324412
Probable space group: C 2 2 2
;
_chemical_formula_sum "Si O2"
_cell_formula_units_Z 40
_cell_length_a 11.662961
_cell_length_b 16.280421
_cell_length_c 10.101089
_cell_angle_alpha 90.000000
_cell_angle_beta 90.000000
_cell_angle_gamma 90.000000
_cell_volume 1917.973720
_symmetry_space_group_name_H-M "C 2 2 2"
_symmetry_group_IT_number 21
_symmetry_cell_setting 'orthorhombic'
loop_
_space_group_symop_operation_xyz
x,y,z
-x,-y,z
x,-y,-z
-x,y,-z
1/2+x,1/2+y,z
1/2-x,1/2-y,z
1/2+x,1/2-y,-z
1/2-x,1/2+y,-z
loop_
_atom_site_type_symbol
_atom_site_label
_atom_site_fract_x
_atom_site_fract_y
_atom_site_fract_z
Si Si1 0.374809 0.238593 0.438686
Si Si2 0.902827 0.834369 0.174563
Si Si3 0.199580 0.999612 0.843564
Si Si4 0.840817 0.815984 0.876344
Si Si5 0.621469 0.953925 0.373013
O O1 0.500000 0.263255 0.500000
O O2 0.250000 0.250000 0.511268
O O3 0.357834 0.294265 0.307733
O O4 0.389578 0.142289 0.403949
O O5 0.028189 0.796183 0.155538
O O6 0.901390 0.933659 0.182314
O O7 0.835455 0.820136 0.037163
O O8 0.178896 0.094700 0.813569
O O9 0.303543 0.966569 0.756680
O O10 0.223930 0.000000 0.000000
O O11 0.750000 0.750000 0.830039
O O12 0.500000 0.000000 0.355237
O O13 0.676570 0.000000 0.500000
#
# Coordination Sequence:
#
# PCOD9324412 Si02
#       5
#     8   8   8   8   8
#     4  12  25  45  73 101 141 193 246 298 368 433
#     4  10  22  42  65  96 141 181 230 295 365 425
#     4  10  22  42  69  98 138 185 234 291 365 433
#     4  10  22  38  66 103 135 178 233 296 356 436
#     4  11  24  44  66  98 142 189 235 302 364 429
#
# _framework density 20.855342
#
# number of rings (size 3 to 8) (size 9 to 14) (size 15 to 20)
#    0.000    1.400    4.000    1.200    5.600    5.200 
#    0.000    0.000    0.000    0.000    0.000    0.000 
#    0.000    0.000    0.000    0.000    0.000    0.000 
#
# Total GULP energy -111525.076123 kJ/mol
# GULP energy per Si atom -5576.253806 kJ/mol
# Density = 2.080787 g / cm^3
# Si number density = 20.855342 Si / 1000 Ang^3
#
#
#
# Elastic Constant Matrix: (Units=GPa)
#
#
# Indices 1 2 3 4 5 6 
#
# 1 125.6349 45.9961 23.0080 0.0000 0.0000 0.0000
# 2 45.9961 125.3387 28.4983 0.0000 0.0000 0.0000
# 3 23.0080 28.4983 77.0318 0.0000 0.0000 0.0000
# 4 0.0000 0.0000 0.0000 24.3296 0.0000 0.0000
# 5 0.0000 0.0000 0.0000 0.0000 9.7091 0.0000
# 6 0.0000 0.0000 0.0000 0.0000 0.0000 38.1083
#
#
#
# Elastic Compliance Matrix: (Units=1/GPa)
#
#
# Indices 1 2 3 4 5 6 
#
# 1 0.009388 -0.003065 -0.001670 0.000000 0.000000 0.000000
# 2 -0.003065 0.009712 -0.002677 0.000000 0.000000 0.000000
# 3 -0.001670 -0.002677 0.014471 0.000000 0.000000 0.000000
# 4 0.000000 0.000000 0.000000 0.041102 0.000000 0.000000
# 5 0.000000 0.000000 0.000000 0.000000 0.102997 0.000000
# 6 0.000000 0.000000 0.000000 0.000000 0.000000 0.026241
#
#
# Mechanical properties :
#
#
# Convention : Reuss Voigt Hill
#
# Bulk Modulus (GPa) = 53.34676 58.11226 55.72951
# Shear Modulus (GPa) = 22.22377 29.79625 26.01001
#
# Velocity S-wave (km/s) = 3.26792 3.78393 3.53535
# Velocity P-wave (km/s) = 6.31459 6.85680 6.59127
#
# Compressibility (1/GPa) = 0.01874528
#
# Stress axis : x y z
#
# Youngs Moduli (GPa) = 106.52308 102.96474 69.10392
#
# Poissons Ratio (x) = 0.31562 0.11540
# Poissons Ratio (y) = 0.32653 0.18502
# Poissons Ratio (z) = 0.17788 0.27568
#
# Static dielectric constant tensor:
#      x y z
#    x 1.820420 0.000000 0.000000 
#    y 0.000000 1.743540 0.000000 
#    z 0.000000 0.000000 1.769670 
# 
# From -- ./inp_files/23793.got.cif
#   From: 2010.05.17/outbox.cif.g08.bks.cpg/sg21_12_cif.got.tgz:23793.got - 2010.06.03 23:14:55.
