data_PCOD9324258
_publ_section_title
;
Structure prediction by ZEFSAII (Michael W. Deem and Ramdas Pophale) SiO2 
 PCOD9324258
Probable space group: C 2 2 2
;
_chemical_formula_sum "Si O2"
_cell_formula_units_Z 52
_cell_length_a 19.548960
_cell_length_b 6.058880
_cell_length_c 22.224352
_cell_angle_alpha 90.000000
_cell_angle_beta 90.000000
_cell_angle_gamma 90.000000
_cell_volume 2632.358989
_symmetry_space_group_name_H-M "C 2 2 2"
_symmetry_group_IT_number 21
_symmetry_cell_setting 'orthorhombic'
loop_
_space_group_symop_operation_xyz
x,y,z
-x,-y,z
x,-y,-z
-x,y,-z
1/2+x,1/2+y,z
1/2-x,1/2-y,z
1/2+x,1/2-y,-z
1/2-x,1/2+y,-z
loop_
_atom_site_type_symbol
_atom_site_label
_atom_site_fract_x
_atom_site_fract_y
_atom_site_fract_z
Si Si1 0.079983 0.056049 0.194002
Si Si2 0.672061 0.262616 0.112449
Si Si3 0.928114 0.867450 0.327150
Si Si4 0.376862 0.500000 0.000000
Si Si5 0.250000 0.750000 0.471624
Si Si6 0.396459 0.354042 0.560069
Si Si7 0.073092 0.622517 0.917835
Si Si8 0.000000 0.500000 0.607378
O O1 0.103874 0.119307 0.261013
O O2 0.081056 0.248969 0.145022
O O3 0.123489 0.857756 0.164978
O O4 0.000000 0.000000 0.197683
O O5 0.750000 0.250000 0.132899
O O6 0.668652 0.428393 0.056131
O O7 0.636305 0.046157 0.084938
O O8 0.946392 0.623593 0.349351
O O9 0.891012 0.986459 0.382221
O O10 0.000000 0.000000 0.323521
O O11 0.420843 0.298567 0.027809
O O12 0.257470 0.500000 0.500000
O O13 0.324453 0.771679 0.441883
O O14 0.407533 0.500000 0.500000
O O15 0.458771 0.182818 0.569604
O O16 0.000000 0.500000 0.919967
#
# Coordination Sequence:
#
# PCOD9324258 Si02
#       8
#     8   8   8   4   4   8   8   4
#     4  10  21  42  66  94 127 166 228 265 322 399
#     4  11  25  42  66  91 130 169 211 269 332 386
#     4   9  21  38  63  97 128 167 219 280 332 392
#     4  10  26  39  62  96 129 158 222 264 323 394
#     4  10  24  44  66  90 136 190 224 268 342 432
#     4  10  23  41  63  95 134 172 223 279 341 404
#     4  11  23  41  68  94 124 175 211 270 325 387
#     4  10  22  37  64  98 124 170 217 288 340 390
#
# _framework density 19.754145000000001
#
# number of rings (size 3 to 8) (size 9 to 14) (size 15 to 20)
#    0.000    1.846    1.538    0.462    7.538    8.308 
#    1.385    0.000    3.385    0.000    0.000    0.000 
#    0.000    0.000    0.000    0.000    0.000    0.000 
#
# Total GULP energy -144954.004590 kJ/mol
# GULP energy per Si atom -5575.154023 kJ/mol
# Density = 1.970918 g / cm^3
# Si number density = 19.754145 Si / 1000 Ang^3
#
#
#
# Elastic Constant Matrix: (Units=GPa)
#
#
# Indices 1 2 3 4 5 6 
#
# 1 100.5119 37.3966 35.7403 0.0000 0.0000 0.0000
# 2 37.3966 94.9834 43.4559 0.0000 0.0000 0.0000
# 3 35.7403 43.4559 145.5408 0.0000 0.0000 0.0000
# 4 0.0000 0.0000 0.0000 10.6110 0.0000 0.0000
# 5 0.0000 0.0000 0.0000 0.0000 6.3088 0.0000
# 6 0.0000 0.0000 0.0000 0.0000 0.0000 26.6672
#
#
#
# Elastic Compliance Matrix: (Units=1/GPa)
#
#
# Indices 1 2 3 4 5 6 
#
# 1 0.012044 -0.003925 -0.001786 0.000000 0.000000 0.000000
# 2 -0.003925 0.013473 -0.003059 0.000000 0.000000 0.000000
# 3 -0.001786 -0.003059 0.008223 0.000000 0.000000 0.000000
# 4 0.000000 0.000000 0.000000 0.094242 0.000000 0.000000
# 5 0.000000 0.000000 0.000000 0.000000 0.158509 0.000000
# 6 0.000000 0.000000 0.000000 0.000000 0.000000 0.037499
#
#
# Mechanical properties :
#
#
# Convention : Reuss Voigt Hill
#
# Bulk Modulus (GPa) = 61.72582 63.80239 62.76411
# Shear Modulus (GPa) = 14.41212 23.68030 19.04621
#
# Velocity S-wave (km/s) = 2.70399 3.46605 3.10847
# Velocity P-wave (km/s) = 6.40809 6.95603 6.68768
#
# Compressibility (1/GPa) = 0.01620067
#
# Stress axis : x y z
#
# Youngs Moduli (GPa) = 83.02588 74.22244 121.61316
#
# Poissons Ratio (x) = 0.29133 0.21717
# Poissons Ratio (y) = 0.32588 0.37200
# Poissons Ratio (z) = 0.14827 0.22704
#
# Static dielectric constant tensor:
#      x y z
#    x 1.702190 0.000000 0.000000 
#    y 0.000000 1.766700 0.000000 
#    z 0.000000 0.000000 1.717150 
# 
# From -- ./inp_files/37857.got.cif
#   From: 2010.05.17/outbox.cif.g08.bks.cpg/sg21_19_cif.got.tgz:37857.got - 2010.06.03 23:14:55.
