data_PCOD9324460
_publ_section_title
;
Structure prediction by ZEFSAII (Michael W. Deem and Ramdas Pophale) SiO2 
 PCOD9324460
Probable space group: C 2 2 2
;
_chemical_formula_sum "Si O2"
_cell_formula_units_Z 32
_cell_length_a 7.575779
_cell_length_b 18.168138
_cell_length_c 10.951718
_cell_angle_alpha 90.000000
_cell_angle_beta 90.000000
_cell_angle_gamma 90.000000
_cell_volume 1507.370353
_symmetry_space_group_name_H-M "C 2 2 2"
_symmetry_group_IT_number 21
_symmetry_cell_setting 'orthorhombic'
loop_
_space_group_symop_operation_xyz
x,y,z
-x,-y,z
x,-y,-z
-x,y,-z
1/2+x,1/2+y,z
1/2-x,1/2-y,z
1/2+x,1/2-y,-z
1/2-x,1/2+y,-z
loop_
_atom_site_type_symbol
_atom_site_label
_atom_site_fract_x
_atom_site_fract_y
_atom_site_fract_z
Si Si1 0.016068 0.177660 0.136101
Si Si2 0.763877 0.453081 0.123981
Si Si3 0.948984 0.724158 0.361710
Si Si4 0.129362 0.597393 0.790186
O O1 0.965119 0.231174 0.248322
O O2 0.217853 0.149083 0.153040
O O3 0.888582 0.106372 0.139248
O O4 0.000000 0.210940 0.000000
O O5 0.780906 0.517602 0.225199
O O6 0.955085 0.414698 0.128557
O O7 0.737682 0.500000 0.000000
O O8 0.750000 0.750000 0.355625
O O9 0.945712 0.638274 0.328372
O O10 0.000000 0.739549 0.500000
#
# Coordination Sequence:
#
# PCOD9324460 Si02
#       4
#     8   8   8   8
#     4  11  23  39  68 101 133 172 220 281 345 404
#     4  11  22  36  66  99 138 172 211 276 349 402
#     4  10  25  47  68  94 136 183 235 282 337 406
#     4  10  22  40  61  98 132 173 221 273 333 409
#
# _framework density 21.229023000000002
#
# number of rings (size 3 to 8) (size 9 to 14) (size 15 to 20)
#    0.000    1.500    2.500    2.250    3.500    2.000 
#    4.500    2.500    0.000    1.500    0.000    0.000 
#    0.000    0.000    0.000    0.000    0.000    0.000 
#
# Total GULP energy -89240.742970 kJ/mol
# GULP energy per Si atom -5577.546436 kJ/mol
# Density = 2.118070 g / cm^3
# Si number density = 21.229023 Si / 1000 Ang^3
#
#
#
# Elastic Constant Matrix: (Units=GPa)
#
#
# Indices 1 2 3 4 5 6 
#
# 1 94.3613 23.9378 35.1342 0.0000 0.0000 0.0000
# 2 23.9378 101.3930 77.7216 0.0000 0.0000 0.0000
# 3 35.1342 77.7216 157.2277 0.0000 0.0000 0.0000
# 4 0.0000 0.0000 0.0000 21.5131 0.0000 0.0000
# 5 0.0000 0.0000 0.0000 0.0000 22.9574 0.0000
# 6 0.0000 0.0000 0.0000 0.0000 0.0000 24.6750
#
#
#
# Elastic Compliance Matrix: (Units=1/GPa)
#
#
# Indices 1 2 3 4 5 6 
#
# 1 0.011652 -0.001216 -0.002003 0.000000 0.000000 0.000000
# 2 -0.001216 0.016007 -0.007641 0.000000 0.000000 0.000000
# 3 -0.002003 -0.007641 0.010585 0.000000 0.000000 0.000000
# 4 0.000000 0.000000 0.000000 0.046483 0.000000 0.000000
# 5 0.000000 0.000000 0.000000 0.000000 0.043559 0.000000
# 6 0.000000 0.000000 0.000000 0.000000 0.000000 0.040527
#
#
# Mechanical properties :
#
#
# Convention : Reuss Voigt Hill
#
# Bulk Modulus (GPa) = 60.51582 69.61880 65.06731
# Shear Modulus (GPa) = 25.50515 28.24165 26.87340
#
# Velocity S-wave (km/s) = 3.46992 3.65133 3.56178
# Velocity P-wave (km/s) = 6.67996 7.11629 6.90158
#
# Compressibility (1/GPa) = 0.01652460
#
# Stress axis : x y z
#
# Youngs Moduli (GPa) = 85.82471 62.47429 94.47518
#
# Poissons Ratio (x) = 0.07595 0.18921
# Poissons Ratio (y) = 0.10433 0.72187
# Poissons Ratio (z) = 0.17189 0.47735
#
# Static dielectric constant tensor:
#      x y z
#    x 1.784400 0.000000 0.000000 
#    y 0.000000 1.865080 0.000000 
#    z 0.000000 0.000000 1.872000 
# 
# From -- ./inp_files/10443.got.cif
#   From: 2010.05.17/outbox.cif.g08.bks.cpg/sg21_6_cif.got.tgz:10443.got - 2010.06.03 23:14:55.
