data_PCOD9324963
_publ_section_title
;
Structure prediction by ZEFSAII (Michael W. Deem and Ramdas Pophale) SiO2 
 PCOD9324963
Probable space group: C 2 2 2
;
_chemical_formula_sum "Si O2"
_cell_formula_units_Z 52
_cell_length_a 23.131730
_cell_length_b 18.458953
_cell_length_c 5.643715
_cell_angle_alpha 90.000000
_cell_angle_beta 90.000000
_cell_angle_gamma 90.000000
_cell_volume 2409.795854
_symmetry_space_group_name_H-M "C 2 2 2"
_symmetry_group_IT_number 21
_symmetry_cell_setting 'orthorhombic'
loop_
_space_group_symop_operation_xyz
x,y,z
-x,-y,z
x,-y,-z
-x,y,-z
1/2+x,1/2+y,z
1/2-x,1/2-y,z
1/2+x,1/2-y,-z
1/2-x,1/2+y,-z
loop_
_atom_site_type_symbol
_atom_site_label
_atom_site_fract_x
_atom_site_fract_y
_atom_site_fract_z
Si Si1 0.235712 0.924552 0.866514
Si Si2 0.250000 0.250000 0.457423
Si Si3 0.341490 0.828661 0.873083
Si Si4 0.971580 0.144237 0.751756
Si Si5 0.133873 0.918843 0.537527
Si Si6 0.831930 0.812014 0.827729
Si Si7 0.470591 0.819785 0.749810
O O1 0.302596 0.900861 0.904184
O O2 0.200851 0.929280 0.618954
O O3 0.201183 0.856927 0.975704
O O4 0.225099 0.000000 0.000000
O O5 0.299827 0.213845 0.306065
O O6 0.217202 0.197882 0.632322
O O7 0.403865 0.843366 0.764370
O O8 0.350421 0.768265 0.083956
O O9 0.905683 0.117267 0.739005
O O10 0.971639 0.231856 0.750333
O O11 0.000000 0.120632 0.500000
O O12 0.000000 0.120540 0.000000
O O13 0.125253 0.865611 0.311715
O O14 0.111882 0.000000 0.500000
O O15 0.500000 0.842635 0.500000
O O16 0.500000 0.842822 0.000000
#
# Coordination Sequence:
#
# PCOD9324963 Si02
#       7
#     8   4   8   8   8   8   8
#     4  12  24  41  63 101 139 179 223 283 364 426
#     4  12  20  36  66 100 130 168 226 278 346 402
#     4  12  24  41  68 104 135 180 233 289 349 425
#     4  10  24  43  67  92 130 179 237 286 330 396
#     4  12  26  42  65  93 138 192 228 285 345 418
#     4  12  22  38  65  97 136 178 224 282 342 418
#     4  10  24  43  69 100 133 176 229 295 348 403
#
# _framework density 21.578592
#
# number of rings (size 3 to 8) (size 9 to 14) (size 15 to 20)
#    0.000    0.615    6.154    1.846   10.769    0.308 
#    0.000    0.769    0.000    0.462    0.000    1.077 
#    0.000    0.000    0.000    0.000    0.000    0.000 
#
# Total GULP energy -144944.649941 kJ/mol
# GULP energy per Si atom -5574.794228 kJ/mol
# Density = 2.152948 g / cm^3
# Si number density = 21.578592 Si / 1000 Ang^3
#
#
#
# Elastic Constant Matrix: (Units=GPa)
#
#
# Indices 1 2 3 4 5 6 
#
# 1 119.1317 -8.1694 38.4924 0.0000 0.0000 0.0000
# 2 -8.1694 33.2726 5.9589 0.0000 0.0000 0.0000
# 3 38.4924 5.9589 93.5719 0.0000 0.0000 0.0000
# 4 0.0000 0.0000 0.0000 -80.6566 0.0000 0.0000
# 5 0.0000 0.0000 0.0000 0.0000 37.6853 0.0000
# 6 0.0000 0.0000 0.0000 0.0000 0.0000 85.6300
#
#
#
# Elastic Compliance Matrix: (Units=1/GPa)
#
#
# Indices 1 2 3 4 5 6 
#
# 1 0.010013 0.003233 -0.004325 0.000000 0.000000 0.000000
# 2 0.003233 0.031445 -0.003333 0.000000 0.000000 0.000000
# 3 -0.004325 -0.003333 0.012678 0.000000 0.000000 0.000000
# 4 0.000000 0.000000 0.000000 -0.012398 0.000000 0.000000
# 5 0.000000 0.000000 0.000000 0.000000 0.026536 0.000000
# 6 0.000000 0.000000 0.000000 0.000000 0.000000 0.011678
#
#
# Mechanical properties :
#
#
# Convention : Reuss Voigt Hill
#
# Bulk Modulus (GPa) = 22.08083 35.39335 28.73709
# Shear Modulus (GPa) = 48.12441 22.51136 35.31789
#
# Velocity S-wave (km/s) = 4.72761 3.23341 4.05002
# Velocity P-wave (km/s) = 6.32893 5.51158 5.93435
#
# Compressibility (1/GPa) = 0.04528815
#
# Stress axis : x y z
#
# Youngs Moduli (GPa) = 99.86791 31.80113 78.87450
#
# Poissons Ratio (x) = -0.10282 0.34113
# Poissons Ratio (y) = -0.32289 0.26285
# Poissons Ratio (z) = 0.43193 0.10598
#
# Static dielectric constant tensor:
#      x y z
#    x 1.870350 0.000000 0.000000 
#    y 0.000000 1.785450 0.000000 
#    z 0.000000 0.000000 -0.729260 
# 
# From -- ./inp_files/5991.got.cif
#   From: 2010.05.17/outbox.cif.g08.bks.cpg/sg21_3_cif.got.tgz:5991.got - 2010.06.03 23:14:55.
