data_PCOD9324819
_publ_section_title
;
Structure prediction by ZEFSAII (Michael W. Deem and Ramdas Pophale) SiO2 
 PCOD9324819
Probable space group: C 2 2 2
;
_chemical_formula_sum "Si O2"
_cell_formula_units_Z 40
_cell_length_a 13.825592
_cell_length_b 9.411373
_cell_length_c 14.783674
_cell_angle_alpha 90.000000
_cell_angle_beta 90.000000
_cell_angle_gamma 90.000000
_cell_volume 1923.619185
_symmetry_space_group_name_H-M "C 2 2 2"
_symmetry_group_IT_number 21
_symmetry_cell_setting 'orthorhombic'
loop_
_space_group_symop_operation_xyz
x,y,z
-x,-y,z
x,-y,-z
-x,y,-z
1/2+x,1/2+y,z
1/2-x,1/2-y,z
1/2+x,1/2-y,-z
1/2-x,1/2+y,-z
loop_
_atom_site_type_symbol
_atom_site_label
_atom_site_fract_x
_atom_site_fract_y
_atom_site_fract_z
Si Si1 0.298668 0.461065 0.272128
Si Si2 0.000000 0.500000 0.828735
Si Si3 0.596029 0.815637 0.318520
Si Si4 0.285469 0.916727 0.093703
Si Si5 0.000000 0.302533 0.500000
Si Si6 0.325384 0.635943 0.436849
O O1 0.383085 0.351820 0.302382
O O2 0.198974 0.387634 0.301376
O O3 0.281855 0.506541 0.169263
O O4 0.306574 0.598456 0.333979
O O5 0.972446 0.372369 0.760594
O O6 0.900451 0.551620 0.879939
O O7 0.561837 0.867900 0.418052
O O8 0.250000 0.750000 0.088884
O O9 0.270586 0.000000 0.000000
O O10 0.929019 0.203861 0.444117
O O11 0.318873 0.500000 0.500000
O O12 0.250000 0.750000 0.472013
#
# Coordination Sequence:
#
# PCOD9324819 Si02
#       6
#     8   4   8   8   4   8
#     4  10  23  45  67  97 141 187 231 290 364 419
#     4  10  25  47  74 104 150 184 235 298 369 434
#     4  10  23  42  66 100 142 192 230 292 344 424
#     4  11  26  48  80 108 139 186 238 304 378 444
#     4  12  25  39  62 100 137 188 241 280 347 400
#     4  12  25  42  63  94 137 186 236 288 345 417
#
# _framework density 20.794136999999999
#
# number of rings (size 3 to 8) (size 9 to 14) (size 15 to 20)
#    0.000    1.200    2.000    2.400   14.000    0.400 
#    0.000    0.000    0.000    0.000    0.000    0.000 
#    0.000    0.000    0.000    0.000    0.000    0.000 
#
# Total GULP energy -111545.189136 kJ/mol
# GULP energy per Si atom -5577.259457 kJ/mol
# Density = 2.074681 g / cm^3
# Si number density = 20.794137 Si / 1000 Ang^3
#
#
#
# Elastic Constant Matrix: (Units=GPa)
#
#
# Indices 1 2 3 4 5 6 
#
# 1 45.6141 10.3368 20.4822 0.0000 0.0000 0.0000
# 2 10.3368 64.7212 19.9480 0.0000 0.0000 0.0000
# 3 20.4822 19.9480 151.9664 0.0000 0.0000 0.0000
# 4 0.0000 0.0000 0.0000 35.5794 0.0000 0.0000
# 5 0.0000 0.0000 0.0000 0.0000 40.5961 0.0000
# 6 0.0000 0.0000 0.0000 0.0000 0.0000 24.3196
#
#
#
# Elastic Compliance Matrix: (Units=1/GPa)
#
#
# Indices 1 2 3 4 5 6 
#
# 1 0.023860 -0.002938 -0.002830 0.000000 0.000000 0.000000
# 2 -0.002938 0.016464 -0.001765 0.000000 0.000000 0.000000
# 3 -0.002830 -0.001765 0.007194 0.000000 0.000000 0.000000
# 4 0.000000 0.000000 0.000000 0.028106 0.000000 0.000000
# 5 0.000000 0.000000 0.000000 0.000000 0.024633 0.000000
# 6 0.000000 0.000000 0.000000 0.000000 0.000000 0.041119
#
#
# Mechanical properties :
#
#
# Convention : Reuss Voigt Hill
#
# Bulk Modulus (GPa) = 30.81652 40.42621 35.62136
# Shear Modulus (GPa) = 29.89360 34.20133 32.04747
#
# Velocity S-wave (km/s) = 3.79568 4.05996 3.93004
# Velocity P-wave (km/s) = 5.83623 6.43903 6.14502
#
# Compressibility (1/GPa) = 0.03245013
#
# Stress axis : x y z
#
# Youngs Moduli (GPa) = 41.91153 60.73774 139.01333
#
# Poissons Ratio (x) = 0.17847 0.39343
# Poissons Ratio (y) = 0.12315 0.24538
# Poissons Ratio (z) = 0.11862 0.10721
#
# Static dielectric constant tensor:
#      x y z
#    x 1.802380 0.000000 0.000000 
#    y 0.000000 1.751990 0.000000 
#    z 0.000000 0.000000 1.741630 
# 
# From -- ./inp_files/32142.got.cif
#   From: 2010.05.17/outbox.cif.g08.bks.cpg/sg21_17_cif.got.tgz:32142.got - 2010.06.03 23:14:55.
