data_PCOD9324862
_publ_section_title
;
Structure prediction by ZEFSAII (Michael W. Deem and Ramdas Pophale) SiO2 
 PCOD9324862
Probable space group: C 2 2 2
;
_chemical_formula_sum "Si O2"
_cell_formula_units_Z 64
_cell_length_a 29.783804
_cell_length_b 11.175927
_cell_length_c 9.764884
_cell_angle_alpha 90.000000
_cell_angle_beta 90.000000
_cell_angle_gamma 90.000000
_cell_volume 3250.355100
_symmetry_space_group_name_H-M "C 2 2 2"
_symmetry_group_IT_number 21
_symmetry_cell_setting 'orthorhombic'
loop_
_space_group_symop_operation_xyz
x,y,z
-x,-y,z
x,-y,-z
-x,y,-z
1/2+x,1/2+y,z
1/2-x,1/2-y,z
1/2+x,1/2-y,-z
1/2-x,1/2+y,-z
loop_
_atom_site_type_symbol
_atom_site_label
_atom_site_fract_x
_atom_site_fract_y
_atom_site_fract_z
Si Si1 0.130531 0.869389 0.968383
Si Si2 0.011993 0.135025 0.660920
Si Si3 0.732533 0.116759 0.593045
Si Si4 0.264637 0.385275 0.092706
Si Si5 0.425276 0.766950 0.740726
Si Si6 0.130558 0.637119 0.510265
Si Si7 0.398125 0.750924 0.243926
Si Si8 0.049623 0.513831 0.161741
O O1 0.181396 0.882536 0.916655
O O2 0.101660 0.809485 0.850023
O O3 0.127209 0.799346 0.111869
O O4 0.111734 0.000000 0.000000
O O5 0.063767 0.161815 0.695933
O O6 0.000000 0.147261 0.500000
O O7 0.976492 0.222713 0.734681
O O8 0.000000 0.000000 0.701536
O O9 0.750000 0.250000 0.549722
O O10 0.748344 0.098619 0.750195
O O11 0.678544 0.125797 0.583185
O O12 0.745556 0.000000 0.500000
O O13 0.250000 0.250000 0.048837
O O14 0.249640 0.500000 0.000000
O O15 0.401887 0.773810 0.593377
O O16 0.421806 0.903499 0.786878
O O17 0.112418 0.500000 0.500000
O O18 0.134221 0.697226 0.361188
O O19 0.427874 0.862918 0.197178
O O20 0.000000 0.500000 0.223357
O O21 0.046286 0.500000 0.000000
#
# Coordination Sequence:
#
# PCOD9324862 Si02
#       8
#     8   8   8   8   8   8   8   8
#     4  11  26  44  64  94 130 172 218 265 322 386
#     4  11  24  40  60  89 130 179 223 262 311 376
#     4  10  23  44  67  99 132 165 214 267 334 407
#     4  10  23  46  70  97 131 167 216 267 333 408
#     4  12  21  40  65  89 132 172 215 271 319 368
#     4  11  24  39  65 100 132 162 209 270 331 390
#     4  12  23  42  62  95 133 164 223 268 316 381
#     4  11  22  37  60  93 128 169 213 266 319 370
#
# _framework density 19.690156999999999
#
# number of rings (size 3 to 8) (size 9 to 14) (size 15 to 20)
#    0.000    1.000    5.000    2.250    0.000    5.000 
#    2.250    4.375    0.000    0.000    0.000    0.000 
#    0.000    0.000    0.000    0.000    0.000    0.000 
#
# Total GULP energy -178546.953922 kJ/mol
# GULP energy per Si atom -5579.592310 kJ/mol
# Density = 1.964534 g / cm^3
# Si number density = 19.690157 Si / 1000 Ang^3
#
#
#
# Elastic Constant Matrix: (Units=GPa)
#
#
# Indices 1 2 3 4 5 6 
#
# 1 67.8937 12.5034 35.6391 0.0000 0.0000 0.0000
# 2 12.5034 127.9007 40.6179 0.0000 0.0000 0.0000
# 3 35.6391 40.6179 96.9498 0.0000 0.0000 0.0000
# 4 0.0000 0.0000 0.0000 27.0509 0.0000 0.0000
# 5 0.0000 0.0000 0.0000 0.0000 33.9821 0.0000
# 6 0.0000 0.0000 0.0000 0.0000 0.0000 26.9654
#
#
#
# Elastic Compliance Matrix: (Units=1/GPa)
#
#
# Indices 1 2 3 4 5 6 
#
# 1 0.018268 0.000400 -0.006883 0.000000 0.000000 0.000000
# 2 0.000400 0.009027 -0.003929 0.000000 0.000000 0.000000
# 3 -0.006883 -0.003929 0.014491 0.000000 0.000000 0.000000
# 4 0.000000 0.000000 0.000000 0.036967 0.000000 0.000000
# 5 0.000000 0.000000 0.000000 0.000000 0.029427 0.000000
# 6 0.000000 0.000000 0.000000 0.000000 0.000000 0.037085
#
#
# Mechanical properties :
#
#
# Convention : Reuss Voigt Hill
#
# Bulk Modulus (GPa) = 47.70486 52.25168 49.97827
# Shear Modulus (GPa) = 28.88882 31.19862 30.04372
#
# Velocity S-wave (km/s) = 3.83452 3.98487 3.91042
# Velocity P-wave (km/s) = 6.62458 6.91135 6.76949
#
# Compressibility (1/GPa) = 0.02096223
#
# Stress axis : x y z
#
# Youngs Moduli (GPa) = 54.73949 110.77586 69.00845
#
# Poissons Ratio (x) = -0.04431 0.47499
# Poissons Ratio (y) = -0.02190 0.27114
# Poissons Ratio (z) = 0.37678 0.43525
#
# Static dielectric constant tensor:
#      x y z
#    x 1.692480 0.000000 0.000000 
#    y 0.000000 1.672180 0.000000 
#    z 0.000000 0.000000 1.712920 
# 
# From -- ./inp_files/19796.got.cif
#   From: 2010.05.17/outbox.cif.g08.bks.cpg/sg21_10_cif.got.tgz:19796.got - 2010.06.03 23:14:55.
