data_PCOD9324785
_publ_section_title
;
Structure prediction by ZEFSAII (Michael W. Deem and Ramdas Pophale) SiO2 
 PCOD9324785
Probable space group: C 2 2 2
;
_chemical_formula_sum "Si O2"
_cell_formula_units_Z 40
_cell_length_a 14.079235
_cell_length_b 9.812677
_cell_length_c 15.298558
_cell_angle_alpha 90.000000
_cell_angle_beta 90.000000
_cell_angle_gamma 90.000000
_cell_volume 2113.572058
_symmetry_space_group_name_H-M "C 2 2 2"
_symmetry_group_IT_number 21
_symmetry_cell_setting 'orthorhombic'
loop_
_space_group_symop_operation_xyz
x,y,z
-x,-y,z
x,-y,-z
-x,y,-z
1/2+x,1/2+y,z
1/2-x,1/2-y,z
1/2+x,1/2-y,-z
1/2-x,1/2+y,-z
loop_
_atom_site_type_symbol
_atom_site_label
_atom_site_fract_x
_atom_site_fract_y
_atom_site_fract_z
Si Si1 0.637754 0.597577 0.919514
Si Si2 0.863869 0.411912 0.084702
Si Si3 0.153513 0.835705 0.482568
Si Si4 0.500000 0.500000 0.227878
Si Si5 0.979270 0.766941 0.357672
Si Si6 0.000000 0.500000 0.759926
O O1 0.750190 0.580948 0.904487
O O2 0.614271 0.754903 0.936778
O O3 0.581255 0.557632 0.833844
O O4 0.611941 0.500000 0.000000
O O5 0.915317 0.462121 0.172595
O O6 0.889925 0.500000 0.000000
O O7 0.250000 0.750000 0.468961
O O8 0.099050 0.773406 0.566549
O O9 0.079930 0.807854 0.402987
O O10 0.165829 0.000000 0.500000
O O11 0.457653 0.383512 0.288242
O O12 0.982361 0.627063 0.304252
#
# Coordination Sequence:
#
# PCOD9324785 Si02
#       6
#     8   8   8   4   8   4
#     4  10  23  40  63  88 124 173 214 253 314 376
#     4  10  23  42  59  89 130 166 211 263 311 368
#     4  11  25  46  70  93 127 168 203 257 322 383
#     4  12  21  41  66  90 122 168 208 259 305 376
#     4  11  25  44  65  94 131 160 212 259 316 381
#     4  12  25  39  66  98 126 168 210 271 313 360
#
# _framework density 18.925308000000001
#
# number of rings (size 3 to 8) (size 9 to 14) (size 15 to 20)
#    0.000    1.200    4.000    1.200    5.600    5.600 
#    0.000    0.000    0.000    0.000    0.000    0.000 
#    0.000    0.000    0.000    0.000    0.000    0.000 
#
# Total GULP energy -111716.790533 kJ/mol
# GULP energy per Si atom -5585.839527 kJ/mol
# Density = 1.888223 g / cm^3
# Si number density = 18.925308 Si / 1000 Ang^3
#
#
#
# Elastic Constant Matrix: (Units=GPa)
#
#
# Indices 1 2 3 4 5 6 
#
# 1 89.3202 39.1143 30.7062 0.0000 0.0000 0.0000
# 2 39.1143 148.5280 56.6285 0.0000 0.0000 0.0000
# 3 30.7062 56.6285 105.4711 0.0000 0.0000 0.0000
# 4 0.0000 0.0000 0.0000 49.3931 0.0000 0.0000
# 5 0.0000 0.0000 0.0000 0.0000 -10.0616 0.0000
# 6 0.0000 0.0000 0.0000 0.0000 0.0000 22.2139
#
#
#
# Elastic Compliance Matrix: (Units=1/GPa)
#
#
# Indices 1 2 3 4 5 6 
#
# 1 0.013150 -0.002519 -0.002476 0.000000 0.000000 0.000000
# 2 -0.002519 0.008948 -0.004071 0.000000 0.000000 0.000000
# 3 -0.002476 -0.004071 0.012388 0.000000 0.000000 0.000000
# 4 0.000000 0.000000 0.000000 0.020246 0.000000 0.000000
# 5 0.000000 0.000000 0.000000 0.000000 -0.099387 0.000000
# 6 0.000000 0.000000 0.000000 0.000000 0.000000 0.045017
#
#
# Mechanical properties :
#
#
# Convention : Reuss Voigt Hill
#
# Bulk Modulus (GPa) = 61.14658 66.24638 63.69648
# Shear Modulus (GPa) = 208.81501 26.76708 117.79104
#
# Velocity S-wave (km/s) = 10.51551 3.76487 7.89779
# Velocity P-wave (km/s) = 13.40948 7.34705 10.81187
#
# Compressibility (1/GPa) = 0.01635414
#
# Stress axis : x y z
#
# Youngs Moduli (GPa) = 76.04596 111.75358 80.72403
#
# Poissons Ratio (x) = 0.28151 0.19987
# Poissons Ratio (y) = 0.19156 0.32863
# Poissons Ratio (z) = 0.18828 0.45495
#
# Static dielectric constant tensor:
#      x y z
#    x 1.660110 0.000000 0.000000 
#    y 0.000000 1.736510 0.000000 
#    z 0.000000 0.000000 1.620620 
# 
# From -- ./inp_files/30229.got.cif
#   From: 2010.05.17/outbox.cif.g08.bks.cpg/sg21_16_cif.got.tgz:30229.got - 2010.06.03 23:14:55.
