data_PCOD9324490
_publ_section_title
;
Structure prediction by ZEFSAII (Michael W. Deem and Ramdas Pophale) SiO2 
 PCOD9324490
Probable space group: C 2 2 2
;
_chemical_formula_sum "Si O2"
_cell_formula_units_Z 34
_cell_length_a 14.708543
_cell_length_b 9.531019
_cell_length_c 11.898131
_cell_angle_alpha 90.000000
_cell_angle_beta 90.000000
_cell_angle_gamma 90.000000
_cell_volume 1667.968083
_symmetry_space_group_name_H-M "C 2 2 2"
_symmetry_group_IT_number 21
_symmetry_cell_setting 'orthorhombic'
loop_
_space_group_symop_operation_xyz
x,y,z
-x,-y,z
x,-y,-z
-x,y,-z
1/2+x,1/2+y,z
1/2-x,1/2-y,z
1/2+x,1/2-y,-z
1/2-x,1/2+y,-z
loop_
_atom_site_type_symbol
_atom_site_label
_atom_site_fract_x
_atom_site_fract_y
_atom_site_fract_z
Si Si1 0.998556 0.162511 0.134333
Si Si2 0.910523 0.597704 0.741124
Si Si3 0.000000 0.000000 0.500000
Si Si4 0.154157 0.320472 0.264014
Si Si5 0.138416 0.252181 0.520710
O O1 0.919483 0.262113 0.185335
O O2 0.087230 0.237136 0.183401
O O3 0.000000 0.000000 0.171035
O O4 0.000000 0.167139 0.000000
O O5 0.835097 0.482900 0.769877
O O6 0.895727 0.639887 0.613201
O O7 0.000000 0.500000 0.754379
O O8 0.076658 0.112709 0.545812
O O9 0.250000 0.250000 0.260443
O O10 0.119663 0.299474 0.392620
O O11 0.250000 0.250000 0.531235
#
# Coordination Sequence:
#
# PCOD9324490 Si02
#       5
#     8   8   2   8   8
#     4  10  23  43  64  89 125 169 222 277 339 408
#     4  10  22  40  65  93 128 173 216 272 334 406
#     4  12  24  40  62  98 134 200 210 296 324 408
#     4  10  23  40  64  93 132 168 216 279 333 409
#     4  11  26  39  65  99 141 176 228 270 350 419
#
# _framework density 20.384083
#
# number of rings (size 3 to 8) (size 9 to 14) (size 15 to 20)
#    0.000    1.647    0.000    3.529   13.176    7.059 
#    0.000    5.882    0.000    0.000    0.000    0.000 
#    0.000    0.000    0.000    0.000    0.000    0.000 
#
# Total GULP energy -94666.351206 kJ/mol
# GULP energy per Si atom -5568.608894 kJ/mol
# Density = 2.033769 g / cm^3
# Si number density = 20.384083 Si / 1000 Ang^3
#
#
#
# Elastic Constant Matrix: (Units=GPa)
#
#
# Indices 1 2 3 4 5 6 
#
# 1 73.8703 52.1863 21.1717 0.0000 0.0000 0.0000
# 2 52.1863 200.0195 58.1118 0.0000 0.0000 0.0000
# 3 21.1717 58.1118 84.2065 0.0000 0.0000 0.0000
# 4 0.0000 0.0000 0.0000 -98.6422 0.0000 0.0000
# 5 0.0000 0.0000 0.0000 0.0000 -13.8589 0.0000
# 6 0.0000 0.0000 0.0000 0.0000 0.0000 33.7444
#
#
#
# Elastic Compliance Matrix: (Units=1/GPa)
#
#
# Indices 1 2 3 4 5 6 
#
# 1 0.016745 -0.003935 -0.001495 0.000000 0.000000 0.000000
# 2 -0.003935 0.007178 -0.003964 0.000000 0.000000 0.000000
# 3 -0.001495 -0.003964 0.014987 0.000000 0.000000 0.000000
# 4 0.000000 0.000000 0.000000 -0.010138 0.000000 0.000000
# 5 0.000000 0.000000 0.000000 0.000000 -0.072156 0.000000
# 6 0.000000 0.000000 0.000000 0.000000 0.000000 0.029635
#
#
# Mechanical properties :
#
#
# Convention : Reuss Voigt Hill
#
# Bulk Modulus (GPa) = 49.69471 69.00400 59.34935
# Shear Modulus (GPa) = 425.65244 -0.64293 212.50476
#
# Velocity S-wave (km/s) = 14.46615 -0.56222 10.22138
# Velocity P-wave (km/s) = 17.42004 5.78826 12.98002
#
# Compressibility (1/GPa) = 0.02012287
#
# Stress axis : x y z
#
# Youngs Moduli (GPa) = 59.71802 139.31814 66.72380
#
# Poissons Ratio (x) = 0.54817 0.09974
# Poissons Ratio (y) = 0.23497 0.26451
# Poissons Ratio (z) = 0.08927 0.55229
#
# Static dielectric constant tensor:
#      x y z
#    x 1.844990 0.000000 0.000000 
#    y 0.000000 1.809720 0.000000 
#    z 0.000000 0.000000 1.691910 
# 
# From -- ./inp_files/25764.got.cif
#   From: 2010.05.17/outbox.cif.g08.bks.cpg/sg21_13_cif.got.tgz:25764.got - 2010.06.03 23:14:55.
