data_PCOD9324078
_publ_section_title
;
Structure prediction by ZEFSAII (Michael W. Deem and Ramdas Pophale) SiO2 
 PCOD9324078
Probable space group: C 2 2 2
;
_chemical_formula_sum "Si O2"
_cell_formula_units_Z 56
_cell_length_a 15.943547
_cell_length_b 20.202932
_cell_length_c 8.035765
_cell_angle_alpha 90.000000
_cell_angle_beta 90.000000
_cell_angle_gamma 90.000000
_cell_volume 2588.371302
_symmetry_space_group_name_H-M "C 2 2 2"
_symmetry_group_IT_number 21
_symmetry_cell_setting 'orthorhombic'
loop_
_space_group_symop_operation_xyz
x,y,z
-x,-y,z
x,-y,-z
-x,y,-z
1/2+x,1/2+y,z
1/2-x,1/2-y,z
1/2+x,1/2-y,-z
1/2-x,1/2+y,-z
loop_
_atom_site_type_symbol
_atom_site_label
_atom_site_fract_x
_atom_site_fract_y
_atom_site_fract_z
Si Si1 0.321899 0.925610 0.300887
Si Si2 0.500000 0.720588 0.201174
Si Si3 0.500000 0.126838 0.701880
Si Si4 0.339963 0.359837 0.192161
Si Si5 0.178101 0.574390 0.699114
Si Si6 0.900648 1.000000 0.690535
Si Si7 0.160037 0.140163 0.807838
O O1 0.414369 0.907239 0.238258
O O2 0.326293 0.929136 0.500000
O O3 0.253704 0.868916 0.261982
O O4 0.298228 1.000000 0.240638
O O5 0.500001 0.797113 0.244936
O O6 0.586354 0.686539 0.265295
O O7 0.413645 0.686540 0.265296
O O8 0.500000 0.711396 0.000000
O O9 0.500000 0.123509 0.500000
O O10 0.585631 0.092760 0.761742
O O11 0.246296 0.368916 0.261981
O O12 0.374943 0.433874 0.216047
O O13 0.330837 0.341878 1.000000
O O14 0.874943 0.933874 0.783953
O O15 0.865816 0.000000 0.500000
O O16 0.000000 0.000000 0.677708
#
# Coordination Sequence:
#
# PCOD9324078 Si02
#       7
#     8   8   8   8   8   8   8
#     4  10  21  39  63  91 119 151 196 251 306 351
#     4  10  24  42  58  83 123 165 198 237 291 356
#     4  10  23  42  63  85 116 159 204 250 296 352
#     4  11  22  37  59  88 122 158 196 240 295 355
#     4  10  21  39  63  91 119 151 196 251 306 351
#     4  11  21  33  55  88 121 154 193 243 298 350
#     4  11  22  37  59  88 122 158 196 240 295 355
#
# _framework density 21.635227
#
# number of rings (size 3 to 8) (size 9 to 14) (size 15 to 20)
#    0.000    1.571    2.857    1.714    0.000    6.857 
#    0.000    5.714    0.000    2.571    0.000    0.000 
#    0.000    0.000    0.000    0.000    0.000    0.000 
#
# Total GULP energy -156269.772359 kJ/mol
# GULP energy per Si atom -5581.063299 kJ/mol
# Density = 2.158598 g / cm^3
# Si number density = 21.635227 Si / 1000 Ang^3
#
#
#
# Elastic Constant Matrix: (Units=GPa)
#
#
# Indices 1 2 3 4 5 6 
#
# 1 183.5014 38.9998 18.5918 0.0000 0.0000 0.0000
# 2 38.9998 67.4330 -0.3184 0.0000 0.0000 0.0000
# 3 18.5918 -0.3184 15.1602 0.0000 0.0000 0.0000
# 4 0.0000 0.0000 0.0000 31.8968 0.0000 0.0000
# 5 0.0000 0.0000 0.0000 0.0000 59.6750 0.0000
# 6 0.0000 0.0000 0.0000 0.0000 0.0000 24.4589
#
#
#
# Elastic Compliance Matrix: (Units=1/GPa)
#
#
# Indices 1 2 3 4 5 6 
#
# 1 0.007263 -0.004243 -0.008996 0.000000 0.000000 0.000000
# 2 -0.004243 0.017310 0.005567 0.000000 0.000000 0.000000
# 3 -0.008996 0.005567 0.077111 0.000000 0.000000 0.000000
# 4 0.000000 0.000000 0.000000 0.031351 0.000000 0.000000
# 5 0.000000 0.000000 0.000000 0.000000 0.016757 0.000000
# 6 0.000000 0.000000 0.000000 0.000000 0.000000 0.040885
#
#
# Mechanical properties :
#
#
# Convention : Reuss Voigt Hill
#
# Bulk Modulus (GPa) = 11.58217 42.29347 26.93782
# Shear Modulus (GPa) = 21.29469 37.12757 29.21113
#
# Velocity S-wave (km/s) = 3.14070 4.14704 3.67845
# Velocity P-wave (km/s) = 4.30313 6.52085 5.52442
#
# Compressibility (1/GPa) = 0.08633963
#
# Stress axis : x y z
#
# Youngs Moduli (GPa) = 137.68954 57.77115 12.96833
#
# Poissons Ratio (x) = 0.24512 0.11666
# Poissons Ratio (y) = 0.58420 -0.07219
# Poissons Ratio (z) = 1.23862 -0.32160
#
# Static dielectric constant tensor:
#      x y z
#    x 1.855220 0.000000 0.000000 
#    y 0.000000 1.713040 0.000000 
#    z 0.000000 0.000000 1.799030 
# 
# From -- ./inp_files/15262.got.cif
#   From: 2010.05.17/outbox.cif.g08.bks.cpg/sg21_8_cif.got.tgz:15262.got - 2010.06.03 23:14:55.
