data_PCOD9324047
_publ_section_title
;
Structure prediction by ZEFSAII (Michael W. Deem and Ramdas Pophale) SiO2 
 PCOD9324047
Probable space group: C 2 2 2
;
_chemical_formula_sum "Si O2"
_cell_formula_units_Z 52
_cell_length_a 25.924323
_cell_length_b 11.578288
_cell_length_c 8.605888
_cell_angle_alpha 90.000000
_cell_angle_beta 90.000000
_cell_angle_gamma 90.000000
_cell_volume 2583.137128
_symmetry_space_group_name_H-M "C 2 2 2"
_symmetry_group_IT_number 21
_symmetry_cell_setting 'orthorhombic'
loop_
_space_group_symop_operation_xyz
x,y,z
-x,-y,z
x,-y,-z
-x,y,-z
1/2+x,1/2+y,z
1/2-x,1/2-y,z
1/2+x,1/2-y,-z
1/2-x,1/2+y,-z
loop_
_atom_site_type_symbol
_atom_site_label
_atom_site_fract_x
_atom_site_fract_y
_atom_site_fract_z
Si Si1 0.292098 0.051776 0.779607
Si Si2 0.339083 0.762095 0.017731
Si Si3 0.388118 0.090504 0.364068
Si Si4 0.250000 0.250000 0.556748
Si Si5 0.174832 0.967877 0.171450
Si Si6 0.664694 0.677866 0.330802
Si Si7 0.555538 0.871565 0.062065
O O1 0.310663 0.121719 0.931071
O O2 0.280507 0.152167 0.652535
O O3 0.235377 0.001338 0.810310
O O4 0.337456 0.967523 0.720258
O O5 0.329117 0.669667 0.155175
O O6 0.322018 0.719977 0.846467
O O7 0.399404 0.789105 0.999426
O O8 0.371791 0.222258 0.400925
O O9 0.435068 0.109960 0.244929
O O10 0.400325 0.000000 0.500000
O O11 0.287682 0.321412 0.445744
O O12 0.146525 0.046560 0.298383
O O13 0.155245 0.000000 0.000000
O O14 0.500000 0.834189 0.000000
O O15 0.564720 0.000000 0.000000
#
# Coordination Sequence:
#
# PCOD9324047 Si02
#       7
#     8   8   8   4   8   8   8
#     4  12  22  34  52  82 117 164 203 242 290 362
#     4  10  21  39  57  80 112 158 207 256 303 360
#     4  11  22  38  58  86 125 156 197 254 317 368
#     4  12  22  34  48  82 128 156 220 234 298 360
#     4  10  22  34  53  79 119 165 213 239 284 362
#     4  10  23  34  52  79 116 167 199 248 289 361
#     4  10  21  39  65  88 111 151 203 262 323 368
#
# _framework density 20.130562000000001
#
# number of rings (size 3 to 8) (size 9 to 14) (size 15 to 20)
#    0.000    1.385    4.615    0.923    8.615    0.000 
#    0.000    1.538    0.000   11.538    0.000    0.000 
#    0.000    0.000   12.923    0.000    0.000    0.000 
#
# Total GULP energy -144971.924400 kJ/mol
# GULP energy per Si atom -5575.843246 kJ/mol
# Density = 2.008474 g / cm^3
# Si number density = 20.130562 Si / 1000 Ang^3
#
#
#
# Elastic Constant Matrix: (Units=GPa)
#
#
# Indices 1 2 3 4 5 6 
#
# 1 84.3826 23.2096 39.7542 0.0000 0.0000 0.0000
# 2 23.2096 90.8733 17.5892 0.0000 0.0000 0.0000
# 3 39.7542 17.5892 66.8613 0.0000 0.0000 0.0000
# 4 0.0000 0.0000 0.0000 41.7275 0.0000 0.0000
# 5 0.0000 0.0000 0.0000 0.0000 20.0160 0.0000
# 6 0.0000 0.0000 0.0000 0.0000 0.0000 2.6851
#
#
#
# Elastic Compliance Matrix: (Units=1/GPa)
#
#
# Indices 1 2 3 4 5 6 
#
# 1 0.016989 -0.002512 -0.009441 0.000000 0.000000 0.000000
# 2 -0.002512 0.011966 -0.001654 0.000000 0.000000 0.000000
# 3 -0.009441 -0.001654 0.021005 0.000000 0.000000 0.000000
# 4 0.000000 0.000000 0.000000 0.023965 0.000000 0.000000
# 5 0.000000 0.000000 0.000000 0.000000 0.049960 0.000000
# 6 0.000000 0.000000 0.000000 0.000000 0.000000 0.372427
#
#
# Mechanical properties :
#
#
# Convention : Reuss Voigt Hill
#
# Bulk Modulus (GPa) = 43.96320 44.80256 44.38288
# Shear Modulus (GPa) = 9.41427 23.65666 16.53546
#
# Velocity S-wave (km/s) = 2.16489 3.43178 2.86914
# Velocity P-wave (km/s) = 5.30429 6.16499 5.75076
#
# Compressibility (1/GPa) = 0.02274630
#
# Stress axis : x y z
#
# Youngs Moduli (GPa) = 58.86034 83.56940 47.60820
#
# Poissons Ratio (x) = 0.20992 0.44945
# Poissons Ratio (y) = 0.14785 0.07876
# Poissons Ratio (z) = 0.55568 0.13826
#
# Static dielectric constant tensor:
#      x y z
#    x 1.690370 0.000000 0.000000 
#    y 0.000000 1.819200 0.000000 
#    z 0.000000 0.000000 1.806430 
# 
# From -- ./inp_files/19117.got.cif
#   From: 2010.05.17/outbox.cif.g08.bks.cpg/sg21_10_cif.got.tgz:19117.got - 2010.06.03 23:14:55.
