data_PCOD9324399
_publ_section_title
;
Structure prediction by ZEFSAII (Michael W. Deem and Ramdas Pophale) SiO2 
 PCOD9324399
Probable space group: C 2 2 2
;
_chemical_formula_sum "Si O2"
_cell_formula_units_Z 38
_cell_length_a 12.441481
_cell_length_b 8.463413
_cell_length_c 17.165044
_cell_angle_alpha 90.000000
_cell_angle_beta 90.000000
_cell_angle_gamma 90.000000
_cell_volume 1807.434367
_symmetry_space_group_name_H-M "C 2 2 2"
_symmetry_group_IT_number 21
_symmetry_cell_setting 'orthorhombic'
loop_
_space_group_symop_operation_xyz
x,y,z
-x,-y,z
x,-y,-z
-x,y,-z
1/2+x,1/2+y,z
1/2-x,1/2-y,z
1/2+x,1/2-y,-z
1/2-x,1/2+y,-z
loop_
_atom_site_type_symbol
_atom_site_label
_atom_site_fract_x
_atom_site_fract_y
_atom_site_fract_z
Si Si1 0.658002 0.618784 0.246677
Si Si2 0.449659 0.829312 0.269580
Si Si3 0.750000 0.250000 0.518617
Si Si4 0.276268 0.036492 0.615252
Si Si5 0.500000 0.500000 0.000000
Si Si6 0.350717 0.656237 0.124119
O O1 0.750000 0.750000 0.238427
O O2 0.546618 0.702214 0.271288
O O3 0.695565 0.506700 0.316515
O O4 0.658497 0.511500 0.169702
O O5 0.384486 0.773527 0.194208
O O6 0.500000 0.000000 0.253444
O O7 0.372709 0.865016 0.344247
O O8 0.814630 0.368993 0.575908
O O9 0.711812 0.373919 0.452869
O O10 0.431773 0.614423 0.055719
O O11 0.250000 0.750000 0.089283
#
# Coordination Sequence:
#
# PCOD9324399 Si02
#       6
#     8   8   4   8   2   8
#     4  12  22  42  75 104 135 191 249 297 347 439
#     4  12  22  42  74 106 135 190 252 290 350 442
#     4  10  22  38  62  98 144 188 226 312 372 398
#     4  11  21  40  65 100 142 186 242 298 359 419
#     4  12  28  48  70 110 160 174 238 300 376 434
#     4  12  25  47  72 105 145 185 233 300 365 432
#
# _framework density 21.024276
#
# number of rings (size 3 to 8) (size 9 to 14) (size 15 to 20)
#    0.000    0.421    7.368    1.263    0.000    0.842 
#    3.789    7.368    0.000    5.053    0.000    0.000 
#    0.000    0.000    0.000    0.000    0.000    0.000 
#
# Total GULP energy -105779.990138 kJ/mol
# GULP energy per Si atom -5567.367902 kJ/mol
# Density = 2.097642 g / cm^3
# Si number density = 21.024276 Si / 1000 Ang^3
#
#
#
# Elastic Constant Matrix: (Units=GPa)
#
#
# Indices 1 2 3 4 5 6 
#
# 1 104.9401 48.4495 51.8513 0.0000 0.0000 0.0000
# 2 48.4495 121.6545 60.7878 0.0000 0.0000 0.0000
# 3 51.8513 60.7878 137.3758 0.0000 0.0000 0.0000
# 4 0.0000 0.0000 0.0000 5.2355 0.0000 0.0000
# 5 0.0000 0.0000 0.0000 0.0000 8.9173 0.0000
# 6 0.0000 0.0000 0.0000 0.0000 0.0000 42.5723
#
#
#
# Elastic Compliance Matrix: (Units=1/GPa)
#
#
# Indices 1 2 3 4 5 6 
#
# 1 0.012738 -0.003429 -0.003291 0.000000 0.000000 0.000000
# 2 -0.003429 0.011476 -0.003784 0.000000 0.000000 0.000000
# 3 -0.003291 -0.003784 0.010196 0.000000 0.000000 0.000000
# 4 0.000000 0.000000 0.000000 0.191003 0.000000 0.000000
# 5 0.000000 0.000000 0.000000 0.000000 0.112142 0.000000
# 6 0.000000 0.000000 0.000000 0.000000 0.000000 0.023489
#
#
# Mechanical properties :
#
#
# Convention : Reuss Voigt Hill
#
# Bulk Modulus (GPa) = 74.60873 76.23863 75.42368
# Shear Modulus (GPa) = 12.93598 24.87046 18.90322
#
# Velocity S-wave (km/s) = 2.48319 3.44312 3.00178
# Velocity P-wave (km/s) = 6.61707 7.22134 6.92580
#
# Compressibility (1/GPa) = 0.01340326
#
# Stress axis : x y z
#
# Youngs Moduli (GPa) = 78.50382 87.13596 98.07992
#
# Poissons Ratio (x) = 0.29877 0.32275
# Poissons Ratio (y) = 0.26917 0.37114
# Poissons Ratio (z) = 0.25833 0.32973
#
# Static dielectric constant tensor:
#      x y z
#    x 1.821680 0.000000 0.000000 
#    y 0.000000 1.879920 0.000000 
#    z 0.000000 0.000000 1.738690 
# 
# From -- ./inp_files/36065.got.cif
#   From: 2010.05.17/outbox.cif.g08.bks.cpg/sg21_19_cif.got.tgz:36065.got - 2010.06.03 23:14:55.
