data_PCOD9324205
_publ_section_title
;
Structure prediction by ZEFSAII (Michael W. Deem and Ramdas Pophale) SiO2 
 PCOD9324205
Probable space group: C 2 2 2
;
_chemical_formula_sum "Si O2"
_cell_formula_units_Z 64
_cell_length_a 22.684395
_cell_length_b 12.604772
_cell_length_c 11.104831
_cell_angle_alpha 90.000000
_cell_angle_beta 90.000000
_cell_angle_gamma 90.000000
_cell_volume 3175.222395
_symmetry_space_group_name_H-M "C 2 2 2"
_symmetry_group_IT_number 21
_symmetry_cell_setting 'orthorhombic'
loop_
_space_group_symop_operation_xyz
x,y,z
-x,-y,z
x,-y,-z
-x,y,-z
1/2+x,1/2+y,z
1/2-x,1/2-y,z
1/2+x,1/2-y,-z
1/2-x,1/2+y,-z
loop_
_atom_site_type_symbol
_atom_site_label
_atom_site_fract_x
_atom_site_fract_y
_atom_site_fract_z
Si Si1 0.196033 0.168751 0.172109
Si Si2 0.382622 0.767628 0.275034
Si Si3 0.198347 0.165731 0.906223
Si Si4 0.809960 0.798768 0.512429
Si Si5 0.401678 0.232256 0.307136
Si Si6 0.376588 0.003832 0.643899
Si Si7 0.764327 0.022642 0.318615
Si Si8 0.989936 0.877206 0.643783
O O1 0.250000 0.250000 0.175708
O O2 0.137459 0.234678 0.194574
O O3 0.204440 0.087240 0.282629
O O4 0.190946 0.118618 0.039548
O O5 0.358410 0.728063 0.146953
O O6 0.326943 0.765336 0.366319
O O7 0.427831 0.677521 0.322372
O O8 0.402243 0.889719 0.292922
O O9 0.250000 0.250000 0.920279
O O10 0.221348 0.088804 0.801915
O O11 0.750000 0.750000 0.461220
O O12 0.864157 0.773200 0.424155
O O13 0.792949 0.912132 0.570628
O O14 0.405061 0.105741 0.311489
O O15 0.461551 0.297229 0.304539
O O16 0.385565 0.000000 0.500000
O O17 0.305403 0.001971 0.665356
O O18 0.000000 0.877126 0.500000
O O19 0.000000 0.000000 0.683351
#
# Coordination Sequence:
#
# PCOD9324205 Si02
#       8
#     8   8   8   8   8   8   8   8
#     4  11  24  37  59  93 136 165 208 273 316 374
#     4  11  21  42  64  88 122 173 211 258 310 376
#     4  10  21  41  63  92 125 171 222 249 317 388
#     4  11  20  36  60  93 129 165 202 249 326 398
#     4  12  25  40  58  97 131 164 213 267 327 365
#     4  12  21  37  61  95 132 160 211 261 319 398
#     4  11  21  35  59  92 128 170 205 254 318 391
#     4  11  25  44  64  91 125 165 214 262 318 384
#
# _framework density 20.156068000000001
#
# number of rings (size 3 to 8) (size 9 to 14) (size 15 to 20)
#    0.000    0.875    6.250    1.500    5.250    0.500 
#    0.000    2.500    0.000    0.750    0.000    1.750 
#    0.000    0.000    0.000    0.000    0.000    0.000 
#
# Total GULP energy -178532.703325 kJ/mol
# GULP energy per Si atom -5579.146979 kJ/mol
# Density = 2.011019 g / cm^3
# Si number density = 20.156068 Si / 1000 Ang^3
#
#
#
# Elastic Constant Matrix: (Units=GPa)
#
#
# Indices 1 2 3 4 5 6 
#
# 1 59.3338 31.5055 6.3927 0.0000 0.0000 0.0000
# 2 31.5055 159.1324 25.1169 0.0000 0.0000 0.0000
# 3 6.3927 25.1169 65.4486 0.0000 0.0000 0.0000
# 4 0.0000 0.0000 0.0000 27.2834 0.0000 0.0000
# 5 0.0000 0.0000 0.0000 0.0000 -111.3561 0.0000
# 6 0.0000 0.0000 0.0000 0.0000 0.0000 29.6499
#
#
#
# Elastic Compliance Matrix: (Units=1/GPa)
#
#
# Indices 1 2 3 4 5 6 
#
# 1 0.018845 -0.003662 -0.000435 0.000000 0.000000 0.000000
# 2 -0.003662 0.007401 -0.002483 0.000000 0.000000 0.000000
# 3 -0.000435 -0.002483 0.016274 0.000000 0.000000 0.000000
# 4 0.000000 0.000000 0.000000 0.036652 0.000000 0.000000
# 5 0.000000 0.000000 0.000000 0.000000 -0.008980 0.000000
# 6 0.000000 0.000000 0.000000 0.000000 0.000000 0.033727
#
#
# Mechanical properties :
#
#
# Convention : Reuss Voigt Hill
#
# Bulk Modulus (GPa) = 34.05939 45.54943 39.80441
# Shear Modulus (GPa) = 39.41138 3.84208 21.62673
#
# Velocity S-wave (km/s) = 4.42669 1.38214 3.27917
# Velocity P-wave (km/s) = 6.56216 5.01941 5.84194
#
# Compressibility (1/GPa) = 0.02936048
#
# Stress axis : x y z
#
# Youngs Moduli (GPa) = 53.06351 135.11703 61.44627
#
# Poissons Ratio (x) = 0.49485 0.02674
# Poissons Ratio (y) = 0.19434 0.15254
# Poissons Ratio (z) = 0.02310 0.33543
#
# Static dielectric constant tensor:
#      x y z
#    x 1.674240 0.000000 0.000000 
#    y 0.000000 1.765460 0.000000 
#    z 0.000000 0.000000 1.735690 
# 
# From -- ./inp_files/27490.got.cif
#   From: 2010.05.17/outbox.cif.g08.bks.cpg/sg21_14_cif.got.tgz:27490.got - 2010.06.03 23:14:55.
