data_PCOD9324251
_publ_section_title
;
Structure prediction by ZEFSAII (Michael W. Deem and Ramdas Pophale) SiO2 
 PCOD9324251
Probable space group: C 2 2 2
;
_chemical_formula_sum "Si O2"
_cell_formula_units_Z 34
_cell_length_a 11.487734
_cell_length_b 10.684741
_cell_length_c 13.582106
_cell_angle_alpha 90.000000
_cell_angle_beta 90.000000
_cell_angle_gamma 90.000000
_cell_volume 1667.114718
_symmetry_space_group_name_H-M "C 2 2 2"
_symmetry_group_IT_number 21
_symmetry_cell_setting 'orthorhombic'
loop_
_space_group_symop_operation_xyz
x,y,z
-x,-y,z
x,-y,-z
-x,y,-z
1/2+x,1/2+y,z
1/2-x,1/2-y,z
1/2+x,1/2-y,-z
1/2-x,1/2+y,-z
loop_
_atom_site_type_symbol
_atom_site_label
_atom_site_fract_x
_atom_site_fract_y
_atom_site_fract_z
Si Si1 0.181206 0.525266 0.284026
Si Si2 0.596098 0.583348 0.599257
Si Si3 0.000000 0.000000 0.000000
Si Si4 0.166760 0.143886 0.146679
Si Si5 0.025935 0.698297 0.689866
O O1 0.280275 0.588080 0.349657
O O2 0.249724 0.461688 0.194113
O O3 0.117373 0.409641 0.340596
O O4 0.080443 0.623708 0.258836
O O5 0.500000 0.500000 0.656962
O O6 0.612159 0.500000 0.500000
O O7 0.534340 0.718289 0.605164
O O8 0.919876 0.084553 0.930524
O O9 0.250000 0.250000 0.101622
O O10 0.095792 0.214017 0.234170
#
# Coordination Sequence:
#
# PCOD9324251 Si02
#       5
#     8   8   2   8   8
#     4  10  21  42  65  87 113 160 207 248 293 352
#     4  11  22  38  56  88 123 158 195 247 303 347
#     4  12  24  36  60  92 126 156 188 232 312 364
#     4  10  22  40  61  90 121 152 198 249 293 358
#     4  10  21  42  66  85 116 160 206 247 296 350
#
# _framework density 20.394518000000001
#
# number of rings (size 3 to 8) (size 9 to 14) (size 15 to 20)
#    0.000    1.647    2.353    2.118    0.000    1.882 
#   16.941    1.176    0.000    0.000    0.000    0.000 
#    0.000    0.000    0.000    0.000    0.000    0.000 
#
# Total GULP energy -94718.732743 kJ/mol
# GULP energy per Si atom -5571.690161 kJ/mol
# Density = 2.034810 g / cm^3
# Si number density = 20.394518 Si / 1000 Ang^3
#
#
#
# Elastic Constant Matrix: (Units=GPa)
#
#
# Indices 1 2 3 4 5 6 
#
# 1 131.6767 45.0025 26.2851 0.0000 0.0000 0.0000
# 2 45.0025 96.4363 32.2456 0.0000 0.0000 0.0000
# 3 26.2851 32.2456 35.0765 0.0000 0.0000 0.0000
# 4 0.0000 0.0000 0.0000 4.5295 0.0000 0.0000
# 5 0.0000 0.0000 0.0000 0.0000 7.8900 0.0000
# 6 0.0000 0.0000 0.0000 0.0000 0.0000 41.4390
#
#
#
# Elastic Compliance Matrix: (Units=1/GPa)
#
#
# Indices 1 2 3 4 5 6 
#
# 1 0.009481 -0.002958 -0.004385 0.000000 0.000000 0.000000
# 2 -0.002958 0.015894 -0.012395 0.000000 0.000000 0.000000
# 3 -0.004385 -0.012395 0.043190 0.000000 0.000000 0.000000
# 4 0.000000 0.000000 0.000000 0.220774 0.000000 0.000000
# 5 0.000000 0.000000 0.000000 0.000000 0.126743 0.000000
# 6 0.000000 0.000000 0.000000 0.000000 0.000000 0.024132
#
#
# Mechanical properties :
#
#
# Convention : Reuss Voigt Hill
#
# Bulk Modulus (GPa) = 34.37776 52.25063 43.31419
# Shear Modulus (GPa) = 10.21687 21.41546 15.81616
#
# Velocity S-wave (km/s) = 2.24065 3.24398 2.78782
# Velocity P-wave (km/s) = 4.85664 6.30133 5.62555
#
# Compressibility (1/GPa) = 0.02908858
#
# Stress axis : x y z
#
# Youngs Moduli (GPa) = 105.47813 62.91517 23.15345
#
# Poissons Ratio (x) = 0.18609 0.10154
# Poissons Ratio (y) = 0.31199 0.28699
# Poissons Ratio (z) = 0.46255 0.77984
#
# Static dielectric constant tensor:
#      x y z
#    x 1.743300 0.000000 0.000000 
#    y 0.000000 1.778690 0.000000 
#    z 0.000000 0.000000 1.717580 
# 
# From -- ./inp_files/23533.got.cif
#   From: 2010.05.17/outbox.cif.g08.bks.cpg/sg21_12_cif.got.tgz:23533.got - 2010.06.03 23:14:55.
