data_PCOD9324644
_publ_section_title
;
Structure prediction by ZEFSAII (Michael W. Deem and Ramdas Pophale) SiO2 
 PCOD9324644
Probable space group: C 2 2 2
;
_chemical_formula_sum "Si O2"
_cell_formula_units_Z 30
_cell_length_a 5.384783
_cell_length_b 30.787622
_cell_length_c 7.592001
_cell_angle_alpha 90.000000
_cell_angle_beta 90.000000
_cell_angle_gamma 90.000000
_cell_volume 1258.637332
_symmetry_space_group_name_H-M "C 2 2 2"
_symmetry_group_IT_number 21
_symmetry_cell_setting 'orthorhombic'
loop_
_space_group_symop_operation_xyz
x,y,z
-x,-y,z
x,-y,-z
-x,y,-z
1/2+x,1/2+y,z
1/2-x,1/2-y,z
1/2+x,1/2-y,-z
1/2-x,1/2+y,-z
loop_
_atom_site_type_symbol
_atom_site_label
_atom_site_fract_x
_atom_site_fract_y
_atom_site_fract_z
Si Si1 0.976742 0.573397 0.281282
Si Si2 0.818452 0.300639 0.350771
Si Si3 0.000000 0.500000 0.000000
Si Si4 0.500000 0.222340 0.000000
Si Si5 0.985119 0.881535 0.701034
O O1 0.900095 0.533770 0.151140
O O2 0.757927 0.607333 0.236256
O O3 0.000000 0.565185 0.500000
O O4 0.246402 0.592601 0.225639
O O5 0.750000 0.250000 0.386850
O O6 0.980495 0.303175 0.177207
O O7 0.583290 0.330630 0.310763
O O8 0.000000 0.318156 0.500000
O O9 0.750000 0.250000 0.993518
O O10 0.000000 0.896850 0.500000
#
# Coordination Sequence:
#
# PCOD9324644 Si02
#       5
#     8   8   2   4   8
#     4  10  24  45  69 101 140 175 217 283 350 417
#     4  11  22  40  70 101 138 192 249 289 334 403
#     4  12  26  48  80 108 128 178 238 278 352 442
#     4  10  24  41  58  92 136 177 234 303 350 381
#     4  10  22  43  67  98 142 182 221 282 350 398
#
# _framework density 23.835301000000001
#
# number of rings (size 3 to 8) (size 9 to 14) (size 15 to 20)
#    0.000    1.600    0.000    4.400    0.000   10.667 
#    0.000   14.667    0.000    0.000    0.000    0.000 
#    0.000    0.000    0.000    0.000    0.000    0.000 
#
# Total GULP energy -83530.279728 kJ/mol
# GULP energy per Si atom -5568.685315 kJ/mol
# Density = 2.378105 g / cm^3
# Si number density = 23.835301 Si / 1000 Ang^3
#
#
#
# Elastic Constant Matrix: (Units=GPa)
#
#
# Indices 1 2 3 4 5 6 
#
# 1 152.6662 65.4048 47.9099 0.0000 0.0000 0.0000
# 2 65.4048 124.7861 27.1188 0.0000 0.0000 0.0000
# 3 47.9099 27.1188 137.9389 0.0000 0.0000 0.0000
# 4 0.0000 0.0000 0.0000 44.5580 0.0000 0.0000
# 5 0.0000 0.0000 0.0000 0.0000 17.8966 0.0000
# 6 0.0000 0.0000 0.0000 0.0000 0.0000 -49.6753
#
#
#
# Elastic Compliance Matrix: (Units=1/GPa)
#
#
# Indices 1 2 3 4 5 6 
#
# 1 0.009109 -0.004269 -0.002324 0.000000 0.000000 0.000000
# 2 -0.004269 0.010372 -0.000556 0.000000 0.000000 0.000000
# 3 -0.002324 -0.000556 0.008166 0.000000 0.000000 0.000000
# 4 0.000000 0.000000 0.000000 0.022443 0.000000 0.000000
# 5 0.000000 0.000000 0.000000 0.000000 0.055877 0.000000
# 6 0.000000 0.000000 0.000000 0.000000 0.000000 -0.020131
#
#
# Mechanical properties :
#
#
# Convention : Reuss Voigt Hill
#
# Bulk Modulus (GPa) = 74.92064 77.36202 76.14133
# Shear Modulus (GPa) = 47.80831 20.88637 34.34734
#
# Velocity S-wave (km/s) = 4.48345 2.96341 3.80021
# Velocity P-wave (km/s) = 7.63562 6.65105 7.16028
#
# Compressibility (1/GPa) = 0.01334746
#
# Stress axis : x y z
#
# Youngs Moduli (GPa) = 109.78657 96.41184 122.45455
#
# Poissons Ratio (x) = 0.41158 0.28463
# Poissons Ratio (y) = 0.46868 0.06814
# Poissons Ratio (z) = 0.25518 0.05365
#
# Static dielectric constant tensor:
#      x y z
#    x 1.878510 0.000000 0.000000 
#    y 0.000000 1.959560 0.000000 
#    z 0.000000 0.000000 1.992230 
# 
# From -- ./inp_files/9081.got.cif
#   From: 2010.05.17/outbox.cif.g08.bks.cpg/sg21_5_cif.got.tgz:9081.got - 2010.06.03 23:14:55.
