data_PCOD9324120
_publ_section_title
;
Structure prediction by ZEFSAII (Michael W. Deem and Ramdas Pophale) SiO2 
 PCOD9324120
Probable space group: C 2 2 2
;
_chemical_formula_sum "Si O2"
_cell_formula_units_Z 22
_cell_length_a 4.915505
_cell_length_b 21.352953
_cell_length_c 8.534011
_cell_angle_alpha 90.000000
_cell_angle_beta 90.000000
_cell_angle_gamma 90.000000
_cell_volume 895.734465
_symmetry_space_group_name_H-M "C 2 2 2"
_symmetry_group_IT_number 21
_symmetry_cell_setting 'orthorhombic'
loop_
_space_group_symop_operation_xyz
x,y,z
-x,-y,z
x,-y,-z
-x,y,-z
1/2+x,1/2+y,z
1/2-x,1/2-y,z
1/2+x,1/2-y,-z
1/2-x,1/2+y,-z
loop_
_atom_site_type_symbol
_atom_site_label
_atom_site_fract_x
_atom_site_fract_y
_atom_site_fract_z
Si Si1 0.303334 0.398798 0.298249
Si Si2 0.000000 0.500000 0.500000
Si Si3 0.819112 0.319245 0.309931
Si Si4 0.500000 0.863974 0.000000
O O1 0.192812 0.458498 0.388760
O O2 0.392024 0.376745 0.667384
O O3 0.203227 0.402319 0.115875
O O4 0.121701 0.339935 0.356229
O O5 0.750000 0.250000 0.361997
O O6 0.833598 0.321249 0.119619
#
# Coordination Sequence:
#
# PCOD9324120 Si02
#       4
#     8   2   8   4
#     4  10  24  39  69  98 134 189 222 280 345 397
#     4  12  28  52  64  90 152 192 252 280 316 408
#     4  10  21  39  71 109 137 163 223 290 357 419
#     4   8  22  37  68 106 132 173 226 274 368 402
#
# _framework density 24.560852000000001
#
# number of rings (size 3 to 8) (size 9 to 14) (size 15 to 20)
#    2.182    0.000    0.000    2.182    5.091    5.091 
#    0.000    3.636    8.000    0.000    0.000    0.000 
#    0.000    0.000    0.000    0.000    0.000    0.000 
#
# Total GULP energy -61353.978160 kJ/mol
# GULP energy per Si atom -5577.634378 kJ/mol
# Density = 2.450495 g / cm^3
# Si number density = 24.560852 Si / 1000 Ang^3
#
#
#
# Elastic Constant Matrix: (Units=GPa)
#
#
# Indices 1 2 3 4 5 6 
#
# 1 100.8207 29.7665 -2.4570 0.0000 0.0000 0.0000
# 2 29.7665 126.3519 17.5950 0.0000 0.0000 0.0000
# 3 -2.4570 17.5950 85.2748 0.0000 0.0000 0.0000
# 4 0.0000 0.0000 0.0000 32.5933 0.0000 0.0000
# 5 0.0000 0.0000 0.0000 0.0000 46.8574 0.0000
# 6 0.0000 0.0000 0.0000 0.0000 0.0000 29.9016
#
#
#
# Elastic Compliance Matrix: (Units=1/GPa)
#
#
# Indices 1 2 3 4 5 6 
#
# 1 0.010720 -0.002645 0.000855 0.000000 0.000000 0.000000
# 2 -0.002645 0.008801 -0.001892 0.000000 0.000000 0.000000
# 3 0.000855 -0.001892 0.012142 0.000000 0.000000 0.000000
# 4 0.000000 0.000000 0.000000 0.030681 0.000000 0.000000
# 5 0.000000 0.000000 0.000000 0.000000 0.021341 0.000000
# 6 0.000000 0.000000 0.000000 0.000000 0.000000 0.033443
#
#
# Mechanical properties :
#
#
# Convention : Reuss Voigt Hill
#
# Bulk Modulus (GPa) = 41.15442 44.69516 42.92479
# Shear Modulus (GPa) = 37.70961 39.70665 38.70813
#
# Velocity S-wave (km/s) = 3.92261 4.02514 3.97421
# Velocity P-wave (km/s) = 6.10805 6.31186 6.21079
#
# Compressibility (1/GPa) = 0.02429873
#
# Stress axis : x y z
#
# Youngs Moduli (GPa) = 93.28194 113.62488 82.35996
#
# Poissons Ratio (x) = 0.30048 -0.07038
# Poissons Ratio (y) = 0.24668 0.15583
# Poissons Ratio (z) = -0.07971 0.21499
#
# Static dielectric constant tensor:
#      x y z
#    x 1.940510 0.000000 0.000000 
#    y 0.000000 1.873400 0.000000 
#    z 0.000000 0.000000 2.180070 
# 
# From -- ./inp_files/12435.got.cif
#   From: 2010.05.17/outbox.cif.g08.bks.cpg/sg21_7_cif.got.tgz:12435.got - 2010.06.03 23:14:55.
