data_PCOD9324231
_publ_section_title
;
Structure prediction by ZEFSAII (Michael W. Deem and Ramdas Pophale) SiO2 
 PCOD9324231
Probable space group: C 2 2 2
;
_chemical_formula_sum "Si O2"
_cell_formula_units_Z 32
_cell_length_a 12.941517
_cell_length_b 13.540230
_cell_length_c 9.151089
_cell_angle_alpha 90.000000
_cell_angle_beta 90.000000
_cell_angle_gamma 90.000000
_cell_volume 1603.555545
_symmetry_space_group_name_H-M "C 2 2 2"
_symmetry_group_IT_number 21
_symmetry_cell_setting 'orthorhombic'
loop_
_space_group_symop_operation_xyz
x,y,z
-x,-y,z
x,-y,-z
-x,y,-z
1/2+x,1/2+y,z
1/2-x,1/2-y,z
1/2+x,1/2-y,-z
1/2-x,1/2+y,-z
loop_
_atom_site_type_symbol
_atom_site_label
_atom_site_fract_x
_atom_site_fract_y
_atom_site_fract_z
Si Si1 0.972164 0.717630 0.157914
Si Si2 0.691203 0.914033 0.319371
Si Si3 0.399163 0.877821 0.395641
Si Si4 0.096855 0.056749 0.155337
O O1 0.872897 0.661286 0.220894
O O2 0.940830 0.831055 0.137398
O O3 0.067386 0.698846 0.270497
O O4 0.000000 0.675696 0.000000
O O5 0.691497 0.867867 0.483473
O O6 0.801706 0.938990 0.253460
O O7 0.627081 0.016650 0.325133
O O8 0.500000 0.881488 0.500000
O O9 0.000000 0.000000 0.225498
O O10 0.116278 0.000000 0.000000
#
# Coordination Sequence:
#
# PCOD9324231 Si02
#       4
#     8   8   8   8
#     4  11  21  39  69  99 129 169 222 284 336 399
#     4  10  21  41  69  95 133 172 217 277 341 406
#     4   9  20  42  67 101 134 159 217 285 338 403
#     4  11  24  45  60  90 140 183 225 277 329 405
#
# _framework density 19.955655
#
# number of rings (size 3 to 8) (size 9 to 14) (size 15 to 20)
#    0.000    1.750    2.500    6.000    3.500    1.000 
#    0.000   26.250    0.000    0.000    0.000    0.000 
#    0.000    0.000    0.000    0.000    0.000    0.000 
#
# Total GULP energy -89161.777799 kJ/mol
# GULP energy per Si atom -5572.611112 kJ/mol
# Density = 1.991023 g / cm^3
# Si number density = 19.955655 Si / 1000 Ang^3
#
#
#
# Elastic Constant Matrix: (Units=GPa)
#
#
# Indices 1 2 3 4 5 6 
#
# 1 110.5022 34.4842 72.5247 0.0000 0.0000 0.0000
# 2 34.4842 104.2538 61.3910 0.0000 0.0000 0.0000
# 3 72.5247 61.3910 138.3869 0.0000 0.0000 0.0000
# 4 0.0000 0.0000 0.0000-1222.1781 0.0000 0.0000
# 5 0.0000 0.0000 0.0000 0.0000 35.3906 0.0000
# 6 0.0000 0.0000 0.0000 0.0000 0.0000 18.4826
#
#
#
# Elastic Compliance Matrix: (Units=1/GPa)
#
#
# Indices 1 2 3 4 5 6 
#
# 1 0.013807 -0.000414 -0.007052 0.000000 0.000000 0.000000
# 2 -0.000414 0.012996 -0.005548 0.000000 0.000000 0.000000
# 3 -0.007052 -0.005548 0.013383 0.000000 0.000000 0.000000
# 4 0.000000 0.000000 0.000000 -0.000818 0.000000 0.000000
# 5 0.000000 0.000000 0.000000 0.000000 0.028256 0.000000
# 6 0.000000 0.000000 0.000000 0.000000 0.000000 0.054105
#
#
# Mechanical properties :
#
#
# Convention : Reuss Voigt Hill
#
# Bulk Modulus (GPa) = 70.63497 76.66032 73.64764
# Shear Modulus (GPa) = 32.79152 -221.34477 -94.27662
#
# Velocity S-wave (km/s) = 4.05806 -10.54320 -6.88082
# Velocity P-wave (km/s) = 7.57826 10.47442 5.11290
#
# Compressibility (1/GPa) = 0.01415729
#
# Stress axis : x y z
#
# Youngs Moduli (GPa) = 72.42467 76.94596 74.71980
#
# Poissons Ratio (x) = 0.03188 0.52695
# Poissons Ratio (y) = 0.03000 0.41456
# Poissons Ratio (z) = 0.51076 0.42691
#
# Static dielectric constant tensor:
#      x y z
#    x 1.808850 0.000000 0.000000 
#    y 0.000000 1.718230 0.000000 
#    z 0.000000 0.000000 1.765820 
# 
# From -- ./inp_files/12320.got.cif
#   From: 2010.05.17/outbox.cif.g08.bks.cpg/sg21_7_cif.got.tgz:12320.got - 2010.06.03 23:14:55.
