data_PCOD9324114
_publ_section_title
;
Structure prediction by ZEFSAII (Michael W. Deem and Ramdas Pophale) SiO2 
 PCOD9324114
Probable space group: C 2 2 2
;
_chemical_formula_sum "Si O2"
_cell_formula_units_Z 48
_cell_length_a 8.102725
_cell_length_b 18.737787
_cell_length_c 13.499734
_cell_angle_alpha 90.000000
_cell_angle_beta 90.000000
_cell_angle_gamma 90.000000
_cell_volume 2049.625939
_symmetry_space_group_name_H-M "C 2 2 2"
_symmetry_group_IT_number 21
_symmetry_cell_setting 'orthorhombic'
loop_
_space_group_symop_operation_xyz
x,y,z
-x,-y,z
x,-y,-z
-x,y,-z
1/2+x,1/2+y,z
1/2-x,1/2-y,z
1/2+x,1/2-y,-z
1/2-x,1/2+y,-z
loop_
_atom_site_type_symbol
_atom_site_label
_atom_site_fract_x
_atom_site_fract_y
_atom_site_fract_z
Si Si1 0.711004 0.831363 0.939362
Si Si2 0.191181 0.677906 0.470988
Si Si3 0.400272 0.570719 0.193569
Si Si4 0.173466 0.114360 0.339769
Si Si5 0.355661 0.174959 0.155585
Si Si6 0.680662 0.030781 0.355261
O O1 0.750000 0.750000 0.959723
O O2 0.858272 0.873514 0.889603
O O3 0.552502 0.823265 0.865644
O O4 0.691654 0.862040 0.050678
O O5 0.250000 0.750000 0.418016
O O6 0.301793 0.668194 0.570186
O O7 0.203459 0.604695 0.411120
O O8 0.000000 0.684820 0.500000
O O9 0.500000 0.500000 0.164072
O O10 0.504374 0.610323 0.279455
O O11 0.228805 0.544974 0.241615
O O12 0.309142 0.132195 0.254831
O O13 0.201459 0.035144 0.383187
O O14 0.250000 0.250000 0.166021
O O15 0.500000 0.000000 0.371491
#
# Coordination Sequence:
#
# PCOD9324114 Si02
#       6
#     8   8   8   8   8   8
#     4  10  21  39  68 103 145 190 238 289 366 430
#     4  12  28  45  71 106 140 186 238 298 361 424
#     4  10  24  42  67 104 139 188 236 298 353 425
#     4  11  23  43  70  99 140 186 239 292 354 426
#     4  10  21  40  68 106 145 188 237 303 360 435
#     4  11  23  46  72  97 135 188 243 287 359 429
#
# _framework density 23.418908999999999
#
# number of rings (size 3 to 8) (size 9 to 14) (size 15 to 20)
#    0.000    1.333    1.667    3.000    2.333    2.667 
#    0.000    8.333    0.000    9.000    0.000    0.000 
#    0.000    0.000    0.000    0.000    0.000    0.000 
#
# Total GULP energy -134041.731170 kJ/mol
# GULP energy per Si atom -5585.072132 kJ/mol
# Density = 2.336561 g / cm^3
# Si number density = 23.418909 Si / 1000 Ang^3
#
#
#
# Elastic Constant Matrix: (Units=GPa)
#
#
# Indices 1 2 3 4 5 6 
#
# 1 64.2722 18.0932 28.9041 0.0000 0.0000 0.0000
# 2 18.0932 126.3910 57.1708 0.0000 0.0000 0.0000
# 3 28.9041 57.1708 57.8275 0.0000 0.0000 0.0000
# 4 0.0000 0.0000 0.0000 59.9978 0.0000 0.0000
# 5 0.0000 0.0000 0.0000 0.0000 17.5395 0.0000
# 6 0.0000 0.0000 0.0000 0.0000 0.0000 35.6454
#
#
#
# Elastic Compliance Matrix: (Units=1/GPa)
#
#
# Indices 1 2 3 4 5 6 
#
# 1 0.020724 0.003109 -0.013433 0.000000 0.000000 0.000000
# 2 0.003109 0.014779 -0.016165 0.000000 0.000000 0.000000
# 3 -0.013433 -0.016165 0.039989 0.000000 0.000000 0.000000
# 4 0.000000 0.000000 0.000000 0.016667 0.000000 0.000000
# 5 0.000000 0.000000 0.000000 0.000000 0.057014 0.000000
# 6 0.000000 0.000000 0.000000 0.000000 0.000000 0.028054
#
#
# Mechanical properties :
#
#
# Convention : Reuss Voigt Hill
#
# Bulk Modulus (GPa) = 44.41560 50.75854 47.58707
# Shear Modulus (GPa) = 21.03408 32.25805 26.64606
#
# Velocity S-wave (km/s) = 3.00019 3.71541 3.37679
# Velocity P-wave (km/s) = 5.56852 6.33458 5.96386
#
# Compressibility (1/GPa) = 0.02251461
#
# Stress axis : x y z
#
# Youngs Moduli (GPa) = 48.25231 67.66412 25.00718
#
# Poissons Ratio (x) = -0.21039 0.33591
# Poissons Ratio (y) = -0.15003 0.40425
# Poissons Ratio (z) = 0.64816 1.09380
#
# Static dielectric constant tensor:
#      x y z
#    x 1.943280 0.000000 0.000000 
#    y 0.000000 1.880140 0.000000 
#    z 0.000000 0.000000 1.900460 
# 
# From -- ./inp_files/30510.got.cif
#   From: 2010.05.17/outbox.cif.g08.bks.cpg/sg21_16_cif.got.tgz:30510.got - 2010.06.03 23:14:55.
