data_PCOD9324629
_publ_section_title
;
Structure prediction by ZEFSAII (Michael W. Deem and Ramdas Pophale) SiO2 
 PCOD9324629
Probable space group: C 2 2 2
;
_chemical_formula_sum "Si O2"
_cell_formula_units_Z 18
_cell_length_a 13.646849
_cell_length_b 5.083365
_cell_length_c 9.172653
_cell_angle_alpha 90.000000
_cell_angle_beta 90.000000
_cell_angle_gamma 90.000000
_cell_volume 636.324500
_symmetry_space_group_name_H-M "C 2 2 2"
_symmetry_group_IT_number 21
_symmetry_cell_setting 'orthorhombic'
loop_
_space_group_symop_operation_xyz
x,y,z
-x,-y,z
x,-y,-z
-x,y,-z
1/2+x,1/2+y,z
1/2-x,1/2-y,z
1/2+x,1/2-y,-z
1/2-x,1/2+y,-z
loop_
_atom_site_type_symbol
_atom_site_label
_atom_site_fract_x
_atom_site_fract_y
_atom_site_fract_z
Si Si1 0.000000 0.000000 0.000000
Si Si2 0.654391 0.887733 0.849256
Si Si3 0.367142 0.244735 0.406937
O O1 0.929058 0.817939 0.898594
O O2 0.750000 0.750000 0.774949
O O3 0.613808 0.134517 0.756331
O O4 0.694726 0.000000 0.000000
O O5 0.398294 0.500000 0.500000
O O6 0.250000 0.250000 0.408360
O O7 0.400553 0.000000 0.500000
#
# Coordination Sequence:
#
# PCOD9324629 Si02
#       3
#     2   8   8
#     4  12  30  48  80 138 176 232 298 380 424 528
#     4  12  25  48  85 127 175 230 302 364 445 520
#     4  10  22  42  78 124 165 221 286 351 438 526
#
# _framework density 28.287457
#
# number of rings (size 3 to 8) (size 9 to 14) (size 15 to 20)
#    0.000    0.889    2.222    6.000    6.222    0.000 
#    0.000    0.000    0.000   10.667    0.000    0.000 
#    0.000    0.000    0.000    0.000    0.000    0.000 
#
# Total GULP energy -50355.278836 kJ/mol
# GULP energy per Si atom -5595.030982 kJ/mol
# Density = 2.822307 g / cm^3
# Si number density = 28.287457 Si / 1000 Ang^3
#
#
#
# Elastic Constant Matrix: (Units=GPa)
#
#
# Indices 1 2 3 4 5 6 
#
# 1 228.2825 76.2617 19.4715 0.0000 0.0000 0.0000
# 2 76.2617 298.7747 102.0359 0.0000 0.0000 0.0000
# 3 19.4715 102.0359 176.7404 0.0000 0.0000 0.0000
# 4 0.0000 0.0000 0.0000 82.3704 0.0000 0.0000
# 5 0.0000 0.0000 0.0000 0.0000 152.1499 0.0000
# 6 0.0000 0.0000 0.0000 0.0000 0.0000 83.5359
#
#
#
# Elastic Compliance Matrix: (Units=1/GPa)
#
#
# Indices 1 2 3 4 5 6 
#
# 1 0.004796 -0.001300 0.000222 0.000000 0.000000 0.000000
# 2 -0.001300 0.004521 -0.002467 0.000000 0.000000 0.000000
# 3 0.000222 -0.002467 0.007058 0.000000 0.000000 0.000000
# 4 0.000000 0.000000 0.000000 0.012140 0.000000 0.000000
# 5 0.000000 0.000000 0.000000 0.000000 0.006572 0.000000
# 6 0.000000 0.000000 0.000000 0.000000 0.000000 0.011971
#
#
# Mechanical properties :
#
#
# Convention : Reuss Voigt Hill
#
# Bulk Modulus (GPa) = 107.69760 122.14840 114.92300
# Shear Modulus (GPa) = 87.34600 97.34648 92.34624
#
# Velocity S-wave (km/s) = 5.56283 5.87265 5.71984
# Velocity P-wave (km/s) = 8.91152 9.44769 9.18352
#
# Compressibility (1/GPa) = 0.00928526
#
# Stress axis : x y z
#
# Youngs Moduli (GPa) = 208.51237 221.17220 141.68674
#
# Poissons Ratio (x) = 0.28753 -0.03148
# Poissons Ratio (y) = 0.27107 0.34955
# Poissons Ratio (z) = -0.04632 0.54564
#
# Static dielectric constant tensor:
#      x y z
#    x 2.129220 0.000000 0.000000 
#    y 0.000000 2.242620 0.000000 
#    z 0.000000 0.000000 2.102790 
# 
# From -- ./inp_files/15631.got.cif
#   From: 2010.05.17/outbox.cif.g08.bks.cpg/sg21_8_cif.got.tgz:15631.got - 2010.06.03 23:14:55.
