data_PCOD9324353
_publ_section_title
;
Structure prediction by ZEFSAII (Michael W. Deem and Ramdas Pophale) SiO2 
 PCOD9324353
Probable space group: C 2 2 2
;
_chemical_formula_sum "Si O2"
_cell_formula_units_Z 38
_cell_length_a 16.848619
_cell_length_b 17.175363
_cell_length_c 5.988185
_cell_angle_alpha 90.000000
_cell_angle_beta 90.000000
_cell_angle_gamma 90.000000
_cell_volume 1732.867846
_symmetry_space_group_name_H-M "C 2 2 2"
_symmetry_group_IT_number 21
_symmetry_cell_setting 'orthorhombic'
loop_
_space_group_symop_operation_xyz
x,y,z
-x,-y,z
x,-y,-z
-x,y,-z
1/2+x,1/2+y,z
1/2-x,1/2-y,z
1/2+x,1/2-y,-z
1/2-x,1/2+y,-z
loop_
_atom_site_type_symbol
_atom_site_label
_atom_site_fract_x
_atom_site_fract_y
_atom_site_fract_z
Si Si1 0.610508 0.571598 0.850004
Si Si2 0.764792 0.500000 0.000000
Si Si3 0.250000 0.750000 0.470888
Si Si4 0.500000 0.500000 0.500000
Si Si5 0.000000 0.677564 0.500000
Si Si6 0.896440 0.758047 0.859693
Si Si7 0.151106 0.363713 0.244622
O O1 0.705238 0.553669 0.850495
O O2 0.560679 0.557865 0.627765
O O3 0.593552 0.655452 0.954958
O O4 0.582569 0.500000 0.000000
O O5 0.818347 0.444381 0.851233
O O6 0.175843 0.768570 0.314243
O O7 0.222392 0.678898 0.625194
O O8 0.969108 0.729028 0.707803
O O9 0.924442 0.630340 0.408699
O O10 0.873473 0.693840 0.041774
#
# Coordination Sequence:
#
# PCOD9324353 Si02
#       7
#     8   4   4   2   4   8   8
#     4  10  25  40  64 100 135 185 216 281 342 416
#     4  10  24  45  67  98 142 178 230 280 352 416
#     4  10  22  36  72 102 126 180 232 288 342 428
#     4  12  24  40  64  96 148 166 228 274 348 414
#     4  10  25  42  73 102 130 184 242 289 364 415
#     4  11  22  44  68  96 135 180 230 291 348 420
#     4  11  23  45  69 101 139 182 236 297 352 428
#
# _framework density 21.928965999999999
#
# number of rings (size 3 to 8) (size 9 to 14) (size 15 to 20)
#    0.632    0.842    0.000    4.737    2.947    5.053 
#    0.000    3.158    0.000    0.000    0.000    0.000 
#    0.000    0.000    0.000    0.000    0.000    0.000 
#
# Total GULP energy -106140.496112 kJ/mol
# GULP energy per Si atom -5586.341901 kJ/mol
# Density = 2.187905 g / cm^3
# Si number density = 21.928966 Si / 1000 Ang^3
#
#
#
# Elastic Constant Matrix: (Units=GPa)
#
#
# Indices 1 2 3 4 5 6 
#
# 1 128.9494 46.1752 28.4083 0.0000 0.0000 0.0000
# 2 46.1752 102.1227 26.3480 0.0000 0.0000 0.0000
# 3 28.4083 26.3480 63.0143 0.0000 0.0000 0.0000
# 4 0.0000 0.0000 0.0000 13.6339 0.0000 0.0000
# 5 0.0000 0.0000 0.0000 0.0000 64.0183 0.0000
# 6 0.0000 0.0000 0.0000 0.0000 0.0000 56.3665
#
#
#
# Elastic Compliance Matrix: (Units=1/GPa)
#
#
# Indices 1 2 3 4 5 6 
#
# 1 0.009687 -0.003647 -0.002842 0.000000 0.000000 0.000000
# 2 -0.003647 0.012349 -0.003519 0.000000 0.000000 0.000000
# 3 -0.002842 -0.003519 0.018622 0.000000 0.000000 0.000000
# 4 0.000000 0.000000 0.000000 0.073346 0.000000 0.000000
# 5 0.000000 0.000000 0.000000 0.000000 0.015621 0.000000
# 6 0.000000 0.000000 0.000000 0.000000 0.000000 0.017741
#
#
# Mechanical properties :
#
#
# Convention : Reuss Voigt Hill
#
# Bulk Modulus (GPa) = 48.44622 55.10550 51.77586
# Shear Modulus (GPa) = 28.69212 39.68073 34.18642
#
# Velocity S-wave (km/s) = 3.62112 4.25845 3.95265
# Velocity P-wave (km/s) = 6.29473 7.02587 6.67033
#
# Compressibility (1/GPa) = 0.02064145
#
# Stress axis : x y z
#
# Youngs Moduli (GPa) = 103.23116 80.97791 53.69885
#
# Poissons Ratio (x) = 0.29530 0.15263
# Poissons Ratio (y) = 0.37645 0.18899
# Poissons Ratio (z) = 0.29342 0.28500
#
# Static dielectric constant tensor:
#      x y z
#    x 1.832080 0.000000 0.000000 
#    y 0.000000 1.777650 0.000000 
#    z 0.000000 0.000000 1.726440 
# 
# From -- ./inp_files/4894.got.cif
#   From: 2010.05.17/outbox.cif.g08.bks.cpg/sg21_3_cif.got.tgz:4894.got - 2010.06.03 23:14:55.
